AES.pdb
     RDKit          3D

 21 20  0  0  1  0  0  0  0  0999 V2000
    8.2540  -12.3377   19.6201 C   0  0  0  0  0  0  0  0  0  0  0  0
    8.8038  -13.1595   18.4540 C   0  0  2  0  0  0  0  0  0  0  0  0
    7.6600  -13.7555   17.7900 N   0  0  0  0  0  0  0  0  0  0  0  0
    9.6859  -14.2087   18.9856 C   0  0  0  0  0  0  0  0  0  0  0  0
    9.1797  -15.3360   19.2947 O   0  0  0  0  0  0  0  0  0  0  0  0
   11.0737  -14.0554   19.1815 N   0  0  0  0  0  0  0  0  0  0  0  0
   11.9669  -15.1144   19.6630 C   0  0  1  0  0  0  0  0  0  0  0  0
   13.2867  -14.9156   18.9926 C   0  0  0  0  0  0  0  0  0  0  0  0
   13.3348  -15.2447   17.5388 C   0  0  0  0  0  0  0  0  0  0  0  0
   14.7397  -15.0511   17.0890 C   0  0  0  0  0  0  0  0  0  0  0  0
   15.3957  -13.9958   17.3707 O   0  0  0  0  0  0  0  0  0  0  0  0
   12.0182  -15.1249   21.1417 C   0  0  0  0  0  0  0  0  0  0  0  0
   12.7024  -14.2892   21.7376 O   0  0  0  0  0  0  0  0  0  0  0  0
   15.3862  -16.0209   16.3422 O   0  0  0  0  0  0  0  0  0  0  0  0
    9.5081  -17.6972   23.2692 O   0  0  0  0  0  0  0  0  0  0  0  0
    9.9627  -16.5492   23.9125 C   0  0  0  0  0  0  0  0  0  0  0  0
   11.2885  -16.1933   23.3091 C   0  0  2  0  0  0  0  0  0  0  0  0
   11.2984  -16.0760   21.8911 N   0  0  0  0  0  0  0  0  0  0  0  0
   12.3311  -17.1143   23.7755 C   0  0  0  0  0  0  0  0  0  0  0  0
   13.0304  -17.8282   23.0132 O   0  0  0  0  0  0  0  0  0  0  0  0
   12.5739  -17.2177   25.1369 O   0  0  0  0  0  0  0  0  0  0  0  0
  2  1  1  1
  3  2  1  0
  4  2  1  0
  5  4  2  0
  6  4  1  0
  7 12  1  0
  7  6  1  0
  7  8  1  6
  9  8  1  0
 10  9  1  0
 10 11  2  0
 12 18  1  0
 13 12  2  0
 14 10  1  0
 16 15  1  0
 17 16  1  6
 18 17  1  0
 19 21  1  0
 19 17  1  0
 20 19  2  0
M  END
$$$$
