NGI.pdb
     RDKit          3D

 21 20  0  0  1  0  0  0  0  0999 V2000
    8.3037  -20.6771   18.2853 N   0  0  0  0  0  0  0  0  0  0  0  0
    7.6080  -19.9180   19.2703 C   0  0  0  0  0  0  0  0  0  0  0  0
    7.8373  -20.2453   20.4772 O   0  0  0  0  0  0  0  0  0  0  0  0
    6.6724  -18.8134   18.9298 C   0  0  0  0  0  0  0  0  0  0  0  0
    7.2596  -17.5272   19.4452 C   0  0  2  0  0  0  0  0  0  0  0  0
    8.6770  -17.7490   19.6387 N   0  0  0  0  0  0  0  0  0  0  0  0
    6.6805  -17.0805   20.7158 C   0  0  0  0  0  0  0  0  0  0  0  0
    5.6040  -16.4407   20.6985 O   0  0  0  0  0  0  0  0  0  0  0  0
    7.2791  -17.3352   21.9881 N   0  0  0  0  0  0  0  0  0  0  0  0
    6.8363  -16.8241   23.2354 C   0  0  0  0  0  0  0  0  0  0  0  0
    7.7181  -15.8274   23.8787 C   0  0  0  0  0  0  0  0  0  0  0  0
    8.8241  -15.5306   23.3029 O   0  0  0  0  0  0  0  0  0  0  0  0
    6.3788  -11.4789   27.3993 C   0  0  0  0  0  0  0  0  0  0  0  0
    6.5328  -12.8444   26.6938 C   0  0  0  0  0  0  0  0  0  0  0  0
    7.6504  -12.8119   25.7182 C   0  0  2  0  0  0  0  0  0  0  0  0
    7.2496  -12.2561   24.3714 C   0  0  0  0  0  0  0  0  0  0  0  0
    8.3614  -14.1147   25.6288 C   0  0  2  0  0  0  0  0  0  0  0  0
    7.4654  -15.1590   25.0825 N   0  0  0  0  0  0  0  0  0  0  0  0
    9.0072  -14.5964   26.8564 C   0  0  0  0  0  0  0  0  0  0  0  0
    9.9199  -13.9672   27.4406 O   0  0  0  0  0  0  0  0  0  0  0  0
    8.6484  -15.8047   27.4710 O   0  0  0  0  0  0  0  0  0  0  0  0
  2  1  1  0
  2  3  2  0
  4  2  1  0
  5  6  1  1
  5  4  1  0
  7  5  1  0
  8  7  2  0
  9  7  1  0
 10 11  1  0
 10  9  1  0
 11 18  1  0
 12 11  2  0
 13 14  1  0
 15 17  1  0
 15 14  1  0
 15 16  1  6
 17 18  1  1
 19 17  1  0
 19 21  1  0
 20 19  2  0
M  END
$$$$
