NGI.pdb
     RDKit          3D

 21 20  0  0  1  0  0  0  0  0999 V2000
    7.6729  -17.9239   16.0943 N   0  0  0  0  0  0  0  0  0  0  0  0
    8.1401  -17.3507   17.3124 C   0  0  0  0  0  0  0  0  0  0  0  0
    9.3769  -17.0577   17.3412 O   0  0  0  0  0  0  0  0  0  0  0  0
    7.2562  -17.1037   18.4825 C   0  0  0  0  0  0  0  0  0  0  0  0
    8.0223  -17.4537   19.7297 C   0  0  2  0  0  0  0  0  0  0  0  0
    7.9650  -18.8924   19.8797 N   0  0  0  0  0  0  0  0  0  0  0  0
    7.4847  -16.8369   20.9462 C   0  0  0  0  0  0  0  0  0  0  0  0
    7.5042  -15.5892   21.0515 O   0  0  0  0  0  0  0  0  0  0  0  0
    6.9330  -17.5846   22.0319 N   0  0  0  0  0  0  0  0  0  0  0  0
    6.4044  -17.0447   23.2327 C   0  0  0  0  0  0  0  0  0  0  0  0
    7.3450  -16.2624   24.0623 C   0  0  0  0  0  0  0  0  0  0  0  0
    8.5988  -16.3528   23.8117 O   0  0  0  0  0  0  0  0  0  0  0  0
    5.6433  -11.5997   26.2336 C   0  0  0  0  0  0  0  0  0  0  0  0
    6.4735  -12.6840   25.5119 C   0  0  0  0  0  0  0  0  0  0  0  0
    7.3401  -13.4119   26.4716 C   0  0  2  0  0  0  0  0  0  0  0  0
    8.3069  -12.5104   27.2036 C   0  0  0  0  0  0  0  0  0  0  0  0
    7.9926  -14.5984   25.8572 C   0  0  2  0  0  0  0  0  0  0  0  0
    7.0002  -15.4138   25.1210 N   0  0  0  0  0  0  0  0  0  0  0  0
    8.7810  -15.4527   26.7542 C   0  0  0  0  0  0  0  0  0  0  0  0
    8.2871  -16.4081   27.3972 O   0  0  0  0  0  0  0  0  0  0  0  0
   10.1550  -15.2620   26.9597 O   0  0  0  0  0  0  0  0  0  0  0  0
  2  1  1  0
  2  3  2  0
  4  2  1  0
  5  6  1  1
  5  4  1  0
  7  5  1  0
  8  7  2  0
  9  7  1  0
 10 11  1  0
 10  9  1  0
 11 18  1  0
 12 11  2  0
 13 14  1  0
 15 17  1  0
 15 14  1  0
 15 16  1  6
 17 18  1  1
 19 17  1  0
 19 21  1  0
 20 19  2  0
M  END
$$$$
