NGI.pdb
     RDKit          3D

 21 20  0  0  1  0  0  0  0  0999 V2000
    8.4189  -19.8909   16.5517 N   0  0  0  0  0  0  0  0  0  0  0  0
    9.1047  -19.3267   17.6661 C   0  0  0  0  0  0  0  0  0  0  0  0
   10.3684  -19.2498   17.5502 O   0  0  0  0  0  0  0  0  0  0  0  0
    8.4072  -18.8537   18.8913 C   0  0  0  0  0  0  0  0  0  0  0  0
    8.3814  -17.3492   18.8637 C   0  0  2  0  0  0  0  0  0  0  0  0
    9.7362  -16.8920   19.0901 N   0  0  0  0  0  0  0  0  0  0  0  0
    7.5126  -16.7542   19.8837 C   0  0  0  0  0  0  0  0  0  0  0  0
    6.3550  -17.2084   20.0324 O   0  0  0  0  0  0  0  0  0  0  0  0
    7.9135  -15.6736   20.7283 N   0  0  0  0  0  0  0  0  0  0  0  0
    7.1554  -15.1218   21.7931 C   0  0  0  0  0  0  0  0  0  0  0  0
    7.8441  -15.0226   23.0973 C   0  0  0  0  0  0  0  0  0  0  0  0
    9.1003  -15.2728   23.1435 O   0  0  0  0  0  0  0  0  0  0  0  0
    5.9598  -11.3169   26.5424 C   0  0  0  0  0  0  0  0  0  0  0  0
    6.8008  -12.2440   25.6373 C   0  0  0  0  0  0  0  0  0  0  0  0
    7.3066  -13.4112   26.4012 C   0  0  2  0  0  0  0  0  0  0  0  0
    8.0747  -13.0230   27.6432 C   0  0  0  0  0  0  0  0  0  0  0  0
    8.0340  -14.3797   25.5386 C   0  0  2  0  0  0  0  0  0  0  0  0
    7.2514  -14.6774   24.3177 N   0  0  0  0  0  0  0  0  0  0  0  0
    8.4690  -15.6290   26.1757 C   0  0  0  0  0  0  0  0  0  0  0  0
    7.7376  -16.6428   26.2625 O   0  0  0  0  0  0  0  0  0  0  0  0
    9.7443  -15.7822   26.7385 O   0  0  0  0  0  0  0  0  0  0  0  0
  2  1  1  0
  2  3  2  0
  4  2  1  0
  5  6  1  1
  5  4  1  0
  7  5  1  0
  8  7  2  0
  9  7  1  0
 10 11  1  0
 10  9  1  0
 11 18  1  0
 12 11  2  0
 13 14  1  0
 15 17  1  0
 15 14  1  0
 15 16  1  1
 17 18  1  6
 19 17  1  0
 19 21  1  0
 20 19  2  0
M  END
$$$$
