NGI.pdb
     RDKit          3D

 21 20  0  0  1  0  0  0  0  0999 V2000
    9.5602  -17.7694   17.5632 N   0  0  0  0  0  0  0  0  0  0  0  0
    9.0113  -16.4975   17.8974 C   0  0  0  0  0  0  0  0  0  0  0  0
    8.7037  -15.7572   16.9108 O   0  0  0  0  0  0  0  0  0  0  0  0
    8.8044  -16.0480   19.2997 C   0  0  0  0  0  0  0  0  0  0  0  0
    7.4902  -16.6024   19.7797 C   0  0  2  0  0  0  0  0  0  0  0  0
    6.5187  -15.5318   19.7036 N   0  0  0  0  0  0  0  0  0  0  0  0
    7.5270  -17.1007   21.1579 C   0  0  0  0  0  0  0  0  0  0  0  0
    8.5984  -17.5730   21.6023 O   0  0  0  0  0  0  0  0  0  0  0  0
    6.3988  -17.0791   22.0347 N   0  0  0  0  0  0  0  0  0  0  0  0
    6.3418  -17.6450   23.3345 C   0  0  0  0  0  0  0  0  0  0  0  0
    6.9607  -16.8504   24.4164 C   0  0  0  0  0  0  0  0  0  0  0  0
    7.2119  -17.4307   25.5313 O   0  0  0  0  0  0  0  0  0  0  0  0
    6.6083  -12.3886   27.4772 C   0  0  0  0  0  0  0  0  0  0  0  0
    6.3990  -13.1118   26.1285 C   0  0  0  0  0  0  0  0  0  0  0  0
    7.6975  -13.3569   25.4533 C   0  0  2  0  0  0  0  0  0  0  0  0
    7.8040  -12.6842   24.1044 C   0  0  0  0  0  0  0  0  0  0  0  0
    8.0546  -14.7999   25.4207 C   0  0  2  0  0  0  0  0  0  0  0  0
    7.3075  -15.4958   24.3487 N   0  0  0  0  0  0  0  0  0  0  0  0
    7.9270  -15.5370   26.6842 C   0  0  0  0  0  0  0  0  0  0  0  0
    8.7942  -15.4996   27.5880 O   0  0  0  0  0  0  0  0  0  0  0  0
    6.8175  -16.3435   26.9761 O   0  0  0  0  0  0  0  0  0  0  0  0
  2  1  1  0
  2  3  2  0
  4  2  1  0
  5  6  1  1
  5  4  1  0
  7  5  1  0
  8  7  2  0
  9  7  1  0
 10 11  1  0
 10  9  1  0
 11 18  1  0
 12 11  2  0
 13 14  1  0
 15 17  1  0
 15 14  1  0
 15 16  1  6
 17 18  1  6
 19 17  1  0
 19 21  1  0
 20 19  2  0
M  END
$$$$
