NGI.pdb
     RDKit          3D

 21 20  0  0  1  0  0  0  0  0999 V2000
    9.4979  -19.2704   17.8314 N   0  0  0  0  0  0  0  0  0  0  0  0
    8.1344  -18.8753   17.7076 C   0  0  0  0  0  0  0  0  0  0  0  0
    7.8072  -18.3805   16.5832 O   0  0  0  0  0  0  0  0  0  0  0  0
    7.1453  -19.0236   18.8081 C   0  0  0  0  0  0  0  0  0  0  0  0
    6.7863  -17.6485   19.3030 C   0  0  2  0  0  0  0  0  0  0  0  0
    7.9920  -16.8483   19.2609 N   0  0  0  0  0  0  0  0  0  0  0  0
    6.2634  -17.6311   20.6725 C   0  0  0  0  0  0  0  0  0  0  0  0
    5.1703  -18.1941   20.9102 O   0  0  0  0  0  0  0  0  0  0  0  0
    6.9357  -17.0020   21.7654 N   0  0  0  0  0  0  0  0  0  0  0  0
    6.4864  -16.9646   23.1106 C   0  0  0  0  0  0  0  0  0  0  0  0
    7.4023  -16.3328   24.0838 C   0  0  0  0  0  0  0  0  0  0  0  0
    8.5415  -16.8816   24.2935 O   0  0  0  0  0  0  0  0  0  0  0  0
    6.6902  -11.5328   27.4443 C   0  0  0  0  0  0  0  0  0  0  0  0
    6.6894  -12.9132   26.7511 C   0  0  0  0  0  0  0  0  0  0  0  0
    7.7619  -12.9916   25.7286 C   0  0  2  0  0  0  0  0  0  0  0  0
    7.4302  -12.2429   24.4586 C   0  0  0  0  0  0  0  0  0  0  0  0
    8.2126  -14.3879   25.4875 C   0  0  2  0  0  0  0  0  0  0  0  0
    7.1473  -15.1696   24.8199 N   0  0  0  0  0  0  0  0  0  0  0  0
    8.7238  -15.1234   26.6510 C   0  0  0  0  0  0  0  0  0  0  0  0
    8.0800  -16.0357   27.2198 O   0  0  0  0  0  0  0  0  0  0  0  0
    9.9793  -14.8581   27.2167 O   0  0  0  0  0  0  0  0  0  0  0  0
  2  1  1  0
  2  3  2  0
  4  2  1  0
  5  6  1  1
  5  4  1  0
  7  5  1  0
  8  7  2  0
  9  7  1  0
 10 11  1  0
 10  9  1  0
 11 18  1  0
 12 11  2  0
 13 14  1  0
 15 17  1  0
 15 14  1  0
 15 16  1  6
 17 18  1  1
 19 17  1  0
 19 21  1  0
 20 19  2  0
M  END
$$$$
