NGI.pdb
     RDKit          3D

 21 20  0  0  1  0  0  0  0  0999 V2000
    8.1145  -22.0180   19.5582 N   0  0  0  0  0  0  0  0  0  0  0  0
    8.1816  -20.6266   19.8583 C   0  0  0  0  0  0  0  0  0  0  0  0
    8.0498  -19.8447   18.8646 O   0  0  0  0  0  0  0  0  0  0  0  0
    8.3910  -20.1043   21.2348 C   0  0  0  0  0  0  0  0  0  0  0  0
    7.0593  -20.0851   21.9356 C   0  0  2  0  0  0  0  0  0  0  0  0
    6.0986  -19.5117   21.0171 N   0  0  0  0  0  0  0  0  0  0  0  0
    7.0525  -19.2945   23.1702 C   0  0  0  0  0  0  0  0  0  0  0  0
    7.8332  -19.6121   24.0966 O   0  0  0  0  0  0  0  0  0  0  0  0
    6.1974  -18.1693   23.3814 N   0  0  0  0  0  0  0  0  0  0  0  0
    6.1228  -17.3889   24.5639 C   0  0  0  0  0  0  0  0  0  0  0  0
    7.1521  -16.3387   24.7148 C   0  0  0  0  0  0  0  0  0  0  0  0
    8.0468  -16.2271   23.8038 O   0  0  0  0  0  0  0  0  0  0  0  0
    6.0999  -11.4174   27.2344 C   0  0  0  0  0  0  0  0  0  0  0  0
    6.8194  -12.7830   27.1758 C   0  0  0  0  0  0  0  0  0  0  0  0
    7.4310  -13.0011   25.8416 C   0  0  2  0  0  0  0  0  0  0  0  0
    6.4568  -12.8142   24.7017 C   0  0  0  0  0  0  0  0  0  0  0  0
    8.1848  -14.2806   25.7671 C   0  0  2  0  0  0  0  0  0  0  0  0
    7.2549  -15.4326   25.7769 N   0  0  0  0  0  0  0  0  0  0  0  0
    9.2432  -14.4787   26.7654 C   0  0  0  0  0  0  0  0  0  0  0  0
   10.2599  -13.7497   26.8375 O   0  0  0  0  0  0  0  0  0  0  0  0
    9.1952  -15.5054   27.7194 O   0  0  0  0  0  0  0  0  0  0  0  0
  2  1  1  0
  2  3  2  0
  4  2  1  0
  5  6  1  6
  5  4  1  0
  7  5  1  0
  8  7  2  0
  9  7  1  0
 10 11  1  0
 10  9  1  0
 11 18  1  0
 12 11  2  0
 13 14  1  0
 15 17  1  0
 15 14  1  0
 15 16  1  6
 17 18  1  1
 19 17  1  0
 19 21  1  0
 20 19  2  0
M  END
$$$$
