NGI.pdb
     RDKit          3D

 21 20  0  0  1  0  0  0  0  0999 V2000
    8.4372  -15.5057   16.3386 N   0  0  0  0  0  0  0  0  0  0  0  0
    8.0372  -14.2178   16.7988 C   0  0  0  0  0  0  0  0  0  0  0  0
    7.8032  -13.3596   15.8905 O   0  0  0  0  0  0  0  0  0  0  0  0
    7.8971  -13.8804   18.2403 C   0  0  0  0  0  0  0  0  0  0  0  0
    8.1660  -15.1262   19.0407 C   0  0  2  0  0  0  0  0  0  0  0  0
    7.2586  -16.1481   18.5630 N   0  0  0  0  0  0  0  0  0  0  0  0
    7.9607  -14.9582   20.4825 C   0  0  0  0  0  0  0  0  0  0  0  0
    8.7073  -14.1749   21.1129 O   0  0  0  0  0  0  0  0  0  0  0  0
    6.9466  -15.6437   21.2199 N   0  0  0  0  0  0  0  0  0  0  0  0
    7.1532  -16.4575   22.3635 C   0  0  0  0  0  0  0  0  0  0  0  0
    7.8898  -15.8313   23.4816 C   0  0  0  0  0  0  0  0  0  0  0  0
    9.1238  -15.5318   23.3064 O   0  0  0  0  0  0  0  0  0  0  0  0
    6.0319  -11.8637   26.3242 C   0  0  0  0  0  0  0  0  0  0  0  0
    6.9159  -12.8942   25.5877 C   0  0  0  0  0  0  0  0  0  0  0  0
    7.4829  -13.8806   26.5404 C   0  0  2  0  0  0  0  0  0  0  0  0
    8.2976  -13.2442   27.6425 C   0  0  0  0  0  0  0  0  0  0  0  0
    8.1925  -14.9903   25.8503 C   0  0  2  0  0  0  0  0  0  0  0  0
    7.3674  -15.5258   24.7440 N   0  0  0  0  0  0  0  0  0  0  0  0
    8.6747  -16.0887   26.6970 C   0  0  0  0  0  0  0  0  0  0  0  0
    8.0075  -17.1266   26.9159 O   0  0  0  0  0  0  0  0  0  0  0  0
    9.9266  -16.0584   27.3282 O   0  0  0  0  0  0  0  0  0  0  0  0
  2  1  1  0
  2  3  2  0
  4  2  1  0
  5  6  1  6
  5  4  1  0
  7  5  1  0
  8  7  2  0
  9  7  1  0
 10 11  1  0
 10  9  1  0
 11 18  1  0
 12 11  2  0
 13 14  1  0
 15 17  1  0
 15 14  1  0
 15 16  1  1
 17 18  1  6
 19 17  1  0
 19 21  1  0
 20 19  2  0
M  END
$$$$
