NGI.pdb
     RDKit          3D

 21 20  0  0  1  0  0  0  0  0999 V2000
    9.3511  -14.3531   18.0537 N   0  0  0  0  0  0  0  0  0  0  0  0
    8.0289  -13.9811   17.6739 C   0  0  0  0  0  0  0  0  0  0  0  0
    7.6161  -14.4705   16.5756 O   0  0  0  0  0  0  0  0  0  0  0  0
    7.1736  -13.0821   18.4934 C   0  0  0  0  0  0  0  0  0  0  0  0
    7.8704  -12.8413   19.8054 C   0  0  2  0  0  0  0  0  0  0  0  0
    9.2342  -12.4605   19.5042 N   0  0  0  0  0  0  0  0  0  0  0  0
    7.8977  -14.0145   20.6841 C   0  0  0  0  0  0  0  0  0  0  0  0
    6.8292  -14.4016   21.2103 O   0  0  0  0  0  0  0  0  0  0  0  0
    9.0860  -14.7514   20.9791 N   0  0  0  0  0  0  0  0  0  0  0  0
    9.1934  -15.8281   21.8966 C   0  0  0  0  0  0  0  0  0  0  0  0
    9.2925  -15.4574   23.3241 C   0  0  0  0  0  0  0  0  0  0  0  0
   10.3919  -15.6924   23.9398 O   0  0  0  0  0  0  0  0  0  0  0  0
    6.0977  -11.5527   25.5228 C   0  0  0  0  0  0  0  0  0  0  0  0
    7.2892  -12.4460   25.1126 C   0  0  0  0  0  0  0  0  0  0  0  0
    7.3897  -13.6323   25.9983 C   0  0  2  0  0  0  0  0  0  0  0  0
    7.5085  -13.2750   27.4617 C   0  0  0  0  0  0  0  0  0  0  0  0
    8.4283  -14.5932   25.5413 C   0  0  2  0  0  0  0  0  0  0  0  0
    8.2844  -14.8636   24.0930 N   0  0  0  0  0  0  0  0  0  0  0  0
    8.5261  -15.8568   26.2828 C   0  0  0  0  0  0  0  0  0  0  0  0
    7.7767  -16.8371   26.0645 O   0  0  0  0  0  0  0  0  0  0  0  0
    9.4718  -16.0625   27.2977 O   0  0  0  0  0  0  0  0  0  0  0  0
  2  1  1  0
  2  3  2  0
  4  2  1  0
  5  6  1  6
  5  4  1  0
  7  5  1  0
  8  7  2  0
  9  7  1  0
 10 11  1  0
 10  9  1  0
 11 18  1  0
 12 11  2  0
 13 14  1  0
 15 17  1  0
 15 14  1  0
 15 16  1  1
 17 18  1  6
 19 17  1  0
 19 21  1  0
 20 19  2  0
M  END
$$$$
