NGI.pdb
     RDKit          3D

 21 20  0  0  1  0  0  0  0  0999 V2000
   13.0182  -18.6645   19.5598 N   0  0  0  0  0  0  0  0  0  0  0  0
   11.9970  -17.9056   18.9180 C   0  0  0  0  0  0  0  0  0  0  0  0
   12.0071  -17.9379   17.6471 O   0  0  0  0  0  0  0  0  0  0  0  0
   10.9787  -17.1220   19.6667 C   0  0  0  0  0  0  0  0  0  0  0  0
    9.7430  -17.9700   19.8029 C   0  0  2  0  0  0  0  0  0  0  0  0
    8.8826  -17.6590   18.6809 N   0  0  0  0  0  0  0  0  0  0  0  0
    8.9966  -17.7321   21.0421 C   0  0  0  0  0  0  0  0  0  0  0  0
    9.4002  -18.2614   22.1028 O   0  0  0  0  0  0  0  0  0  0  0  0
    7.8214  -16.9220   21.1117 N   0  0  0  0  0  0  0  0  0  0  0  0
    7.1321  -16.5527   22.2955 C   0  0  0  0  0  0  0  0  0  0  0  0
    7.8414  -15.6193   23.1957 C   0  0  0  0  0  0  0  0  0  0  0  0
    8.9228  -15.0729   22.7774 O   0  0  0  0  0  0  0  0  0  0  0  0
    6.7221  -10.9046   26.6790 C   0  0  0  0  0  0  0  0  0  0  0  0
    7.7697  -11.9777   26.3091 C   0  0  0  0  0  0  0  0  0  0  0  0
    7.1278  -13.1311   25.6311 C   0  0  2  0  0  0  0  0  0  0  0  0
    5.9204  -13.6600   26.3699 C   0  0  0  0  0  0  0  0  0  0  0  0
    8.1062  -14.1905   25.2689 C   0  0  2  0  0  0  0  0  0  0  0  0
    7.4461  -15.2629   24.4905 N   0  0  0  0  0  0  0  0  0  0  0  0
    8.8825  -14.7725   26.3710 C   0  0  0  0  0  0  0  0  0  0  0  0
    8.7012  -15.9380   26.7940 O   0  0  0  0  0  0  0  0  0  0  0  0
    9.8918  -14.0626   27.0373 O   0  0  0  0  0  0  0  0  0  0  0  0
  2  1  1  0
  2  3  2  0
  4  2  1  0
  5  6  1  6
  5  4  1  0
  7  5  1  0
  8  7  2  0
  9  7  1  0
 10 11  1  0
 10  9  1  0
 11 18  1  0
 12 11  2  0
 13 14  1  0
 15 17  1  0
 15 14  1  0
 15 16  1  1
 17 18  1  1
 19 17  1  0
 19 21  1  0
 20 19  2  0
M  END
$$$$
