NGI.pdb
     RDKit          3D

 21 20  0  0  1  0  0  0  0  0999 V2000
   10.1280  -17.0635   16.5537 N   0  0  0  0  0  0  0  0  0  0  0  0
    9.3242  -18.0403   17.2098 C   0  0  0  0  0  0  0  0  0  0  0  0
    9.3798  -19.2130   16.7221 O   0  0  0  0  0  0  0  0  0  0  0  0
    8.4708  -17.7286   18.3871 C   0  0  0  0  0  0  0  0  0  0  0  0
    9.3486  -17.1401   19.4585 C   0  0  2  0  0  0  0  0  0  0  0  0
    9.9975  -18.2426   20.1361 N   0  0  0  0  0  0  0  0  0  0  0  0
    8.6177  -16.3480   20.4523 C   0  0  0  0  0  0  0  0  0  0  0  0
    8.6052  -15.1006   20.3418 O   0  0  0  0  0  0  0  0  0  0  0  0
    7.9100  -16.9224   21.5530 N   0  0  0  0  0  0  0  0  0  0  0  0
    7.1222  -16.2158   22.4979 C   0  0  0  0  0  0  0  0  0  0  0  0
    7.8637  -15.5199   23.5707 C   0  0  0  0  0  0  0  0  0  0  0  0
    9.1378  -15.6523   23.6156 O   0  0  0  0  0  0  0  0  0  0  0  0
    5.8756  -11.4864   27.3498 C   0  0  0  0  0  0  0  0  0  0  0  0
    6.2184  -12.7907   26.5966 C   0  0  0  0  0  0  0  0  0  0  0  0
    7.5015  -12.6558   25.8636 C   0  0  2  0  0  0  0  0  0  0  0  0
    7.4076  -11.7468   24.6602 C   0  0  0  0  0  0  0  0  0  0  0  0
    8.1200  -13.9732   25.5587 C   0  0  2  0  0  0  0  0  0  0  0  0
    7.3047  -14.7131   24.5689 N   0  0  0  0  0  0  0  0  0  0  0  0
    8.4259  -14.8367   26.7062 C   0  0  0  0  0  0  0  0  0  0  0  0
    7.8156  -15.9061   26.9388 O   0  0  0  0  0  0  0  0  0  0  0  0
    9.4309  -14.5272   27.6340 O   0  0  0  0  0  0  0  0  0  0  0  0
  2  1  1  0
  2  3  2  0
  4  2  1  0
  5  6  1  1
  5  4  1  0
  7  5  1  0
  8  7  2  0
  9  7  1  0
 10 11  1  0
 10  9  1  0
 11 18  1  0
 12 11  2  0
 13 14  1  0
 15 17  1  0
 15 14  1  0
 15 16  1  6
 17 18  1  6
 19 17  1  0
 19 21  1  0
 20 19  2  0
M  END
$$$$
