NGI.pdb
     RDKit          3D

 21 20  0  0  1  0  0  0  0  0999 V2000
    7.4346  -19.8236   16.8420 N   0  0  0  0  0  0  0  0  0  0  0  0
    7.3513  -18.6305   17.6167 C   0  0  0  0  0  0  0  0  0  0  0  0
    7.8466  -17.5912   17.0774 O   0  0  0  0  0  0  0  0  0  0  0  0
    6.7307  -18.5836   18.9673 C   0  0  0  0  0  0  0  0  0  0  0  0
    7.7784  -18.1308   19.9482 C   0  0  2  0  0  0  0  0  0  0  0  0
    8.4813  -19.3121   20.4021 N   0  0  0  0  0  0  0  0  0  0  0  0
    7.2319  -17.4359   21.1177 C   0  0  0  0  0  0  0  0  0  0  0  0
    6.7981  -16.2691   20.9805 O   0  0  0  0  0  0  0  0  0  0  0  0
    7.1644  -18.0184   22.4209 N   0  0  0  0  0  0  0  0  0  0  0  0
    6.6443  -17.3978   23.5858 C   0  0  0  0  0  0  0  0  0  0  0  0
    7.4518  -16.2958   24.1501 C   0  0  0  0  0  0  0  0  0  0  0  0
    8.6187  -16.0845   23.6636 O   0  0  0  0  0  0  0  0  0  0  0  0
    6.8224  -10.7311   26.6349 C   0  0  0  0  0  0  0  0  0  0  0  0
    7.7651  -11.9220   26.3540 C   0  0  0  0  0  0  0  0  0  0  0  0
    6.9947  -13.1163   25.9273 C   0  0  2  0  0  0  0  0  0  0  0  0
    5.8622  -13.4616   26.8663 C   0  0  0  0  0  0  0  0  0  0  0  0
    7.8735  -14.2744   25.6150 C   0  0  2  0  0  0  0  0  0  0  0  0
    7.0656  -15.4391   25.1878 N   0  0  0  0  0  0  0  0  0  0  0  0
    8.8256  -14.6767   26.6579 C   0  0  0  0  0  0  0  0  0  0  0  0
    9.7941  -13.9642   27.0109 O   0  0  0  0  0  0  0  0  0  0  0  0
    8.7216  -15.8966   27.3417 O   0  0  0  0  0  0  0  0  0  0  0  0
  2  1  1  0
  2  3  2  0
  4  2  1  0
  5  6  1  1
  5  4  1  0
  7  5  1  0
  8  7  2  0
  9  7  1  0
 10 11  1  0
 10  9  1  0
 11 18  1  0
 12 11  2  0
 13 14  1  0
 15 17  1  0
 15 14  1  0
 15 16  1  1
 17 18  1  1
 19 17  1  0
 19 21  1  0
 20 19  2  0
M  END
$$$$
