NGI.pdb
     RDKit          3D

 21 20  0  0  1  0  0  0  0  0999 V2000
   11.8239  -21.3601   25.0155 N   0  0  0  0  0  0  0  0  0  0  0  0
   10.6834  -20.7472   25.6108 C   0  0  0  0  0  0  0  0  0  0  0  0
   10.6784  -20.7171   26.8818 O   0  0  0  0  0  0  0  0  0  0  0  0
    9.5641  -20.1754   24.8162 C   0  0  0  0  0  0  0  0  0  0  0  0
    8.2754  -20.4989   25.5231 C   0  0  2  0  0  0  0  0  0  0  0  0
    7.6514  -21.5879   24.8019 N   0  0  0  0  0  0  0  0  0  0  0  0
    7.3337  -19.3767   25.5781 C   0  0  0  0  0  0  0  0  0  0  0  0
    7.0957  -18.8401   26.6844 O   0  0  0  0  0  0  0  0  0  0  0  0
    6.6633  -18.8527   24.4301 N   0  0  0  0  0  0  0  0  0  0  0  0
    5.7936  -17.7319   24.4115 C   0  0  0  0  0  0  0  0  0  0  0  0
    6.4212  -16.4186   24.6689 C   0  0  0  0  0  0  0  0  0  0  0  0
    5.7443  -15.3598   24.4164 O   0  0  0  0  0  0  0  0  0  0  0  0
    5.4562  -12.7140   26.4758 C   0  0  0  0  0  0  0  0  0  0  0  0
    6.2159  -13.6969   25.5579 C   0  0  0  0  0  0  0  0  0  0  0  0
    7.5884  -13.9412   26.0664 C   0  0  2  0  0  0  0  0  0  0  0  0
    8.3394  -12.6701   26.3887 C   0  0  0  0  0  0  0  0  0  0  0  0
    8.3556  -14.8735   25.1986 C   0  0  2  0  0  0  0  0  0  0  0  0
    7.7109  -16.2059   25.1702 N   0  0  0  0  0  0  0  0  0  0  0  0
    9.7882  -15.0128   25.4890 C   0  0  0  0  0  0  0  0  0  0  0  0
   10.5925  -14.0533   25.4372 O   0  0  0  0  0  0  0  0  0  0  0  0
   10.3674  -16.2383   25.8485 O   0  0  0  0  0  0  0  0  0  0  0  0
  2  1  1  0
  2  3  2  0
  4  2  1  0
  5  6  1  6
  5  4  1  0
  7  5  1  0
  8  7  2  0
  9  7  1  0
 10 11  1  0
 10  9  1  0
 11 18  1  0
 12 11  2  0
 13 14  1  0
 15 17  1  0
 15 14  1  0
 15 16  1  6
 17 18  1  1
 19 17  1  0
 19 21  1  0
 20 19  2  0
M  END
$$$$
