NGI.pdb
     RDKit          3D

 21 20  0  0  1  0  0  0  0  0999 V2000
    7.3318  -13.2688   16.4601 N   0  0  0  0  0  0  0  0  0  0  0  0
    8.2590  -13.8832   17.3509 C   0  0  0  0  0  0  0  0  0  0  0  0
    9.3466  -14.2773   16.8235 O   0  0  0  0  0  0  0  0  0  0  0  0
    7.9910  -14.0608   18.8028 C   0  0  0  0  0  0  0  0  0  0  0  0
    7.8799  -15.5355   19.0812 C   0  0  2  0  0  0  0  0  0  0  0  0
    6.6057  -15.9773   18.5548 N   0  0  0  0  0  0  0  0  0  0  0  0
    7.9376  -15.8739   20.5065 C   0  0  0  0  0  0  0  0  0  0  0  0
    9.0553  -15.9463   21.0666 O   0  0  0  0  0  0  0  0  0  0  0  0
    6.7796  -16.1291   21.3039 N   0  0  0  0  0  0  0  0  0  0  0  0
    6.7687  -16.3951   22.6975 C   0  0  0  0  0  0  0  0  0  0  0  0
    7.6114  -15.5141   23.5333 C   0  0  0  0  0  0  0  0  0  0  0  0
    8.6946  -15.0497   23.0292 O   0  0  0  0  0  0  0  0  0  0  0  0
    6.0674  -11.7602   27.5386 C   0  0  0  0  0  0  0  0  0  0  0  0
    6.3903  -13.0929   26.8276 C   0  0  0  0  0  0  0  0  0  0  0  0
    7.5341  -12.9312   25.8962 C   0  0  2  0  0  0  0  0  0  0  0  0
    7.1791  -12.1629   24.6443 C   0  0  0  0  0  0  0  0  0  0  0  0
    8.2251  -14.2185   25.6200 C   0  0  2  0  0  0  0  0  0  0  0  0
    7.3439  -15.1266   24.8516 N   0  0  0  0  0  0  0  0  0  0  0  0
    8.7884  -14.9234   26.7783 C   0  0  0  0  0  0  0  0  0  0  0  0
    8.3816  -16.0456   27.1597 O   0  0  0  0  0  0  0  0  0  0  0  0
    9.8309  -14.3900   27.5498 O   0  0  0  0  0  0  0  0  0  0  0  0
  2  1  1  0
  2  3  2  0
  4  2  1  0
  5  6  1  1
  5  4  1  0
  7  5  1  0
  8  7  2  0
  9  7  1  0
 10 11  1  0
 10  9  1  0
 11 18  1  0
 12 11  2  0
 13 14  1  0
 15 17  1  0
 15 14  1  0
 15 16  1  6
 17 18  1  1
 19 17  1  0
 19 21  1  0
 20 19  2  0
M  END
$$$$
