LNL.pdb
     RDKit          3D

 25 24  0  0  1  0  0  0  0  0999 V2000
   22.8039  -20.2019   -8.8584 C   0  0  0  0  0  0  0  0  0  0  0  0
   24.1047  -20.9724   -8.9043 C   0  0  2  0  0  0  0  0  0  0  0  0
   24.7225  -20.9901   -7.5248 C   0  0  0  0  0  0  0  0  0  0  0  0
   25.0342  -20.4165   -9.9482 C   0  0  0  0  0  0  0  0  0  0  0  0
   24.2675  -20.2481  -11.2336 C   0  0  2  0  0  0  0  0  0  0  0  0
   23.1501  -21.1546  -11.3700 N   0  0  0  0  0  0  0  0  0  0  0  0
   25.1969  -20.3621  -12.4136 C   0  0  0  0  0  0  0  0  0  0  0  0
   26.2578  -19.6955  -12.4477 O   0  0  0  0  0  0  0  0  0  0  0  0
   25.6503  -23.4287  -17.7945 N   0  0  0  0  0  0  0  0  0  0  0  0
   26.1701  -23.0520  -16.5288 C   0  0  0  0  0  0  0  0  0  0  0  0
   27.4395  -22.9480  -16.4697 O   0  0  0  0  0  0  0  0  0  0  0  0
   25.2820  -22.7988  -15.3588 C   0  0  0  0  0  0  0  0  0  0  0  0
   25.5261  -21.4480  -14.7165 C   0  0  2  0  0  0  0  0  0  0  0  0
   24.8700  -21.2155  -13.4706 N   0  0  0  0  0  0  0  0  0  0  0  0
   25.5743  -20.3239  -15.6429 C   0  0  0  0  0  0  0  0  0  0  0  0
   24.5646  -19.5558  -15.8442 O   0  0  0  0  0  0  0  0  0  0  0  0
   28.3983  -17.0567  -19.2239 C   0  0  0  0  0  0  0  0  0  0  0  0
   28.6110  -17.0771  -17.7595 C   0  0  2  0  0  0  0  0  0  0  0  0
   30.0864  -16.7084  -17.4859 C   0  0  0  0  0  0  0  0  0  0  0  0
   28.2363  -18.3172  -17.0715 C   0  0  0  0  0  0  0  0  0  0  0  0
   26.8658  -18.8484  -17.2596 C   0  0  2  0  0  0  0  0  0  0  0  0
   26.7575  -20.0573  -16.3469 N   0  0  0  0  0  0  0  0  0  0  0  0
   26.5662  -19.3736  -18.5781 C   0  0  0  0  0  0  0  0  0  0  0  0
   25.8653  -18.8628  -19.4866 O   0  0  0  0  0  0  0  0  0  0  0  0
   27.1103  -20.6322  -18.9558 O   0  0  0  0  0  0  0  0  0  0  0  0
  2  1  1  1
  2  3  1  0
  4  5  1  0
  4  2  1  0
  5  6  1  6
  7  5  1  0
  7  8  2  0
 10 12  1  0
 10  9  1  0
 11 10  2  0
 13 12  1  6
 14 13  1  0
 14  7  1  0
 15 13  1  0
 16 15  2  0
 18 17  1  6
 18 19  1  0
 18 20  1  0
 21 20  1  6
 21 22  1  0
 21 23  1  0
 22 15  1  0
 23 25  1  0
 24 23  2  0
M  END
$$$$
