LNL.pdb
     RDKit          3D

 25 24  0  0  1  0  0  0  0  0999 V2000
   21.8941  -16.0989  -17.2773 C   0  0  0  0  0  0  0  0  0  0  0  0
   20.6641  -16.9161  -16.9496 C   0  0  2  0  0  0  0  0  0  0  0  0
   19.7713  -16.1231  -16.0226 C   0  0  0  0  0  0  0  0  0  0  0  0
   21.0339  -18.2613  -16.3873 C   0  0  0  0  0  0  0  0  0  0  0  0
   21.9613  -18.9482  -17.3551 C   0  0  2  0  0  0  0  0  0  0  0  0
   21.3347  -19.3128  -18.6055 N   0  0  0  0  0  0  0  0  0  0  0  0
   22.5973  -20.1489  -16.7046 C   0  0  0  0  0  0  0  0  0  0  0  0
   21.9447  -21.2098  -16.5638 O   0  0  0  0  0  0  0  0  0  0  0  0
   26.3559  -23.1222  -14.6691 N   0  0  0  0  0  0  0  0  0  0  0  0
   26.9623  -21.8628  -14.9142 C   0  0  0  0  0  0  0  0  0  0  0  0
   28.2234  -21.8198  -14.7305 O   0  0  0  0  0  0  0  0  0  0  0  0
   26.1681  -20.6810  -15.3551 C   0  0  0  0  0  0  0  0  0  0  0  0
   24.6850  -20.9749  -15.4596 C   0  0  2  0  0  0  0  0  0  0  0  0
   23.9194  -20.0740  -16.2590 N   0  0  0  0  0  0  0  0  0  0  0  0
   24.0596  -21.4395  -14.2278 C   0  0  0  0  0  0  0  0  0  0  0  0
   23.8616  -22.6852  -13.9853 O   0  0  0  0  0  0  0  0  0  0  0  0
   25.1204  -22.3107  -10.0081 C   0  0  0  0  0  0  0  0  0  0  0  0
   25.1584  -20.9341  -10.5501 C   0  0  2  0  0  0  0  0  0  0  0  0
   25.9443  -20.0507   -9.5553 C   0  0  0  0  0  0  0  0  0  0  0  0
   23.8607  -20.3364  -10.8818 C   0  0  0  0  0  0  0  0  0  0  0  0
   23.0427  -20.9598  -11.9487 C   0  0  2  0  0  0  0  0  0  0  0  0
   23.6543  -20.5063  -13.2626 N   0  0  0  0  0  0  0  0  0  0  0  0
   21.6639  -20.5166  -12.0294 C   0  0  0  0  0  0  0  0  0  0  0  0
   21.1395  -19.7268  -12.8532 O   0  0  0  0  0  0  0  0  0  0  0  0
   20.7283  -21.0067  -11.0769 O   0  0  0  0  0  0  0  0  0  0  0  0
  2  1  1  1
  2  3  1  0
  4  5  1  0
  4  2  1  0
  5  6  1  6
  7  5  1  0
  7  8  2  0
 10 12  1  0
 10  9  1  0
 11 10  2  0
 13 12  1  1
 14 13  1  0
 14  7  1  0
 15 13  1  0
 16 15  2  0
 18 17  1  1
 18 19  1  0
 18 20  1  0
 21 20  1  1
 21 22  1  0
 21 23  1  0
 22 15  1  0
 23 25  1  0
 24 23  2  0
M  END
$$$$
