LNL.pdb
     RDKit          3D

 25 24  0  0  1  0  0  0  0  0999 V2000
   23.6805  -23.2626  -19.2942 C   0  0  0  0  0  0  0  0  0  0  0  0
   23.9470  -21.9591  -18.5745 C   0  0  2  0  0  0  0  0  0  0  0  0
   25.3640  -21.5146  -18.8568 C   0  0  0  0  0  0  0  0  0  0  0  0
   23.6591  -22.0769  -17.1029 C   0  0  0  0  0  0  0  0  0  0  0  0
   22.2421  -22.5563  -16.9273 C   0  0  2  0  0  0  0  0  0  0  0  0
   21.2530  -21.6831  -17.5174 N   0  0  0  0  0  0  0  0  0  0  0  0
   21.9479  -22.7903  -15.4686 C   0  0  0  0  0  0  0  0  0  0  0  0
   22.8309  -23.2629  -14.7149 O   0  0  0  0  0  0  0  0  0  0  0  0
   20.8213  -20.0491  -13.2537 N   0  0  0  0  0  0  0  0  0  0  0  0
   19.4656  -20.4162  -13.0504 C   0  0  0  0  0  0  0  0  0  0  0  0
   18.6913  -19.4678  -12.6943 O   0  0  0  0  0  0  0  0  0  0  0  0
   18.9938  -21.8169  -13.2432 C   0  0  0  0  0  0  0  0  0  0  0  0
   20.0988  -22.7539  -13.6881 C   0  0  2  0  0  0  0  0  0  0  0  0
   20.6848  -22.4774  -14.9596 N   0  0  0  0  0  0  0  0  0  0  0  0
   19.8837  -24.1588  -13.3657 C   0  0  0  0  0  0  0  0  0  0  0  0
   19.9761  -25.0880  -14.2478 O   0  0  0  0  0  0  0  0  0  0  0  0
   20.7036  -28.8912  -12.6159 C   0  0  0  0  0  0  0  0  0  0  0  0
   21.0544  -27.9634  -11.5176 C   0  0  2  0  0  0  0  0  0  0  0  0
   20.2966  -28.4163  -10.2494 C   0  0  0  0  0  0  0  0  0  0  0  0
   20.8387  -26.5375  -11.7852 C   0  0  0  0  0  0  0  0  0  0  0  0
   19.4688  -25.9883  -11.6512 C   0  0  2  0  0  0  0  0  0  0  0  0
   19.5642  -24.5263  -12.0506 N   0  0  0  0  0  0  0  0  0  0  0  0
   18.9306  -25.9521  -10.3047 C   0  0  0  0  0  0  0  0  0  0  0  0
   19.1985  -25.1539   -9.3728 O   0  0  0  0  0  0  0  0  0  0  0  0
   17.9637  -26.9238   -9.9254 O   0  0  0  0  0  0  0  0  0  0  0  0
  2  1  1  6
  2  3  1  0
  4  5  1  0
  4  2  1  0
  5  6  1  1
  7  5  1  0
  7  8  2  0
 10 12  1  0
 10  9  1  0
 11 10  2  0
 13 12  1  6
 14 13  1  0
 14  7  1  0
 15 13  1  0
 16 15  2  0
 18 17  1  6
 18 19  1  0
 18 20  1  0
 21 20  1  1
 21 22  1  0
 21 23  1  0
 22 15  1  0
 23 25  1  0
 24 23  2  0
M  END
$$$$
