LNL.pdb
     RDKit          3D

 25 24  0  0  1  0  0  0  0  0999 V2000
   20.0204  -17.7432  -13.1370 C   0  0  0  0  0  0  0  0  0  0  0  0
   19.6290  -19.1869  -12.9123 C   0  0  2  0  0  0  0  0  0  0  0  0
   18.1950  -19.2465  -12.4376 C   0  0  0  0  0  0  0  0  0  0  0  0
   20.5801  -19.8721  -11.9697 C   0  0  0  0  0  0  0  0  0  0  0  0
   21.9817  -19.7039  -12.4948 C   0  0  2  0  0  0  0  0  0  0  0  0
   22.1671  -20.2090  -13.8363 N   0  0  0  0  0  0  0  0  0  0  0  0
   22.9721  -20.3271  -11.5462 C   0  0  0  0  0  0  0  0  0  0  0  0
   22.5988  -20.7300  -10.4195 O   0  0  0  0  0  0  0  0  0  0  0  0
   24.9174  -24.0722  -12.6177 N   0  0  0  0  0  0  0  0  0  0  0  0
   25.4799  -22.8388  -13.0376 C   0  0  0  0  0  0  0  0  0  0  0  0
   25.2543  -22.5219  -14.2519 O   0  0  0  0  0  0  0  0  0  0  0  0
   26.2767  -21.9835  -12.1128 C   0  0  0  0  0  0  0  0  0  0  0  0
   25.4136  -21.0697  -11.2662 C   0  0  2  0  0  0  0  0  0  0  0  0
   24.3098  -20.4539  -11.9290 N   0  0  0  0  0  0  0  0  0  0  0  0
   26.1417  -20.2406  -10.3140 C   0  0  0  0  0  0  0  0  0  0  0  0
   26.4884  -19.0326  -10.5794 O   0  0  0  0  0  0  0  0  0  0  0  0
   28.1466  -20.6739   -4.4868 C   0  0  0  0  0  0  0  0  0  0  0  0
   28.3837  -20.1444   -5.8482 C   0  0  2  0  0  0  0  0  0  0  0  0
   28.6023  -18.6189   -5.7361 C   0  0  0  0  0  0  0  0  0  0  0  0
   27.3611  -20.4628   -6.8504 C   0  0  0  0  0  0  0  0  0  0  0  0
   27.6644  -20.2143   -8.2795 C   0  0  2  0  0  0  0  0  0  0  0  0
   26.4832  -20.7650   -9.0590 N   0  0  0  0  0  0  0  0  0  0  0  0
   28.8065  -20.9288   -8.8174 C   0  0  0  0  0  0  0  0  0  0  0  0
   29.9531  -20.4907   -9.0833 O   0  0  0  0  0  0  0  0  0  0  0  0
   28.6762  -22.3160   -9.1029 O   0  0  0  0  0  0  0  0  0  0  0  0
  2  1  1  1
  2  3  1  0
  4  5  1  0
  4  2  1  0
  5  6  1  6
  7  5  1  0
  7  8  2  0
 10 12  1  0
 10  9  1  0
 11 10  2  0
 13 12  1  6
 14 13  1  0
 14  7  1  0
 15 13  1  0
 16 15  2  0
 18 17  1  1
 18 19  1  0
 18 20  1  0
 21 20  1  1
 21 22  1  0
 21 23  1  0
 22 15  1  0
 23 25  1  0
 24 23  2  0
M  END
$$$$
