LNL.pdb
     RDKit          3D

 25 24  0  0  1  0  0  0  0  0999 V2000
   28.0943  -23.1599  -18.4449 C   0  0  0  0  0  0  0  0  0  0  0  0
   28.6738  -23.4410  -17.0763 C   0  0  2  0  0  0  0  0  0  0  0  0
   29.5961  -24.6358  -17.1614 C   0  0  0  0  0  0  0  0  0  0  0  0
   27.5902  -23.6178  -16.0482 C   0  0  0  0  0  0  0  0  0  0  0  0
   26.7692  -22.3562  -15.9936 C   0  0  2  0  0  0  0  0  0  0  0  0
   27.5587  -21.1456  -15.9885 N   0  0  0  0  0  0  0  0  0  0  0  0
   25.8362  -22.3922  -14.8115 C   0  0  0  0  0  0  0  0  0  0  0  0
   24.9610  -23.2854  -14.7256 O   0  0  0  0  0  0  0  0  0  0  0  0
   25.1484  -21.6101   -9.2827 N   0  0  0  0  0  0  0  0  0  0  0  0
   25.1210  -20.5364  -10.2103 C   0  0  0  0  0  0  0  0  0  0  0  0
   24.3657  -19.5597   -9.8918 O   0  0  0  0  0  0  0  0  0  0  0  0
   25.9243  -20.5623  -11.4656 C   0  0  0  0  0  0  0  0  0  0  0  0
   25.1945  -21.2239  -12.6174 C   0  0  2  0  0  0  0  0  0  0  0  0
   25.9517  -21.4244  -13.8104 N   0  0  0  0  0  0  0  0  0  0  0  0
   23.8093  -20.8057  -12.7921 C   0  0  0  0  0  0  0  0  0  0  0  0
   22.9593  -20.8251  -11.8293 O   0  0  0  0  0  0  0  0  0  0  0  0
   19.9437  -18.5972  -16.2654 C   0  0  0  0  0  0  0  0  0  0  0  0
   21.0401  -17.8359  -15.6263 C   0  0  2  0  0  0  0  0  0  0  0  0
   21.4479  -16.6923  -16.5820 C   0  0  0  0  0  0  0  0  0  0  0  0
   22.2070  -18.6182  -15.2047 C   0  0  0  0  0  0  0  0  0  0  0  0
   22.0148  -19.7048  -14.2155 C   0  0  2  0  0  0  0  0  0  0  0  0
   23.3730  -20.3633  -14.0493 N   0  0  0  0  0  0  0  0  0  0  0  0
   21.1447  -20.7896  -14.6283 C   0  0  0  0  0  0  0  0  0  0  0  0
   19.9573  -21.0171  -14.2882 O   0  0  0  0  0  0  0  0  0  0  0  0
   21.6427  -21.7597  -15.5415 O   0  0  0  0  0  0  0  0  0  0  0  0
  2  1  1  6
  2  3  1  0
  4  5  1  0
  4  2  1  0
  5  6  1  1
  7  5  1  0
  7  8  2  0
 10 12  1  0
 10  9  1  0
 11 10  2  0
 13 12  1  1
 14 13  1  0
 14  7  1  0
 15 13  1  0
 16 15  2  0
 18 17  1  6
 18 19  1  0
 18 20  1  0
 21 20  1  6
 21 22  1  0
 21 23  1  0
 22 15  1  0
 23 25  1  0
 24 23  2  0
M  END
$$$$
