LNL.pdb
     RDKit          3D

 25 24  0  0  1  0  0  0  0  0999 V2000
   23.5405  -16.2548  -17.0257 C   0  0  0  0  0  0  0  0  0  0  0  0
   22.5931  -17.4182  -16.8334 C   0  0  2  0  0  0  0  0  0  0  0  0
   21.1933  -16.9884  -17.2088 C   0  0  0  0  0  0  0  0  0  0  0  0
   22.6754  -17.9665  -15.4351 C   0  0  0  0  0  0  0  0  0  0  0  0
   24.0928  -18.4030  -15.1727 C   0  0  2  0  0  0  0  0  0  0  0  0
   24.7451  -18.9899  -16.3211 N   0  0  0  0  0  0  0  0  0  0  0  0
   24.1401  -19.3390  -13.9933 C   0  0  0  0  0  0  0  0  0  0  0  0
   23.3008  -19.2315  -13.0686 O   0  0  0  0  0  0  0  0  0  0  0  0
   23.5495  -23.3796  -13.7631 N   0  0  0  0  0  0  0  0  0  0  0  0
   24.9383  -23.6385  -13.8978 C   0  0  0  0  0  0  0  0  0  0  0  0
   25.2358  -24.7781  -14.3863 O   0  0  0  0  0  0  0  0  0  0  0  0
   25.9667  -22.6386  -13.4922 C   0  0  0  0  0  0  0  0  0  0  0  0
   25.3614  -21.3514  -12.9690 C   0  0  2  0  0  0  0  0  0  0  0  0
   25.1249  -20.3284  -13.9356 N   0  0  0  0  0  0  0  0  0  0  0  0
   25.8657  -20.9143  -11.6734 C   0  0  0  0  0  0  0  0  0  0  0  0
   27.1091  -20.6652  -11.4686 O   0  0  0  0  0  0  0  0  0  0  0  0
   27.6882  -20.7272   -7.2342 C   0  0  0  0  0  0  0  0  0  0  0  0
   27.4959  -19.6732   -8.2551 C   0  0  2  0  0  0  0  0  0  0  0  0
   27.8909  -18.3192   -7.6241 C   0  0  0  0  0  0  0  0  0  0  0  0
   26.1653  -19.6059   -8.8687 C   0  0  0  0  0  0  0  0  0  0  0  0
   25.4546  -20.8719   -9.1658 C   0  0  2  0  0  0  0  0  0  0  0  0
   24.9751  -20.7545  -10.6020 N   0  0  0  0  0  0  0  0  0  0  0  0
   24.2415  -21.1096   -8.4069 C   0  0  0  0  0  0  0  0  0  0  0  0
   23.0478  -20.9507   -8.7636 O   0  0  0  0  0  0  0  0  0  0  0  0
   24.3494  -21.5893   -7.0723 O   0  0  0  0  0  0  0  0  0  0  0  0
  2  1  1  1
  2  3  1  0
  4  5  1  0
  4  2  1  0
  5  6  1  6
  7  5  1  0
  7  8  2  0
 10 12  1  0
 10  9  1  0
 11 10  2  0
 13 12  1  6
 14 13  1  0
 14  7  1  0
 15 13  1  0
 16 15  2  0
 18 17  1  1
 18 19  1  0
 18 20  1  0
 21 20  1  1
 21 22  1  0
 21 23  1  0
 22 15  1  0
 23 25  1  0
 24 23  2  0
M  END
$$$$
