LNL.pdb
     RDKit          3D

 25 24  0  0  1  0  0  0  0  0999 V2000
   18.5342  -15.1482  -20.2412 C   0  0  0  0  0  0  0  0  0  0  0  0
   17.2499  -14.3536  -20.3264 C   0  0  2  0  0  0  0  0  0  0  0  0
   16.4794  -14.7819  -21.5544 C   0  0  0  0  0  0  0  0  0  0  0  0
   17.5182  -12.8738  -20.2978 C   0  0  0  0  0  0  0  0  0  0  0  0
   18.2055  -12.5350  -19.0012 C   0  0  2  0  0  0  0  0  0  0  0  0
   17.6877  -13.2554  -17.8602 N   0  0  0  0  0  0  0  0  0  0  0  0
   18.1619  -11.0486  -18.7610 C   0  0  0  0  0  0  0  0  0  0  0  0
   18.6348  -10.2580  -19.6110 O   0  0  0  0  0  0  0  0  0  0  0  0
   15.6855   -6.3861  -17.2179 N   0  0  0  0  0  0  0  0  0  0  0  0
   15.9174   -7.4081  -16.2609 C   0  0  0  0  0  0  0  0  0  0  0  0
   16.0213   -7.0112  -15.0536 O   0  0  0  0  0  0  0  0  0  0  0  0
   16.0295   -8.8415  -16.6539 C   0  0  0  0  0  0  0  0  0  0  0  0
   17.4212   -9.2155  -17.1233 C   0  0  2  0  0  0  0  0  0  0  0  0
   17.5910  -10.5552  -17.5850 N   0  0  0  0  0  0  0  0  0  0  0  0
   18.5102   -8.6613  -16.3289 C   0  0  0  0  0  0  0  0  0  0  0  0
   18.4739   -7.4700  -15.8498 O   0  0  0  0  0  0  0  0  0  0  0  0
   23.9845  -10.8968  -14.4271 C   0  0  0  0  0  0  0  0  0  0  0  0
   22.9920   -9.8017  -14.3500 C   0  0  2  0  0  0  0  0  0  0  0  0
   22.7990   -9.4360  -12.8612 C   0  0  0  0  0  0  0  0  0  0  0  0
   21.7049  -10.0515  -15.0075 C   0  0  0  0  0  0  0  0  0  0  0  0
   20.7714   -8.9163  -15.1974 C   0  0  2  0  0  0  0  0  0  0  0  0
   19.6448   -9.4433  -16.0687 N   0  0  0  0  0  0  0  0  0  0  0  0
   21.2934   -7.7855  -15.9410 C   0  0  0  0  0  0  0  0  0  0  0  0
   21.6955   -6.6778  -15.5067 O   0  0  0  0  0  0  0  0  0  0  0  0
   21.3902   -7.8805  -17.3568 O   0  0  0  0  0  0  0  0  0  0  0  0
  2  1  1  6
  2  3  1  0
  4  5  1  0
  4  2  1  0
  5  6  1  1
  7  5  1  0
  7  8  2  0
 10 12  1  0
 10  9  1  0
 11 10  2  0
 13 12  1  1
 14 13  1  0
 14  7  1  0
 15 13  1  0
 16 15  2  0
 18 17  1  1
 18 19  1  0
 18 20  1  0
 21 20  1  6
 21 22  1  0
 21 23  1  0
 22 15  1  0
 23 25  1  0
 24 23  2  0
M  END
$$$$
