LNL.pdb
     RDKit          3D

 25 24  0  0  1  0  0  0  0  0999 V2000
   27.9267  -16.2407  -15.8253 C   0  0  0  0  0  0  0  0  0  0  0  0
   26.6307  -16.7200  -16.4407 C   0  0  2  0  0  0  0  0  0  0  0  0
   25.8847  -15.5377  -17.0158 C   0  0  0  0  0  0  0  0  0  0  0  0
   25.8083  -17.4976  -15.4499 C   0  0  0  0  0  0  0  0  0  0  0  0
   26.7084  -18.4744  -14.7398 C   0  0  2  0  0  0  0  0  0  0  0  0
   27.4392  -19.3481  -15.6296 N   0  0  0  0  0  0  0  0  0  0  0  0
   25.9211  -19.2719  -13.7332 C   0  0  0  0  0  0  0  0  0  0  0  0
   25.0743  -18.7057  -13.0029 O   0  0  0  0  0  0  0  0  0  0  0  0
   25.3690  -24.0238  -15.6156 N   0  0  0  0  0  0  0  0  0  0  0  0
   24.8655  -23.1510  -14.6163 C   0  0  0  0  0  0  0  0  0  0  0  0
   23.8353  -22.4774  -14.9493 O   0  0  0  0  0  0  0  0  0  0  0  0
   25.5065  -23.0395  -13.2752 C   0  0  0  0  0  0  0  0  0  0  0  0
   25.5422  -21.6158  -12.7569 C   0  0  2  0  0  0  0  0  0  0  0  0
   26.1398  -20.6471  -13.6178 N   0  0  0  0  0  0  0  0  0  0  0  0
   25.8310  -21.4840  -11.3344 C   0  0  0  0  0  0  0  0  0  0  0  0
   27.0307  -21.4627  -10.8761 O   0  0  0  0  0  0  0  0  0  0  0  0
   27.3563  -21.3094   -7.2822 C   0  0  0  0  0  0  0  0  0  0  0  0
   27.0801  -20.0590   -8.0241 C   0  0  2  0  0  0  0  0  0  0  0  0
   27.2138  -18.8781   -7.0365 C   0  0  0  0  0  0  0  0  0  0  0  0
   25.8042  -20.0067   -8.7459 C   0  0  0  0  0  0  0  0  0  0  0  0
   25.0394  -21.2626   -8.9296 C   0  0  2  0  0  0  0  0  0  0  0  0
   24.7729  -21.3751  -10.4204 N   0  0  0  0  0  0  0  0  0  0  0  0
   23.7181  -21.2920   -8.3316 C   0  0  0  0  0  0  0  0  0  0  0  0
   22.6302  -20.8855   -8.8096 O   0  0  0  0  0  0  0  0  0  0  0  0
   23.5658  -21.8444   -7.0298 O   0  0  0  0  0  0  0  0  0  0  0  0
  2  1  1  1
  2  3  1  0
  4  5  1  0
  4  2  1  0
  5  6  1  6
  7  5  1  0
  7  8  2  0
 10 12  1  0
 10  9  1  0
 11 10  2  0
 13 12  1  6
 14 13  1  0
 14  7  1  0
 15 13  1  0
 16 15  2  0
 18 17  1  1
 18 19  1  0
 18 20  1  0
 21 20  1  6
 21 22  1  0
 21 23  1  0
 22 15  1  0
 23 25  1  0
 24 23  2  0
M  END
$$$$
