LNL.pdb
     RDKit          3D

 25 24  0  0  1  0  0  0  0  0999 V2000
   17.5840  -16.8141  -17.2817 C   0  0  0  0  0  0  0  0  0  0  0  0
   17.0109  -15.8294  -18.2766 C   0  0  2  0  0  0  0  0  0  0  0  0
   16.2430  -16.5833  -19.3383 C   0  0  0  0  0  0  0  0  0  0  0  0
   18.0834  -14.9469  -18.8541 C   0  0  0  0  0  0  0  0  0  0  0  0
   18.7450  -14.1955  -17.7288 C   0  0  2  0  0  0  0  0  0  0  0  0
   17.8564  -13.3011  -17.0221 N   0  0  0  0  0  0  0  0  0  0  0  0
   19.9560  -13.4571  -18.2362 C   0  0  0  0  0  0  0  0  0  0  0  0
   20.6392  -13.9341  -19.1726 O   0  0  0  0  0  0  0  0  0  0  0  0
   20.3077   -9.0147  -21.0803 N   0  0  0  0  0  0  0  0  0  0  0  0
   19.6257   -9.2072  -19.8507 C   0  0  0  0  0  0  0  0  0  0  0  0
   19.2194   -8.1419  -19.2798 O   0  0  0  0  0  0  0  0  0  0  0  0
   19.4069  -10.5660  -19.2782 C   0  0  0  0  0  0  0  0  0  0  0  0
   20.4370  -10.9353  -18.2297 C   0  0  2  0  0  0  0  0  0  0  0  0
   20.3139  -12.2368  -17.6573 N   0  0  0  0  0  0  0  0  0  0  0  0
   20.8031   -9.8588  -17.3181 C   0  0  0  0  0  0  0  0  0  0  0  0
   21.2161   -8.7161  -17.7349 O   0  0  0  0  0  0  0  0  0  0  0  0
   23.6911  -10.9962  -14.0201 C   0  0  0  0  0  0  0  0  0  0  0  0
   23.5768  -10.3205  -15.3318 C   0  0  2  0  0  0  0  0  0  0  0  0
   25.0036  -10.1075  -15.8853 C   0  0  0  0  0  0  0  0  0  0  0  0
   22.8081   -9.0714  -15.3481 C   0  0  0  0  0  0  0  0  0  0  0  0
   21.3789   -9.1110  -14.9584 C   0  0  2  0  0  0  0  0  0  0  0  0
   20.7062  -10.0610  -15.9337 N   0  0  0  0  0  0  0  0  0  0  0  0
   20.6462   -7.8687  -15.1134 C   0  0  0  0  0  0  0  0  0  0  0  0
   20.6205   -6.8713  -14.3506 O   0  0  0  0  0  0  0  0  0  0  0  0
   19.8287   -7.6927  -16.2639 O   0  0  0  0  0  0  0  0  0  0  0  0
  2  1  1  1
  2  3  1  0
  4  5  1  0
  4  2  1  0
  5  6  1  6
  7  5  1  0
  7  8  2  0
 10 12  1  0
 10  9  1  0
 11 10  2  0
 13 12  1  1
 14 13  1  0
 14  7  1  0
 15 13  1  0
 16 15  2  0
 18 17  1  1
 18 19  1  0
 18 20  1  0
 21 20  1  6
 21 22  1  0
 21 23  1  0
 22 15  1  0
 23 25  1  0
 24 23  2  0
M  END
$$$$
