LNL.pdb
     RDKit          3D

 25 24  0  0  1  0  0  0  0  0999 V2000
   19.7609  -15.3045  -18.5105 C   0  0  0  0  0  0  0  0  0  0  0  0
   21.1864  -15.7702  -18.7080 C   0  0  2  0  0  0  0  0  0  0  0  0
   21.5207  -16.8095  -17.6623 C   0  0  0  0  0  0  0  0  0  0  0  0
   22.1468  -14.6126  -18.7018 C   0  0  0  0  0  0  0  0  0  0  0  0
   21.7752  -13.6739  -19.8196 C   0  0  2  0  0  0  0  0  0  0  0  0
   21.8848  -14.2609  -21.1358 N   0  0  0  0  0  0  0  0  0  0  0  0
   22.5863  -12.4078  -19.7284 C   0  0  0  0  0  0  0  0  0  0  0  0
   23.6751  -12.3107  -20.3417 O   0  0  0  0  0  0  0  0  0  0  0  0
   25.1316   -7.6930  -19.6016 N   0  0  0  0  0  0  0  0  0  0  0  0
   23.7482   -7.9897  -19.7121 C   0  0  0  0  0  0  0  0  0  0  0  0
   22.9637   -6.9957  -19.5623 O   0  0  0  0  0  0  0  0  0  0  0  0
   23.2605   -9.3716  -19.9843 C   0  0  0  0  0  0  0  0  0  0  0  0
   22.6445  -10.0287  -18.7655 C   0  0  2  0  0  0  0  0  0  0  0  0
   22.1182  -11.3415  -18.9564 N   0  0  0  0  0  0  0  0  0  0  0  0
   21.8703   -9.1387  -17.9095 C   0  0  0  0  0  0  0  0  0  0  0  0
   20.6511   -8.8267  -18.1669 O   0  0  0  0  0  0  0  0  0  0  0  0
   21.9298   -9.8552  -12.0878 C   0  0  0  0  0  0  0  0  0  0  0  0
   21.3481   -9.0317  -13.1711 C   0  0  2  0  0  0  0  0  0  0  0  0
   19.8256   -9.2937  -13.2053 C   0  0  0  0  0  0  0  0  0  0  0  0
   21.9465   -9.1992  -14.4998 C   0  0  0  0  0  0  0  0  0  0  0  0
   21.6198   -8.2126  -15.5562 C   0  0  2  0  0  0  0  0  0  0  0  0
   22.4624   -8.5955  -16.7601 N   0  0  0  0  0  0  0  0  0  0  0  0
   22.0011   -6.8406  -15.2803 C   0  0  0  0  0  0  0  0  0  0  0  0
   23.0866   -6.2611  -15.5319 O   0  0  0  0  0  0  0  0  0  0  0  0
   21.0637   -5.9827  -14.6414 O   0  0  0  0  0  0  0  0  0  0  0  0
  2  1  1  1
  2  3  1  0
  4  5  1  0
  4  2  1  0
  5  6  1  6
  7  5  1  0
  7  8  2  0
 10 12  1  0
 10  9  1  0
 11 10  2  0
 13 12  1  6
 14 13  1  0
 14  7  1  0
 15 13  1  0
 16 15  2  0
 18 17  1  1
 18 19  1  0
 18 20  1  0
 21 20  1  1
 21 22  1  0
 21 23  1  0
 22 15  1  0
 23 25  1  0
 24 23  2  0
M  END
$$$$
