LNL.pdb
     RDKit          3D

 25 24  0  0  1  0  0  0  0  0999 V2000
   20.8113  -18.6064  -16.0614 C   0  0  0  0  0  0  0  0  0  0  0  0
   22.1075  -18.1000  -15.4685 C   0  0  2  0  0  0  0  0  0  0  0  0
   22.2956  -16.6488  -15.8476 C   0  0  0  0  0  0  0  0  0  0  0  0
   23.2707  -18.9612  -15.8781 C   0  0  0  0  0  0  0  0  0  0  0  0
   23.3790  -20.1130  -14.9136 C   0  0  2  0  0  0  0  0  0  0  0  0
   22.7925  -19.8479  -13.6195 N   0  0  0  0  0  0  0  0  0  0  0  0
   24.8162  -20.5415  -14.7727 C   0  0  0  0  0  0  0  0  0  0  0  0
   25.5382  -20.6717  -15.7891 O   0  0  0  0  0  0  0  0  0  0  0  0
   29.7094  -21.6045  -13.1929 N   0  0  0  0  0  0  0  0  0  0  0  0
   29.1089  -20.3226  -13.2932 C   0  0  0  0  0  0  0  0  0  0  0  0
   29.8301  -19.3498  -12.8939 O   0  0  0  0  0  0  0  0  0  0  0  0
   27.7303  -20.1408  -13.8298 C   0  0  0  0  0  0  0  0  0  0  0  0
   26.6916  -20.9360  -13.0645 C   0  0  2  0  0  0  0  0  0  0  0  0
   25.3408  -20.7931  -13.5024 N   0  0  0  0  0  0  0  0  0  0  0  0
   26.9020  -21.0005  -11.6238 C   0  0  0  0  0  0  0  0  0  0  0  0
   28.0038  -21.4133  -11.1082 O   0  0  0  0  0  0  0  0  0  0  0  0
   26.9715  -18.6476   -6.4421 C   0  0  0  0  0  0  0  0  0  0  0  0
   26.8646  -19.9349   -7.1644 C   0  0  2  0  0  0  0  0  0  0  0  0
   28.1352  -20.7600   -6.8606 C   0  0  0  0  0  0  0  0  0  0  0  0
   26.6213  -19.8451   -8.6081 C   0  0  0  0  0  0  0  0  0  0  0  0
   25.9173  -20.9620   -9.2812 C   0  0  2  0  0  0  0  0  0  0  0  0
   25.8756  -20.6011  -10.7557 N   0  0  0  0  0  0  0  0  0  0  0  0
   24.5233  -21.1396   -8.9216 C   0  0  0  0  0  0  0  0  0  0  0  0
   23.4977  -20.7768   -9.5491 O   0  0  0  0  0  0  0  0  0  0  0  0
   24.2075  -21.8084   -7.7067 O   0  0  0  0  0  0  0  0  0  0  0  0
  2  1  1  6
  2  3  1  0
  4  5  1  0
  4  2  1  0
  5  6  1  1
  7  5  1  0
  7  8  2  0
 10 12  1  0
 10  9  1  0
 11 10  2  0
 13 12  1  1
 14 13  1  0
 14  7  1  0
 15 13  1  0
 16 15  2  0
 18 17  1  6
 18 19  1  0
 18 20  1  0
 21 20  1  1
 21 22  1  0
 21 23  1  0
 22 15  1  0
 23 25  1  0
 24 23  2  0
M  END
$$$$
