LPS.pdb
     RDKit          3D

 22 22  0  0  1  0  0  0  0  0999 V2000
   25.4272  -13.6791  -16.5800 C   0  0  0  0  0  0  0  0  0  0  0  0
   26.3652  -12.5494  -17.0259 C   0  0  2  0  0  0  0  0  0  0  0  0
   27.6917  -12.7948  -16.3713 C   0  0  0  0  0  0  0  0  0  0  0  0
   25.7454  -11.2161  -16.7382 C   0  0  0  0  0  0  0  0  0  0  0  0
   24.5753  -10.9768  -17.6772 C   0  0  2  0  0  0  0  0  0  0  0  0
   24.9158  -11.3167  -18.9906 N   0  0  0  0  0  0  0  0  0  0  0  0
   23.9776   -9.6572  -17.4180 C   0  0  0  0  0  0  0  0  0  0  0  0
   24.8059   -8.7551  -17.0335 O   0  0  0  0  0  0  0  0  0  0  0  0
   22.6343   -9.3440  -17.5602 N   0  0  0  0  0  0  0  0  0  0  0  0
   21.6542   -9.9729  -18.4722 C   0  0  0  0  0  0  0  0  0  0  0  0
   20.5669  -10.3640  -17.4384 C   0  0  0  0  0  0  0  0  0  0  0  0
   20.7889   -9.4200  -16.2453 C   0  0  0  0  0  0  0  0  0  0  0  0
   21.7562   -8.4298  -16.8596 C   0  0  1  0  0  0  0  0  0  0  0  0
   22.2939   -7.4206  -16.0047 C   0  0  0  0  0  0  0  0  0  0  0  0
   22.9824   -7.6810  -14.9947 O   0  0  0  0  0  0  0  0  0  0  0  0
   22.8984   -2.6559  -15.1984 O   0  0  0  0  0  0  0  0  0  0  0  0
   22.4213   -3.6555  -16.0177 C   0  0  0  0  0  0  0  0  0  0  0  0
   22.6263   -5.0073  -15.3199 C   0  0  2  0  0  0  0  0  0  0  0  0
   22.0989   -6.0046  -16.2161 N   0  0  0  0  0  0  0  0  0  0  0  0
   21.9999   -5.0282  -13.9956 C   0  0  0  0  0  0  0  0  0  0  0  0
   20.7911   -5.3336  -13.8432 O   0  0  0  0  0  0  0  0  0  0  0  0
   22.7331   -4.7081  -12.8647 O   0  0  0  0  0  0  0  0  0  0  0  0
  2  1  1  1
  2  3  1  0
  4  2  1  0
  5  4  1  0
  5  6  1  6
  7  9  1  0
  7  5  1  0
  8  7  2  0
  9 13  1  0
 10 11  1  0
 10  9  1  0
 11 12  1  0
 12 13  1  0
 13 14  1  1
 14 19  1  0
 14 15  2  0
 16 17  1  0
 18 17  1  6
 18 20  1  0
 19 18  1  0
 20 22  1  0
 21 20  2  0
M  END
$$$$
