LPS.pdb
     RDKit          3D

 22 22  0  0  1  0  0  0  0  0999 V2000
   15.7810  -27.1840   -4.9665 C   0  0  0  0  0  0  0  0  0  0  0  0
   14.8421  -27.9900   -4.0588 C   0  0  2  0  0  0  0  0  0  0  0  0
   13.4618  -27.4368   -4.2513 C   0  0  0  0  0  0  0  0  0  0  0  0
   15.3468  -27.9773   -2.6482 C   0  0  0  0  0  0  0  0  0  0  0  0
   16.6609  -28.7347   -2.5627 C   0  0  2  0  0  0  0  0  0  0  0  0
   16.5268  -30.0221   -3.0930 N   0  0  0  0  0  0  0  0  0  0  0  0
   17.2522  -28.5766   -1.2243 C   0  0  0  0  0  0  0  0  0  0  0  0
   16.4327  -28.7368   -0.2493 O   0  0  0  0  0  0  0  0  0  0  0  0
   18.5819  -28.2807   -0.9656 N   0  0  0  0  0  0  0  0  0  0  0  0
   19.7446  -28.5096   -1.8508 C   0  0  0  0  0  0  0  0  0  0  0  0
   20.3254  -27.0723   -1.8763 C   0  0  0  0  0  0  0  0  0  0  0  0
   19.7980  -26.4031   -0.5966 C   0  0  0  0  0  0  0  0  0  0  0  0
   19.2465  -27.6103    0.1328 C   0  0  1  0  0  0  0  0  0  0  0  0
   18.5585  -27.3769    1.3620 C   0  0  0  0  0  0  0  0  0  0  0  0
   17.4294  -26.8440    1.4187 O   0  0  0  0  0  0  0  0  0  0  0  0
   18.9381  -29.5842    4.4458 O   0  0  0  0  0  0  0  0  0  0  0  0
   18.9631  -28.3072    4.9623 C   0  0  0  0  0  0  0  0  0  0  0  0
   18.4613  -27.3299    3.8902 C   0  0  2  0  0  0  0  0  0  0  0  0
   19.0921  -27.7290    2.6578 N   0  0  0  0  0  0  0  0  0  0  0  0
   18.7381  -25.9395    4.2596 C   0  0  0  0  0  0  0  0  0  0  0  0
   19.6838  -25.2957    3.7412 O   0  0  0  0  0  0  0  0  0  0  0  0
   17.9549  -25.2917    5.2010 O   0  0  0  0  0  0  0  0  0  0  0  0
  2  1  1  6
  2  3  1  0
  4  2  1  0
  5  4  1  0
  5  6  1  1
  7  9  1  0
  7  5  1  0
  8  7  2  0
  9 13  1  0
 10 11  1  0
 10  9  1  0
 11 12  1  0
 12 13  1  0
 13 14  1  1
 14 19  1  0
 14 15  2  0
 16 17  1  0
 18 17  1  1
 18 20  1  0
 19 18  1  0
 20 22  1  0
 21 20  2  0
M  END
$$$$
