LPS.pdb
     RDKit          3D

 22 22  0  0  1  0  0  0  0  0999 V2000
   27.5103  -16.9742  -14.5270 C   0  0  0  0  0  0  0  0  0  0  0  0
   26.9988  -18.2515  -15.2065 C   0  0  2  0  0  0  0  0  0  0  0  0
   26.7140  -17.9050  -16.6373 C   0  0  0  0  0  0  0  0  0  0  0  0
   25.8419  -18.8185  -14.4418 C   0  0  0  0  0  0  0  0  0  0  0  0
   26.2221  -20.1668  -13.8540 C   0  0  2  0  0  0  0  0  0  0  0  0
   26.9491  -20.9239  -14.7786 N   0  0  0  0  0  0  0  0  0  0  0  0
   25.0582  -20.7796  -13.1940 C   0  0  0  0  0  0  0  0  0  0  0  0
   24.0684  -21.0337  -13.9708 O   0  0  0  0  0  0  0  0  0  0  0  0
   24.9720  -21.0869  -11.8446 N   0  0  0  0  0  0  0  0  0  0  0  0
   26.0733  -21.4758  -10.9370 C   0  0  0  0  0  0  0  0  0  0  0  0
   25.8671  -20.4144   -9.8258 C   0  0  0  0  0  0  0  0  0  0  0  0
   24.3963  -19.9840   -9.9493 C   0  0  0  0  0  0  0  0  0  0  0  0
   23.8805  -21.0498  -10.8933 C   0  0  1  0  0  0  0  0  0  0  0  0
   22.5308  -20.9306  -11.3435 C   0  0  0  0  0  0  0  0  0  0  0  0
   22.0744  -19.8857  -11.8554 O   0  0  0  0  0  0  0  0  0  0  0  0
   19.9882  -24.0116  -12.1517 O   0  0  0  0  0  0  0  0  0  0  0  0
   19.6704  -22.7191  -12.5074 C   0  0  0  0  0  0  0  0  0  0  0  0
   20.1441  -21.7699  -11.3980 C   0  0  2  0  0  0  0  0  0  0  0  0
   21.5596  -21.9968  -11.2543 N   0  0  0  0  0  0  0  0  0  0  0  0
   19.3943  -21.9783  -10.1567 C   0  0  0  0  0  0  0  0  0  0  0  0
   19.9312  -22.4826   -9.1393 O   0  0  0  0  0  0  0  0  0  0  0  0
   18.0587  -21.6205  -10.0723 O   0  0  0  0  0  0  0  0  0  0  0  0
  2  1  1  1
  2  3  1  0
  4  2  1  0
  5  4  1  0
  5  6  1  6
  7  9  1  0
  7  5  1  0
  8  7  2  0
  9 13  1  0
 10 11  1  0
 10  9  1  0
 11 12  1  0
 12 13  1  0
 13 14  1  6
 14 19  1  0
 14 15  2  0
 16 17  1  0
 18 17  1  6
 18 20  1  0
 19 18  1  0
 20 22  1  0
 21 20  2  0
M  END
$$$$
