LPS.pdb
     RDKit          3D

 22 22  0  0  1  0  0  0  0  0999 V2000
   15.0937  -23.1604   -0.1799 C   0  0  0  0  0  0  0  0  0  0  0  0
   13.9065  -22.1999   -0.0276 C   0  0  2  0  0  0  0  0  0  0  0  0
   13.8617  -21.3558   -1.2660 C   0  0  0  0  0  0  0  0  0  0  0  0
   14.0136  -21.4427    1.2607 C   0  0  0  0  0  0  0  0  0  0  0  0
   13.7641  -22.3776    2.4319 C   0  0  2  0  0  0  0  0  0  0  0  0
   12.5846  -23.1054    2.2430 N   0  0  0  0  0  0  0  0  0  0  0  0
   13.9611  -21.6630    3.7033 C   0  0  0  0  0  0  0  0  0  0  0  0
   13.0638  -20.7861    3.9747 O   0  0  0  0  0  0  0  0  0  0  0  0
   15.0094  -21.8726    4.5863 N   0  0  0  0  0  0  0  0  0  0  0  0
   15.7517  -23.1303    4.8211 C   0  0  0  0  0  0  0  0  0  0  0  0
   17.1946  -22.6171    4.5788 C   0  0  0  0  0  0  0  0  0  0  0  0
   17.1279  -21.1006    4.8230 C   0  0  0  0  0  0  0  0  0  0  0  0
   15.7569  -20.9882    5.4562 C   0  0  1  0  0  0  0  0  0  0  0  0
   15.2726  -19.6764    5.7448 C   0  0  0  0  0  0  0  0  0  0  0  0
   14.9703  -18.8521    4.8554 O   0  0  0  0  0  0  0  0  0  0  0  0
   13.0971  -16.6895    8.7433 O   0  0  0  0  0  0  0  0  0  0  0  0
   13.7056  -17.9122    8.5617 C   0  0  0  0  0  0  0  0  0  0  0  0
   14.6423  -17.8235    7.3488 C   0  0  2  0  0  0  0  0  0  0  0  0
   15.0838  -19.1692    7.0847 N   0  0  0  0  0  0  0  0  0  0  0  0
   15.7441  -16.8881    7.5888 C   0  0  0  0  0  0  0  0  0  0  0  0
   15.6122  -15.6529    7.4030 O   0  0  0  0  0  0  0  0  0  0  0  0
   16.9737  -17.3472    8.0318 O   0  0  0  0  0  0  0  0  0  0  0  0
  2  1  1  6
  2  3  1  0
  4  2  1  0
  5  4  1  0
  5  6  1  1
  7  9  1  0
  7  5  1  0
  8  7  2  0
  9 13  1  0
 10 11  1  0
 10  9  1  0
 11 12  1  0
 12 13  1  0
 13 14  1  6
 14 19  1  0
 14 15  2  0
 16 17  1  0
 18 17  1  1
 18 20  1  0
 19 18  1  0
 20 22  1  0
 21 20  2  0
M  END
$$$$
