LPS.pdb
     RDKit          3D

 22 22  0  0  1  0  0  0  0  0999 V2000
   19.1546  -13.7631  -16.5618 C   0  0  0  0  0  0  0  0  0  0  0  0
   18.3035  -12.7784  -17.3748 C   0  0  2  0  0  0  0  0  0  0  0  0
   18.5158  -13.1047  -18.8228 C   0  0  0  0  0  0  0  0  0  0  0  0
   18.6234  -11.3685  -16.9818 C   0  0  0  0  0  0  0  0  0  0  0  0
   18.0149  -11.0597  -15.6244 C   0  0  2  0  0  0  0  0  0  0  0  0
   16.6856  -11.4912  -15.5670 N   0  0  0  0  0  0  0  0  0  0  0  0
   18.3301   -9.6775  -15.2291 C   0  0  0  0  0  0  0  0  0  0  0  0
   18.8548   -8.9576  -16.1533 O   0  0  0  0  0  0  0  0  0  0  0  0
   18.1021   -9.1309  -13.9753 N   0  0  0  0  0  0  0  0  0  0  0  0
   16.9350   -9.3534  -13.0942 C   0  0  0  0  0  0  0  0  0  0  0  0
   17.6752   -9.8098  -11.8106 C   0  0  0  0  0  0  0  0  0  0  0  0
   19.0955   -9.2354  -11.9401 C   0  0  0  0  0  0  0  0  0  0  0  0
   18.9001   -8.2902  -13.1070 C   0  0  1  0  0  0  0  0  0  0  0  0
   20.0562   -7.6202  -13.6099 C   0  0  0  0  0  0  0  0  0  0  0  0
   20.9310   -8.1937  -14.2937 O   0  0  0  0  0  0  0  0  0  0  0  0
   22.4087   -5.0963  -16.0868 O   0  0  0  0  0  0  0  0  0  0  0  0
   21.3332   -5.7058  -15.4785 C   0  0  0  0  0  0  0  0  0  0  0  0
   21.4724   -5.5520  -13.9575 C   0  0  2  0  0  0  0  0  0  0  0  0
   20.3333   -6.2205  -13.3816 N   0  0  0  0  0  0  0  0  0  0  0  0
   21.5765   -4.1436  -13.5678 C   0  0  0  0  0  0  0  0  0  0  0  0
   20.5575   -3.4479  -13.3325 O   0  0  0  0  0  0  0  0  0  0  0  0
   22.8156   -3.5359  -13.4475 O   0  0  0  0  0  0  0  0  0  0  0  0
  2  1  1  1
  2  3  1  0
  4  2  1  0
  5  4  1  0
  5  6  1  6
  7  9  1  0
  7  5  1  0
  8  7  2  0
  9 13  1  0
 10 11  1  0
 10  9  1  0
 11 12  1  0
 12 13  1  0
 13 14  1  6
 14 19  1  0
 14 15  2  0
 16 17  1  0
 18 17  1  6
 18 20  1  0
 19 18  1  0
 20 22  1  0
 21 20  2  0
M  END
$$$$
