LPS.pdb
     RDKit          3D

 22 22  0  0  1  0  0  0  0  0999 V2000
   17.2995  -11.8057  -19.2148 C   0  0  0  0  0  0  0  0  0  0  0  0
   17.4347  -12.4044  -17.8083 C   0  0  2  0  0  0  0  0  0  0  0  0
   16.0481  -12.7029  -17.3219 C   0  0  0  0  0  0  0  0  0  0  0  0
   18.2392  -11.4937  -16.9318 C   0  0  0  0  0  0  0  0  0  0  0  0
   19.6693  -11.4186  -17.4393 C   0  0  2  0  0  0  0  0  0  0  0  0
   20.2313  -12.6963  -17.5296 N   0  0  0  0  0  0  0  0  0  0  0  0
   20.4083  -10.3674  -16.7217 C   0  0  0  0  0  0  0  0  0  0  0  0
   19.8709   -9.9851  -15.6205 O   0  0  0  0  0  0  0  0  0  0  0  0
   21.5976   -9.7932  -17.1443 N   0  0  0  0  0  0  0  0  0  0  0  0
   22.6887  -10.4386  -17.9064 C   0  0  0  0  0  0  0  0  0  0  0  0
   22.7887   -9.4426  -19.0904 C   0  0  0  0  0  0  0  0  0  0  0  0
   22.1973   -8.1265  -18.5594 C   0  0  0  0  0  0  0  0  0  0  0  0
   22.1170   -8.4428  -17.0806 C   0  0  1  0  0  0  0  0  0  0  0  0
   21.5046   -7.4702  -16.2335 C   0  0  0  0  0  0  0  0  0  0  0  0
   20.3834   -6.9715  -16.4704 O   0  0  0  0  0  0  0  0  0  0  0  0
   20.8336   -7.3856  -12.5281 O   0  0  0  0  0  0  0  0  0  0  0  0
   21.6742   -6.3224  -12.7756 C   0  0  0  0  0  0  0  0  0  0  0  0
   21.5247   -5.9050  -14.2452 C   0  0  2  0  0  0  0  0  0  0  0  0
   22.1130   -6.9647  -15.0242 N   0  0  0  0  0  0  0  0  0  0  0  0
   22.1317   -4.5954  -14.4956 C   0  0  0  0  0  0  0  0  0  0  0  0
   23.3103   -4.4847  -14.9155 O   0  0  0  0  0  0  0  0  0  0  0  0
   21.4131   -3.4320  -14.2733 O   0  0  0  0  0  0  0  0  0  0  0  0
  2  1  1  6
  2  3  1  0
  4  2  1  0
  5  4  1  0
  5  6  1  1
  7  9  1  0
  7  5  1  0
  8  7  2  0
  9 13  1  0
 10 11  1  0
 10  9  1  0
 11 12  1  0
 12 13  1  0
 13 14  1  1
 14 19  1  0
 14 15  2  0
 16 17  1  0
 18 17  1  1
 18 20  1  0
 19 18  1  0
 20 22  1  0
 21 20  2  0
M  END
$$$$
