LPS.pdb
     RDKit          3D

 22 22  0  0  1  0  0  0  0  0999 V2000
   14.1725  -12.4908    3.6675 C   0  0  0  0  0  0  0  0  0  0  0  0
   13.8488  -13.3088    4.9249 C   0  0  2  0  0  0  0  0  0  0  0  0
   12.7187  -12.6136    5.6233 C   0  0  0  0  0  0  0  0  0  0  0  0
   15.0853  -13.5075    5.7473 C   0  0  0  0  0  0  0  0  0  0  0  0
   16.0023  -14.5102    5.0677 C   0  0  2  0  0  0  0  0  0  0  0  0
   15.2931  -15.6561    4.6927 N   0  0  0  0  0  0  0  0  0  0  0  0
   17.2455  -14.6661    5.8396 C   0  0  0  0  0  0  0  0  0  0  0  0
   17.2159  -15.5895    6.7307 O   0  0  0  0  0  0  0  0  0  0  0  0
   18.3955  -13.9106    5.6678 N   0  0  0  0  0  0  0  0  0  0  0  0
   18.9729  -13.4254    4.3953 C   0  0  0  0  0  0  0  0  0  0  0  0
   19.0640  -11.9128    4.7237 C   0  0  0  0  0  0  0  0  0  0  0  0
   19.0932  -11.8360    6.2590 C   0  0  0  0  0  0  0  0  0  0  0  0
   19.3180  -13.2946    6.5989 C   0  0  1  0  0  0  0  0  0  0  0  0
   19.3032  -13.6566    7.9800 C   0  0  0  0  0  0  0  0  0  0  0  0
   18.3935  -13.3107    8.7640 O   0  0  0  0  0  0  0  0  0  0  0  0
   20.8337  -16.9941    9.5658 O   0  0  0  0  0  0  0  0  0  0  0  0
   19.9096  -16.1837   10.1882 C   0  0  0  0  0  0  0  0  0  0  0  0
   20.3453  -14.7208   10.0257 C   0  0  2  0  0  0  0  0  0  0  0  0
   20.3308  -14.4536    8.6100 N   0  0  0  0  0  0  0  0  0  0  0  0
   21.6486  -14.4766   10.6488 C   0  0  0  0  0  0  0  0  0  0  0  0
   22.6603  -14.1802    9.9659 O   0  0  0  0  0  0  0  0  0  0  0  0
   21.8003  -14.5672   12.0228 O   0  0  0  0  0  0  0  0  0  0  0  0
  2  1  1  6
  2  3  1  0
  4  2  1  0
  5  4  1  0
  5  6  1  1
  7  9  1  0
  7  5  1  0
  8  7  2  0
  9 13  1  0
 10 11  1  0
 10  9  1  0
 11 12  1  0
 12 13  1  0
 13 14  1  1
 14 19  1  0
 14 15  2  0
 16 17  1  0
 18 17  1  6
 18 20  1  0
 19 18  1  0
 20 22  1  0
 21 20  2  0
M  END
$$$$
