LPS.pdb
     RDKit          3D

 22 22  0  0  1  0  0  0  0  0999 V2000
   29.2857  -18.5646  -14.9442 C   0  0  0  0  0  0  0  0  0  0  0  0
   28.2887  -19.0601  -16.0004 C   0  0  2  0  0  0  0  0  0  0  0  0
   28.2735  -18.0433  -17.1023 C   0  0  0  0  0  0  0  0  0  0  0  0
   26.9595  -19.3403  -15.3684 C   0  0  0  0  0  0  0  0  0  0  0  0
   27.0217  -20.6439  -14.5906 C   0  0  2  0  0  0  0  0  0  0  0  0
   27.8109  -21.5843  -15.2610 N   0  0  0  0  0  0  0  0  0  0  0  0
   25.6742  -21.0355  -14.1470 C   0  0  0  0  0  0  0  0  0  0  0  0
   24.7970  -21.1055  -15.0815 O   0  0  0  0  0  0  0  0  0  0  0  0
   25.3129  -21.3224  -12.8394 N   0  0  0  0  0  0  0  0  0  0  0  0
   26.1627  -21.9019  -11.7764 C   0  0  0  0  0  0  0  0  0  0  0  0
   25.9657  -20.8208  -10.6827 C   0  0  0  0  0  0  0  0  0  0  0  0
   24.6348  -20.1344  -11.0314 C   0  0  0  0  0  0  0  0  0  0  0  0
   24.1028  -21.0909  -12.0781 C   0  0  1  0  0  0  0  0  0  0  0  0
   22.8888  -20.7324  -12.7385 C   0  0  0  0  0  0  0  0  0  0  0  0
   22.7064  -19.6144  -13.2665 O   0  0  0  0  0  0  0  0  0  0  0  0
   20.2896  -23.5321  -13.9766 O   0  0  0  0  0  0  0  0  0  0  0  0
   20.2410  -22.2908  -14.5723 C   0  0  0  0  0  0  0  0  0  0  0  0
   20.5288  -21.2205  -13.5103 C   0  0  2  0  0  0  0  0  0  0  0  0
   21.7535  -21.6175  -12.8634 N   0  0  0  0  0  0  0  0  0  0  0  0
   19.4052  -21.0695  -12.5822 C   0  0  0  0  0  0  0  0  0  0  0  0
   19.4853  -21.4401  -11.3847 O   0  0  0  0  0  0  0  0  0  0  0  0
   18.2121  -20.5077  -13.0064 O   0  0  0  0  0  0  0  0  0  0  0  0
  2  1  1  1
  2  3  1  0
  4  2  1  0
  5  4  1  0
  5  6  1  6
  7  9  1  0
  7  5  1  0
  8  7  2  0
  9 13  1  0
 10 11  1  0
 10  9  1  0
 11 12  1  0
 12 13  1  0
 13 14  1  6
 14 19  1  0
 14 15  2  0
 16 17  1  0
 18 17  1  6
 18 20  1  0
 19 18  1  0
 20 22  1  0
 21 20  2  0
M  END
$$$$
