LPS.pdb
     RDKit          3D

 22 22  0  0  1  0  0  0  0  0999 V2000
   21.3982  -17.9414  -15.4111 C   0  0  0  0  0  0  0  0  0  0  0  0
   20.7731  -19.3095  -15.7152 C   0  0  2  0  0  0  0  0  0  0  0  0
   19.5657  -19.0616  -16.5691 C   0  0  0  0  0  0  0  0  0  0  0  0
   20.5155  -20.0568  -14.4424 C   0  0  0  0  0  0  0  0  0  0  0  0
   21.7715  -20.7969  -14.0146 C   0  0  2  0  0  0  0  0  0  0  0  0
   22.3966  -21.3908  -15.1159 N   0  0  0  0  0  0  0  0  0  0  0  0
   21.4961  -21.6197  -12.8259 C   0  0  0  0  0  0  0  0  0  0  0  0
   20.7056  -22.6109  -13.0263 O   0  0  0  0  0  0  0  0  0  0  0  0
   22.0179  -21.3991  -11.5602 N   0  0  0  0  0  0  0  0  0  0  0  0
   23.3685  -20.9034  -11.2164 C   0  0  0  0  0  0  0  0  0  0  0  0
   22.9723  -19.7009  -10.3215 C   0  0  0  0  0  0  0  0  0  0  0  0
   21.5563  -20.0247   -9.8173 C   0  0  0  0  0  0  0  0  0  0  0  0
   21.4468  -21.4771  -10.2316 C   0  0  1  0  0  0  0  0  0  0  0  0
   20.1939  -22.1279  -10.0186 C   0  0  0  0  0  0  0  0  0  0  0  0
   19.0995  -21.6189  -10.3429 O   0  0  0  0  0  0  0  0  0  0  0  0
   17.8436  -24.4639   -6.7829 O   0  0  0  0  0  0  0  0  0  0  0  0
   19.0136  -24.0152   -7.3554 C   0  0  0  0  0  0  0  0  0  0  0  0
   18.8146  -23.9143   -8.8741 C   0  0  2  0  0  0  0  0  0  0  0  0
   20.0619  -23.4318   -9.4102 N   0  0  0  0  0  0  0  0  0  0  0  0
   17.6709  -23.0627   -9.2101 C   0  0  0  0  0  0  0  0  0  0  0  0
   17.6346  -21.8497   -8.8860 O   0  0  0  0  0  0  0  0  0  0  0  0
   16.5875  -23.5792   -9.9020 O   0  0  0  0  0  0  0  0  0  0  0  0
  2  1  1  1
  2  3  1  0
  4  2  1  0
  5  4  1  0
  5  6  1  6
  7  9  1  0
  7  5  1  0
  8  7  2  0
  9 13  1  0
 10 11  1  0
 10  9  1  0
 11 12  1  0
 12 13  1  0
 13 14  1  6
 14 19  1  0
 14 15  2  0
 16 17  1  0
 18 17  1  1
 18 20  1  0
 19 18  1  0
 20 22  1  0
 21 20  2  0
M  END
$$$$
