LPS.pdb
     RDKit          3D

 22 22  0  0  1  0  0  0  0  0999 V2000
   29.3683  -26.4918  -20.0909 C   0  0  0  0  0  0  0  0  0  0  0  0
   28.5516  -27.1788  -18.9882 C   0  0  2  0  0  0  0  0  0  0  0  0
   27.6829  -28.2020  -19.6565 C   0  0  0  0  0  0  0  0  0  0  0  0
   27.8241  -26.1573  -18.1684 C   0  0  0  0  0  0  0  0  0  0  0  0
   28.8036  -25.4259  -17.2663 C   0  0  2  0  0  0  0  0  0  0  0  0
   29.4898  -26.3269  -16.4455 N   0  0  0  0  0  0  0  0  0  0  0  0
   28.1523  -24.2589  -16.6499 C   0  0  0  0  0  0  0  0  0  0  0  0
   27.1925  -24.5386  -15.8447 O   0  0  0  0  0  0  0  0  0  0  0  0
   28.4995  -22.9355  -16.8754 N   0  0  0  0  0  0  0  0  0  0  0  0
   29.8577  -22.3791  -17.0584 C   0  0  0  0  0  0  0  0  0  0  0  0
   29.6501  -21.6554  -18.4138 C   0  0  0  0  0  0  0  0  0  0  0  0
   28.1362  -21.4043  -18.5074 C   0  0  0  0  0  0  0  0  0  0  0  0
   27.7186  -21.7347  -17.0897 C   0  0  1  0  0  0  0  0  0  0  0  0
   26.3215  -21.7169  -16.7957 C   0  0  0  0  0  0  0  0  0  0  0  0
   25.4936  -22.4453  -17.3838 O   0  0  0  0  0  0  0  0  0  0  0  0
   22.7583  -19.9450  -14.0007 O   0  0  0  0  0  0  0  0  0  0  0  0
   24.0937  -19.9241  -14.3386 C   0  0  0  0  0  0  0  0  0  0  0  0
   24.2998  -20.7824  -15.5945 C   0  0  2  0  0  0  0  0  0  0  0  0
   25.7243  -20.8612  -15.7962 N   0  0  0  0  0  0  0  0  0  0  0  0
   23.5807  -20.2309  -16.7455 C   0  0  0  0  0  0  0  0  0  0  0  0
   24.0724  -19.3176  -17.4539 O   0  0  0  0  0  0  0  0  0  0  0  0
   22.3255  -20.7078  -17.0862 O   0  0  0  0  0  0  0  0  0  0  0  0
  2  1  1  6
  2  3  1  0
  4  2  1  0
  5  4  1  0
  5  6  1  1
  7  9  1  0
  7  5  1  0
  8  7  2  0
  9 13  1  0
 10 11  1  0
 10  9  1  0
 11 12  1  0
 12 13  1  0
 13 14  1  6
 14 19  1  0
 14 15  2  0
 16 17  1  0
 18 17  1  1
 18 20  1  0
 19 18  1  0
 20 22  1  0
 21 20  2  0
M  END
$$$$
