LPS.pdb
     RDKit          3D

 22 22  0  0  1  0  0  0  0  0999 V2000
   12.0018  -19.2278   -1.1634 C   0  0  0  0  0  0  0  0  0  0  0  0
   11.2226  -20.3118   -0.4066 C   0  0  2  0  0  0  0  0  0  0  0  0
    9.8781  -19.7367   -0.0750 C   0  0  0  0  0  0  0  0  0  0  0  0
   12.0179  -20.7997    0.7656 C   0  0  0  0  0  0  0  0  0  0  0  0
   13.1414  -21.7038    0.2875 C   0  0  2  0  0  0  0  0  0  0  0  0
   12.6396  -22.7427   -0.5033 N   0  0  0  0  0  0  0  0  0  0  0  0
   14.0390  -22.0335    1.4062 C   0  0  0  0  0  0  0  0  0  0  0  0
   13.4644  -22.5748    2.4184 O   0  0  0  0  0  0  0  0  0  0  0  0
   15.4067  -21.8067    1.4298 N   0  0  0  0  0  0  0  0  0  0  0  0
   16.3545  -21.8966    0.2978 C   0  0  0  0  0  0  0  0  0  0  0  0
   16.9897  -20.4854    0.3918 C   0  0  0  0  0  0  0  0  0  0  0  0
   16.7648  -20.0396    1.8459 C   0  0  0  0  0  0  0  0  0  0  0  0
   16.3115  -21.3463    2.4628 C   0  0  1  0  0  0  0  0  0  0  0  0
   15.8975  -21.3186    3.8289 C   0  0  0  0  0  0  0  0  0  0  0  0
   14.8462  -20.7602    4.2097 O   0  0  0  0  0  0  0  0  0  0  0  0
   16.8596  -22.6125    8.4192 O   0  0  0  0  0  0  0  0  0  0  0  0
   17.2286  -22.6592    7.0927 C   0  0  0  0  0  0  0  0  0  0  0  0
   16.3173  -21.7183    6.2922 C   0  0  2  0  0  0  0  0  0  0  0  0
   16.6453  -21.9278    4.9049 N   0  0  0  0  0  0  0  0  0  0  0  0
   16.4736  -20.3262    6.7213 C   0  0  0  0  0  0  0  0  0  0  0  0
   17.3469  -19.5760    6.2193 O   0  0  0  0  0  0  0  0  0  0  0  0
   15.6527  -19.7956    7.7029 O   0  0  0  0  0  0  0  0  0  0  0  0
  2  1  1  1
  2  3  1  0
  4  2  1  0
  5  4  1  0
  5  6  1  1
  7  9  1  0
  7  5  1  0
  8  7  2  0
  9 13  1  0
 10 11  1  0
 10  9  1  0
 11 12  1  0
 12 13  1  0
 13 14  1  1
 14 19  1  0
 14 15  2  0
 16 17  1  0
 18 17  1  1
 18 20  1  0
 19 18  1  0
 20 22  1  0
 21 20  2  0
M  END
$$$$
