EEG.pdb
     RDKit          3D

 23 22  0  0  1  0  0  0  0  0999 V2000
   17.7798   -8.5912  -16.1433 N   0  0  0  0  0  0  0  0  0  0  0  0
   18.0301   -8.9711  -14.7951 C   0  0  1  0  0  0  0  0  0  0  0  0
   17.9475  -10.4134  -14.4595 C   0  0  0  0  0  0  0  0  0  0  0  0
   18.3624  -11.3899  -15.4988 C   0  0  0  0  0  0  0  0  0  0  0  0
   17.6385  -12.6534  -15.5258 C   0  0  0  0  0  0  0  0  0  0  0  0
   17.8852  -13.5810  -14.7340 O   0  0  0  0  0  0  0  0  0  0  0  0
   19.3302   -8.3781  -14.3094 C   0  0  0  0  0  0  0  0  0  0  0  0
   19.5714   -8.5048  -13.0875 O   0  0  0  0  0  0  0  0  0  0  0  0
   16.6144  -12.9026  -16.4500 O   0  0  0  0  0  0  0  0  0  0  0  0
   20.2221   -7.7179  -15.1928 N   0  0  0  0  0  0  0  0  0  0  0  0
   21.5095   -7.1843  -14.7008 C   0  0  1  0  0  0  0  0  0  0  0  0
   22.5528   -7.9476  -15.4082 C   0  0  0  0  0  0  0  0  0  0  0  0
   22.9601   -9.2659  -14.8785 C   0  0  0  0  0  0  0  0  0  0  0  0
   23.9809   -9.9855  -15.6763 C   0  0  0  0  0  0  0  0  0  0  0  0
   24.4449   -9.4544  -16.7167 O   0  0  0  0  0  0  0  0  0  0  0  0
   21.4778   -5.7409  -14.8384 C   0  0  0  0  0  0  0  0  0  0  0  0
   20.9140   -5.2640  -15.8901 O   0  0  0  0  0  0  0  0  0  0  0  0
   24.4456  -11.2399  -15.3070 O   0  0  0  0  0  0  0  0  0  0  0  0
   22.0070   -4.7836  -13.9264 N   0  0  0  0  0  0  0  0  0  0  0  0
   21.9388   -3.3667  -14.1590 C   0  0  0  0  0  0  0  0  0  0  0  0
   20.6353   -2.7955  -13.7910 C   0  0  0  0  0  0  0  0  0  0  0  0
   20.3213   -1.4475  -13.8663 O   0  0  0  0  0  0  0  0  0  0  0  0
   19.7386   -3.5735  -13.3792 O   0  0  0  0  0  0  0  0  0  0  0  0
  2  1  1  6
  2  7  1  0
  3  4  1  0
  3  2  1  0
  5  6  2  0
  5  4  1  0
  7 10  1  0
  7  8  2  0
  9  5  1  0
 10 11  1  0
 11 16  1  0
 11 12  1  6
 13 12  1  0
 13 14  1  0
 14 15  2  0
 14 18  1  0
 16 17  2  0
 19 20  1  0
 19 16  1  0
 21 22  1  0
 21 20  1  0
 23 21  2  0
M  END
$$$$
