EEG.pdb
     RDKit          3D

 23 22  0  0  1  0  0  0  0  0999 V2000
   17.0526   -5.5136   -9.3289 N   0  0  0  0  0  0  0  0  0  0  0  0
   17.0797   -6.7117  -10.0960 C   0  0  1  0  0  0  0  0  0  0  0  0
   15.8391   -7.5227  -10.1501 C   0  0  0  0  0  0  0  0  0  0  0  0
   15.2941   -8.0388   -8.8685 C   0  0  0  0  0  0  0  0  0  0  0  0
   14.0808   -8.8398   -8.9568 C   0  0  0  0  0  0  0  0  0  0  0  0
   12.9855   -8.4425   -8.5201 O   0  0  0  0  0  0  0  0  0  0  0  0
   17.6081   -6.4414  -11.4836 C   0  0  0  0  0  0  0  0  0  0  0  0
   17.2475   -5.3645  -12.0107 O   0  0  0  0  0  0  0  0  0  0  0  0
   14.0731  -10.1134   -9.5423 O   0  0  0  0  0  0  0  0  0  0  0  0
   18.4637   -7.3589  -12.1452 N   0  0  0  0  0  0  0  0  0  0  0  0
   18.8399   -7.1505  -13.5591 C   0  0  1  0  0  0  0  0  0  0  0  0
   19.9350   -6.1648  -13.5381 C   0  0  0  0  0  0  0  0  0  0  0  0
   21.0486   -6.3504  -12.5842 C   0  0  0  0  0  0  0  0  0  0  0  0
   22.0879   -5.2941  -12.6045 C   0  0  0  0  0  0  0  0  0  0  0  0
   22.0788   -4.3958  -11.7254 O   0  0  0  0  0  0  0  0  0  0  0  0
   19.0745   -8.4510  -14.1563 C   0  0  0  0  0  0  0  0  0  0  0  0
   19.6390   -9.3411  -13.4212 O   0  0  0  0  0  0  0  0  0  0  0  0
   23.0810   -5.2652  -13.5734 O   0  0  0  0  0  0  0  0  0  0  0  0
   18.7438   -8.8553  -15.4813 N   0  0  0  0  0  0  0  0  0  0  0  0
   19.0517  -10.1617  -15.9960 C   0  0  0  0  0  0  0  0  0  0  0  0
   20.2464  -10.1646  -16.8524 C   0  0  0  0  0  0  0  0  0  0  0  0
   20.2863  -10.6774  -18.1396 O   0  0  0  0  0  0  0  0  0  0  0  0
   21.3081   -9.6713  -16.3959 O   0  0  0  0  0  0  0  0  0  0  0  0
  2  1  1  6
  2  7  1  0
  3  4  1  0
  3  2  1  0
  5  6  2  0
  5  4  1  0
  7 10  1  0
  7  8  2  0
  9  5  1  0
 10 11  1  0
 11 16  1  0
 11 12  1  1
 13 12  1  0
 13 14  1  0
 14 15  2  0
 14 18  1  0
 16 17  2  0
 19 20  1  0
 19 16  1  0
 21 22  1  0
 21 20  1  0
 23 21  2  0
M  END
$$$$
