EEG.pdb
     RDKit          3D

 23 22  0  0  1  0  0  0  0  0999 V2000
   19.3592  -21.6265  -10.3938 N   0  0  0  0  0  0  0  0  0  0  0  0
   19.5034  -21.4799  -11.8018 C   0  0  1  0  0  0  0  0  0  0  0  0
   18.2811  -21.1992  -12.5936 C   0  0  0  0  0  0  0  0  0  0  0  0
   17.1755  -22.1890  -12.5327 C   0  0  0  0  0  0  0  0  0  0  0  0
   17.1687  -23.2164  -13.5650 C   0  0  0  0  0  0  0  0  0  0  0  0
   16.3279  -24.1333  -13.5886 O   0  0  0  0  0  0  0  0  0  0  0  0
   20.5937  -20.4870  -12.1229 C   0  0  0  0  0  0  0  0  0  0  0  0
   20.4462  -19.3356  -11.6539 O   0  0  0  0  0  0  0  0  0  0  0  0
   18.1137  -23.2348  -14.6002 O   0  0  0  0  0  0  0  0  0  0  0  0
   21.7173  -20.8455  -12.9106 N   0  0  0  0  0  0  0  0  0  0  0  0
   22.8108  -19.8790  -13.1439 C   0  0  1  0  0  0  0  0  0  0  0  0
   23.9163  -20.3109  -12.2706 C   0  0  0  0  0  0  0  0  0  0  0  0
   24.4614  -21.6759  -12.4257 C   0  0  0  0  0  0  0  0  0  0  0  0
   25.6616  -21.9792  -11.6110 C   0  0  0  0  0  0  0  0  0  0  0  0
   26.8051  -21.7452  -12.0772 O   0  0  0  0  0  0  0  0  0  0  0  0
   23.0355  -19.7938  -14.5741 C   0  0  0  0  0  0  0  0  0  0  0  0
   22.6493  -20.7893  -15.2891 O   0  0  0  0  0  0  0  0  0  0  0  0
   25.5617  -22.5189  -10.3363 O   0  0  0  0  0  0  0  0  0  0  0  0
   23.6421  -18.7167  -15.2813 N   0  0  0  0  0  0  0  0  0  0  0  0
   23.9207  -18.7699  -16.6905 C   0  0  0  0  0  0  0  0  0  0  0  0
   22.7700  -18.3635  -17.5100 C   0  0  0  0  0  0  0  0  0  0  0  0
   22.8577  -17.9312  -18.8240 O   0  0  0  0  0  0  0  0  0  0  0  0
   21.6253  -18.4074  -16.9934 O   0  0  0  0  0  0  0  0  0  0  0  0
  2  1  1  1
  2  7  1  0
  3  4  1  0
  3  2  1  0
  5  6  2  0
  5  4  1  0
  7 10  1  0
  7  8  2  0
  9  5  1  0
 10 11  1  0
 11 16  1  0
 11 12  1  1
 13 12  1  0
 13 14  1  0
 14 15  2  0
 14 18  1  0
 16 17  2  0
 19 20  1  0
 19 16  1  0
 21 22  1  0
 21 20  1  0
 23 21  2  0
M  END
$$$$
