EEG.pdb
     RDKit          3D

 23 22  0  0  1  0  0  0  0  0999 V2000
   14.1640  -22.0775    4.1495 N   0  0  0  0  0  0  0  0  0  0  0  0
   15.4126  -21.4289    3.9373 C   0  0  1  0  0  0  0  0  0  0  0  0
   15.4417  -19.9482    4.0179 C   0  0  0  0  0  0  0  0  0  0  0  0
   14.5618  -19.1881    3.0938 C   0  0  0  0  0  0  0  0  0  0  0  0
   14.6660  -17.7363    3.1484 C   0  0  0  0  0  0  0  0  0  0  0  0
   13.7000  -16.9886    2.9117 O   0  0  0  0  0  0  0  0  0  0  0  0
   16.4819  -22.0375    4.8112 C   0  0  0  0  0  0  0  0  0  0  0  0
   16.0850  -22.6010    5.8564 O   0  0  0  0  0  0  0  0  0  0  0  0
   15.8668  -17.0899    3.4724 O   0  0  0  0  0  0  0  0  0  0  0  0
   17.8548  -21.9714    4.4613 N   0  0  0  0  0  0  0  0  0  0  0  0
   18.8869  -22.5319    5.3583 C   0  0  1  0  0  0  0  0  0  0  0  0
   19.5926  -23.5527    4.5637 C   0  0  0  0  0  0  0  0  0  0  0  0
   18.9416  -24.8597    4.3348 C   0  0  0  0  0  0  0  0  0  0  0  0
   19.7165  -25.8233    3.5178 C   0  0  0  0  0  0  0  0  0  0  0  0
   19.9925  -25.5452    2.3236 O   0  0  0  0  0  0  0  0  0  0  0  0
   19.6429  -21.4273    5.9163 C   0  0  0  0  0  0  0  0  0  0  0  0
   20.1778  -20.6041    5.0871 O   0  0  0  0  0  0  0  0  0  0  0  0
   20.1517  -27.0352    4.0352 O   0  0  0  0  0  0  0  0  0  0  0  0
   19.8592  -21.1505    7.2965 N   0  0  0  0  0  0  0  0  0  0  0  0
   20.7325  -20.1037    7.7527 C   0  0  0  0  0  0  0  0  0  0  0  0
   20.7893  -20.0137    9.2188 C   0  0  0  0  0  0  0  0  0  0  0  0
   21.6153  -19.1485    9.9191 O   0  0  0  0  0  0  0  0  0  0  0  0
   20.0426  -20.7680    9.8915 O   0  0  0  0  0  0  0  0  0  0  0  0
  2  1  1  1
  2  7  1  0
  3  4  1  0
  3  2  1  0
  5  6  2  0
  5  4  1  0
  7 10  1  0
  7  8  2  0
  9  5  1  0
 10 11  1  0
 11 16  1  0
 11 12  1  6
 13 12  1  0
 13 14  1  0
 14 15  2  0
 14 18  1  0
 16 17  2  0
 19 20  1  0
 19 16  1  0
 21 22  1  0
 21 20  1  0
 23 21  2  0
M  END
$$$$
