EEG.pdb
     RDKit          3D

 23 22  0  0  1  0  0  0  0  0999 V2000
   25.0528  -22.7522  -14.5291 N   0  0  0  0  0  0  0  0  0  0  0  0
   25.1184  -21.4213  -14.0299 C   0  0  1  0  0  0  0  0  0  0  0  0
   25.8464  -20.4164  -14.8421 C   0  0  0  0  0  0  0  0  0  0  0  0
   26.9864  -20.8896  -15.6682 C   0  0  0  0  0  0  0  0  0  0  0  0
   27.6125  -19.9004  -16.5347 C   0  0  0  0  0  0  0  0  0  0  0  0
   27.1823  -18.7377  -16.6400 O   0  0  0  0  0  0  0  0  0  0  0  0
   23.7415  -20.9235  -13.6638 C   0  0  0  0  0  0  0  0  0  0  0  0
   23.6951  -19.8378  -13.0420 O   0  0  0  0  0  0  0  0  0  0  0  0
   28.7437  -20.1997  -17.3066 O   0  0  0  0  0  0  0  0  0  0  0  0
   22.5726  -21.6491  -14.0084 N   0  0  0  0  0  0  0  0  0  0  0  0
   21.2338  -21.1214  -13.6718 C   0  0  1  0  0  0  0  0  0  0  0  0
   20.6401  -20.6973  -14.9521 C   0  0  0  0  0  0  0  0  0  0  0  0
   21.2954  -19.6211  -15.7248 C   0  0  0  0  0  0  0  0  0  0  0  0
   20.5818  -19.1914  -16.9505 C   0  0  0  0  0  0  0  0  0  0  0  0
   21.0846  -18.3029  -17.6836 O   0  0  0  0  0  0  0  0  0  0  0  0
   20.5472  -22.1185  -12.8734 C   0  0  0  0  0  0  0  0  0  0  0  0
   20.8389  -23.3502  -13.0950 O   0  0  0  0  0  0  0  0  0  0  0  0
   19.3634  -19.7448  -17.3182 O   0  0  0  0  0  0  0  0  0  0  0  0
   19.5759  -21.8808  -11.8593 N   0  0  0  0  0  0  0  0  0  0  0  0
   18.8642  -22.9412  -11.1995 C   0  0  0  0  0  0  0  0  0  0  0  0
   17.7553  -23.4668  -12.0088 C   0  0  0  0  0  0  0  0  0  0  0  0
   16.8529  -24.4246  -11.5732 O   0  0  0  0  0  0  0  0  0  0  0  0
   17.6070  -23.0243  -13.1755 O   0  0  0  0  0  0  0  0  0  0  0  0
  2  1  1  6
  2  7  1  0
  3  4  1  0
  3  2  1  0
  5  6  2  0
  5  4  1  0
  7 10  1  0
  7  8  2  0
  9  5  1  0
 10 11  1  0
 11 16  1  0
 11 12  1  6
 13 12  1  0
 13 14  1  0
 14 15  2  0
 14 18  1  0
 16 17  2  0
 19 20  1  0
 19 16  1  0
 21 22  1  0
 21 20  1  0
 23 21  2  0
M  END
$$$$
