EEG.pdb
     RDKit          3D

 23 22  0  0  1  0  0  0  0  0999 V2000
   23.3333  -10.4464  -17.8712 N   0  0  0  0  0  0  0  0  0  0  0  0
   23.7667   -9.7293  -16.7212 C   0  0  1  0  0  0  0  0  0  0  0  0
   24.7820   -8.6656  -16.9152 C   0  0  0  0  0  0  0  0  0  0  0  0
   24.3967   -7.4816  -17.7249 C   0  0  0  0  0  0  0  0  0  0  0  0
   25.3567   -6.3871  -17.7687 C   0  0  0  0  0  0  0  0  0  0  0  0
   26.4117   -6.3980  -17.1091 O   0  0  0  0  0  0  0  0  0  0  0  0
   22.5829   -9.2091  -15.9429 C   0  0  0  0  0  0  0  0  0  0  0  0
   22.8030   -8.8904  -14.7523 O   0  0  0  0  0  0  0  0  0  0  0  0
   25.1496   -5.2493  -18.5607 O   0  0  0  0  0  0  0  0  0  0  0  0
   21.2989   -9.0905  -16.5335 N   0  0  0  0  0  0  0  0  0  0  0  0
   20.1534   -8.5872  -15.7469 C   0  0  1  0  0  0  0  0  0  0  0  0
   20.1754   -7.1223  -15.9050 C   0  0  0  0  0  0  0  0  0  0  0  0
   19.3175   -6.2939  -15.0320 C   0  0  0  0  0  0  0  0  0  0  0  0
   19.3451   -4.8380  -15.3075 C   0  0  0  0  0  0  0  0  0  0  0  0
   18.3675   -4.2951  -15.8816 O   0  0  0  0  0  0  0  0  0  0  0  0
   18.9720   -9.3218  -16.1562 C   0  0  0  0  0  0  0  0  0  0  0  0
   18.3476   -8.8969  -17.1958 O   0  0  0  0  0  0  0  0  0  0  0  0
   20.4271   -4.0470  -14.9479 O   0  0  0  0  0  0  0  0  0  0  0  0
   18.4222  -10.4753  -15.5271 N   0  0  0  0  0  0  0  0  0  0  0  0
   17.2136  -11.1076  -15.9810 C   0  0  0  0  0  0  0  0  0  0  0  0
   16.8505  -12.2796  -15.1716 C   0  0  0  0  0  0  0  0  0  0  0  0
   15.6388  -12.9471  -15.2590 O   0  0  0  0  0  0  0  0  0  0  0  0
   17.6882  -12.7133  -14.3415 O   0  0  0  0  0  0  0  0  0  0  0  0
  2  1  1  6
  2  7  1  0
  3  4  1  0
  3  2  1  0
  5  6  2  0
  5  4  1  0
  7 10  1  0
  7  8  2  0
  9  5  1  0
 10 11  1  0
 11 16  1  0
 11 12  1  6
 13 12  1  0
 13 14  1  0
 14 15  2  0
 14 18  1  0
 16 17  2  0
 19 20  1  0
 19 16  1  0
 21 22  1  0
 21 20  1  0
 23 21  2  0
M  END
$$$$
