EEG.pdb
     RDKit          3D

 23 22  0  0  1  0  0  0  0  0999 V2000
   16.5349  -10.8105  -17.7580 N   0  0  0  0  0  0  0  0  0  0  0  0
   17.6330  -11.1034  -16.9018 C   0  0  1  0  0  0  0  0  0  0  0  0
   18.1035  -12.5087  -16.8419 C   0  0  0  0  0  0  0  0  0  0  0  0
   17.1479  -13.5377  -16.3583 C   0  0  0  0  0  0  0  0  0  0  0  0
   17.1671  -13.8183  -14.9292 C   0  0  0  0  0  0  0  0  0  0  0  0
   18.2256  -13.9707  -14.2932 O   0  0  0  0  0  0  0  0  0  0  0  0
   18.7812  -10.1615  -17.1703 C   0  0  0  0  0  0  0  0  0  0  0  0
   19.2422  -10.1720  -18.3343 O   0  0  0  0  0  0  0  0  0  0  0  0
   15.9883  -13.9343  -14.1796 O   0  0  0  0  0  0  0  0  0  0  0  0
   19.3016   -9.3159  -16.1575 N   0  0  0  0  0  0  0  0  0  0  0  0
   20.3435   -8.3169  -16.4744 C   0  0  1  0  0  0  0  0  0  0  0  0
   19.7852   -7.4903  -17.5590 C   0  0  0  0  0  0  0  0  0  0  0  0
   20.5450   -6.3117  -18.0260 C   0  0  0  0  0  0  0  0  0  0  0  0
   19.8898   -5.5105  -19.0868 C   0  0  0  0  0  0  0  0  0  0  0  0
   20.4046   -5.4556  -20.2321 O   0  0  0  0  0  0  0  0  0  0  0  0
   20.7420   -7.6771  -15.2354 C   0  0  0  0  0  0  0  0  0  0  0  0
   19.8039   -7.2727  -14.4557 O   0  0  0  0  0  0  0  0  0  0  0  0
   18.7136   -4.8121  -18.8531 O   0  0  0  0  0  0  0  0  0  0  0  0
   22.0722   -7.4462  -14.7820 N   0  0  0  0  0  0  0  0  0  0  0  0
   22.3672   -6.7855  -13.5399 C   0  0  0  0  0  0  0  0  0  0  0  0
   22.1015   -5.3407  -13.5911 C   0  0  0  0  0  0  0  0  0  0  0  0
   22.3201   -4.4662  -12.5381 O   0  0  0  0  0  0  0  0  0  0  0  0
   21.6454   -4.8560  -14.6569 O   0  0  0  0  0  0  0  0  0  0  0  0
  2  1  1  6
  2  7  1  0
  3  4  1  0
  3  2  1  0
  5  6  2  0
  5  4  1  0
  7 10  1  0
  7  8  2  0
  9  5  1  0
 10 11  1  0
 11 16  1  0
 11 12  1  6
 13 12  1  0
 13 14  1  0
 14 15  2  0
 14 18  1  0
 16 17  2  0
 19 20  1  0
 19 16  1  0
 21 22  1  0
 21 20  1  0
 23 21  2  0
M  END
$$$$
