EEG.pdb
     RDKit          3D

 23 22  0  0  1  0  0  0  0  0999 V2000
   17.4773  -11.9370  -15.0420 N   0  0  0  0  0  0  0  0  0  0  0  0
   17.6254  -10.7841  -15.8626 C   0  0  1  0  0  0  0  0  0  0  0  0
   16.4883   -9.8340  -15.9268 C   0  0  0  0  0  0  0  0  0  0  0  0
   15.1777  -10.3549  -16.3924 C   0  0  0  0  0  0  0  0  0  0  0  0
   14.0576   -9.4250  -16.3450 C   0  0  0  0  0  0  0  0  0  0  0  0
   12.8731   -9.8056  -16.3610 O   0  0  0  0  0  0  0  0  0  0  0  0
   18.9118  -10.0642  -15.5390 C   0  0  0  0  0  0  0  0  0  0  0  0
   19.2005   -9.9706  -14.3244 O   0  0  0  0  0  0  0  0  0  0  0  0
   14.2470   -8.0377  -16.2778 O   0  0  0  0  0  0  0  0  0  0  0  0
   19.7403   -9.5281  -16.5577 N   0  0  0  0  0  0  0  0  0  0  0  0
   21.0471   -8.9240  -16.2234 C   0  0  1  0  0  0  0  0  0  0  0  0
   21.9252   -9.2160  -17.3702 C   0  0  0  0  0  0  0  0  0  0  0  0
   22.4714  -10.5805  -17.5258 C   0  0  0  0  0  0  0  0  0  0  0  0
   23.3435  -10.7870  -18.7061 C   0  0  0  0  0  0  0  0  0  0  0  0
   22.9674  -11.5500  -19.6314 O   0  0  0  0  0  0  0  0  0  0  0  0
   20.8182   -7.5427  -15.8456 C   0  0  0  0  0  0  0  0  0  0  0  0
   19.9855   -6.8702  -16.5566 O   0  0  0  0  0  0  0  0  0  0  0  0
   24.5749  -10.1578  -18.8233 O   0  0  0  0  0  0  0  0  0  0  0  0
   21.4200   -6.8422  -14.7614 N   0  0  0  0  0  0  0  0  0  0  0  0
   21.1115   -5.4726  -14.4529 C   0  0  0  0  0  0  0  0  0  0  0  0
   21.9790   -4.9204  -13.4024 C   0  0  0  0  0  0  0  0  0  0  0  0
   22.0304   -3.5800  -13.0532 O   0  0  0  0  0  0  0  0  0  0  0  0
   22.7281   -5.7087  -12.7729 O   0  0  0  0  0  0  0  0  0  0  0  0
  2  1  1  1
  2  7  1  0
  3  4  1  0
  3  2  1  0
  5  6  2  0
  5  4  1  0
  7 10  1  0
  7  8  2  0
  9  5  1  0
 10 11  1  0
 11 16  1  0
 11 12  1  6
 13 12  1  0
 13 14  1  0
 14 15  2  0
 14 18  1  0
 16 17  2  0
 19 20  1  0
 19 16  1  0
 21 22  1  0
 21 20  1  0
 23 21  2  0
M  END
$$$$
