EEG.pdb
     RDKit          3D

 23 22  0  0  1  0  0  0  0  0999 V2000
   15.9765  -11.6281  -16.7950 N   0  0  0  0  0  0  0  0  0  0  0  0
   15.9072  -10.8268  -15.6212 C   0  0  1  0  0  0  0  0  0  0  0  0
   15.8396  -11.5246  -14.3142 C   0  0  0  0  0  0  0  0  0  0  0  0
   14.6902  -12.4343  -14.0749 C   0  0  0  0  0  0  0  0  0  0  0  0
   13.4510  -11.8092  -13.6331 C   0  0  0  0  0  0  0  0  0  0  0  0
   12.3605  -12.0198  -14.1939 O   0  0  0  0  0  0  0  0  0  0  0  0
   17.0027   -9.7887  -15.6220 C   0  0  0  0  0  0  0  0  0  0  0  0
   18.0446  -10.0874  -16.2486 O   0  0  0  0  0  0  0  0  0  0  0  0
   13.4114  -10.9280  -12.5437 O   0  0  0  0  0  0  0  0  0  0  0  0
   16.8525   -8.5488  -14.9500 N   0  0  0  0  0  0  0  0  0  0  0  0
   17.8914   -7.5035  -15.0602 C   0  0  1  0  0  0  0  0  0  0  0  0
   17.1701   -6.2194  -15.0147 C   0  0  0  0  0  0  0  0  0  0  0  0
   17.9459   -4.9626  -14.9600 C   0  0  0  0  0  0  0  0  0  0  0  0
   17.1434   -3.7168  -14.9801 C   0  0  0  0  0  0  0  0  0  0  0  0
   17.0310   -3.0326  -13.9319 O   0  0  0  0  0  0  0  0  0  0  0  0
   18.9080   -7.7757  -14.0624 C   0  0  0  0  0  0  0  0  0  0  0  0
   18.5109   -8.2381  -12.9311 O   0  0  0  0  0  0  0  0  0  0  0  0
   16.5058   -3.2774  -16.1317 O   0  0  0  0  0  0  0  0  0  0  0  0
   20.3129   -7.5863  -14.1999 N   0  0  0  0  0  0  0  0  0  0  0  0
   21.2473   -7.9089  -13.1563 C   0  0  0  0  0  0  0  0  0  0  0  0
   22.6450   -7.8305  -13.6048 C   0  0  0  0  0  0  0  0  0  0  0  0
   23.7437   -7.9250  -12.7651 O   0  0  0  0  0  0  0  0  0  0  0  0
   22.8693   -7.6669  -14.8303 O   0  0  0  0  0  0  0  0  0  0  0  0
  2  1  1  6
  2  7  1  0
  3  4  1  0
  3  2  1  0
  5  6  2  0
  5  4  1  0
  7 10  1  0
  7  8  2  0
  9  5  1  0
 10 11  1  0
 11 16  1  0
 11 12  1  1
 13 12  1  0
 13 14  1  0
 14 15  2  0
 14 18  1  0
 16 17  2  0
 19 20  1  0
 19 16  1  0
 21 22  1  0
 21 20  1  0
 23 21  2  0
M  END
$$$$
