EEG.pdb
     RDKit          3D

 23 22  0  0  1  0  0  0  0  0999 V2000
   27.7455  -33.9450   -3.9195 N   0  0  0  0  0  0  0  0  0  0  0  0
   28.0861  -34.6166   -2.7122 C   0  0  1  0  0  0  0  0  0  0  0  0
   28.8590  -35.8779   -2.8205 C   0  0  0  0  0  0  0  0  0  0  0  0
   28.2437  -37.0036   -3.5688 C   0  0  0  0  0  0  0  0  0  0  0  0
   28.9934  -38.2521   -3.5918 C   0  0  0  0  0  0  0  0  0  0  0  0
   28.6967  -39.1949   -4.3477 O   0  0  0  0  0  0  0  0  0  0  0  0
   28.7416  -33.6643   -1.7421 C   0  0  0  0  0  0  0  0  0  0  0  0
   29.3317  -32.6824   -2.2472 O   0  0  0  0  0  0  0  0  0  0  0  0
   30.1003  -38.4687   -2.7596 O   0  0  0  0  0  0  0  0  0  0  0  0
   28.6871  -33.8761   -0.3407 N   0  0  0  0  0  0  0  0  0  0  0  0
   29.2773  -32.8928    0.5915 C   0  0  1  0  0  0  0  0  0  0  0  0
   28.4602  -32.9653    1.8157 C   0  0  0  0  0  0  0  0  0  0  0  0
   28.8596  -32.1655    2.9927 C   0  0  0  0  0  0  0  0  0  0  0  0
   27.9536  -32.2564    4.1620 C   0  0  0  0  0  0  0  0  0  0  0  0
   27.0389  -31.4067    4.3074 O   0  0  0  0  0  0  0  0  0  0  0  0
   30.7007  -33.1567    0.6784 C   0  0  0  0  0  0  0  0  0  0  0  0
   31.0743  -34.3849    0.6228 O   0  0  0  0  0  0  0  0  0  0  0  0
   28.0846  -33.2604    5.1111 O   0  0  0  0  0  0  0  0  0  0  0  0
   31.7412  -32.1944    0.8188 N   0  0  0  0  0  0  0  0  0  0  0  0
   33.1329  -32.5527    0.8534 C   0  0  0  0  0  0  0  0  0  0  0  0
   33.5160  -33.2115    2.1104 C   0  0  0  0  0  0  0  0  0  0  0  0
   32.6222  -33.5954    3.0978 O   0  0  0  0  0  0  0  0  0  0  0  0
   34.7337  -33.4468    2.3128 O   0  0  0  0  0  0  0  0  0  0  0  0
  2  1  1  6
  2  7  1  0
  3  4  1  0
  3  2  1  0
  5  6  2  0
  5  4  1  0
  7 10  1  0
  7  8  2  0
  9  5  1  0
 10 11  1  0
 11 16  1  0
 11 12  1  1
 13 12  1  0
 13 14  1  0
 14 15  2  0
 14 18  1  0
 16 17  2  0
 19 20  1  0
 19 16  1  0
 21 22  1  0
 21 20  1  0
 23 21  2  0
M  END
$$$$
