EEG.pdb
     RDKit          3D

 23 22  0  0  1  0  0  0  0  0999 V2000
   18.7545  -10.4204  -15.2486 N   0  0  0  0  0  0  0  0  0  0  0  0
   19.8531  -11.2522  -15.6033 C   0  0  1  0  0  0  0  0  0  0  0  0
   19.5500  -12.5781  -16.1949 C   0  0  0  0  0  0  0  0  0  0  0  0
   18.4782  -13.3886  -15.5624 C   0  0  0  0  0  0  0  0  0  0  0  0
   17.1080  -13.0183  -15.8894 C   0  0  0  0  0  0  0  0  0  0  0  0
   16.8076  -12.4422  -16.9505 O   0  0  0  0  0  0  0  0  0  0  0  0
   20.8391  -10.4934  -16.4575 C   0  0  0  0  0  0  0  0  0  0  0  0
   21.9189  -11.0772  -16.7036 O   0  0  0  0  0  0  0  0  0  0  0  0
   16.0391  -13.2897  -15.0242 O   0  0  0  0  0  0  0  0  0  0  0  0
   20.5512   -9.1948  -16.9498 N   0  0  0  0  0  0  0  0  0  0  0  0
   21.5252   -8.4809  -17.8017 C   0  0  1  0  0  0  0  0  0  0  0  0
   20.7915   -8.1191  -19.0273 C   0  0  0  0  0  0  0  0  0  0  0  0
   20.4406   -9.1815  -19.9929 C   0  0  0  0  0  0  0  0  0  0  0  0
   19.5466   -8.7667  -21.0998 C   0  0  0  0  0  0  0  0  0  0  0  0
   20.0395   -8.2755  -22.1464 O   0  0  0  0  0  0  0  0  0  0  0  0
   22.1294   -7.4294  -17.0064 C   0  0  0  0  0  0  0  0  0  0  0  0
   23.0000   -6.6824  -17.5855 O   0  0  0  0  0  0  0  0  0  0  0  0
   18.1683   -8.9052  -21.0163 O   0  0  0  0  0  0  0  0  0  0  0  0
   21.8606   -7.1293  -15.6404 N   0  0  0  0  0  0  0  0  0  0  0  0
   22.5482   -6.0915  -14.9218 C   0  0  0  0  0  0  0  0  0  0  0  0
   22.0174   -5.8961  -13.5650 C   0  0  0  0  0  0  0  0  0  0  0  0
   22.5142   -4.9770  -12.6542 O   0  0  0  0  0  0  0  0  0  0  0  0
   21.0477   -6.6054  -13.1967 O   0  0  0  0  0  0  0  0  0  0  0  0
  2  1  1  6
  2  7  1  0
  3  4  1  0
  3  2  1  0
  5  6  2  0
  5  4  1  0
  7 10  1  0
  7  8  2  0
  9  5  1  0
 10 11  1  0
 11 16  1  0
 11 12  1  6
 13 12  1  0
 13 14  1  0
 14 15  2  0
 14 18  1  0
 16 17  2  0
 19 20  1  0
 19 16  1  0
 21 22  1  0
 21 20  1  0
 23 21  2  0
M  END
$$$$
