IGF.pdb
     RDKit          3D

 24 24  0  0  1  0  0  0  0  0999 V2000
    7.4626  -12.5905   17.9035 C   0  0  0  0  0  0  0  0  0  0  0  0
    8.0981  -13.8353   18.4832 C   0  0  0  0  0  0  0  0  0  0  0  0
    7.6045  -14.1109   19.8926 C   0  0  2  0  0  0  0  0  0  0  0  0
    7.9559  -12.9553   20.7642 C   0  0  0  0  0  0  0  0  0  0  0  0
    8.2338  -15.4266   20.2990 C   0  0  2  0  0  0  0  0  0  0  0  0
    7.5384  -16.4376   19.4742 N   0  0  0  0  0  0  0  0  0  0  0  0
    7.9478  -15.8097   21.6992 C   0  0  0  0  0  0  0  0  0  0  0  0
    8.4692  -15.2434   22.6873 O   0  0  0  0  0  0  0  0  0  0  0  0
    7.0252  -16.8855   21.9768 N   0  0  0  0  0  0  0  0  0  0  0  0
    6.7240  -17.2394   23.3384 C   0  0  0  0  0  0  0  0  0  0  0  0
    7.9130  -17.1963   24.2063 C   0  0  0  0  0  0  0  0  0  0  0  0
    9.0172  -17.7218   23.7791 O   0  0  0  0  0  0  0  0  0  0  0  0
    7.9990  -16.6320   25.4932 N   0  0  0  0  0  0  0  0  0  0  0  0
    9.2117  -16.6058   26.2818 C   0  0  1  0  0  0  0  0  0  0  0  0
    9.5119  -15.1607   26.5895 C   0  0  0  0  0  0  0  0  0  0  0  0
    8.3406  -14.3150   26.8210 C   0  0  0  0  0  0  0  0  0  0  0  0
    8.2825  -13.5309   27.9517 C   0  0  0  0  0  0  0  0  0  0  0  0
    7.1840  -12.7172   28.1967 C   0  0  0  0  0  0  0  0  0  0  0  0
    6.1549  -12.7141   27.2815 C   0  0  0  0  0  0  0  0  0  0  0  0
    6.1873  -13.4886   26.1426 C   0  0  0  0  0  0  0  0  0  0  0  0
    7.2863  -14.2796   25.9322 C   0  0  0  0  0  0  0  0  0  0  0  0
    9.1505  -17.3886   27.5202 C   0  0  0  0  0  0  0  0  0  0  0  0
    8.0392  -18.0910   27.9540 O   0  0  0  0  0  0  0  0  0  0  0  0
   10.1564  -17.4492   28.2677 O   0  0  0  0  0  0  0  0  0  0  0  0
  2  1  1  0
  3  2  1  0
  3  5  1  0
  3  4  1  1
  5  6  1  6
  7  5  1  0
  7  9  1  0
  8  7  2  0
 10  9  1  0
 11 10  1  0
 12 11  2  0
 13 11  1  0
 14 22  1  0
 14 13  1  0
 15 16  1  0
 14 15  1  1
 16 21  2  0
 16 17  1  0
 17 18  2  0
 18 19  1  0
 20 19  2  0
 21 20  1  0
 22 23  1  0
 24 22  2  0
M  END
$$$$
