IGF.pdb
     RDKit          3D

 24 24  0  0  1  0  0  0  0  0999 V2000
    3.1287  -17.5683   19.9715 C   0  0  0  0  0  0  0  0  0  0  0  0
    4.0426  -17.6410   21.1752 C   0  0  0  0  0  0  0  0  0  0  0  0
    4.7522  -18.9809   21.2587 C   0  0  2  0  0  0  0  0  0  0  0  0
    3.7363  -20.0589   21.4149 C   0  0  0  0  0  0  0  0  0  0  0  0
    5.7291  -18.8582   22.4088 C   0  0  2  0  0  0  0  0  0  0  0  0
    4.9320  -18.2736   23.5082 N   0  0  0  0  0  0  0  0  0  0  0  0
    6.8140  -17.8835   22.1599 C   0  0  0  0  0  0  0  0  0  0  0  0
    7.9567  -18.2120   21.7656 O   0  0  0  0  0  0  0  0  0  0  0  0
    6.5779  -16.4745   22.3709 N   0  0  0  0  0  0  0  0  0  0  0  0
    7.6392  -15.5281   22.1518 C   0  0  0  0  0  0  0  0  0  0  0  0
    8.4974  -15.3620   23.3369 C   0  0  0  0  0  0  0  0  0  0  0  0
    9.5271  -14.5801   23.2576 O   0  0  0  0  0  0  0  0  0  0  0  0
    8.3286  -15.9731   24.5940 N   0  0  0  0  0  0  0  0  0  0  0  0
    9.2588  -15.8262   25.6924 C   0  0  1  0  0  0  0  0  0  0  0  0
    8.4622  -15.3882   26.8952 C   0  0  0  0  0  0  0  0  0  0  0  0
    7.6632  -14.1770   26.7078 C   0  0  0  0  0  0  0  0  0  0  0  0
    8.2504  -12.9433   26.8807 C   0  0  0  0  0  0  0  0  0  0  0  0
    7.5170  -11.7766   26.7081 C   0  0  0  0  0  0  0  0  0  0  0  0
    6.1889  -11.8841   26.3600 C   0  0  0  0  0  0  0  0  0  0  0  0
    5.5767  -13.1052   26.1808 C   0  0  0  0  0  0  0  0  0  0  0  0
    6.3299  -14.2360   26.3592 C   0  0  0  0  0  0  0  0  0  0  0  0
   10.0298  -17.0340   26.0039 C   0  0  0  0  0  0  0  0  0  0  0  0
    9.8834  -18.2502   25.3589 O   0  0  0  0  0  0  0  0  0  0  0  0
   10.8921  -17.0034   26.9148 O   0  0  0  0  0  0  0  0  0  0  0  0
  2  1  1  0
  3  2  1  0
  3  5  1  0
  3  4  1  1
  5  6  1  1
  7  5  1  0
  7  9  1  0
  8  7  2  0
 10  9  1  0
 11 10  1  0
 12 11  2  0
 13 11  1  0
 14 22  1  0
 14 13  1  0
 15 16  1  0
 14 15  1  1
 16 21  2  0
 16 17  1  0
 17 18  2  0
 18 19  1  0
 20 19  2  0
 21 20  1  0
 22 23  1  0
 24 22  2  0
M  END
$$$$
