IGF.pdb
     RDKit          3D

 24 24  0  0  1  0  0  0  0  0999 V2000
    7.8021  -11.9594   20.2783 C   0  0  0  0  0  0  0  0  0  0  0  0
    7.9627  -13.3574   20.8347 C   0  0  0  0  0  0  0  0  0  0  0  0
    7.8294  -14.4103   19.7487 C   0  0  2  0  0  0  0  0  0  0  0  0
    6.4847  -14.2903   19.1192 C   0  0  0  0  0  0  0  0  0  0  0  0
    8.0961  -15.7373   20.4272 C   0  0  2  0  0  0  0  0  0  0  0  0
    7.1253  -15.7828   21.5413 N   0  0  0  0  0  0  0  0  0  0  0  0
    9.4255  -15.8134   21.0721 C   0  0  0  0  0  0  0  0  0  0  0  0
   10.4785  -16.0789   20.4478 O   0  0  0  0  0  0  0  0  0  0  0  0
    9.5519  -15.5742   22.4907 N   0  0  0  0  0  0  0  0  0  0  0  0
   10.8477  -15.6224   23.1140 C   0  0  0  0  0  0  0  0  0  0  0  0
   10.7684  -15.9321   24.5516 C   0  0  0  0  0  0  0  0  0  0  0  0
   11.8665  -16.0200   25.2329 O   0  0  0  0  0  0  0  0  0  0  0  0
    9.5994  -16.1529   25.3045 N   0  0  0  0  0  0  0  0  0  0  0  0
    9.5847  -16.3046   26.7432 C   0  0  1  0  0  0  0  0  0  0  0  0
    8.2093  -15.9101   27.2188 C   0  0  0  0  0  0  0  0  0  0  0  0
    7.7547  -14.5881   26.7875 C   0  0  0  0  0  0  0  0  0  0  0  0
    8.3360  -13.4616   27.3257 C   0  0  0  0  0  0  0  0  0  0  0  0
    7.9259  -12.1938   26.9342 C   0  0  0  0  0  0  0  0  0  0  0  0
    6.9239  -12.0914   25.9949 C   0  0  0  0  0  0  0  0  0  0  0  0
    6.3254  -13.2015   25.4405 C   0  0  0  0  0  0  0  0  0  0  0  0
    6.7545  -14.4369   25.8496 C   0  0  0  0  0  0  0  0  0  0  0  0
    9.9215  -17.6505   27.2177 C   0  0  0  0  0  0  0  0  0  0  0  0
   10.1704  -17.9806   28.5390 O   0  0  0  0  0  0  0  0  0  0  0  0
   10.0010  -18.5970   26.3979 O   0  0  0  0  0  0  0  0  0  0  0  0
  2  1  1  0
  3  2  1  0
  3  5  1  0
  3  4  1  1
  5  6  1  1
  7  5  1  0
  7  9  1  0
  8  7  2  0
 10  9  1  0
 11 10  1  0
 12 11  2  0
 13 11  1  0
 14 22  1  0
 14 13  1  0
 15 16  1  0
 14 15  1  6
 16 21  2  0
 16 17  1  0
 17 18  2  0
 18 19  1  0
 20 19  2  0
 21 20  1  0
 22 23  1  0
 24 22  2  0
M  END
$$$$
