IGF.pdb
     RDKit          3D

 24 24  0  0  1  0  0  0  0  0999 V2000
    6.7316  -13.1253   18.1379 C   0  0  0  0  0  0  0  0  0  0  0  0
    8.0273  -13.7524   18.6041 C   0  0  0  0  0  0  0  0  0  0  0  0
    8.6554  -12.9614   19.7380 C   0  0  2  0  0  0  0  0  0  0  0  0
    9.0783  -11.6289   19.2239 C   0  0  0  0  0  0  0  0  0  0  0  0
    9.7817  -13.8240   20.2669 C   0  0  2  0  0  0  0  0  0  0  0  0
   10.5390  -14.2209   19.0608 N   0  0  0  0  0  0  0  0  0  0  0  0
    9.3195  -15.0952   20.8665 C   0  0  0  0  0  0  0  0  0  0  0  0
    9.7591  -16.2171   20.5241 O   0  0  0  0  0  0  0  0  0  0  0  0
    8.3127  -15.0784   21.9017 N   0  0  0  0  0  0  0  0  0  0  0  0
    8.0254  -16.2775   22.6431 C   0  0  0  0  0  0  0  0  0  0  0  0
    8.6447  -16.2739   23.9792 C   0  0  0  0  0  0  0  0  0  0  0  0
    9.9083  -16.0080   24.0811 O   0  0  0  0  0  0  0  0  0  0  0  0
    8.0060  -16.5343   25.2066 N   0  0  0  0  0  0  0  0  0  0  0  0
    8.6814  -16.5158   26.4859 C   0  0  1  0  0  0  0  0  0  0  0  0
    7.7789  -15.7962   27.4558 C   0  0  0  0  0  0  0  0  0  0  0  0
    7.3559  -14.4585   27.0406 C   0  0  0  0  0  0  0  0  0  0  0  0
    8.2350  -13.4041   27.1510 C   0  0  0  0  0  0  0  0  0  0  0  0
    7.8616  -12.1239   26.7633 C   0  0  0  0  0  0  0  0  0  0  0  0
    6.5912  -11.9351   26.2662 C   0  0  0  0  0  0  0  0  0  0  0  0
    5.6921  -12.9720   26.1452 C   0  0  0  0  0  0  0  0  0  0  0  0
    6.0937  -14.2221   26.5371 C   0  0  0  0  0  0  0  0  0  0  0  0
    9.0370  -17.8396   27.0067 C   0  0  0  0  0  0  0  0  0  0  0  0
    8.6856  -19.0400   26.4132 O   0  0  0  0  0  0  0  0  0  0  0  0
    9.7056  -17.9326   28.0643 O   0  0  0  0  0  0  0  0  0  0  0  0
  2  1  1  0
  3  2  1  0
  3  5  1  0
  3  4  1  6
  5  6  1  6
  7  5  1  0
  7  9  1  0
  8  7  2  0
 10  9  1  0
 11 10  1  0
 12 11  2  0
 13 11  1  0
 14 22  1  0
 14 13  1  0
 15 16  1  0
 14 15  1  1
 16 21  2  0
 16 17  1  0
 17 18  2  0
 18 19  1  0
 20 19  2  0
 21 20  1  0
 22 23  1  0
 24 22  2  0
M  END
$$$$
