IGF.pdb
     RDKit          3D

 24 24  0  0  1  0  0  0  0  0999 V2000
    7.4698  -12.0280   19.3856 C   0  0  0  0  0  0  0  0  0  0  0  0
    7.4496  -13.5367   19.4983 C   0  0  0  0  0  0  0  0  0  0  0  0
    7.9263  -14.0022   20.8628 C   0  0  2  0  0  0  0  0  0  0  0  0
    9.3455  -13.5893   21.0477 C   0  0  0  0  0  0  0  0  0  0  0  0
    7.6916  -15.4976   20.8926 C   0  0  2  0  0  0  0  0  0  0  0  0
    6.2758  -15.6560   20.4971 N   0  0  0  0  0  0  0  0  0  0  0  0
    7.7797  -16.0817   22.2491 C   0  0  0  0  0  0  0  0  0  0  0  0
    6.8866  -15.9439   23.1166 O   0  0  0  0  0  0  0  0  0  0  0  0
    8.9391  -16.8561   22.6252 N   0  0  0  0  0  0  0  0  0  0  0  0
    9.0172  -17.4404   23.9376 C   0  0  0  0  0  0  0  0  0  0  0  0
    9.5481  -16.5013   24.9401 C   0  0  0  0  0  0  0  0  0  0  0  0
   10.4802  -15.6736   24.5883 O   0  0  0  0  0  0  0  0  0  0  0  0
    9.1506  -16.3893   26.2860 N   0  0  0  0  0  0  0  0  0  0  0  0
    9.8826  -15.6375   27.2821 C   0  0  1  0  0  0  0  0  0  0  0  0
    8.8822  -14.7845   28.0204 C   0  0  0  0  0  0  0  0  0  0  0  0
    8.1737  -13.8017   27.2003 C   0  0  0  0  0  0  0  0  0  0  0  0
    6.9459  -14.1229   26.6655 C   0  0  0  0  0  0  0  0  0  0  0  0
    6.2497  -13.2096   25.8846 C   0  0  0  0  0  0  0  0  0  0  0  0
    6.8175  -11.9754   25.6584 C   0  0  0  0  0  0  0  0  0  0  0  0
    8.0439  -11.6281   26.1811 C   0  0  0  0  0  0  0  0  0  0  0  0
    8.7033  -12.5535   26.9471 C   0  0  0  0  0  0  0  0  0  0  0  0
   10.6469  -16.4591   28.2260 C   0  0  0  0  0  0  0  0  0  0  0  0
   10.6408  -17.8432   28.2499 O   0  0  0  0  0  0  0  0  0  0  0  0
   11.3685  -15.9048   29.0899 O   0  0  0  0  0  0  0  0  0  0  0  0
  2  1  1  0
  3  2  1  0
  3  5  1  0
  3  4  1  6
  5  6  1  1
  7  5  1  0
  7  9  1  0
  8  7  2  0
 10  9  1  0
 11 10  1  0
 12 11  2  0
 13 11  1  0
 14 22  1  0
 14 13  1  0
 15 16  1  0
 14 15  1  1
 16 21  2  0
 16 17  1  0
 17 18  2  0
 18 19  1  0
 20 19  2  0
 21 20  1  0
 22 23  1  0
 24 22  2  0
M  END
$$$$
