IGF.pdb
     RDKit          3D

 24 24  0  0  1  0  0  0  0  0999 V2000
    7.8071  -12.1172   19.2184 C   0  0  0  0  0  0  0  0  0  0  0  0
    7.5821  -13.6105   19.3138 C   0  0  0  0  0  0  0  0  0  0  0  0
    8.0412  -14.1609   20.6526 C   0  0  2  0  0  0  0  0  0  0  0  0
    9.5141  -13.9754   20.7740 C   0  0  0  0  0  0  0  0  0  0  0  0
    7.5784  -15.6021   20.6854 C   0  0  2  0  0  0  0  0  0  0  0  0
    6.1591  -15.5425   20.2758 N   0  0  0  0  0  0  0  0  0  0  0  0
    7.5622  -16.1856   22.0449 C   0  0  0  0  0  0  0  0  0  0  0  0
    6.7669  -15.8199   22.9409 O   0  0  0  0  0  0  0  0  0  0  0  0
    8.4958  -17.2320   22.3900 N   0  0  0  0  0  0  0  0  0  0  0  0
    8.5728  -17.7068   23.7459 C   0  0  0  0  0  0  0  0  0  0  0  0
    9.4801  -16.8953   24.5747 C   0  0  0  0  0  0  0  0  0  0  0  0
   10.6356  -16.5623   24.0933 O   0  0  0  0  0  0  0  0  0  0  0  0
    9.2351  -16.4190   25.8767 N   0  0  0  0  0  0  0  0  0  0  0  0
   10.2256  -15.7442   26.6872 C   0  0  1  0  0  0  0  0  0  0  0  0
   10.0433  -14.2631   26.4719 C   0  0  0  0  0  0  0  0  0  0  0  0
    8.7119  -13.7452   26.7875 C   0  0  0  0  0  0  0  0  0  0  0  0
    8.5645  -12.8250   27.8015 C   0  0  0  0  0  0  0  0  0  0  0  0
    7.3132  -12.3150   28.1222 C   0  0  0  0  0  0  0  0  0  0  0  0
    6.2241  -12.7523   27.4015 C   0  0  0  0  0  0  0  0  0  0  0  0
    6.3432  -13.6718   26.3826 C   0  0  0  0  0  0  0  0  0  0  0  0
    7.5926  -14.1542   26.0927 C   0  0  0  0  0  0  0  0  0  0  0  0
   10.1631  -16.0629   28.1171 C   0  0  0  0  0  0  0  0  0  0  0  0
    9.2515  -16.9323   28.6913 O   0  0  0  0  0  0  0  0  0  0  0  0
   10.9761  -15.5284   28.9093 O   0  0  0  0  0  0  0  0  0  0  0  0
  2  1  1  0
  3  2  1  0
  3  5  1  0
  3  4  1  6
  5  6  1  1
  7  5  1  0
  7  9  1  0
  8  7  2  0
 10  9  1  0
 11 10  1  0
 12 11  2  0
 13 11  1  0
 14 22  1  0
 14 13  1  0
 15 16  1  0
 14 15  1  1
 16 21  2  0
 16 17  1  0
 17 18  2  0
 18 19  1  0
 20 19  2  0
 21 20  1  0
 22 23  1  0
 24 22  2  0
M  END
$$$$
