IGF.pdb
     RDKit          3D

 24 24  0  0  1  0  0  0  0  0999 V2000
    7.1938  -11.8462   19.6889 C   0  0  0  0  0  0  0  0  0  0  0  0
    7.4274  -13.3391   19.6105 C   0  0  0  0  0  0  0  0  0  0  0  0
    7.7450  -13.9280   20.9736 C   0  0  2  0  0  0  0  0  0  0  0  0
    9.0142  -13.3316   21.4759 C   0  0  0  0  0  0  0  0  0  0  0  0
    7.7841  -15.4284   20.7747 C   0  0  2  0  0  0  0  0  0  0  0  0
    6.4969  -15.7468   20.1209 N   0  0  0  0  0  0  0  0  0  0  0  0
    7.7711  -16.1920   22.0419 C   0  0  0  0  0  0  0  0  0  0  0  0
    6.7577  -16.2985   22.7703 O   0  0  0  0  0  0  0  0  0  0  0  0
    8.9694  -16.8613   22.4911 N   0  0  0  0  0  0  0  0  0  0  0  0
    8.9991  -17.4882   23.7857 C   0  0  0  0  0  0  0  0  0  0  0  0
    9.5809  -16.6155   24.8194 C   0  0  0  0  0  0  0  0  0  0  0  0
   10.5965  -15.8733   24.5107 O   0  0  0  0  0  0  0  0  0  0  0  0
    9.1510  -16.4845   26.1536 N   0  0  0  0  0  0  0  0  0  0  0  0
    9.9100  -15.8056   27.1814 C   0  0  1  0  0  0  0  0  0  0  0  0
    8.9463  -14.9303   27.9419 C   0  0  0  0  0  0  0  0  0  0  0  0
    8.3040  -13.8776   27.1547 C   0  0  0  0  0  0  0  0  0  0  0  0
    8.9642  -12.6868   26.9472 C   0  0  0  0  0  0  0  0  0  0  0  0
    8.3799  -11.6704   26.2028 C   0  0  0  0  0  0  0  0  0  0  0  0
    7.1245  -11.8827   25.6777 C   0  0  0  0  0  0  0  0  0  0  0  0
    6.4419  -13.0638   25.8700 C   0  0  0  0  0  0  0  0  0  0  0  0
    7.0481  -14.0454   26.6094 C   0  0  0  0  0  0  0  0  0  0  0  0
   10.6238  -16.6970   28.1012 C   0  0  0  0  0  0  0  0  0  0  0  0
   11.5724  -16.2839   29.0211 O   0  0  0  0  0  0  0  0  0  0  0  0
   10.3867  -17.9289   28.0825 O   0  0  0  0  0  0  0  0  0  0  0  0
  2  1  1  0
  3  2  1  0
  3  5  1  0
  3  4  1  6
  5  6  1  6
  7  5  1  0
  7  9  1  0
  8  7  2  0
 10  9  1  0
 11 10  1  0
 12 11  2  0
 13 11  1  0
 14 22  1  0
 14 13  1  0
 15 16  1  0
 14 15  1  1
 16 21  2  0
 16 17  1  0
 17 18  2  0
 18 19  1  0
 20 19  2  0
 21 20  1  0
 22 23  1  0
 24 22  2  0
M  END
$$$$
