IGF.pdb
     RDKit          3D

 24 24  0  0  1  0  0  0  0  0999 V2000
    7.4786  -13.6476   17.8580 C   0  0  0  0  0  0  0  0  0  0  0  0
    6.7000  -13.5014   19.1472 C   0  0  0  0  0  0  0  0  0  0  0  0
    7.6225  -13.3819   20.3474 C   0  0  2  0  0  0  0  0  0  0  0  0
    8.6775  -12.3733   20.0497 C   0  0  0  0  0  0  0  0  0  0  0  0
    8.1384  -14.7807   20.6109 C   0  0  2  0  0  0  0  0  0  0  0  0
    6.9186  -15.6100   20.7118 N   0  0  0  0  0  0  0  0  0  0  0  0
    8.8107  -14.9244   21.9209 C   0  0  0  0  0  0  0  0  0  0  0  0
    8.3734  -14.4144   22.9781 O   0  0  0  0  0  0  0  0  0  0  0  0
   10.0341  -15.6852   22.0222 N   0  0  0  0  0  0  0  0  0  0  0  0
   10.9336  -15.4549   23.1212 C   0  0  0  0  0  0  0  0  0  0  0  0
   10.3654  -15.8813   24.4112 C   0  0  0  0  0  0  0  0  0  0  0  0
   11.1207  -15.8616   25.4633 O   0  0  0  0  0  0  0  0  0  0  0  0
    9.0506  -16.3248   24.6494 N   0  0  0  0  0  0  0  0  0  0  0  0
    8.5649  -16.7455   25.9456 C   0  0  1  0  0  0  0  0  0  0  0  0
    7.1845  -16.1629   26.1147 C   0  0  0  0  0  0  0  0  0  0  0  0
    7.1409  -14.7216   26.3620 C   0  0  0  0  0  0  0  0  0  0  0  0
    6.5473  -13.8919   25.4368 C   0  0  0  0  0  0  0  0  0  0  0  0
    6.4899  -12.5202   25.6456 C   0  0  0  0  0  0  0  0  0  0  0  0
    7.0411  -12.0105   26.8003 C   0  0  0  0  0  0  0  0  0  0  0  0
    7.6408  -12.8175   27.7421 C   0  0  0  0  0  0  0  0  0  0  0  0
    7.6798  -14.1664   27.5040 C   0  0  0  0  0  0  0  0  0  0  0  0
    8.5326  -18.1982   26.1425 C   0  0  0  0  0  0  0  0  0  0  0  0
    8.3134  -18.8238   27.3578 O   0  0  0  0  0  0  0  0  0  0  0  0
    8.7141  -18.9624   25.1640 O   0  0  0  0  0  0  0  0  0  0  0  0
  2  1  1  0
  3  2  1  0
  3  5  1  0
  3  4  1  6
  5  6  1  1
  7  5  1  0
  7  9  1  0
  8  7  2  0
 10  9  1  0
 11 10  1  0
 12 11  2  0
 13 11  1  0
 14 22  1  0
 14 13  1  0
 15 16  1  0
 14 15  1  6
 16 21  2  0
 16 17  1  0
 17 18  2  0
 18 19  1  0
 20 19  2  0
 21 20  1  0
 22 23  1  0
 24 22  2  0
M  END
$$$$
