IGF.pdb
     RDKit          3D

 24 24  0  0  1  0  0  0  0  0999 V2000
    6.0768  -11.8998   27.2296 C   0  0  0  0  0  0  0  0  0  0  0  0
    5.7412  -13.0666   26.3267 C   0  0  0  0  0  0  0  0  0  0  0  0
    6.9724  -13.5910   25.6091 C   0  0  2  0  0  0  0  0  0  0  0  0
    7.6612  -12.4555   24.9346 C   0  0  0  0  0  0  0  0  0  0  0  0
    6.4749  -14.6753   24.6769 C   0  0  2  0  0  0  0  0  0  0  0  0
    6.0643  -15.7744   25.5765 N   0  0  0  0  0  0  0  0  0  0  0  0
    7.5368  -15.2529   23.8238 C   0  0  0  0  0  0  0  0  0  0  0  0
    8.1768  -14.5875   22.9772 O   0  0  0  0  0  0  0  0  0  0  0  0
    7.8789  -16.6504   23.9479 N   0  0  0  0  0  0  0  0  0  0  0  0
    8.8643  -17.2285   23.0734 C   0  0  0  0  0  0  0  0  0  0  0  0
   10.2017  -17.2770   23.6881 C   0  0  0  0  0  0  0  0  0  0  0  0
   11.1821  -17.7851   23.0110 O   0  0  0  0  0  0  0  0  0  0  0  0
   10.5581  -16.8208   24.9714 N   0  0  0  0  0  0  0  0  0  0  0  0
   11.8555  -17.0408   25.5729 C   0  0  1  0  0  0  0  0  0  0  0  0
   12.3013  -15.7270   26.1633 C   0  0  0  0  0  0  0  0  0  0  0  0
   11.3664  -15.1185   27.1100 C   0  0  0  0  0  0  0  0  0  0  0  0
   10.4723  -14.1697   26.6659 C   0  0  0  0  0  0  0  0  0  0  0  0
    9.5723  -13.5762   27.5415 C   0  0  0  0  0  0  0  0  0  0  0  0
    9.5962  -13.9599   28.8639 C   0  0  0  0  0  0  0  0  0  0  0  0
   10.4799  -14.9063   29.3346 C   0  0  0  0  0  0  0  0  0  0  0  0
   11.3540  -15.4715   28.4434 C   0  0  0  0  0  0  0  0  0  0  0  0
   11.8839  -18.0938   26.5929 C   0  0  0  0  0  0  0  0  0  0  0  0
   10.7680  -18.7632   27.0654 O   0  0  0  0  0  0  0  0  0  0  0  0
   12.9787  -18.4399   27.0989 O   0  0  0  0  0  0  0  0  0  0  0  0
  2  1  1  0
  3  2  1  0
  3  5  1  0
  3  4  1  6
  5  6  1  1
  7  5  1  0
  7  9  1  0
  8  7  2  0
 10  9  1  0
 11 10  1  0
 12 11  2  0
 13 11  1  0
 14 22  1  0
 14 13  1  0
 15 16  1  0
 14 15  1  1
 16 21  2  0
 16 17  1  0
 17 18  2  0
 18 19  1  0
 20 19  2  0
 21 20  1  0
 22 23  1  0
 24 22  2  0
M  END
$$$$
