IGF.pdb
     RDKit          3D

 24 24  0  0  1  0  0  0  0  0999 V2000
    7.9918  -11.8292   18.0926 C   0  0  0  0  0  0  0  0  0  0  0  0
    8.6456  -13.1709   18.3411 C   0  0  0  0  0  0  0  0  0  0  0  0
    8.0430  -13.8723   19.5456 C   0  0  2  0  0  0  0  0  0  0  0  0
    8.2112  -13.0061   20.7457 C   0  0  0  0  0  0  0  0  0  0  0  0
    8.7374  -15.2150   19.6299 C   0  0  2  0  0  0  0  0  0  0  0  0
    8.4340  -15.8681   18.3388 N   0  0  0  0  0  0  0  0  0  0  0  0
    8.1651  -16.1115   20.6584 C   0  0  0  0  0  0  0  0  0  0  0  0
    7.2440  -16.9275   20.4240 O   0  0  0  0  0  0  0  0  0  0  0  0
    8.6709  -16.0709   22.0105 N   0  0  0  0  0  0  0  0  0  0  0  0
    7.9943  -16.7970   23.0521 C   0  0  0  0  0  0  0  0  0  0  0  0
    8.6467  -16.6380   24.3627 C   0  0  0  0  0  0  0  0  0  0  0  0
    9.8476  -16.1548   24.4079 O   0  0  0  0  0  0  0  0  0  0  0  0
    8.1032  -16.9597   25.6210 N   0  0  0  0  0  0  0  0  0  0  0  0
    8.7878  -16.7345   26.8755 C   0  0  1  0  0  0  0  0  0  0  0  0
    7.8615  -15.9281   27.7500 C   0  0  0  0  0  0  0  0  0  0  0  0
    7.4867  -14.6167   27.2205 C   0  0  0  0  0  0  0  0  0  0  0  0
    8.3708  -13.5657   27.3225 C   0  0  0  0  0  0  0  0  0  0  0  0
    8.0428  -12.3103   26.8275 C   0  0  0  0  0  0  0  0  0  0  0  0
    6.8120  -12.1426   26.2326 C   0  0  0  0  0  0  0  0  0  0  0  0
    5.9089  -13.1766   26.1175 C   0  0  0  0  0  0  0  0  0  0  0  0
    6.2652  -14.4020   26.6167 C   0  0  0  0  0  0  0  0  0  0  0  0
    9.2079  -17.9565   27.5686 C   0  0  0  0  0  0  0  0  0  0  0  0
   10.1791  -18.0091   28.5538 O   0  0  0  0  0  0  0  0  0  0  0  0
    8.6737  -19.0530   27.2745 O   0  0  0  0  0  0  0  0  0  0  0  0
  2  1  1  0
  3  2  1  0
  3  5  1  0
  3  4  1  1
  5  6  1  6
  7  5  1  0
  7  9  1  0
  8  7  2  0
 10  9  1  0
 11 10  1  0
 12 11  2  0
 13 11  1  0
 14 22  1  0
 14 13  1  0
 15 16  1  0
 14 15  1  1
 16 21  2  0
 16 17  1  0
 17 18  2  0
 18 19  1  0
 20 19  2  0
 21 20  1  0
 22 23  1  0
 24 22  2  0
M  END
$$$$
