IGF.pdb
     RDKit          3D

 24 24  0  0  1  0  0  0  0  0999 V2000
    8.2276  -12.0824   20.8073 C   0  0  0  0  0  0  0  0  0  0  0  0
    7.5891  -13.4542   20.7993 C   0  0  0  0  0  0  0  0  0  0  0  0
    8.1404  -14.3213   19.6812 C   0  0  2  0  0  0  0  0  0  0  0  0
    7.8258  -13.6833   18.3725 C   0  0  0  0  0  0  0  0  0  0  0  0
    7.5280  -15.6912   19.8827 C   0  0  2  0  0  0  0  0  0  0  0  0
    6.0696  -15.4538   19.8299 N   0  0  0  0  0  0  0  0  0  0  0  0
    7.7772  -16.2568   21.2270 C   0  0  0  0  0  0  0  0  0  0  0  0
    7.0150  -16.0710   22.2035 O   0  0  0  0  0  0  0  0  0  0  0  0
    8.9481  -17.0695   21.4599 N   0  0  0  0  0  0  0  0  0  0  0  0
    9.1531  -17.6809   22.7460 C   0  0  0  0  0  0  0  0  0  0  0  0
    9.7739  -16.7601   23.7133 C   0  0  0  0  0  0  0  0  0  0  0  0
   10.8910  -16.1846   23.3993 O   0  0  0  0  0  0  0  0  0  0  0  0
    9.2821  -16.4160   24.9868 N   0  0  0  0  0  0  0  0  0  0  0  0
   10.0750  -15.7665   26.0079 C   0  0  1  0  0  0  0  0  0  0  0  0
    9.8823  -14.2803   25.8434 C   0  0  0  0  0  0  0  0  0  0  0  0
    8.5448  -13.7842   26.1682 C   0  0  0  0  0  0  0  0  0  0  0  0
    8.3676  -12.9864   27.2767 C   0  0  0  0  0  0  0  0  0  0  0  0
    7.1099  -12.4998   27.6086 C   0  0  0  0  0  0  0  0  0  0  0  0
    6.0450  -12.8348   26.8020 C   0  0  0  0  0  0  0  0  0  0  0  0
    6.1941  -13.6309   25.6876 C   0  0  0  0  0  0  0  0  0  0  0  0
    7.4490  -14.0937   25.3895 C   0  0  0  0  0  0  0  0  0  0  0  0
    9.7541  -16.1734   27.3796 C   0  0  0  0  0  0  0  0  0  0  0  0
   10.4517  -15.7689   28.5049 O   0  0  0  0  0  0  0  0  0  0  0  0
    8.7861  -16.9437   27.5893 O   0  0  0  0  0  0  0  0  0  0  0  0
  2  1  1  0
  3  2  1  0
  3  5  1  0
  3  4  1  6
  5  6  1  1
  7  5  1  0
  7  9  1  0
  8  7  2  0
 10  9  1  0
 11 10  1  0
 12 11  2  0
 13 11  1  0
 14 22  1  0
 14 13  1  0
 15 16  1  0
 14 15  1  1
 16 21  2  0
 16 17  1  0
 17 18  2  0
 18 19  1  0
 20 19  2  0
 21 20  1  0
 22 23  1  0
 24 22  2  0
M  END
$$$$
