IGF.pdb
     RDKit          3D

 24 24  0  0  1  0  0  0  0  0999 V2000
    7.3064  -11.9863   21.7498 C   0  0  0  0  0  0  0  0  0  0  0  0
    6.8519  -13.3889   21.4097 C   0  0  0  0  0  0  0  0  0  0  0  0
    7.7549  -14.0336   20.3729 C   0  0  2  0  0  0  0  0  0  0  0  0
    7.7271  -13.2146   19.1290 C   0  0  0  0  0  0  0  0  0  0  0  0
    7.2485  -15.4512   20.2107 C   0  0  2  0  0  0  0  0  0  0  0  0
    5.7815  -15.3073   20.0969 N   0  0  0  0  0  0  0  0  0  0  0  0
    7.4607  -16.2940   21.4080 C   0  0  0  0  0  0  0  0  0  0  0  0
    8.5702  -16.7894   21.7125 O   0  0  0  0  0  0  0  0  0  0  0  0
    6.3552  -16.5793   22.2923 N   0  0  0  0  0  0  0  0  0  0  0  0
    6.5085  -17.5499   23.3431 C   0  0  0  0  0  0  0  0  0  0  0  0
    7.3837  -17.0715   24.4266 C   0  0  0  0  0  0  0  0  0  0  0  0
    7.3764  -17.7005   25.5589 O   0  0  0  0  0  0  0  0  0  0  0  0
    8.2611  -15.9715   24.3797 N   0  0  0  0  0  0  0  0  0  0  0  0
    9.0852  -15.5506   25.4919 C   0  0  1  0  0  0  0  0  0  0  0  0
    8.1607  -15.0006   26.5483 C   0  0  0  0  0  0  0  0  0  0  0  0
    7.5404  -13.7149   26.2275 C   0  0  0  0  0  0  0  0  0  0  0  0
    6.1743  -13.6412   26.0693 C   0  0  0  0  0  0  0  0  0  0  0  0
    5.5580  -12.4342   25.7662 C   0  0  0  0  0  0  0  0  0  0  0  0
    6.3464  -11.3135   25.6277 C   0  0  0  0  0  0  0  0  0  0  0  0
    7.7149  -11.3591   25.7805 C   0  0  0  0  0  0  0  0  0  0  0  0
    8.2900  -12.5665   26.0794 C   0  0  0  0  0  0  0  0  0  0  0  0
    9.9331  -16.6057   26.0558 C   0  0  0  0  0  0  0  0  0  0  0  0
   10.8932  -16.4065   27.0332 O   0  0  0  0  0  0  0  0  0  0  0  0
    9.8110  -17.7859   25.6481 O   0  0  0  0  0  0  0  0  0  0  0  0
  2  1  1  0
  3  2  1  0
  3  5  1  0
  3  4  1  6
  5  6  1  1
  7  5  1  0
  7  9  1  0
  8  7  2  0
 10  9  1  0
 11 10  1  0
 12 11  2  0
 13 11  1  0
 14 22  1  0
 14 13  1  0
 15 16  1  0
 14 15  1  1
 16 21  2  0
 16 17  1  0
 17 18  2  0
 18 19  1  0
 20 19  2  0
 21 20  1  0
 22 23  1  0
 24 22  2  0
M  END
$$$$
