IGF.pdb
     RDKit          3D

 24 24  0  0  1  0  0  0  0  0999 V2000
    7.3924  -12.0445   22.3936 C   0  0  0  0  0  0  0  0  0  0  0  0
    7.6312  -13.5136   22.1213 C   0  0  0  0  0  0  0  0  0  0  0  0
    8.0226  -13.7581   20.6746 C   0  0  2  0  0  0  0  0  0  0  0  0
    6.8469  -13.4857   19.8014 C   0  0  0  0  0  0  0  0  0  0  0  0
    8.5357  -15.1815   20.6221 C   0  0  2  0  0  0  0  0  0  0  0  0
    7.4888  -15.9755   21.2999 N   0  0  0  0  0  0  0  0  0  0  0  0
    9.7609  -15.3969   21.4230 C   0  0  0  0  0  0  0  0  0  0  0  0
   10.8245  -14.7620   21.2372 O   0  0  0  0  0  0  0  0  0  0  0  0
    9.7655  -16.3800   22.4809 N   0  0  0  0  0  0  0  0  0  0  0  0
   10.9898  -16.6848   23.1723 C   0  0  0  0  0  0  0  0  0  0  0  0
   10.8849  -16.4642   24.6245 C   0  0  0  0  0  0  0  0  0  0  0  0
   11.9709  -16.3025   25.3117 O   0  0  0  0  0  0  0  0  0  0  0  0
    9.7023  -16.4053   25.3863 N   0  0  0  0  0  0  0  0  0  0  0  0
    9.6732  -16.4424   26.8323 C   0  0  1  0  0  0  0  0  0  0  0  0
    8.3390  -15.8893   27.2653 C   0  0  0  0  0  0  0  0  0  0  0  0
    8.0576  -14.5222   26.8268 C   0  0  0  0  0  0  0  0  0  0  0  0
    7.2362  -14.3133   25.7413 C   0  0  0  0  0  0  0  0  0  0  0  0
    6.9502  -13.0267   25.3035 C   0  0  0  0  0  0  0  0  0  0  0  0
    7.5082  -11.9657   25.9814 C   0  0  0  0  0  0  0  0  0  0  0  0
    8.3331  -12.1463   27.0699 C   0  0  0  0  0  0  0  0  0  0  0  0
    8.5941  -13.4291   27.4749 C   0  0  0  0  0  0  0  0  0  0  0  0
    9.8862  -17.7722   27.4124 C   0  0  0  0  0  0  0  0  0  0  0  0
    9.9626  -18.9466   26.6833 O   0  0  0  0  0  0  0  0  0  0  0  0
   10.0112  -17.8958   28.6547 O   0  0  0  0  0  0  0  0  0  0  0  0
  2  1  1  0
  3  2  1  0
  3  5  1  0
  3  4  1  6
  5  6  1  1
  7  5  1  0
  7  9  1  0
  8  7  2  0
 10  9  1  0
 11 10  1  0
 12 11  2  0
 13 11  1  0
 14 22  1  0
 14 13  1  0
 15 16  1  0
 14 15  1  6
 16 21  2  0
 16 17  1  0
 17 18  2  0
 18 19  1  0
 20 19  2  0
 21 20  1  0
 22 23  1  0
 24 22  2  0
M  END
$$$$
