VIL.pdb
     RDKit          3D

 24 23  0  0  1  0  0  0  0  0999 V2000
   33.3812  -22.8598  -10.9617 C   0  0  0  0  0  0  0  0  0  0  0  0
   32.3918  -21.8872  -11.5898 C   0  0  2  0  0  0  0  0  0  0  0  0
   32.6658  -20.5151  -11.0153 C   0  0  0  0  0  0  0  0  0  0  0  0
   30.9657  -22.2852  -11.2727 C   0  0  2  0  0  0  0  0  0  0  0  0
   30.7458  -23.6418  -11.7350 N   0  0  0  0  0  0  0  0  0  0  0  0
   29.9797  -21.3613  -11.8366 C   0  0  0  0  0  0  0  0  0  0  0  0
   30.0242  -20.1377  -11.4716 O   0  0  0  0  0  0  0  0  0  0  0  0
   29.7298  -21.3901  -15.9926 C   0  0  0  0  0  0  0  0  0  0  0  0
   28.9224  -20.2553  -15.4103 C   0  0  0  0  0  0  0  0  0  0  0  0
   27.7413  -20.8550  -14.6987 C   0  0  2  0  0  0  0  0  0  0  0  0
   26.5032  -20.0594  -15.0753 C   0  0  0  0  0  0  0  0  0  0  0  0
   27.9176  -20.8065  -13.1862 C   0  0  2  0  0  0  0  0  0  0  0  0
   28.9749  -21.6991  -12.7546 N   0  0  0  0  0  0  0  0  0  0  0  0
   26.6477  -21.0580  -12.4978 C   0  0  0  0  0  0  0  0  0  0  0  0
   26.1045  -22.1857  -12.5609 O   0  0  0  0  0  0  0  0  0  0  0  0
   25.9932  -19.1872   -7.4952 C   0  0  0  0  0  0  0  0  0  0  0  0
   25.9120  -20.2536   -8.6148 C   0  0  1  0  0  0  0  0  0  0  0  0
   25.5361  -21.5343   -7.9183 C   0  0  0  0  0  0  0  0  0  0  0  0
   24.9286  -19.7474   -9.5987 C   0  0  0  0  0  0  0  0  0  0  0  0
   24.8643  -20.3800  -10.9366 C   0  0  2  0  0  0  0  0  0  0  0  0
   25.9858  -20.0614  -11.7438 N   0  0  0  0  0  0  0  0  0  0  0  0
   23.5635  -20.1889  -11.6211 C   0  0  0  0  0  0  0  0  0  0  0  0
   22.4908  -21.0062  -11.2914 O   0  0  0  0  0  0  0  0  0  0  0  0
   23.3568  -19.3158  -12.5029 O   0  0  0  0  0  0  0  0  0  0  0  0
  2  1  1  1
  2  3  1  0
  2  4  1  0
  4  5  1  6
  6  7  2  0
  6  4  1  0
  9 10  1  0
  9  8  1  0
 10 11  1  1
 12 10  1  0
 12 13  1  1
 13  6  1  0
 14 12  1  0
 15 14  2  0
 17 16  1  1
 17 19  1  0
 18 17  1  0
 20 19  1  1
 20 21  1  0
 21 14  1  0
 22 23  1  0
 22 20  1  0
 24 22  2  0
M  END
$$$$
