VIL.pdb
     RDKit          3D

 24 23  0  0  1  0  0  0  0  0999 V2000
   19.9749  -14.4470  -16.9000 C   0  0  0  0  0  0  0  0  0  0  0  0
   18.7797  -13.9274  -17.6880 C   0  0  2  0  0  0  0  0  0  0  0  0
   18.6036  -14.8167  -18.8988 C   0  0  0  0  0  0  0  0  0  0  0  0
   19.0105  -12.5024  -18.1450 C   0  0  2  0  0  0  0  0  0  0  0  0
   19.9991  -12.5065  -19.2057 N   0  0  0  0  0  0  0  0  0  0  0  0
   19.4032  -11.6119  -17.0510 C   0  0  0  0  0  0  0  0  0  0  0  0
   18.5999  -11.4780  -16.0665 O   0  0  0  0  0  0  0  0  0  0  0  0
   24.2165  -11.3334  -14.7728 C   0  0  0  0  0  0  0  0  0  0  0  0
   22.7292  -11.3228  -15.0306 C   0  0  0  0  0  0  0  0  0  0  0  0
   22.3675   -9.9607  -15.5548 C   0  0  2  0  0  0  0  0  0  0  0  0
   22.6175   -8.9440  -14.4542 C   0  0  0  0  0  0  0  0  0  0  0  0
   20.9021   -9.8922  -15.9660 C   0  0  2  0  0  0  0  0  0  0  0  0
   20.5976  -10.8805  -16.9816 N   0  0  0  0  0  0  0  0  0  0  0  0
   20.5293   -8.5326  -16.3690 C   0  0  0  0  0  0  0  0  0  0  0  0
   20.8552   -8.0934  -17.4966 O   0  0  0  0  0  0  0  0  0  0  0  0
   18.7733   -4.8604  -18.7422 C   0  0  0  0  0  0  0  0  0  0  0  0
   17.7106   -5.5065  -17.8198 C   0  0  1  0  0  0  0  0  0  0  0  0
   16.5419   -5.8181  -18.7162 C   0  0  0  0  0  0  0  0  0  0  0  0
   18.3644   -6.6760  -17.1903 C   0  0  0  0  0  0  0  0  0  0  0  0
   19.2427   -6.4592  -16.0173 C   0  0  2  0  0  0  0  0  0  0  0  0
   19.7985   -7.6665  -15.5229 N   0  0  0  0  0  0  0  0  0  0  0  0
   18.6310   -5.6106  -14.9672 C   0  0  0  0  0  0  0  0  0  0  0  0
   18.4777   -4.2491  -15.1915 O   0  0  0  0  0  0  0  0  0  0  0  0
   18.2303   -6.0477  -13.8576 O   0  0  0  0  0  0  0  0  0  0  0  0
  2  1  1  6
  2  3  1  0
  2  4  1  0
  4  5  1  6
  6  7  2  0
  6  4  1  0
  9 10  1  0
  9  8  1  0
 10 11  1  1
 12 10  1  0
 12 13  1  6
 13  6  1  0
 14 12  1  0
 15 14  2  0
 17 16  1  6
 17 19  1  0
 18 17  1  0
 20 19  1  6
 20 21  1  0
 21 14  1  0
 22 23  1  0
 22 20  1  0
 24 22  2  0
M  END
$$$$
