VIL.pdb
     RDKit          3D

 24 23  0  0  1  0  0  0  0  0999 V2000
   24.1406  -13.1514  -19.6761 C   0  0  0  0  0  0  0  0  0  0  0  0
   23.1692  -11.9935  -19.4893 C   0  0  2  0  0  0  0  0  0  0  0  0
   23.8650  -10.9368  -18.6604 C   0  0  0  0  0  0  0  0  0  0  0  0
   21.9170  -12.4479  -18.7694 C   0  0  2  0  0  0  0  0  0  0  0  0
   21.2573  -13.4587  -19.5729 N   0  0  0  0  0  0  0  0  0  0  0  0
   21.0116  -11.3418  -18.4519 C   0  0  0  0  0  0  0  0  0  0  0  0
   20.4724  -10.7085  -19.4218 O   0  0  0  0  0  0  0  0  0  0  0  0
   16.4780  -11.3697  -16.2872 C   0  0  0  0  0  0  0  0  0  0  0  0
   17.6219  -10.8266  -17.1090 C   0  0  0  0  0  0  0  0  0  0  0  0
   18.5699  -10.1349  -16.1689 C   0  0  2  0  0  0  0  0  0  0  0  0
   17.8923   -8.8800  -15.6458 C   0  0  0  0  0  0  0  0  0  0  0  0
   19.8634   -9.7408  -16.8709 C   0  0  2  0  0  0  0  0  0  0  0  0
   20.6754  -10.9056  -17.1624 N   0  0  0  0  0  0  0  0  0  0  0  0
   20.5893   -8.7208  -16.1077 C   0  0  0  0  0  0  0  0  0  0  0  0
   21.0662   -8.9917  -14.9808 O   0  0  0  0  0  0  0  0  0  0  0  0
   24.4849   -4.9403  -16.1694 C   0  0  0  0  0  0  0  0  0  0  0  0
   23.0337   -4.4008  -16.1500 C   0  0  1  0  0  0  0  0  0  0  0  0
   23.0840   -3.0957  -16.8987 C   0  0  0  0  0  0  0  0  0  0  0  0
   22.1913   -5.4556  -16.7576 C   0  0  0  0  0  0  0  0  0  0  0  0
   21.5687   -6.4703  -15.8762 C   0  0  2  0  0  0  0  0  0  0  0  0
   20.7837   -7.4074  -16.5947 N   0  0  0  0  0  0  0  0  0  0  0  0
   20.8770   -5.8903  -14.7005 C   0  0  0  0  0  0  0  0  0  0  0  0
   21.5465   -5.8035  -13.4873 O   0  0  0  0  0  0  0  0  0  0  0  0
   19.6951   -5.4597  -14.7242 O   0  0  0  0  0  0  0  0  0  0  0  0
  2  1  1  1
  2  3  1  0
  2  4  1  0
  4  5  1  6
  6  7  2  0
  6  4  1  0
  9 10  1  0
  9  8  1  0
 10 11  1  6
 12 10  1  0
 12 13  1  1
 13  6  1  0
 14 12  1  0
 15 14  2  0
 17 16  1  6
 17 19  1  0
 18 17  1  0
 20 19  1  6
 20 21  1  0
 21 14  1  0
 22 23  1  0
 22 20  1  0
 24 22  2  0
M  END
$$$$
