VIL.pdb
     RDKit          3D

 24 23  0  0  1  0  0  0  0  0999 V2000
   18.6215  -13.0687  -20.5458 C   0  0  0  0  0  0  0  0  0  0  0  0
   18.6405  -12.0249  -19.4370 C   0  0  2  0  0  0  0  0  0  0  0  0
   19.1050  -10.7184  -20.0412 C   0  0  0  0  0  0  0  0  0  0  0  0
   19.5911  -12.4284  -18.3296 C   0  0  2  0  0  0  0  0  0  0  0  0
   19.1369  -13.6809  -17.7576 N   0  0  0  0  0  0  0  0  0  0  0  0
   19.7394  -11.3943  -17.3037 C   0  0  0  0  0  0  0  0  0  0  0  0
   18.7572  -11.1855  -16.5137 O   0  0  0  0  0  0  0  0  0  0  0  0
   24.0473  -10.9303  -14.3046 C   0  0  0  0  0  0  0  0  0  0  0  0
   22.6170  -10.9284  -14.7875 C   0  0  0  0  0  0  0  0  0  0  0  0
   22.3530   -9.5920  -15.4242 C   0  0  2  0  0  0  0  0  0  0  0  0
   22.3897   -8.5305  -14.3382 C   0  0  0  0  0  0  0  0  0  0  0  0
   20.9892   -9.5568  -16.1025 C   0  0  2  0  0  0  0  0  0  0  0  0
   20.8767  -10.5987  -17.1038 N   0  0  0  0  0  0  0  0  0  0  0  0
   20.6996   -8.2230  -16.6378 C   0  0  0  0  0  0  0  0  0  0  0  0
   21.0864   -7.9026  -17.7861 O   0  0  0  0  0  0  0  0  0  0  0  0
   18.0513   -5.5472  -19.9645 C   0  0  0  0  0  0  0  0  0  0  0  0
   18.5513   -5.0216  -18.5966 C   0  0  1  0  0  0  0  0  0  0  0  0
   17.4109   -4.2110  -18.0405 C   0  0  0  0  0  0  0  0  0  0  0  0
   18.9326   -6.2152  -17.8084 C   0  0  0  0  0  0  0  0  0  0  0  0
   19.5921   -6.0250  -16.4957 C   0  0  2  0  0  0  0  0  0  0  0  0
   19.9840   -7.2511  -15.9007 N   0  0  0  0  0  0  0  0  0  0  0  0
   18.8445   -5.1304  -15.5804 C   0  0  0  0  0  0  0  0  0  0  0  0
   19.0396   -3.7578  -15.6552 O   0  0  0  0  0  0  0  0  0  0  0  0
   18.0241   -5.5369  -14.7176 O   0  0  0  0  0  0  0  0  0  0  0  0
  2  1  1  6
  2  3  1  0
  2  4  1  0
  4  5  1  1
  6  7  2  0
  6  4  1  0
  9 10  1  0
  9  8  1  0
 10 11  1  1
 12 10  1  0
 12 13  1  6
 13  6  1  0
 14 12  1  0
 15 14  2  0
 17 16  1  6
 17 19  1  0
 18 17  1  0
 20 19  1  6
 20 21  1  0
 21 14  1  0
 22 23  1  0
 22 20  1  0
 24 22  2  0
M  END
$$$$
