VIL.pdb
     RDKit          3D

 24 23  0  0  1  0  0  0  0  0999 V2000
   25.7123  -19.2339  -16.4103 C   0  0  0  0  0  0  0  0  0  0  0  0
   27.0691  -18.5442  -16.3571 C   0  0  2  0  0  0  0  0  0  0  0  0
   27.2927  -17.8628  -17.6888 C   0  0  0  0  0  0  0  0  0  0  0  0
   28.1776  -19.5475  -16.1176 C   0  0  2  0  0  0  0  0  0  0  0  0
   28.2809  -20.4144  -17.2754 N   0  0  0  0  0  0  0  0  0  0  0  0
   27.9895  -20.3184  -14.8871 C   0  0  0  0  0  0  0  0  0  0  0  0
   27.2751  -21.3762  -14.9432 O   0  0  0  0  0  0  0  0  0  0  0  0
   31.6354  -21.2177  -11.0110 C   0  0  0  0  0  0  0  0  0  0  0  0
   30.4804  -21.3980  -11.9662 C   0  0  0  0  0  0  0  0  0  0  0  0
   29.3010  -20.6570  -11.3998 C   0  0  2  0  0  0  0  0  0  0  0  0
   28.8536  -21.3683  -10.1343 C   0  0  0  0  0  0  0  0  0  0  0  0
   28.1384  -20.6231  -12.3838 C   0  0  2  0  0  0  0  0  0  0  0  0
   28.5289  -19.9995  -13.6326 N   0  0  0  0  0  0  0  0  0  0  0  0
   26.9560  -19.9974  -11.7836 C   0  0  0  0  0  0  0  0  0  0  0  0
   26.5692  -18.8701  -12.1713 O   0  0  0  0  0  0  0  0  0  0  0  0
   22.4743  -19.0182  -12.3562 C   0  0  0  0  0  0  0  0  0  0  0  0
   22.6729  -20.5311  -12.0933 C   0  0  1  0  0  0  0  0  0  0  0  0
   21.9989  -21.2273  -13.2456 C   0  0  0  0  0  0  0  0  0  0  0  0
   24.1336  -20.7441  -11.9824 C   0  0  0  0  0  0  0  0  0  0  0  0
   24.7998  -20.4733  -10.6873 C   0  0  2  0  0  0  0  0  0  0  0  0
   26.2083  -20.6215  -10.7582 N   0  0  0  0  0  0  0  0  0  0  0  0
   24.1825  -21.1846   -9.5427 C   0  0  0  0  0  0  0  0  0  0  0  0
   23.1848  -20.5595   -8.8068 O   0  0  0  0  0  0  0  0  0  0  0  0
   24.5067  -22.3450   -9.1808 O   0  0  0  0  0  0  0  0  0  0  0  0
  2  1  1  6
  2  3  1  0
  2  4  1  0
  4  5  1  6
  6  7  2  0
  6  4  1  0
  9 10  1  0
  9  8  1  0
 10 11  1  1
 12 10  1  0
 12 13  1  6
 13  6  1  0
 14 12  1  0
 15 14  2  0
 17 16  1  6
 17 19  1  0
 18 17  1  0
 20 19  1  6
 20 21  1  0
 21 14  1  0
 22 23  1  0
 22 20  1  0
 24 22  2  0
M  END
$$$$
