VIL.pdb
     RDKit          3D

 24 23  0  0  1  0  0  0  0  0999 V2000
   26.7828  -17.4695  -18.1377 C   0  0  0  0  0  0  0  0  0  0  0  0
   25.6179  -18.4392  -17.9895 C   0  0  2  0  0  0  0  0  0  0  0  0
   24.4337  -17.8537  -18.7262 C   0  0  0  0  0  0  0  0  0  0  0  0
   25.2541  -18.6300  -16.5321 C   0  0  2  0  0  0  0  0  0  0  0  0
   26.4721  -18.8135  -15.7670 N   0  0  0  0  0  0  0  0  0  0  0  0
   24.3178  -19.7356  -16.3207 C   0  0  0  0  0  0  0  0  0  0  0  0
   23.2131  -19.7194  -16.9625 O   0  0  0  0  0  0  0  0  0  0  0  0
   25.5544  -25.0074  -15.7902 C   0  0  0  0  0  0  0  0  0  0  0  0
   24.9085  -23.6894  -16.1431 C   0  0  0  0  0  0  0  0  0  0  0  0
   24.1848  -23.1951  -14.9212 C   0  0  2  0  0  0  0  0  0  0  0  0
   23.1071  -24.2044  -14.5642 C   0  0  0  0  0  0  0  0  0  0  0  0
   23.5305  -21.8419  -15.1696 C   0  0  2  0  0  0  0  0  0  0  0  0
   24.5232  -20.8281  -15.4660 N   0  0  0  0  0  0  0  0  0  0  0  0
   22.6529  -21.4670  -14.0564 C   0  0  0  0  0  0  0  0  0  0  0  0
   23.1192  -21.3222  -12.9022 O   0  0  0  0  0  0  0  0  0  0  0  0
   19.2959  -17.3048  -13.6211 C   0  0  0  0  0  0  0  0  0  0  0  0
   20.3692  -18.3862  -13.3450 C   0  0  1  0  0  0  0  0  0  0  0  0
   21.0040  -17.9924  -12.0380 C   0  0  0  0  0  0  0  0  0  0  0  0
   19.6587  -19.6849  -13.3462 C   0  0  0  0  0  0  0  0  0  0  0  0
   20.4362  -20.9259  -13.1233 C   0  0  2  0  0  0  0  0  0  0  0  0
   21.2651  -21.2545  -14.2259 N   0  0  0  0  0  0  0  0  0  0  0  0
   19.6159  -22.0600  -12.6354 C   0  0  0  0  0  0  0  0  0  0  0  0
   19.0851  -22.0183  -11.3532 O   0  0  0  0  0  0  0  0  0  0  0  0
   19.3595  -23.0849  -13.3185 O   0  0  0  0  0  0  0  0  0  0  0  0
  2  1  1  1
  2  3  1  0
  2  4  1  0
  4  5  1  1
  6  7  2  0
  6  4  1  0
  9 10  1  0
  9  8  1  0
 10 11  1  6
 12 10  1  0
 12 13  1  1
 13  6  1  0
 14 12  1  0
 15 14  2  0
 17 16  1  1
 17 19  1  0
 18 17  1  0
 20 19  1  6
 20 21  1  0
 21 14  1  0
 22 23  1  0
 22 20  1  0
 24 22  2  0
M  END
$$$$
