VIL.pdb
     RDKit          3D

 24 23  0  0  1  0  0  0  0  0999 V2000
   22.8769  -12.8470  -18.6225 C   0  0  0  0  0  0  0  0  0  0  0  0
   21.9180  -11.6890  -18.3801 C   0  0  2  0  0  0  0  0  0  0  0  0
   22.6257  -10.6797  -17.5036 C   0  0  0  0  0  0  0  0  0  0  0  0
   20.6618  -12.1635  -17.6804 C   0  0  2  0  0  0  0  0  0  0  0  0
   20.0481  -13.2065  -18.4791 N   0  0  0  0  0  0  0  0  0  0  0  0
   19.7201  -11.0765  -17.4052 C   0  0  0  0  0  0  0  0  0  0  0  0
   19.3362  -10.3509  -18.3842 O   0  0  0  0  0  0  0  0  0  0  0  0
   15.2995  -11.9099  -16.0862 C   0  0  0  0  0  0  0  0  0  0  0  0
   16.2162  -10.8543  -16.6557 C   0  0  0  0  0  0  0  0  0  0  0  0
   16.8980  -10.1726  -15.5019 C   0  0  2  0  0  0  0  0  0  0  0  0
   16.0390   -8.9977  -15.0667 C   0  0  0  0  0  0  0  0  0  0  0  0
   18.2768   -9.6568  -15.8944 C   0  0  2  0  0  0  0  0  0  0  0  0
   19.1918  -10.7521  -16.1474 N   0  0  0  0  0  0  0  0  0  0  0  0
   18.7891   -8.7089  -14.9001 C   0  0  0  0  0  0  0  0  0  0  0  0
   19.5427   -9.1015  -13.9788 O   0  0  0  0  0  0  0  0  0  0  0  0
   22.5069   -6.4334  -12.8528 C   0  0  0  0  0  0  0  0  0  0  0  0
   21.5714   -5.5504  -13.7146 C   0  0  1  0  0  0  0  0  0  0  0  0
   22.4869   -4.7363  -14.5896 C   0  0  0  0  0  0  0  0  0  0  0  0
   20.6644   -6.4792  -14.4261 C   0  0  0  0  0  0  0  0  0  0  0  0
   19.2076   -6.3906  -14.1732 C   0  0  2  0  0  0  0  0  0  0  0  0
   18.4654   -7.3326  -14.9300 N   0  0  0  0  0  0  0  0  0  0  0  0
   18.6747   -5.0097  -14.2524 C   0  0  0  0  0  0  0  0  0  0  0  0
   18.7121   -4.1967  -13.1277 O   0  0  0  0  0  0  0  0  0  0  0  0
   18.1778   -4.5086  -15.2939 O   0  0  0  0  0  0  0  0  0  0  0  0
  2  1  1  1
  2  3  1  0
  2  4  1  0
  4  5  1  6
  6  7  2  0
  6  4  1  0
  9 10  1  0
  9  8  1  0
 10 11  1  6
 12 10  1  0
 12 13  1  1
 13  6  1  0
 14 12  1  0
 15 14  2  0
 17 16  1  1
 17 19  1  0
 18 17  1  0
 20 19  1  6
 20 21  1  0
 21 14  1  0
 22 23  1  0
 22 20  1  0
 24 22  2  0
M  END
$$$$
