VIL.pdb
     RDKit          3D

 24 23  0  0  1  0  0  0  0  0999 V2000
   21.3187  -21.2350  -10.2126 C   0  0  0  0  0  0  0  0  0  0  0  0
   21.7895  -20.0522  -11.0484 C   0  0  2  0  0  0  0  0  0  0  0  0
   20.5972  -19.5261  -11.8160 C   0  0  0  0  0  0  0  0  0  0  0  0
   22.8657  -20.4743  -12.0262 C   0  0  2  0  0  0  0  0  0  0  0  0
   22.3124  -21.4624  -12.9318 N   0  0  0  0  0  0  0  0  0  0  0  0
   24.0720  -20.9728  -11.3627 C   0  0  0  0  0  0  0  0  0  0  0  0
   24.1141  -22.2085  -11.0403 O   0  0  0  0  0  0  0  0  0  0  0  0
   28.3908  -20.9005  -13.4811 C   0  0  0  0  0  0  0  0  0  0  0  0
   27.4314  -21.4538  -12.4554 C   0  0  0  0  0  0  0  0  0  0  0  0
   27.6093  -20.6604  -11.1905 C   0  0  2  0  0  0  0  0  0  0  0  0
   28.7702  -21.2564  -10.4129 C   0  0  0  0  0  0  0  0  0  0  0  0
   26.3584  -20.7068  -10.3221 C   0  0  2  0  0  0  0  0  0  0  0  0
   25.2035  -20.2089  -11.0426 N   0  0  0  0  0  0  0  0  0  0  0  0
   26.5735  -20.0136   -9.0482 C   0  0  0  0  0  0  0  0  0  0  0  0
   26.2285  -18.8165   -8.9113 O   0  0  0  0  0  0  0  0  0  0  0  0
   27.9882  -22.0984   -3.6697 C   0  0  0  0  0  0  0  0  0  0  0  0
   27.1765  -21.1263   -4.5607 C   0  0  1  0  0  0  0  0  0  0  0  0
   26.7863  -19.9883   -3.6555 C   0  0  0  0  0  0  0  0  0  0  0  0
   28.0586  -20.7690   -5.6945 C   0  0  0  0  0  0  0  0  0  0  0  0
   27.5222  -19.9095   -6.7751 C   0  0  2  0  0  0  0  0  0  0  0  0
   27.1686  -20.6478   -7.9330 N   0  0  0  0  0  0  0  0  0  0  0  0
   28.3610  -18.7209   -7.0591 C   0  0  0  0  0  0  0  0  0  0  0  0
   28.1956  -17.5701   -6.3003 O   0  0  0  0  0  0  0  0  0  0  0  0
   29.2354  -18.6794   -7.9627 O   0  0  0  0  0  0  0  0  0  0  0  0
  2  1  1  6
  2  3  1  0
  2  4  1  0
  4  5  1  6
  6  7  2  0
  6  4  1  0
  9 10  1  0
  9  8  1  0
 10 11  1  1
 12 10  1  0
 12 13  1  6
 13  6  1  0
 14 12  1  0
 15 14  2  0
 17 16  1  1
 17 19  1  0
 18 17  1  0
 20 19  1  1
 20 21  1  0
 21 14  1  0
 22 23  1  0
 22 20  1  0
 24 22  2  0
M  END
$$$$
