VIL.pdb
     RDKit          3D

 24 23  0  0  1  0  0  0  0  0999 V2000
   14.3780  -15.1932  -13.6621 C   0  0  0  0  0  0  0  0  0  0  0  0
   14.7784  -13.7728  -14.0382 C   0  0  2  0  0  0  0  0  0  0  0  0
   14.4013  -12.8671  -12.8870 C   0  0  0  0  0  0  0  0  0  0  0  0
   14.0540  -13.3189  -15.2880 C   0  0  2  0  0  0  0  0  0  0  0  0
   14.4610  -14.1617  -16.3956 N   0  0  0  0  0  0  0  0  0  0  0  0
   14.2700  -11.9018  -15.5865 C   0  0  0  0  0  0  0  0  0  0  0  0
   15.3501  -11.5707  -16.1834 O   0  0  0  0  0  0  0  0  0  0  0  0
   10.5236   -9.2425  -17.5689 C   0  0  0  0  0  0  0  0  0  0  0  0
   12.0290   -9.2263  -17.4572 C   0  0  0  0  0  0  0  0  0  0  0  0
   12.3778   -8.7688  -16.0679 C   0  0  2  0  0  0  0  0  0  0  0  0
   12.6177   -7.2693  -16.1055 C   0  0  0  0  0  0  0  0  0  0  0  0
   13.6359   -9.4568  -15.5534 C   0  0  2  0  0  0  0  0  0  0  0  0
   13.3884  -10.8573  -15.2736 N   0  0  0  0  0  0  0  0  0  0  0  0
   14.1977   -8.7403  -14.4041 C   0  0  0  0  0  0  0  0  0  0  0  0
   13.5213   -8.5864  -13.3603 O   0  0  0  0  0  0  0  0  0  0  0  0
   18.6062   -9.8192  -11.9747 C   0  0  0  0  0  0  0  0  0  0  0  0
   17.1514   -9.2940  -12.0481 C   0  0  1  0  0  0  0  0  0  0  0  0
   16.6677   -9.2606  -10.6229 C   0  0  0  0  0  0  0  0  0  0  0  0
   17.2182   -7.9832  -12.7326 C   0  0  0  0  0  0  0  0  0  0  0  0
   15.9830   -7.4235  -13.3287 C   0  0  2  0  0  0  0  0  0  0  0  0
   15.5038   -8.1981  -14.4156 N   0  0  0  0  0  0  0  0  0  0  0  0
   16.0709   -5.9735  -13.6231 C   0  0  0  0  0  0  0  0  0  0  0  0
   16.0656   -5.0616  -12.5763 O   0  0  0  0  0  0  0  0  0  0  0  0
   16.1520   -5.4974  -14.7849 O   0  0  0  0  0  0  0  0  0  0  0  0
  2  1  1  1
  2  3  1  0
  2  4  1  0
  4  5  1  6
  6  7  2  0
  6  4  1  0
  9 10  1  0
  9  8  1  0
 10 11  1  6
 12 10  1  0
 12 13  1  1
 13  6  1  0
 14 12  1  0
 15 14  2  0
 17 16  1  1
 17 19  1  0
 18 17  1  0
 20 19  1  6
 20 21  1  0
 21 14  1  0
 22 23  1  0
 22 20  1  0
 24 22  2  0
M  END
$$$$
