VIL.pdb
     RDKit          3D

 24 23  0  0  1  0  0  0  0  0999 V2000
   25.8221  -19.9629  -18.7282 C   0  0  0  0  0  0  0  0  0  0  0  0
   26.1064  -18.8873  -17.6882 C   0  0  2  0  0  0  0  0  0  0  0  0
   27.0381  -17.8741  -18.3152 C   0  0  0  0  0  0  0  0  0  0  0  0
   26.7671  -19.4808  -16.4618 C   0  0  2  0  0  0  0  0  0  0  0  0
   27.8262  -20.3745  -16.8885 N   0  0  0  0  0  0  0  0  0  0  0  0
   25.8177  -20.1598  -15.5779 C   0  0  0  0  0  0  0  0  0  0  0  0
   25.0460  -21.0414  -16.0876 O   0  0  0  0  0  0  0  0  0  0  0  0
   26.8841  -21.2549  -10.3554 C   0  0  0  0  0  0  0  0  0  0  0  0
   26.4026  -21.4046  -11.7783 C   0  0  0  0  0  0  0  0  0  0  0  0
   25.1279  -20.6185  -11.9128 C   0  0  2  0  0  0  0  0  0  0  0  0
   24.0537  -21.3065  -11.0880 C   0  0  0  0  0  0  0  0  0  0  0  0
   24.6665  -20.5477  -13.3631 C   0  0  2  0  0  0  0  0  0  0  0  0
   25.6737  -19.9295  -14.2022 N   0  0  0  0  0  0  0  0  0  0  0  0
   23.3594  -19.8921  -13.4703 C   0  0  0  0  0  0  0  0  0  0  0  0
   23.2758  -18.6416  -13.4781 O   0  0  0  0  0  0  0  0  0  0  0  0
   20.3521  -17.9826  -17.1736 C   0  0  0  0  0  0  0  0  0  0  0  0
   19.8819  -18.6430  -15.8545 C   0  0  1  0  0  0  0  0  0  0  0  0
   18.7291  -19.5302  -16.2422 C   0  0  0  0  0  0  0  0  0  0  0  0
   21.0636  -19.3368  -15.2943 C   0  0  0  0  0  0  0  0  0  0  0  0
   20.9476  -19.9927  -13.9712 C   0  0  2  0  0  0  0  0  0  0  0  0
   22.1525  -20.6226  -13.5685 N   0  0  0  0  0  0  0  0  0  0  0  0
   19.7506  -20.8570  -13.8406 C   0  0  0  0  0  0  0  0  0  0  0  0
   18.5584  -20.3099  -13.3857 O   0  0  0  0  0  0  0  0  0  0  0  0
   19.7374  -22.0836  -14.1200 O   0  0  0  0  0  0  0  0  0  0  0  0
  2  1  1  6
  2  3  1  0
  2  4  1  0
  4  5  1  6
  6  7  2  0
  6  4  1  0
  9 10  1  0
  9  8  1  0
 10 11  1  1
 12 10  1  0
 12 13  1  6
 13  6  1  0
 14 12  1  0
 15 14  2  0
 17 16  1  6
 17 19  1  0
 18 17  1  0
 20 19  1  6
 20 21  1  0
 21 14  1  0
 22 23  1  0
 22 20  1  0
 24 22  2  0
M  END
$$$$
