PIL.pdb
     RDKit          3D

 24 24  0  0  1  0  0  0  0  0999 V2000
    6.5043  -18.6054   20.7562 N   0  0  0  0  0  0  0  0  0  0  0  0
    5.9392  -19.6184   19.8858 C   0  0  0  0  0  0  0  0  0  0  0  0
    6.8590  -19.7452   18.7113 C   0  0  0  0  0  0  0  0  0  0  0  0
    7.9171  -18.6935   18.9470 C   0  0  0  0  0  0  0  0  0  0  0  0
    7.9126  -18.5642   20.4469 C   0  0  1  0  0  0  0  0  0  0  0  0
    8.5919  -17.3680   20.9466 C   0  0  0  0  0  0  0  0  0  0  0  0
    9.8495  -17.3579   20.9409 O   0  0  0  0  0  0  0  0  0  0  0  0
    6.8776  -12.7124   19.3786 C   0  0  0  0  0  0  0  0  0  0  0  0
    7.7653  -13.8234   19.8607 C   0  0  0  0  0  0  0  0  0  0  0  0
    7.8695  -13.8019   21.3960 C   0  0  2  0  0  0  0  0  0  0  0  0
    8.5036  -12.4918   21.7467 C   0  0  0  0  0  0  0  0  0  0  0  0
    8.6399  -15.0191   21.8483 C   0  0  2  0  0  0  0  0  0  0  0  0
    7.8948  -16.2309   21.4323 N   0  0  0  0  0  0  0  0  0  0  0  0
    8.8136  -15.0675   23.3198 C   0  0  0  0  0  0  0  0  0  0  0  0
    9.9455  -14.8372   23.8608 O   0  0  0  0  0  0  0  0  0  0  0  0
    8.1187  -12.4869   26.7302 C   0  0  0  0  0  0  0  0  0  0  0  0
    6.9660  -13.0873   25.9335 C   0  0  2  0  0  0  0  0  0  0  0  0
    5.7038  -12.3944   26.3862 C   0  0  0  0  0  0  0  0  0  0  0  0
    6.8823  -14.5427   26.2695 C   0  0  0  0  0  0  0  0  0  0  0  0
    8.0068  -15.3635   25.6841 C   0  0  2  0  0  0  0  0  0  0  0  0
    7.7770  -15.3602   24.2312 N   0  0  0  0  0  0  0  0  0  0  0  0
    7.9937  -16.7708   26.1360 C   0  0  0  0  0  0  0  0  0  0  0  0
    8.5899  -17.1810   27.3274 O   0  0  0  0  0  0  0  0  0  0  0  0
    7.4402  -17.6798   25.4652 O   0  0  0  0  0  0  0  0  0  0  0  0
  1  5  1  0
  2  1  1  0
  2  3  1  0
  3  4  1  0
  4  5  1  0
  5  6  1  6
  6  7  2  0
  8  9  1  0
  9 10  1  0
 10 11  1  6
 10 12  1  0
 12 13  1  1
 12 14  1  0
 13  6  1  0
 14 21  1  0
 15 14  2  0
 17 16  1  1
 17 19  1  0
 18 17  1  0
 20 19  1  1
 20 22  1  0
 21 20  1  0
 22 24  2  0
 22 23  1  0
M  END
$$$$
