PIL.pdb
     RDKit          3D

 24 24  0  0  1  0  0  0  0  0999 V2000
   10.2440  -17.7248   16.4828 N   0  0  0  0  0  0  0  0  0  0  0  0
   10.0274  -18.9198   15.6901 C   0  0  0  0  0  0  0  0  0  0  0  0
    9.4142  -19.9395   16.5988 C   0  0  0  0  0  0  0  0  0  0  0  0
    9.3773  -19.2653   17.9499 C   0  0  0  0  0  0  0  0  0  0  0  0
    9.3109  -17.8077   17.5796 C   0  0  1  0  0  0  0  0  0  0  0  0
    9.6145  -16.8953   18.6830 C   0  0  0  0  0  0  0  0  0  0  0  0
   10.8233  -16.6677   18.9448 O   0  0  0  0  0  0  0  0  0  0  0  0
    6.5098  -12.5622   19.8763 C   0  0  0  0  0  0  0  0  0  0  0  0
    7.7262  -13.4264   19.7084 C   0  0  0  0  0  0  0  0  0  0  0  0
    7.8312  -14.4386   20.8629 C   0  0  2  0  0  0  0  0  0  0  0  0
    7.9702  -13.6248   22.1118 C   0  0  0  0  0  0  0  0  0  0  0  0
    8.9833  -15.3744   20.5859 C   0  0  2  0  0  0  0  0  0  0  0  0
    8.6090  -16.2640   19.4611 N   0  0  0  0  0  0  0  0  0  0  0  0
    9.3188  -16.2243   21.7535 C   0  0  0  0  0  0  0  0  0  0  0  0
    8.5532  -17.1758   22.1215 O   0  0  0  0  0  0  0  0  0  0  0  0
   12.3269  -19.3099   22.5913 C   0  0  0  0  0  0  0  0  0  0  0  0
   12.7614  -17.8517   22.4969 C   0  0  2  0  0  0  0  0  0  0  0  0
   14.2706  -17.8354   22.5100 C   0  0  0  0  0  0  0  0  0  0  0  0
   12.2458  -17.1379   23.7064 C   0  0  0  0  0  0  0  0  0  0  0  0
   10.7490  -16.9364   23.6966 C   0  0  2  0  0  0  0  0  0  0  0  0
   10.4798  -16.0683   22.5400 N   0  0  0  0  0  0  0  0  0  0  0  0
   10.2494  -16.2430   24.9025 C   0  0  0  0  0  0  0  0  0  0  0  0
   10.1094  -16.8845   26.1321 O   0  0  0  0  0  0  0  0  0  0  0  0
    9.9214  -15.0285   24.8837 O   0  0  0  0  0  0  0  0  0  0  0  0
  1  5  1  0
  2  1  1  0
  2  3  1  0
  3  4  1  0
  4  5  1  0
  5  6  1  1
  6  7  2  0
  8  9  1  0
  9 10  1  0
 10 11  1  1
 10 12  1  0
 12 13  1  6
 12 14  1  0
 13  6  1  0
 14 21  1  0
 15 14  2  0
 17 16  1  1
 17 19  1  0
 18 17  1  0
 20 19  1  1
 20 22  1  0
 21 20  1  0
 22 24  2  0
 22 23  1  0
M  END
$$$$
