PIL.pdb
     RDKit          3D

 24 24  0  0  1  0  0  0  0  0999 V2000
    7.9487  -18.6642   22.1437 N   0  0  0  0  0  0  0  0  0  0  0  0
    7.0445  -19.6794   21.6387 C   0  0  0  0  0  0  0  0  0  0  0  0
    5.7705  -18.9838   21.2719 C   0  0  0  0  0  0  0  0  0  0  0  0
    5.9978  -17.5459   21.6745 C   0  0  0  0  0  0  0  0  0  0  0  0
    7.4946  -17.4180   21.5769 C   0  0  1  0  0  0  0  0  0  0  0  0
    8.0388  -16.2337   22.2426 C   0  0  0  0  0  0  0  0  0  0  0  0
    9.0178  -15.6534   21.7073 O   0  0  0  0  0  0  0  0  0  0  0  0
    6.4012  -11.8288   26.2627 C   0  0  0  0  0  0  0  0  0  0  0  0
    7.3997  -12.4223   25.3111 C   0  0  0  0  0  0  0  0  0  0  0  0
    6.8992  -13.7777   24.7814 C   0  0  2  0  0  0  0  0  0  0  0  0
    6.4318  -14.5410   25.9815 C   0  0  0  0  0  0  0  0  0  0  0  0
    8.0135  -14.4383   24.0058 C   0  0  2  0  0  0  0  0  0  0  0  0
    7.5109  -15.7195   23.4559 N   0  0  0  0  0  0  0  0  0  0  0  0
    9.1970  -14.7315   24.8492 C   0  0  0  0  0  0  0  0  0  0  0  0
   10.2116  -13.9586   24.8579 O   0  0  0  0  0  0  0  0  0  0  0  0
   10.9899  -13.6146   27.7771 C   0  0  0  0  0  0  0  0  0  0  0  0
    9.8525  -14.5437   28.1859 C   0  0  2  0  0  0  0  0  0  0  0  0
    9.6769  -14.4020   29.6783 C   0  0  0  0  0  0  0  0  0  0  0  0
   10.2644  -15.9455   27.8645 C   0  0  0  0  0  0  0  0  0  0  0  0
   10.5612  -16.1673   26.4003 C   0  0  2  0  0  0  0  0  0  0  0  0
    9.3081  -15.8544   25.6963 N   0  0  0  0  0  0  0  0  0  0  0  0
   10.9136  -17.5678   26.0857 C   0  0  0  0  0  0  0  0  0  0  0  0
   12.1430  -18.1270   26.4307 O   0  0  0  0  0  0  0  0  0  0  0  0
   10.1176  -18.3354   25.4856 O   0  0  0  0  0  0  0  0  0  0  0  0
  1  5  1  0
  2  1  1  0
  2  3  1  0
  3  4  1  0
  4  5  1  0
  5  6  1  1
  6  7  2  0
  8  9  1  0
  9 10  1  0
 10 11  1  1
 10 12  1  0
 12 13  1  1
 12 14  1  0
 13  6  1  0
 14 21  1  0
 15 14  2  0
 17 16  1  1
 17 19  1  0
 18 17  1  0
 20 19  1  1
 20 22  1  0
 21 20  1  0
 22 24  2  0
 22 23  1  0
M  END
$$$$
