PIL.pdb
     RDKit          3D

 24 24  0  0  1  0  0  0  0  0999 V2000
    7.0792  -15.2789   21.0040 N   0  0  0  0  0  0  0  0  0  0  0  0
    6.5681  -15.0190   19.6720 C   0  0  0  0  0  0  0  0  0  0  0  0
    7.1101  -13.6887   19.2499 C   0  0  0  0  0  0  0  0  0  0  0  0
    7.8828  -13.1990   20.4518 C   0  0  0  0  0  0  0  0  0  0  0  0
    8.2780  -14.4860   21.1255 C   0  0  1  0  0  0  0  0  0  0  0  0
    8.7404  -14.3224   22.5044 C   0  0  0  0  0  0  0  0  0  0  0  0
    9.9427  -14.0035   22.6897 O   0  0  0  0  0  0  0  0  0  0  0  0
    5.7852  -11.8278   26.1393 C   0  0  0  0  0  0  0  0  0  0  0  0
    6.9131  -12.3968   25.3277 C   0  0  0  0  0  0  0  0  0  0  0  0
    7.3293  -13.7736   25.8749 C   0  0  2  0  0  0  0  0  0  0  0  0
    7.7181  -13.5482   27.3030 C   0  0  0  0  0  0  0  0  0  0  0  0
    8.4264  -14.3328   25.0012 C   0  0  2  0  0  0  0  0  0  0  0  0
    7.8943  -14.5076   23.6290 N   0  0  0  0  0  0  0  0  0  0  0  0
    8.9165  -15.6489   25.4764 C   0  0  0  0  0  0  0  0  0  0  0  0
    8.1178  -16.6265   25.6583 O   0  0  0  0  0  0  0  0  0  0  0  0
   11.4483  -18.5617   23.7044 C   0  0  0  0  0  0  0  0  0  0  0  0
   12.1915  -17.3733   24.3038 C   0  0  2  0  0  0  0  0  0  0  0  0
   13.6396  -17.5038   23.8988 C   0  0  0  0  0  0  0  0  0  0  0  0
   12.0814  -17.4644   25.7930 C   0  0  0  0  0  0  0  0  0  0  0  0
   10.6809  -17.2363   26.3103 C   0  0  2  0  0  0  0  0  0  0  0  0
   10.2686  -15.9359   25.7600 N   0  0  0  0  0  0  0  0  0  0  0  0
   10.6156  -17.1396   27.7838 C   0  0  0  0  0  0  0  0  0  0  0  0
   10.5218  -15.9196   28.4515 O   0  0  0  0  0  0  0  0  0  0  0  0
   10.6415  -18.1600   28.5193 O   0  0  0  0  0  0  0  0  0  0  0  0
  1  5  1  0
  2  1  1  0
  2  3  1  0
  3  4  1  0
  4  5  1  0
  5  6  1  1
  6  7  2  0
  8  9  1  0
  9 10  1  0
 10 11  1  1
 10 12  1  0
 12 13  1  6
 12 14  1  0
 13  6  1  0
 14 21  1  0
 15 14  2  0
 17 16  1  6
 17 19  1  0
 18 17  1  0
 20 19  1  1
 20 22  1  0
 21 20  1  0
 22 24  2  0
 22 23  1  0
M  END
$$$$
