PIL.pdb
     RDKit          3D

 24 24  0  0  1  0  0  0  0  0999 V2000
    4.9156  -17.8556   21.4217 N   0  0  0  0  0  0  0  0  0  0  0  0
    4.0997  -18.8579   20.7639 C   0  0  0  0  0  0  0  0  0  0  0  0
    4.9896  -19.5790   19.7997 C   0  0  0  0  0  0  0  0  0  0  0  0
    6.3173  -18.8674   19.9091 C   0  0  0  0  0  0  0  0  0  0  0  0
    6.2755  -18.3238   21.3123 C   0  0  1  0  0  0  0  0  0  0  0  0
    7.2784  -17.2932   21.5851 C   0  0  0  0  0  0  0  0  0  0  0  0
    8.4811  -17.6495   21.6749 O   0  0  0  0  0  0  0  0  0  0  0  0
    6.9297  -12.8627   18.9280 C   0  0  0  0  0  0  0  0  0  0  0  0
    7.4884  -14.0280   19.6926 C   0  0  0  0  0  0  0  0  0  0  0  0
    7.6527  -13.6676   21.1797 C   0  0  2  0  0  0  0  0  0  0  0  0
    8.6771  -12.5769   21.2277 C   0  0  0  0  0  0  0  0  0  0  0  0
    8.0212  -14.9160   21.9448 C   0  0  2  0  0  0  0  0  0  0  0  0
    6.9504  -15.9221   21.7507 N   0  0  0  0  0  0  0  0  0  0  0  0
    8.1638  -14.6697   23.3998 C   0  0  0  0  0  0  0  0  0  0  0  0
    8.0017  -13.5047   23.8931 O   0  0  0  0  0  0  0  0  0  0  0  0
    8.3549  -12.5533   26.7066 C   0  0  0  0  0  0  0  0  0  0  0  0
    7.2540  -13.3085   25.9707 C   0  0  2  0  0  0  0  0  0  0  0  0
    5.9360  -12.8293   26.5290 C   0  0  0  0  0  0  0  0  0  0  0  0
    7.4185  -14.7660   26.2655 C   0  0  0  0  0  0  0  0  0  0  0  0
    8.7199  -15.3415   25.7595 C   0  0  2  0  0  0  0  0  0  0  0  0
    8.4785  -15.6683   24.3457 N   0  0  0  0  0  0  0  0  0  0  0  0
    9.1080  -16.5907   26.4476 C   0  0  0  0  0  0  0  0  0  0  0  0
    9.7038  -16.5983   27.7077 O   0  0  0  0  0  0  0  0  0  0  0  0
    8.9202  -17.7217   25.9294 O   0  0  0  0  0  0  0  0  0  0  0  0
  1  5  1  0
  2  1  1  0
  2  3  1  0
  3  4  1  0
  4  5  1  0
  5  6  1  6
  6  7  2  0
  8  9  1  0
  9 10  1  0
 10 11  1  6
 10 12  1  0
 12 13  1  1
 12 14  1  0
 13  6  1  0
 14 21  1  0
 15 14  2  0
 17 16  1  1
 17 19  1  0
 18 17  1  0
 20 19  1  1
 20 22  1  0
 21 20  1  0
 22 24  2  0
 22 23  1  0
M  END
$$$$
