PIL.pdb
     RDKit          3D

 24 24  0  0  1  0  0  0  0  0999 V2000
    6.9394  -15.5198   21.1880 N   0  0  0  0  0  0  0  0  0  0  0  0
    6.4312  -15.2731   19.8523 C   0  0  0  0  0  0  0  0  0  0  0  0
    7.1140  -14.0399   19.3479 C   0  0  0  0  0  0  0  0  0  0  0  0
    7.9660  -13.5808   20.5075 C   0  0  0  0  0  0  0  0  0  0  0  0
    8.2246  -14.8675   21.2450 C   0  0  1  0  0  0  0  0  0  0  0  0
    8.7347  -14.6859   22.6047 C   0  0  0  0  0  0  0  0  0  0  0  0
    9.9540  -14.4121   22.7459 O   0  0  0  0  0  0  0  0  0  0  0  0
    6.0610  -11.8007   26.0118 C   0  0  0  0  0  0  0  0  0  0  0  0
    7.1429  -12.5214   25.2603 C   0  0  0  0  0  0  0  0  0  0  0  0
    7.4824  -13.8541   25.9511 C   0  0  2  0  0  0  0  0  0  0  0  0
    7.9554  -13.4959   27.3257 C   0  0  0  0  0  0  0  0  0  0  0  0
    8.4916  -14.5957   25.1078 C   0  0  2  0  0  0  0  0  0  0  0  0
    7.9161  -14.8055   23.7583 N   0  0  0  0  0  0  0  0  0  0  0  0
    8.8388  -15.9221   25.6719 C   0  0  0  0  0  0  0  0  0  0  0  0
    7.9462  -16.8111   25.8710 O   0  0  0  0  0  0  0  0  0  0  0  0
   11.0493  -19.0864   23.9635 C   0  0  0  0  0  0  0  0  0  0  0  0
   11.8930  -17.9545   24.5386 C   0  0  2  0  0  0  0  0  0  0  0  0
   13.3207  -18.2056   24.1177 C   0  0  0  0  0  0  0  0  0  0  0  0
   11.7956  -18.0190   26.0301 C   0  0  0  0  0  0  0  0  0  0  0  0
   10.4299  -17.6552   26.5625 C   0  0  2  0  0  0  0  0  0  0  0  0
   10.1467  -16.3147   26.0271 N   0  0  0  0  0  0  0  0  0  0  0  0
   10.3873  -17.5662   28.0373 C   0  0  0  0  0  0  0  0  0  0  0  0
   10.3559  -18.6941   28.8557 O   0  0  0  0  0  0  0  0  0  0  0  0
   10.3770  -16.4603   28.6370 O   0  0  0  0  0  0  0  0  0  0  0  0
  1  5  1  0
  2  1  1  0
  2  3  1  0
  3  4  1  0
  4  5  1  0
  5  6  1  1
  6  7  2  0
  8  9  1  0
  9 10  1  0
 10 11  1  1
 10 12  1  0
 12 13  1  6
 12 14  1  0
 13  6  1  0
 14 21  1  0
 15 14  2  0
 17 16  1  6
 17 19  1  0
 18 17  1  0
 20 19  1  1
 20 22  1  0
 21 20  1  0
 22 24  2  0
 22 23  1  0
M  END
$$$$
