PIL.pdb
     RDKit          3D

 24 24  0  0  1  0  0  0  0  0999 V2000
    8.0966  -15.2931   20.2703 N   0  0  0  0  0  0  0  0  0  0  0  0
    7.4998  -16.1053   19.2276 C   0  0  0  0  0  0  0  0  0  0  0  0
    6.8858  -17.2939   19.8997 C   0  0  0  0  0  0  0  0  0  0  0  0
    7.2446  -17.1284   21.3575 C   0  0  0  0  0  0  0  0  0  0  0  0
    7.3958  -15.6359   21.4835 C   0  0  1  0  0  0  0  0  0  0  0  0
    8.0807  -15.2045   22.7029 C   0  0  0  0  0  0  0  0  0  0  0  0
    9.3352  -15.1200   22.6765 O   0  0  0  0  0  0  0  0  0  0  0  0
    5.9924  -11.6452   26.2262 C   0  0  0  0  0  0  0  0  0  0  0  0
    6.9437  -12.4450   25.3836 C   0  0  0  0  0  0  0  0  0  0  0  0
    7.2717  -13.7849   26.0660 C   0  0  2  0  0  0  0  0  0  0  0  0
    7.8976  -13.4347   27.3802 C   0  0  0  0  0  0  0  0  0  0  0  0
    8.1483  -14.5983   25.1443 C   0  0  2  0  0  0  0  0  0  0  0  0
    7.3922  -14.8812   23.9014 N   0  0  0  0  0  0  0  0  0  0  0  0
    8.5540  -15.8932   25.7416 C   0  0  0  0  0  0  0  0  0  0  0  0
    7.6871  -16.7571   26.1008 O   0  0  0  0  0  0  0  0  0  0  0  0
   10.4993  -19.3514   24.0667 C   0  0  0  0  0  0  0  0  0  0  0  0
   11.2877  -18.1011   24.4397 C   0  0  2  0  0  0  0  0  0  0  0  0
   12.6485  -18.2255   23.7986 C   0  0  0  0  0  0  0  0  0  0  0  0
   11.4393  -18.0786   25.9279 C   0  0  0  0  0  0  0  0  0  0  0  0
   10.2293  -17.5352   26.6502 C   0  0  2  0  0  0  0  0  0  0  0  0
    9.8931  -16.2809   25.9591 N   0  0  0  0  0  0  0  0  0  0  0  0
   10.4980  -17.2078   28.0663 C   0  0  0  0  0  0  0  0  0  0  0  0
   10.5241  -15.8973   28.5407 O   0  0  0  0  0  0  0  0  0  0  0  0
   10.7190  -18.1002   28.9251 O   0  0  0  0  0  0  0  0  0  0  0  0
  1  5  1  0
  2  1  1  0
  2  3  1  0
  3  4  1  0
  4  5  1  0
  5  6  1  1
  6  7  2  0
  8  9  1  0
  9 10  1  0
 10 11  1  1
 10 12  1  0
 12 13  1  6
 12 14  1  0
 13  6  1  0
 14 21  1  0
 15 14  2  0
 17 16  1  1
 17 19  1  0
 18 17  1  0
 20 19  1  6
 20 22  1  0
 21 20  1  0
 22 24  2  0
 22 23  1  0
M  END
$$$$
