PIL.pdb
     RDKit          3D

 24 24  0  0  1  0  0  0  0  0999 V2000
    8.3216  -15.1521   19.5090 N   0  0  0  0  0  0  0  0  0  0  0  0
    8.2560  -14.4327   18.2515 C   0  0  0  0  0  0  0  0  0  0  0  0
    7.5482  -13.1421   18.5250 C   0  0  0  0  0  0  0  0  0  0  0  0
    7.1617  -13.2268   19.9827 C   0  0  0  0  0  0  0  0  0  0  0  0
    8.2124  -14.1495   20.5403 C   0  0  1  0  0  0  0  0  0  0  0  0
    7.8917  -14.6934   21.8607 C   0  0  0  0  0  0  0  0  0  0  0  0
    7.7563  -13.8853   22.8147 O   0  0  0  0  0  0  0  0  0  0  0  0
    5.6351  -19.8418   24.5035 C   0  0  0  0  0  0  0  0  0  0  0  0
    6.1864  -18.4502   24.6227 C   0  0  0  0  0  0  0  0  0  0  0  0
    6.6834  -17.9488   23.2552 C   0  0  2  0  0  0  0  0  0  0  0  0
    7.6664  -18.9709   22.7749 C   0  0  0  0  0  0  0  0  0  0  0  0
    7.2472  -16.5583   23.4226 C   0  0  2  0  0  0  0  0  0  0  0  0
    7.7292  -16.0824   22.1044 N   0  0  0  0  0  0  0  0  0  0  0  0
    8.3853  -16.5167   24.3718 C   0  0  0  0  0  0  0  0  0  0  0  0
    9.5751  -16.7728   23.9904 O   0  0  0  0  0  0  0  0  0  0  0  0
    9.5711  -13.5919   29.5595 C   0  0  0  0  0  0  0  0  0  0  0  0
   10.1243  -14.6265   28.5861 C   0  0  2  0  0  0  0  0  0  0  0  0
   11.3073  -13.9964   27.8919 C   0  0  0  0  0  0  0  0  0  0  0  0
    9.0595  -14.9278   27.5793 C   0  0  0  0  0  0  0  0  0  0  0  0
    9.4470  -16.0052   26.5944 C   0  0  2  0  0  0  0  0  0  0  0  0
    8.2644  -16.1973   25.7408 N   0  0  0  0  0  0  0  0  0  0  0  0
    9.7478  -17.3003   27.2401 C   0  0  0  0  0  0  0  0  0  0  0  0
    8.7499  -18.1816   27.6531 O   0  0  0  0  0  0  0  0  0  0  0  0
   10.9284  -17.6791   27.4533 O   0  0  0  0  0  0  0  0  0  0  0  0
  1  5  1  0
  2  1  1  0
  2  3  1  0
  3  4  1  0
  4  5  1  0
  5  6  1  1
  6  7  2  0
  8  9  1  0
  9 10  1  0
 10 11  1  1
 10 12  1  0
 12 13  1  6
 12 14  1  0
 13  6  1  0
 14 21  1  0
 15 14  2  0
 17 16  1  1
 17 19  1  0
 18 17  1  0
 20 19  1  1
 20 22  1  0
 21 20  1  0
 22 24  2  0
 22 23  1  0
M  END
$$$$
