PIL.pdb
     RDKit          3D

 24 24  0  0  1  0  0  0  0  0999 V2000
    7.1532  -15.1368   20.5215 N   0  0  0  0  0  0  0  0  0  0  0  0
    6.7739  -14.7568   19.1743 C   0  0  0  0  0  0  0  0  0  0  0  0
    7.4724  -13.4673   18.8730 C   0  0  0  0  0  0  0  0  0  0  0  0
    8.1934  -13.1218   20.1545 C   0  0  0  0  0  0  0  0  0  0  0  0
    8.4098  -14.4758   20.7761 C   0  0  1  0  0  0  0  0  0  0  0  0
    8.7778  -14.4325   22.1919 C   0  0  0  0  0  0  0  0  0  0  0  0
    9.9336  -14.0358   22.4893 O   0  0  0  0  0  0  0  0  0  0  0  0
    5.6274  -11.8380   25.6984 C   0  0  0  0  0  0  0  0  0  0  0  0
    6.8749  -12.4035   25.0830 C   0  0  0  0  0  0  0  0  0  0  0  0
    6.9277  -13.9292   25.2778 C   0  0  2  0  0  0  0  0  0  0  0  0
    6.8284  -14.1590   26.7539 C   0  0  0  0  0  0  0  0  0  0  0  0
    8.1892  -14.4578   24.6385 C   0  0  2  0  0  0  0  0  0  0  0  0
    7.8911  -14.8166   23.2318 N   0  0  0  0  0  0  0  0  0  0  0  0
    8.7096  -15.6662   25.3218 C   0  0  0  0  0  0  0  0  0  0  0  0
    8.5467  -16.8296   24.8250 O   0  0  0  0  0  0  0  0  0  0  0  0
   11.9008  -14.5153   27.8833 C   0  0  0  0  0  0  0  0  0  0  0  0
   10.6514  -14.9678   28.6304 C   0  0  2  0  0  0  0  0  0  0  0  0
   10.8584  -14.6324   30.0875 C   0  0  0  0  0  0  0  0  0  0  0  0
   10.5323  -16.4509   28.4735 C   0  0  0  0  0  0  0  0  0  0  0  0
    9.9578  -16.8733   27.1422 C   0  0  2  0  0  0  0  0  0  0  0  0
    9.4138  -15.6442   26.5443 N   0  0  0  0  0  0  0  0  0  0  0  0
    8.8458  -17.8385   27.2706 C   0  0  0  0  0  0  0  0  0  0  0  0
    9.0561  -19.2041   27.4550 O   0  0  0  0  0  0  0  0  0  0  0  0
    7.6418  -17.4770   27.2198 O   0  0  0  0  0  0  0  0  0  0  0  0
  1  5  1  0
  2  1  1  0
  2  3  1  0
  3  4  1  0
  4  5  1  0
  5  6  1  1
  6  7  2  0
  8  9  1  0
  9 10  1  0
 10 11  1  1
 10 12  1  0
 12 13  1  6
 12 14  1  0
 13  6  1  0
 14 21  1  0
 15 14  2  0
 17 16  1  6
 17 19  1  0
 18 17  1  0
 20 19  1  1
 20 22  1  0
 21 20  1  0
 22 24  2  0
 22 23  1  0
M  END
$$$$
