PIL.pdb
     RDKit          3D

 24 24  0  0  1  0  0  0  0  0999 V2000
    7.3283  -18.6289   18.5853 N   0  0  0  0  0  0  0  0  0  0  0  0
    6.9695  -19.2026   17.3026 C   0  0  0  0  0  0  0  0  0  0  0  0
    7.8827  -18.5951   16.2835 C   0  0  0  0  0  0  0  0  0  0  0  0
    8.7095  -17.6012   17.0645 C   0  0  0  0  0  0  0  0  0  0  0  0
    8.6958  -18.1905   18.4497 C   0  0  1  0  0  0  0  0  0  0  0  0
    9.1255  -17.2644   19.4984 C   0  0  0  0  0  0  0  0  0  0  0  0
   10.3546  -17.1922   19.7545 O   0  0  0  0  0  0  0  0  0  0  0  0
    6.7789  -12.4580   20.0191 C   0  0  0  0  0  0  0  0  0  0  0  0
    7.8288  -13.5314   20.0299 C   0  0  0  0  0  0  0  0  0  0  0  0
    7.7587  -14.3402   21.3372 C   0  0  2  0  0  0  0  0  0  0  0  0
    8.0486  -13.3680   22.4383 C   0  0  0  0  0  0  0  0  0  0  0  0
    8.7234  -15.4980   21.2451 C   0  0  2  0  0  0  0  0  0  0  0  0
    8.2192  -16.4531   20.2302 N   0  0  0  0  0  0  0  0  0  0  0  0
    8.8652  -16.2236   22.5302 C   0  0  0  0  0  0  0  0  0  0  0  0
    7.8694  -16.8048   23.0757 O   0  0  0  0  0  0  0  0  0  0  0  0
   12.5495  -20.2828   24.4108 C   0  0  0  0  0  0  0  0  0  0  0  0
   11.4286  -19.3939   24.9375 C   0  0  2  0  0  0  0  0  0  0  0  0
   10.2146  -20.2715   25.1227 C   0  0  0  0  0  0  0  0  0  0  0  0
   11.1381  -18.3554   23.9006 C   0  0  0  0  0  0  0  0  0  0  0  0
   10.2134  -17.2628   24.3825 C   0  0  2  0  0  0  0  0  0  0  0  0
   10.0755  -16.3389   23.2461 N   0  0  0  0  0  0  0  0  0  0  0  0
   10.7653  -16.4953   25.5188 C   0  0  0  0  0  0  0  0  0  0  0  0
   11.4955  -15.3207   25.3458 O   0  0  0  0  0  0  0  0  0  0  0  0
   10.6046  -16.8637   26.7110 O   0  0  0  0  0  0  0  0  0  0  0  0
  1  5  1  0
  2  1  1  0
  2  3  1  0
  3  4  1  0
  4  5  1  0
  5  6  1  1
  6  7  2  0
  8  9  1  0
  9 10  1  0
 10 11  1  1
 10 12  1  0
 12 13  1  6
 12 14  1  0
 13  6  1  0
 14 21  1  0
 15 14  2  0
 17 16  1  6
 17 19  1  0
 18 17  1  0
 20 19  1  6
 20 22  1  0
 21 20  1  0
 22 24  2  0
 22 23  1  0
M  END
$$$$
