PIL.pdb
     RDKit          3D

 24 24  0  0  1  0  0  0  0  0999 V2000
    6.6146  -18.8427   21.7853 N   0  0  0  0  0  0  0  0  0  0  0  0
    5.6781  -19.7543   21.1568 C   0  0  0  0  0  0  0  0  0  0  0  0
    5.8037  -19.5560   19.6781 C   0  0  0  0  0  0  0  0  0  0  0  0
    6.8033  -18.4331   19.5329 C   0  0  0  0  0  0  0  0  0  0  0  0
    7.6212  -18.5669   20.7897 C   0  0  1  0  0  0  0  0  0  0  0  0
    8.4473  -17.3976   21.0936 C   0  0  0  0  0  0  0  0  0  0  0  0
    9.6853  -17.4805   20.8886 O   0  0  0  0  0  0  0  0  0  0  0  0
    6.9306  -12.7740   19.3135 C   0  0  0  0  0  0  0  0  0  0  0  0
    7.8140  -13.8878   19.7969 C   0  0  0  0  0  0  0  0  0  0  0  0
    8.0371  -13.7779   21.3156 C   0  0  2  0  0  0  0  0  0  0  0  0
    8.7552  -12.4822   21.5330 C   0  0  0  0  0  0  0  0  0  0  0  0
    8.7841  -15.0022   21.7874 C   0  0  2  0  0  0  0  0  0  0  0  0
    7.9120  -16.1866   21.6054 N   0  0  0  0  0  0  0  0  0  0  0  0
    9.1598  -14.9224   23.2193 C   0  0  0  0  0  0  0  0  0  0  0  0
   10.2049  -14.2955   23.5956 O   0  0  0  0  0  0  0  0  0  0  0  0
    8.2134  -12.3344   26.3623 C   0  0  0  0  0  0  0  0  0  0  0  0
    7.1562  -13.2675   25.7830 C   0  0  2  0  0  0  0  0  0  0  0  0
    5.8224  -12.8257   26.3345 C   0  0  0  0  0  0  0  0  0  0  0  0
    7.4557  -14.6544   26.2576 C   0  0  0  0  0  0  0  0  0  0  0  0
    8.7262  -15.2299   25.6781 C   0  0  2  0  0  0  0  0  0  0  0  0
    8.4196  -15.5100   24.2670 N   0  0  0  0  0  0  0  0  0  0  0  0
    9.1267  -16.5043   26.3106 C   0  0  0  0  0  0  0  0  0  0  0  0
    9.6537  -16.5684   27.5995 O   0  0  0  0  0  0  0  0  0  0  0  0
    9.0127  -17.6070   25.7156 O   0  0  0  0  0  0  0  0  0  0  0  0
  1  5  1  0
  2  1  1  0
  2  3  1  0
  3  4  1  0
  4  5  1  0
  5  6  1  1
  6  7  2  0
  8  9  1  0
  9 10  1  0
 10 11  1  6
 10 12  1  0
 12 13  1  1
 12 14  1  0
 13  6  1  0
 14 21  1  0
 15 14  2  0
 17 16  1  1
 17 19  1  0
 18 17  1  0
 20 19  1  1
 20 22  1  0
 21 20  1  0
 22 24  2  0
 22 23  1  0
M  END
$$$$
