PIL.pdb
     RDKit          3D

 24 24  0  0  1  0  0  0  0  0999 V2000
    7.5202  -17.8481   21.8501 N   0  0  0  0  0  0  0  0  0  0  0  0
    6.6924  -18.5320   20.8754 C   0  0  0  0  0  0  0  0  0  0  0  0
    6.1600  -17.4859   19.9461 C   0  0  0  0  0  0  0  0  0  0  0  0
    6.6782  -16.1838   20.5094 C   0  0  0  0  0  0  0  0  0  0  0  0
    7.9324  -16.6179   21.2199 C   0  0  1  0  0  0  0  0  0  0  0  0
    8.4650  -15.6255   22.1545 C   0  0  0  0  0  0  0  0  0  0  0  0
    9.4914  -14.9842   21.8127 O   0  0  0  0  0  0  0  0  0  0  0  0
    6.3212  -11.9208   26.5816 C   0  0  0  0  0  0  0  0  0  0  0  0
    7.4250  -12.3417   25.6547 C   0  0  0  0  0  0  0  0  0  0  0  0
    7.0515  -13.6472   24.9304 C   0  0  2  0  0  0  0  0  0  0  0  0
    6.5329  -14.5707   25.9886 C   0  0  0  0  0  0  0  0  0  0  0  0
    8.2633  -14.1545   24.1863 C   0  0  2  0  0  0  0  0  0  0  0  0
    7.8749  -15.3610   23.4182 N   0  0  0  0  0  0  0  0  0  0  0  0
    9.3746  -14.5249   25.0951 C   0  0  0  0  0  0  0  0  0  0  0  0
   10.0574  -13.6353   25.7028 O   0  0  0  0  0  0  0  0  0  0  0  0
   11.2749  -13.8700   27.8991 C   0  0  0  0  0  0  0  0  0  0  0  0
   10.0795  -14.7888   28.1239 C   0  0  2  0  0  0  0  0  0  0  0  0
    9.8404  -14.8517   29.6129 C   0  0  0  0  0  0  0  0  0  0  0  0
   10.4432  -16.1500   27.6207 C   0  0  0  0  0  0  0  0  0  0  0  0
   10.9446  -16.1533   26.1961 C   0  0  2  0  0  0  0  0  0  0  0  0
    9.7670  -15.8526   25.3673 N   0  0  0  0  0  0  0  0  0  0  0  0
   11.4687  -17.4676   25.7688 C   0  0  0  0  0  0  0  0  0  0  0  0
   12.7174  -17.9421   26.1672 O   0  0  0  0  0  0  0  0  0  0  0  0
   10.8116  -18.2336   25.0176 O   0  0  0  0  0  0  0  0  0  0  0  0
  1  5  1  0
  2  1  1  0
  2  3  1  0
  3  4  1  0
  4  5  1  0
  5  6  1  1
  6  7  2  0
  8  9  1  0
  9 10  1  0
 10 11  1  1
 10 12  1  0
 12 13  1  1
 12 14  1  0
 13  6  1  0
 14 21  1  0
 15 14  2  0
 17 16  1  1
 17 19  1  0
 18 17  1  0
 20 19  1  1
 20 22  1  0
 21 20  1  0
 22 24  2  0
 22 23  1  0
M  END
$$$$
