PIL.pdb
     RDKit          3D

 24 24  0  0  1  0  0  0  0  0999 V2000
    9.0457  -19.3389   20.7974 N   0  0  0  0  0  0  0  0  0  0  0  0
    8.6945  -20.3756   19.8460 C   0  0  0  0  0  0  0  0  0  0  0  0
    8.5332  -19.7085   18.5154 C   0  0  0  0  0  0  0  0  0  0  0  0
    8.7394  -18.2402   18.8035 C   0  0  0  0  0  0  0  0  0  0  0  0
    9.6273  -18.2731   20.0187 C   0  0  1  0  0  0  0  0  0  0  0  0
    9.7118  -16.9985   20.7330 C   0  0  0  0  0  0  0  0  0  0  0  0
   10.8248  -16.4139   20.7673 O   0  0  0  0  0  0  0  0  0  0  0  0
    6.7720  -13.0505   19.4710 C   0  0  0  0  0  0  0  0  0  0  0  0
    7.8727  -13.9057   20.0294 C   0  0  0  0  0  0  0  0  0  0  0  0
    7.6382  -14.1757   21.5263 C   0  0  2  0  0  0  0  0  0  0  0  0
    7.5776  -12.8311   22.1820 C   0  0  0  0  0  0  0  0  0  0  0  0
    8.7356  -15.0791   22.0352 C   0  0  2  0  0  0  0  0  0  0  0  0
    8.5988  -16.4023   21.3818 N   0  0  0  0  0  0  0  0  0  0  0  0
    8.6710  -15.2810   23.5026 C   0  0  0  0  0  0  0  0  0  0  0  0
    7.6795  -15.8706   24.0468 O   0  0  0  0  0  0  0  0  0  0  0  0
    6.5966  -12.4670   27.2071 C   0  0  0  0  0  0  0  0  0  0  0  0
    7.7949  -13.4046   27.3018 C   0  0  2  0  0  0  0  0  0  0  0  0
    8.8472  -12.7000   28.1230 C   0  0  0  0  0  0  0  0  0  0  0  0
    8.3137  -13.6309   25.9170 C   0  0  0  0  0  0  0  0  0  0  0  0
    9.3884  -14.6891   25.8400 C   0  0  2  0  0  0  0  0  0  0  0  0
    9.6687  -14.8570   24.4057 N   0  0  0  0  0  0  0  0  0  0  0  0
    8.9511  -15.9991   26.3668 C   0  0  0  0  0  0  0  0  0  0  0  0
    9.5965  -16.6340   27.4267 O   0  0  0  0  0  0  0  0  0  0  0  0
    7.9665  -16.6154   25.8835 O   0  0  0  0  0  0  0  0  0  0  0  0
  1  5  1  0
  2  1  1  0
  2  3  1  0
  3  4  1  0
  4  5  1  0
  5  6  1  1
  6  7  2  0
  8  9  1  0
  9 10  1  0
 10 11  1  1
 10 12  1  0
 12 13  1  6
 12 14  1  0
 13  6  1  0
 14 21  1  0
 15 14  2  0
 17 16  1  6
 17 19  1  0
 18 17  1  0
 20 19  1  6
 20 22  1  0
 21 20  1  0
 22 24  2  0
 22 23  1  0
M  END
$$$$
