PIL.pdb
     RDKit          3D

 24 24  0  0  1  0  0  0  0  0999 V2000
    7.0515  -15.9984   21.5591 N   0  0  0  0  0  0  0  0  0  0  0  0
    6.4981  -15.9143   20.2213 C   0  0  0  0  0  0  0  0  0  0  0  0
    7.0529  -14.6711   19.5983 C   0  0  0  0  0  0  0  0  0  0  0  0
    7.8791  -14.0384   20.6930 C   0  0  0  0  0  0  0  0  0  0  0  0
    8.2707  -15.2282   21.5280 C   0  0  1  0  0  0  0  0  0  0  0  0
    8.7862  -14.8853   22.8542 C   0  0  0  0  0  0  0  0  0  0  0  0
    9.9915  -14.5384   22.9471 O   0  0  0  0  0  0  0  0  0  0  0  0
    6.0918  -11.8212   26.1194 C   0  0  0  0  0  0  0  0  0  0  0  0
    7.1798  -12.5600   25.3947 C   0  0  0  0  0  0  0  0  0  0  0  0
    7.5612  -13.8411   26.1574 C   0  0  2  0  0  0  0  0  0  0  0  0
    8.0391  -13.3915   27.5031 C   0  0  0  0  0  0  0  0  0  0  0  0
    8.5806  -14.6046   25.3465 C   0  0  2  0  0  0  0  0  0  0  0  0
    7.9880  -14.9283   24.0272 N   0  0  0  0  0  0  0  0  0  0  0  0
    8.9859  -15.8753   25.9938 C   0  0  0  0  0  0  0  0  0  0  0  0
    8.1397  -16.8025   26.2198 O   0  0  0  0  0  0  0  0  0  0  0  0
   11.2409  -19.1661   24.6398 C   0  0  0  0  0  0  0  0  0  0  0  0
   12.0417  -17.9353   25.0497 C   0  0  2  0  0  0  0  0  0  0  0  0
   13.4671  -18.1651   24.6096 C   0  0  0  0  0  0  0  0  0  0  0  0
   11.9927  -17.8292   26.5411 C   0  0  0  0  0  0  0  0  0  0  0  0
   10.6350  -17.4376   27.0746 C   0  0  2  0  0  0  0  0  0  0  0  0
   10.3030  -16.1708   26.4045 N   0  0  0  0  0  0  0  0  0  0  0  0
   10.6346  -17.1869   28.5312 C   0  0  0  0  0  0  0  0  0  0  0  0
   10.7087  -18.2157   29.4689 O   0  0  0  0  0  0  0  0  0  0  0  0
   10.5666  -16.0239   29.0061 O   0  0  0  0  0  0  0  0  0  0  0  0
  1  5  1  0
  2  1  1  0
  2  3  1  0
  3  4  1  0
  4  5  1  0
  5  6  1  1
  6  7  2  0
  8  9  1  0
  9 10  1  0
 10 11  1  1
 10 12  1  0
 12 13  1  6
 12 14  1  0
 13  6  1  0
 14 21  1  0
 15 14  2  0
 17 16  1  1
 17 19  1  0
 18 17  1  0
 20 19  1  6
 20 22  1  0
 21 20  1  0
 22 24  2  0
 22 23  1  0
M  END
$$$$
