PIL.pdb
     RDKit          3D

 24 24  0  0  1  0  0  0  0  0999 V2000
    6.9555  -19.7799   22.6661 N   0  0  0  0  0  0  0  0  0  0  0  0
    5.8806  -20.7204   22.4149 C   0  0  0  0  0  0  0  0  0  0  0  0
    5.2230  -20.2985   21.1377 C   0  0  0  0  0  0  0  0  0  0  0  0
    5.9457  -19.0323   20.7431 C   0  0  0  0  0  0  0  0  0  0  0  0
    7.2963  -19.2216   21.3805 C   0  0  1  0  0  0  0  0  0  0  0  0
    8.0967  -17.9990   21.4614 C   0  0  0  0  0  0  0  0  0  0  0  0
    9.3354  -18.0906   21.2642 O   0  0  0  0  0  0  0  0  0  0  0  0
    7.6192  -11.9818   20.5230 C   0  0  0  0  0  0  0  0  0  0  0  0
    8.4561  -13.2195   20.6725 C   0  0  0  0  0  0  0  0  0  0  0  0
    7.5613  -14.4496   20.9061 C   0  0  2  0  0  0  0  0  0  0  0  0
    6.3609  -13.9500   21.6484 C   0  0  0  0  0  0  0  0  0  0  0  0
    8.3623  -15.5025   21.6338 C   0  0  2  0  0  0  0  0  0  0  0  0
    7.5361  -16.7274   21.7505 N   0  0  0  0  0  0  0  0  0  0  0  0
    8.7517  -15.0775   22.9997 C   0  0  0  0  0  0  0  0  0  0  0  0
    9.6587  -14.2006   23.1869 O   0  0  0  0  0  0  0  0  0  0  0  0
    8.2326  -12.2093   26.3775 C   0  0  0  0  0  0  0  0  0  0  0  0
    7.1278  -13.0095   25.6971 C   0  0  2  0  0  0  0  0  0  0  0  0
    5.8133  -12.5043   26.2403 C   0  0  0  0  0  0  0  0  0  0  0  0
    7.3016  -14.4471   26.0729 C   0  0  0  0  0  0  0  0  0  0  0  0
    8.5551  -15.0719   25.5077 C   0  0  2  0  0  0  0  0  0  0  0  0
    8.1727  -15.5838   24.1827 N   0  0  0  0  0  0  0  0  0  0  0  0
    9.0431  -16.2163   26.3057 C   0  0  0  0  0  0  0  0  0  0  0  0
    9.7605  -16.0529   27.4896 O   0  0  0  0  0  0  0  0  0  0  0  0
    8.8360  -17.4072   25.9568 O   0  0  0  0  0  0  0  0  0  0  0  0
  1  5  1  0
  2  1  1  0
  2  3  1  0
  3  4  1  0
  4  5  1  0
  5  6  1  1
  6  7  2  0
  8  9  1  0
  9 10  1  0
 10 11  1  1
 10 12  1  0
 12 13  1  1
 12 14  1  0
 13  6  1  0
 14 21  1  0
 15 14  2  0
 17 16  1  1
 17 19  1  0
 18 17  1  0
 20 19  1  1
 20 22  1  0
 21 20  1  0
 22 24  2  0
 22 23  1  0
M  END
$$$$
