PIL.pdb
     RDKit          3D

 24 24  0  0  1  0  0  0  0  0999 V2000
    7.2687  -15.2603   20.4667 N   0  0  0  0  0  0  0  0  0  0  0  0
    6.8937  -14.9014   19.1126 C   0  0  0  0  0  0  0  0  0  0  0  0
    7.5895  -13.6144   18.7950 C   0  0  0  0  0  0  0  0  0  0  0  0
    8.3044  -13.2479   20.0741 C   0  0  0  0  0  0  0  0  0  0  0  0
    8.5223  -14.5919   20.7164 C   0  0  1  0  0  0  0  0  0  0  0  0
    8.8845  -14.5266   22.1330 C   0  0  0  0  0  0  0  0  0  0  0  0
   10.0715  -14.2316   22.4255 O   0  0  0  0  0  0  0  0  0  0  0  0
    5.5212  -11.9888   25.5650 C   0  0  0  0  0  0  0  0  0  0  0  0
    6.7546  -12.4949   24.8741 C   0  0  0  0  0  0  0  0  0  0  0  0
    7.0305  -13.9570   25.2672 C   0  0  2  0  0  0  0  0  0  0  0  0
    7.0919  -13.9761   26.7630 C   0  0  0  0  0  0  0  0  0  0  0  0
    8.2918  -14.4167   24.5762 C   0  0  2  0  0  0  0  0  0  0  0  0
    7.9587  -14.7806   23.1786 N   0  0  0  0  0  0  0  0  0  0  0  0
    8.8981  -15.6018   25.2288 C   0  0  0  0  0  0  0  0  0  0  0  0
    8.7961  -16.7649   24.7154 O   0  0  0  0  0  0  0  0  0  0  0  0
   11.0431  -13.8382   27.9761 C   0  0  0  0  0  0  0  0  0  0  0  0
   10.4425  -14.9985   28.7616 C   0  0  2  0  0  0  0  0  0  0  0  0
   10.8674  -14.8291   30.2000 C   0  0  0  0  0  0  0  0  0  0  0  0
   11.0176  -16.2687   28.2194 C   0  0  0  0  0  0  0  0  0  0  0  0
   10.3726  -16.7224   26.9314 C   0  0  2  0  0  0  0  0  0  0  0  0
    9.6240  -15.5562   26.4379 N   0  0  0  0  0  0  0  0  0  0  0  0
    9.4073  -17.8252   27.1233 C   0  0  0  0  0  0  0  0  0  0  0  0
    8.0292  -17.6409   27.0238 O   0  0  0  0  0  0  0  0  0  0  0  0
    9.7802  -18.9971   27.3887 O   0  0  0  0  0  0  0  0  0  0  0  0
  1  5  1  0
  2  1  1  0
  2  3  1  0
  3  4  1  0
  4  5  1  0
  5  6  1  1
  6  7  2  0
  8  9  1  0
  9 10  1  0
 10 11  1  1
 10 12  1  0
 12 13  1  6
 12 14  1  0
 13  6  1  0
 14 21  1  0
 15 14  2  0
 17 16  1  6
 17 19  1  0
 18 17  1  0
 20 19  1  1
 20 22  1  0
 21 20  1  0
 22 24  2  0
 22 23  1  0
M  END
$$$$
