PIL.pdb
     RDKit          3D

 24 24  0  0  1  0  0  0  0  0999 V2000
    8.7026  -14.9861   19.5632 N   0  0  0  0  0  0  0  0  0  0  0  0
    8.6622  -14.2791   18.2976 C   0  0  0  0  0  0  0  0  0  0  0  0
    7.9947  -12.9639   18.5550 C   0  0  0  0  0  0  0  0  0  0  0  0
    7.6028  -13.0201   20.0126 C   0  0  0  0  0  0  0  0  0  0  0  0
    8.6229  -13.9690   20.5830 C   0  0  1  0  0  0  0  0  0  0  0  0
    8.2827  -14.4877   21.9086 C   0  0  0  0  0  0  0  0  0  0  0  0
    8.0491  -13.6582   22.8246 O   0  0  0  0  0  0  0  0  0  0  0  0
    5.1776  -18.7638   22.0177 C   0  0  0  0  0  0  0  0  0  0  0  0
    5.7810  -17.4452   22.4075 C   0  0  0  0  0  0  0  0  0  0  0  0
    7.0006  -17.6600   23.3212 C   0  0  2  0  0  0  0  0  0  0  0  0
    6.4693  -18.2765   24.5779 C   0  0  0  0  0  0  0  0  0  0  0  0
    7.7034  -16.3376   23.5132 C   0  0  2  0  0  0  0  0  0  0  0  0
    8.2068  -15.8752   22.1982 N   0  0  0  0  0  0  0  0  0  0  0  0
    8.8569  -16.4360   24.4394 C   0  0  0  0  0  0  0  0  0  0  0  0
    9.9898  -16.8669   24.0424 O   0  0  0  0  0  0  0  0  0  0  0  0
    9.7718  -13.0735   28.7577 C   0  0  0  0  0  0  0  0  0  0  0  0
    9.6415  -13.9022   27.4848 C   0  0  2  0  0  0  0  0  0  0  0  0
    8.2753  -13.6203   26.9082 C   0  0  0  0  0  0  0  0  0  0  0  0
    9.7330  -15.3466   27.8637 C   0  0  0  0  0  0  0  0  0  0  0  0
    9.9702  -16.2655   26.6888 C   0  0  2  0  0  0  0  0  0  0  0  0
    8.8130  -16.0713   25.8017 N   0  0  0  0  0  0  0  0  0  0  0  0
   10.0086  -17.6935   27.0681 C   0  0  0  0  0  0  0  0  0  0  0  0
    8.8925  -18.5236   26.9768 O   0  0  0  0  0  0  0  0  0  0  0  0
   11.0576  -18.2401   27.4967 O   0  0  0  0  0  0  0  0  0  0  0  0
  1  5  1  0
  2  1  1  0
  2  3  1  0
  3  4  1  0
  4  5  1  0
  5  6  1  1
  6  7  2  0
  8  9  1  0
  9 10  1  0
 10 11  1  1
 10 12  1  0
 12 13  1  6
 12 14  1  0
 13  6  1  0
 14 21  1  0
 15 14  2  0
 17 16  1  1
 17 19  1  0
 18 17  1  0
 20 19  1  1
 20 22  1  0
 21 20  1  0
 22 24  2  0
 22 23  1  0
M  END
$$$$
