PIL.pdb
     RDKit          3D

 24 24  0  0  1  0  0  0  0  0999 V2000
    8.6283  -19.1820   20.1033 N   0  0  0  0  0  0  0  0  0  0  0  0
    8.0726  -20.5173   20.2100 C   0  0  0  0  0  0  0  0  0  0  0  0
    7.4311  -20.6150   21.5593 C   0  0  0  0  0  0  0  0  0  0  0  0
    7.7318  -19.2883   22.2156 C   0  0  0  0  0  0  0  0  0  0  0  0
    7.8795  -18.3705   21.0314 C   0  0  1  0  0  0  0  0  0  0  0  0
    8.5158  -17.0898   21.3424 C   0  0  0  0  0  0  0  0  0  0  0  0
    9.7701  -17.0231   21.2783 O   0  0  0  0  0  0  0  0  0  0  0  0
    6.6846  -12.6075   19.3108 C   0  0  0  0  0  0  0  0  0  0  0  0
    7.6502  -13.6009   19.8901 C   0  0  0  0  0  0  0  0  0  0  0  0
    7.6457  -13.5231   21.4271 C   0  0  2  0  0  0  0  0  0  0  0  0
    8.1407  -12.1525   21.7708 C   0  0  0  0  0  0  0  0  0  0  0  0
    8.4834  -14.6540   21.9738 C   0  0  2  0  0  0  0  0  0  0  0  0
    7.7811  -15.9321   21.7098 N   0  0  0  0  0  0  0  0  0  0  0  0
    8.7040  -14.5429   23.4356 C   0  0  0  0  0  0  0  0  0  0  0  0
    9.0600  -13.4406   23.9696 O   0  0  0  0  0  0  0  0  0  0  0  0
    8.5671  -12.5730   26.7270 C   0  0  0  0  0  0  0  0  0  0  0  0
    7.4598  -13.2392   25.9183 C   0  0  2  0  0  0  0  0  0  0  0  0
    6.1540  -12.6262   26.3626 C   0  0  0  0  0  0  0  0  0  0  0  0
    7.4621  -14.6983   26.2485 C   0  0  0  0  0  0  0  0  0  0  0  0
    8.7093  -15.4186   25.7939 C   0  0  2  0  0  0  0  0  0  0  0  0
    8.5433  -15.6098   24.3449 N   0  0  0  0  0  0  0  0  0  0  0  0
    8.8633  -16.7548   26.4068 C   0  0  0  0  0  0  0  0  0  0  0  0
    9.3183  -16.9326   27.7124 O   0  0  0  0  0  0  0  0  0  0  0  0
    8.5902  -17.8102   25.7789 O   0  0  0  0  0  0  0  0  0  0  0  0
  1  5  1  0
  2  1  1  0
  2  3  1  0
  3  4  1  0
  4  5  1  0
  5  6  1  1
  6  7  2  0
  8  9  1  0
  9 10  1  0
 10 11  1  6
 10 12  1  0
 12 13  1  1
 12 14  1  0
 13  6  1  0
 14 21  1  0
 15 14  2  0
 17 16  1  1
 17 19  1  0
 18 17  1  0
 20 19  1  1
 20 22  1  0
 21 20  1  0
 22 24  2  0
 22 23  1  0
M  END
$$$$
