TFE.pdb
     RDKit          3D

 28 28  0  0  1  0  0  0  0  0999 V2000
    8.4198  -18.9764   18.9982 C   0  0  0  0  0  0  0  0  0  0  0  0
    8.7751  -18.1866   20.2210 C   0  0  1  0  0  0  0  0  0  0  0  0
   10.0760  -18.4866   20.6196 O   0  0  0  0  0  0  0  0  0  0  0  0
    8.6190  -16.6939   20.0011 C   0  0  2  0  0  0  0  0  0  0  0  0
    9.5014  -16.2068   18.9716 N   0  0  0  0  0  0  0  0  0  0  0  0
    8.8943  -15.9401   21.2572 C   0  0  0  0  0  0  0  0  0  0  0  0
   10.0259  -15.4601   21.5277 O   0  0  0  0  0  0  0  0  0  0  0  0
    7.8590  -15.7336   22.2163 N   0  0  0  0  0  0  0  0  0  0  0  0
    8.0250  -15.0593   23.4644 C   0  0  1  0  0  0  0  0  0  0  0  0
    6.7126  -14.5781   24.0452 C   0  0  0  0  0  0  0  0  0  0  0  0
    6.9140  -13.8140   25.2995 C   0  0  0  0  0  0  0  0  0  0  0  0
    6.8210  -14.4340   26.5409 C   0  0  0  0  0  0  0  0  0  0  0  0
    7.0123  -13.7028   27.6949 C   0  0  0  0  0  0  0  0  0  0  0  0
    7.2992  -12.3489   27.6814 C   0  0  0  0  0  0  0  0  0  0  0  0
    7.3899  -11.7401   26.4472 C   0  0  0  0  0  0  0  0  0  0  0  0
    7.1997  -12.4670   25.2923 C   0  0  0  0  0  0  0  0  0  0  0  0
    8.6888  -15.9294   24.4850 C   0  0  0  0  0  0  0  0  0  0  0  0
    8.2058  -17.0455   24.8035 O   0  0  0  0  0  0  0  0  0  0  0  0
    9.8846  -15.5452   25.1404 N   0  0  0  0  0  0  0  0  0  0  0  0
   10.6833  -16.5319   25.9344 C   0  0  1  0  0  0  0  0  0  0  0  0
   12.1106  -16.2136   25.7055 C   0  0  0  0  0  0  0  0  0  0  0  0
   12.6876  -16.3379   24.3680 C   0  0  0  0  0  0  0  0  0  0  0  0
   14.1016  -16.0833   24.1372 C   0  0  0  0  0  0  0  0  0  0  0  0
   14.4829  -15.1093   23.4235 O   0  0  0  0  0  0  0  0  0  0  0  0
   10.2713  -16.2972   27.3226 C   0  0  0  0  0  0  0  0  0  0  0  0
   10.5161  -17.0289   28.2945 O   0  0  0  0  0  0  0  0  0  0  0  0
   15.0958  -16.8833   24.6822 O   0  0  0  0  0  0  0  0  0  0  0  0
    9.5240  -15.1399   27.6260 O   0  0  0  0  0  0  0  0  0  0  0  0
  2  4  1  0
  2  1  1  6
  3  2  1  0
  4  6  1  0
  4  5  1  6
  6  7  2  0
  8  9  1  0
  8  6  1  0
 10 11  1  0
  9 10  1  1
 11 12  2  0
 12 13  1  0
 14 13  2  0
 15 14  1  0
 16 15  2  0
 16 11  1  0
 17 18  2  0
 17  9  1  0
 19 17  1  0
 20 19  1  0
 20 25  1  0
 20 21  1  1
 22 23  1  0
 22 21  1  0
 23 24  2  0
 25 28  1  0
 26 25  2  0
 27 23  1  0
M  END
$$$$
