TFE.pdb
     RDKit          3D

 28 28  0  0  1  0  0  0  0  0999 V2000
    9.0528  -18.9241   19.3053 C   0  0  0  0  0  0  0  0  0  0  0  0
    9.2496  -18.0884   20.5333 C   0  0  1  0  0  0  0  0  0  0  0  0
   10.4290  -18.4582   21.1763 O   0  0  0  0  0  0  0  0  0  0  0  0
    9.2604  -16.6048   20.2178 C   0  0  2  0  0  0  0  0  0  0  0  0
   10.3336  -16.2531   19.3231 N   0  0  0  0  0  0  0  0  0  0  0  0
    9.3979  -15.7977   21.4634 C   0  0  0  0  0  0  0  0  0  0  0  0
   10.5104  -15.3958   21.8936 O   0  0  0  0  0  0  0  0  0  0  0  0
    8.2451  -15.4462   22.2263 N   0  0  0  0  0  0  0  0  0  0  0  0
    8.2728  -14.7567   23.4768 C   0  0  1  0  0  0  0  0  0  0  0  0
    6.9198  -14.1991   23.8641 C   0  0  0  0  0  0  0  0  0  0  0  0
    6.9813  -13.4428   25.1376 C   0  0  0  0  0  0  0  0  0  0  0  0
    6.4150  -13.9500   26.3021 C   0  0  0  0  0  0  0  0  0  0  0  0
    6.4845  -13.2283   27.4758 C   0  0  0  0  0  0  0  0  0  0  0  0
    7.1044  -11.9936   27.5569 C   0  0  0  0  0  0  0  0  0  0  0  0
    7.6638  -11.4962   26.3986 C   0  0  0  0  0  0  0  0  0  0  0  0
    7.5967  -12.2139   25.2244 C   0  0  0  0  0  0  0  0  0  0  0  0
    8.7433  -15.6387   24.5903 C   0  0  0  0  0  0  0  0  0  0  0  0
    8.1151  -16.6807   24.9065 O   0  0  0  0  0  0  0  0  0  0  0  0
    9.9098  -15.3491   25.3402 N   0  0  0  0  0  0  0  0  0  0  0  0
   10.5531  -16.3896   26.2036 C   0  0  1  0  0  0  0  0  0  0  0  0
   12.0168  -16.2102   26.0754 C   0  0  0  0  0  0  0  0  0  0  0  0
   12.6772  -16.4397   24.7915 C   0  0  0  0  0  0  0  0  0  0  0  0
   14.1105  -16.2380   24.6414 C   0  0  0  0  0  0  0  0  0  0  0  0
   14.9352  -16.8005   25.4203 O   0  0  0  0  0  0  0  0  0  0  0  0
   10.0668  -16.0895   27.5547 C   0  0  0  0  0  0  0  0  0  0  0  0
   10.1078  -16.8493   28.5350 O   0  0  0  0  0  0  0  0  0  0  0  0
   14.6436  -15.4301   23.6472 O   0  0  0  0  0  0  0  0  0  0  0  0
    9.4906  -14.8270   27.8077 O   0  0  0  0  0  0  0  0  0  0  0  0
  2  4  1  0
  2  1  1  6
  3  2  1  0
  4  6  1  0
  4  5  1  6
  6  7  2  0
  8  9  1  0
  8  6  1  0
 10 11  1  0
  9 10  1  1
 11 12  2  0
 12 13  1  0
 14 13  2  0
 15 14  1  0
 16 15  2  0
 16 11  1  0
 17 18  2  0
 17  9  1  0
 19 17  1  0
 20 19  1  0
 20 25  1  0
 20 21  1  1
 22 23  1  0
 22 21  1  0
 23 24  2  0
 25 28  1  0
 26 25  2  0
 27 23  1  0
M  END
$$$$
