TFE.pdb
     RDKit          3D

 28 28  0  0  1  0  0  0  0  0999 V2000
    7.8277  -18.4925   20.8514 C   0  0  0  0  0  0  0  0  0  0  0  0
    9.0818  -18.0099   20.1885 C   0  0  1  0  0  0  0  0  0  0  0  0
    9.2623  -18.6697   18.9747 O   0  0  0  0  0  0  0  0  0  0  0  0
    9.0744  -16.5075   19.9792 C   0  0  2  0  0  0  0  0  0  0  0  0
   10.0826  -16.0906   19.0382 N   0  0  0  0  0  0  0  0  0  0  0  0
    9.3017  -15.7907   21.2662 C   0  0  0  0  0  0  0  0  0  0  0  0
   10.4496  -15.6084   21.7491 O   0  0  0  0  0  0  0  0  0  0  0  0
    8.1989  -15.2758   22.0099 N   0  0  0  0  0  0  0  0  0  0  0  0
    8.2951  -14.6732   23.3012 C   0  0  1  0  0  0  0  0  0  0  0  0
    6.9878  -14.0609   23.7568 C   0  0  0  0  0  0  0  0  0  0  0  0
    7.0982  -13.4770   25.1149 C   0  0  0  0  0  0  0  0  0  0  0  0
    5.9818  -13.3478   25.9340 C   0  0  0  0  0  0  0  0  0  0  0  0
    6.1086  -12.8013   27.1943 C   0  0  0  0  0  0  0  0  0  0  0  0
    7.3206  -12.3634   27.6992 C   0  0  0  0  0  0  0  0  0  0  0  0
    8.4237  -12.4943   26.8818 C   0  0  0  0  0  0  0  0  0  0  0  0
    8.3013  -13.0397   25.6225 C   0  0  0  0  0  0  0  0  0  0  0  0
    8.7322  -15.6538   24.3436 C   0  0  0  0  0  0  0  0  0  0  0  0
    8.0308  -16.6569   24.6301 O   0  0  0  0  0  0  0  0  0  0  0  0
    9.9476  -15.5050   25.0564 N   0  0  0  0  0  0  0  0  0  0  0  0
   10.7121  -16.6981   25.5402 C   0  0  1  0  0  0  0  0  0  0  0  0
   12.1032  -16.5416   25.0593 C   0  0  0  0  0  0  0  0  0  0  0  0
   13.1617  -17.4100   25.5719 C   0  0  0  0  0  0  0  0  0  0  0  0
   14.5334  -17.2713   25.1065 C   0  0  0  0  0  0  0  0  0  0  0  0
   15.4080  -18.1455   25.3786 O   0  0  0  0  0  0  0  0  0  0  0  0
   10.6116  -16.6236   27.0018 C   0  0  0  0  0  0  0  0  0  0  0  0
   10.6561  -17.5809   27.7902 O   0  0  0  0  0  0  0  0  0  0  0  0
   14.9507  -16.1877   24.3469 O   0  0  0  0  0  0  0  0  0  0  0  0
   10.4487  -15.3618   27.6111 O   0  0  0  0  0  0  0  0  0  0  0  0
  2  4  1  0
  2  1  1  6
  3  2  1  0
  4  6  1  0
  4  5  1  6
  6  7  2  0
  8  9  1  0
  8  6  1  0
 10 11  1  0
  9 10  1  1
 11 12  2  0
 12 13  1  0
 14 13  2  0
 15 14  1  0
 16 15  2  0
 16 11  1  0
 17 18  2  0
 17  9  1  0
 19 17  1  0
 20 19  1  0
 20 25  1  0
 20 21  1  1
 22 23  1  0
 22 21  1  0
 23 24  2  0
 25 28  1  0
 26 25  2  0
 27 23  1  0
M  END
$$$$
