TFE.pdb
     RDKit          3D

 28 28  0  0  1  0  0  0  0  0999 V2000
    6.9152  -18.6106   18.6603 C   0  0  0  0  0  0  0  0  0  0  0  0
    7.5044  -17.9329   19.8598 C   0  0  1  0  0  0  0  0  0  0  0  0
    8.7651  -18.4598   20.1323 O   0  0  0  0  0  0  0  0  0  0  0  0
    7.5857  -16.4286   19.6823 C   0  0  2  0  0  0  0  0  0  0  0  0
    8.4059  -16.0636   18.5555 N   0  0  0  0  0  0  0  0  0  0  0  0
    8.1413  -15.7788   20.9034 C   0  0  0  0  0  0  0  0  0  0  0  0
    9.3625  -15.5020   21.0301 O   0  0  0  0  0  0  0  0  0  0  0  0
    7.2860  -15.4417   21.9939 N   0  0  0  0  0  0  0  0  0  0  0  0
    7.7235  -14.8741   23.2293 C   0  0  1  0  0  0  0  0  0  0  0  0
    6.5727  -14.4130   24.0981 C   0  0  0  0  0  0  0  0  0  0  0  0
    7.0493  -13.7765   25.3492 C   0  0  0  0  0  0  0  0  0  0  0  0
    7.1948  -14.5134   26.5195 C   0  0  0  0  0  0  0  0  0  0  0  0
    7.6401  -13.8996   27.6721 C   0  0  0  0  0  0  0  0  0  0  0  0
    7.9576  -12.5536   27.7257 C   0  0  0  0  0  0  0  0  0  0  0  0
    7.8109  -11.8285   26.5617 C   0  0  0  0  0  0  0  0  0  0  0  0
    7.3667  -12.4378   25.4085 C   0  0  0  0  0  0  0  0  0  0  0  0
    8.5449  -15.8379   24.0266 C   0  0  0  0  0  0  0  0  0  0  0  0
    8.1537  -17.0151   24.2303 O   0  0  0  0  0  0  0  0  0  0  0  0
    9.7945  -15.4783   24.5891 N   0  0  0  0  0  0  0  0  0  0  0  0
   10.8116  -16.5184   24.9438 C   0  0  1  0  0  0  0  0  0  0  0  0
   12.0883  -16.1014   24.3216 C   0  0  0  0  0  0  0  0  0  0  0  0
   13.3129  -16.8588   24.5749 C   0  0  0  0  0  0  0  0  0  0  0  0
   14.5574  -16.5140   23.9042 C   0  0  0  0  0  0  0  0  0  0  0  0
   15.0233  -17.2393   22.9768 O   0  0  0  0  0  0  0  0  0  0  0  0
   10.8647  -16.4873   26.4094 C   0  0  0  0  0  0  0  0  0  0  0  0
   10.8601  -17.4717   27.1650 O   0  0  0  0  0  0  0  0  0  0  0  0
   15.2900  -15.3843   24.2397 O   0  0  0  0  0  0  0  0  0  0  0  0
   10.9286  -15.2391   27.0634 O   0  0  0  0  0  0  0  0  0  0  0  0
  2  4  1  0
  2  1  1  6
  3  2  1  0
  4  6  1  0
  4  5  1  6
  6  7  2  0
  8  9  1  0
  8  6  1  0
 10 11  1  0
  9 10  1  1
 11 12  2  0
 12 13  1  0
 14 13  2  0
 15 14  1  0
 16 15  2  0
 16 11  1  0
 17 18  2  0
 17  9  1  0
 19 17  1  0
 20 19  1  0
 20 25  1  0
 20 21  1  6
 22 23  1  0
 22 21  1  0
 23 24  2  0
 25 28  1  0
 26 25  2  0
 27 23  1  0
M  END
$$$$
