TFE.pdb
     RDKit          3D

 28 28  0  0  1  0  0  0  0  0999 V2000
    6.0018  -15.9375   19.5095 C   0  0  0  0  0  0  0  0  0  0  0  0
    6.9443  -15.8884   20.6734 C   0  0  1  0  0  0  0  0  0  0  0  0
    8.0246  -16.7386   20.4468 O   0  0  0  0  0  0  0  0  0  0  0  0
    7.4289  -14.4790   20.9556 C   0  0  2  0  0  0  0  0  0  0  0  0
    8.1804  -13.9377   19.8520 N   0  0  0  0  0  0  0  0  0  0  0  0
    8.2863  -14.4462   22.1745 C   0  0  0  0  0  0  0  0  0  0  0  0
    9.5438  -14.4539   22.1214 O   0  0  0  0  0  0  0  0  0  0  0  0
    7.6948  -14.4038   23.4717 N   0  0  0  0  0  0  0  0  0  0  0  0
    8.4143  -14.5111   24.7009 C   0  0  1  0  0  0  0  0  0  0  0  0
    7.5680  -14.1534   25.9039 C   0  0  0  0  0  0  0  0  0  0  0  0
    8.3439  -14.2320   27.1646 C   0  0  0  0  0  0  0  0  0  0  0  0
    8.9720  -13.1091   27.6924 C   0  0  0  0  0  0  0  0  0  0  0  0
    9.6888  -13.2061   28.8672 C   0  0  0  0  0  0  0  0  0  0  0  0
    9.8190  -14.3937   29.5659 C   0  0  0  0  0  0  0  0  0  0  0  0
    9.1939  -15.5034   29.0370 C   0  0  0  0  0  0  0  0  0  0  0  0
    8.4769  -15.4107   27.8641 C   0  0  0  0  0  0  0  0  0  0  0  0
    8.9555  -15.8901   24.9123 C   0  0  0  0  0  0  0  0  0  0  0  0
    8.1934  -16.8884   24.9670 O   0  0  0  0  0  0  0  0  0  0  0  0
   10.3418  -16.1414   25.0611 N   0  0  0  0  0  0  0  0  0  0  0  0
   10.8651  -17.5378   25.1959 C   0  0  1  0  0  0  0  0  0  0  0  0
   11.8961  -17.7138   24.1485 C   0  0  0  0  0  0  0  0  0  0  0  0
   13.0970  -16.8801   24.1497 C   0  0  0  0  0  0  0  0  0  0  0  0
   14.0549  -16.9473   23.0563 C   0  0  0  0  0  0  0  0  0  0  0  0
   14.5226  -15.8945   22.5308 O   0  0  0  0  0  0  0  0  0  0  0  0
   11.4270  -17.5843   26.5502 C   0  0  0  0  0  0  0  0  0  0  0  0
   11.5200  -16.6311   27.3393 O   0  0  0  0  0  0  0  0  0  0  0  0
   14.5032  -18.1542   22.5389 O   0  0  0  0  0  0  0  0  0  0  0  0
   11.9198  -18.8109   27.0426 O   0  0  0  0  0  0  0  0  0  0  0  0
  2  4  1  0
  2  1  1  6
  3  2  1  0
  4  6  1  0
  4  5  1  6
  6  7  2  0
  8  9  1  0
  8  6  1  0
 10 11  1  0
  9 10  1  1
 11 12  2  0
 12 13  1  0
 14 13  2  0
 15 14  1  0
 16 15  2  0
 16 11  1  0
 17 18  2  0
 17  9  1  0
 19 17  1  0
 20 19  1  0
 20 25  1  0
 20 21  1  6
 22 23  1  0
 22 21  1  0
 23 24  2  0
 25 28  1  0
 26 25  2  0
 27 23  1  0
M  END
$$$$
