TFE.pdb
     RDKit          3D

 28 28  0  0  1  0  0  0  0  0999 V2000
    7.2843  -15.3700   17.2295 C   0  0  0  0  0  0  0  0  0  0  0  0
    7.8498  -15.1923   18.6057 C   0  0  1  0  0  0  0  0  0  0  0  0
    9.2282  -15.3940   18.5831 O   0  0  0  0  0  0  0  0  0  0  0  0
    7.5230  -13.8289   19.1848 C   0  0  2  0  0  0  0  0  0  0  0  0
    8.0797  -12.7611   18.3938 N   0  0  0  0  0  0  0  0  0  0  0  0
    8.0392  -13.7058   20.5777 C   0  0  0  0  0  0  0  0  0  0  0  0
    9.2001  -13.2953   20.8386 O   0  0  0  0  0  0  0  0  0  0  0  0
    7.2141  -14.0577   21.6867 N   0  0  0  0  0  0  0  0  0  0  0  0
    7.6289  -14.0330   23.0532 C   0  0  1  0  0  0  0  0  0  0  0  0
    6.4614  -13.9732   24.0149 C   0  0  0  0  0  0  0  0  0  0  0  0
    6.8919  -13.5805   25.3780 C   0  0  0  0  0  0  0  0  0  0  0  0
    6.7950  -12.2622   25.8098 C   0  0  0  0  0  0  0  0  0  0  0  0
    7.2019  -11.9200   27.0829 C   0  0  0  0  0  0  0  0  0  0  0  0
    7.7151  -12.8445   27.9759 C   0  0  0  0  0  0  0  0  0  0  0  0
    7.8087  -14.1501   27.5414 C   0  0  0  0  0  0  0  0  0  0  0  0
    7.4032  -14.4959   26.2708 C   0  0  0  0  0  0  0  0  0  0  0  0
    8.4563  -15.2285   23.4071 C   0  0  0  0  0  0  0  0  0  0  0  0
    8.0434  -16.3954   23.1871 O   0  0  0  0  0  0  0  0  0  0  0  0
    9.7360  -15.1102   24.0033 N   0  0  0  0  0  0  0  0  0  0  0  0
   10.6469  -16.2927   24.1219 C   0  0  1  0  0  0  0  0  0  0  0  0
   12.0063  -15.8257   23.7686 C   0  0  0  0  0  0  0  0  0  0  0  0
   13.1602  -16.7016   23.9653 C   0  0  0  0  0  0  0  0  0  0  0  0
   14.5022  -16.2597   23.6170 C   0  0  0  0  0  0  0  0  0  0  0  0
   14.7560  -15.7772   22.4742 O   0  0  0  0  0  0  0  0  0  0  0  0
   10.5387  -16.6927   25.5292 C   0  0  0  0  0  0  0  0  0  0  0  0
   10.6738  -17.8417   25.9779 O   0  0  0  0  0  0  0  0  0  0  0  0
   15.5622  -16.3405   24.5088 O   0  0  0  0  0  0  0  0  0  0  0  0
   10.2559  -15.7078   26.4986 O   0  0  0  0  0  0  0  0  0  0  0  0
  2  4  1  0
  2  1  1  6
  3  2  1  0
  4  6  1  0
  4  5  1  6
  6  7  2  0
  8  9  1  0
  8  6  1  0
 10 11  1  0
  9 10  1  1
 11 12  2  0
 12 13  1  0
 14 13  2  0
 15 14  1  0
 16 15  2  0
 16 11  1  0
 17 18  2  0
 17  9  1  0
 19 17  1  0
 20 19  1  0
 20 25  1  0
 20 21  1  1
 22 23  1  0
 22 21  1  0
 23 24  2  0
 25 28  1  0
 26 25  2  0
 27 23  1  0
M  END
$$$$
