TFE.pdb
     RDKit          3D

 28 28  0  0  1  0  0  0  0  0999 V2000
    7.0631  -15.2955   17.5290 C   0  0  0  0  0  0  0  0  0  0  0  0
    7.5477  -15.2373   18.9457 C   0  0  1  0  0  0  0  0  0  0  0  0
    8.7957  -15.8485   19.0469 O   0  0  0  0  0  0  0  0  0  0  0  0
    7.6099  -13.8150   19.4692 C   0  0  2  0  0  0  0  0  0  0  0  0
    8.4569  -12.9795   18.6566 N   0  0  0  0  0  0  0  0  0  0  0  0
    8.1190  -13.7863   20.8699 C   0  0  0  0  0  0  0  0  0  0  0  0
    9.3370  -13.6327   21.1474 O   0  0  0  0  0  0  0  0  0  0  0  0
    7.2204  -13.9355   21.9674 N   0  0  0  0  0  0  0  0  0  0  0  0
    7.6077  -13.9625   23.3419 C   0  0  1  0  0  0  0  0  0  0  0  0
    6.4868  -13.5473   24.2708 C   0  0  0  0  0  0  0  0  0  0  0  0
    6.9628  -13.3768   25.6644 C   0  0  0  0  0  0  0  0  0  0  0  0
    6.8431  -14.4035   26.5947 C   0  0  0  0  0  0  0  0  0  0  0  0
    7.2931  -14.2222   27.8862 C   0  0  0  0  0  0  0  0  0  0  0  0
    7.8724  -13.0408   28.3154 C   0  0  0  0  0  0  0  0  0  0  0  0
    7.9880  -12.0266   27.3879 C   0  0  0  0  0  0  0  0  0  0  0  0
    7.5399  -12.2038   26.0971 C   0  0  0  0  0  0  0  0  0  0  0  0
    8.0761  -15.3197   23.7633 C   0  0  0  0  0  0  0  0  0  0  0  0
    7.3216  -16.3224   23.6877 O   0  0  0  0  0  0  0  0  0  0  0  0
    9.3816  -15.5447   24.2654 N   0  0  0  0  0  0  0  0  0  0  0  0
    9.8519  -16.9242   24.6086 C   0  0  1  0  0  0  0  0  0  0  0  0
   11.2733  -17.0072   24.2041 C   0  0  0  0  0  0  0  0  0  0  0  0
   11.6560  -16.7916   22.8097 C   0  0  0  0  0  0  0  0  0  0  0  0
   13.0476  -16.8815   22.3939 C   0  0  0  0  0  0  0  0  0  0  0  0
   13.4388  -17.7973   21.6119 O   0  0  0  0  0  0  0  0  0  0  0  0
    9.6754  -17.0152   26.0620 C   0  0  0  0  0  0  0  0  0  0  0  0
    9.3510  -16.0889   26.8214 O   0  0  0  0  0  0  0  0  0  0  0  0
   14.0082  -15.9778   22.8252 O   0  0  0  0  0  0  0  0  0  0  0  0
    9.8841  -18.2569   26.6982 O   0  0  0  0  0  0  0  0  0  0  0  0
  2  4  1  0
  2  1  1  6
  3  2  1  0
  4  6  1  0
  4  5  1  6
  6  7  2  0
  8  9  1  0
  8  6  1  0
 10 11  1  0
  9 10  1  1
 11 12  2  0
 12 13  1  0
 14 13  2  0
 15 14  1  0
 16 15  2  0
 16 11  1  0
 17 18  2  0
 17  9  1  0
 19 17  1  0
 20 19  1  0
 20 25  1  0
 20 21  1  1
 22 23  1  0
 22 21  1  0
 23 24  2  0
 25 28  1  0
 26 25  2  0
 27 23  1  0
M  END
$$$$
