TFE.pdb
     RDKit          3D

 28 28  0  0  1  0  0  0  0  0999 V2000
    9.0405  -15.7862   19.3199 C   0  0  0  0  0  0  0  0  0  0  0  0
    7.6477  -15.6968   19.8651 C   0  0  1  0  0  0  0  0  0  0  0  0
    7.3525  -16.8398   20.6052 O   0  0  0  0  0  0  0  0  0  0  0  0
    7.4441  -14.4522   20.7080 C   0  0  2  0  0  0  0  0  0  0  0  0
    7.7978  -13.2535   19.9912 N   0  0  0  0  0  0  0  0  0  0  0  0
    8.2577  -14.5163   21.9553 C   0  0  0  0  0  0  0  0  0  0  0  0
    9.4675  -14.1718   21.9961 O   0  0  0  0  0  0  0  0  0  0  0  0
    7.6771  -14.9813   23.1723 N   0  0  0  0  0  0  0  0  0  0  0  0
    8.3662  -15.0825   24.4193 C   0  0  1  0  0  0  0  0  0  0  0  0
    7.4373  -14.9661   25.6089 C   0  0  0  0  0  0  0  0  0  0  0  0
    7.1827  -13.5512   25.9709 C   0  0  0  0  0  0  0  0  0  0  0  0
    5.8907  -13.0375   25.9952 C   0  0  0  0  0  0  0  0  0  0  0  0
    5.6778  -11.7175   26.3352 C   0  0  0  0  0  0  0  0  0  0  0  0
    6.7101  -10.8553   26.6615 C   0  0  0  0  0  0  0  0  0  0  0  0
    7.9890  -11.3710   26.6353 C   0  0  0  0  0  0  0  0  0  0  0  0
    8.2057  -12.6888   26.2965 C   0  0  0  0  0  0  0  0  0  0  0  0
    9.1117  -16.3742   24.5418 C   0  0  0  0  0  0  0  0  0  0  0  0
    8.5587  -17.4731   24.2832 O   0  0  0  0  0  0  0  0  0  0  0  0
   10.4667  -16.4268   24.9521 N   0  0  0  0  0  0  0  0  0  0  0  0
   11.2107  -17.7252   25.0008 C   0  0  1  0  0  0  0  0  0  0  0  0
   12.4442  -17.5445   24.2027 C   0  0  0  0  0  0  0  0  0  0  0  0
   13.3580  -16.4424   24.4989 C   0  0  0  0  0  0  0  0  0  0  0  0
   14.5482  -16.2206   23.6915 C   0  0  0  0  0  0  0  0  0  0  0  0
   15.7069  -16.3389   24.1882 O   0  0  0  0  0  0  0  0  0  0  0  0
   11.4894  -17.9291   26.4266 C   0  0  0  0  0  0  0  0  0  0  0  0
   11.2299  -17.1368   27.3457 O   0  0  0  0  0  0  0  0  0  0  0  0
   14.4777  -15.8742   22.3497 O   0  0  0  0  0  0  0  0  0  0  0  0
   12.1104  -19.1278   26.8358 O   0  0  0  0  0  0  0  0  0  0  0  0
  2  4  1  0
  2  1  1  1
  3  2  1  0
  4  6  1  0
  4  5  1  6
  6  7  2  0
  8  9  1  0
  8  6  1  0
 10 11  1  0
  9 10  1  1
 11 12  2  0
 12 13  1  0
 14 13  2  0
 15 14  1  0
 16 15  2  0
 16 11  1  0
 17 18  2  0
 17  9  1  0
 19 17  1  0
 20 19  1  0
 20 25  1  0
 20 21  1  6
 22 23  1  0
 22 21  1  0
 23 24  2  0
 25 28  1  0
 26 25  2  0
 27 23  1  0
M  END
$$$$
