TFE.pdb
     RDKit          3D

 28 28  0  0  1  0  0  0  0  0999 V2000
    8.1592  -19.5307   19.7585 C   0  0  0  0  0  0  0  0  0  0  0  0
    8.4809  -18.4989   20.7963 C   0  0  1  0  0  0  0  0  0  0  0  0
    9.7676  -18.7054   21.2893 O   0  0  0  0  0  0  0  0  0  0  0  0
    8.3388  -17.0871   20.2601 C   0  0  2  0  0  0  0  0  0  0  0  0
    9.1880  -16.8572   19.1192 N   0  0  0  0  0  0  0  0  0  0  0  0
    8.6739  -16.0837   21.3104 C   0  0  0  0  0  0  0  0  0  0  0  0
    9.7558  -15.4406   21.3155 O   0  0  0  0  0  0  0  0  0  0  0  0
    7.7568  -15.8136   22.3689 N   0  0  0  0  0  0  0  0  0  0  0  0
    7.9826  -14.8808   23.4265 C   0  0  1  0  0  0  0  0  0  0  0  0
    6.6958  -14.3163   23.9896 C   0  0  0  0  0  0  0  0  0  0  0  0
    6.9527  -13.3366   25.0720 C   0  0  0  0  0  0  0  0  0  0  0  0
    7.6846  -12.1784   24.8335 C   0  0  0  0  0  0  0  0  0  0  0  0
    7.9112  -11.2808   25.8563 C   0  0  0  0  0  0  0  0  0  0  0  0
    7.4359  -11.4782   27.1411 C   0  0  0  0  0  0  0  0  0  0  0  0
    6.7111  -12.6288   27.3711 C   0  0  0  0  0  0  0  0  0  0  0  0
    6.4824  -13.5276   26.3521 C   0  0  0  0  0  0  0  0  0  0  0  0
    8.7502  -15.4926   24.5560 C   0  0  0  0  0  0  0  0  0  0  0  0
    8.9804  -14.8497   25.6115 O   0  0  0  0  0  0  0  0  0  0  0  0
    9.2537  -16.8155   24.4964 N   0  0  0  0  0  0  0  0  0  0  0  0
   10.0805  -17.3799   25.6098 C   0  0  1  0  0  0  0  0  0  0  0  0
   10.1530  -18.8423   25.3932 C   0  0  0  0  0  0  0  0  0  0  0  0
    9.0052  -19.6913   25.7081 C   0  0  0  0  0  0  0  0  0  0  0  0
    7.6737  -19.3574   25.2253 C   0  0  0  0  0  0  0  0  0  0  0  0
    6.9064  -18.6025   25.8921 O   0  0  0  0  0  0  0  0  0  0  0  0
   11.3845  -16.7247   25.4599 C   0  0  0  0  0  0  0  0  0  0  0  0
   11.7042  -15.9217   24.5695 O   0  0  0  0  0  0  0  0  0  0  0  0
    7.1805  -19.8409   24.0218 O   0  0  0  0  0  0  0  0  0  0  0  0
   12.4009  -17.0059   26.3967 O   0  0  0  0  0  0  0  0  0  0  0  0
  2  4  1  0
  2  1  1  6
  3  2  1  0
  4  6  1  0
  4  5  1  6
  6  7  2  0
  8  9  1  0
  8  6  1  0
 10 11  1  0
  9 10  1  1
 11 12  2  0
 12 13  1  0
 14 13  2  0
 15 14  1  0
 16 15  2  0
 16 11  1  0
 17 18  2  0
 17  9  1  0
 19 17  1  0
 20 19  1  0
 20 25  1  0
 20 21  1  6
 22 23  1  0
 22 21  1  0
 23 24  2  0
 25 28  1  0
 26 25  2  0
 27 23  1  0
M  END
$$$$
