TFE.pdb
     RDKit          3D

 28 28  0  0  1  0  0  0  0  0999 V2000
    8.7673  -18.8904   21.4976 C   0  0  0  0  0  0  0  0  0  0  0  0
    9.5561  -18.2253   20.4111 C   0  0  1  0  0  0  0  0  0  0  0  0
    9.5608  -19.0242   19.2696 O   0  0  0  0  0  0  0  0  0  0  0  0
    9.0263  -16.8413   20.0873 C   0  0  2  0  0  0  0  0  0  0  0  0
    9.6644  -16.2798   18.9239 N   0  0  0  0  0  0  0  0  0  0  0  0
    9.2309  -15.9123   21.2349 C   0  0  0  0  0  0  0  0  0  0  0  0
   10.2865  -15.2444   21.3890 O   0  0  0  0  0  0  0  0  0  0  0  0
    8.2121  -15.7462   22.2192 N   0  0  0  0  0  0  0  0  0  0  0  0
    8.3065  -14.8851   23.3547 C   0  0  1  0  0  0  0  0  0  0  0  0
    6.9510  -14.4538   23.8727 C   0  0  0  0  0  0  0  0  0  0  0  0
    7.0702  -13.5899   25.0714 C   0  0  0  0  0  0  0  0  0  0  0  0
    6.5998  -14.0117   26.3103 C   0  0  0  0  0  0  0  0  0  0  0  0
    6.7216  -13.1906   27.4121 C   0  0  0  0  0  0  0  0  0  0  0  0
    7.3025  -11.9360   27.3472 C   0  0  0  0  0  0  0  0  0  0  0  0
    7.7668  -11.5237   26.1157 C   0  0  0  0  0  0  0  0  0  0  0  0
    7.6472  -12.3409   25.0128 C   0  0  0  0  0  0  0  0  0  0  0  0
    9.0472  -15.5296   24.4840 C   0  0  0  0  0  0  0  0  0  0  0  0
    9.3162  -14.8935   25.5345 O   0  0  0  0  0  0  0  0  0  0  0  0
    9.4807  -16.8772   24.4298 N   0  0  0  0  0  0  0  0  0  0  0  0
   10.2308  -17.4954   25.5687 C   0  0  1  0  0  0  0  0  0  0  0  0
   11.6383  -17.0540   25.4470 C   0  0  0  0  0  0  0  0  0  0  0  0
   12.3969  -17.3392   24.2302 C   0  0  0  0  0  0  0  0  0  0  0  0
   13.8061  -16.9908   24.1288 C   0  0  0  0  0  0  0  0  0  0  0  0
   14.6395  -17.3762   25.0007 O   0  0  0  0  0  0  0  0  0  0  0  0
    9.5757  -16.9589   26.7667 C   0  0  0  0  0  0  0  0  0  0  0  0
    9.9301  -17.1431   27.9416 O   0  0  0  0  0  0  0  0  0  0  0  0
   14.3062  -16.2287   23.0826 O   0  0  0  0  0  0  0  0  0  0  0  0
    8.4300  -16.1503   26.6136 O   0  0  0  0  0  0  0  0  0  0  0  0
  2  4  1  0
  2  1  1  1
  3  2  1  0
  4  6  1  0
  4  5  1  6
  6  7  2  0
  8  9  1  0
  8  6  1  0
 10 11  1  0
  9 10  1  1
 11 12  2  0
 12 13  1  0
 14 13  2  0
 15 14  1  0
 16 15  2  0
 16 11  1  0
 17 18  2  0
 17  9  1  0
 19 17  1  0
 20 19  1  0
 20 25  1  0
 20 21  1  1
 22 23  1  0
 22 21  1  0
 23 24  2  0
 25 28  1  0
 26 25  2  0
 27 23  1  0
M  END
$$$$
