TFE.pdb
     RDKit          3D

 28 28  0  0  1  0  0  0  0  0999 V2000
    8.3844  -19.4477   19.9583 C   0  0  0  0  0  0  0  0  0  0  0  0
    8.6427  -18.3360   20.9292 C   0  0  1  0  0  0  0  0  0  0  0  0
   10.0144  -18.1727   21.1112 O   0  0  0  0  0  0  0  0  0  0  0  0
    8.0078  -17.0319   20.4851 C   0  0  2  0  0  0  0  0  0  0  0  0
    8.4415  -16.6442   19.1670 N   0  0  0  0  0  0  0  0  0  0  0  0
    8.3356  -15.9309   21.4350 C   0  0  0  0  0  0  0  0  0  0  0  0
    9.2205  -15.0683   21.1964 O   0  0  0  0  0  0  0  0  0  0  0  0
    7.6399  -15.8168   22.6749 N   0  0  0  0  0  0  0  0  0  0  0  0
    7.8568  -14.7875   23.6410 C   0  0  1  0  0  0  0  0  0  0  0  0
    6.6994  -14.6411   24.6056 C   0  0  0  0  0  0  0  0  0  0  0  0
    6.9063  -13.5132   25.5451 C   0  0  0  0  0  0  0  0  0  0  0  0
    6.3888  -12.2507   25.2766 C   0  0  0  0  0  0  0  0  0  0  0  0
    6.5941  -11.2159   26.1657 C   0  0  0  0  0  0  0  0  0  0  0  0
    7.3071  -11.3729   27.3415 C   0  0  0  0  0  0  0  0  0  0  0  0
    7.8177  -12.6274   27.6017 C   0  0  0  0  0  0  0  0  0  0  0  0
    7.6147  -13.6634   26.7164 C   0  0  0  0  0  0  0  0  0  0  0  0
    9.0972  -15.0273   24.4431 C   0  0  0  0  0  0  0  0  0  0  0  0
    9.4469  -14.2359   25.3551 O   0  0  0  0  0  0  0  0  0  0  0  0
    9.9351  -16.1475   24.2192 N   0  0  0  0  0  0  0  0  0  0  0  0
   11.2087  -16.3268   24.9860 C   0  0  1  0  0  0  0  0  0  0  0  0
   11.1610  -17.6776   25.5893 C   0  0  0  0  0  0  0  0  0  0  0  0
   10.2258  -17.9666   26.6751 C   0  0  0  0  0  0  0  0  0  0  0  0
   10.1749  -19.2860   27.2868 C   0  0  0  0  0  0  0  0  0  0  0  0
   11.0701  -19.6660   28.0976 O   0  0  0  0  0  0  0  0  0  0  0  0
   12.2617  -16.2014   23.9724 C   0  0  0  0  0  0  0  0  0  0  0  0
   12.0939  -16.1266   22.7451 O   0  0  0  0  0  0  0  0  0  0  0  0
    9.1537  -20.1865   27.0190 O   0  0  0  0  0  0  0  0  0  0  0  0
   13.6085  -16.1573   24.3896 O   0  0  0  0  0  0  0  0  0  0  0  0
  2  4  1  0
  2  1  1  6
  3  2  1  0
  4  6  1  0
  4  5  1  6
  6  7  2  0
  8  9  1  0
  8  6  1  0
 10 11  1  0
  9 10  1  1
 11 12  2  0
 12 13  1  0
 14 13  2  0
 15 14  1  0
 16 15  2  0
 16 11  1  0
 17 18  2  0
 17  9  1  0
 19 17  1  0
 20 19  1  0
 20 25  1  0
 20 21  1  6
 22 23  1  0
 22 21  1  0
 23 24  2  0
 25 28  1  0
 26 25  2  0
 27 23  1  0
M  END
$$$$
