TFE.pdb
     RDKit          3D

 28 28  0  0  1  0  0  0  0  0999 V2000
    7.6956  -19.1756   19.4567 C   0  0  0  0  0  0  0  0  0  0  0  0
    8.1771  -18.2998   20.5731 C   0  0  1  0  0  0  0  0  0  0  0  0
    9.5213  -18.5576   20.8339 O   0  0  0  0  0  0  0  0  0  0  0  0
    7.9680  -16.8275   20.2738 C   0  0  2  0  0  0  0  0  0  0  0  0
    8.6754  -16.4139   19.0887 N   0  0  0  0  0  0  0  0  0  0  0  0
    8.4219  -15.9836   21.4156 C   0  0  0  0  0  0  0  0  0  0  0  0
    9.5381  -15.4022   21.4295 O   0  0  0  0  0  0  0  0  0  0  0  0
    7.5854  -15.8033   22.5567 N   0  0  0  0  0  0  0  0  0  0  0  0
    7.9625  -15.1030   23.7430 C   0  0  1  0  0  0  0  0  0  0  0  0
    6.7714  -14.5512   24.4968 C   0  0  0  0  0  0  0  0  0  0  0  0
    7.1882  -13.7481   25.6711 C   0  0  0  0  0  0  0  0  0  0  0  0
    7.4154  -14.3460   26.9059 C   0  0  0  0  0  0  0  0  0  0  0  0
    7.8028  -13.5785   27.9849 C   0  0  0  0  0  0  0  0  0  0  0  0
    7.9814  -12.2087   27.9003 C   0  0  0  0  0  0  0  0  0  0  0  0
    7.7544  -11.6220   26.6729 C   0  0  0  0  0  0  0  0  0  0  0  0
    7.3676  -12.3850   25.5929 C   0  0  0  0  0  0  0  0  0  0  0  0
    8.7390  -15.9723   24.6814 C   0  0  0  0  0  0  0  0  0  0  0  0
    8.3034  -17.0954   25.0410 O   0  0  0  0  0  0  0  0  0  0  0  0
    9.9935  -15.5796   25.2096 N   0  0  0  0  0  0  0  0  0  0  0  0
   10.8820  -16.5630   25.9063 C   0  0  1  0  0  0  0  0  0  0  0  0
   12.2773  -16.1641   25.6145 C   0  0  0  0  0  0  0  0  0  0  0  0
   12.7604  -16.1305   24.2351 C   0  0  0  0  0  0  0  0  0  0  0  0
   14.1119  -15.6878   23.9270 C   0  0  0  0  0  0  0  0  0  0  0  0
   14.5300  -15.6455   22.7325 O   0  0  0  0  0  0  0  0  0  0  0  0
   10.5412  -16.4160   27.3256 C   0  0  0  0  0  0  0  0  0  0  0  0
   10.8500  -15.4644   28.0597 O   0  0  0  0  0  0  0  0  0  0  0  0
   15.0032  -15.2908   24.9136 O   0  0  0  0  0  0  0  0  0  0  0  0
    9.7906  -17.4307   27.9556 O   0  0  0  0  0  0  0  0  0  0  0  0
  2  4  1  0
  2  1  1  6
  3  2  1  0
  4  6  1  0
  4  5  1  6
  6  7  2  0
  8  9  1  0
  8  6  1  0
 10 11  1  0
  9 10  1  1
 11 12  2  0
 12 13  1  0
 14 13  2  0
 15 14  1  0
 16 15  2  0
 16 11  1  0
 17 18  2  0
 17  9  1  0
 19 17  1  0
 20 19  1  0
 20 25  1  0
 20 21  1  1
 22 23  1  0
 22 21  1  0
 23 24  2  0
 25 28  1  0
 26 25  2  0
 27 23  1  0
M  END
$$$$
