NSG.pdb
     RDKit          3D

 19 18  0  0  1  0  0  0  0  0999 V2000
    8.4769  -15.1298   14.5601 N   0  0  0  0  0  0  0  0  0  0  0  0
    7.9529  -13.9812   15.2066 C   0  0  0  0  0  0  0  0  0  0  0  0
    7.2926  -13.1463   14.5071 O   0  0  0  0  0  0  0  0  0  0  0  0
    8.0954  -13.6488   16.6217 C   0  0  0  0  0  0  0  0  0  0  0  0
    8.7744  -14.7197   17.4425 C   0  0  2  0  0  0  0  0  0  0  0  0
    7.9663  -15.9236   17.3843 N   0  0  0  0  0  0  0  0  0  0  0  0
    8.9276  -14.2614   18.8541 C   0  0  0  0  0  0  0  0  0  0  0  0
    9.6337  -13.2544   19.0849 O   0  0  0  0  0  0  0  0  0  0  0  0
    7.3827  -14.2380   23.3592 O   0  0  0  0  0  0  0  0  0  0  0  0
    7.2526  -14.4108   21.9810 C   0  0  0  0  0  0  0  0  0  0  0  0
    8.5617  -14.6864   21.2943 C   0  0  2  0  0  0  0  0  0  0  0  0
    8.2808  -14.9629   19.8986 N   0  0  0  0  0  0  0  0  0  0  0  0
    9.2768  -15.8657   21.8485 C   0  0  0  0  0  0  0  0  0  0  0  0
    8.9438  -17.0431   21.5589 O   0  0  0  0  0  0  0  0  0  0  0  0
   10.3738  -15.7033   22.7344 N   0  0  0  0  0  0  0  0  0  0  0  0
   11.1383  -16.8489   23.1731 C   0  0  0  0  0  0  0  0  0  0  0  0
   11.1447  -16.9141   24.6516 C   0  0  0  0  0  0  0  0  0  0  0  0
   11.8653  -17.8814   25.3598 O   0  0  0  0  0  0  0  0  0  0  0  0
   10.4759  -16.0669   25.3110 O   0  0  0  0  0  0  0  0  0  0  0  0
  2  3  2  0
  2  1  1  0
  4  2  1  0
  5  4  1  0
  5  6  1  1
  7  5  1  0
  7  8  2  0
 10  9  1  0
 11 10  1  1
 11 12  1  0
 12  7  1  0
 13 15  1  0
 13 11  1  0
 14 13  2  0
 16 15  1  0
 17 16  1  0
 18 17  1  0
 19 17  2  0
M  END
$$$$
