NSG.pdb
     RDKit          3D

 19 18  0  0  1  0  0  0  0  0999 V2000
    7.5383  -12.5943   16.9730 N   0  0  0  0  0  0  0  0  0  0  0  0
    7.5517  -13.7121   17.8461 C   0  0  0  0  0  0  0  0  0  0  0  0
    7.5571  -14.8771   17.3313 O   0  0  0  0  0  0  0  0  0  0  0  0
    7.5596  -13.6649   19.3059 C   0  0  0  0  0  0  0  0  0  0  0  0
    8.7831  -14.2859   19.9375 C   0  0  2  0  0  0  0  0  0  0  0  0
    8.7467  -15.7167   19.6982 N   0  0  0  0  0  0  0  0  0  0  0  0
    8.8023  -14.0017   21.4020 C   0  0  0  0  0  0  0  0  0  0  0  0
    8.2073  -12.9851   21.8240 O   0  0  0  0  0  0  0  0  0  0  0  0
    7.4280  -16.8216   23.8108 O   0  0  0  0  0  0  0  0  0  0  0  0
    7.6190  -15.4483   23.6567 C   0  0  0  0  0  0  0  0  0  0  0  0
    9.0688  -15.0495   23.6605 C   0  0  2  0  0  0  0  0  0  0  0  0
    9.4843  -14.8747   22.2820 N   0  0  0  0  0  0  0  0  0  0  0  0
    9.9566  -16.0751   24.2683 C   0  0  0  0  0  0  0  0  0  0  0  0
    9.7796  -16.5001   25.4383 O   0  0  0  0  0  0  0  0  0  0  0  0
   11.0482  -16.6179   23.5413 N   0  0  0  0  0  0  0  0  0  0  0  0
   12.2339  -17.0747   24.2304 C   0  0  0  0  0  0  0  0  0  0  0  0
   13.3867  -16.2193   23.8708 C   0  0  0  0  0  0  0  0  0  0  0  0
   14.6215  -16.3065   24.5221 O   0  0  0  0  0  0  0  0  0  0  0  0
   13.2620  -15.3726   22.9394 O   0  0  0  0  0  0  0  0  0  0  0  0
  2  3  2  0
  2  1  1  0
  4  2  1  0
  5  4  1  0
  5  6  1  1
  7  5  1  0
  7  8  2  0
 10  9  1  0
 11 10  1  6
 11 12  1  0
 12  7  1  0
 13 15  1  0
 13 11  1  0
 14 13  2  0
 16 15  1  0
 17 16  1  0
 18 17  1  0
 19 17  2  0
M  END
$$$$
