NSG.pdb
     RDKit          3D

 19 18  0  0  1  0  0  0  0  0999 V2000
   11.4338  -21.5692   23.9422 N   0  0  0  0  0  0  0  0  0  0  0  0
   12.3552  -21.8152   24.9922 C   0  0  0  0  0  0  0  0  0  0  0  0
   13.1518  -22.8019   24.8740 O   0  0  0  0  0  0  0  0  0  0  0  0
   12.4880  -21.0379   26.2216 C   0  0  0  0  0  0  0  0  0  0  0  0
   13.4787  -21.6080   27.2090 C   0  0  2  0  0  0  0  0  0  0  0  0
   13.0916  -22.9736   27.5107 N   0  0  0  0  0  0  0  0  0  0  0  0
   13.4937  -20.7829   28.4520 C   0  0  0  0  0  0  0  0  0  0  0  0
   13.7059  -19.5536   28.3539 O   0  0  0  0  0  0  0  0  0  0  0  0
   11.3626  -21.7829   31.7535 O   0  0  0  0  0  0  0  0  0  0  0  0
   11.9443  -20.5405   31.5000 C   0  0  0  0  0  0  0  0  0  0  0  0
   13.3389  -20.6433   30.9472 C   0  0  2  0  0  0  0  0  0  0  0  0
   13.2707  -21.3941   29.7083 N   0  0  0  0  0  0  0  0  0  0  0  0
   14.2763  -21.3584   31.8523 C   0  0  0  0  0  0  0  0  0  0  0  0
   14.4602  -22.5999   31.7746 O   0  0  0  0  0  0  0  0  0  0  0  0
   15.0061  -20.6576   32.8478 N   0  0  0  0  0  0  0  0  0  0  0  0
   15.8580  -21.3716   33.7719 C   0  0  0  0  0  0  0  0  0  0  0  0
   17.2586  -21.3371   33.2953 C   0  0  0  0  0  0  0  0  0  0  0  0
   18.3288  -21.7997   34.0681 O   0  0  0  0  0  0  0  0  0  0  0  0
   17.5096  -20.8732   32.1456 O   0  0  0  0  0  0  0  0  0  0  0  0
  2  3  2  0
  2  1  1  0
  4  2  1  0
  5  4  1  0
  5  6  1  1
  7  5  1  0
  7  8  2  0
 10  9  1  0
 11 10  1  1
 11 12  1  0
 12  7  1  0
 13 15  1  0
 13 11  1  0
 14 13  2  0
 16 15  1  0
 17 16  1  0
 18 17  1  0
 19 17  2  0
M  END
$$$$
