NSG.pdb
     RDKit          3D

 19 18  0  0  1  0  0  0  0  0999 V2000
   19.4618  -25.7369   29.2153 N   0  0  0  0  0  0  0  0  0  0  0  0
   18.3111  -25.4111   28.4525 C   0  0  0  0  0  0  0  0  0  0  0  0
   18.3130  -25.6947   27.2108 O   0  0  0  0  0  0  0  0  0  0  0  0
   17.0983  -24.7701   28.9538 C   0  0  0  0  0  0  0  0  0  0  0  0
   16.2518  -25.6553   29.8377 C   0  0  2  0  0  0  0  0  0  0  0  0
   15.6876  -26.7139   29.0211 N   0  0  0  0  0  0  0  0  0  0  0  0
   15.1671  -24.8533   30.4753 C   0  0  0  0  0  0  0  0  0  0  0  0
   14.0673  -24.7561   29.8865 O   0  0  0  0  0  0  0  0  0  0  0  0
   15.9549  -22.5733   33.9806 O   0  0  0  0  0  0  0  0  0  0  0  0
   14.7697  -23.2936   33.8294 C   0  0  0  0  0  0  0  0  0  0  0  0
   14.3592  -23.4601   32.3925 C   0  0  2  0  0  0  0  0  0  0  0  0
   15.3944  -24.2221   31.7209 N   0  0  0  0  0  0  0  0  0  0  0  0
   14.2157  -22.1684   31.6710 C   0  0  0  0  0  0  0  0  0  0  0  0
   15.1489  -21.6833   30.9819 O   0  0  0  0  0  0  0  0  0  0  0  0
   13.0064  -21.4281   31.7346 N   0  0  0  0  0  0  0  0  0  0  0  0
   12.8762  -20.1736   31.0283 C   0  0  0  0  0  0  0  0  0  0  0  0
   11.5389  -19.5912   31.2780 C   0  0  0  0  0  0  0  0  0  0  0  0
   11.1761  -18.3174   30.8282 O   0  0  0  0  0  0  0  0  0  0  0  0
   10.6822  -20.2628   31.9223 O   0  0  0  0  0  0  0  0  0  0  0  0
  2  3  2  0
  2  1  1  0
  4  2  1  0
  5  4  1  0
  5  6  1  6
  7  5  1  0
  7  8  2  0
 10  9  1  0
 11 10  1  1
 11 12  1  0
 12  7  1  0
 13 15  1  0
 13 11  1  0
 14 13  2  0
 16 15  1  0
 17 16  1  0
 18 17  1  0
 19 17  2  0
M  END
$$$$
