NSG.pdb
     RDKit          3D

 19 18  0  0  1  0  0  0  0  0999 V2000
    7.8815  -13.2228   15.0975 N   0  0  0  0  0  0  0  0  0  0  0  0
    7.5967  -14.0520   16.2125 C   0  0  0  0  0  0  0  0  0  0  0  0
    7.1519  -15.2249   15.9913 O   0  0  0  0  0  0  0  0  0  0  0  0
    7.7637  -13.6928   17.6183 C   0  0  0  0  0  0  0  0  0  0  0  0
    8.6332  -14.6481   18.4011 C   0  0  2  0  0  0  0  0  0  0  0  0
    7.9575  -15.9304   18.4718 N   0  0  0  0  0  0  0  0  0  0  0  0
    8.8780  -14.1106   19.7712 C   0  0  0  0  0  0  0  0  0  0  0  0
    9.6097  -13.1036   19.8990 O   0  0  0  0  0  0  0  0  0  0  0  0
    6.6524  -15.3445   23.1690 O   0  0  0  0  0  0  0  0  0  0  0  0
    7.4442  -14.2011   23.0601 C   0  0  0  0  0  0  0  0  0  0  0  0
    8.6908  -14.4213   22.2487 C   0  0  2  0  0  0  0  0  0  0  0  0
    8.2870  -14.7391   20.8925 N   0  0  0  0  0  0  0  0  0  0  0  0
    9.5203  -15.5507   22.7443 C   0  0  0  0  0  0  0  0  0  0  0  0
    9.4332  -16.7058   22.2552 O   0  0  0  0  0  0  0  0  0  0  0  0
   10.4513  -15.3637   23.7993 N   0  0  0  0  0  0  0  0  0  0  0  0
   11.1719  -16.4893   24.3499 C   0  0  0  0  0  0  0  0  0  0  0  0
   12.4789  -16.6318   23.6706 C   0  0  0  0  0  0  0  0  0  0  0  0
   13.6881  -16.7000   24.3704 O   0  0  0  0  0  0  0  0  0  0  0  0
   12.5161  -16.6955   22.4078 O   0  0  0  0  0  0  0  0  0  0  0  0
  2  3  2  0
  2  1  1  0
  4  2  1  0
  5  4  1  0
  5  6  1  1
  7  5  1  0
  7  8  2  0
 10  9  1  0
 11 10  1  1
 11 12  1  0
 12  7  1  0
 13 15  1  0
 13 11  1  0
 14 13  2  0
 16 15  1  0
 17 16  1  0
 18 17  1  0
 19 17  2  0
M  END
$$$$
