NSG.pdb
     RDKit          3D

 19 18  0  0  1  0  0  0  0  0999 V2000
   15.0005  -15.7496   17.2914 N   0  0  0  0  0  0  0  0  0  0  0  0
   14.9895  -14.5796   18.0933 C   0  0  0  0  0  0  0  0  0  0  0  0
   15.7560  -13.6174   17.7632 O   0  0  0  0  0  0  0  0  0  0  0  0
   14.1731  -14.3590   19.2841 C   0  0  0  0  0  0  0  0  0  0  0  0
   13.2834  -15.5242   19.6477 C   0  0  2  0  0  0  0  0  0  0  0  0
   12.2830  -15.6794   18.6080 N   0  0  0  0  0  0  0  0  0  0  0  0
   12.6315  -15.2772   20.9669 C   0  0  0  0  0  0  0  0  0  0  0  0
   12.6070  -14.1092   21.4150 O   0  0  0  0  0  0  0  0  0  0  0  0
    9.6633  -17.7264   22.3771 O   0  0  0  0  0  0  0  0  0  0  0  0
    9.9407  -16.4214   22.7849 C   0  0  0  0  0  0  0  0  0  0  0  0
   11.4102  -16.1593   22.9668 C   0  0  2  0  0  0  0  0  0  0  0  0
   12.0575  -16.3535   21.6835 N   0  0  0  0  0  0  0  0  0  0  0  0
   12.0542  -17.0835   23.9367 C   0  0  0  0  0  0  0  0  0  0  0  0
   12.7194  -18.0830   23.5632 O   0  0  0  0  0  0  0  0  0  0  0  0
   11.9402  -16.8682   25.3350 N   0  0  0  0  0  0  0  0  0  0  0  0
   12.5793  -17.7664   26.2700 C   0  0  0  0  0  0  0  0  0  0  0  0
   11.5847  -18.7167   26.8159 C   0  0  0  0  0  0  0  0  0  0  0  0
   11.8949  -19.6356   27.8237 O   0  0  0  0  0  0  0  0  0  0  0  0
   10.4046  -18.7064   26.3606 O   0  0  0  0  0  0  0  0  0  0  0  0
  2  3  2  0
  2  1  1  0
  4  2  1  0
  5  4  1  0
  5  6  1  6
  7  5  1  0
  7  8  2  0
 10  9  1  0
 11 10  1  6
 11 12  1  0
 12  7  1  0
 13 15  1  0
 13 11  1  0
 14 13  2  0
 16 15  1  0
 17 16  1  0
 18 17  1  0
 19 17  2  0
M  END
$$$$
