NSG.pdb
     RDKit          3D

 19 18  0  0  1  0  0  0  0  0999 V2000
    6.7209  -20.0511   16.9940 N   0  0  0  0  0  0  0  0  0  0  0  0
    8.0205  -20.0108   17.5610 C   0  0  0  0  0  0  0  0  0  0  0  0
    8.8513  -20.9159   17.2249 O   0  0  0  0  0  0  0  0  0  0  0  0
    8.5155  -19.0181   18.5111 C   0  0  0  0  0  0  0  0  0  0  0  0
    8.1706  -17.5924   18.1507 C   0  0  2  0  0  0  0  0  0  0  0  0
    8.7073  -17.3097   16.8325 N   0  0  0  0  0  0  0  0  0  0  0  0
    8.7459  -16.6566   19.1605 C   0  0  0  0  0  0  0  0  0  0  0  0
    9.9625  -16.3724   19.0909 O   0  0  0  0  0  0  0  0  0  0  0  0
    6.3469  -15.2033   22.3899 O   0  0  0  0  0  0  0  0  0  0  0  0
    7.2641  -14.4049   21.7062 C   0  0  0  0  0  0  0  0  0  0  0  0
    8.4297  -15.1811   21.1586 C   0  0  2  0  0  0  0  0  0  0  0  0
    7.9183  -16.1106   20.1697 N   0  0  0  0  0  0  0  0  0  0  0  0
    9.1417  -15.9762   22.1931 C   0  0  0  0  0  0  0  0  0  0  0  0
    8.8012  -17.1519   22.4808 O   0  0  0  0  0  0  0  0  0  0  0  0
   10.2442  -15.4306   22.9013 N   0  0  0  0  0  0  0  0  0  0  0  0
   10.8932  -16.1899   23.9462 C   0  0  0  0  0  0  0  0  0  0  0  0
   12.3477  -16.2665   23.6840 C   0  0  0  0  0  0  0  0  0  0  0  0
   13.2841  -16.5029   24.6958 O   0  0  0  0  0  0  0  0  0  0  0  0
   12.7722  -16.1138   22.5022 O   0  0  0  0  0  0  0  0  0  0  0  0
  2  3  2  0
  2  1  1  0
  4  2  1  0
  5  4  1  0
  5  6  1  6
  7  5  1  0
  7  8  2  0
 10  9  1  0
 11 10  1  1
 11 12  1  0
 12  7  1  0
 13 15  1  0
 13 11  1  0
 14 13  2  0
 16 15  1  0
 17 16  1  0
 18 17  1  0
 19 17  2  0
M  END
$$$$
