NSG.pdb
     RDKit          3D

 19 18  0  0  1  0  0  0  0  0999 V2000
   10.6058  -19.9845   14.5605 N   0  0  0  0  0  0  0  0  0  0  0  0
   11.1035  -19.0693   13.5979 C   0  0  0  0  0  0  0  0  0  0  0  0
   10.9619  -19.3571   12.3652 O   0  0  0  0  0  0  0  0  0  0  0  0
   11.7765  -17.8039   13.8794 C   0  0  0  0  0  0  0  0  0  0  0  0
   10.8434  -16.6230   14.0069 C   0  0  2  0  0  0  0  0  0  0  0  0
   10.6856  -16.0195   12.6967 N   0  0  0  0  0  0  0  0  0  0  0  0
   11.4011  -15.6331   14.9740 C   0  0  0  0  0  0  0  0  0  0  0  0
   12.2083  -14.7737   14.5549 O   0  0  0  0  0  0  0  0  0  0  0  0
   10.0685  -15.6367   19.0264 O   0  0  0  0  0  0  0  0  0  0  0  0
   10.3521  -14.4851   18.2919 C   0  0  0  0  0  0  0  0  0  0  0  0
   11.4553  -14.6811   17.2891 C   0  0  2  0  0  0  0  0  0  0  0  0
   11.0144  -15.6795   16.3340 N   0  0  0  0  0  0  0  0  0  0  0  0
   12.7194  -15.1722   17.8977 C   0  0  0  0  0  0  0  0  0  0  0  0
   13.1572  -16.3306   17.6800 O   0  0  0  0  0  0  0  0  0  0  0  0
   13.4864  -14.3417   18.7560 N   0  0  0  0  0  0  0  0  0  0  0  0
   14.9139  -14.5330   18.8787 C   0  0  0  0  0  0  0  0  0  0  0  0
   15.2344  -15.0942   20.2100 C   0  0  0  0  0  0  0  0  0  0  0  0
   16.5293  -15.0869   20.7387 O   0  0  0  0  0  0  0  0  0  0  0  0
   14.3088  -15.6031   20.9060 O   0  0  0  0  0  0  0  0  0  0  0  0
  2  3  2  0
  2  1  1  0
  4  2  1  0
  5  4  1  0
  5  6  1  6
  7  5  1  0
  7  8  2  0
 10  9  1  0
 11 10  1  1
 11 12  1  0
 12  7  1  0
 13 15  1  0
 13 11  1  0
 14 13  2  0
 16 15  1  0
 17 16  1  0
 18 17  1  0
 19 17  2  0
M  END
$$$$
