NSG.pdb
     RDKit          3D

 19 18  0  0  1  0  0  0  0  0999 V2000
    7.2509  -13.3350   15.7868 N   0  0  0  0  0  0  0  0  0  0  0  0
    8.3631  -13.8962   16.4649 C   0  0  0  0  0  0  0  0  0  0  0  0
    9.1052  -14.7131   15.8290 O   0  0  0  0  0  0  0  0  0  0  0  0
    8.7541  -13.6293   17.8466 C   0  0  0  0  0  0  0  0  0  0  0  0
    8.8871  -14.8675   18.7013 C   0  0  2  0  0  0  0  0  0  0  0  0
    7.6186  -15.5722   18.6884 N   0  0  0  0  0  0  0  0  0  0  0  0
    9.2597  -14.4886   20.0954 C   0  0  0  0  0  0  0  0  0  0  0  0
   10.3425  -13.8911   20.2860 O   0  0  0  0  0  0  0  0  0  0  0  0
    6.5912  -15.2708   23.3113 O   0  0  0  0  0  0  0  0  0  0  0  0
    7.5894  -14.2973   23.3578 C   0  0  0  0  0  0  0  0  0  0  0  0
    8.8059  -14.6601   22.5519 C   0  0  2  0  0  0  0  0  0  0  0  0
    8.3945  -14.8060   21.1688 N   0  0  0  0  0  0  0  0  0  0  0  0
    9.4250  -15.9446   22.9719 C   0  0  0  0  0  0  0  0  0  0  0  0
    8.8470  -17.0486   22.8044 O   0  0  0  0  0  0  0  0  0  0  0  0
   10.7054  -15.9712   23.5839 N   0  0  0  0  0  0  0  0  0  0  0  0
   10.8394  -15.7959   25.0125 C   0  0  0  0  0  0  0  0  0  0  0  0
   10.7018  -17.1015   25.6954 C   0  0  0  0  0  0  0  0  0  0  0  0
   11.7918  -17.7797   26.2508 O   0  0  0  0  0  0  0  0  0  0  0  0
    9.5583  -17.6346   25.7864 O   0  0  0  0  0  0  0  0  0  0  0  0
  2  3  2  0
  2  1  1  0
  4  2  1  0
  5  4  1  0
  5  6  1  1
  7  5  1  0
  7  8  2  0
 10  9  1  0
 11 10  1  1
 11 12  1  0
 12  7  1  0
 13 15  1  0
 13 11  1  0
 14 13  2  0
 16 15  1  0
 17 16  1  0
 18 17  1  0
 19 17  2  0
M  END
$$$$
