NSG.pdb
     RDKit          3D

 19 18  0  0  1  0  0  0  0  0999 V2000
    9.2508  -15.6262   13.9973 N   0  0  0  0  0  0  0  0  0  0  0  0
   10.4727  -15.7988   14.6967 C   0  0  0  0  0  0  0  0  0  0  0  0
   11.2793  -16.6947   14.2856 O   0  0  0  0  0  0  0  0  0  0  0  0
   10.9113  -15.0397   15.8649 C   0  0  0  0  0  0  0  0  0  0  0  0
   11.1252  -15.8790   17.1024 C   0  0  2  0  0  0  0  0  0  0  0  0
    9.8869  -16.5720   17.4063 N   0  0  0  0  0  0  0  0  0  0  0  0
   11.5314  -15.0101   18.2452 C   0  0  0  0  0  0  0  0  0  0  0  0
   11.4404  -13.7687   18.1174 O   0  0  0  0  0  0  0  0  0  0  0  0
   10.1917  -15.0127   21.8386 O   0  0  0  0  0  0  0  0  0  0  0  0
   10.9818  -14.1683   21.0582 C   0  0  0  0  0  0  0  0  0  0  0  0
   12.2754  -14.8018   20.6269 C   0  0  2  0  0  0  0  0  0  0  0  0
   12.0078  -15.5946   19.4423 N   0  0  0  0  0  0  0  0  0  0  0  0
   12.8528  -15.7105   21.6518 C   0  0  0  0  0  0  0  0  0  0  0  0
   12.2602  -16.7545   22.0259 O   0  0  0  0  0  0  0  0  0  0  0  0
   14.1081  -15.4293   22.2516 N   0  0  0  0  0  0  0  0  0  0  0  0
   14.5088  -16.1043   23.4654 C   0  0  0  0  0  0  0  0  0  0  0  0
   15.8538  -15.6443   23.8772 C   0  0  0  0  0  0  0  0  0  0  0  0
   16.4903  -16.1144   25.0305 O   0  0  0  0  0  0  0  0  0  0  0  0
   16.4610  -14.7926   23.1658 O   0  0  0  0  0  0  0  0  0  0  0  0
  2  3  2  0
  2  1  1  0
  4  2  1  0
  5  4  1  0
  5  6  1  1
  7  5  1  0
  7  8  2  0
 10  9  1  0
 11 10  1  1
 11 12  1  0
 12  7  1  0
 13 15  1  0
 13 11  1  0
 14 13  2  0
 16 15  1  0
 17 16  1  0
 18 17  1  0
 19 17  2  0
M  END
$$$$
