NSG.pdb
     RDKit          3D

 19 18  0  0  1  0  0  0  0  0999 V2000
   12.9161  -17.7117   17.6178 N   0  0  0  0  0  0  0  0  0  0  0  0
   13.5431  -18.3354   18.7268 C   0  0  0  0  0  0  0  0  0  0  0  0
   14.1388  -19.4447   18.5350 O   0  0  0  0  0  0  0  0  0  0  0  0
   13.5770  -17.8269   20.0955 C   0  0  0  0  0  0  0  0  0  0  0  0
   13.2580  -18.8627   21.1475 C   0  0  2  0  0  0  0  0  0  0  0  0
   12.1370  -19.6584   20.6828 N   0  0  0  0  0  0  0  0  0  0  0  0
   12.9238  -18.1937   22.4386 C   0  0  0  0  0  0  0  0  0  0  0  0
   13.7255  -17.3534   22.9044 O   0  0  0  0  0  0  0  0  0  0  0  0
    9.7801  -16.5770   23.4074 O   0  0  0  0  0  0  0  0  0  0  0  0
   10.0210  -17.4888   24.4355 C   0  0  0  0  0  0  0  0  0  0  0  0
   11.4295  -18.0152   24.4398 C   0  0  2  0  0  0  0  0  0  0  0  0
   11.7204  -18.5148   23.1097 N   0  0  0  0  0  0  0  0  0  0  0  0
   11.6323  -19.1375   25.3930 C   0  0  0  0  0  0  0  0  0  0  0  0
   11.7914  -20.3222   25.0028 O   0  0  0  0  0  0  0  0  0  0  0  0
   11.6540  -18.9096   26.7938 N   0  0  0  0  0  0  0  0  0  0  0  0
   11.8227  -20.0116   27.7139 C   0  0  0  0  0  0  0  0  0  0  0  0
   11.8053  -19.5122   29.1068 C   0  0  0  0  0  0  0  0  0  0  0  0
   11.9396  -20.3587   30.2122 O   0  0  0  0  0  0  0  0  0  0  0  0
   11.6640  -18.2731   29.3180 O   0  0  0  0  0  0  0  0  0  0  0  0
  2  3  2  0
  2  1  1  0
  4  2  1  0
  5  4  1  0
  5  6  1  6
  7  5  1  0
  7  8  2  0
 10  9  1  0
 11 10  1  6
 11 12  1  0
 12  7  1  0
 13 15  1  0
 13 11  1  0
 14 13  2  0
 16 15  1  0
 17 16  1  0
 18 17  1  0
 19 17  2  0
M  END
$$$$
