NSG.pdb
     RDKit          3D

 19 18  0  0  1  0  0  0  0  0999 V2000
    6.8965  -16.6802   13.0476 N   0  0  0  0  0  0  0  0  0  0  0  0
    8.0834  -17.1753   13.6459 C   0  0  0  0  0  0  0  0  0  0  0  0
    8.4823  -18.3392   13.3165 O   0  0  0  0  0  0  0  0  0  0  0  0
    8.9133  -16.4741   14.6220 C   0  0  0  0  0  0  0  0  0  0  0  0
    8.3293  -15.1673   15.1044 C   0  0  2  0  0  0  0  0  0  0  0  0
    8.4391  -14.1931   14.0345 N   0  0  0  0  0  0  0  0  0  0  0  0
    9.0614  -14.6968   16.3162 C   0  0  0  0  0  0  0  0  0  0  0  0
   10.2966  -14.5129   16.2376 O   0  0  0  0  0  0  0  0  0  0  0  0
    6.9116  -13.7374   19.8790 O   0  0  0  0  0  0  0  0  0  0  0  0
    8.0437  -13.0606   19.4244 C   0  0  0  0  0  0  0  0  0  0  0  0
    9.0174  -13.9540   18.7070 C   0  0  2  0  0  0  0  0  0  0  0  0
    8.3577  -14.4679   17.5220 N   0  0  0  0  0  0  0  0  0  0  0  0
    9.4496  -15.1211   19.5197 C   0  0  0  0  0  0  0  0  0  0  0  0
    8.8144  -16.2063   19.5170 O   0  0  0  0  0  0  0  0  0  0  0  0
   10.6080  -15.0518   20.3369 N   0  0  0  0  0  0  0  0  0  0  0  0
   10.8807  -16.0835   21.3120 C   0  0  0  0  0  0  0  0  0  0  0  0
   12.1745  -15.8170   21.9790 C   0  0  0  0  0  0  0  0  0  0  0  0
   12.6670  -16.6176   23.0148 O   0  0  0  0  0  0  0  0  0  0  0  0
   12.8710  -14.8291   21.6059 O   0  0  0  0  0  0  0  0  0  0  0  0
  2  3  2  0
  2  1  1  0
  4  2  1  0
  5  4  1  0
  5  6  1  6
  7  5  1  0
  7  8  2  0
 10  9  1  0
 11 10  1  1
 11 12  1  0
 12  7  1  0
 13 15  1  0
 13 11  1  0
 14 13  2  0
 16 15  1  0
 17 16  1  0
 18 17  1  0
 19 17  2  0
M  END
$$$$
