NSG.pdb
     RDKit          3D

 19 18  0  0  1  0  0  0  0  0999 V2000
    8.4428  -15.8678   14.8439 N   0  0  0  0  0  0  0  0  0  0  0  0
    8.1435  -14.5144   15.1451 C   0  0  0  0  0  0  0  0  0  0  0  0
    7.7421  -13.7626   14.1986 O   0  0  0  0  0  0  0  0  0  0  0  0
    8.2506  -13.8795   16.4561 C   0  0  0  0  0  0  0  0  0  0  0  0
    8.8318  -14.7706   17.5284 C   0  0  2  0  0  0  0  0  0  0  0  0
    8.0719  -16.0065   17.5593 N   0  0  0  0  0  0  0  0  0  0  0  0
    8.7682  -14.0852   18.8521 C   0  0  0  0  0  0  0  0  0  0  0  0
    9.3899  -13.0097   19.0017 O   0  0  0  0  0  0  0  0  0  0  0  0
    6.1321  -15.4643   21.9443 O   0  0  0  0  0  0  0  0  0  0  0  0
    6.5228  -14.1477   21.6992 C   0  0  0  0  0  0  0  0  0  0  0  0
    7.9418  -14.0332   21.2151 C   0  0  2  0  0  0  0  0  0  0  0  0
    8.0154  -14.6539   19.9064 N   0  0  0  0  0  0  0  0  0  0  0  0
    8.9184  -14.7274   22.0947 C   0  0  0  0  0  0  0  0  0  0  0  0
    9.0603  -14.4196   23.3055 O   0  0  0  0  0  0  0  0  0  0  0  0
    9.7350  -15.7747   21.5937 N   0  0  0  0  0  0  0  0  0  0  0  0
   10.4962  -16.6076   22.4971 C   0  0  0  0  0  0  0  0  0  0  0  0
   11.9206  -16.2071   22.4723 C   0  0  0  0  0  0  0  0  0  0  0  0
   12.8789  -16.7799   23.3149 O   0  0  0  0  0  0  0  0  0  0  0  0
   12.2977  -15.3127   21.6612 O   0  0  0  0  0  0  0  0  0  0  0  0
  2  3  2  0
  2  1  1  0
  4  2  1  0
  5  4  1  0
  5  6  1  1
  7  5  1  0
  7  8  2  0
 10  9  1  0
 11 10  1  1
 11 12  1  0
 12  7  1  0
 13 15  1  0
 13 11  1  0
 14 13  2  0
 16 15  1  0
 17 16  1  0
 18 17  1  0
 19 17  2  0
M  END
$$$$
