NSG.pdb
     RDKit          3D

 19 18  0  0  1  0  0  0  0  0999 V2000
    7.3564  -13.1902   15.2234 N   0  0  0  0  0  0  0  0  0  0  0  0
    8.6129  -13.7716   15.5320 C   0  0  0  0  0  0  0  0  0  0  0  0
    9.0979  -14.6223   14.7174 O   0  0  0  0  0  0  0  0  0  0  0  0
    9.4257  -13.4904   16.7124 C   0  0  0  0  0  0  0  0  0  0  0  0
    9.9204  -14.7240   17.4300 C   0  0  2  0  0  0  0  0  0  0  0  0
    8.7806  -15.5736   17.7210 N   0  0  0  0  0  0  0  0  0  0  0  0
   10.6182  -14.3365   18.6907 C   0  0  0  0  0  0  0  0  0  0  0  0
   11.6312  -13.6059   18.6158 O   0  0  0  0  0  0  0  0  0  0  0  0
    9.1960  -15.8287   22.4020 O   0  0  0  0  0  0  0  0  0  0  0  0
    9.8722  -14.6124   22.3033 C   0  0  0  0  0  0  0  0  0  0  0  0
   10.8611  -14.5769   21.1711 C   0  0  2  0  0  0  0  0  0  0  0  0
   10.1307  -14.7948   19.9372 N   0  0  0  0  0  0  0  0  0  0  0  0
   11.9006  -15.6349   21.2681 C   0  0  0  0  0  0  0  0  0  0  0  0
   11.7775  -16.7444   20.6895 O   0  0  0  0  0  0  0  0  0  0  0  0
   13.0829  -15.4283   22.0258 N   0  0  0  0  0  0  0  0  0  0  0  0
   14.0425  -16.4962   22.1939 C   0  0  0  0  0  0  0  0  0  0  0  0
   15.2064  -16.0104   22.9681 C   0  0  0  0  0  0  0  0  0  0  0  0
   16.2478  -16.8528   23.3710 O   0  0  0  0  0  0  0  0  0  0  0  0
   15.2727  -14.7871   23.2834 O   0  0  0  0  0  0  0  0  0  0  0  0
  2  3  2  0
  2  1  1  0
  4  2  1  0
  5  4  1  0
  5  6  1  1
  7  5  1  0
  7  8  2  0
 10  9  1  0
 11 10  1  1
 11 12  1  0
 12  7  1  0
 13 15  1  0
 13 11  1  0
 14 13  2  0
 16 15  1  0
 17 16  1  0
 18 17  1  0
 19 17  2  0
M  END
$$$$
