NSG.pdb
     RDKit          3D

 19 18  0  0  1  0  0  0  0  0999 V2000
    6.3128  -29.7437   35.3931 N   0  0  0  0  0  0  0  0  0  0  0  0
    6.3580  -29.7274   33.9755 C   0  0  0  0  0  0  0  0  0  0  0  0
    5.7389  -30.6439   33.3438 O   0  0  0  0  0  0  0  0  0  0  0  0
    7.0561  -28.7479   33.1470 C   0  0  0  0  0  0  0  0  0  0  0  0
    7.7604  -27.6657   33.9308 C   0  0  2  0  0  0  0  0  0  0  0  0
    6.7568  -26.7991   34.5202 N   0  0  0  0  0  0  0  0  0  0  0  0
    8.6601  -26.8864   33.0312 C   0  0  0  0  0  0  0  0  0  0  0  0
    9.6642  -27.4550   32.5472 O   0  0  0  0  0  0  0  0  0  0  0  0
    7.3467  -23.1993   31.6628 O   0  0  0  0  0  0  0  0  0  0  0  0
    8.2869  -23.9498   30.9565 C   0  0  0  0  0  0  0  0  0  0  0  0
    9.1984  -24.7457   31.8491 C   0  0  2  0  0  0  0  0  0  0  0  0
    8.3689  -25.5325   32.7416 N   0  0  0  0  0  0  0  0  0  0  0  0
   10.0809  -23.8966   32.6916 C   0  0  0  0  0  0  0  0  0  0  0  0
    9.7889  -23.6060   33.8795 O   0  0  0  0  0  0  0  0  0  0  0  0
   11.2987  -23.3778   32.1794 N   0  0  0  0  0  0  0  0  0  0  0  0
   12.1228  -22.5076   32.9876 C   0  0  0  0  0  0  0  0  0  0  0  0
   13.2901  -22.0474   32.2030 C   0  0  0  0  0  0  0  0  0  0  0  0
   14.2080  -21.1139   32.6953 O   0  0  0  0  0  0  0  0  0  0  0  0
   13.4750  -22.5098   31.0401 O   0  0  0  0  0  0  0  0  0  0  0  0
  2  3  2  0
  2  1  1  0
  4  2  1  0
  5  4  1  0
  5  6  1  6
  7  5  1  0
  7  8  2  0
 10  9  1  0
 11 10  1  6
 11 12  1  0
 12  7  1  0
 13 15  1  0
 13 11  1  0
 14 13  2  0
 16 15  1  0
 17 16  1  0
 18 17  1  0
 19 17  2  0
M  END
$$$$
