MGK.pdb
     RDKit          3D

 22 21  0  0  1  0  0  0  0  0999 V2000
   26.4372  -15.0210  -19.3026 C   0  0  0  0  0  0  0  0  0  0  0  0
   28.0069  -14.1720  -19.0390 S   0  0  0  0  0  0  0  0  0  0  0  0
   28.1083  -13.4015  -17.4223 C   0  0  0  0  0  0  0  0  0  0  0  0
   27.4368  -12.0440  -17.3905 C   0  0  0  0  0  0  0  0  0  0  0  0
   27.4956  -11.4785  -15.9812 C   0  0  2  0  0  0  0  0  0  0  0  0
   26.8609  -12.3699  -15.0332 N   0  0  0  0  0  0  0  0  0  0  0  0
   26.7317  -10.2067  -16.0031 C   0  0  0  0  0  0  0  0  0  0  0  0
   27.1539   -9.2144  -16.6280 O   0  0  0  0  0  0  0  0  0  0  0  0
   25.5117  -10.1693  -15.2886 N   0  0  0  0  0  0  0  0  0  0  0  0
   24.6537   -9.0148  -15.3594 C   0  0  0  0  0  0  0  0  0  0  0  0
   23.4334   -9.2877  -16.1825 C   0  0  0  0  0  0  0  0  0  0  0  0
   23.5434   -9.8330  -17.3325 O   0  0  0  0  0  0  0  0  0  0  0  0
   22.1489   -8.9596  -15.7274 N   0  0  0  0  0  0  0  0  0  0  0  0
   20.9090   -9.2899  -16.4913 C   0  0  1  0  0  0  0  0  0  0  0  0
   19.8728   -9.7174  -15.5716 C   0  0  0  0  0  0  0  0  0  0  0  0
   18.7015  -10.5162  -15.8739 C   0  0  0  0  0  0  0  0  0  0  0  0
   18.6064  -11.9194  -15.3765 C   0  0  0  0  0  0  0  0  0  0  0  0
   17.4912  -12.7814  -15.7859 C   0  0  0  0  0  0  0  0  0  0  0  0
   17.6725  -14.1797  -15.4045 N   0  0  0  0  0  0  0  0  0  0  0  0
   20.6730   -8.1266  -17.3436 C   0  0  0  0  0  0  0  0  0  0  0  0
   19.9315   -8.2693  -18.5148 O   0  0  0  0  0  0  0  0  0  0  0  0
   21.0539   -6.9481  -17.1808 O   0  0  0  0  0  0  0  0  0  0  0  0
  2  1  1  0
  3  2  1  0
  4  3  1  0
  4  5  1  0
  5  6  1  1
  7  5  1  0
  7  8  2  0
  9  7  1  0
 10  9  1  0
 10 11  1  0
 11 13  1  0
 12 11  2  0
 13 14  1  0
 14 20  1  0
 14 15  1  1
 15 16  1  0
 16 17  1  0
 18 17  1  0
 19 18  1  0
 20 21  1  0
 22 20  2  0
M  END
$$$$
