MGK.pdb
     RDKit          3D

 22 21  0  0  1  0  0  0  0  0999 V2000
   33.1103  -23.1741   -9.6841 C   0  0  0  0  0  0  0  0  0  0  0  0
   32.0172  -21.7468   -9.8323 S   0  0  0  0  0  0  0  0  0  0  0  0
   30.7154  -22.0008  -11.0400 C   0  0  0  0  0  0  0  0  0  0  0  0
   29.7383  -20.8440  -11.0824 C   0  0  0  0  0  0  0  0  0  0  0  0
   28.6331  -21.1458  -12.0807 C   0  0  2  0  0  0  0  0  0  0  0  0
   29.1741  -21.3957  -13.4002 N   0  0  0  0  0  0  0  0  0  0  0  0
   27.7833  -19.9317  -12.1516 C   0  0  0  0  0  0  0  0  0  0  0  0
   27.1016  -19.5667  -11.1740 O   0  0  0  0  0  0  0  0  0  0  0  0
   27.7802  -19.2110  -13.3685 N   0  0  0  0  0  0  0  0  0  0  0  0
   26.9240  -18.0662  -13.5424 C   0  0  0  0  0  0  0  0  0  0  0  0
   25.4868  -18.4686  -13.6588 C   0  0  0  0  0  0  0  0  0  0  0  0
   24.6538  -18.1467  -12.7454 O   0  0  0  0  0  0  0  0  0  0  0  0
   25.0130  -19.2010  -14.7562 N   0  0  0  0  0  0  0  0  0  0  0  0
   23.5838  -19.6078  -14.9034 C   0  0  1  0  0  0  0  0  0  0  0  0
   22.9666  -18.8343  -15.9633 C   0  0  0  0  0  0  0  0  0  0  0  0
   21.8140  -19.1989  -16.7632 C   0  0  0  0  0  0  0  0  0  0  0  0
   21.3396  -18.2896  -17.8466 C   0  0  0  0  0  0  0  0  0  0  0  0
   20.1347  -18.6153  -18.6188 C   0  0  0  0  0  0  0  0  0  0  0  0
   19.8810  -17.6819  -19.7134 N   0  0  0  0  0  0  0  0  0  0  0  0
   23.6179  -21.0649  -15.0087 C   0  0  0  0  0  0  0  0  0  0  0  0
   24.7076  -21.6868  -15.6149 O   0  0  0  0  0  0  0  0  0  0  0  0
   22.7722  -21.8969  -14.6174 O   0  0  0  0  0  0  0  0  0  0  0  0
  2  1  1  0
  3  2  1  0
  4  3  1  0
  4  5  1  0
  5  6  1  6
  7  5  1  0
  7  8  2  0
  9  7  1  0
 10  9  1  0
 10 11  1  0
 11 13  1  0
 12 11  2  0
 13 14  1  0
 14 20  1  0
 14 15  1  6
 15 16  1  0
 16 17  1  0
 18 17  1  0
 19 18  1  0
 20 21  1  0
 22 20  2  0
M  END
$$$$
