MGK.pdb
     RDKit          3D

 22 21  0  0  1  0  0  0  0  0999 V2000
   23.3977  -15.1935  -20.0497 C   0  0  0  0  0  0  0  0  0  0  0  0
   22.0128  -14.9218  -18.9261 S   0  0  0  0  0  0  0  0  0  0  0  0
   22.4541  -13.8867  -17.5292 C   0  0  0  0  0  0  0  0  0  0  0  0
   23.1915  -12.6335  -17.9540 C   0  0  0  0  0  0  0  0  0  0  0  0
   23.5993  -11.8397  -16.7241 C   0  0  2  0  0  0  0  0  0  0  0  0
   22.4413  -11.4361  -15.9545 N   0  0  0  0  0  0  0  0  0  0  0  0
   24.2774  -10.6151  -17.2160 C   0  0  0  0  0  0  0  0  0  0  0  0
   25.3894  -10.6773  -17.7754 O   0  0  0  0  0  0  0  0  0  0  0  0
   23.6116   -9.3822  -17.0239 N   0  0  0  0  0  0  0  0  0  0  0  0
   24.1074   -8.1762  -17.6352 C   0  0  0  0  0  0  0  0  0  0  0  0
   23.2082   -7.0115  -17.3593 C   0  0  0  0  0  0  0  0  0  0  0  0
   23.5349   -5.8408  -17.7524 O   0  0  0  0  0  0  0  0  0  0  0  0
   21.9964   -7.1628  -16.6712 N   0  0  0  0  0  0  0  0  0  0  0  0
   21.0624   -6.0263  -16.4144 C   0  0  1  0  0  0  0  0  0  0  0  0
   19.7478   -6.3533  -16.9314 C   0  0  0  0  0  0  0  0  0  0  0  0
   18.9465   -5.5758  -17.8559 C   0  0  0  0  0  0  0  0  0  0  0  0
   17.5951   -6.0599  -18.2619 C   0  0  0  0  0  0  0  0  0  0  0  0
   16.8019   -5.3160  -19.2477 C   0  0  0  0  0  0  0  0  0  0  0  0
   15.4349   -5.8129  -19.3819 N   0  0  0  0  0  0  0  0  0  0  0  0
   21.2174   -5.7279  -14.9923 C   0  0  0  0  0  0  0  0  0  0  0  0
   20.7723   -4.5059  -14.4919 O   0  0  0  0  0  0  0  0  0  0  0  0
   21.7175   -6.4382  -14.0946 O   0  0  0  0  0  0  0  0  0  0  0  0
  2  1  1  0
  3  2  1  0
  4  3  1  0
  4  5  1  0
  5  6  1  6
  7  5  1  0
  7  8  2  0
  9  7  1  0
 10  9  1  0
 10 11  1  0
 11 13  1  0
 12 11  2  0
 13 14  1  0
 14 20  1  0
 14 15  1  1
 15 16  1  0
 16 17  1  0
 18 17  1  0
 19 18  1  0
 20 21  1  0
 22 20  2  0
M  END
$$$$
