MGK.pdb
     RDKit          3D

 22 21  0  0  1  0  0  0  0  0999 V2000
   26.7449  -17.8355  -15.2852 C   0  0  0  0  0  0  0  0  0  0  0  0
   28.2892  -18.6042  -14.7576 S   0  0  0  0  0  0  0  0  0  0  0  0
   28.0239  -19.9861  -13.6452 C   0  0  0  0  0  0  0  0  0  0  0  0
   27.0353  -19.6563  -12.5458 C   0  0  0  0  0  0  0  0  0  0  0  0
   26.7805  -20.8932  -11.7007 C   0  0  2  0  0  0  0  0  0  0  0  0
   26.3166  -21.9967  -12.5152 N   0  0  0  0  0  0  0  0  0  0  0  0
   25.7023  -20.5385  -10.7452 C   0  0  0  0  0  0  0  0  0  0  0  0
   25.8624  -19.6338   -9.9029 O   0  0  0  0  0  0  0  0  0  0  0  0
   24.4929  -21.2666  -10.8308 N   0  0  0  0  0  0  0  0  0  0  0  0
   23.2616  -20.7072  -10.3358 C   0  0  0  0  0  0  0  0  0  0  0  0
   22.3379  -20.3380  -11.4547 C   0  0  0  0  0  0  0  0  0  0  0  0
   22.4558  -19.2079  -12.0383 O   0  0  0  0  0  0  0  0  0  0  0  0
   21.3280  -21.2056  -11.8933 N   0  0  0  0  0  0  0  0  0  0  0  0
   20.7435  -21.1413  -13.2659 C   0  0  1  0  0  0  0  0  0  0  0  0
   21.7164  -21.6182  -14.2295 C   0  0  0  0  0  0  0  0  0  0  0  0
   22.5911  -22.7672  -14.1031 C   0  0  0  0  0  0  0  0  0  0  0  0
   23.5019  -23.1388  -15.2246 C   0  0  0  0  0  0  0  0  0  0  0  0
   24.3258  -24.3510  -15.1454 C   0  0  0  0  0  0  0  0  0  0  0  0
   25.1565  -24.5624  -16.3281 N   0  0  0  0  0  0  0  0  0  0  0  0
   19.4540  -21.8199  -13.1563 C   0  0  0  0  0  0  0  0  0  0  0  0
   19.1466  -22.5331  -11.9992 O   0  0  0  0  0  0  0  0  0  0  0  0
   18.5224  -21.8670  -13.9871 O   0  0  0  0  0  0  0  0  0  0  0  0
  2  1  1  0
  3  2  1  0
  4  3  1  0
  4  5  1  0
  5  6  1  6
  7  5  1  0
  7  8  2  0
  9  7  1  0
 10  9  1  0
 10 11  1  0
 11 13  1  0
 12 11  2  0
 13 14  1  0
 14 20  1  0
 14 15  1  6
 15 16  1  0
 16 17  1  0
 18 17  1  0
 19 18  1  0
 20 21  1  0
 22 20  2  0
M  END
$$$$
