MGK.pdb
     RDKit          3D

 22 21  0  0  1  0  0  0  0  0999 V2000
   28.4597  -17.8077   -5.0165 C   0  0  0  0  0  0  0  0  0  0  0  0
   28.6525  -19.5636   -5.3819 S   0  0  0  0  0  0  0  0  0  0  0  0
   29.2147  -19.8587   -7.0595 C   0  0  0  0  0  0  0  0  0  0  0  0
   28.1466  -19.5435   -8.0865 C   0  0  0  0  0  0  0  0  0  0  0  0
   27.1826  -20.7130   -8.1957 C   0  0  2  0  0  0  0  0  0  0  0  0
   27.7874  -21.8254   -8.8978 N   0  0  0  0  0  0  0  0  0  0  0  0
   26.0266  -20.2358   -8.9940 C   0  0  0  0  0  0  0  0  0  0  0  0
   25.3936  -19.2150   -8.6611 O   0  0  0  0  0  0  0  0  0  0  0  0
   25.6762  -20.9845  -10.1416 N   0  0  0  0  0  0  0  0  0  0  0  0
   24.4990  -20.6549  -10.9029 C   0  0  0  0  0  0  0  0  0  0  0  0
   24.7357  -20.8080  -12.3731 C   0  0  0  0  0  0  0  0  0  0  0  0
   25.8556  -21.2497  -12.8006 O   0  0  0  0  0  0  0  0  0  0  0  0
   23.7528  -20.4773  -13.3163 N   0  0  0  0  0  0  0  0  0  0  0  0
   23.8870  -20.7892  -14.7705 C   0  0  1  0  0  0  0  0  0  0  0  0
   22.5918  -21.1576  -15.3083 C   0  0  0  0  0  0  0  0  0  0  0  0
   22.1837  -22.4542  -15.8120 C   0  0  0  0  0  0  0  0  0  0  0  0
   21.5960  -23.4640  -14.8844 C   0  0  0  0  0  0  0  0  0  0  0  0
   21.2537  -24.8078  -15.3654 C   0  0  0  0  0  0  0  0  0  0  0  0
   20.8411  -25.7151  -14.2976 N   0  0  0  0  0  0  0  0  0  0  0  0
   24.5960  -19.6433  -15.3356 C   0  0  0  0  0  0  0  0  0  0  0  0
   25.6355  -19.8534  -16.2397 O   0  0  0  0  0  0  0  0  0  0  0  0
   24.4083  -18.4264  -15.1248 O   0  0  0  0  0  0  0  0  0  0  0  0
  2  1  1  0
  3  2  1  0
  4  3  1  0
  4  5  1  0
  5  6  1  6
  7  5  1  0
  7  8  2  0
  9  7  1  0
 10  9  1  0
 10 11  1  0
 11 13  1  0
 12 11  2  0
 13 14  1  0
 14 20  1  0
 14 15  1  6
 15 16  1  0
 16 17  1  0
 18 17  1  0
 19 18  1  0
 20 21  1  0
 22 20  2  0
M  END
$$$$
