MGK.pdb
     RDKit          3D

 22 21  0  0  1  0  0  0  0  0999 V2000
   26.2688  -19.5753   -8.5485 C   0  0  0  0  0  0  0  0  0  0  0  0
   25.6885  -21.2417   -8.9232 S   0  0  0  0  0  0  0  0  0  0  0  0
   26.6357  -22.0211  -10.2319 C   0  0  0  0  0  0  0  0  0  0  0  0
   27.0049  -21.0468  -11.3315 C   0  0  0  0  0  0  0  0  0  0  0  0
   25.9413  -21.0748  -12.4165 C   0  0  2  0  0  0  0  0  0  0  0  0
   25.8446  -22.3873  -13.0201 N   0  0  0  0  0  0  0  0  0  0  0  0
   26.3771  -20.1161  -13.4616 C   0  0  0  0  0  0  0  0  0  0  0  0
   27.2338  -20.4350  -14.3088 O   0  0  0  0  0  0  0  0  0  0  0  0
   25.7822  -18.8330  -13.4548 N   0  0  0  0  0  0  0  0  0  0  0  0
   25.9580  -17.9356  -14.5674 C   0  0  0  0  0  0  0  0  0  0  0  0
   24.6802  -17.7415  -15.3229 C   0  0  0  0  0  0  0  0  0  0  0  0
   23.6313  -18.3890  -14.9876 O   0  0  0  0  0  0  0  0  0  0  0  0
   24.5919  -16.8570  -16.4068 N   0  0  0  0  0  0  0  0  0  0  0  0
   23.3367  -16.6584  -17.1911 C   0  0  1  0  0  0  0  0  0  0  0  0
   23.1709  -15.2495  -17.4911 C   0  0  0  0  0  0  0  0  0  0  0  0
   21.9316  -14.5448  -17.7535 C   0  0  0  0  0  0  0  0  0  0  0  0
   21.9613  -13.1130  -18.1714 C   0  0  0  0  0  0  0  0  0  0  0  0
   20.7156  -12.3467  -18.2954 C   0  0  0  0  0  0  0  0  0  0  0  0
   20.9275  -10.9664  -18.7241 N   0  0  0  0  0  0  0  0  0  0  0  0
   23.4256  -17.6176  -18.2898 C   0  0  0  0  0  0  0  0  0  0  0  0
   22.2610  -18.1746  -18.8145 O   0  0  0  0  0  0  0  0  0  0  0  0
   24.4440  -18.0470  -18.8722 O   0  0  0  0  0  0  0  0  0  0  0  0
  2  1  1  0
  3  2  1  0
  4  3  1  0
  4  5  1  0
  5  6  1  6
  7  5  1  0
  7  8  2  0
  9  7  1  0
 10  9  1  0
 10 11  1  0
 11 13  1  0
 12 11  2  0
 13 14  1  0
 14 20  1  0
 14 15  1  6
 15 16  1  0
 16 17  1  0
 18 17  1  0
 19 18  1  0
 20 21  1  0
 22 20  2  0
M  END
$$$$
