MGK.pdb
     RDKit          3D

 22 21  0  0  1  0  0  0  0  0999 V2000
   26.3640  -18.8793   -6.6707 C   0  0  0  0  0  0  0  0  0  0  0  0
   27.6284  -20.0202   -7.2655 S   0  0  0  0  0  0  0  0  0  0  0  0
   27.0446  -21.0518   -8.6118 C   0  0  0  0  0  0  0  0  0  0  0  0
   26.6886  -20.2427   -9.8420 C   0  0  0  0  0  0  0  0  0  0  0  0
   26.0695  -21.1526  -10.8897 C   0  0  2  0  0  0  0  0  0  0  0  0
   26.8062  -22.3936  -11.0056 N   0  0  0  0  0  0  0  0  0  0  0  0
   26.1663  -20.4347  -12.1846 C   0  0  0  0  0  0  0  0  0  0  0  0
   25.4291  -19.4618  -12.4363 O   0  0  0  0  0  0  0  0  0  0  0  0
   27.1251  -20.8991  -13.1148 N   0  0  0  0  0  0  0  0  0  0  0  0
   27.3414  -20.2029  -14.3568 C   0  0  0  0  0  0  0  0  0  0  0  0
   26.1468  -20.2976  -15.2540 C   0  0  0  0  0  0  0  0  0  0  0  0
   25.9896  -21.3162  -16.0087 O   0  0  0  0  0  0  0  0  0  0  0  0
   25.1752  -19.2880  -15.2966 N   0  0  0  0  0  0  0  0  0  0  0  0
   23.9302  -19.3949  -16.1142 C   0  0  1  0  0  0  0  0  0  0  0  0
   22.7952  -19.6221  -15.2409 C   0  0  0  0  0  0  0  0  0  0  0  0
   22.5926  -20.7319  -14.3306 C   0  0  0  0  0  0  0  0  0  0  0  0
   21.3408  -20.8164  -13.5236 C   0  0  0  0  0  0  0  0  0  0  0  0
   21.1813  -21.8582  -12.5021 C   0  0  0  0  0  0  0  0  0  0  0  0
   20.0112  -21.6575  -11.6510 N   0  0  0  0  0  0  0  0  0  0  0  0
   23.9447  -18.2141  -16.9750 C   0  0  0  0  0  0  0  0  0  0  0  0
   23.4864  -18.3122  -18.2873 O   0  0  0  0  0  0  0  0  0  0  0  0
   24.3269  -17.0556  -16.7064 O   0  0  0  0  0  0  0  0  0  0  0  0
  2  1  1  0
  3  2  1  0
  4  3  1  0
  4  5  1  0
  5  6  1  6
  7  5  1  0
  7  8  2  0
  9  7  1  0
 10  9  1  0
 10 11  1  0
 11 13  1  0
 12 11  2  0
 13 14  1  0
 14 20  1  0
 14 15  1  1
 15 16  1  0
 16 17  1  0
 18 17  1  0
 19 18  1  0
 20 21  1  0
 22 20  2  0
M  END
$$$$
