MGK.pdb
     RDKit          3D

 22 21  0  0  1  0  0  0  0  0999 V2000
   21.6830  -13.3152    7.1935 C   0  0  0  0  0  0  0  0  0  0  0  0
   21.1809  -11.8426    6.2806 S   0  0  0  0  0  0  0  0  0  0  0  0
   19.4483  -11.8786    5.8177 C   0  0  0  0  0  0  0  0  0  0  0  0
   19.0629  -13.1760    5.1374 C   0  0  0  0  0  0  0  0  0  0  0  0
   17.5865  -13.1453    4.7788 C   0  0  2  0  0  0  0  0  0  0  0  0
   16.7686  -12.9098    5.9500 N   0  0  0  0  0  0  0  0  0  0  0  0
   17.2525  -14.4883    4.2439 C   0  0  0  0  0  0  0  0  0  0  0  0
   17.6820  -14.8634    3.1356 O   0  0  0  0  0  0  0  0  0  0  0  0
   16.4311  -15.3192    5.0409 N   0  0  0  0  0  0  0  0  0  0  0  0
   16.1117  -16.6587    4.6193 C   0  0  0  0  0  0  0  0  0  0  0  0
   16.8607  -17.6788    5.4190 C   0  0  0  0  0  0  0  0  0  0  0  0
   17.9591  -17.3660    5.9913 O   0  0  0  0  0  0  0  0  0  0  0  0
   16.3904  -18.9912    5.5650 N   0  0  0  0  0  0  0  0  0  0  0  0
   17.0461  -19.9930    6.4575 C   0  0  1  0  0  0  0  0  0  0  0  0
   16.4088  -19.9719    7.7598 C   0  0  0  0  0  0  0  0  0  0  0  0
   16.7533  -19.1397    8.8956 C   0  0  0  0  0  0  0  0  0  0  0  0
   15.9549  -19.2252   10.1529 C   0  0  0  0  0  0  0  0  0  0  0  0
   16.2466  -18.3353   11.2831 C   0  0  0  0  0  0  0  0  0  0  0  0
   15.3285  -18.5087   12.4059 N   0  0  0  0  0  0  0  0  0  0  0  0
   17.0545  -21.2337    5.6857 C   0  0  0  0  0  0  0  0  0  0  0  0
   17.8095  -22.3172    6.1307 O   0  0  0  0  0  0  0  0  0  0  0  0
   16.4549  -21.4966    4.6218 O   0  0  0  0  0  0  0  0  0  0  0  0
  2  1  1  0
  3  2  1  0
  4  3  1  0
  4  5  1  0
  5  6  1  1
  7  5  1  0
  7  8  2  0
  9  7  1  0
 10  9  1  0
 10 11  1  0
 11 13  1  0
 12 11  2  0
 13 14  1  0
 14 20  1  0
 14 15  1  1
 15 16  1  0
 16 17  1  0
 18 17  1  0
 19 18  1  0
 20 21  1  0
 22 20  2  0
M  END
$$$$
