MGK.pdb
     RDKit          3D

 22 21  0  0  1  0  0  0  0  0999 V2000
   28.7025  -18.8492   -4.3094 C   0  0  0  0  0  0  0  0  0  0  0  0
   28.5855  -19.6090   -5.9413 S   0  0  0  0  0  0  0  0  0  0  0  0
   26.9927  -20.3833   -6.2262 C   0  0  0  0  0  0  0  0  0  0  0  0
   26.9241  -21.0767   -7.5712 C   0  0  0  0  0  0  0  0  0  0  0  0
   26.4546  -20.0925   -8.6295 C   0  0  2  0  0  0  0  0  0  0  0  0
   25.0171  -20.1472   -8.7933 N   0  0  0  0  0  0  0  0  0  0  0  0
   27.0819  -20.5127   -9.9067 C   0  0  0  0  0  0  0  0  0  0  0  0
   28.3210  -20.5817  -10.0216 O   0  0  0  0  0  0  0  0  0  0  0  0
   26.2186  -20.8295  -10.9812 N   0  0  0  0  0  0  0  0  0  0  0  0
   26.5886  -21.8271  -11.9517 C   0  0  0  0  0  0  0  0  0  0  0  0
   25.5112  -22.0262  -12.9719 C   0  0  0  0  0  0  0  0  0  0  0  0
   25.6495  -22.9050  -13.8887 O   0  0  0  0  0  0  0  0  0  0  0  0
   24.3327  -21.2674  -12.9568 N   0  0  0  0  0  0  0  0  0  0  0  0
   23.2771  -21.3883  -14.0062 C   0  0  1  0  0  0  0  0  0  0  0  0
   22.1778  -20.4964  -13.6925 C   0  0  0  0  0  0  0  0  0  0  0  0
   22.1700  -19.0486  -13.7650 C   0  0  0  0  0  0  0  0  0  0  0  0
   22.0538  -18.3682  -15.0875 C   0  0  0  0  0  0  0  0  0  0  0  0
   22.1403  -16.9062  -15.1837 C   0  0  0  0  0  0  0  0  0  0  0  0
   22.1963  -16.4208  -16.5603 N   0  0  0  0  0  0  0  0  0  0  0  0
   23.9880  -21.2287  -15.2729 C   0  0  0  0  0  0  0  0  0  0  0  0
   23.5345  -21.8994  -16.4071 O   0  0  0  0  0  0  0  0  0  0  0  0
   25.0031  -20.5434  -15.5186 O   0  0  0  0  0  0  0  0  0  0  0  0
  2  1  1  0
  3  2  1  0
  4  3  1  0
  4  5  1  0
  5  6  1  6
  7  5  1  0
  7  8  2  0
  9  7  1  0
 10  9  1  0
 10 11  1  0
 11 13  1  0
 12 11  2  0
 13 14  1  0
 14 20  1  0
 14 15  1  1
 15 16  1  0
 16 17  1  0
 18 17  1  0
 19 18  1  0
 20 21  1  0
 22 20  2  0
M  END
$$$$
