RYP.pdb
     RDKit          3D

 31 32  0  0  1  0  0  0  0  0999 V2000
    9.4823  -13.9226   19.1438 N   0  0  0  0  0  0  0  0  0  0  0  0
    8.3042  -13.3264   18.5925 C   0  0  0  0  0  0  0  0  0  0  0  0
    8.3788  -12.1047   18.1868 N   0  0  0  0  0  0  0  0  0  0  0  0
    7.0822  -14.0633   18.4951 N   0  0  0  0  0  0  0  0  0  0  0  0
    6.4572  -14.5982   19.6891 C   0  0  0  0  0  0  0  0  0  0  0  0
    6.6396  -16.1216   19.7454 C   0  0  0  0  0  0  0  0  0  0  0  0
    5.8284  -16.6067   20.9020 C   0  0  0  0  0  0  0  0  0  0  0  0
    6.4957  -17.6564   21.7331 C   0  0  2  0  0  0  0  0  0  0  0  0
    5.6400  -18.8445   21.6941 N   0  0  0  0  0  0  0  0  0  0  0  0
    6.6720  -17.2772   23.1518 C   0  0  0  0  0  0  0  0  0  0  0  0
    5.6803  -17.2458   23.9198 O   0  0  0  0  0  0  0  0  0  0  0  0
    7.5521  -11.6737   17.7579 O   0  0  0  0  0  0  0  0  0  0  0  0
   10.3805  -15.0919   30.8538 C   0  0  0  0  0  0  0  0  0  0  0  0
   10.0515  -15.5983   29.5906 C   0  0  0  0  0  0  0  0  0  0  0  0
   10.6637  -15.1091   28.4682 C   0  0  0  0  0  0  0  0  0  0  0  0
   10.3379  -15.6096   27.2247 C   0  0  0  0  0  0  0  0  0  0  0  0
    9.3965  -16.6058   27.0792 C   0  0  0  0  0  0  0  0  0  0  0  0
    9.0602  -17.1275   25.7602 C   0  0  1  0  0  0  0  0  0  0  0  0
    8.0460  -16.3116   24.9795 N   0  0  0  0  0  0  0  0  0  0  0  0
    7.9415  -16.9410   23.6890 C   0  0  0  0  0  0  0  0  0  0  0  0
    8.3188  -14.8974   24.8887 O   0  0  0  0  0  0  0  0  0  0  0  0
    9.1353  -14.5675   23.9414 C   0  0  0  0  0  0  0  0  0  0  0  0
    8.7900  -17.0867   28.2210 C   0  0  0  0  0  0  0  0  0  0  0  0
    9.1016  -16.5999   29.4727 N   0  0  0  0  0  0  0  0  0  0  0  0
    7.8386  -13.8294   25.6686 C   0  0  0  0  0  0  0  0  0  0  0  0
    7.0218  -13.7613   26.8480 C   0  0  0  0  0  0  0  0  0  0  0  0
    6.1962  -12.4939   26.6561 C   0  0  0  0  0  0  0  0  0  0  0  0
    6.8011  -11.7696   25.4985 C   0  0  2  0  0  0  0  0  0  0  0  0
    8.1537  -12.3983   25.3920 C   0  0  0  0  0  0  0  0  0  0  0  0
    9.0586  -11.8362   26.3939 O   0  0  0  0  0  0  0  0  0  0  0  0
    9.2977  -12.5738   27.4188 O   0  0  0  0  0  0  0  0  0  0  0  0
  2  1  1  0
  3  2  2  0
  4  2  1  0
  5  4  1  0
  6  5  1  0
  7  6  1  0
  8 10  1  0
  8  7  1  0
  8  9  1  1
 10 11  2  0
 12 13  1  0
 13 14  2  0
 14 15  1  0
 16 15  2  0
 16 17  1  0
 18 17  1  1
 19 18  1  0
 19 10  1  0
 20 18  1  0
 21 20  2  0
 22 16  1  0
 23 13  1  0
 23 22  2  0
 24 20  1  0
 24 28  1  0
 25 26  1  0
 25 24  1  0
 26 27  1  0
 28 27  1  0
 28 29  1  1
 29 31  1  0
 30 29  2  0
M  END
$$$$
