RYP.pdb
     RDKit          3D

 31 32  0  0  1  0  0  0  0  0999 V2000
    9.6728  -21.2279   17.7320 N   0  0  0  0  0  0  0  0  0  0  0  0
   10.9710  -21.5485   18.2410 C   0  0  0  0  0  0  0  0  0  0  0  0
   11.8765  -21.9137   17.3988 N   0  0  0  0  0  0  0  0  0  0  0  0
   11.2544  -21.4667   19.6405 N   0  0  0  0  0  0  0  0  0  0  0  0
   10.5578  -20.5023   20.4695 C   0  0  0  0  0  0  0  0  0  0  0  0
    9.5961  -19.6653   19.6141 C   0  0  0  0  0  0  0  0  0  0  0  0
    8.8903  -18.7378   20.5482 C   0  0  0  0  0  0  0  0  0  0  0  0
    9.0869  -17.2852   20.2492 C   0  0  2  0  0  0  0  0  0  0  0  0
   10.2972  -17.1741   19.4319 N   0  0  0  0  0  0  0  0  0  0  0  0
    9.2788  -16.4451   21.4512 C   0  0  0  0  0  0  0  0  0  0  0  0
   10.4255  -16.3046   21.9408 O   0  0  0  0  0  0  0  0  0  0  0  0
   12.8037  -22.1770   17.7512 O   0  0  0  0  0  0  0  0  0  0  0  0
    6.9726  -11.1139   28.2000 C   0  0  0  0  0  0  0  0  0  0  0  0
    7.0385  -11.8471   27.0090 C   0  0  0  0  0  0  0  0  0  0  0  0
    6.4781  -13.0936   26.9320 C   0  0  0  0  0  0  0  0  0  0  0  0
    6.5444  -13.8141   25.7575 C   0  0  0  0  0  0  0  0  0  0  0  0
    7.1704  -13.3043   24.6404 C   0  0  0  0  0  0  0  0  0  0  0  0
    7.2342  -14.0744   23.4043 C   0  0  1  0  0  0  0  0  0  0  0  0
    8.4096  -15.0284   23.2947 N   0  0  0  0  0  0  0  0  0  0  0  0
    8.1979  -15.7792   22.0847 C   0  0  0  0  0  0  0  0  0  0  0  0
    8.6370  -15.8738   24.4419 O   0  0  0  0  0  0  0  0  0  0  0  0
    8.0696  -17.0342   24.3750 C   0  0  0  0  0  0  0  0  0  0  0  0
    7.7294  -12.0468   24.7363 C   0  0  0  0  0  0  0  0  0  0  0  0
    7.6738  -11.3109   25.9007 N   0  0  0  0  0  0  0  0  0  0  0  0
    9.3737  -15.6308   25.6156 C   0  0  0  0  0  0  0  0  0  0  0  0
    9.7991  -14.4306   26.2800 C   0  0  0  0  0  0  0  0  0  0  0  0
   11.1610  -14.7909   26.8633 C   0  0  0  0  0  0  0  0  0  0  0  0
   11.2986  -16.2717   26.7258 C   0  0  1  0  0  0  0  0  0  0  0  0
    9.8860  -16.7109   26.5072 C   0  0  0  0  0  0  0  0  0  0  0  0
    9.1630  -16.7573   27.7776 O   0  0  0  0  0  0  0  0  0  0  0  0
    8.3256  -15.8054   27.9880 O   0  0  0  0  0  0  0  0  0  0  0  0
  2  1  1  0
  3  2  2  0
  4  2  1  0
  5  4  1  0
  6  5  1  0
  7  6  1  0
  8 10  1  0
  8  7  1  0
  8  9  1  6
 10 11  2  0
 12 13  1  0
 13 14  2  0
 14 15  1  0
 16 15  2  0
 16 17  1  0
 18 17  1  6
 19 18  1  0
 19 10  1  0
 20 18  1  0
 21 20  2  0
 22 16  1  0
 23 13  1  0
 23 22  2  0
 24 20  1  0
 24 28  1  0
 25 26  1  0
 25 24  1  0
 26 27  1  0
 28 27  1  0
 28 29  1  1
 29 31  1  0
 30 29  2  0
M  END
$$$$
