RYP.pdb
     RDKit          3D

 31 32  0  0  1  0  0  0  0  0999 V2000
    7.5367  -14.0123   20.0255 N   0  0  0  0  0  0  0  0  0  0  0  0
    7.6351  -13.9315   18.6004 C   0  0  0  0  0  0  0  0  0  0  0  0
    7.8596  -12.7755   18.0751 N   0  0  0  0  0  0  0  0  0  0  0  0
    7.4886  -15.0972   17.7846 N   0  0  0  0  0  0  0  0  0  0  0  0
    7.5594  -16.4170   18.3808 C   0  0  0  0  0  0  0  0  0  0  0  0
    6.6221  -16.5011   19.5939 C   0  0  0  0  0  0  0  0  0  0  0  0
    7.4648  -16.9096   20.7576 C   0  0  0  0  0  0  0  0  0  0  0  0
    6.7538  -17.7387   21.7799 C   0  0  2  0  0  0  0  0  0  0  0  0
    5.3708  -17.8926   21.3230 N   0  0  0  0  0  0  0  0  0  0  0  0
    6.7159  -17.1291   23.1269 C   0  0  0  0  0  0  0  0  0  0  0  0
    5.7535  -16.3940   23.4550 O   0  0  0  0  0  0  0  0  0  0  0  0
    7.9205  -12.6988   17.0535 O   0  0  0  0  0  0  0  0  0  0  0  0
   10.2490  -14.3266   30.8056 C   0  0  0  0  0  0  0  0  0  0  0  0
    9.8884  -15.0480   29.6612 C   0  0  0  0  0  0  0  0  0  0  0  0
   10.3066  -14.6374   28.4241 C   0  0  0  0  0  0  0  0  0  0  0  0
    9.9500  -15.3499   27.2980 C   0  0  0  0  0  0  0  0  0  0  0  0
    9.1707  -16.4833   27.3861 C   0  0  0  0  0  0  0  0  0  0  0  0
    8.8001  -17.2288   26.1894 C   0  0  1  0  0  0  0  0  0  0  0  0
    7.8394  -16.5174   25.2539 N   0  0  0  0  0  0  0  0  0  0  0  0
    7.7435  -17.3463   24.0807 C   0  0  0  0  0  0  0  0  0  0  0  0
    8.1702  -15.1477   24.9423 O   0  0  0  0  0  0  0  0  0  0  0  0
    8.9378  -15.0015   23.9116 C   0  0  0  0  0  0  0  0  0  0  0  0
    8.7585  -16.8823   28.6406 C   0  0  0  0  0  0  0  0  0  0  0  0
    9.1041  -16.1842   29.7781 N   0  0  0  0  0  0  0  0  0  0  0  0
    7.7911  -13.9547   25.5845 C   0  0  0  0  0  0  0  0  0  0  0  0
    7.0398  -13.6741   26.7760 C   0  0  0  0  0  0  0  0  0  0  0  0
    6.2787  -12.3955   26.4435 C   0  0  0  0  0  0  0  0  0  0  0  0
    6.8645  -11.8765   25.1715 C   0  0  2  0  0  0  0  0  0  0  0  0
    8.1723  -12.5978   25.0973 C   0  0  0  0  0  0  0  0  0  0  0  0
    9.1568  -11.9617   25.9718 O   0  0  0  0  0  0  0  0  0  0  0  0
    9.4594  -12.6018   27.0443 O   0  0  0  0  0  0  0  0  0  0  0  0
  2  1  1  0
  3  2  2  0
  4  2  1  0
  5  4  1  0
  6  5  1  0
  7  6  1  0
  8 10  1  0
  8  7  1  0
  8  9  1  6
 10 11  2  0
 12 13  1  0
 13 14  2  0
 14 15  1  0
 16 15  2  0
 16 17  1  0
 18 17  1  1
 19 18  1  0
 19 10  1  0
 20 18  1  0
 21 20  2  0
 22 16  1  0
 23 13  1  0
 23 22  2  0
 24 20  1  0
 24 28  1  0
 25 26  1  0
 25 24  1  0
 26 27  1  0
 28 27  1  0
 28 29  1  1
 29 31  1  0
 30 29  2  0
M  END
$$$$
