RYP.pdb
     RDKit          3D

 31 32  0  0  1  0  0  0  0  0999 V2000
    7.8396  -15.4122   15.0339 N   0  0  0  0  0  0  0  0  0  0  0  0
    9.1541  -14.8548   15.1278 C   0  0  0  0  0  0  0  0  0  0  0  0
   10.0429  -15.2587   14.2855 N   0  0  0  0  0  0  0  0  0  0  0  0
    9.4715  -13.8804   16.1255 N   0  0  0  0  0  0  0  0  0  0  0  0
    8.4555  -13.4380   17.0607 C   0  0  0  0  0  0  0  0  0  0  0  0
    8.2229  -14.5090   18.1358 C   0  0  0  0  0  0  0  0  0  0  0  0
    8.7531  -13.9515   19.4162 C   0  0  0  0  0  0  0  0  0  0  0  0
    9.5682  -14.9123   20.2228 C   0  0  2  0  0  0  0  0  0  0  0  0
    8.9188  -16.2210   20.1182 N   0  0  0  0  0  0  0  0  0  0  0  0
    9.6552  -14.5684   21.6586 C   0  0  0  0  0  0  0  0  0  0  0  0
   10.2942  -13.5514   22.0215 O   0  0  0  0  0  0  0  0  0  0  0  0
   11.0068  -14.9196   14.3814 O   0  0  0  0  0  0  0  0  0  0  0  0
    5.8316  -11.1717   28.3304 C   0  0  0  0  0  0  0  0  0  0  0  0
    6.2100  -12.0422   27.3013 C   0  0  0  0  0  0  0  0  0  0  0  0
    6.7648  -11.5524   26.1497 C   0  0  0  0  0  0  0  0  0  0  0  0
    7.1368  -12.4122   25.1371 C   0  0  0  0  0  0  0  0  0  0  0  0
    6.9619  -13.7742   25.2553 C   0  0  0  0  0  0  0  0  0  0  0  0
    7.3590  -14.6735   24.1789 C   0  0  2  0  0  0  0  0  0  0  0  0
    8.8561  -14.8407   23.9927 N   0  0  0  0  0  0  0  0  0  0  0  0
    9.0335  -15.3573   22.6607 C   0  0  0  0  0  0  0  0  0  0  0  0
    9.5247  -15.6379   24.9927 O   0  0  0  0  0  0  0  0  0  0  0  0
   10.0072  -16.7551   24.5547 C   0  0  0  0  0  0  0  0  0  0  0  0
    6.4015  -14.2499   26.4225 C   0  0  0  0  0  0  0  0  0  0  0  0
    6.0231  -13.4074   27.4461 N   0  0  0  0  0  0  0  0  0  0  0  0
    9.7288  -15.3899   26.3624 C   0  0  0  0  0  0  0  0  0  0  0  0
    9.1123  -14.4973   27.3037 C   0  0  0  0  0  0  0  0  0  0  0  0
   10.2531  -14.0847   28.2274 C   0  0  0  0  0  0  0  0  0  0  0  0
   11.3964  -14.9936   27.9151 C   0  0  1  0  0  0  0  0  0  0  0  0
   10.7286  -16.1204   27.1936 C   0  0  0  0  0  0  0  0  0  0  0  0
   10.0876  -17.0276   28.1448 O   0  0  0  0  0  0  0  0  0  0  0  0
    8.8041  -16.9841   28.1924 O   0  0  0  0  0  0  0  0  0  0  0  0
  2  1  1  0
  3  2  2  0
  4  2  1  0
  5  4  1  0
  6  5  1  0
  7  6  1  0
  8 10  1  0
  8  7  1  0
  8  9  1  1
 10 11  2  0
 12 13  1  0
 13 14  2  0
 14 15  1  0
 16 15  2  0
 16 17  1  0
 18 17  1  6
 19 18  1  0
 19 10  1  0
 20 18  1  0
 21 20  2  0
 22 16  1  0
 23 13  1  0
 23 22  2  0
 24 20  1  0
 24 28  1  0
 25 26  1  0
 25 24  1  0
 26 27  1  0
 28 27  1  0
 28 29  1  1
 29 31  1  0
 30 29  2  0
M  END
$$$$
