RYP.pdb
     RDKit          3D

 31 32  0  0  1  0  0  0  0  0999 V2000
    8.7011  -15.2824   16.2874 N   0  0  0  0  0  0  0  0  0  0  0  0
    8.4646  -14.0346   15.6283 C   0  0  0  0  0  0  0  0  0  0  0  0
    8.6991  -13.9665   14.3622 N   0  0  0  0  0  0  0  0  0  0  0  0
    7.9835  -12.8987   16.3522 N   0  0  0  0  0  0  0  0  0  0  0  0
    7.9037  -12.9377   17.7994 C   0  0  0  0  0  0  0  0  0  0  0  0
    7.4194  -14.3179   18.2662 C   0  0  0  0  0  0  0  0  0  0  0  0
    7.1068  -14.1914   19.7213 C   0  0  0  0  0  0  0  0  0  0  0  0
    8.1910  -14.6697   20.6344 C   0  0  2  0  0  0  0  0  0  0  0  0
    8.7196  -15.9100   20.0619 N   0  0  0  0  0  0  0  0  0  0  0  0
    7.7310  -14.9700   22.0076 C   0  0  0  0  0  0  0  0  0  0  0  0
    7.0166  -14.1430   22.6238 O   0  0  0  0  0  0  0  0  0  0  0  0
    8.5323  -13.0791   13.8744 O   0  0  0  0  0  0  0  0  0  0  0  0
    8.4730  -19.0977   29.8477 C   0  0  0  0  0  0  0  0  0  0  0  0
    8.3696  -18.7804   28.4880 C   0  0  0  0  0  0  0  0  0  0  0  0
    9.4797  -18.4113   27.7772 C   0  0  0  0  0  0  0  0  0  0  0  0
    9.3753  -18.0991   26.4376 C   0  0  0  0  0  0  0  0  0  0  0  0
    8.1628  -18.1494   25.7842 C   0  0  0  0  0  0  0  0  0  0  0  0
    8.0641  -17.8177   24.3681 C   0  0  1  0  0  0  0  0  0  0  0  0
    7.7640  -16.3615   24.0627 N   0  0  0  0  0  0  0  0  0  0  0  0
    8.0719  -16.1785   22.6683 C   0  0  0  0  0  0  0  0  0  0  0  0
    8.4235  -15.3969   24.9097 O   0  0  0  0  0  0  0  0  0  0  0  0
    9.6389  -15.1207   24.5642 C   0  0  0  0  0  0  0  0  0  0  0  0
    7.0549  -18.5233   26.5161 C   0  0  0  0  0  0  0  0  0  0  0  0
    7.1383  -18.8392   27.8555 N   0  0  0  0  0  0  0  0  0  0  0  0
    7.9519  -14.7171   26.0476 C   0  0  0  0  0  0  0  0  0  0  0  0
    6.7658  -14.8423   26.8478 C   0  0  0  0  0  0  0  0  0  0  0  0
    6.4474  -13.4115   27.2675 C   0  0  0  0  0  0  0  0  0  0  0  0
    7.6412  -12.5912   26.9034 C   0  0  2  0  0  0  0  0  0  0  0  0
    8.7064  -13.6262   26.7292 C   0  0  0  0  0  0  0  0  0  0  0  0
    9.2231  -14.0513   28.0296 O   0  0  0  0  0  0  0  0  0  0  0  0
    9.9659  -13.2047   28.6485 O   0  0  0  0  0  0  0  0  0  0  0  0
  2  1  1  0
  3  2  2  0
  4  2  1  0
  5  4  1  0
  6  5  1  0
  7  6  1  0
  8 10  1  0
  8  7  1  0
  8  9  1  6
 10 11  2  0
 12 13  1  0
 13 14  2  0
 14 15  1  0
 16 15  2  0
 16 17  1  0
 18 17  1  6
 19 18  1  0
 19 10  1  0
 20 18  1  0
 21 20  2  0
 22 16  1  0
 23 13  1  0
 23 22  2  0
 24 20  1  0
 24 28  1  0
 25 26  1  0
 25 24  1  0
 26 27  1  0
 28 27  1  0
 28 29  1  1
 29 31  1  0
 30 29  2  0
M  END
$$$$
