RYP.pdb
     RDKit          3D

 31 32  0  0  1  0  0  0  0  0999 V2000
    9.2640  -16.0005   14.1695 N   0  0  0  0  0  0  0  0  0  0  0  0
    8.4067  -14.8613   14.2893 C   0  0  0  0  0  0  0  0  0  0  0  0
    8.0622  -14.2484   13.2084 N   0  0  0  0  0  0  0  0  0  0  0  0
    7.9469  -14.4166   15.5686 N   0  0  0  0  0  0  0  0  0  0  0  0
    8.2792  -15.1679   16.7634 C   0  0  0  0  0  0  0  0  0  0  0  0
    7.6595  -14.4994   17.9989 C   0  0  0  0  0  0  0  0  0  0  0  0
    8.7965  -14.0217   18.8417 C   0  0  0  0  0  0  0  0  0  0  0  0
    9.3433  -15.0448   19.7864 C   0  0  2  0  0  0  0  0  0  0  0  0
    8.4390  -16.1962   19.7442 N   0  0  0  0  0  0  0  0  0  0  0  0
    9.4199  -14.5860   21.1903 C   0  0  0  0  0  0  0  0  0  0  0  0
   10.1986  -13.6532   21.5029 O   0  0  0  0  0  0  0  0  0  0  0  0
    7.3682  -13.4945   13.2659 O   0  0  0  0  0  0  0  0  0  0  0  0
    6.5007  -11.3848   28.6819 C   0  0  0  0  0  0  0  0  0  0  0  0
    6.6806  -12.0773   27.4785 C   0  0  0  0  0  0  0  0  0  0  0  0
    7.0115  -11.4022   26.3345 C   0  0  0  0  0  0  0  0  0  0  0  0
    7.1881  -12.0867   25.1500 C   0  0  0  0  0  0  0  0  0  0  0  0
    7.0378  -13.4553   25.0858 C   0  0  0  0  0  0  0  0  0  0  0  0
    7.2272  -14.1685   23.8286 C   0  0  2  0  0  0  0  0  0  0  0  0
    8.6480  -14.6236   23.5490 N   0  0  0  0  0  0  0  0  0  0  0  0
    8.6333  -15.1694   22.2169 C   0  0  0  0  0  0  0  0  0  0  0  0
    9.2148  -15.5319   24.5166 O   0  0  0  0  0  0  0  0  0  0  0  0
    9.3877  -16.7384   24.0840 C   0  0  0  0  0  0  0  0  0  0  0  0
    6.7044  -14.1190   26.2482 C   0  0  0  0  0  0  0  0  0  0  0  0
    6.5235  -13.4533   27.4419 N   0  0  0  0  0  0  0  0  0  0  0  0
    9.6031  -15.3093   25.8504 C   0  0  0  0  0  0  0  0  0  0  0  0
    9.3200  -14.2670   26.7972 C   0  0  0  0  0  0  0  0  0  0  0  0
   10.6098  -14.1321   27.5990 C   0  0  0  0  0  0  0  0  0  0  0  0
   11.4564  -15.3071   27.2339 C   0  0  2  0  0  0  0  0  0  0  0  0
   10.4643  -16.2471   26.6270 C   0  0  0  0  0  0  0  0  0  0  0  0
    9.7112  -16.9396   27.6719 O   0  0  0  0  0  0  0  0  0  0  0  0
    8.4801  -16.5958   27.8055 O   0  0  0  0  0  0  0  0  0  0  0  0
  2  1  1  0
  3  2  2  0
  4  2  1  0
  5  4  1  0
  6  5  1  0
  7  6  1  0
  8 10  1  0
  8  7  1  0
  8  9  1  1
 10 11  2  0
 12 13  1  0
 13 14  2  0
 14 15  1  0
 16 15  2  0
 16 17  1  0
 18 17  1  6
 19 18  1  0
 19 10  1  0
 20 18  1  0
 21 20  2  0
 22 16  1  0
 23 13  1  0
 23 22  2  0
 24 20  1  0
 24 28  1  0
 25 26  1  0
 25 24  1  0
 26 27  1  0
 28 27  1  0
 28 29  1  1
 29 31  1  0
 30 29  2  0
M  END
$$$$
