RYP.pdb
     RDKit          3D

 31 32  0  0  1  0  0  0  0  0999 V2000
    7.9208  -13.3273   16.4602 N   0  0  0  0  0  0  0  0  0  0  0  0
    8.5695  -14.3345   15.6779 C   0  0  0  0  0  0  0  0  0  0  0  0
    7.9326  -14.8163   14.6655 N   0  0  0  0  0  0  0  0  0  0  0  0
    9.8834  -14.7922   16.0094 N   0  0  0  0  0  0  0  0  0  0  0  0
   10.0613  -16.0461   16.7154 C   0  0  0  0  0  0  0  0  0  0  0  0
    9.2977  -16.0170   18.0471 C   0  0  0  0  0  0  0  0  0  0  0  0
   10.2751  -15.5850   19.0908 C   0  0  0  0  0  0  0  0  0  0  0  0
   10.1955  -16.3517   20.3729 C   0  0  2  0  0  0  0  0  0  0  0  0
    9.1085  -17.3225   20.2270 N   0  0  0  0  0  0  0  0  0  0  0  0
    9.8944  -15.5156   21.5551 C   0  0  0  0  0  0  0  0  0  0  0  0
    9.6518  -14.2929   21.4123 O   0  0  0  0  0  0  0  0  0  0  0  0
    8.3938  -15.5218   14.0800 O   0  0  0  0  0  0  0  0  0  0  0  0
    5.8563  -11.5514   27.8028 C   0  0  0  0  0  0  0  0  0  0  0  0
    6.4312  -12.3122   26.7778 C   0  0  0  0  0  0  0  0  0  0  0  0
    7.2004  -11.7112   25.8181 C   0  0  0  0  0  0  0  0  0  0  0  0
    7.7658  -12.4630   24.8091 C   0  0  0  0  0  0  0  0  0  0  0  0
    7.5740  -13.8262   24.7398 C   0  0  0  0  0  0  0  0  0  0  0  0
    8.1766  -14.6109   23.6692 C   0  0  1  0  0  0  0  0  0  0  0  0
    9.5306  -15.2161   23.9921 N   0  0  0  0  0  0  0  0  0  0  0  0
    9.8685  -16.0508   22.8689 C   0  0  0  0  0  0  0  0  0  0  0  0
    9.6179  -15.9152   25.2515 O   0  0  0  0  0  0  0  0  0  0  0  0
    9.6751  -17.2032   25.1481 C   0  0  0  0  0  0  0  0  0  0  0  0
    6.7962  -14.4147   25.7152 C   0  0  0  0  0  0  0  0  0  0  0  0
    6.2224  -13.6811   26.7317 N   0  0  0  0  0  0  0  0  0  0  0  0
    9.6475  -15.4150   26.5661 C   0  0  0  0  0  0  0  0  0  0  0  0
    9.0411  -14.2781   27.2006 C   0  0  0  0  0  0  0  0  0  0  0  0
   10.0782  -13.8247   28.2221 C   0  0  0  0  0  0  0  0  0  0  0  0
   11.1008  -14.9110   28.2931 C   0  0  1  0  0  0  0  0  0  0  0  0
   10.3840  -16.0732   27.6835 C   0  0  0  0  0  0  0  0  0  0  0  0
    9.4731  -16.6780   28.6546 O   0  0  0  0  0  0  0  0  0  0  0  0
   10.0127  -17.1435   29.7241 O   0  0  0  0  0  0  0  0  0  0  0  0
  2  1  1  0
  3  2  2  0
  4  2  1  0
  5  4  1  0
  6  5  1  0
  7  6  1  0
  8 10  1  0
  8  7  1  0
  8  9  1  6
 10 11  2  0
 12 13  1  0
 13 14  2  0
 14 15  1  0
 16 15  2  0
 16 17  1  0
 18 17  1  6
 19 18  1  0
 19 10  1  0
 20 18  1  0
 21 20  2  0
 22 16  1  0
 23 13  1  0
 23 22  2  0
 24 20  1  0
 24 28  1  0
 25 26  1  0
 25 24  1  0
 26 27  1  0
 28 27  1  0
 28 29  1  1
 29 31  1  0
 30 29  2  0
M  END
$$$$
