RYP.pdb
     RDKit          3D

 31 32  0  0  1  0  0  0  0  0999 V2000
    8.2624  -15.0406   15.9211 N   0  0  0  0  0  0  0  0  0  0  0  0
    8.3241  -13.6112   15.9307 C   0  0  0  0  0  0  0  0  0  0  0  0
    8.7374  -13.0174   14.8633 N   0  0  0  0  0  0  0  0  0  0  0  0
    7.9394  -12.8650   17.0887 N   0  0  0  0  0  0  0  0  0  0  0  0
    7.1511  -13.4930   18.1311 C   0  0  0  0  0  0  0  0  0  0  0  0
    7.7424  -14.8639   18.4889 C   0  0  0  0  0  0  0  0  0  0  0  0
    7.8191  -14.9202   19.9796 C   0  0  0  0  0  0  0  0  0  0  0  0
    7.7539  -16.2999   20.5543 C   0  0  2  0  0  0  0  0  0  0  0  0
    6.6422  -16.9887   19.8945 N   0  0  0  0  0  0  0  0  0  0  0  0
    7.5004  -16.3326   22.0110 C   0  0  0  0  0  0  0  0  0  0  0  0
    6.3323  -16.1922   22.4470 O   0  0  0  0  0  0  0  0  0  0  0  0
    8.7486  -11.9915   14.8398 O   0  0  0  0  0  0  0  0  0  0  0  0
    9.2571  -17.1427   30.6788 C   0  0  0  0  0  0  0  0  0  0  0  0
    9.2054  -17.2268   29.2823 C   0  0  0  0  0  0  0  0  0  0  0  0
   10.1094  -16.5440   28.5140 C   0  0  0  0  0  0  0  0  0  0  0  0
   10.0564  -16.6284   27.1382 C   0  0  0  0  0  0  0  0  0  0  0  0
    9.1015  -17.3947   26.5051 C   0  0  0  0  0  0  0  0  0  0  0  0
    9.0550  -17.4769   25.0505 C   0  0  1  0  0  0  0  0  0  0  0  0
    8.2973  -16.3566   24.3616 N   0  0  0  0  0  0  0  0  0  0  0  0
    8.5450  -16.5197   22.9528 C   0  0  0  0  0  0  0  0  0  0  0  0
    8.5931  -15.0234   24.8282 O   0  0  0  0  0  0  0  0  0  0  0  0
    9.6510  -14.4937   24.3056 C   0  0  0  0  0  0  0  0  0  0  0  0
    8.1989  -18.0758   27.2951 C   0  0  0  0  0  0  0  0  0  0  0  0
    8.2350  -18.0046   28.6715 N   0  0  0  0  0  0  0  0  0  0  0  0
    7.9139  -14.2173   25.7600 C   0  0  0  0  0  0  0  0  0  0  0  0
    6.7739  -14.4372   26.6055 C   0  0  0  0  0  0  0  0  0  0  0  0
    6.0701  -13.0851   26.6403 C   0  0  0  0  0  0  0  0  0  0  0  0
    7.0155  -12.1034   26.0296 C   0  0  2  0  0  0  0  0  0  0  0  0
    8.3238  -12.8243   26.1000 C   0  0  0  0  0  0  0  0  0  0  0  0
    8.8843  -12.7350   27.4478 O   0  0  0  0  0  0  0  0  0  0  0  0
    9.3409  -11.5855   27.7966 O   0  0  0  0  0  0  0  0  0  0  0  0
  2  1  1  0
  3  2  2  0
  4  2  1  0
  5  4  1  0
  6  5  1  0
  7  6  1  0
  8 10  1  0
  8  7  1  0
  8  9  1  6
 10 11  2  0
 12 13  1  0
 13 14  2  0
 14 15  1  0
 16 15  2  0
 16 17  1  0
 18 17  1  6
 19 18  1  0
 19 10  1  0
 20 18  1  0
 21 20  2  0
 22 16  1  0
 23 13  1  0
 23 22  2  0
 24 20  1  0
 24 28  1  0
 25 26  1  0
 25 24  1  0
 26 27  1  0
 28 27  1  0
 28 29  1  1
 29 31  1  0
 30 29  2  0
M  END
$$$$
