RYP.pdb
     RDKit          3D

 31 32  0  0  1  0  0  0  0  0999 V2000
    8.1503  -14.0646   15.7035 N   0  0  0  0  0  0  0  0  0  0  0  0
    8.5097  -13.8415   17.0704 C   0  0  0  0  0  0  0  0  0  0  0  0
    8.3570  -12.6539   17.5489 N   0  0  0  0  0  0  0  0  0  0  0  0
    9.0228  -14.9032   17.8799 N   0  0  0  0  0  0  0  0  0  0  0  0
    8.3800  -15.2373   19.1359 C   0  0  0  0  0  0  0  0  0  0  0  0
    6.9364  -15.6966   18.8864 C   0  0  0  0  0  0  0  0  0  0  0  0
    6.3233  -15.9273   20.2288 C   0  0  0  0  0  0  0  0  0  0  0  0
    7.0047  -16.9739   21.0524 C   0  0  2  0  0  0  0  0  0  0  0  0
    6.3321  -18.2451   20.7750 N   0  0  0  0  0  0  0  0  0  0  0  0
    6.9287  -16.7350   22.5100 C   0  0  0  0  0  0  0  0  0  0  0  0
    5.8295  -16.8403   23.1056 O   0  0  0  0  0  0  0  0  0  0  0  0
    8.6276  -12.4733   18.5222 O   0  0  0  0  0  0  0  0  0  0  0  0
   10.7354  -15.5635   30.4508 C   0  0  0  0  0  0  0  0  0  0  0  0
   10.2337  -15.9518   29.2027 C   0  0  0  0  0  0  0  0  0  0  0  0
    8.9479  -16.4064   29.0849 C   0  0  0  0  0  0  0  0  0  0  0  0
    8.4558  -16.7885   27.8541 C   0  0  0  0  0  0  0  0  0  0  0  0
    9.2370  -16.7239   26.7204 C   0  0  0  0  0  0  0  0  0  0  0  0
    8.7066  -17.1299   25.4247 C   0  0  1  0  0  0  0  0  0  0  0  0
    7.9421  -16.0564   24.6717 N   0  0  0  0  0  0  0  0  0  0  0  0
    8.0706  -16.3850   23.2760 C   0  0  0  0  0  0  0  0  0  0  0  0
    8.3273  -14.6961   24.9611 O   0  0  0  0  0  0  0  0  0  0  0  0
    9.2805  -14.2377   24.2167 C   0  0  0  0  0  0  0  0  0  0  0  0
   10.5300  -16.2634   26.8580 C   0  0  0  0  0  0  0  0  0  0  0  0
   11.0405  -15.8768   28.0789 N   0  0  0  0  0  0  0  0  0  0  0  0
    7.8308  -13.7984   25.9240 C   0  0  0  0  0  0  0  0  0  0  0  0
    6.9610  -13.9516   27.0566 C   0  0  0  0  0  0  0  0  0  0  0  0
    6.1688  -12.6495   27.0962 C   0  0  0  0  0  0  0  0  0  0  0  0
    6.8405  -11.7196   26.1397 C   0  0  2  0  0  0  0  0  0  0  0  0
    8.1848  -12.3502   25.9626 C   0  0  0  0  0  0  0  0  0  0  0  0
    9.0519  -12.0314   27.0962 O   0  0  0  0  0  0  0  0  0  0  0  0
    9.2272  -12.9695   27.9570 O   0  0  0  0  0  0  0  0  0  0  0  0
  2  1  1  0
  3  2  2  0
  4  2  1  0
  5  4  1  0
  6  5  1  0
  7  6  1  0
  8 10  1  0
  8  7  1  0
  8  9  1  1
 10 11  2  0
 12 13  1  0
 13 14  2  0
 14 15  1  0
 16 15  2  0
 16 17  1  0
 18 17  1  1
 19 18  1  0
 19 10  1  0
 20 18  1  0
 21 20  2  0
 22 16  1  0
 23 13  1  0
 23 22  2  0
 24 20  1  0
 24 28  1  0
 25 26  1  0
 25 24  1  0
 26 27  1  0
 28 27  1  0
 28 29  1  1
 29 31  1  0
 30 29  2  0
M  END
$$$$
