RYP.pdb
     RDKit          3D

 31 32  0  0  1  0  0  0  0  0999 V2000
    7.5887  -13.3209   15.8956 N   0  0  0  0  0  0  0  0  0  0  0  0
    8.0911  -14.2519   16.8590 C   0  0  0  0  0  0  0  0  0  0  0  0
    7.7282  -14.1046   18.0875 N   0  0  0  0  0  0  0  0  0  0  0  0
    8.9687  -15.3124   16.4705 N   0  0  0  0  0  0  0  0  0  0  0  0
    9.4989  -16.2214   17.4681 C   0  0  0  0  0  0  0  0  0  0  0  0
    9.6425  -15.5022   18.8169 C   0  0  0  0  0  0  0  0  0  0  0  0
   10.9981  -15.8456   19.3420 C   0  0  0  0  0  0  0  0  0  0  0  0
   10.9916  -16.6173   20.6236 C   0  0  2  0  0  0  0  0  0  0  0  0
    9.9569  -17.6467   20.5007 N   0  0  0  0  0  0  0  0  0  0  0  0
   10.6728  -15.8009   21.8149 C   0  0  0  0  0  0  0  0  0  0  0  0
   11.4307  -14.8588   22.1498 O   0  0  0  0  0  0  0  0  0  0  0  0
    8.1076  -14.7427   18.7962 O   0  0  0  0  0  0  0  0  0  0  0  0
    6.1460  -11.2585   27.7383 C   0  0  0  0  0  0  0  0  0  0  0  0
    6.5596  -12.1613   26.7514 C   0  0  0  0  0  0  0  0  0  0  0  0
    6.3703  -13.5064   26.9211 C   0  0  0  0  0  0  0  0  0  0  0  0
    6.7787  -14.3940   25.9473 C   0  0  0  0  0  0  0  0  0  0  0  0
    7.3827  -13.9559   24.7884 C   0  0  0  0  0  0  0  0  0  0  0  0
    7.8100  -14.9029   23.7659 C   0  0  2  0  0  0  0  0  0  0  0  0
    9.2809  -15.2760   23.8018 N   0  0  0  0  0  0  0  0  0  0  0  0
    9.5228  -16.0452   22.6091 C   0  0  0  0  0  0  0  0  0  0  0  0
    9.7254  -15.9494   24.9983 O   0  0  0  0  0  0  0  0  0  0  0  0
   10.2148  -17.1301   24.7999 C   0  0  0  0  0  0  0  0  0  0  0  0
    7.5653  -12.5973   24.6346 C   0  0  0  0  0  0  0  0  0  0  0  0
    7.1643  -11.6940   25.5957 N   0  0  0  0  0  0  0  0  0  0  0  0
    9.7059  -15.5233   26.3390 C   0  0  0  0  0  0  0  0  0  0  0  0
    8.9993  -14.4816   27.0305 C   0  0  0  0  0  0  0  0  0  0  0  0
    9.9887  -13.9971   28.0846 C   0  0  0  0  0  0  0  0  0  0  0  0
   11.1028  -14.9916   28.1037 C   0  0  1  0  0  0  0  0  0  0  0  0
   10.4935  -16.1761   27.4241 C   0  0  0  0  0  0  0  0  0  0  0  0
    9.6360  -16.9123   28.3522 O   0  0  0  0  0  0  0  0  0  0  0  0
    8.3702  -16.8151   28.1526 O   0  0  0  0  0  0  0  0  0  0  0  0
  2  1  1  0
  3  2  2  0
  4  2  1  0
  5  4  1  0
  6  5  1  0
  7  6  1  0
  8 10  1  0
  8  7  1  0
  8  9  1  6
 10 11  2  0
 12 13  1  0
 13 14  2  0
 14 15  1  0
 16 15  2  0
 16 17  1  0
 18 17  1  6
 19 18  1  0
 19 10  1  0
 20 18  1  0
 21 20  2  0
 22 16  1  0
 23 13  1  0
 23 22  2  0
 24 20  1  0
 24 28  1  0
 25 26  1  0
 25 24  1  0
 26 27  1  0
 28 27  1  0
 28 29  1  1
 29 31  1  0
 30 29  2  0
M  END
$$$$
