RYP.pdb
     RDKit          3D

 31 32  0  0  1  0  0  0  0  0999 V2000
    7.5360  -12.6106   19.4129 N   0  0  0  0  0  0  0  0  0  0  0  0
    8.3021  -13.6541   18.8035 C   0  0  0  0  0  0  0  0  0  0  0  0
    8.1788  -13.8303   17.5321 N   0  0  0  0  0  0  0  0  0  0  0  0
    9.1770  -14.4760   19.5812 N   0  0  0  0  0  0  0  0  0  0  0  0
    8.6474  -15.6000   20.3285 C   0  0  0  0  0  0  0  0  0  0  0  0
    7.5536  -16.3079   19.5163 C   0  0  0  0  0  0  0  0  0  0  0  0
    6.4927  -16.7101   20.4878 C   0  0  0  0  0  0  0  0  0  0  0  0
    6.9585  -17.6296   21.5722 C   0  0  2  0  0  0  0  0  0  0  0  0
    6.1983  -18.8742   21.4370 N   0  0  0  0  0  0  0  0  0  0  0  0
    6.7306  -17.1111   22.9384 C   0  0  0  0  0  0  0  0  0  0  0  0
    5.5623  -16.8841   23.3356 O   0  0  0  0  0  0  0  0  0  0  0  0
    8.7911  -14.5080   17.0641 O   0  0  0  0  0  0  0  0  0  0  0  0
    6.0799  -22.6091   25.4950 C   0  0  0  0  0  0  0  0  0  0  0  0
    6.5842  -21.3121   25.6482 C   0  0  0  0  0  0  0  0  0  0  0  0
    5.8772  -20.3732   26.3499 C   0  0  0  0  0  0  0  0  0  0  0  0
    6.3762  -19.0959   26.4995 C   0  0  0  0  0  0  0  0  0  0  0  0
    7.5880  -18.7330   25.9521 C   0  0  0  0  0  0  0  0  0  0  0  0
    8.1059  -17.3804   26.1167 C   0  0  2  0  0  0  0  0  0  0  0  0
    7.5412  -16.3487   25.1571 N   0  0  0  0  0  0  0  0  0  0  0  0
    7.8004  -16.8552   23.8347 C   0  0  0  0  0  0  0  0  0  0  0  0
    8.0182  -14.9990   25.3396 O   0  0  0  0  0  0  0  0  0  0  0  0
    8.9354  -14.6356   24.5033 C   0  0  0  0  0  0  0  0  0  0  0  0
    8.2866  -19.6920   25.2484 C   0  0  0  0  0  0  0  0  0  0  0  0
    7.8053  -20.9738   25.0876 N   0  0  0  0  0  0  0  0  0  0  0  0
    7.6435  -14.0247   26.2829 C   0  0  0  0  0  0  0  0  0  0  0  0
    6.6248  -13.9740   27.2941 C   0  0  0  0  0  0  0  0  0  0  0  0
    6.1868  -12.5137   27.3083 C   0  0  0  0  0  0  0  0  0  0  0  0
    7.1879  -11.7667   26.4894 C   0  0  1  0  0  0  0  0  0  0  0  0
    8.3419  -12.7165   26.4403 C   0  0  0  0  0  0  0  0  0  0  0  0
    9.1080  -12.6542   27.6845 O   0  0  0  0  0  0  0  0  0  0  0  0
    8.9536  -13.6396   28.4949 O   0  0  0  0  0  0  0  0  0  0  0  0
  2  1  1  0
  3  2  2  0
  4  2  1  0
  5  4  1  0
  6  5  1  0
  7  6  1  0
  8 10  1  0
  8  7  1  0
  8  9  1  1
 10 11  2  0
 12 13  1  0
 13 14  2  0
 14 15  1  0
 16 15  2  0
 16 17  1  0
 18 17  1  1
 19 18  1  0
 19 10  1  0
 20 18  1  0
 21 20  2  0
 22 16  1  0
 23 13  1  0
 23 22  2  0
 24 20  1  0
 24 28  1  0
 25 26  1  0
 25 24  1  0
 26 27  1  0
 28 27  1  0
 28 29  1  1
 29 31  1  0
 30 29  2  0
M  END
$$$$
