RYP.pdb
     RDKit          3D

 31 32  0  0  1  0  0  0  0  0999 V2000
    6.2983  -20.5732   17.8731 N   0  0  0  0  0  0  0  0  0  0  0  0
    6.0776  -19.8432   19.0837 C   0  0  0  0  0  0  0  0  0  0  0  0
    4.9213  -19.3003   19.2593 N   0  0  0  0  0  0  0  0  0  0  0  0
    7.1082  -19.7196   20.0677 N   0  0  0  0  0  0  0  0  0  0  0  0
    8.2422  -20.6231   20.0521 C   0  0  0  0  0  0  0  0  0  0  0  0
    9.4842  -19.9048   19.5056 C   0  0  0  0  0  0  0  0  0  0  0  0
    9.9349  -18.9600   20.5711 C   0  0  0  0  0  0  0  0  0  0  0  0
    9.8137  -17.5130   20.2113 C   0  0  2  0  0  0  0  0  0  0  0  0
   10.9595  -17.1838   19.3604 N   0  0  0  0  0  0  0  0  0  0  0  0
    9.8422  -16.6002   21.3747 C   0  0  0  0  0  0  0  0  0  0  0  0
   10.9408  -16.2499   21.8694 O   0  0  0  0  0  0  0  0  0  0  0  0
    4.7679  -18.7189   20.0910 O   0  0  0  0  0  0  0  0  0  0  0  0
    6.5567  -11.6414   27.9993 C   0  0  0  0  0  0  0  0  0  0  0  0
    6.7776  -12.3499   26.8121 C   0  0  0  0  0  0  0  0  0  0  0  0
    6.2978  -13.6237   26.6670 C   0  0  0  0  0  0  0  0  0  0  0  0
    6.5168  -14.3198   25.4964 C   0  0  0  0  0  0  0  0  0  0  0  0
    7.2177  -13.7580   24.4510 C   0  0  0  0  0  0  0  0  0  0  0  0
    7.4429  -14.5027   23.2182 C   0  0  1  0  0  0  0  0  0  0  0  0
    8.7110  -15.3364   23.1868 N   0  0  0  0  0  0  0  0  0  0  0  0
    8.6548  -16.0956   21.9649 C   0  0  0  0  0  0  0  0  0  0  0  0
    8.9433  -16.1638   24.3461 O   0  0  0  0  0  0  0  0  0  0  0  0
    8.5663  -17.3938   24.2126 C   0  0  0  0  0  0  0  0  0  0  0  0
    7.6937  -12.4737   24.6148 C   0  0  0  0  0  0  0  0  0  0  0  0
    7.4854  -11.7614   25.7766 N   0  0  0  0  0  0  0  0  0  0  0  0
    9.5106  -15.8400   25.5922 C   0  0  0  0  0  0  0  0  0  0  0  0
    9.7317  -14.5989   26.2804 C   0  0  0  0  0  0  0  0  0  0  0  0
   11.0465  -14.8137   27.0220 C   0  0  0  0  0  0  0  0  0  0  0  0
   11.3492  -16.2731   26.9265 C   0  0  1  0  0  0  0  0  0  0  0  0
   10.0236  -16.8569   26.5549 C   0  0  0  0  0  0  0  0  0  0  0  0
    9.1670  -16.9710   27.7347 O   0  0  0  0  0  0  0  0  0  0  0  0
    8.2358  -16.0923   27.8460 O   0  0  0  0  0  0  0  0  0  0  0  0
  2  1  1  0
  3  2  2  0
  4  2  1  0
  5  4  1  0
  6  5  1  0
  7  6  1  0
  8 10  1  0
  8  7  1  0
  8  9  1  6
 10 11  2  0
 12 13  1  0
 13 14  2  0
 14 15  1  0
 16 15  2  0
 16 17  1  0
 18 17  1  6
 19 18  1  0
 19 10  1  0
 20 18  1  0
 21 20  2  0
 22 16  1  0
 23 13  1  0
 23 22  2  0
 24 20  1  0
 24 28  1  0
 25 26  1  0
 25 24  1  0
 26 27  1  0
 28 27  1  0
 28 29  1  1
 29 31  1  0
 30 29  2  0
M  END
$$$$
