RKC.pdb
     RDKit          3D

 27 26  0  0  1  0  0  0  0  0999 V2000
   30.8457  -25.7479  -16.3206 N   0  0  0  0  0  0  0  0  0  0  0  0
   30.8482  -25.1960  -17.6237 C   0  0  0  0  0  0  0  0  0  0  0  0
   31.0230  -25.9141  -18.6762 N   0  0  0  0  0  0  0  0  0  0  0  0
   30.6487  -23.7901  -17.7681 N   0  0  0  0  0  0  0  0  0  0  0  0
   30.3886  -22.9943  -16.5853 C   0  0  0  0  0  0  0  0  0  0  0  0
   28.9334  -23.0717  -16.2619 C   0  0  0  0  0  0  0  0  0  0  0  0
   28.4343  -21.7614  -15.7365 C   0  0  0  0  0  0  0  0  0  0  0  0
   27.3336  -21.1557  -16.5481 C   0  0  2  0  0  0  0  0  0  0  0  0
   27.8181  -20.2266  -17.5437 N   0  0  0  0  0  0  0  0  0  0  0  0
   26.3772  -20.5177  -15.6094 C   0  0  0  0  0  0  0  0  0  0  0  0
   26.6505  -19.3623  -15.1979 O   0  0  0  0  0  0  0  0  0  0  0  0
   31.1299  -25.4751  -19.6093 N   0  0  0  0  0  0  0  0  0  0  0  0
   25.1841  -21.1338  -15.1559 C   0  0  2  0  0  0  0  0  0  0  0  0
   24.2492  -20.4043  -14.2972 C   0  0  0  0  0  0  0  0  0  0  0  0
   22.9458  -20.1822  -15.0282 C   0  0  0  0  0  0  0  0  0  0  0  0
   21.9355  -19.4705  -14.2012 C   0  0  0  0  0  0  0  0  0  0  0  0
   20.6387  -19.2401  -14.9352 C   0  0  0  0  0  0  0  0  0  0  0  0
   19.7065  -18.3528  -14.1742 N   0  0  0  0  0  0  0  0  0  0  0  0
   18.4957  -18.0430  -14.8722 C   0  0  0  0  0  0  0  0  0  0  0  0
   24.0956  -21.0889  -12.9933 O   0  0  0  0  0  0  0  0  0  0  0  0
   23.7121  -22.2815  -12.9433 N   0  0  0  0  0  0  0  0  0  0  0  0
   24.3771  -20.4173  -11.7653 C   0  0  1  0  0  0  0  0  0  0  0  0
   23.9506  -21.0086  -10.5360 C   0  0  0  0  0  0  0  0  0  0  0  0
   24.7069  -20.4868   -9.3363 S   0  0  0  0  0  0  0  0  0  0  0  0
   26.3369  -19.9387   -9.9358 C   0  0  0  0  0  0  0  0  0  0  0  0
   22.5029  -20.7676  -10.3337 O   0  0  0  0  0  0  0  0  0  0  0  0
   21.8200  -20.0335  -11.0920 O   0  0  0  0  0  0  0  0  0  0  0  0
  2  3  2  0
  2  1  1  0
  4  2  1  0
  5  4  1  0
  6  5  1  0
  7  6  1  0
  8  9  1  6
  8  7  1  0
 10 12  1  0
 10  8  1  0
 11 10  2  0
 13 12  1  0
 13 14  1  6
 14 15  1  0
 15 16  1  0
 16 17  1  0
 17 18  1  0
 19 13  1  0
 20 19  2  0
 21 19  1  0
 22 25  1  0
 22 21  1  0
 23 24  1  0
 22 23  1  1
 25 27  1  0
 26 25  2  0
M  END
$$$$
