RKC.pdb
     RDKit          3D

 27 26  0  0  1  0  0  0  0  0999 V2000
   19.0736  -23.8216   -8.5276 N   0  0  0  0  0  0  0  0  0  0  0  0
   18.4321  -24.3719   -9.6626 C   0  0  0  0  0  0  0  0  0  0  0  0
   18.5559  -25.6088   -9.9924 N   0  0  0  0  0  0  0  0  0  0  0  0
   17.6193  -23.5173  -10.4666 N   0  0  0  0  0  0  0  0  0  0  0  0
   18.2245  -22.3567  -11.0885 C   0  0  0  0  0  0  0  0  0  0  0  0
   18.7762  -22.7539  -12.4174 C   0  0  0  0  0  0  0  0  0  0  0  0
   19.3182  -21.5635  -13.1463 C   0  0  0  0  0  0  0  0  0  0  0  0
   20.3993  -20.8362  -12.4118 C   0  0  2  0  0  0  0  0  0  0  0  0
   19.8907  -19.7715  -11.5771 N   0  0  0  0  0  0  0  0  0  0  0  0
   21.3738  -20.3402  -13.4154 C   0  0  0  0  0  0  0  0  0  0  0  0
   21.2179  -19.1706  -13.8476 O   0  0  0  0  0  0  0  0  0  0  0  0
   18.0425  -25.9979  -10.8048 N   0  0  0  0  0  0  0  0  0  0  0  0
   22.4601  -21.1054  -13.9083 C   0  0  2  0  0  0  0  0  0  0  0  0
   23.4296  -20.5133  -14.8319 C   0  0  0  0  0  0  0  0  0  0  0  0
   24.6990  -21.3325  -14.8397 C   0  0  0  0  0  0  0  0  0  0  0  0
   25.7236  -20.7985  -15.7758 C   0  0  0  0  0  0  0  0  0  0  0  0
   26.9970  -21.6059  -15.7690 C   0  0  0  0  0  0  0  0  0  0  0  0
   27.9633  -21.1492  -16.8145 N   0  0  0  0  0  0  0  0  0  0  0  0
   29.1397  -21.9587  -16.9151 C   0  0  0  0  0  0  0  0  0  0  0  0
   22.8279  -20.3284  -16.1722 O   0  0  0  0  0  0  0  0  0  0  0  0
   22.2175  -21.2708  -16.7300 N   0  0  0  0  0  0  0  0  0  0  0  0
   22.9240  -19.0826  -16.8628 C   0  0  1  0  0  0  0  0  0  0  0  0
   22.3192  -18.9537  -18.1514 C   0  0  0  0  0  0  0  0  0  0  0  0
   21.6674  -17.6072  -18.3656 S   0  0  0  0  0  0  0  0  0  0  0  0
   20.3973  -17.4228  -17.0735 C   0  0  0  0  0  0  0  0  0  0  0  0
   23.3323  -19.1712  -19.2102 O   0  0  0  0  0  0  0  0  0  0  0  0
   23.0463  -19.2003  -20.4339 O   0  0  0  0  0  0  0  0  0  0  0  0
  2  3  2  0
  2  1  1  0
  4  2  1  0
  5  4  1  0
  6  5  1  0
  7  6  1  0
  8  9  1  6
  8  7  1  0
 10 12  1  0
 10  8  1  0
 11 10  2  0
 13 12  1  0
 13 14  1  1
 14 15  1  0
 15 16  1  0
 16 17  1  0
 17 18  1  0
 19 13  1  0
 20 19  2  0
 21 19  1  0
 22 25  1  0
 22 21  1  0
 23 24  1  0
 22 23  1  6
 25 27  1  0
 26 25  2  0
M  END
$$$$
