RKC.pdb
     RDKit          3D

 27 26  0  0  1  0  0  0  0  0999 V2000
   26.9665  -19.0159  -19.0571 N   0  0  0  0  0  0  0  0  0  0  0  0
   26.4501  -17.7539  -19.4357 C   0  0  0  0  0  0  0  0  0  0  0  0
   26.2111  -17.4463  -20.6613 N   0  0  0  0  0  0  0  0  0  0  0  0
   26.1873  -16.7917  -18.4148 N   0  0  0  0  0  0  0  0  0  0  0  0
   25.8200  -17.2561  -17.0921 C   0  0  0  0  0  0  0  0  0  0  0  0
   24.6523  -18.1783  -17.2114 C   0  0  0  0  0  0  0  0  0  0  0  0
   23.9576  -18.3309  -15.8937 C   0  0  0  0  0  0  0  0  0  0  0  0
   24.4522  -19.4774  -15.0703 C   0  0  2  0  0  0  0  0  0  0  0  0
   25.3566  -20.3396  -15.7968 N   0  0  0  0  0  0  0  0  0  0  0  0
   23.2680  -20.2139  -14.5621 C   0  0  0  0  0  0  0  0  0  0  0  0
   22.6859  -20.9956  -15.3553 O   0  0  0  0  0  0  0  0  0  0  0  0
   25.8544  -16.5065  -20.9153 N   0  0  0  0  0  0  0  0  0  0  0  0
   22.7625  -20.0856  -13.2444 C   0  0  1  0  0  0  0  0  0  0  0  0
   21.5345  -20.7769  -12.8472 C   0  0  0  0  0  0  0  0  0  0  0  0
   21.5056  -20.9527  -11.3470 C   0  0  0  0  0  0  0  0  0  0  0  0
   20.3598  -21.7808  -10.8858 C   0  0  0  0  0  0  0  0  0  0  0  0
   20.3473  -21.9784   -9.3911 C   0  0  0  0  0  0  0  0  0  0  0  0
   19.1987  -22.8230   -8.9406 N   0  0  0  0  0  0  0  0  0  0  0  0
   19.5476  -23.8087   -7.9629 C   0  0  0  0  0  0  0  0  0  0  0  0
   20.3454  -20.0828  -13.3920 O   0  0  0  0  0  0  0  0  0  0  0  0
   20.2729  -18.8315  -13.3661 N   0  0  0  0  0  0  0  0  0  0  0  0
   19.2559  -20.8114  -13.9579 C   0  0  1  0  0  0  0  0  0  0  0  0
   18.1538  -20.0923  -14.5157 C   0  0  0  0  0  0  0  0  0  0  0  0
   17.8265  -20.5165  -15.9286 S   0  0  0  0  0  0  0  0  0  0  0  0
   16.4860  -19.4294  -16.5103 C   0  0  0  0  0  0  0  0  0  0  0  0
   16.9514  -20.2721  -13.6690 O   0  0  0  0  0  0  0  0  0  0  0  0
   16.7187  -21.3283  -13.0283 O   0  0  0  0  0  0  0  0  0  0  0  0
  2  3  2  0
  2  1  1  0
  4  2  1  0
  5  4  1  0
  6  5  1  0
  7  6  1  0
  8  9  1  6
  8  7  1  0
 10 12  1  0
 10  8  1  0
 11 10  2  0
 13 12  1  0
 13 14  1  6
 14 15  1  0
 15 16  1  0
 16 17  1  0
 17 18  1  0
 19 13  1  0
 20 19  2  0
 21 19  1  0
 22 25  1  0
 22 21  1  0
 23 24  1  0
 22 23  1  1
 25 27  1  0
 26 25  2  0
M  END
$$$$
