RKC.pdb
     RDKit          3D

 27 26  0  0  1  0  0  0  0  0999 V2000
   27.6554  -25.3371  -16.2919 N   0  0  0  0  0  0  0  0  0  0  0  0
   26.3096  -25.2135  -15.8720 C   0  0  0  0  0  0  0  0  0  0  0  0
   25.5591  -26.2346  -15.6532 N   0  0  0  0  0  0  0  0  0  0  0  0
   25.7718  -23.9045  -15.6865 N   0  0  0  0  0  0  0  0  0  0  0  0
   26.6668  -22.7658  -15.7361 C   0  0  0  0  0  0  0  0  0  0  0  0
   26.6707  -22.2151  -17.1235 C   0  0  0  0  0  0  0  0  0  0  0  0
   25.5003  -21.3063  -17.3390 C   0  0  0  0  0  0  0  0  0  0  0  0
   25.8046  -19.8567  -17.1307 C   0  0  2  0  0  0  0  0  0  0  0  0
   27.1272  -19.6340  -16.5919 N   0  0  0  0  0  0  0  0  0  0  0  0
   24.7451  -19.2926  -16.2576 C   0  0  0  0  0  0  0  0  0  0  0  0
   25.0769  -18.9326  -15.1003 O   0  0  0  0  0  0  0  0  0  0  0  0
   24.5888  -26.1187  -15.3068 N   0  0  0  0  0  0  0  0  0  0  0  0
   23.3929  -19.1391  -16.6532 C   0  0  2  0  0  0  0  0  0  0  0  0
   22.4383  -18.4432  -15.7884 C   0  0  0  0  0  0  0  0  0  0  0  0
   21.3630  -17.7935  -16.6275 C   0  0  0  0  0  0  0  0  0  0  0  0
   21.1550  -16.3606  -16.2889 C   0  0  0  0  0  0  0  0  0  0  0  0
   20.9515  -15.4969  -17.5080 C   0  0  0  0  0  0  0  0  0  0  0  0
   20.7934  -14.0517  -17.1587 N   0  0  0  0  0  0  0  0  0  0  0  0
   20.5309  -13.2052  -18.2829 C   0  0  0  0  0  0  0  0  0  0  0  0
   21.9153  -19.3569  -14.7471 O   0  0  0  0  0  0  0  0  0  0  0  0
   21.6595  -20.5530  -15.0219 N   0  0  0  0  0  0  0  0  0  0  0  0
   21.6890  -18.9068  -13.4113 C   0  0  1  0  0  0  0  0  0  0  0  0
   21.1340  -19.8142  -12.4567 C   0  0  0  0  0  0  0  0  0  0  0  0
   21.3266  -19.3596  -11.0285 S   0  0  0  0  0  0  0  0  0  0  0  0
   20.4772  -20.5723   -9.9680 C   0  0  0  0  0  0  0  0  0  0  0  0
   19.6859  -19.9950  -12.7125 O   0  0  0  0  0  0  0  0  0  0  0  0
   19.1276  -21.1213  -12.7126 O   0  0  0  0  0  0  0  0  0  0  0  0
  2  3  2  0
  2  1  1  0
  4  2  1  0
  5  4  1  0
  6  5  1  0
  7  6  1  0
  8  9  1  1
  8  7  1  0
 10 12  1  0
 10  8  1  0
 11 10  2  0
 13 12  1  0
 13 14  1  6
 14 15  1  0
 15 16  1  0
 16 17  1  0
 17 18  1  0
 19 13  1  0
 20 19  2  0
 21 19  1  0
 22 25  1  0
 22 21  1  0
 23 24  1  0
 22 23  1  6
 25 27  1  0
 26 25  2  0
M  END
$$$$
