RKC.pdb
     RDKit          3D

 27 26  0  0  1  0  0  0  0  0999 V2000
   26.1408  -21.3319  -10.9062 N   0  0  0  0  0  0  0  0  0  0  0  0
   25.4239  -20.1152  -10.8145 C   0  0  0  0  0  0  0  0  0  0  0  0
   24.8702  -19.7219   -9.7225 N   0  0  0  0  0  0  0  0  0  0  0  0
   25.3153  -19.2995  -11.9807 N   0  0  0  0  0  0  0  0  0  0  0  0
   25.6614  -19.8678  -13.2680 C   0  0  0  0  0  0  0  0  0  0  0  0
   27.1146  -19.6390  -13.5215 C   0  0  0  0  0  0  0  0  0  0  0  0
   27.4884  -20.0728  -14.9051 C   0  0  0  0  0  0  0  0  0  0  0  0
   27.2209  -21.5172  -15.1869 C   0  0  2  0  0  0  0  0  0  0  0  0
   28.3816  -22.2128  -15.6950 N   0  0  0  0  0  0  0  0  0  0  0  0
   26.0728  -21.5905  -16.1246 C   0  0  0  0  0  0  0  0  0  0  0  0
   26.2806  -21.2746  -17.3230 O   0  0  0  0  0  0  0  0  0  0  0  0
   24.2982  -18.8576   -9.6960 N   0  0  0  0  0  0  0  0  0  0  0  0
   24.7676  -21.9933  -15.7467 C   0  0  2  0  0  0  0  0  0  0  0  0
   23.7132  -22.1399  -16.7518 C   0  0  0  0  0  0  0  0  0  0  0  0
   22.9726  -23.4387  -16.5346 C   0  0  0  0  0  0  0  0  0  0  0  0
   23.7705  -24.6299  -16.9291 C   0  0  0  0  0  0  0  0  0  0  0  0
   22.9768  -25.9103  -16.8666 C   0  0  0  0  0  0  0  0  0  0  0  0
   23.7151  -27.0647  -17.4648 N   0  0  0  0  0  0  0  0  0  0  0  0
   22.9715  -28.2878  -17.4805 C   0  0  0  0  0  0  0  0  0  0  0  0
   22.8371  -20.9462  -16.7671 O   0  0  0  0  0  0  0  0  0  0  0  0
   22.5007  -20.3915  -15.6943 N   0  0  0  0  0  0  0  0  0  0  0  0
   22.3539  -20.3965  -17.9929 C   0  0  1  0  0  0  0  0  0  0  0  0
   21.5150  -19.2400  -17.9531 C   0  0  0  0  0  0  0  0  0  0  0  0
   21.6556  -18.3664  -19.1781 S   0  0  0  0  0  0  0  0  0  0  0  0
   20.5325  -16.9509  -18.9501 C   0  0  0  0  0  0  0  0  0  0  0  0
   20.0975  -19.6474  -17.8132 O   0  0  0  0  0  0  0  0  0  0  0  0
   19.6718  -20.7741  -18.1732 O   0  0  0  0  0  0  0  0  0  0  0  0
  2  3  2  0
  2  1  1  0
  4  2  1  0
  5  4  1  0
  6  5  1  0
  7  6  1  0
  8  9  1  6
  8  7  1  0
 10 12  1  0
 10  8  1  0
 11 10  2  0
 13 12  1  0
 13 14  1  1
 14 15  1  0
 15 16  1  0
 16 17  1  0
 17 18  1  0
 19 13  1  0
 20 19  2  0
 21 19  1  0
 22 25  1  0
 22 21  1  0
 23 24  1  0
 22 23  1  1
 25 27  1  0
 26 25  2  0
M  END
$$$$
