RKC.pdb
     RDKit          3D

 27 26  0  0  1  0  0  0  0  0999 V2000
   10.9278  -13.0963  -10.5581 N   0  0  0  0  0  0  0  0  0  0  0  0
   12.2452  -13.6117  -10.5206 C   0  0  0  0  0  0  0  0  0  0  0  0
   12.4961  -14.8435  -10.2493 N   0  0  0  0  0  0  0  0  0  0  0  0
   13.3307  -12.7264  -10.7947 N   0  0  0  0  0  0  0  0  0  0  0  0
   13.6484  -11.6889   -9.8341 C   0  0  0  0  0  0  0  0  0  0  0  0
   14.4168  -10.6111  -10.5243 C   0  0  0  0  0  0  0  0  0  0  0  0
   14.8296   -9.5472   -9.5548 C   0  0  0  0  0  0  0  0  0  0  0  0
   14.1386   -8.2358   -9.7544 C   0  0  2  0  0  0  0  0  0  0  0  0
   13.0461   -8.3164  -10.6974 N   0  0  0  0  0  0  0  0  0  0  0  0
   15.1613   -7.2438  -10.1702 C   0  0  0  0  0  0  0  0  0  0  0  0
   15.2204   -6.9470  -11.3899 O   0  0  0  0  0  0  0  0  0  0  0  0
   13.4703  -15.1977  -10.2314 N   0  0  0  0  0  0  0  0  0  0  0  0
   16.0662   -6.6188   -9.2763 C   0  0  1  0  0  0  0  0  0  0  0  0
   16.9161   -5.5154   -9.7274 C   0  0  0  0  0  0  0  0  0  0  0  0
   16.8697   -4.3871   -8.7239 C   0  0  0  0  0  0  0  0  0  0  0  0
   15.5404   -3.7235   -8.6640 C   0  0  0  0  0  0  0  0  0  0  0  0
   15.4941   -2.6001   -7.6594 C   0  0  0  0  0  0  0  0  0  0  0  0
   14.1940   -1.8624   -7.6936 N   0  0  0  0  0  0  0  0  0  0  0  0
   13.0651   -2.6513   -7.3031 C   0  0  0  0  0  0  0  0  0  0  0  0
   18.2844   -5.9980  -10.0233 O   0  0  0  0  0  0  0  0  0  0  0  0
   18.9628   -6.5677   -9.1362 N   0  0  0  0  0  0  0  0  0  0  0  0
   18.8665   -5.8303  -11.3161 C   0  0  1  0  0  0  0  0  0  0  0  0
   20.1988   -6.2949  -11.5441 C   0  0  0  0  0  0  0  0  0  0  0  0
   20.2456   -7.6598  -12.1909 S   0  0  0  0  0  0  0  0  0  0  0  0
   21.9985   -8.0312  -12.5165 C   0  0  0  0  0  0  0  0  0  0  0  0
   20.9312   -5.3322  -12.3994 O   0  0  0  0  0  0  0  0  0  0  0  0
   20.3521   -4.4765  -13.1155 O   0  0  0  0  0  0  0  0  0  0  0  0
  2  3  2  0
  2  1  1  0
  4  2  1  0
  5  4  1  0
  6  5  1  0
  7  6  1  0
  8  9  1  6
  8  7  1  0
 10 12  1  0
 10  8  1  0
 11 10  2  0
 13 12  1  0
 13 14  1  6
 14 15  1  0
 15 16  1  0
 16 17  1  0
 17 18  1  0
 19 13  1  0
 20 19  2  0
 21 19  1  0
 22 25  1  0
 22 21  1  0
 23 24  1  0
 22 23  1  1
 25 27  1  0
 26 25  2  0
M  END
$$$$
