RKC.pdb
     RDKit          3D

 27 26  0  0  1  0  0  0  0  0999 V2000
   25.4379  -24.9538  -14.7325 N   0  0  0  0  0  0  0  0  0  0  0  0
   25.3106  -23.9150  -15.6851 C   0  0  0  0  0  0  0  0  0  0  0  0
   26.2210  -23.6651  -16.5584 N   0  0  0  0  0  0  0  0  0  0  0  0
   24.1259  -23.1192  -15.6705 N   0  0  0  0  0  0  0  0  0  0  0  0
   23.0469  -23.4854  -14.7752 C   0  0  0  0  0  0  0  0  0  0  0  0
   21.9823  -24.1773  -15.5601 C   0  0  0  0  0  0  0  0  0  0  0  0
   20.8592  -24.6091  -14.6687 C   0  0  0  0  0  0  0  0  0  0  0  0
   21.2901  -25.4311  -13.4958 C   0  0  2  0  0  0  0  0  0  0  0  0
   21.9120  -26.6770  -13.8834 N   0  0  0  0  0  0  0  0  0  0  0  0
   20.1020  -25.6464  -12.6328 C   0  0  0  0  0  0  0  0  0  0  0  0
   19.1152  -26.2366  -13.1398 O   0  0  0  0  0  0  0  0  0  0  0  0
   26.1248  -22.8694  -17.2161 N   0  0  0  0  0  0  0  0  0  0  0  0
   20.0197  -25.2272  -11.2815 C   0  0  2  0  0  0  0  0  0  0  0  0
   18.7881  -25.4235  -10.5145 C   0  0  0  0  0  0  0  0  0  0  0  0
   19.0860  -25.3489   -9.0353 C   0  0  0  0  0  0  0  0  0  0  0  0
   17.8814  -25.5734   -8.1928 C   0  0  0  0  0  0  0  0  0  0  0  0
   18.1829  -25.5141   -6.7167 C   0  0  0  0  0  0  0  0  0  0  0  0
   16.9607  -25.7185   -5.8800 N   0  0  0  0  0  0  0  0  0  0  0  0
   17.2122  -25.7205   -4.4707 C   0  0  0  0  0  0  0  0  0  0  0  0
   17.7384  -24.4801  -10.9625 O   0  0  0  0  0  0  0  0  0  0  0  0
   18.0048  -23.2667  -11.1307 N   0  0  0  0  0  0  0  0  0  0  0  0
   16.4038  -24.9204  -11.2139 C   0  0  1  0  0  0  0  0  0  0  0  0
   15.4452  -23.9844  -11.7116 C   0  0  0  0  0  0  0  0  0  0  0  0
   15.0108  -24.2811  -13.1282 S   0  0  0  0  0  0  0  0  0  0  0  0
   15.3283  -22.7770  -14.1048 C   0  0  0  0  0  0  0  0  0  0  0  0
   14.2504  -23.9693  -10.8356 O   0  0  0  0  0  0  0  0  0  0  0  0
   13.9139  -24.9480  -10.1222 O   0  0  0  0  0  0  0  0  0  0  0  0
  2  3  2  0
  2  1  1  0
  4  2  1  0
  5  4  1  0
  6  5  1  0
  7  6  1  0
  8  9  1  6
  8  7  1  0
 10 12  1  0
 10  8  1  0
 11 10  2  0
 13 12  1  0
 13 14  1  1
 14 15  1  0
 15 16  1  0
 16 17  1  0
 17 18  1  0
 19 13  1  0
 20 19  2  0
 21 19  1  0
 22 25  1  0
 22 21  1  0
 23 24  1  0
 22 23  1  1
 25 27  1  0
 26 25  2  0
M  END
$$$$
