RKC.pdb
     RDKit          3D

 27 26  0  0  1  0  0  0  0  0999 V2000
   19.4831  -21.0163  -14.0220 N   0  0  0  0  0  0  0  0  0  0  0  0
   20.8156  -21.0710  -13.5484 C   0  0  0  0  0  0  0  0  0  0  0  0
   21.2805  -20.2249  -12.6987 N   0  0  0  0  0  0  0  0  0  0  0  0
   21.6695  -22.1056  -14.0358 N   0  0  0  0  0  0  0  0  0  0  0  0
   21.1612  -23.0187  -15.0397 C   0  0  0  0  0  0  0  0  0  0  0  0
   21.5923  -24.4052  -14.6934 C   0  0  0  0  0  0  0  0  0  0  0  0
   20.8509  -24.9093  -13.4941 C   0  0  0  0  0  0  0  0  0  0  0  0
   19.8124  -25.9398  -13.8050 C   0  0  2  0  0  0  0  0  0  0  0  0
   18.8761  -25.5038  -14.8162 N   0  0  0  0  0  0  0  0  0  0  0  0
   19.1337  -26.2965  -12.5342 C   0  0  0  0  0  0  0  0  0  0  0  0
   18.2017  -25.5494  -12.1439 O   0  0  0  0  0  0  0  0  0  0  0  0
   22.2700  -20.2663  -12.3920 N   0  0  0  0  0  0  0  0  0  0  0  0
   19.4754  -27.4223  -11.7441 C   0  0  2  0  0  0  0  0  0  0  0  0
   18.6638  -27.7912  -10.5827 C   0  0  0  0  0  0  0  0  0  0  0  0
   18.9043  -29.2395  -10.2263 C   0  0  0  0  0  0  0  0  0  0  0  0
   18.0689  -29.6984   -9.0849 C   0  0  0  0  0  0  0  0  0  0  0  0
   18.3177  -31.1407   -8.7230 C   0  0  0  0  0  0  0  0  0  0  0  0
   17.4148  -31.6146   -7.6296 N   0  0  0  0  0  0  0  0  0  0  0  0
   17.6014  -32.9884   -7.2731 C   0  0  0  0  0  0  0  0  0  0  0  0
   18.8986  -26.8517   -9.4625 O   0  0  0  0  0  0  0  0  0  0  0  0
   20.0595  -26.4633   -9.1919 N   0  0  0  0  0  0  0  0  0  0  0  0
   17.8196  -26.3647   -8.6644 C   0  0  1  0  0  0  0  0  0  0  0  0
   18.0911  -25.4087   -7.6373 C   0  0  0  0  0  0  0  0  0  0  0  0
   17.2639  -24.1508   -7.7680 S   0  0  0  0  0  0  0  0  0  0  0  0
   17.6206  -23.1285   -6.3036 C   0  0  0  0  0  0  0  0  0  0  0  0
   17.8431  -26.0111   -6.3067 O   0  0  0  0  0  0  0  0  0  0  0  0
   18.3754  -25.5811   -5.2521 O   0  0  0  0  0  0  0  0  0  0  0  0
  2  3  2  0
  2  1  1  0
  4  2  1  0
  5  4  1  0
  6  5  1  0
  7  6  1  0
  8  9  1  6
  8  7  1  0
 10 12  1  0
 10  8  1  0
 11 10  2  0
 13 12  1  0
 13 14  1  6
 14 15  1  0
 15 16  1  0
 16 17  1  0
 17 18  1  0
 19 13  1  0
 20 19  2  0
 21 19  1  0
 22 25  1  0
 22 21  1  0
 23 24  1  0
 22 23  1  1
 25 27  1  0
 26 25  2  0
M  END
$$$$
