RKC.pdb
     RDKit          3D

 27 26  0  0  1  0  0  0  0  0999 V2000
   24.7440  -16.1710  -21.2076 N   0  0  0  0  0  0  0  0  0  0  0  0
   25.1427  -17.0655  -20.1860 C   0  0  0  0  0  0  0  0  0  0  0  0
   25.7848  -18.1520  -20.4330 N   0  0  0  0  0  0  0  0  0  0  0  0
   24.8171  -16.7438  -18.8341 N   0  0  0  0  0  0  0  0  0  0  0  0
   24.6289  -17.8213  -17.8834 C   0  0  0  0  0  0  0  0  0  0  0  0
   23.1988  -18.2481  -17.9147 C   0  0  0  0  0  0  0  0  0  0  0  0
   22.6572  -18.3970  -16.5266 C   0  0  0  0  0  0  0  0  0  0  0  0
   23.4071  -19.3747  -15.6787 C   0  0  2  0  0  0  0  0  0  0  0  0
   24.3297  -20.1849  -16.4411 N   0  0  0  0  0  0  0  0  0  0  0  0
   22.4111  -20.2000  -14.9509 C   0  0  0  0  0  0  0  0  0  0  0  0
   22.0459  -21.2764  -15.4868 O   0  0  0  0  0  0  0  0  0  0  0  0
   25.9958  -18.8301  -19.6776 N   0  0  0  0  0  0  0  0  0  0  0  0
   21.8544  -19.8447  -13.6969 C   0  0  1  0  0  0  0  0  0  0  0  0
   20.9318  -20.7492  -13.0084 C   0  0  0  0  0  0  0  0  0  0  0  0
   21.0432  -20.5579  -11.5140 C   0  0  0  0  0  0  0  0  0  0  0  0
   20.2746  -21.5718  -10.7444 C   0  0  0  0  0  0  0  0  0  0  0  0
   20.3857  -21.3793   -9.2531 C   0  0  0  0  0  0  0  0  0  0  0  0
   19.7246  -22.4811   -8.4885 N   0  0  0  0  0  0  0  0  0  0  0  0
   19.8551  -22.3652   -7.0676 C   0  0  0  0  0  0  0  0  0  0  0  0
   19.5559  -20.5888  -13.5319 O   0  0  0  0  0  0  0  0  0  0  0  0
   19.0789  -19.4455  -13.7246 N   0  0  0  0  0  0  0  0  0  0  0  0
   18.7391  -21.7211  -13.8301 C   0  0  1  0  0  0  0  0  0  0  0  0
   17.4285  -21.5124  -14.3605 C   0  0  0  0  0  0  0  0  0  0  0  0
   16.8275  -22.7634  -14.9584 S   0  0  0  0  0  0  0  0  0  0  0  0
   18.0414  -23.4169  -16.1484 C   0  0  0  0  0  0  0  0  0  0  0  0
   16.5274  -21.0061  -13.2991 O   0  0  0  0  0  0  0  0  0  0  0  0
   16.6582  -21.3145  -12.0874 O   0  0  0  0  0  0  0  0  0  0  0  0
  2  3  2  0
  2  1  1  0
  4  2  1  0
  5  4  1  0
  6  5  1  0
  7  6  1  0
  8  9  1  6
  8  7  1  0
 10 12  1  0
 10  8  1  0
 11 10  2  0
 13 12  1  0
 13 14  1  6
 14 15  1  0
 15 16  1  0
 16 17  1  0
 17 18  1  0
 19 13  1  0
 20 19  2  0
 21 19  1  0
 22 25  1  0
 22 21  1  0
 23 24  1  0
 22 23  1  1
 25 27  1  0
 26 25  2  0
M  END
$$$$
