RKC.pdb
     RDKit          3D

 27 26  0  0  1  0  0  0  0  0999 V2000
   26.8557  -24.8340  -16.4921 N   0  0  0  0  0  0  0  0  0  0  0  0
   27.4181  -23.5357  -16.5236 C   0  0  0  0  0  0  0  0  0  0  0  0
   28.4949  -23.2664  -17.1731 N   0  0  0  0  0  0  0  0  0  0  0  0
   26.7610  -22.4915  -15.8060 N   0  0  0  0  0  0  0  0  0  0  0  0
   25.5236  -22.7889  -15.1128 C   0  0  0  0  0  0  0  0  0  0  0  0
   24.3764  -22.3864  -15.9789 C   0  0  0  0  0  0  0  0  0  0  0  0
   23.0720  -22.6664  -15.2989 C   0  0  0  0  0  0  0  0  0  0  0  0
   23.2089  -23.2651  -13.9351 C   0  0  2  0  0  0  0  0  0  0  0  0
   24.1370  -24.3726  -13.9004 N   0  0  0  0  0  0  0  0  0  0  0  0
   21.8538  -23.6594  -13.4757 C   0  0  0  0  0  0  0  0  0  0  0  0
   21.3562  -24.7049  -13.9641 O   0  0  0  0  0  0  0  0  0  0  0  0
   28.8356  -22.2910  -17.2593 N   0  0  0  0  0  0  0  0  0  0  0  0
   21.0972  -22.9289  -12.5256 C   0  0  1  0  0  0  0  0  0  0  0  0
   19.8064  -23.4341  -12.0542 C   0  0  0  0  0  0  0  0  0  0  0  0
   19.8272  -23.5740  -10.5501 C   0  0  0  0  0  0  0  0  0  0  0  0
   18.6087  -24.2385  -10.0163 C   0  0  0  0  0  0  0  0  0  0  0  0
   18.6309  -24.3784   -8.5152 C   0  0  0  0  0  0  0  0  0  0  0  0
   17.3935  -25.0319   -7.9885 N   0  0  0  0  0  0  0  0  0  0  0  0
   17.3556  -25.1452   -6.5619 C   0  0  0  0  0  0  0  0  0  0  0  0
   18.6994  -22.5920  -12.5623 O   0  0  0  0  0  0  0  0  0  0  0  0
   18.7252  -21.3481  -12.4080 N   0  0  0  0  0  0  0  0  0  0  0  0
   17.5800  -23.1664  -13.2369 C   0  0  1  0  0  0  0  0  0  0  0  0
   16.5677  -22.3048  -13.7619 C   0  0  0  0  0  0  0  0  0  0  0  0
   15.7558  -22.9493  -14.8614 S   0  0  0  0  0  0  0  0  0  0  0  0
   16.8036  -22.9692  -16.3508 C   0  0  0  0  0  0  0  0  0  0  0  0
   15.6540  -21.8774  -12.6769 O   0  0  0  0  0  0  0  0  0  0  0  0
   15.4231  -22.5812  -11.6612 O   0  0  0  0  0  0  0  0  0  0  0  0
  2  3  2  0
  2  1  1  0
  4  2  1  0
  5  4  1  0
  6  5  1  0
  7  6  1  0
  8  9  1  6
  8  7  1  0
 10 12  1  0
 10  8  1  0
 11 10  2  0
 13 12  1  0
 13 14  1  6
 14 15  1  0
 15 16  1  0
 16 17  1  0
 17 18  1  0
 19 13  1  0
 20 19  2  0
 21 19  1  0
 22 25  1  0
 22 21  1  0
 23 24  1  0
 22 23  1  1
 25 27  1  0
 26 25  2  0
M  END
$$$$
