RKC.pdb
     RDKit          3D

 27 26  0  0  1  0  0  0  0  0999 V2000
   25.4831  -20.0179   -7.8642 N   0  0  0  0  0  0  0  0  0  0  0  0
   26.8197  -20.3575   -7.5467 C   0  0  0  0  0  0  0  0  0  0  0  0
   27.2686  -20.3368   -6.3417 N   0  0  0  0  0  0  0  0  0  0  0  0
   27.6964  -20.7361   -8.6075 N   0  0  0  0  0  0  0  0  0  0  0  0
   27.5137  -20.1378   -9.9146 C   0  0  0  0  0  0  0  0  0  0  0  0
   27.4399  -21.2237  -10.9363 C   0  0  0  0  0  0  0  0  0  0  0  0
   26.5619  -20.8197  -12.0801 C   0  0  0  0  0  0  0  0  0  0  0  0
   25.3754  -21.7072  -12.2840 C   0  0  2  0  0  0  0  0  0  0  0  0
   25.7188  -23.1112  -12.2784 N   0  0  0  0  0  0  0  0  0  0  0  0
   24.7176  -21.2997  -13.5506 C   0  0  0  0  0  0  0  0  0  0  0  0
   25.1460  -21.8077  -14.6171 O   0  0  0  0  0  0  0  0  0  0  0  0
   28.2617  -20.5550   -6.1389 N   0  0  0  0  0  0  0  0  0  0  0  0
   23.6433  -20.3781  -13.6228 C   0  0  2  0  0  0  0  0  0  0  0  0
   23.0233  -20.0564  -14.9095 C   0  0  0  0  0  0  0  0  0  0  0  0
   21.5670  -19.7096  -14.7064 C   0  0  0  0  0  0  0  0  0  0  0  0
   20.7645  -20.8595  -14.2115 C   0  0  0  0  0  0  0  0  0  0  0  0
   19.2970  -20.5362  -14.0877 C   0  0  0  0  0  0  0  0  0  0  0  0
   18.5192  -21.6573  -13.4764 N   0  0  0  0  0  0  0  0  0  0  0  0
   17.1300  -21.3683  -13.2870 C   0  0  0  0  0  0  0  0  0  0  0  0
   23.7963  -19.0076  -15.6133 O   0  0  0  0  0  0  0  0  0  0  0  0
   23.8974  -17.8575  -15.1248 N   0  0  0  0  0  0  0  0  0  0  0  0
   24.4435  -19.2727  -16.8580 C   0  0  1  0  0  0  0  0  0  0  0  0
   25.2093  -18.2372  -17.4776 C   0  0  0  0  0  0  0  0  0  0  0  0
   26.6655  -18.6026  -17.6501 S   0  0  0  0  0  0  0  0  0  0  0  0
   27.4014  -18.6443  -15.9848 C   0  0  0  0  0  0  0  0  0  0  0  0
   24.6360  -17.9077  -18.8033 O   0  0  0  0  0  0  0  0  0  0  0  0
   23.9682  -18.7285  -19.4820 O   0  0  0  0  0  0  0  0  0  0  0  0
  2  3  2  0
  2  1  1  0
  4  2  1  0
  5  4  1  0
  6  5  1  0
  7  6  1  0
  8  9  1  6
  8  7  1  0
 10 12  1  0
 10  8  1  0
 11 10  2  0
 13 12  1  0
 13 14  1  6
 14 15  1  0
 15 16  1  0
 16 17  1  0
 17 18  1  0
 19 13  1  0
 20 19  2  0
 21 19  1  0
 22 25  1  0
 22 21  1  0
 23 24  1  0
 22 23  1  6
 25 27  1  0
 26 25  2  0
M  END
$$$$
