RKC.pdb
     RDKit          3D

 27 26  0  0  1  0  0  0  0  0999 V2000
   22.3276  -10.6680  -16.7269 N   0  0  0  0  0  0  0  0  0  0  0  0
   21.0547  -11.2841  -16.6733 C   0  0  0  0  0  0  0  0  0  0  0  0
   20.1031  -10.9717  -17.4801 N   0  0  0  0  0  0  0  0  0  0  0  0
   20.8253  -12.2881  -15.6852 N   0  0  0  0  0  0  0  0  0  0  0  0
   21.9240  -12.6966  -14.8332 C   0  0  0  0  0  0  0  0  0  0  0  0
   22.7506  -13.7041  -15.5612 C   0  0  0  0  0  0  0  0  0  0  0  0
   23.8724  -14.1952  -14.6994 C   0  0  0  0  0  0  0  0  0  0  0  0
   25.1405  -14.4700  -15.4434 C   0  0  2  0  0  0  0  0  0  0  0  0
   25.2399  -13.7218  -16.6760 N   0  0  0  0  0  0  0  0  0  0  0  0
   25.2229  -15.9342  -15.6723 C   0  0  0  0  0  0  0  0  0  0  0  0
   24.5587  -16.4112  -16.6265 O   0  0  0  0  0  0  0  0  0  0  0  0
   19.2124  -11.5022  -17.4846 N   0  0  0  0  0  0  0  0  0  0  0  0
   26.0018  -16.8156  -14.8818 C   0  0  1  0  0  0  0  0  0  0  0  0
   25.9426  -18.2620  -15.1009 C   0  0  0  0  0  0  0  0  0  0  0  0
   27.1756  -18.9200  -14.5273 C   0  0  0  0  0  0  0  0  0  0  0  0
   27.1640  -20.3989  -14.6811 C   0  0  0  0  0  0  0  0  0  0  0  0
   28.2449  -20.8975  -15.6065 C   0  0  0  0  0  0  0  0  0  0  0  0
   28.2301  -22.3861  -15.7453 N   0  0  0  0  0  0  0  0  0  0  0  0
   29.2801  -22.9058  -16.5679 C   0  0  0  0  0  0  0  0  0  0  0  0
   24.6714  -18.8166  -14.5822 O   0  0  0  0  0  0  0  0  0  0  0  0
   24.2888  -18.5478  -13.4189 N   0  0  0  0  0  0  0  0  0  0  0  0
   23.8510  -19.6664  -15.3841 C   0  0  1  0  0  0  0  0  0  0  0  0
   22.6659  -20.2272  -14.8151 C   0  0  0  0  0  0  0  0  0  0  0  0
   21.4181  -19.8885  -15.5973 S   0  0  0  0  0  0  0  0  0  0  0  0
   20.0152  -20.6275  -14.7014 C   0  0  0  0  0  0  0  0  0  0  0  0
   22.7941  -21.7006  -14.7287 O   0  0  0  0  0  0  0  0  0  0  0  0
   23.6830  -22.3461  -15.3398 O   0  0  0  0  0  0  0  0  0  0  0  0
  2  3  2  0
  2  1  1  0
  4  2  1  0
  5  4  1  0
  6  5  1  0
  7  6  1  0
  8  9  1  6
  8  7  1  0
 10 12  1  0
 10  8  1  0
 11 10  2  0
 13 12  1  0
 13 14  1  1
 14 15  1  0
 15 16  1  0
 16 17  1  0
 17 18  1  0
 19 13  1  0
 20 19  2  0
 21 19  1  0
 22 25  1  0
 22 21  1  0
 23 24  1  0
 22 23  1  1
 25 27  1  0
 26 25  2  0
M  END
$$$$
