RKC.pdb
     RDKit          3D

 27 26  0  0  1  0  0  0  0  0999 V2000
   27.7938  -23.5984  -18.3567 N   0  0  0  0  0  0  0  0  0  0  0  0
   27.2149  -23.3360  -17.0923 C   0  0  0  0  0  0  0  0  0  0  0  0
   27.8584  -23.5029  -15.9914 N   0  0  0  0  0  0  0  0  0  0  0  0
   25.8669  -22.8692  -17.0443 N   0  0  0  0  0  0  0  0  0  0  0  0
   25.2034  -22.7751  -15.7593 C   0  0  0  0  0  0  0  0  0  0  0  0
   25.0043  -24.1515  -15.2171 C   0  0  0  0  0  0  0  0  0  0  0  0
   23.5526  -24.5186  -15.2165 C   0  0  0  0  0  0  0  0  0  0  0  0
   23.2874  -25.9661  -14.9491 C   0  0  2  0  0  0  0  0  0  0  0  0
   23.4663  -26.7939  -16.1204 N   0  0  0  0  0  0  0  0  0  0  0  0
   21.9169  -26.0798  -14.3907 C   0  0  0  0  0  0  0  0  0  0  0  0
   20.9538  -25.8462  -15.1633 O   0  0  0  0  0  0  0  0  0  0  0  0
   27.4081  -23.3141  -15.0768 N   0  0  0  0  0  0  0  0  0  0  0  0
   21.6372  -26.4338  -13.0472 C   0  0  2  0  0  0  0  0  0  0  0  0
   20.2545  -26.5584  -12.5822 C   0  0  0  0  0  0  0  0  0  0  0  0
   20.2260  -27.2234  -11.2260 C   0  0  0  0  0  0  0  0  0  0  0  0
   18.8456  -27.5165  -10.7570 C   0  0  0  0  0  0  0  0  0  0  0  0
   18.8209  -28.2597   -9.4453 C   0  0  0  0  0  0  0  0  0  0  0  0
   17.4366  -28.6600   -9.0466 N   0  0  0  0  0  0  0  0  0  0  0  0
   17.3810  -29.4778   -7.8730 C   0  0  0  0  0  0  0  0  0  0  0  0
   19.5709  -25.2454  -12.6202 O   0  0  0  0  0  0  0  0  0  0  0  0
   20.1614  -24.2104  -12.2308 N   0  0  0  0  0  0  0  0  0  0  0  0
   18.2311  -25.1204  -13.0970 C   0  0  1  0  0  0  0  0  0  0  0  0
   17.6040  -23.8362  -13.0796 C   0  0  0  0  0  0  0  0  0  0  0  0
   17.1369  -23.3887  -14.4453 S   0  0  0  0  0  0  0  0  0  0  0  0
   16.3977  -21.7374  -14.2367 C   0  0  0  0  0  0  0  0  0  0  0  0
   16.4456  -23.8510  -12.1562 O   0  0  0  0  0  0  0  0  0  0  0  0
   15.6591  -24.8271  -12.0623 O   0  0  0  0  0  0  0  0  0  0  0  0
  2  3  2  0
  2  1  1  0
  4  2  1  0
  5  4  1  0
  6  5  1  0
  7  6  1  0
  8  9  1  6
  8  7  1  0
 10 12  1  0
 10  8  1  0
 11 10  2  0
 13 12  1  0
 13 14  1  6
 14 15  1  0
 15 16  1  0
 16 17  1  0
 17 18  1  0
 19 13  1  0
 20 19  2  0
 21 19  1  0
 22 25  1  0
 22 21  1  0
 23 24  1  0
 22 23  1  1
 25 27  1  0
 26 25  2  0
M  END
$$$$
