VYD.pdb
     RDKit          3D

 28 28  0  0  1  0  0  0  0  0999 V2000
   23.3407  -13.1453  -16.9423 C   0  0  0  0  0  0  0  0  0  0  0  0
   21.8926  -13.0526  -16.6252 C   0  0  2  0  0  0  0  0  0  0  0  0
   21.0631  -14.0475  -17.4465 C   0  0  0  0  0  0  0  0  0  0  0  0
   21.2649  -11.6976  -16.8806 C   0  0  2  0  0  0  0  0  0  0  0  0
   21.3207  -11.4134  -18.3196 N   0  0  0  0  0  0  0  0  0  0  0  0
   21.9887  -10.5860  -16.2147 C   0  0  0  0  0  0  0  0  0  0  0  0
   22.0403  -10.5110  -14.9345 O   0  0  0  0  0  0  0  0  0  0  0  0
   27.9253  -13.0212  -16.5530 O   0  0  0  0  0  0  0  0  0  0  0  0
   27.1362  -11.8742  -16.6322 C   0  0  0  0  0  0  0  0  0  0  0  0
   26.5139  -11.5048  -17.7984 C   0  0  0  0  0  0  0  0  0  0  0  0
   25.7374  -10.3663  -17.8562 C   0  0  0  0  0  0  0  0  0  0  0  0
   25.5426   -9.5447  -16.7657 C   0  0  0  0  0  0  0  0  0  0  0  0
   24.7184   -8.3377  -16.8288 C   0  0  0  0  0  0  0  0  0  0  0  0
   23.3648   -8.4749  -16.1890 C   0  0  2  0  0  0  0  0  0  0  0  0
   22.6691   -9.5393  -16.8930 N   0  0  0  0  0  0  0  0  0  0  0  0
   22.5776   -7.2337  -16.1467 C   0  0  0  0  0  0  0  0  0  0  0  0
   21.8711   -6.9251  -17.1408 O   0  0  0  0  0  0  0  0  0  0  0  0
   26.1823   -9.9370  -15.5929 C   0  0  0  0  0  0  0  0  0  0  0  0
   26.9610  -11.0730  -15.5230 C   0  0  0  0  0  0  0  0  0  0  0  0
   22.5539   -6.3391  -15.0442 N   0  0  0  0  0  0  0  0  0  0  0  0
   21.6985   -5.1727  -14.9982 C   0  0  1  0  0  0  0  0  0  0  0  0
   20.2340   -5.5401  -15.1950 C   0  0  0  0  0  0  0  0  0  0  0  0
   19.3331   -4.3732  -15.1820 C   0  0  0  0  0  0  0  0  0  0  0  0
   19.7530   -3.2444  -15.5187 O   0  0  0  0  0  0  0  0  0  0  0  0
   21.8554   -4.4012  -13.7523 C   0  0  0  0  0  0  0  0  0  0  0  0
   21.9208   -3.1574  -13.7995 O   0  0  0  0  0  0  0  0  0  0  0  0
   18.0153   -4.4860  -14.8034 O   0  0  0  0  0  0  0  0  0  0  0  0
   21.9323   -5.0245  -12.5269 O   0  0  0  0  0  0  0  0  0  0  0  0
  2  1  1  6
  2  3  1  0
  4  2  1  0
  4  5  1  6
  6  7  2  0
  6  4  1  0
  9  8  1  0
 10  9  2  0
 11 10  1  0
 12 11  2  0
 12 18  1  0
 13 12  1  0
 14 13  1  6
 14 15  1  0
 15  6  1  0
 16 20  1  0
 16 14  1  0
 17 16  2  0
 18 19  2  0
 19  9  1  0
 21 20  1  0
 21 25  1  0
 21 22  1  1
 23 22  1  0
 24 23  2  0
 25 28  1  0
 26 25  2  0
 27 23  1  0
M  END
$$$$
