VYD.pdb
     RDKit          3D

 28 28  0  0  1  0  0  0  0  0999 V2000
   21.1828   -9.4702  -18.8574 C   0  0  0  0  0  0  0  0  0  0  0  0
   20.1543  -10.5105  -18.5999 C   0  0  2  0  0  0  0  0  0  0  0  0
   18.7353   -9.9857  -18.8521 C   0  0  0  0  0  0  0  0  0  0  0  0
   20.1357  -11.0593  -17.1879 C   0  0  2  0  0  0  0  0  0  0  0  0
   19.1049  -12.1004  -17.0980 N   0  0  0  0  0  0  0  0  0  0  0  0
   19.7776  -10.0387  -16.1714 C   0  0  0  0  0  0  0  0  0  0  0  0
   18.5496   -9.7432  -15.9433 O   0  0  0  0  0  0  0  0  0  0  0  0
   19.6487   -4.7364   -9.1164 O   0  0  0  0  0  0  0  0  0  0  0  0
   19.9938   -5.6407  -10.1201 C   0  0  0  0  0  0  0  0  0  0  0  0
   20.9478   -5.3454  -11.0617 C   0  0  0  0  0  0  0  0  0  0  0  0
   21.2748   -6.2538  -12.0466 C   0  0  0  0  0  0  0  0  0  0  0  0
   20.6743   -7.4916  -12.1437 C   0  0  0  0  0  0  0  0  0  0  0  0
   21.0228   -8.4541  -13.1890 C   0  0  0  0  0  0  0  0  0  0  0  0
   20.3170   -8.2333  -14.4979 C   0  0  2  0  0  0  0  0  0  0  0  0
   20.7125   -9.3178  -15.3811 N   0  0  0  0  0  0  0  0  0  0  0  0
   20.5482   -6.9141  -15.1047 C   0  0  0  0  0  0  0  0  0  0  0  0
   21.4363   -6.7960  -15.9878 O   0  0  0  0  0  0  0  0  0  0  0  0
   19.7098   -7.7716  -11.1794 C   0  0  0  0  0  0  0  0  0  0  0  0
   19.3744   -6.8714  -10.1900 C   0  0  0  0  0  0  0  0  0  0  0  0
   19.8285   -5.7390  -14.7619 N   0  0  0  0  0  0  0  0  0  0  0  0
   19.9417   -4.5038  -15.5072 C   0  0  1  0  0  0  0  0  0  0  0  0
   19.6123   -4.7026  -16.9804 C   0  0  0  0  0  0  0  0  0  0  0  0
   19.5996   -3.4453  -17.7502 C   0  0  0  0  0  0  0  0  0  0  0  0
   20.4113   -2.5316  -17.4853 O   0  0  0  0  0  0  0  0  0  0  0  0
   19.1054   -3.4252  -14.9509 C   0  0  0  0  0  0  0  0  0  0  0  0
   17.9210   -3.6587  -14.6411 O   0  0  0  0  0  0  0  0  0  0  0  0
   18.7045   -3.2376  -18.7741 O   0  0  0  0  0  0  0  0  0  0  0  0
   19.6033   -2.1552  -14.7632 O   0  0  0  0  0  0  0  0  0  0  0  0
  2  1  1  1
  2  3  1  0
  4  2  1  0
  4  5  1  6
  6  7  2  0
  6  4  1  0
  9  8  1  0
 10  9  2  0
 11 10  1  0
 12 11  2  0
 12 18  1  0
 13 12  1  0
 14 13  1  1
 14 15  1  0
 15  6  1  0
 16 20  1  0
 16 14  1  0
 17 16  2  0
 18 19  2  0
 19  9  1  0
 21 20  1  0
 21 25  1  0
 21 22  1  6
 23 22  1  0
 24 23  2  0
 25 28  1  0
 26 25  2  0
 27 23  1  0
M  END
$$$$
