VYD.pdb
     RDKit          3D

 28 28  0  0  1  0  0  0  0  0999 V2000
   18.5073  -14.1006  -17.7461 C   0  0  0  0  0  0  0  0  0  0  0  0
   18.0347  -13.9329  -16.3480 C   0  0  2  0  0  0  0  0  0  0  0  0
   17.1118  -15.0792  -15.9156 C   0  0  0  0  0  0  0  0  0  0  0  0
   17.2515  -12.6635  -16.0829 C   0  0  2  0  0  0  0  0  0  0  0  0
   16.0674  -12.6477  -16.9502 N   0  0  0  0  0  0  0  0  0  0  0  0
   18.0132  -11.4313  -16.4063 C   0  0  0  0  0  0  0  0  0  0  0  0
   19.0442  -11.0983  -15.7182 O   0  0  0  0  0  0  0  0  0  0  0  0
   22.9920  -13.3359  -20.0355 O   0  0  0  0  0  0  0  0  0  0  0  0
   21.9915  -12.3883  -19.8226 C   0  0  0  0  0  0  0  0  0  0  0  0
   20.6603  -12.7122  -19.9061 C   0  0  0  0  0  0  0  0  0  0  0  0
   19.6856  -11.7602  -19.6920 C   0  0  0  0  0  0  0  0  0  0  0  0
   19.9837  -10.4486  -19.3866 C   0  0  0  0  0  0  0  0  0  0  0  0
   18.9484   -9.4401  -19.1595 C   0  0  0  0  0  0  0  0  0  0  0  0
   18.4788   -9.3410  -17.7348 C   0  0  2  0  0  0  0  0  0  0  0  0
   17.6963  -10.5352  -17.4622 N   0  0  0  0  0  0  0  0  0  0  0  0
   17.7387   -8.1109  -17.4169 C   0  0  0  0  0  0  0  0  0  0  0  0
   16.4853   -8.1079  -17.5246 O   0  0  0  0  0  0  0  0  0  0  0  0
   21.3392  -10.1408  -19.3068 C   0  0  0  0  0  0  0  0  0  0  0  0
   22.3225  -11.0841  -19.5187 C   0  0  0  0  0  0  0  0  0  0  0  0
   18.3455   -6.9010  -16.9878 N   0  0  0  0  0  0  0  0  0  0  0  0
   17.5829   -5.7241  -16.6304 C   0  0  1  0  0  0  0  0  0  0  0  0
   16.5373   -6.0319  -15.5671 C   0  0  0  0  0  0  0  0  0  0  0  0
   15.8200   -4.8353  -15.0907 C   0  0  0  0  0  0  0  0  0  0  0  0
   15.1189   -4.1615  -15.8771 O   0  0  0  0  0  0  0  0  0  0  0  0
   18.4353   -4.6084  -16.1825 C   0  0  0  0  0  0  0  0  0  0  0  0
   17.9217   -3.5015  -15.9287 O   0  0  0  0  0  0  0  0  0  0  0  0
   15.8971   -4.4246  -13.7800 O   0  0  0  0  0  0  0  0  0  0  0  0
   19.7961   -4.7587  -16.0362 O   0  0  0  0  0  0  0  0  0  0  0  0
  2  1  1  6
  2  3  1  0
  4  2  1  0
  4  5  1  6
  6  7  2  0
  6  4  1  0
  9  8  1  0
 10  9  2  0
 11 10  1  0
 12 11  2  0
 12 18  1  0
 13 12  1  0
 14 13  1  6
 14 15  1  0
 15  6  1  0
 16 20  1  0
 16 14  1  0
 17 16  2  0
 18 19  2  0
 19  9  1  0
 21 20  1  0
 21 25  1  0
 21 22  1  1
 23 22  1  0
 24 23  2  0
 25 28  1  0
 26 25  2  0
 27 23  1  0
M  END
$$$$
