VYD.pdb
     RDKit          3D

 28 28  0  0  1  0  0  0  0  0999 V2000
   29.8747  -22.4082  -16.8609 C   0  0  0  0  0  0  0  0  0  0  0  0
   28.5187  -23.0124  -16.9090 C   0  0  2  0  0  0  0  0  0  0  0  0
   28.3441  -23.9280  -18.1271 C   0  0  0  0  0  0  0  0  0  0  0  0
   27.3760  -22.0204  -16.9838 C   0  0  2  0  0  0  0  0  0  0  0  0
   27.9263  -20.6602  -16.9439 N   0  0  0  0  0  0  0  0  0  0  0  0
   26.4431  -22.1193  -15.8336 C   0  0  0  0  0  0  0  0  0  0  0  0
   25.7697  -23.1920  -15.6258 O   0  0  0  0  0  0  0  0  0  0  0  0
   22.0821  -20.3596   -8.2643 O   0  0  0  0  0  0  0  0  0  0  0  0
   22.9520  -20.3640   -9.3540 C   0  0  0  0  0  0  0  0  0  0  0  0
   22.6023  -19.8091  -10.5596 C   0  0  0  0  0  0  0  0  0  0  0  0
   23.4773  -19.8236  -11.6257 C   0  0  0  0  0  0  0  0  0  0  0  0
   24.7341  -20.3863  -11.5466 C   0  0  0  0  0  0  0  0  0  0  0  0
   25.6611  -20.4006  -12.6783 C   0  0  0  0  0  0  0  0  0  0  0  0
   25.1745  -21.1760  -13.8709 C   0  0  2  0  0  0  0  0  0  0  0  0
   26.2105  -21.0862  -14.8864 N   0  0  0  0  0  0  0  0  0  0  0  0
   23.8615  -20.7556  -14.3821 C   0  0  0  0  0  0  0  0  0  0  0  0
   23.7642  -19.6531  -14.9802 O   0  0  0  0  0  0  0  0  0  0  0  0
   25.0692  -20.9436  -10.3155 C   0  0  0  0  0  0  0  0  0  0  0  0
   24.2028  -20.9351   -9.2426 C   0  0  0  0  0  0  0  0  0  0  0  0
   22.6705  -21.5172  -14.2491 N   0  0  0  0  0  0  0  0  0  0  0  0
   21.3783  -21.0364  -14.6890 C   0  0  1  0  0  0  0  0  0  0  0  0
   21.0128  -21.5809  -16.0631 C   0  0  0  0  0  0  0  0  0  0  0  0
   20.1354  -20.6804  -16.8330 C   0  0  0  0  0  0  0  0  0  0  0  0
   19.7626  -19.5902  -16.3466 O   0  0  0  0  0  0  0  0  0  0  0  0
   20.3016  -21.3410  -13.7299 C   0  0  0  0  0  0  0  0  0  0  0  0
   20.3040  -22.4297  -13.1231 O   0  0  0  0  0  0  0  0  0  0  0  0
   19.7024  -21.0055  -18.0976 O   0  0  0  0  0  0  0  0  0  0  0  0
   19.2842  -20.4461  -13.4849 O   0  0  0  0  0  0  0  0  0  0  0  0
  2  1  1  6
  2  3  1  0
  4  2  1  0
  4  5  1  1
  6  7  2  0
  6  4  1  0
  9  8  1  0
 10  9  2  0
 11 10  1  0
 12 11  2  0
 12 18  1  0
 13 12  1  0
 14 13  1  1
 14 15  1  0
 15  6  1  0
 16 20  1  0
 16 14  1  0
 17 16  2  0
 18 19  2  0
 19  9  1  0
 21 20  1  0
 21 25  1  0
 21 22  1  6
 23 22  1  0
 24 23  2  0
 25 28  1  0
 26 25  2  0
 27 23  1  0
M  END
$$$$
