VYD.pdb
     RDKit          3D

 28 28  0  0  1  0  0  0  0  0999 V2000
   21.4148  -12.9932  -17.0091 C   0  0  0  0  0  0  0  0  0  0  0  0
   20.4807  -12.5990  -18.0946 C   0  0  2  0  0  0  0  0  0  0  0  0
   20.8211  -13.2906  -19.4205 C   0  0  0  0  0  0  0  0  0  0  0  0
   20.4507  -11.1173  -18.4093 C   0  0  2  0  0  0  0  0  0  0  0  0
   21.7616  -10.7183  -18.9354 N   0  0  0  0  0  0  0  0  0  0  0  0
   20.2150  -10.2725  -17.2118 C   0  0  0  0  0  0  0  0  0  0  0  0
   19.1297  -10.3820  -16.5355 O   0  0  0  0  0  0  0  0  0  0  0  0
   20.3630   -5.6114   -9.8552 O   0  0  0  0  0  0  0  0  0  0  0  0
   20.7013   -6.3155  -11.0103 C   0  0  0  0  0  0  0  0  0  0  0  0
   21.5348   -5.7838  -11.9623 C   0  0  0  0  0  0  0  0  0  0  0  0
   21.8573   -6.4965  -13.0981 C   0  0  0  0  0  0  0  0  0  0  0  0
   21.3709   -7.7639  -13.3421 C   0  0  0  0  0  0  0  0  0  0  0  0
   21.7144   -8.5186  -14.5475 C   0  0  0  0  0  0  0  0  0  0  0  0
   20.7532   -8.3378  -15.6893 C   0  0  2  0  0  0  0  0  0  0  0  0
   21.1239   -9.3016  -16.7121 N   0  0  0  0  0  0  0  0  0  0  0  0
   20.6818   -6.9684  -16.2202 C   0  0  0  0  0  0  0  0  0  0  0  0
   21.5051   -6.6124  -17.1023 O   0  0  0  0  0  0  0  0  0  0  0  0
   20.5275   -8.2850  -12.3646 C   0  0  0  0  0  0  0  0  0  0  0  0
   20.1979   -7.5818  -11.2249 C   0  0  0  0  0  0  0  0  0  0  0  0
   19.7328   -5.9979  -15.8036 N   0  0  0  0  0  0  0  0  0  0  0  0
   19.7198   -4.6435  -16.3133 C   0  0  1  0  0  0  0  0  0  0  0  0
   18.3194   -4.0462  -16.2898 C   0  0  0  0  0  0  0  0  0  0  0  0
   17.3829   -4.7187  -17.2086 C   0  0  0  0  0  0  0  0  0  0  0  0
   17.8035   -5.2778  -18.2452 O   0  0  0  0  0  0  0  0  0  0  0  0
   20.6519   -3.7564  -15.5947 C   0  0  0  0  0  0  0  0  0  0  0  0
   21.2156   -4.1607  -14.5592 O   0  0  0  0  0  0  0  0  0  0  0  0
   16.0304   -4.7532  -16.9591 O   0  0  0  0  0  0  0  0  0  0  0  0
   20.9182   -2.4816  -16.0417 O   0  0  0  0  0  0  0  0  0  0  0  0
  2  1  1  1
  2  3  1  0
  4  2  1  0
  4  5  1  1
  6  7  2  0
  6  4  1  0
  9  8  1  0
 10  9  2  0
 11 10  1  0
 12 11  2  0
 12 18  1  0
 13 12  1  0
 14 13  1  1
 14 15  1  0
 15  6  1  0
 16 20  1  0
 16 14  1  0
 17 16  2  0
 18 19  2  0
 19  9  1  0
 21 20  1  0
 21 25  1  0
 21 22  1  1
 23 22  1  0
 24 23  2  0
 25 28  1  0
 26 25  2  0
 27 23  1  0
M  END
$$$$
