VYD.pdb
     RDKit          3D

 28 28  0  0  1  0  0  0  0  0999 V2000
   16.7202  -10.8797  -18.5461 C   0  0  0  0  0  0  0  0  0  0  0  0
   16.9631   -9.7273  -17.6411 C   0  0  2  0  0  0  0  0  0  0  0  0
   16.8607   -8.3879  -18.3814 C   0  0  0  0  0  0  0  0  0  0  0  0
   18.3211   -9.7134  -16.9696 C   0  0  2  0  0  0  0  0  0  0  0  0
   18.4075  -10.8559  -16.0521 N   0  0  0  0  0  0  0  0  0  0  0  0
   18.5481   -8.5035  -16.1403 C   0  0  0  0  0  0  0  0  0  0  0  0
   18.0995   -8.4379  -14.9396 O   0  0  0  0  0  0  0  0  0  0  0  0
   22.9435   -9.6977  -11.5527 O   0  0  0  0  0  0  0  0  0  0  0  0
   22.4580   -8.8204  -12.5218 C   0  0  0  0  0  0  0  0  0  0  0  0
   22.6565   -9.0425  -13.8616 C   0  0  0  0  0  0  0  0  0  0  0  0
   22.1683   -8.1625  -14.8047 C   0  0  0  0  0  0  0  0  0  0  0  0
   21.4637   -7.0265  -14.4652 C   0  0  0  0  0  0  0  0  0  0  0  0
   20.9462   -6.0943  -15.4670 C   0  0  0  0  0  0  0  0  0  0  0  0
   19.4653   -6.1968  -15.7055 C   0  0  2  0  0  0  0  0  0  0  0  0
   19.2535   -7.3470  -16.5685 N   0  0  0  0  0  0  0  0  0  0  0  0
   18.8452   -4.9783  -16.2465 C   0  0  0  0  0  0  0  0  0  0  0  0
   19.1187   -4.6251  -17.4225 O   0  0  0  0  0  0  0  0  0  0  0  0
   21.2733   -6.8196  -13.1015 C   0  0  0  0  0  0  0  0  0  0  0  0
   21.7567   -7.6923  -12.1495 C   0  0  0  0  0  0  0  0  0  0  0  0
   17.9414   -4.1535  -15.5260 N   0  0  0  0  0  0  0  0  0  0  0  0
   17.3646   -2.9485  -16.0822 C   0  0  1  0  0  0  0  0  0  0  0  0
   16.0351   -2.6047  -15.4244 C   0  0  0  0  0  0  0  0  0  0  0  0
   14.9474   -3.5309  -15.7884 C   0  0  0  0  0  0  0  0  0  0  0  0
   14.7433   -3.8297  -16.9855 O   0  0  0  0  0  0  0  0  0  0  0  0
   18.2747   -1.7921  -16.0001 C   0  0  0  0  0  0  0  0  0  0  0  0
   17.9174   -0.6904  -16.4606 O   0  0  0  0  0  0  0  0  0  0  0  0
   14.1299   -4.0911  -14.8342 O   0  0  0  0  0  0  0  0  0  0  0  0
   19.5203   -1.8986  -15.4230 O   0  0  0  0  0  0  0  0  0  0  0  0
  2  1  1  6
  2  3  1  0
  4  2  1  0
  4  5  1  1
  6  7  2  0
  6  4  1  0
  9  8  1  0
 10  9  2  0
 11 10  1  0
 12 11  2  0
 12 18  1  0
 13 12  1  0
 14 13  1  6
 14 15  1  0
 15  6  1  0
 16 20  1  0
 16 14  1  0
 17 16  2  0
 18 19  2  0
 19  9  1  0
 21 20  1  0
 21 25  1  0
 21 22  1  1
 23 22  1  0
 24 23  2  0
 25 28  1  0
 26 25  2  0
 27 23  1  0
M  END
$$$$
