VYD.pdb
     RDKit          3D

 28 28  0  0  1  0  0  0  0  0999 V2000
   29.5355  -21.8490  -16.4169 C   0  0  0  0  0  0  0  0  0  0  0  0
   28.8678  -22.4188  -17.6151 C   0  0  2  0  0  0  0  0  0  0  0  0
   29.4414  -21.8440  -18.9163 C   0  0  0  0  0  0  0  0  0  0  0  0
   27.3740  -22.1787  -17.6928 C   0  0  2  0  0  0  0  0  0  0  0  0
   27.1385  -20.7991  -18.1354 N   0  0  0  0  0  0  0  0  0  0  0  0
   26.6942  -22.3099  -16.3798 C   0  0  0  0  0  0  0  0  0  0  0  0
   26.6614  -23.4378  -15.7683 O   0  0  0  0  0  0  0  0  0  0  0  0
   23.3909  -20.8389   -8.3348 O   0  0  0  0  0  0  0  0  0  0  0  0
   23.9962  -20.7541   -9.5881 C   0  0  0  0  0  0  0  0  0  0  0  0
   25.2671  -21.2224   -9.8097 C   0  0  0  0  0  0  0  0  0  0  0  0
   25.8482  -21.1292  -11.0570 C   0  0  0  0  0  0  0  0  0  0  0  0
   25.1995  -20.5698  -12.1380 C   0  0  0  0  0  0  0  0  0  0  0  0
   25.8174  -20.4720  -13.4605 C   0  0  0  0  0  0  0  0  0  0  0  0
   25.2925  -21.4582  -14.4665 C   0  0  2  0  0  0  0  0  0  0  0  0
   26.0413  -21.2502  -15.6947 N   0  0  0  0  0  0  0  0  0  0  0  0
   23.8401  -21.3952  -14.6874 C   0  0  0  0  0  0  0  0  0  0  0  0
   23.3566  -20.3996  -15.2853 O   0  0  0  0  0  0  0  0  0  0  0  0
   23.9117  -20.1009  -11.8923 C   0  0  0  0  0  0  0  0  0  0  0  0
   23.3204  -20.1887  -10.6496 C   0  0  0  0  0  0  0  0  0  0  0  0
   22.9235  -22.3955  -14.2682 N   0  0  0  0  0  0  0  0  0  0  0  0
   21.4896  -22.2505  -14.3991 C   0  0  1  0  0  0  0  0  0  0  0  0
   20.7420  -23.1092  -13.3881 C   0  0  0  0  0  0  0  0  0  0  0  0
   19.2792  -23.0850  -13.5707 C   0  0  0  0  0  0  0  0  0  0  0  0
   18.5966  -22.1506  -13.0967 O   0  0  0  0  0  0  0  0  0  0  0  0
   21.0471  -20.8492  -14.2863 C   0  0  0  0  0  0  0  0  0  0  0  0
   20.4592  -20.3077  -15.2428 O   0  0  0  0  0  0  0  0  0  0  0  0
   18.6239  -24.0784  -14.2609 O   0  0  0  0  0  0  0  0  0  0  0  0
   21.2683  -20.1165  -13.1417 O   0  0  0  0  0  0  0  0  0  0  0  0
  2  1  1  1
  2  3  1  0
  4  2  1  0
  4  5  1  1
  6  7  2  0
  6  4  1  0
  9  8  1  0
 10  9  2  0
 11 10  1  0
 12 11  2  0
 12 18  1  0
 13 12  1  0
 14 13  1  1
 14 15  1  0
 15  6  1  0
 16 20  1  0
 16 14  1  0
 17 16  2  0
 18 19  2  0
 19  9  1  0
 21 20  1  0
 21 25  1  0
 21 22  1  1
 23 22  1  0
 24 23  2  0
 25 28  1  0
 26 25  2  0
 27 23  1  0
M  END
$$$$
