VYD.pdb
     RDKit          3D

 28 28  0  0  1  0  0  0  0  0999 V2000
   22.8304  -14.2270  -17.5831 C   0  0  0  0  0  0  0  0  0  0  0  0
   23.8819  -13.2795  -18.0333 C   0  0  2  0  0  0  0  0  0  0  0  0
   25.2814  -13.9031  -17.9620 C   0  0  0  0  0  0  0  0  0  0  0  0
   23.9724  -11.9946  -17.2359 C   0  0  2  0  0  0  0  0  0  0  0  0
   24.2830  -12.3245  -15.8397 N   0  0  0  0  0  0  0  0  0  0  0  0
   22.6959  -11.2379  -17.2043 C   0  0  0  0  0  0  0  0  0  0  0  0
   22.2100  -10.7267  -18.2766 O   0  0  0  0  0  0  0  0  0  0  0  0
   17.7787  -14.8398  -19.4766 O   0  0  0  0  0  0  0  0  0  0  0  0
   18.2166  -13.9144  -18.5298 C   0  0  0  0  0  0  0  0  0  0  0  0
   17.9698  -12.5711  -18.6647 C   0  0  0  0  0  0  0  0  0  0  0  0
   18.4115  -11.6718  -17.7169 C   0  0  0  0  0  0  0  0  0  0  0  0
   19.1152  -12.0604  -16.5962 C   0  0  0  0  0  0  0  0  0  0  0  0
   19.5827  -11.1051  -15.5916 C   0  0  0  0  0  0  0  0  0  0  0  0
   20.7010  -10.2133  -16.0546 C   0  0  2  0  0  0  0  0  0  0  0  0
   21.9148  -11.0126  -16.0390 N   0  0  0  0  0  0  0  0  0  0  0  0
   20.8498   -8.9675  -15.2877 C   0  0  0  0  0  0  0  0  0  0  0  0
   21.4361   -9.0022  -14.1753 O   0  0  0  0  0  0  0  0  0  0  0  0
   19.3550  -13.4268  -16.4781 C   0  0  0  0  0  0  0  0  0  0  0  0
   18.9184  -14.3354  -17.4192 C   0  0  0  0  0  0  0  0  0  0  0  0
   20.3719   -7.7016  -15.7184 N   0  0  0  0  0  0  0  0  0  0  0  0
   20.5466   -6.4918  -14.9438 C   0  0  1  0  0  0  0  0  0  0  0  0
   22.0027   -6.2785  -14.5530 C   0  0  0  0  0  0  0  0  0  0  0  0
   22.2385   -5.0011  -13.8558 C   0  0  0  0  0  0  0  0  0  0  0  0
   21.3988   -4.5592  -13.0412 O   0  0  0  0  0  0  0  0  0  0  0  0
   20.0361   -5.2948  -15.6356 C   0  0  0  0  0  0  0  0  0  0  0  0
   19.9887   -4.2053  -15.0323 O   0  0  0  0  0  0  0  0  0  0  0  0
   23.3772   -4.2610  -14.0755 O   0  0  0  0  0  0  0  0  0  0  0  0
   19.6064   -5.3498  -16.9427 O   0  0  0  0  0  0  0  0  0  0  0  0
  2  1  1  1
  2  3  1  0
  4  2  1  0
  4  5  1  1
  6  7  2  0
  6  4  1  0
  9  8  1  0
 10  9  2  0
 11 10  1  0
 12 11  2  0
 12 18  1  0
 13 12  1  0
 14 13  1  1
 14 15  1  0
 15  6  1  0
 16 20  1  0
 16 14  1  0
 17 16  2  0
 18 19  2  0
 19  9  1  0
 21 20  1  0
 21 25  1  0
 21 22  1  6
 23 22  1  0
 24 23  2  0
 25 28  1  0
 26 25  2  0
 27 23  1  0
M  END
$$$$
