VYD.pdb
     RDKit          3D

 28 28  0  0  1  0  0  0  0  0999 V2000
   26.2911  -10.9706  -16.3305 C   0  0  0  0  0  0  0  0  0  0  0  0
   25.3127  -11.9305  -15.7583 C   0  0  2  0  0  0  0  0  0  0  0  0
   25.9558  -13.2896  -15.4555 C   0  0  0  0  0  0  0  0  0  0  0  0
   24.1213  -12.2368  -16.6426 C   0  0  2  0  0  0  0  0  0  0  0  0
   24.5967  -12.8893  -17.8685 N   0  0  0  0  0  0  0  0  0  0  0  0
   23.3940  -11.0196  -17.0816 C   0  0  0  0  0  0  0  0  0  0  0  0
   23.7985  -10.3437  -18.0948 O   0  0  0  0  0  0  0  0  0  0  0  0
   16.7179  -12.5990  -14.3241 O   0  0  0  0  0  0  0  0  0  0  0  0
   17.6050  -11.8744  -15.1194 C   0  0  0  0  0  0  0  0  0  0  0  0
   18.4635  -12.4941  -15.9928 C   0  0  0  0  0  0  0  0  0  0  0  0
   19.3335  -11.7593  -16.7708 C   0  0  0  0  0  0  0  0  0  0  0  0
   19.3929  -10.3823  -16.7197 C   0  0  0  0  0  0  0  0  0  0  0  0
   20.3162   -9.6046  -17.5461 C   0  0  0  0  0  0  0  0  0  0  0  0
   21.6108   -9.2516  -16.8681 C   0  0  2  0  0  0  0  0  0  0  0  0
   22.2283  -10.5013  -16.4563 N   0  0  0  0  0  0  0  0  0  0  0  0
   21.4800   -8.3052  -15.7504 C   0  0  0  0  0  0  0  0  0  0  0  0
   21.5198   -8.7436  -14.5719 O   0  0  0  0  0  0  0  0  0  0  0  0
   18.5142   -9.7733  -15.8277 C   0  0  0  0  0  0  0  0  0  0  0  0
   17.6399  -10.4974  -15.0447 C   0  0  0  0  0  0  0  0  0  0  0  0
   21.3092   -6.9040  -15.9050 N   0  0  0  0  0  0  0  0  0  0  0  0
   21.1711   -6.0016  -14.7821 C   0  0  1  0  0  0  0  0  0  0  0  0
   22.4568   -5.2297  -14.5183 C   0  0  0  0  0  0  0  0  0  0  0  0
   22.3501   -4.2870  -13.3898 C   0  0  0  0  0  0  0  0  0  0  0  0
   22.1270   -3.0739  -13.5962 O   0  0  0  0  0  0  0  0  0  0  0  0
   20.0490   -5.0599  -14.9440 C   0  0  0  0  0  0  0  0  0  0  0  0
   19.5586   -4.8712  -16.0742 O   0  0  0  0  0  0  0  0  0  0  0  0
   22.4907   -4.7056  -12.0869 O   0  0  0  0  0  0  0  0  0  0  0  0
   19.5240   -4.3773  -13.8695 O   0  0  0  0  0  0  0  0  0  0  0  0
  2  1  1  6
  2  3  1  0
  4  2  1  0
  4  5  1  6
  6  7  2  0
  6  4  1  0
  9  8  1  0
 10  9  2  0
 11 10  1  0
 12 11  2  0
 12 18  1  0
 13 12  1  0
 14 13  1  1
 14 15  1  0
 15  6  1  0
 16 20  1  0
 16 14  1  0
 17 16  2  0
 18 19  2  0
 19  9  1  0
 21 20  1  0
 21 25  1  0
 21 22  1  6
 23 22  1  0
 24 23  2  0
 25 28  1  0
 26 25  2  0
 27 23  1  0
M  END
$$$$
