ECS.pdb
     RDKit          3D

 22 21  0  0  1  0  0  0  0  0999 V2000
   24.2031  -12.7586  -19.4040 N   0  0  0  0  0  0  0  0  0  0  0  0
   24.0727  -13.3152  -18.0712 C   0  0  1  0  0  0  0  0  0  0  0  0
   24.8188  -14.6019  -17.9971 C   0  0  0  0  0  0  0  0  0  0  0  0
   24.4359  -15.6372  -19.0129 C   0  0  0  0  0  0  0  0  0  0  0  0
   25.2462  -16.8527  -18.9184 C   0  0  0  0  0  0  0  0  0  0  0  0
   26.1573  -16.9462  -18.0611 O   0  0  0  0  0  0  0  0  0  0  0  0
   24.5370  -12.3067  -17.1007 C   0  0  0  0  0  0  0  0  0  0  0  0
   24.4706  -12.5439  -15.8712 O   0  0  0  0  0  0  0  0  0  0  0  0
   25.0390  -17.9296  -19.7614 O   0  0  0  0  0  0  0  0  0  0  0  0
   25.0709  -11.0464  -17.4780 N   0  0  0  0  0  0  0  0  0  0  0  0
   25.4249  -10.0343  -16.4611 C   0  0  1  0  0  0  0  0  0  0  0  0
   26.8561   -9.5977  -16.7998 C   0  0  0  0  0  0  0  0  0  0  0  0
   28.0741  -10.7765  -16.1981 S   0  0  0  0  0  0  0  0  0  0  0  0
   24.5428   -8.8539  -16.6480 C   0  0  0  0  0  0  0  0  0  0  0  0
   24.2879   -8.4456  -17.8337 O   0  0  0  0  0  0  0  0  0  0  0  0
   21.7959   -5.3281  -14.6510 O   0  0  0  0  0  0  0  0  0  0  0  0
   22.5668   -6.4615  -14.5249 C   0  0  0  0  0  0  0  0  0  0  0  0
   23.0550   -6.9832  -15.8534 C   0  0  2  0  0  0  0  0  0  0  0  0
   23.9457   -8.1271  -15.6077 N   0  0  0  0  0  0  0  0  0  0  0  0
   23.8052   -5.8953  -16.5173 C   0  0  0  0  0  0  0  0  0  0  0  0
   23.3382   -5.3033  -17.5134 O   0  0  0  0  0  0  0  0  0  0  0  0
   25.0390   -5.5259  -16.0321 O   0  0  0  0  0  0  0  0  0  0  0  0
  2  1  1  6
  2  7  1  0
  3  4  1  0
  3  2  1  0
  5  4  1  0
  6  5  2  0
  7 10  1  0
  7  8  2  0
  9  5  1  0
 10 11  1  0
 11 14  1  0
 12 13  1  0
 11 12  1  6
 14 15  2  0
 14 19  1  0
 16 17  1  0
 18 20  1  0
 18 17  1  1
 19 18  1  0
 20 22  1  0
 21 20  2  0
M  END
$$$$
