ECS.pdb
     RDKit          3D

 22 21  0  0  1  0  0  0  0  0999 V2000
   14.3980  -11.4640  -10.8505 N   0  0  0  0  0  0  0  0  0  0  0  0
   15.4619  -10.4841  -10.7448 C   0  0  1  0  0  0  0  0  0  0  0  0
   16.1918  -10.4046  -12.0405 C   0  0  0  0  0  0  0  0  0  0  0  0
   16.9342  -11.6428  -12.4479 C   0  0  0  0  0  0  0  0  0  0  0  0
   17.5450  -11.5287  -13.7733 C   0  0  0  0  0  0  0  0  0  0  0  0
   18.1789  -12.4917  -14.2680 O   0  0  0  0  0  0  0  0  0  0  0  0
   14.8700   -9.2018  -10.3209 C   0  0  0  0  0  0  0  0  0  0  0  0
   13.7808   -8.8221  -10.8128 O   0  0  0  0  0  0  0  0  0  0  0  0
   17.4466  -10.3682  -14.5196 O   0  0  0  0  0  0  0  0  0  0  0  0
   15.4700   -8.3424   -9.3633 N   0  0  0  0  0  0  0  0  0  0  0  0
   14.8872   -7.0195   -9.0565 C   0  0  1  0  0  0  0  0  0  0  0  0
   14.6007   -7.0387   -7.5494 C   0  0  0  0  0  0  0  0  0  0  0  0
   13.0238   -7.8206   -7.1791 S   0  0  0  0  0  0  0  0  0  0  0  0
   15.9231   -5.9832   -9.3001 C   0  0  0  0  0  0  0  0  0  0  0  0
   17.0989   -6.1505   -8.8235 O   0  0  0  0  0  0  0  0  0  0  0  0
   17.6354   -4.8613  -12.2213 O   0  0  0  0  0  0  0  0  0  0  0  0
   17.0692   -3.7133  -11.7149 C   0  0  0  0  0  0  0  0  0  0  0  0
   16.7835   -3.8091  -10.2369 C   0  0  2  0  0  0  0  0  0  0  0  0
   15.7197   -4.8030  -10.0300 N   0  0  0  0  0  0  0  0  0  0  0  0
   16.3255   -2.4797   -9.7788 C   0  0  0  0  0  0  0  0  0  0  0  0
   15.1186   -2.2581   -9.5441 O   0  0  0  0  0  0  0  0  0  0  0  0
   17.2415   -1.4672   -9.6067 O   0  0  0  0  0  0  0  0  0  0  0  0
  2  1  1  6
  2  7  1  0
  3  4  1  0
  3  2  1  0
  5  4  1  0
  6  5  2  0
  7 10  1  0
  7  8  2  0
  9  5  1  0
 10 11  1  0
 11 14  1  0
 12 13  1  0
 11 12  1  1
 14 15  2  0
 14 19  1  0
 16 17  1  0
 18 20  1  0
 18 17  1  6
 19 18  1  0
 20 22  1  0
 21 20  2  0
M  END
$$$$
