ECS.pdb
     RDKit          3D

 22 21  0  0  1  0  0  0  0  0999 V2000
   21.9322  -10.6754  -19.5664 N   0  0  0  0  0  0  0  0  0  0  0  0
   21.1678  -10.7504  -18.3362 C   0  0  1  0  0  0  0  0  0  0  0  0
   21.1019  -12.1666  -17.8803 C   0  0  0  0  0  0  0  0  0  0  0  0
   20.1597  -13.0531  -18.6397 C   0  0  0  0  0  0  0  0  0  0  0  0
   18.8321  -13.1276  -18.0275 C   0  0  0  0  0  0  0  0  0  0  0  0
   17.9687  -12.2501  -18.2690 O   0  0  0  0  0  0  0  0  0  0  0  0
   21.7837   -9.8413  -17.3521 C   0  0  0  0  0  0  0  0  0  0  0  0
   21.3320   -9.7848  -16.1837 O   0  0  0  0  0  0  0  0  0  0  0  0
   18.4856  -14.1565  -17.1704 O   0  0  0  0  0  0  0  0  0  0  0  0
   22.8882   -9.0001  -17.6490 N   0  0  0  0  0  0  0  0  0  0  0  0
   23.4600   -8.1037  -16.6227 C   0  0  1  0  0  0  0  0  0  0  0  0
   24.8149   -7.6523  -17.1834 C   0  0  0  0  0  0  0  0  0  0  0  0
   25.5321   -6.3225  -16.2076 S   0  0  0  0  0  0  0  0  0  0  0  0
   22.5969   -6.8993  -16.5192 C   0  0  0  0  0  0  0  0  0  0  0  0
   22.2909   -6.2562  -17.5825 O   0  0  0  0  0  0  0  0  0  0  0  0
   19.3145   -6.2467  -15.9595 O   0  0  0  0  0  0  0  0  0  0  0  0
   19.8718   -5.4406  -14.9928 C   0  0  0  0  0  0  0  0  0  0  0  0
   21.3222   -5.1268  -15.2630 C   0  0  2  0  0  0  0  0  0  0  0  0
   22.0709   -6.3910  -15.3226 N   0  0  0  0  0  0  0  0  0  0  0  0
   21.8210   -4.2994  -14.1433 C   0  0  0  0  0  0  0  0  0  0  0  0
   22.7298   -4.7109  -13.3913 O   0  0  0  0  0  0  0  0  0  0  0  0
   21.2772   -3.0545  -13.9231 O   0  0  0  0  0  0  0  0  0  0  0  0
  2  1  1  6
  2  7  1  0
  3  4  1  0
  3  2  1  0
  5  4  1  0
  6  5  2  0
  7 10  1  0
  7  8  2  0
  9  5  1  0
 10 11  1  0
 11 14  1  0
 12 13  1  0
 11 12  1  6
 14 15  2  0
 14 19  1  0
 16 17  1  0
 18 20  1  0
 18 17  1  1
 19 18  1  0
 20 22  1  0
 21 20  2  0
M  END
$$$$
