ECS.pdb
     RDKit          3D

 22 21  0  0  1  0  0  0  0  0999 V2000
   15.4545  -11.9171  -11.1062 N   0  0  0  0  0  0  0  0  0  0  0  0
   14.6423  -11.1198  -12.0050 C   0  0  1  0  0  0  0  0  0  0  0  0
   13.2017  -11.3871  -11.7385 C   0  0  0  0  0  0  0  0  0  0  0  0
   12.7785  -12.8239  -11.8220 C   0  0  0  0  0  0  0  0  0  0  0  0
   11.3823  -13.0283  -11.4328 C   0  0  0  0  0  0  0  0  0  0  0  0
   10.8731  -14.1745  -11.4643 O   0  0  0  0  0  0  0  0  0  0  0  0
   15.0208   -9.7044  -11.8389 C   0  0  0  0  0  0  0  0  0  0  0  0
   14.5310   -8.8324  -12.5953 O   0  0  0  0  0  0  0  0  0  0  0  0
   10.5829  -11.9772  -11.0212 O   0  0  0  0  0  0  0  0  0  0  0  0
   15.9309   -9.2495  -10.8486 N   0  0  0  0  0  0  0  0  0  0  0  0
   16.2906   -7.8201  -10.7442 C   0  0  1  0  0  0  0  0  0  0  0  0
   16.1123   -7.4608   -9.2634 C   0  0  0  0  0  0  0  0  0  0  0  0
   14.3998   -7.6233   -8.7381 S   0  0  0  0  0  0  0  0  0  0  0  0
   17.7331   -7.6751  -11.0675 C   0  0  0  0  0  0  0  0  0  0  0  0
   18.5675   -8.5237  -10.5969 O   0  0  0  0  0  0  0  0  0  0  0  0
   20.8600   -7.9616  -14.1032 O   0  0  0  0  0  0  0  0  0  0  0  0
   19.6688   -7.8902  -13.4170 C   0  0  0  0  0  0  0  0  0  0  0  0
   19.6299   -6.7432  -12.4380 C   0  0  2  0  0  0  0  0  0  0  0  0
   18.2767   -6.6604  -11.8686 N   0  0  0  0  0  0  0  0  0  0  0  0
   19.9386   -5.5035  -13.1830 C   0  0  0  0  0  0  0  0  0  0  0  0
   19.0422   -4.8657  -13.7749 O   0  0  0  0  0  0  0  0  0  0  0  0
   21.2342   -5.0415  -13.2268 O   0  0  0  0  0  0  0  0  0  0  0  0
  2  1  1  1
  2  7  1  0
  3  4  1  0
  3  2  1  0
  5  4  1  0
  6  5  2  0
  7 10  1  0
  7  8  2  0
  9  5  1  0
 10 11  1  0
 11 14  1  0
 12 13  1  0
 11 12  1  1
 14 15  2  0
 14 19  1  0
 16 17  1  0
 18 20  1  0
 18 17  1  6
 19 18  1  0
 20 22  1  0
 21 20  2  0
M  END
$$$$
