ECS.pdb
     RDKit          3D

 22 21  0  0  1  0  0  0  0  0999 V2000
   19.5526  -13.6057  -16.6976 N   0  0  0  0  0  0  0  0  0  0  0  0
   19.0515  -12.3685  -16.1307 C   0  0  1  0  0  0  0  0  0  0  0  0
   17.9638  -12.6736  -15.1603 C   0  0  0  0  0  0  0  0  0  0  0  0
   16.7037  -13.2360  -15.7486 C   0  0  0  0  0  0  0  0  0  0  0  0
   15.6949  -13.5504  -14.7356 C   0  0  0  0  0  0  0  0  0  0  0  0
   15.5201  -12.7906  -13.7528 O   0  0  0  0  0  0  0  0  0  0  0  0
   20.1862  -11.6388  -15.5356 C   0  0  0  0  0  0  0  0  0  0  0  0
   21.1155  -12.2716  -14.9803 O   0  0  0  0  0  0  0  0  0  0  0  0
   14.9070  -14.6838  -14.8244 O   0  0  0  0  0  0  0  0  0  0  0  0
   20.2999  -10.2236  -15.5503 N   0  0  0  0  0  0  0  0  0  0  0  0
   21.5146   -9.5520  -15.0433 C   0  0  1  0  0  0  0  0  0  0  0  0
   22.6550  -10.0293  -15.9519 C   0  0  0  0  0  0  0  0  0  0  0  0
   24.1236  -10.4635  -15.0087 S   0  0  0  0  0  0  0  0  0  0  0  0
   21.3622   -8.0890  -15.2503 C   0  0  0  0  0  0  0  0  0  0  0  0
   20.9813   -7.6557  -16.3926 O   0  0  0  0  0  0  0  0  0  0  0  0
   20.9624   -3.6413  -13.3137 O   0  0  0  0  0  0  0  0  0  0  0  0
   21.1811   -4.9944  -13.1859 C   0  0  0  0  0  0  0  0  0  0  0  0
   21.3755   -5.6799  -14.5155 C   0  0  2  0  0  0  0  0  0  0  0  0
   21.6050   -7.1121  -14.2739 N   0  0  0  0  0  0  0  0  0  0  0  0
   22.5639   -5.0823  -15.1617 C   0  0  0  0  0  0  0  0  0  0  0  0
   23.6979   -5.5871  -15.0206 O   0  0  0  0  0  0  0  0  0  0  0  0
   22.4219   -3.9510  -15.9324 O   0  0  0  0  0  0  0  0  0  0  0  0
  2  1  1  1
  2  7  1  0
  3  4  1  0
  3  2  1  0
  5  4  1  0
  6  5  2  0
  7 10  1  0
  7  8  2  0
  9  5  1  0
 10 11  1  0
 11 14  1  0
 12 13  1  0
 11 12  1  6
 14 15  2  0
 14 19  1  0
 16 17  1  0
 18 20  1  0
 18 17  1  1
 19 18  1  0
 20 22  1  0
 21 20  2  0
M  END
$$$$
