ECS.pdb
     RDKit          3D

 22 21  0  0  1  0  0  0  0  0999 V2000
   20.1283   -9.2877  -13.4253 N   0  0  0  0  0  0  0  0  0  0  0  0
   19.3763   -8.3352  -14.2194 C   0  0  1  0  0  0  0  0  0  0  0  0
   19.1119   -8.9133  -15.5661 C   0  0  0  0  0  0  0  0  0  0  0  0
   19.8212  -10.1987  -15.8748 C   0  0  0  0  0  0  0  0  0  0  0  0
   19.4446  -10.7573  -17.1744 C   0  0  0  0  0  0  0  0  0  0  0  0
   18.6608  -10.1365  -17.9320 O   0  0  0  0  0  0  0  0  0  0  0  0
   18.1519   -7.9794  -13.4788 C   0  0  0  0  0  0  0  0  0  0  0  0
   17.3129   -7.2020  -13.9929 O   0  0  0  0  0  0  0  0  0  0  0  0
   19.9337  -11.9760  -17.6089 O   0  0  0  0  0  0  0  0  0  0  0  0
   17.8506   -8.4741  -12.1826 N   0  0  0  0  0  0  0  0  0  0  0  0
   16.5713   -8.1446  -11.5203 C   0  0  1  0  0  0  0  0  0  0  0  0
   16.2721   -9.3318  -10.5957 C   0  0  0  0  0  0  0  0  0  0  0  0
   15.9920  -10.8470  -11.5234 S   0  0  0  0  0  0  0  0  0  0  0  0
   16.7823   -6.9520  -10.6604 C   0  0  0  0  0  0  0  0  0  0  0  0
   17.7954   -6.9160   -9.8793 O   0  0  0  0  0  0  0  0  0  0  0  0
   15.7573   -2.3110   -9.6442 O   0  0  0  0  0  0  0  0  0  0  0  0
   15.6181   -3.4411  -10.4176 C   0  0  0  0  0  0  0  0  0  0  0  0
   16.2122   -4.6664   -9.7687 C   0  0  2  0  0  0  0  0  0  0  0  0
   15.9444   -5.8279  -10.6298 N   0  0  0  0  0  0  0  0  0  0  0  0
   15.5508   -4.8487   -8.4585 C   0  0  0  0  0  0  0  0  0  0  0  0
   14.7547   -5.7913   -8.2628 O   0  0  0  0  0  0  0  0  0  0  0  0
   15.8144   -3.9669   -7.4354 O   0  0  0  0  0  0  0  0  0  0  0  0
  2  1  1  1
  2  7  1  0
  3  4  1  0
  3  2  1  0
  5  4  1  0
  6  5  2  0
  7 10  1  0
  7  8  2  0
  9  5  1  0
 10 11  1  0
 11 14  1  0
 12 13  1  0
 11 12  1  1
 14 15  2  0
 14 19  1  0
 16 17  1  0
 18 20  1  0
 18 17  1  6
 19 18  1  0
 20 22  1  0
 21 20  2  0
M  END
$$$$
