ECS.pdb
     RDKit          3D

 22 21  0  0  1  0  0  0  0  0999 V2000
   17.8903  -11.7249  -16.2175 N   0  0  0  0  0  0  0  0  0  0  0  0
   18.6073  -10.6945  -16.9437 C   0  0  1  0  0  0  0  0  0  0  0  0
   17.6312   -9.7920  -17.6149 C   0  0  0  0  0  0  0  0  0  0  0  0
   16.7988  -10.4187  -18.6941 C   0  0  0  0  0  0  0  0  0  0  0  0
   17.5759  -10.7541  -19.8884 C   0  0  0  0  0  0  0  0  0  0  0  0
   18.2845   -9.8859  -20.4523 O   0  0  0  0  0  0  0  0  0  0  0  0
   19.5015   -9.9995  -15.9994 C   0  0  0  0  0  0  0  0  0  0  0  0
   19.0756   -9.6564  -14.8710 O   0  0  0  0  0  0  0  0  0  0  0  0
   17.5572  -12.0258  -20.4321 O   0  0  0  0  0  0  0  0  0  0  0  0
   20.8544   -9.6835  -16.2922 N   0  0  0  0  0  0  0  0  0  0  0  0
   21.7127   -9.0122  -15.2940 C   0  0  1  0  0  0  0  0  0  0  0  0
   23.1393   -9.4899  -15.5944 C   0  0  0  0  0  0  0  0  0  0  0  0
   23.4300  -11.1546  -14.9785 S   0  0  0  0  0  0  0  0  0  0  0  0
   21.6698   -7.5492  -15.5474 C   0  0  0  0  0  0  0  0  0  0  0  0
   21.6335   -7.1246  -16.7541 O   0  0  0  0  0  0  0  0  0  0  0  0
   19.3932   -5.1773  -13.8022 O   0  0  0  0  0  0  0  0  0  0  0  0
   20.0879   -4.7660  -14.9172 C   0  0  0  0  0  0  0  0  0  0  0  0
   21.5507   -5.1297  -14.8575 C   0  0  2  0  0  0  0  0  0  0  0  0
   21.6638   -6.5632  -14.5501 N   0  0  0  0  0  0  0  0  0  0  0  0
   22.1699   -4.3332  -13.7761 C   0  0  0  0  0  0  0  0  0  0  0  0
   22.5626   -4.8733  -12.7203 O   0  0  0  0  0  0  0  0  0  0  0  0
   22.3177   -2.9739  -13.9322 O   0  0  0  0  0  0  0  0  0  0  0  0
  2  1  1  1
  2  7  1  0
  3  4  1  0
  3  2  1  0
  5  4  1  0
  6  5  2  0
  7 10  1  0
  7  8  2  0
  9  5  1  0
 10 11  1  0
 11 14  1  0
 12 13  1  0
 11 12  1  6
 14 15  2  0
 14 19  1  0
 16 17  1  0
 18 20  1  0
 18 17  1  1
 19 18  1  0
 20 22  1  0
 21 20  2  0
M  END
$$$$
