ECS.pdb
     RDKit          3D

 22 21  0  0  1  0  0  0  0  0999 V2000
   15.8019  -11.3448  -15.6111 N   0  0  0  0  0  0  0  0  0  0  0  0
   17.2182  -11.0934  -15.4264 C   0  0  1  0  0  0  0  0  0  0  0  0
   18.0034  -12.1399  -16.1378 C   0  0  0  0  0  0  0  0  0  0  0  0
   17.9200  -13.5224  -15.5616 C   0  0  0  0  0  0  0  0  0  0  0  0
   18.8407  -14.4619  -16.2037 C   0  0  0  0  0  0  0  0  0  0  0  0
   19.9054  -14.8013  -15.6336 O   0  0  0  0  0  0  0  0  0  0  0  0
   17.5090   -9.7227  -15.8856 C   0  0  0  0  0  0  0  0  0  0  0  0
   16.8223   -9.2103  -16.8012 O   0  0  0  0  0  0  0  0  0  0  0  0
   18.5731  -15.0033  -17.4482 O   0  0  0  0  0  0  0  0  0  0  0  0
   18.5467   -8.9200  -15.3429 N   0  0  0  0  0  0  0  0  0  0  0  0
   18.7277   -7.5174  -15.7717 C   0  0  1  0  0  0  0  0  0  0  0  0
   17.4963   -6.7676  -15.2471 C   0  0  0  0  0  0  0  0  0  0  0  0
   17.6988   -4.9844  -15.3671 S   0  0  0  0  0  0  0  0  0  0  0  0
   19.9170   -6.9642  -15.0747 C   0  0  0  0  0  0  0  0  0  0  0  0
   20.0265   -7.1161  -13.8088 O   0  0  0  0  0  0  0  0  0  0  0  0
   24.2298   -4.6745  -15.3861 O   0  0  0  0  0  0  0  0  0  0  0  0
   23.1688   -5.3205  -15.9792 C   0  0  0  0  0  0  0  0  0  0  0  0
   22.1618   -5.8259  -14.9763 C   0  0  2  0  0  0  0  0  0  0  0  0
   20.9623   -6.2705  -15.7015 N   0  0  0  0  0  0  0  0  0  0  0  0
   21.8182   -4.7033  -14.0770 C   0  0  0  0  0  0  0  0  0  0  0  0
   20.9877   -3.8343  -14.4173 O   0  0  0  0  0  0  0  0  0  0  0  0
   22.4214   -4.6113  -12.8435 O   0  0  0  0  0  0  0  0  0  0  0  0
  2  1  1  6
  2  7  1  0
  3  4  1  0
  3  2  1  0
  5  4  1  0
  6  5  2  0
  7 10  1  0
  7  8  2  0
  9  5  1  0
 10 11  1  0
 11 14  1  0
 12 13  1  0
 11 12  1  1
 14 15  2  0
 14 19  1  0
 16 17  1  0
 18 20  1  0
 18 17  1  6
 19 18  1  0
 20 22  1  0
 21 20  2  0
M  END
$$$$
