ECS.pdb
     RDKit          3D

 22 21  0  0  1  0  0  0  0  0999 V2000
   19.6549  -10.7366  -18.1752 N   0  0  0  0  0  0  0  0  0  0  0  0
   19.8605  -11.0657  -16.7778 C   0  0  1  0  0  0  0  0  0  0  0  0
   20.2647  -12.4943  -16.6603 C   0  0  0  0  0  0  0  0  0  0  0  0
   19.4849  -13.4638  -17.4984 C   0  0  0  0  0  0  0  0  0  0  0  0
   19.2669  -14.7467  -16.8281 C   0  0  0  0  0  0  0  0  0  0  0  0
   19.5378  -15.8243  -17.4106 O   0  0  0  0  0  0  0  0  0  0  0  0
   20.8496  -10.1245  -16.2210 C   0  0  0  0  0  0  0  0  0  0  0  0
   21.2315  -10.2479  -15.0330 O   0  0  0  0  0  0  0  0  0  0  0  0
   18.7601  -14.8165  -15.5430 O   0  0  0  0  0  0  0  0  0  0  0  0
   21.4158   -9.0552  -16.9638 N   0  0  0  0  0  0  0  0  0  0  0  0
   22.3225   -8.0796  -16.3236 C   0  0  1  0  0  0  0  0  0  0  0  0
   23.1844   -7.5154  -17.4605 C   0  0  0  0  0  0  0  0  0  0  0  0
   24.9393   -7.6082  -17.0776 S   0  0  0  0  0  0  0  0  0  0  0  0
   21.5045   -6.9616  -15.7874 C   0  0  0  0  0  0  0  0  0  0  0  0
   20.6876   -6.3561  -16.5644 O   0  0  0  0  0  0  0  0  0  0  0  0
   20.3167   -6.6351  -11.9963 O   0  0  0  0  0  0  0  0  0  0  0  0
   19.7323   -5.8847  -12.9914 C   0  0  0  0  0  0  0  0  0  0  0  0
   20.7338   -5.3690  -13.9946 C   0  0  2  0  0  0  0  0  0  0  0  0
   21.5493   -6.4989  -14.4642 N   0  0  0  0  0  0  0  0  0  0  0  0
   21.5927   -4.3804  -13.3074 C   0  0  0  0  0  0  0  0  0  0  0  0
   22.8094   -4.5977  -13.1261 O   0  0  0  0  0  0  0  0  0  0  0  0
   21.0456   -3.1999  -12.8590 O   0  0  0  0  0  0  0  0  0  0  0  0
  2  1  1  6
  2  7  1  0
  3  4  1  0
  3  2  1  0
  5  4  1  0
  6  5  2  0
  7 10  1  0
  7  8  2  0
  9  5  1  0
 10 11  1  0
 11 14  1  0
 12 13  1  0
 11 12  1  6
 14 15  2  0
 14 19  1  0
 16 17  1  0
 18 20  1  0
 18 17  1  1
 19 18  1  0
 20 22  1  0
 21 20  2  0
M  END
$$$$
