ECS.pdb
     RDKit          3D

 22 21  0  0  1  0  0  0  0  0999 V2000
   20.5825   -9.8998  -16.6033 N   0  0  0  0  0  0  0  0  0  0  0  0
   19.2663   -9.4685  -16.1735 C   0  0  1  0  0  0  0  0  0  0  0  0
   18.5764  -10.5951  -15.4860 C   0  0  0  0  0  0  0  0  0  0  0  0
   18.4959  -11.8789  -16.2578 C   0  0  0  0  0  0  0  0  0  0  0  0
   17.8925  -12.9678  -15.4876 C   0  0  0  0  0  0  0  0  0  0  0  0
   18.1295  -14.1641  -15.7818 O   0  0  0  0  0  0  0  0  0  0  0  0
   19.4244   -8.2698  -15.3295 C   0  0  0  0  0  0  0  0  0  0  0  0
   18.4131   -7.7014  -14.8535 O   0  0  0  0  0  0  0  0  0  0  0  0
   17.0487  -12.7198  -14.4200 O   0  0  0  0  0  0  0  0  0  0  0  0
   20.6846   -7.6991  -15.0102 N   0  0  0  0  0  0  0  0  0  0  0  0
   20.7772   -6.4202  -14.2756 C   0  0  1  0  0  0  0  0  0  0  0  0
   22.1809   -6.4052  -13.6565 C   0  0  0  0  0  0  0  0  0  0  0  0
   22.5687   -4.8111  -12.9193 S   0  0  0  0  0  0  0  0  0  0  0  0
   20.7118   -5.3091  -15.2591 C   0  0  0  0  0  0  0  0  0  0  0  0
   21.4316   -5.3664  -16.3157 O   0  0  0  0  0  0  0  0  0  0  0  0
   18.3745   -1.6844  -17.3305 O   0  0  0  0  0  0  0  0  0  0  0  0
   18.4778   -2.7651  -16.4842 C   0  0  0  0  0  0  0  0  0  0  0  0
   19.9064   -3.0826  -16.1186 C   0  0  2  0  0  0  0  0  0  0  0  0
   19.9050   -4.1695  -15.1281 N   0  0  0  0  0  0  0  0  0  0  0  0
   20.5023   -1.8648  -15.5277 C   0  0  0  0  0  0  0  0  0  0  0  0
   20.7182   -1.7820  -14.3001 O   0  0  0  0  0  0  0  0  0  0  0  0
   20.8257   -0.8029  -16.3412 O   0  0  0  0  0  0  0  0  0  0  0  0
  2  1  1  1
  2  7  1  0
  3  4  1  0
  3  2  1  0
  5  4  1  0
  6  5  2  0
  7 10  1  0
  7  8  2  0
  9  5  1  0
 10 11  1  0
 11 14  1  0
 12 13  1  0
 11 12  1  6
 14 15  2  0
 14 19  1  0
 16 17  1  0
 18 20  1  0
 18 17  1  1
 19 18  1  0
 20 22  1  0
 21 20  2  0
M  END
$$$$
