ECS.pdb
     RDKit          3D

 22 21  0  0  1  0  0  0  0  0999 V2000
   15.6723  -13.7282  -11.5874 N   0  0  0  0  0  0  0  0  0  0  0  0
   15.0691  -13.4806  -12.8828 C   0  0  1  0  0  0  0  0  0  0  0  0
   14.1728  -14.6162  -13.2364 C   0  0  0  0  0  0  0  0  0  0  0  0
   14.8581  -15.9078  -13.5720 C   0  0  0  0  0  0  0  0  0  0  0  0
   14.0075  -16.8196  -14.3389 C   0  0  0  0  0  0  0  0  0  0  0  0
   13.1608  -17.5410  -13.7587 O   0  0  0  0  0  0  0  0  0  0  0  0
   14.3796  -12.1782  -12.8313 C   0  0  0  0  0  0  0  0  0  0  0  0
   13.7339  -11.7719  -13.8265 O   0  0  0  0  0  0  0  0  0  0  0  0
   14.1055  -16.9176  -15.7151 O   0  0  0  0  0  0  0  0  0  0  0  0
   14.3989  -11.3278  -11.6946 N   0  0  0  0  0  0  0  0  0  0  0  0
   13.6577  -10.0494  -11.6875 C   0  0  1  0  0  0  0  0  0  0  0  0
   13.1096   -9.9026  -10.2621 C   0  0  0  0  0  0  0  0  0  0  0  0
   11.7461  -11.0336   -9.9509 S   0  0  0  0  0  0  0  0  0  0  0  0
   14.6262   -8.9450  -11.9086 C   0  0  0  0  0  0  0  0  0  0  0  0
   15.7109   -8.9196  -11.2300 O   0  0  0  0  0  0  0  0  0  0  0  0
   16.6246   -7.8683  -14.8172 O   0  0  0  0  0  0  0  0  0  0  0  0
   15.8536   -6.7878  -14.4525 C   0  0  0  0  0  0  0  0  0  0  0  0
   15.4456   -6.8284  -13.0009 C   0  0  2  0  0  0  0  0  0  0  0  0
   14.4513   -7.8974  -12.8245 N   0  0  0  0  0  0  0  0  0  0  0  0
   14.8425   -5.5205  -12.6650 C   0  0  0  0  0  0  0  0  0  0  0  0
   13.6121   -5.4047  -12.4823 O   0  0  0  0  0  0  0  0  0  0  0  0
   15.6473   -4.4101  -12.5506 O   0  0  0  0  0  0  0  0  0  0  0  0
  2  1  1  1
  2  7  1  0
  3  4  1  0
  3  2  1  0
  5  4  1  0
  6  5  2  0
  7 10  1  0
  7  8  2  0
  9  5  1  0
 10 11  1  0
 11 14  1  0
 12 13  1  0
 11 12  1  1
 14 15  2  0
 14 19  1  0
 16 17  1  0
 18 20  1  0
 18 17  1  6
 19 18  1  0
 20 22  1  0
 21 20  2  0
M  END
$$$$
