ECS.pdb
     RDKit          3D

 22 21  0  0  1  0  0  0  0  0999 V2000
   20.4297  -13.0968  -17.2883 N   0  0  0  0  0  0  0  0  0  0  0  0
   19.7768  -11.8881  -16.8234 C   0  0  1  0  0  0  0  0  0  0  0  0
   18.7083  -12.2461  -15.8498 C   0  0  0  0  0  0  0  0  0  0  0  0
   17.5916  -13.0907  -16.3883 C   0  0  0  0  0  0  0  0  0  0  0  0
   16.5632  -13.3783  -15.3871 C   0  0  0  0  0  0  0  0  0  0  0  0
   16.7261  -13.0389  -14.1904 O   0  0  0  0  0  0  0  0  0  0  0  0
   20.8060  -10.9906  -16.2670 C   0  0  0  0  0  0  0  0  0  0  0  0
   21.5759  -11.4027  -15.3672 O   0  0  0  0  0  0  0  0  0  0  0  0
   15.3881  -14.0274  -15.7205 O   0  0  0  0  0  0  0  0  0  0  0  0
   20.9885   -9.6495  -16.6960 N   0  0  0  0  0  0  0  0  0  0  0  0
   22.1004   -8.8279  -16.1741 C   0  0  1  0  0  0  0  0  0  0  0  0
   23.1421   -8.7876  -17.2997 C   0  0  0  0  0  0  0  0  0  0  0  0
   24.3145  -10.1458  -17.1738 S   0  0  0  0  0  0  0  0  0  0  0  0
   21.6053   -7.4416  -15.9751 C   0  0  0  0  0  0  0  0  0  0  0  0
   20.6774   -6.9942  -16.7344 O   0  0  0  0  0  0  0  0  0  0  0  0
   19.4084   -4.3777  -13.7687 O   0  0  0  0  0  0  0  0  0  0  0  0
   20.0784   -5.5333  -14.1012 C   0  0  0  0  0  0  0  0  0  0  0  0
   21.4280   -5.2654  -14.7193 C   0  0  2  0  0  0  0  0  0  0  0  0
   22.0788   -6.5543  -14.9978 N   0  0  0  0  0  0  0  0  0  0  0  0
   22.2286   -4.4991  -13.7401 C   0  0  0  0  0  0  0  0  0  0  0  0
   23.1448   -5.0434  -13.0882 O   0  0  0  0  0  0  0  0  0  0  0  0
   21.9628   -3.1635  -13.5413 O   0  0  0  0  0  0  0  0  0  0  0  0
  2  1  1  1
  2  7  1  0
  3  4  1  0
  3  2  1  0
  5  4  1  0
  6  5  2  0
  7 10  1  0
  7  8  2  0
  9  5  1  0
 10 11  1  0
 11 14  1  0
 12 13  1  0
 11 12  1  6
 14 15  2  0
 14 19  1  0
 16 17  1  0
 18 20  1  0
 18 17  1  1
 19 18  1  0
 20 22  1  0
 21 20  2  0
M  END
$$$$
