ECS.pdb
     RDKit          3D

 22 21  0  0  1  0  0  0  0  0999 V2000
   17.3318  -10.9302  -15.0566 N   0  0  0  0  0  0  0  0  0  0  0  0
   18.6813  -10.6499  -15.5079 C   0  0  1  0  0  0  0  0  0  0  0  0
   18.7688  -10.8772  -16.9771 C   0  0  0  0  0  0  0  0  0  0  0  0
   18.7044  -12.3088  -17.4206 C   0  0  0  0  0  0  0  0  0  0  0  0
   18.7928  -12.4577  -18.8741 C   0  0  0  0  0  0  0  0  0  0  0  0
   19.7510  -13.0783  -19.3941 O   0  0  0  0  0  0  0  0  0  0  0  0
   19.0296   -9.2760  -15.1012 C   0  0  0  0  0  0  0  0  0  0  0  0
   18.1601   -8.3732  -15.1364 O   0  0  0  0  0  0  0  0  0  0  0  0
   17.8339  -11.9256  -19.7171 O   0  0  0  0  0  0  0  0  0  0  0  0
   20.3240   -8.8961  -14.6586 N   0  0  0  0  0  0  0  0  0  0  0  0
   20.6135   -7.5034  -14.2581 C   0  0  1  0  0  0  0  0  0  0  0  0
   21.4738   -7.6125  -12.9925 C   0  0  0  0  0  0  0  0  0  0  0  0
   22.1719   -6.0235  -12.5203 S   0  0  0  0  0  0  0  0  0  0  0  0
   21.4503   -6.8767  -15.3133 C   0  0  0  0  0  0  0  0  0  0  0  0
   22.4340   -7.5328  -15.8027 O   0  0  0  0  0  0  0  0  0  0  0  0
   21.8796   -3.9801  -19.0585 O   0  0  0  0  0  0  0  0  0  0  0  0
   21.1888   -4.5991  -18.0414 C   0  0  0  0  0  0  0  0  0  0  0  0
   22.0868   -5.0364  -16.9110 C   0  0  2  0  0  0  0  0  0  0  0  0
   21.2497   -5.5912  -15.8368 N   0  0  0  0  0  0  0  0  0  0  0  0
   22.8084   -3.8425  -16.4202 C   0  0  0  0  0  0  0  0  0  0  0  0
   22.3340   -3.1302  -15.5101 O   0  0  0  0  0  0  0  0  0  0  0  0
   24.0234   -3.5076  -16.9730 O   0  0  0  0  0  0  0  0  0  0  0  0
  2  1  1  6
  2  7  1  0
  3  4  1  0
  3  2  1  0
  5  4  1  0
  6  5  2  0
  7 10  1  0
  7  8  2  0
  9  5  1  0
 10 11  1  0
 11 14  1  0
 12 13  1  0
 11 12  1  1
 14 15  2  0
 14 19  1  0
 16 17  1  0
 18 20  1  0
 18 17  1  6
 19 18  1  0
 20 22  1  0
 21 20  2  0
M  END
$$$$
