ECS.pdb
     RDKit          3D

 22 21  0  0  1  0  0  0  0  0999 V2000
   13.1984  -10.1002  -10.1483 N   0  0  0  0  0  0  0  0  0  0  0  0
   14.6448  -10.1945  -10.1963 C   0  0  1  0  0  0  0  0  0  0  0  0
   15.0419  -11.1865  -11.2336 C   0  0  0  0  0  0  0  0  0  0  0  0
   14.7092  -12.6172  -10.9291 C   0  0  0  0  0  0  0  0  0  0  0  0
   15.1671  -13.5405  -11.9687 C   0  0  0  0  0  0  0  0  0  0  0  0
   14.4081  -14.4412  -12.4004 O   0  0  0  0  0  0  0  0  0  0  0  0
   15.1893   -8.8444  -10.4312 C   0  0  0  0  0  0  0  0  0  0  0  0
   14.6263   -8.0754  -11.2461 O   0  0  0  0  0  0  0  0  0  0  0  0
   16.4386  -13.4542  -12.5063 O   0  0  0  0  0  0  0  0  0  0  0  0
   16.3442   -8.3422   -9.7755 N   0  0  0  0  0  0  0  0  0  0  0  0
   16.8225   -6.9661  -10.0235 C   0  0  1  0  0  0  0  0  0  0  0  0
   16.7180   -6.2474   -8.6721 C   0  0  0  0  0  0  0  0  0  0  0  0
   15.0071   -6.0336   -8.1598 S   0  0  0  0  0  0  0  0  0  0  0  0
   18.2619   -7.0285  -10.3850 C   0  0  0  0  0  0  0  0  0  0  0  0
   18.9809   -7.9824   -9.9260 O   0  0  0  0  0  0  0  0  0  0  0  0
   21.3266   -7.7977  -13.3831 O   0  0  0  0  0  0  0  0  0  0  0  0
   20.1547   -7.5573  -12.7022 C   0  0  0  0  0  0  0  0  0  0  0  0
   20.2518   -6.3671  -11.7805 C   0  0  2  0  0  0  0  0  0  0  0  0
   18.9211   -6.1069  -11.2114 N   0  0  0  0  0  0  0  0  0  0  0  0
   20.6896   -5.2069  -12.5864 C   0  0  0  0  0  0  0  0  0  0  0  0
   19.8685   -4.5253  -13.2360 O   0  0  0  0  0  0  0  0  0  0  0  0
   22.0232   -4.8693  -12.6234 O   0  0  0  0  0  0  0  0  0  0  0  0
  2  1  1  6
  2  7  1  0
  3  4  1  0
  3  2  1  0
  5  4  1  0
  6  5  2  0
  7 10  1  0
  7  8  2  0
  9  5  1  0
 10 11  1  0
 11 14  1  0
 12 13  1  0
 11 12  1  1
 14 15  2  0
 14 19  1  0
 16 17  1  0
 18 20  1  0
 18 17  1  6
 19 18  1  0
 20 22  1  0
 21 20  2  0
M  END
$$$$
