CCD.pdb
     RDKit          3D

 21 20  0  0  1  0  0  0  0  0999 V2000
   29.1704  -10.6673  -18.2461 N   0  0  0  0  0  0  0  0  0  0  0  0
   30.3246   -9.9155  -18.6895 C   0  0  1  0  0  0  0  0  0  0  0  0
   29.8025   -8.7830  -19.5516 C   0  0  0  0  0  0  0  0  0  0  0  0
   29.2539   -9.4545  -21.1392 S   0  0  0  0  0  0  0  0  0  0  0  0
   31.0359   -9.2770  -17.5434 C   0  0  0  0  0  0  0  0  0  0  0  0
   30.3851   -8.8700  -16.5502 O   0  0  0  0  0  0  0  0  0  0  0  0
   32.4475   -9.1037  -17.5217 N   0  0  0  0  0  0  0  0  0  0  0  0
   33.1682   -8.5693  -16.4024 C   0  0  1  0  0  0  0  0  0  0  0  0
   34.4279   -9.4056  -16.1959 C   0  0  0  0  0  0  0  0  0  0  0  0
   35.4891   -8.6194  -14.9262 S   0  0  0  0  0  0  0  0  0  0  0  0
   33.5259   -7.1294  -16.5972 C   0  0  0  0  0  0  0  0  0  0  0  0
   34.0980   -6.7313  -17.6465 O   0  0  0  0  0  0  0  0  0  0  0  0
   33.2312   -6.1581  -15.6019 N   0  0  0  0  0  0  0  0  0  0  0  0
   33.5837   -4.7688  -15.7020 C   0  0  1  0  0  0  0  0  0  0  0  0
   32.3776   -3.8651  -15.6661 C   0  0  0  0  0  0  0  0  0  0  0  0
   32.7039   -2.4287  -15.8075 C   0  0  0  0  0  0  0  0  0  0  0  0
   33.8919   -2.0023  -15.9406 O   0  0  0  0  0  0  0  0  0  0  0  0
   34.6496   -4.3833  -14.7521 C   0  0  0  0  0  0  0  0  0  0  0  0
   35.1397   -5.2650  -13.7832 O   0  0  0  0  0  0  0  0  0  0  0  0
   31.7222   -1.4325  -15.8048 O   0  0  0  0  0  0  0  0  0  0  0  0
   35.1778   -3.2454  -14.7575 O   0  0  0  0  0  0  0  0  0  0  0  0
  2  3  1  0
  2  1  1  1
  4  3  1  0
  5  6  2  0
  5  2  1  0
  7  5  1  0
  8 11  1  0
  8  7  1  0
  9 10  1  0
  8  9  1  6
 11 13  1  0
 12 11  2  0
 13 14  1  0
 14 18  1  0
 14 15  1  1
 16 15  1  0
 17 16  2  0
 18 21  2  0
 18 19  1  0
 20 16  1  0
M  END
$$$$
