CCD.pdb
     RDKit          3D

 21 20  0  0  1  0  0  0  0  0999 V2000
   16.8888  -13.0470  -12.6818 N   0  0  0  0  0  0  0  0  0  0  0  0
   16.2943  -12.1200  -13.6206 C   0  0  1  0  0  0  0  0  0  0  0  0
   15.2234  -12.8866  -14.3715 C   0  0  0  0  0  0  0  0  0  0  0  0
   16.0130  -14.1415  -15.4080 S   0  0  0  0  0  0  0  0  0  0  0  0
   15.5969  -11.0023  -12.9197 C   0  0  0  0  0  0  0  0  0  0  0  0
   15.0093  -10.1148  -13.5851 O   0  0  0  0  0  0  0  0  0  0  0  0
   15.5653  -10.8915  -11.5020 N   0  0  0  0  0  0  0  0  0  0  0  0
   14.9248   -9.8168  -10.8001 C   0  0  1  0  0  0  0  0  0  0  0  0
   14.3225  -10.3725   -9.5127 C   0  0  0  0  0  0  0  0  0  0  0  0
   13.0127  -11.5875   -9.9186 S   0  0  0  0  0  0  0  0  0  0  0  0
   15.8724   -8.7005  -10.4917 C   0  0  0  0  0  0  0  0  0  0  0  0
   16.9925   -8.9189   -9.9583 O   0  0  0  0  0  0  0  0  0  0  0  0
   15.5403   -7.3511  -10.7910 N   0  0  0  0  0  0  0  0  0  0  0  0
   16.3987   -6.2309  -10.5216 C   0  0  1  0  0  0  0  0  0  0  0  0
   16.4929   -5.2839  -11.6908 C   0  0  0  0  0  0  0  0  0  0  0  0
   17.2997   -4.0743  -11.4154 C   0  0  0  0  0  0  0  0  0  0  0  0
   16.7905   -2.9168  -11.3082 O   0  0  0  0  0  0  0  0  0  0  0  0
   16.0822   -5.5683   -9.2380 C   0  0  0  0  0  0  0  0  0  0  0  0
   17.0148   -4.7802   -8.5558 O   0  0  0  0  0  0  0  0  0  0  0  0
   18.6881   -4.1195  -11.2526 O   0  0  0  0  0  0  0  0  0  0  0  0
   14.9612   -5.6721   -8.6844 O   0  0  0  0  0  0  0  0  0  0  0  0
  2  3  1  0
  2  1  1  1
  4  3  1  0
  5  6  2  0
  5  2  1  0
  7  5  1  0
  8 11  1  0
  8  7  1  0
  9 10  1  0
  8  9  1  1
 11 13  1  0
 12 11  2  0
 13 14  1  0
 14 18  1  0
 14 15  1  6
 16 15  1  0
 17 16  2  0
 18 21  2  0
 18 19  1  0
 20 16  1  0
M  END
$$$$
