CCD.pdb
     RDKit          3D

 21 20  0  0  1  0  0  0  0  0999 V2000
   25.0283  -20.7022  -11.5450 N   0  0  0  0  0  0  0  0  0  0  0  0
   26.1025  -19.9182  -12.1156 C   0  0  1  0  0  0  0  0  0  0  0  0
   27.0705  -20.8993  -12.7472 C   0  0  0  0  0  0  0  0  0  0  0  0
   28.4292  -21.2125  -11.5948 S   0  0  0  0  0  0  0  0  0  0  0  0
   25.6139  -19.0409  -13.2195 C   0  0  0  0  0  0  0  0  0  0  0  0
   24.4314  -19.1463  -13.6270 O   0  0  0  0  0  0  0  0  0  0  0  0
   26.4423  -18.0693  -13.8463 N   0  0  0  0  0  0  0  0  0  0  0  0
   26.0019  -17.2116  -14.9085 C   0  0  1  0  0  0  0  0  0  0  0  0
   26.6755  -15.8525  -14.7419 C   0  0  0  0  0  0  0  0  0  0  0  0
   26.0080  -14.6774  -15.9789 S   0  0  0  0  0  0  0  0  0  0  0  0
   26.3078  -17.7820  -16.2577 C   0  0  0  0  0  0  0  0  0  0  0  0
   27.2916  -18.5476  -16.4389 O   0  0  0  0  0  0  0  0  0  0  0  0
   25.4961  -17.4789  -17.3847 N   0  0  0  0  0  0  0  0  0  0  0  0
   25.6242  -18.1174  -18.6654 C   0  0  1  0  0  0  0  0  0  0  0  0
   27.0532  -18.1676  -19.1429 C   0  0  0  0  0  0  0  0  0  0  0  0
   27.2131  -18.7706  -20.4848 C   0  0  0  0  0  0  0  0  0  0  0  0
   26.4542  -18.4873  -21.4618 O   0  0  0  0  0  0  0  0  0  0  0  0
   24.9272  -19.4204  -18.7229 C   0  0  0  0  0  0  0  0  0  0  0  0
   25.1162  -20.4105  -17.7532 O   0  0  0  0  0  0  0  0  0  0  0  0
   28.2167  -19.7006  -20.7747 O   0  0  0  0  0  0  0  0  0  0  0  0
   24.1264  -19.7164  -19.6420 O   0  0  0  0  0  0  0  0  0  0  0  0
  2  3  1  0
  2  1  1  6
  4  3  1  0
  5  6  2  0
  5  2  1  0
  7  5  1  0
  8 11  1  0
  8  7  1  0
  9 10  1  0
  8  9  1  1
 11 13  1  0
 12 11  2  0
 13 14  1  0
 14 18  1  0
 14 15  1  1
 16 15  1  0
 17 16  2  0
 18 21  2  0
 18 19  1  0
 20 16  1  0
M  END
$$$$
