CCD.pdb
     RDKit          3D

 21 20  0  0  1  0  0  0  0  0999 V2000
   21.2098  -11.6931  -17.3153 N   0  0  0  0  0  0  0  0  0  0  0  0
   19.9279  -11.4840  -16.6773 C   0  0  1  0  0  0  0  0  0  0  0  0
   19.7084  -12.6585  -15.7443 C   0  0  0  0  0  0  0  0  0  0  0  0
   19.4733  -14.1581  -16.7284 S   0  0  0  0  0  0  0  0  0  0  0  0
   19.9354  -10.2625  -15.8200 C   0  0  0  0  0  0  0  0  0  0  0  0
   18.9039   -9.9377  -15.1828 O   0  0  0  0  0  0  0  0  0  0  0  0
   21.0809   -9.4298  -15.6872 N   0  0  0  0  0  0  0  0  0  0  0  0
   21.0851   -8.1880  -14.9691 C   0  0  1  0  0  0  0  0  0  0  0  0
   22.4060   -8.0722  -14.2136 C   0  0  0  0  0  0  0  0  0  0  0  0
   22.4843   -6.4572  -13.3521 S   0  0  0  0  0  0  0  0  0  0  0  0
   20.8992   -7.0118  -15.8752 C   0  0  0  0  0  0  0  0  0  0  0  0
   21.5303   -6.9134  -16.9610 O   0  0  0  0  0  0  0  0  0  0  0  0
   20.0011   -5.9617  -15.5411 N   0  0  0  0  0  0  0  0  0  0  0  0
   19.8115   -4.7798  -16.3357 C   0  0  1  0  0  0  0  0  0  0  0  0
   18.4467   -4.7284  -16.9739 C   0  0  0  0  0  0  0  0  0  0  0  0
   18.2194   -3.5219  -17.8002 C   0  0  0  0  0  0  0  0  0  0  0  0
   19.0234   -3.1478  -18.7082 O   0  0  0  0  0  0  0  0  0  0  0  0
   20.1818   -3.5438  -15.6130 C   0  0  0  0  0  0  0  0  0  0  0  0
   20.6395   -3.5616  -14.2915 O   0  0  0  0  0  0  0  0  0  0  0  0
   17.0970   -2.7030  -17.6396 O   0  0  0  0  0  0  0  0  0  0  0  0
   20.1083   -2.4076  -16.1396 O   0  0  0  0  0  0  0  0  0  0  0  0
  2  3  1  0
  2  1  1  1
  4  3  1  0
  5  6  2  0
  5  2  1  0
  7  5  1  0
  8 11  1  0
  8  7  1  0
  9 10  1  0
  8  9  1  6
 11 13  1  0
 12 11  2  0
 13 14  1  0
 14 18  1  0
 14 15  1  1
 16 15  1  0
 17 16  2  0
 18 21  2  0
 18 19  1  0
 20 16  1  0
M  END
$$$$
