CCD.pdb
     RDKit          3D

 21 20  0  0  1  0  0  0  0  0999 V2000
   17.9490  -12.9814  -16.4626 N   0  0  0  0  0  0  0  0  0  0  0  0
   18.3156  -11.6735  -16.9616 C   0  0  1  0  0  0  0  0  0  0  0  0
   17.0432  -10.8502  -17.0030 C   0  0  0  0  0  0  0  0  0  0  0  0
   16.0181  -11.4171  -18.3815 S   0  0  0  0  0  0  0  0  0  0  0  0
   19.2407  -10.9696  -16.0258 C   0  0  0  0  0  0  0  0  0  0  0  0
   18.9105  -10.8012  -14.8266 O   0  0  0  0  0  0  0  0  0  0  0  0
   20.5072  -10.4691  -16.4366 N   0  0  0  0  0  0  0  0  0  0  0  0
   21.4158   -9.7848  -15.5626 C   0  0  1  0  0  0  0  0  0  0  0  0
   22.8217  -10.3245  -15.8098 C   0  0  0  0  0  0  0  0  0  0  0  0
   24.0107   -9.4790  -14.7017 S   0  0  0  0  0  0  0  0  0  0  0  0
   21.3845   -8.3025  -15.7650 C   0  0  0  0  0  0  0  0  0  0  0  0
   21.2499   -7.7993  -16.9119 O   0  0  0  0  0  0  0  0  0  0  0  0
   21.5059   -7.4083  -14.6665 N   0  0  0  0  0  0  0  0  0  0  0  0
   21.5324   -5.9772  -14.7911 C   0  0  1  0  0  0  0  0  0  0  0  0
   20.2568   -5.4269  -15.3764 C   0  0  0  0  0  0  0  0  0  0  0  0
   20.2407   -3.9516  -15.4910 C   0  0  0  0  0  0  0  0  0  0  0  0
   21.0589   -3.3085  -16.2175 O   0  0  0  0  0  0  0  0  0  0  0  0
   21.9577   -5.3060  -13.5438 C   0  0  0  0  0  0  0  0  0  0  0  0
   22.0020   -3.9132  -13.4244 O   0  0  0  0  0  0  0  0  0  0  0  0
   19.3185   -3.1556  -14.8039 O   0  0  0  0  0  0  0  0  0  0  0  0
   22.3035   -5.9430  -12.5199 O   0  0  0  0  0  0  0  0  0  0  0  0
  2  3  1  0
  2  1  1  1
  4  3  1  0
  5  6  2  0
  5  2  1  0
  7  5  1  0
  8 11  1  0
  8  7  1  0
  9 10  1  0
  8  9  1  6
 11 13  1  0
 12 11  2  0
 13 14  1  0
 14 18  1  0
 14 15  1  1
 16 15  1  0
 17 16  2  0
 18 21  2  0
 18 19  1  0
 20 16  1  0
M  END
$$$$
