CCD.pdb
     RDKit          3D

 21 20  0  0  1  0  0  0  0  0999 V2000
   20.7785  -12.9559  -16.9508 N   0  0  0  0  0  0  0  0  0  0  0  0
   20.6835  -11.5817  -17.3940 C   0  0  1  0  0  0  0  0  0  0  0  0
   19.2305  -11.1752  -17.2461 C   0  0  0  0  0  0  0  0  0  0  0  0
   18.2297  -12.1267  -18.4146 S   0  0  0  0  0  0  0  0  0  0  0  0
   21.4671  -10.6666  -16.5132 C   0  0  0  0  0  0  0  0  0  0  0  0
   21.4352  -10.8163  -15.2673 O   0  0  0  0  0  0  0  0  0  0  0  0
   22.2663   -9.6092  -17.0290 N   0  0  0  0  0  0  0  0  0  0  0  0
   22.9473   -8.6505  -16.2075 C   0  0  1  0  0  0  0  0  0  0  0  0
   24.3833   -8.5201  -16.7075 C   0  0  0  0  0  0  0  0  0  0  0  0
   25.2601   -7.2367  -15.7376 S   0  0  0  0  0  0  0  0  0  0  0  0
   22.2697   -7.3163  -16.2178 C   0  0  0  0  0  0  0  0  0  0  0  0
   21.8994   -6.7765  -17.2940 O   0  0  0  0  0  0  0  0  0  0  0  0
   22.0196   -6.6100  -15.0097 N   0  0  0  0  0  0  0  0  0  0  0  0
   21.4160   -5.3077  -14.9476 C   0  0  1  0  0  0  0  0  0  0  0  0
   19.9106   -5.3681  -14.9994 C   0  0  0  0  0  0  0  0  0  0  0  0
   19.2570   -4.0431  -14.9148 C   0  0  0  0  0  0  0  0  0  0  0  0
   19.7635   -2.9923  -15.4149 O   0  0  0  0  0  0  0  0  0  0  0  0
   21.9447   -4.4889  -13.8353 C   0  0  0  0  0  0  0  0  0  0  0  0
   22.9533   -4.9508  -12.9833 O   0  0  0  0  0  0  0  0  0  0  0  0
   18.0282   -3.8522  -14.2747 O   0  0  0  0  0  0  0  0  0  0  0  0
   21.5223   -3.3337  -13.5888 O   0  0  0  0  0  0  0  0  0  0  0  0
  2  3  1  0
  2  1  1  1
  4  3  1  0
  5  6  2  0
  5  2  1  0
  7  5  1  0
  8 11  1  0
  8  7  1  0
  9 10  1  0
  8  9  1  6
 11 13  1  0
 12 11  2  0
 13 14  1  0
 14 18  1  0
 14 15  1  1
 16 15  1  0
 17 16  2  0
 18 21  2  0
 18 19  1  0
 20 16  1  0
M  END
$$$$
