CCD.pdb
     RDKit          3D

 21 20  0  0  1  0  0  0  0  0999 V2000
   21.5502  -13.8590  -18.3278 N   0  0  0  0  0  0  0  0  0  0  0  0
   21.1776  -12.4611  -18.2953 C   0  0  1  0  0  0  0  0  0  0  0  0
   19.8818  -12.3733  -17.5131 C   0  0  0  0  0  0  0  0  0  0  0  0
   18.5053  -12.8162  -18.6000 S   0  0  0  0  0  0  0  0  0  0  0  0
   22.1768  -11.6451  -17.5451 C   0  0  0  0  0  0  0  0  0  0  0  0
   23.1245  -12.2099  -16.9463 O   0  0  0  0  0  0  0  0  0  0  0  0
   22.1055  -10.2263  -17.4744 N   0  0  0  0  0  0  0  0  0  0  0  0
   23.1270   -9.4046  -16.8922 C   0  0  1  0  0  0  0  0  0  0  0  0
   24.4308   -9.6485  -17.6467 C   0  0  0  0  0  0  0  0  0  0  0  0
   25.7588   -8.6048  -16.9371 S   0  0  0  0  0  0  0  0  0  0  0  0
   22.7700   -7.9518  -16.9265 C   0  0  0  0  0  0  0  0  0  0  0  0
   22.3896   -7.3943  -17.9902 O   0  0  0  0  0  0  0  0  0  0  0  0
   22.8479   -7.1482  -15.7565 N   0  0  0  0  0  0  0  0  0  0  0  0
   22.5083   -5.7528  -15.7128 C   0  0  1  0  0  0  0  0  0  0  0  0
   22.0503   -5.3146  -14.3450 C   0  0  0  0  0  0  0  0  0  0  0  0
   20.8925   -6.0789  -13.8302 C   0  0  0  0  0  0  0  0  0  0  0  0
   19.7787   -6.1331  -14.4363 O   0  0  0  0  0  0  0  0  0  0  0  0
   23.5610   -4.8934  -16.2959 C   0  0  0  0  0  0  0  0  0  0  0  0
   23.2635   -3.7113  -16.9819 O   0  0  0  0  0  0  0  0  0  0  0  0
   20.9420   -6.8003  -12.6329 O   0  0  0  0  0  0  0  0  0  0  0  0
   24.7814   -5.1711  -16.2111 O   0  0  0  0  0  0  0  0  0  0  0  0
  2  3  1  0
  2  1  1  1
  4  3  1  0
  5  6  2  0
  5  2  1  0
  7  5  1  0
  8 11  1  0
  8  7  1  0
  9 10  1  0
  8  9  1  6
 11 13  1  0
 12 11  2  0
 13 14  1  0
 14 18  1  0
 14 15  1  1
 16 15  1  0
 17 16  2  0
 18 21  2  0
 18 19  1  0
 20 16  1  0
M  END
$$$$
