CCD.pdb
     RDKit          3D

 21 20  0  0  1  0  0  0  0  0999 V2000
   13.5797  -11.8715  -10.4288 N   0  0  0  0  0  0  0  0  0  0  0  0
   14.9060  -11.3658  -10.1469 C   0  0  1  0  0  0  0  0  0  0  0  0
   15.8579  -12.0994  -11.0711 C   0  0  0  0  0  0  0  0  0  0  0  0
   16.0339  -13.8075  -10.5019 S   0  0  0  0  0  0  0  0  0  0  0  0
   15.0237   -9.9175  -10.4867 C   0  0  0  0  0  0  0  0  0  0  0  0
   14.5094   -9.4779  -11.5440 O   0  0  0  0  0  0  0  0  0  0  0  0
   15.7061   -8.9902   -9.6515 N   0  0  0  0  0  0  0  0  0  0  0  0
   15.9556   -7.6247  -10.0133 C   0  0  1  0  0  0  0  0  0  0  0  0
   15.7520   -6.7531   -8.7773 C   0  0  0  0  0  0  0  0  0  0  0  0
   16.3530   -5.0554   -9.1137 S   0  0  0  0  0  0  0  0  0  0  0  0
   17.3326   -7.4302  -10.5659 C   0  0  0  0  0  0  0  0  0  0  0  0
   18.3540   -7.8016   -9.9291 O   0  0  0  0  0  0  0  0  0  0  0  0
   17.5361   -6.8179  -11.8326 N   0  0  0  0  0  0  0  0  0  0  0  0
   18.8260   -6.6160  -12.4324 C   0  0  1  0  0  0  0  0  0  0  0  0
   19.3960   -7.8855  -13.0121 C   0  0  0  0  0  0  0  0  0  0  0  0
   20.7071   -7.7033  -13.6737 C   0  0  0  0  0  0  0  0  0  0  0  0
   21.6098   -6.9385  -13.2143 O   0  0  0  0  0  0  0  0  0  0  0  0
   18.8451   -5.4696  -13.3665 C   0  0  0  0  0  0  0  0  0  0  0  0
   17.6950   -4.7317  -13.6649 O   0  0  0  0  0  0  0  0  0  0  0  0
   21.0478   -8.3637  -14.8586 O   0  0  0  0  0  0  0  0  0  0  0  0
   19.8909   -5.0901  -13.9462 O   0  0  0  0  0  0  0  0  0  0  0  0
  2  3  1  0
  2  1  1  6
  4  3  1  0
  5  6  2  0
  5  2  1  0
  7  5  1  0
  8 11  1  0
  8  7  1  0
  9 10  1  0
  8  9  1  1
 11 13  1  0
 12 11  2  0
 13 14  1  0
 14 18  1  0
 14 15  1  6
 16 15  1  0
 17 16  2  0
 18 21  2  0
 18 19  1  0
 20 16  1  0
M  END
$$$$
