CCD.pdb
     RDKit          3D

 21 20  0  0  1  0  0  0  0  0999 V2000
   20.8992  -13.6730  -16.8915 N   0  0  0  0  0  0  0  0  0  0  0  0
   20.7683  -12.3328  -17.4214 C   0  0  1  0  0  0  0  0  0  0  0  0
   19.2910  -11.9941  -17.3907 C   0  0  0  0  0  0  0  0  0  0  0  0
   18.6461  -12.3158  -15.7315 S   0  0  0  0  0  0  0  0  0  0  0  0
   21.4471  -11.3301  -16.5491 C   0  0  0  0  0  0  0  0  0  0  0  0
   21.3773  -11.4364  -15.3004 O   0  0  0  0  0  0  0  0  0  0  0  0
   22.1861  -10.2351  -17.0765 N   0  0  0  0  0  0  0  0  0  0  0  0
   22.8143   -9.2326  -16.2653 C   0  0  1  0  0  0  0  0  0  0  0  0
   24.2588   -9.0712  -16.7302 C   0  0  0  0  0  0  0  0  0  0  0  0
   25.0748   -7.7480  -15.7609 S   0  0  0  0  0  0  0  0  0  0  0  0
   22.0965   -7.9212  -16.3327 C   0  0  0  0  0  0  0  0  0  0  0  0
   21.6685   -7.4626  -17.4250 O   0  0  0  0  0  0  0  0  0  0  0  0
   21.8721   -7.1456  -15.1627 N   0  0  0  0  0  0  0  0  0  0  0  0
   21.2474   -5.8517  -15.1608 C   0  0  1  0  0  0  0  0  0  0  0  0
   19.7445   -5.9385  -15.0808 C   0  0  0  0  0  0  0  0  0  0  0  0
   19.0689   -4.6221  -15.1014 C   0  0  0  0  0  0  0  0  0  0  0  0
   19.3010   -3.7429  -15.9868 O   0  0  0  0  0  0  0  0  0  0  0  0
   21.8480   -4.9323  -14.1704 C   0  0  0  0  0  0  0  0  0  0  0  0
   22.8904   -5.3250  -13.3245 O   0  0  0  0  0  0  0  0  0  0  0  0
   18.1214   -4.2499  -14.1423 O   0  0  0  0  0  0  0  0  0  0  0  0
   21.4604   -3.7476  -14.0289 O   0  0  0  0  0  0  0  0  0  0  0  0
  2  3  1  0
  2  1  1  1
  4  3  1  0
  5  6  2  0
  5  2  1  0
  7  5  1  0
  8 11  1  0
  8  7  1  0
  9 10  1  0
  8  9  1  6
 11 13  1  0
 12 11  2  0
 13 14  1  0
 14 18  1  0
 14 15  1  1
 16 15  1  0
 17 16  2  0
 18 21  2  0
 18 19  1  0
 20 16  1  0
M  END
$$$$
