CCD.pdb
     RDKit          3D

 21 20  0  0  1  0  0  0  0  0999 V2000
   27.5488  -12.2394  -15.3231 N   0  0  0  0  0  0  0  0  0  0  0  0
   27.8778  -11.8331  -16.6724 C   0  0  1  0  0  0  0  0  0  0  0  0
   27.9161  -13.0955  -17.5109 C   0  0  0  0  0  0  0  0  0  0  0  0
   29.1448  -14.2276  -16.8174 S   0  0  0  0  0  0  0  0  0  0  0  0
   26.8111  -10.9708  -17.2604 C   0  0  0  0  0  0  0  0  0  0  0  0
   26.9239  -10.5490  -18.4373 O   0  0  0  0  0  0  0  0  0  0  0  0
   25.6466  -10.5953  -16.5352 N   0  0  0  0  0  0  0  0  0  0  0  0
   24.6153   -9.7504  -17.0646 C   0  0  1  0  0  0  0  0  0  0  0  0
   23.5605  -10.6330  -17.7259 C   0  0  0  0  0  0  0  0  0  0  0  0
   23.0195  -11.9320  -16.5527 S   0  0  0  0  0  0  0  0  0  0  0  0
   23.9897   -8.8945  -16.0085 C   0  0  0  0  0  0  0  0  0  0  0  0
   23.9816   -9.2456  -14.7988 O   0  0  0  0  0  0  0  0  0  0  0  0
   23.3813   -7.6518  -16.3349 N   0  0  0  0  0  0  0  0  0  0  0  0
   22.7273   -6.7993  -15.3811 C   0  0  1  0  0  0  0  0  0  0  0  0
   23.2461   -5.3845  -15.4233 C   0  0  0  0  0  0  0  0  0  0  0  0
   22.5863   -4.4780  -14.4574 C   0  0  0  0  0  0  0  0  0  0  0  0
   21.6575   -3.6785  -14.7874 O   0  0  0  0  0  0  0  0  0  0  0  0
   21.2533   -6.8991  -15.4468 C   0  0  0  0  0  0  0  0  0  0  0  0
   20.4412   -6.6892  -14.3275 O   0  0  0  0  0  0  0  0  0  0  0  0
   22.9401   -4.4366  -13.1050 O   0  0  0  0  0  0  0  0  0  0  0  0
   20.6432   -7.1770  -16.5071 O   0  0  0  0  0  0  0  0  0  0  0  0
  2  3  1  0
  2  1  1  1
  4  3  1  0
  5  6  2  0
  5  2  1  0
  7  5  1  0
  8 11  1  0
  8  7  1  0
  9 10  1  0
  8  9  1  1
 11 13  1  0
 12 11  2  0
 13 14  1  0
 14 18  1  0
 14 15  1  6
 16 15  1  0
 17 16  2  0
 18 21  2  0
 18 19  1  0
 20 16  1  0
M  END
$$$$
