CCD.pdb
     RDKit          3D

 21 20  0  0  1  0  0  0  0  0999 V2000
   26.9379  -13.9423  -18.6691 N   0  0  0  0  0  0  0  0  0  0  0  0
   25.7049  -13.9647  -17.9120 C   0  0  1  0  0  0  0  0  0  0  0  0
   24.6357  -13.3622  -18.8020 C   0  0  0  0  0  0  0  0  0  0  0  0
   24.8620  -11.5686  -18.8648 S   0  0  0  0  0  0  0  0  0  0  0  0
   25.2682  -15.3610  -17.6175 C   0  0  0  0  0  0  0  0  0  0  0  0
   25.0283  -16.1546  -18.5600 O   0  0  0  0  0  0  0  0  0  0  0  0
   25.1070  -15.8468  -16.2904 N   0  0  0  0  0  0  0  0  0  0  0  0
   24.6781  -17.1790  -15.9755 C   0  0  1  0  0  0  0  0  0  0  0  0
   25.6494  -17.7707  -14.9579 C   0  0  0  0  0  0  0  0  0  0  0  0
   26.7593  -16.4563  -14.3279 S   0  0  0  0  0  0  0  0  0  0  0  0
   23.2810  -17.2101  -15.4403 C   0  0  0  0  0  0  0  0  0  0  0  0
   23.0288  -16.9009  -14.2456 O   0  0  0  0  0  0  0  0  0  0  0  0
   22.1869  -17.5908  -16.2644 N   0  0  0  0  0  0  0  0  0  0  0  0
   20.8255  -17.6677  -15.8118 C   0  0  1  0  0  0  0  0  0  0  0  0
   19.9811  -16.5326  -16.3327 C   0  0  0  0  0  0  0  0  0  0  0  0
   19.1011  -15.9253  -15.3095 C   0  0  0  0  0  0  0  0  0  0  0  0
   19.0630  -16.3289  -14.1069 O   0  0  0  0  0  0  0  0  0  0  0  0
   20.2302  -19.0044  -16.0260 C   0  0  0  0  0  0  0  0  0  0  0  0
   19.4103  -19.6169  -15.0726 O   0  0  0  0  0  0  0  0  0  0  0  0
   18.2439  -14.8578  -15.5953 O   0  0  0  0  0  0  0  0  0  0  0  0
   20.4236  -19.6684  -17.0726 O   0  0  0  0  0  0  0  0  0  0  0  0
  2  3  1  0
  2  1  1  6
  4  3  1  0
  5  6  2  0
  5  2  1  0
  7  5  1  0
  8 11  1  0
  8  7  1  0
  9 10  1  0
  8  9  1  1
 11 13  1  0
 12 11  2  0
 13 14  1  0
 14 18  1  0
 14 15  1  6
 16 15  1  0
 17 16  2  0
 18 21  2  0
 18 19  1  0
 20 16  1  0
M  END
$$$$
