CCD.pdb
     RDKit          3D

 21 20  0  0  1  0  0  0  0  0999 V2000
   23.9779  -13.7419  -19.1285 N   0  0  0  0  0  0  0  0  0  0  0  0
   24.0921  -12.3001  -19.0817 C   0  0  1  0  0  0  0  0  0  0  0  0
   23.5561  -11.7772  -20.3999 C   0  0  0  0  0  0  0  0  0  0  0  0
   24.7125  -12.2119  -21.7213 S   0  0  0  0  0  0  0  0  0  0  0  0
   23.2265  -11.7163  -18.0154 C   0  0  0  0  0  0  0  0  0  0  0  0
   22.0654  -12.1590  -17.8384 O   0  0  0  0  0  0  0  0  0  0  0  0
   23.6638  -10.6585  -17.1710 N   0  0  0  0  0  0  0  0  0  0  0  0
   22.8317  -10.0273  -16.1877 C   0  0  1  0  0  0  0  0  0  0  0  0
   23.6289   -9.8969  -14.8929 C   0  0  0  0  0  0  0  0  0  0  0  0
   22.5722   -9.1620  -13.5891 S   0  0  0  0  0  0  0  0  0  0  0  0
   22.3463   -8.6851  -16.6372 C   0  0  0  0  0  0  0  0  0  0  0  0
   23.1159   -7.8648  -17.2042 O   0  0  0  0  0  0  0  0  0  0  0  0
   20.9956   -8.2882  -16.4393 N   0  0  0  0  0  0  0  0  0  0  0  0
   20.4510   -7.0342  -16.8810 C   0  0  1  0  0  0  0  0  0  0  0  0
   19.0070   -7.1491  -17.2986 C   0  0  0  0  0  0  0  0  0  0  0  0
   18.4297   -5.8840  -17.8045 C   0  0  0  0  0  0  0  0  0  0  0  0
   18.9829   -5.1885  -18.7106 O   0  0  0  0  0  0  0  0  0  0  0  0
   20.7133   -5.9338  -15.9284 C   0  0  0  0  0  0  0  0  0  0  0  0
   21.3344   -6.1486  -14.6937 O   0  0  0  0  0  0  0  0  0  0  0  0
   17.2270   -5.3609  -17.3186 O   0  0  0  0  0  0  0  0  0  0  0  0
   20.3957   -4.7442  -16.1688 O   0  0  0  0  0  0  0  0  0  0  0  0
  2  3  1  0
  2  1  1  6
  4  3  1  0
  5  6  2  0
  5  2  1  0
  7  5  1  0
  8 11  1  0
  8  7  1  0
  9 10  1  0
  8  9  1  1
 11 13  1  0
 12 11  2  0
 13 14  1  0
 14 18  1  0
 14 15  1  1
 16 15  1  0
 17 16  2  0
 18 21  2  0
 18 19  1  0
 20 16  1  0
M  END
$$$$
