CCD.pdb
     RDKit          3D

 21 20  0  0  1  0  0  0  0  0999 V2000
   18.2215  -12.7527  -15.9953 N   0  0  0  0  0  0  0  0  0  0  0  0
   18.5837  -11.5202  -16.6617 C   0  0  1  0  0  0  0  0  0  0  0  0
   17.3038  -10.9390  -17.2292 C   0  0  0  0  0  0  0  0  0  0  0  0
   16.9485  -11.7314  -18.8161 S   0  0  0  0  0  0  0  0  0  0  0  0
   19.1118  -10.5109  -15.6976 C   0  0  0  0  0  0  0  0  0  0  0  0
   18.5997  -10.4064  -14.5564 O   0  0  0  0  0  0  0  0  0  0  0  0
   20.1918   -9.6421  -16.0168 N   0  0  0  0  0  0  0  0  0  0  0  0
   20.6571   -8.5971  -15.1513 C   0  0  1  0  0  0  0  0  0  0  0  0
   22.0973   -8.9063  -14.7525 C   0  0  0  0  0  0  0  0  0  0  0  0
   22.7310   -7.5838  -13.6543 S   0  0  0  0  0  0  0  0  0  0  0  0
   20.5742   -7.2502  -15.7980 C   0  0  0  0  0  0  0  0  0  0  0  0
   20.8535   -7.0884  -17.0156 O   0  0  0  0  0  0  0  0  0  0  0  0
   20.1759   -6.1033  -15.0584 N   0  0  0  0  0  0  0  0  0  0  0  0
   20.2227   -4.7602  -15.5665 C   0  0  1  0  0  0  0  0  0  0  0  0
   18.8488   -4.1826  -15.7933 C   0  0  0  0  0  0  0  0  0  0  0  0
   18.8619   -2.8308  -16.3954 C   0  0  0  0  0  0  0  0  0  0  0  0
   19.0806   -1.7785  -15.7204 O   0  0  0  0  0  0  0  0  0  0  0  0
   21.1177   -3.8856  -14.7785 C   0  0  0  0  0  0  0  0  0  0  0  0
   21.7290   -2.7544  -15.3290 O   0  0  0  0  0  0  0  0  0  0  0  0
   18.6330   -2.6141  -17.7580 O   0  0  0  0  0  0  0  0  0  0  0  0
   21.3823   -4.1040  -13.5718 O   0  0  0  0  0  0  0  0  0  0  0  0
  2  3  1  0
  2  1  1  1
  4  3  1  0
  5  6  2  0
  5  2  1  0
  7  5  1  0
  8 11  1  0
  8  7  1  0
  9 10  1  0
  8  9  1  6
 11 13  1  0
 12 11  2  0
 13 14  1  0
 14 18  1  0
 14 15  1  1
 16 15  1  0
 17 16  2  0
 18 21  2  0
 18 19  1  0
 20 16  1  0
M  END
$$$$
