MRW.pdb
     RDKit          3D

 34 35  0  0  1  0  0  0  0  0999 V2000
   28.5895  -19.8184   -4.1585 C   0  0  0  0  0  0  0  0  0  0  0  0
   28.6401  -20.1121   -5.9434 S   0  0  0  0  0  0  0  0  0  0  0  0
   27.1567  -19.4606   -6.7291 C   0  0  0  0  0  0  0  0  0  0  0  0
   27.1930  -19.6832   -8.2082 C   0  0  0  0  0  0  0  0  0  0  0  0
   25.8730  -20.3035   -8.6826 C   0  0  2  0  0  0  0  0  0  0  0  0
   25.8639  -21.6711   -8.2983 N   0  0  0  0  0  0  0  0  0  0  0  0
   25.7929  -20.1192  -10.1652 C   0  0  0  0  0  0  0  0  0  0  0  0
   25.8473  -18.9233  -10.6210 O   0  0  0  0  0  0  0  0  0  0  0  0
   31.0276  -22.7470  -13.1499 N   0  0  0  0  0  0  0  0  0  0  0  0
   30.4609  -22.6227  -14.4400 C   0  0  0  0  0  0  0  0  0  0  0  0
   30.8996  -23.3769  -15.3855 N   0  0  0  0  0  0  0  0  0  0  0  0
   29.4335  -21.6838  -14.6665 N   0  0  0  0  0  0  0  0  0  0  0  0
   28.8000  -21.0813  -13.4826 C   0  0  0  0  0  0  0  0  0  0  0  0
   27.8462  -22.0201  -12.8585 C   0  0  0  0  0  0  0  0  0  0  0  0
   26.4328  -21.8740  -13.1943 C   0  0  0  0  0  0  0  0  0  0  0  0
   25.5367  -20.9205  -12.5462 C   0  0  2  0  0  0  0  0  0  0  0  0
   25.6632  -21.1906  -11.0497 N   0  0  0  0  0  0  0  0  0  0  0  0
   24.1338  -20.8193  -12.7964 C   0  0  0  0  0  0  0  0  0  0  0  0
   23.3355  -21.7330  -12.4023 O   0  0  0  0  0  0  0  0  0  0  0  0
   30.5686  -23.2679  -16.3688 N   0  0  0  0  0  0  0  0  0  0  0  0
   23.5320  -19.7324  -13.4788 C   0  0  1  0  0  0  0  0  0  0  0  0
   22.0862  -19.6565  -13.7522 C   0  0  0  0  0  0  0  0  0  0  0  0
   21.5362  -18.4836  -13.0300 C   0  0  0  0  0  0  0  0  0  0  0  0
   20.2871  -18.7255  -12.3240 C   0  0  0  0  0  0  0  0  0  0  0  0
   20.1675  -19.3059  -11.0509 N   0  0  0  0  0  0  0  0  0  0  0  0
   18.8771  -19.3895  -10.7437 C   0  0  0  0  0  0  0  0  0  0  0  0
   18.1549  -18.8940  -11.7486 C   0  0  0  0  0  0  0  0  0  0  0  0
   16.8054  -18.7307  -11.9364 C   0  0  0  0  0  0  0  0  0  0  0  0
   16.2762  -18.1656  -13.0733 C   0  0  0  0  0  0  0  0  0  0  0  0
   17.1373  -17.7465  -14.0645 C   0  0  0  0  0  0  0  0  0  0  0  0
   18.4972  -17.8984  -13.9036 C   0  0  0  0  0  0  0  0  0  0  0  0
   19.0172  -18.4701  -12.7529 C   0  0  0  0  0  0  0  0  0  0  0  0
   21.8015  -19.7965  -15.1700 O   0  0  0  0  0  0  0  0  0  0  0  0
   20.5605  -20.2010  -15.6493 O   0  0  0  0  0  0  0  0  0  0  0  0
  2  1  1  0
  3  2  1  0
  4  3  1  0
  5  4  1  0
  5  6  1  6
  7  5  1  0
  8  7  2  0
  9 10  1  0
 10 11  2  0
 10 12  1  0
 12 13  1  0
 13 14  1  0
 14 15  1  0
 16 15  1  6
 16 18  1  0
 16 17  1  0
 17  7  1  0
 18 19  2  0
 20 21  1  0
 20 18  1  0
 21 22  1  6
 23 22  1  0
 24 23  2  0
 25 24  1  0
 26 25  1  0
 26 31  2  0
 27 26  1  0
 28 27  2  0
 28 29  1  0
 29 30  2  0
 30 31  1  0
 31 23  1  0
 32 33  1  0
 32 21  1  0
 34 32  2  0
M  END
$$$$
