MRW.pdb
     RDKit          3D

 34 35  0  0  1  0  0  0  0  0999 V2000
   28.7083  -18.1666  -15.1661 C   0  0  0  0  0  0  0  0  0  0  0  0
   28.4138  -16.6794  -16.1541 S   0  0  0  0  0  0  0  0  0  0  0  0
   27.0247  -15.7476  -15.4874 C   0  0  0  0  0  0  0  0  0  0  0  0
   25.7263  -16.4148  -15.8151 C   0  0  0  0  0  0  0  0  0  0  0  0
   25.6028  -16.6169  -17.3305 C   0  0  2  0  0  0  0  0  0  0  0  0
   25.0832  -15.4213  -17.8950 N   0  0  0  0  0  0  0  0  0  0  0  0
   24.7134  -17.7981  -17.5590 C   0  0  0  0  0  0  0  0  0  0  0  0
   23.4676  -17.6669  -17.2912 O   0  0  0  0  0  0  0  0  0  0  0  0
   25.6538  -25.7443  -16.7902 N   0  0  0  0  0  0  0  0  0  0  0  0
   26.8774  -25.0473  -16.6555 C   0  0  0  0  0  0  0  0  0  0  0  0
   27.9722  -25.7210  -16.6017 N   0  0  0  0  0  0  0  0  0  0  0  0
   26.8775  -23.6391  -16.5840 N   0  0  0  0  0  0  0  0  0  0  0  0
   25.6898  -22.9394  -17.0994 C   0  0  0  0  0  0  0  0  0  0  0  0
   26.0352  -22.0993  -18.2636 C   0  0  0  0  0  0  0  0  0  0  0  0
   24.9857  -21.2536  -18.8249 C   0  0  0  0  0  0  0  0  0  0  0  0
   24.2704  -20.2321  -18.0652 C   0  0  2  0  0  0  0  0  0  0  0  0
   25.1911  -19.0153  -18.0461 N   0  0  0  0  0  0  0  0  0  0  0  0
   23.8154  -20.3850  -16.7196 C   0  0  0  0  0  0  0  0  0  0  0  0
   24.6422  -20.3709  -15.7481 O   0  0  0  0  0  0  0  0  0  0  0  0
   28.8962  -25.2522  -16.4798 N   0  0  0  0  0  0  0  0  0  0  0  0
   22.4544  -20.5581  -16.3634 C   0  0  2  0  0  0  0  0  0  0  0  0
   22.0206  -20.9380  -15.0075 C   0  0  0  0  0  0  0  0  0  0  0  0
   21.4881  -19.7293  -14.3329 C   0  0  0  0  0  0  0  0  0  0  0  0
   20.7502  -19.9842  -13.1049 C   0  0  0  0  0  0  0  0  0  0  0  0
   21.3156  -20.1347  -11.8284 N   0  0  0  0  0  0  0  0  0  0  0  0
   20.3400  -20.3807  -10.9599 C   0  0  0  0  0  0  0  0  0  0  0  0
   19.1735  -20.3970  -11.6050 C   0  0  0  0  0  0  0  0  0  0  0  0
   17.8796  -20.5868  -11.1894 C   0  0  0  0  0  0  0  0  0  0  0  0
   16.8081  -20.5413  -12.0504 C   0  0  0  0  0  0  0  0  0  0  0  0
   17.0443  -20.2951  -13.3858 C   0  0  0  0  0  0  0  0  0  0  0  0
   18.3334  -20.1013  -13.8319 C   0  0  0  0  0  0  0  0  0  0  0  0
   19.4043  -20.1503  -12.9533 C   0  0  0  0  0  0  0  0  0  0  0  0
   21.2066  -22.1412  -15.0235 O   0  0  0  0  0  0  0  0  0  0  0  0
   20.2760  -22.4038  -16.0227 O   0  0  0  0  0  0  0  0  0  0  0  0
  2  1  1  0
  3  2  1  0
  4  3  1  0
  5  4  1  0
  5  6  1  6
  7  5  1  0
  8  7  2  0
  9 10  1  0
 10 11  2  0
 10 12  1  0
 12 13  1  0
 13 14  1  0
 14 15  1  0
 16 15  1  1
 16 18  1  0
 16 17  1  0
 17  7  1  0
 18 19  2  0
 20 21  1  0
 20 18  1  0
 21 22  1  6
 23 22  1  0
 24 23  2  0
 25 24  1  0
 26 25  1  0
 26 31  2  0
 27 26  1  0
 28 27  2  0
 28 29  1  0
 29 30  2  0
 30 31  1  0
 31 23  1  0
 32 33  1  0
 32 21  1  0
 34 32  2  0
M  END
$$$$
