MRW.pdb
     RDKit          3D

 34 35  0  0  1  0  0  0  0  0999 V2000
   31.0335  -26.9607  -18.7993 C   0  0  0  0  0  0  0  0  0  0  0  0
   30.9942  -25.2469  -18.2195 S   0  0  0  0  0  0  0  0  0  0  0  0
   29.7349  -25.0427  -16.9488 C   0  0  0  0  0  0  0  0  0  0  0  0
   29.7996  -23.6747  -16.3464 C   0  0  0  0  0  0  0  0  0  0  0  0
   28.6617  -22.8023  -16.8907 C   0  0  2  0  0  0  0  0  0  0  0  0
   29.0306  -22.3528  -18.1869 N   0  0  0  0  0  0  0  0  0  0  0  0
   28.4523  -21.6775  -15.9268 C   0  0  0  0  0  0  0  0  0  0  0  0
   29.2091  -20.6498  -16.0364 O   0  0  0  0  0  0  0  0  0  0  0  0
   22.5382  -18.8242  -16.4527 N   0  0  0  0  0  0  0  0  0  0  0  0
   22.0674  -19.9177  -15.6886 C   0  0  0  0  0  0  0  0  0  0  0  0
   21.0493  -20.5791  -16.1143 N   0  0  0  0  0  0  0  0  0  0  0  0
   22.7158  -20.2621  -14.4847 N   0  0  0  0  0  0  0  0  0  0  0  0
   23.9670  -19.5548  -14.1685 C   0  0  0  0  0  0  0  0  0  0  0  0
   25.0312  -19.9086  -15.1291 C   0  0  0  0  0  0  0  0  0  0  0  0
   26.4088  -19.5941  -14.7612 C   0  0  0  0  0  0  0  0  0  0  0  0
   27.2815  -20.5025  -14.0227 C   0  0  2  0  0  0  0  0  0  0  0  0
   27.4758  -21.7134  -14.9307 N   0  0  0  0  0  0  0  0  0  0  0  0
   26.9943  -21.0394  -12.7303 C   0  0  0  0  0  0  0  0  0  0  0  0
   26.2128  -22.0393  -12.6006 O   0  0  0  0  0  0  0  0  0  0  0  0
   20.6661  -21.3920  -15.5844 N   0  0  0  0  0  0  0  0  0  0  0  0
   27.5356  -20.5245  -11.5257 C   0  0  2  0  0  0  0  0  0  0  0  0
   26.9300  -20.7665  -10.2044 C   0  0  0  0  0  0  0  0  0  0  0  0
   27.7451  -20.0655   -9.1828 C   0  0  0  0  0  0  0  0  0  0  0  0
   27.2200  -20.1279   -7.8272 C   0  0  0  0  0  0  0  0  0  0  0  0
   25.8885  -20.4069   -7.4790 N   0  0  0  0  0  0  0  0  0  0  0  0
   25.7771  -20.3528   -6.1556 C   0  0  0  0  0  0  0  0  0  0  0  0
   26.9645  -20.0546   -5.6282 C   0  0  0  0  0  0  0  0  0  0  0  0
   27.3984  -19.8949   -4.3363 C   0  0  0  0  0  0  0  0  0  0  0  0
   28.7044  -19.5991   -4.0220 C   0  0  0  0  0  0  0  0  0  0  0  0
   29.6142  -19.4571   -5.0475 C   0  0  0  0  0  0  0  0  0  0  0  0
   29.2068  -19.6111   -6.3546 C   0  0  0  0  0  0  0  0  0  0  0  0
   27.8873  -19.9087   -6.6573 C   0  0  0  0  0  0  0  0  0  0  0  0
   25.4949  -20.5409  -10.2241 O   0  0  0  0  0  0  0  0  0  0  0  0
   24.5897  -21.4191   -9.6386 O   0  0  0  0  0  0  0  0  0  0  0  0
  2  1  1  0
  3  2  1  0
  4  3  1  0
  5  4  1  0
  5  6  1  6
  7  5  1  0
  8  7  2  0
  9 10  1  0
 10 11  2  0
 10 12  1  0
 12 13  1  0
 13 14  1  0
 14 15  1  0
 16 15  1  6
 16 18  1  0
 16 17  1  0
 17  7  1  0
 18 19  2  0
 20 21  1  0
 20 18  1  0
 21 22  1  6
 23 22  1  0
 24 23  2  0
 25 24  1  0
 26 25  1  0
 26 31  2  0
 27 26  1  0
 28 27  2  0
 28 29  1  0
 29 30  2  0
 30 31  1  0
 31 23  1  0
 32 33  1  0
 32 21  1  0
 34 32  2  0
M  END
$$$$
