MRW.pdb
     RDKit          3D

 34 35  0  0  1  0  0  0  0  0999 V2000
   32.3386  -22.1000  -10.6317 C   0  0  0  0  0  0  0  0  0  0  0  0
   31.7004  -22.9047  -12.1216 S   0  0  0  0  0  0  0  0  0  0  0  0
   31.5808  -21.7204  -13.4727 C   0  0  0  0  0  0  0  0  0  0  0  0
   30.5429  -20.6822  -13.1838 C   0  0  0  0  0  0  0  0  0  0  0  0
   29.3894  -20.7931  -14.1884 C   0  0  2  0  0  0  0  0  0  0  0  0
   29.7319  -20.0354  -15.3402 N   0  0  0  0  0  0  0  0  0  0  0  0
   28.1515  -20.2917  -13.5140 C   0  0  0  0  0  0  0  0  0  0  0  0
   28.1533  -19.0844  -13.0859 O   0  0  0  0  0  0  0  0  0  0  0  0
   20.4719  -23.7985  -12.3346 N   0  0  0  0  0  0  0  0  0  0  0  0
   20.0624  -22.4473  -12.4230 C   0  0  0  0  0  0  0  0  0  0  0  0
   18.8041  -22.1817  -12.4587 N   0  0  0  0  0  0  0  0  0  0  0  0
   21.0307  -21.4233  -12.4691 N   0  0  0  0  0  0  0  0  0  0  0  0
   22.3967  -21.8064  -12.8606 C   0  0  0  0  0  0  0  0  0  0  0  0
   23.2770  -20.6231  -12.9331 C   0  0  0  0  0  0  0  0  0  0  0  0
   24.6520  -20.8273  -13.3798 C   0  0  0  0  0  0  0  0  0  0  0  0
   25.8254  -20.5346  -12.5615 C   0  0  2  0  0  0  0  0  0  0  0  0
   27.0165  -21.0847  -13.3407 N   0  0  0  0  0  0  0  0  0  0  0  0
   26.0138  -20.9786  -11.2167 C   0  0  0  0  0  0  0  0  0  0  0  0
   26.2498  -22.2067  -10.9645 O   0  0  0  0  0  0  0  0  0  0  0  0
   18.4535  -21.1991  -12.4622 N   0  0  0  0  0  0  0  0  0  0  0  0
   25.9573  -20.1215  -10.0892 C   0  0  2  0  0  0  0  0  0  0  0  0
   26.1093  -20.6032   -8.7051 C   0  0  0  0  0  0  0  0  0  0  0  0
   26.6615  -19.4977   -7.8849 C   0  0  0  0  0  0  0  0  0  0  0  0
   26.7724  -19.7826   -6.4623 C   0  0  0  0  0  0  0  0  0  0  0  0
   25.7045  -20.0975   -5.6066 N   0  0  0  0  0  0  0  0  0  0  0  0
   26.1828  -20.2680   -4.3782 C   0  0  0  0  0  0  0  0  0  0  0  0
   27.5026  -20.0811   -4.3926 C   0  0  0  0  0  0  0  0  0  0  0  0
   28.4656  -20.1502   -3.4176 C   0  0  0  0  0  0  0  0  0  0  0  0
   29.7992  -19.9311   -3.6732 C   0  0  0  0  0  0  0  0  0  0  0  0
   30.1834  -19.6295   -4.9621 C   0  0  0  0  0  0  0  0  0  0  0  0
   29.2380  -19.5528   -5.9614 C   0  0  0  0  0  0  0  0  0  0  0  0
   27.8972  -19.7754   -5.6898 C   0  0  0  0  0  0  0  0  0  0  0  0
   24.9124  -21.2832   -8.2406 O   0  0  0  0  0  0  0  0  0  0  0  0
   23.6425  -20.9746   -8.7156 O   0  0  0  0  0  0  0  0  0  0  0  0
  2  1  1  0
  3  2  1  0
  4  3  1  0
  5  4  1  0
  5  6  1  6
  7  5  1  0
  8  7  2  0
  9 10  1  0
 10 11  2  0
 10 12  1  0
 12 13  1  0
 13 14  1  0
 14 15  1  0
 16 15  1  6
 16 18  1  0
 16 17  1  0
 17  7  1  0
 18 19  2  0
 20 21  1  0
 20 18  1  0
 21 22  1  6
 23 22  1  0
 24 23  2  0
 25 24  1  0
 26 25  1  0
 26 31  2  0
 27 26  1  0
 28 27  2  0
 28 29  1  0
 29 30  2  0
 30 31  1  0
 31 23  1  0
 32 33  1  0
 32 21  1  0
 34 32  2  0
M  END
$$$$
