MRW.pdb
     RDKit          3D

 34 35  0  0  1  0  0  0  0  0999 V2000
   22.5596  -18.2981  -14.8002 C   0  0  0  0  0  0  0  0  0  0  0  0
   22.7747  -18.4406  -16.5913 S   0  0  0  0  0  0  0  0  0  0  0  0
   24.4306  -19.0319  -16.9797 C   0  0  0  0  0  0  0  0  0  0  0  0
   24.9986  -19.8185  -15.8408 C   0  0  0  0  0  0  0  0  0  0  0  0
   26.5292  -19.8539  -15.9332 C   0  0  2  0  0  0  0  0  0  0  0  0
   26.8839  -20.5018  -17.1467 N   0  0  0  0  0  0  0  0  0  0  0  0
   27.0396  -20.5720  -14.7241 C   0  0  0  0  0  0  0  0  0  0  0  0
   26.5737  -21.7410  -14.4841 O   0  0  0  0  0  0  0  0  0  0  0  0
   31.6954  -23.5122  -13.1268 N   0  0  0  0  0  0  0  0  0  0  0  0
   32.7917  -23.4162  -12.2380 C   0  0  0  0  0  0  0  0  0  0  0  0
   33.6269  -24.3928  -12.1757 N   0  0  0  0  0  0  0  0  0  0  0  0
   32.9504  -22.2624  -11.4431 N   0  0  0  0  0  0  0  0  0  0  0  0
   31.7494  -21.4510  -11.1881 C   0  0  0  0  0  0  0  0  0  0  0  0
   30.9374  -21.3095  -12.4133 C   0  0  0  0  0  0  0  0  0  0  0  0
   29.8048  -20.3889  -12.3737 C   0  0  0  0  0  0  0  0  0  0  0  0
   28.4224  -20.7883  -12.6222 C   0  0  2  0  0  0  0  0  0  0  0  0
   27.9900  -20.0174  -13.8661 N   0  0  0  0  0  0  0  0  0  0  0  0
   27.3497  -20.6382  -11.6906 C   0  0  0  0  0  0  0  0  0  0  0  0
   26.7905  -19.5044  -11.5200 O   0  0  0  0  0  0  0  0  0  0  0  0
   34.4748  -24.3481  -11.5695 N   0  0  0  0  0  0  0  0  0  0  0  0
   26.8339  -21.7000  -10.9058 C   0  0  1  0  0  0  0  0  0  0  0  0
   26.3209  -21.5122   -9.5374 C   0  0  0  0  0  0  0  0  0  0  0  0
   27.4197  -20.9769   -8.6973 C   0  0  0  0  0  0  0  0  0  0  0  0
   27.0342  -20.6018   -7.3452 C   0  0  0  0  0  0  0  0  0  0  0  0
   25.7669  -20.7977   -6.7731 N   0  0  0  0  0  0  0  0  0  0  0  0
   25.7804  -20.3083   -5.5374 C   0  0  0  0  0  0  0  0  0  0  0  0
   26.9880  -19.8067   -5.2785 C   0  0  0  0  0  0  0  0  0  0  0  0
   27.5319  -19.2079   -4.1700 C   0  0  0  0  0  0  0  0  0  0  0  0
   28.8368  -18.7755   -4.1238 C   0  0  0  0  0  0  0  0  0  0  0  0
   29.6301  -18.9508   -5.2371 C   0  0  0  0  0  0  0  0  0  0  0  0
   29.1106  -19.5483   -6.3646 C   0  0  0  0  0  0  0  0  0  0  0  0
   27.7936  -19.9791   -6.3979 C   0  0  0  0  0  0  0  0  0  0  0  0
   25.0432  -20.8208   -9.5350 O   0  0  0  0  0  0  0  0  0  0  0  0
   24.5561  -20.1415  -10.6461 O   0  0  0  0  0  0  0  0  0  0  0  0
  2  1  1  0
  3  2  1  0
  4  3  1  0
  5  4  1  0
  5  6  1  6
  7  5  1  0
  8  7  2  0
  9 10  1  0
 10 11  2  0
 10 12  1  0
 12 13  1  0
 13 14  1  0
 14 15  1  0
 16 15  1  1
 16 18  1  0
 16 17  1  0
 17  7  1  0
 18 19  2  0
 20 21  1  0
 20 18  1  0
 21 22  1  1
 23 22  1  0
 24 23  2  0
 25 24  1  0
 26 25  1  0
 26 31  2  0
 27 26  1  0
 28 27  2  0
 28 29  1  0
 29 30  2  0
 30 31  1  0
 31 23  1  0
 32 33  1  0
 32 21  1  0
 34 32  2  0
M  END
$$$$
