MRW.pdb
     RDKit          3D

 34 35  0  0  1  0  0  0  0  0999 V2000
   27.3534  -19.1427   -7.1366 C   0  0  0  0  0  0  0  0  0  0  0  0
   28.7823  -19.4683   -8.1982 S   0  0  0  0  0  0  0  0  0  0  0  0
   28.4298  -20.8268   -9.3263 C   0  0  0  0  0  0  0  0  0  0  0  0
   27.3134  -20.4730  -10.2574 C   0  0  0  0  0  0  0  0  0  0  0  0
   26.9304  -21.6887  -11.1105 C   0  0  2  0  0  0  0  0  0  0  0  0
   28.0421  -22.0217  -11.9299 N   0  0  0  0  0  0  0  0  0  0  0  0
   25.7169  -21.3208  -11.9045 C   0  0  0  0  0  0  0  0  0  0  0  0
   25.8097  -21.3473  -13.1818 O   0  0  0  0  0  0  0  0  0  0  0  0
   19.0384  -23.2838  -11.8431 N   0  0  0  0  0  0  0  0  0  0  0  0
   18.0640  -22.2751  -11.6582 C   0  0  0  0  0  0  0  0  0  0  0  0
   16.9119  -22.4167  -12.2130 N   0  0  0  0  0  0  0  0  0  0  0  0
   18.3680  -21.1423  -10.8755 N   0  0  0  0  0  0  0  0  0  0  0  0
   19.7442  -21.0254  -10.3674 C   0  0  0  0  0  0  0  0  0  0  0  0
   20.7204  -21.0523  -11.4751 C   0  0  0  0  0  0  0  0  0  0  0  0
   22.1374  -20.9719  -11.1322 C   0  0  0  0  0  0  0  0  0  0  0  0
   23.2168  -21.0327  -12.1137 C   0  0  2  0  0  0  0  0  0  0  0  0
   24.5097  -20.9566  -11.3068 N   0  0  0  0  0  0  0  0  0  0  0  0
   23.3895  -20.1146  -13.1947 C   0  0  0  0  0  0  0  0  0  0  0  0
   23.8289  -18.9359  -12.9827 O   0  0  0  0  0  0  0  0  0  0  0  0
   16.1501  -21.7173  -12.0754 N   0  0  0  0  0  0  0  0  0  0  0  0
   23.0982  -20.4261  -14.5465 C   0  0  1  0  0  0  0  0  0  0  0  0
   23.1230  -19.4232  -15.6256 C   0  0  0  0  0  0  0  0  0  0  0  0
   24.3642  -19.6174  -16.4138 C   0  0  0  0  0  0  0  0  0  0  0  0
   25.5120  -18.8504  -15.9538 C   0  0  0  0  0  0  0  0  0  0  0  0
   26.3029  -19.1555  -14.8344 N   0  0  0  0  0  0  0  0  0  0  0  0
   27.2397  -18.2207  -14.7108 C   0  0  0  0  0  0  0  0  0  0  0  0
   27.0984  -17.3273  -15.6899 C   0  0  0  0  0  0  0  0  0  0  0  0
   27.7959  -16.1950  -16.0281 C   0  0  0  0  0  0  0  0  0  0  0  0
   27.4723  -15.4202  -17.1175 C   0  0  0  0  0  0  0  0  0  0  0  0
   26.4030  -15.7970  -17.9012 C   0  0  0  0  0  0  0  0  0  0  0  0
   25.6838  -16.9290  -17.5853 C   0  0  0  0  0  0  0  0  0  0  0  0
   26.0205  -17.7005  -16.4842 C   0  0  0  0  0  0  0  0  0  0  0  0
   21.8538  -19.3635  -16.3300 O   0  0  0  0  0  0  0  0  0  0  0  0
   21.5681  -18.3884  -17.2792 O   0  0  0  0  0  0  0  0  0  0  0  0
  2  1  1  0
  3  2  1  0
  4  3  1  0
  5  4  1  0
  5  6  1  6
  7  5  1  0
  8  7  2  0
  9 10  1  0
 10 11  2  0
 10 12  1  0
 12 13  1  0
 13 14  1  0
 14 15  1  0
 16 15  1  1
 16 18  1  0
 16 17  1  0
 17  7  1  0
 18 19  2  0
 20 21  1  0
 20 18  1  0
 21 22  1  6
 23 22  1  0
 24 23  2  0
 25 24  1  0
 26 25  1  0
 26 31  2  0
 27 26  1  0
 28 27  2  0
 28 29  1  0
 29 30  2  0
 30 31  1  0
 31 23  1  0
 32 33  1  0
 32 21  1  0
 34 32  2  0
M  END
$$$$
