MRW.pdb
     RDKit          3D

 34 35  0  0  1  0  0  0  0  0999 V2000
   28.4312  -16.3037  -15.8565 C   0  0  0  0  0  0  0  0  0  0  0  0
   27.3965  -15.0191  -16.6007 S   0  0  0  0  0  0  0  0  0  0  0  0
   25.9705  -14.6777  -15.5554 C   0  0  0  0  0  0  0  0  0  0  0  0
   25.6932  -15.8259  -14.6371 C   0  0  0  0  0  0  0  0  0  0  0  0
   24.8392  -16.8807  -15.3515 C   0  0  2  0  0  0  0  0  0  0  0  0
   23.5217  -16.3663  -15.4851 N   0  0  0  0  0  0  0  0  0  0  0  0
   24.8904  -18.1336  -14.5355 C   0  0  0  0  0  0  0  0  0  0  0  0
   24.1004  -18.2236  -13.5312 O   0  0  0  0  0  0  0  0  0  0  0  0
   22.7067  -24.3602  -14.2312 N   0  0  0  0  0  0  0  0  0  0  0  0
   23.8016  -25.2554  -14.1998 C   0  0  0  0  0  0  0  0  0  0  0  0
   23.6918  -26.3905  -14.7954 N   0  0  0  0  0  0  0  0  0  0  0  0
   24.9845  -24.8923  -13.5236 N   0  0  0  0  0  0  0  0  0  0  0  0
   25.3128  -23.4589  -13.4651 C   0  0  0  0  0  0  0  0  0  0  0  0
   25.5185  -22.9083  -14.8198 C   0  0  0  0  0  0  0  0  0  0  0  0
   26.0368  -21.5475  -14.9272 C   0  0  0  0  0  0  0  0  0  0  0  0
   25.6901  -20.4695  -14.0053 C   0  0  2  0  0  0  0  0  0  0  0  0
   25.7564  -19.1873  -14.8300 N   0  0  0  0  0  0  0  0  0  0  0  0
   26.3865  -20.1772  -12.7926 C   0  0  0  0  0  0  0  0  0  0  0  0
   27.5244  -19.6011  -12.8190 O   0  0  0  0  0  0  0  0  0  0  0  0
   24.4858  -27.0662  -14.8331 N   0  0  0  0  0  0  0  0  0  0  0  0
   25.8884  -20.4911  -11.5032 C   0  0  2  0  0  0  0  0  0  0  0  0
   26.6853  -20.3347  -10.2738 C   0  0  0  0  0  0  0  0  0  0  0  0
   25.8408  -19.6685   -9.2527 C   0  0  0  0  0  0  0  0  0  0  0  0
   26.5554  -19.1925   -8.0779 C   0  0  0  0  0  0  0  0  0  0  0  0
   26.9259  -17.8608   -7.8310 N   0  0  0  0  0  0  0  0  0  0  0  0
   27.5833  -17.8116   -6.6769 C   0  0  0  0  0  0  0  0  0  0  0  0
   27.6578  -19.0393   -6.1630 C   0  0  0  0  0  0  0  0  0  0  0  0
   28.2045  -19.5353   -5.0062 C   0  0  0  0  0  0  0  0  0  0  0  0
   28.1442  -20.8669   -4.6670 C   0  0  0  0  0  0  0  0  0  0  0  0
   27.5087  -21.7385   -5.5248 C   0  0  0  0  0  0  0  0  0  0  0  0
   26.9511  -21.2688   -6.6939 C   0  0  0  0  0  0  0  0  0  0  0  0
   27.0195  -19.9244   -7.0238 C   0  0  0  0  0  0  0  0  0  0  0  0
   27.3660  -21.5676   -9.9168 O   0  0  0  0  0  0  0  0  0  0  0  0
   28.6289  -21.5856   -9.3353 O   0  0  0  0  0  0  0  0  0  0  0  0
  2  1  1  0
  3  2  1  0
  4  3  1  0
  5  4  1  0
  5  6  1  1
  7  5  1  0
  8  7  2  0
  9 10  1  0
 10 11  2  0
 10 12  1  0
 12 13  1  0
 13 14  1  0
 14 15  1  0
 16 15  1  6
 16 18  1  0
 16 17  1  0
 17  7  1  0
 18 19  2  0
 20 21  1  0
 20 18  1  0
 21 22  1  1
 23 22  1  0
 24 23  2  0
 25 24  1  0
 26 25  1  0
 26 31  2  0
 27 26  1  0
 28 27  2  0
 28 29  1  0
 29 30  2  0
 30 31  1  0
 31 23  1  0
 32 33  1  0
 32 21  1  0
 34 32  2  0
M  END
$$$$
