MRW.pdb
     RDKit          3D

 34 35  0  0  1  0  0  0  0  0999 V2000
   23.6147  -26.0888  -15.0023 C   0  0  0  0  0  0  0  0  0  0  0  0
   24.7423  -26.4822  -16.3619 S   0  0  0  0  0  0  0  0  0  0  0  0
   25.5343  -24.9853  -16.9738 C   0  0  0  0  0  0  0  0  0  0  0  0
   25.8355  -24.0424  -15.8518 C   0  0  0  0  0  0  0  0  0  0  0  0
   26.3427  -22.7053  -16.4059 C   0  0  2  0  0  0  0  0  0  0  0  0
   27.5202  -22.9572  -17.1597 N   0  0  0  0  0  0  0  0  0  0  0  0
   26.5846  -21.7955  -15.2430 C   0  0  0  0  0  0  0  0  0  0  0  0
   27.7574  -21.7854  -14.7280 O   0  0  0  0  0  0  0  0  0  0  0  0
   28.5932  -18.3200  -17.0903 N   0  0  0  0  0  0  0  0  0  0  0  0
   28.1922  -16.9646  -17.0319 C   0  0  0  0  0  0  0  0  0  0  0  0
   28.2464  -16.2551  -18.1037 N   0  0  0  0  0  0  0  0  0  0  0  0
   27.7431  -16.4188  -15.8118 N   0  0  0  0  0  0  0  0  0  0  0  0
   27.3147  -17.3647  -14.7690 C   0  0  0  0  0  0  0  0  0  0  0  0
   25.9209  -17.7994  -14.9902 C   0  0  0  0  0  0  0  0  0  0  0  0
   25.3327  -18.7135  -14.0153 C   0  0  0  0  0  0  0  0  0  0  0  0
   25.9439  -19.9769  -13.6124 C   0  0  2  0  0  0  0  0  0  0  0  0
   25.5899  -20.9731  -14.7127 N   0  0  0  0  0  0  0  0  0  0  0  0
   25.6779  -20.6571  -12.3845 C   0  0  0  0  0  0  0  0  0  0  0  0
   24.6073  -21.3345  -12.2352 O   0  0  0  0  0  0  0  0  0  0  0  0
   27.9694  -15.2493  -18.1071 N   0  0  0  0  0  0  0  0  0  0  0  0
   26.5514  -20.6378  -11.2684 C   0  0  2  0  0  0  0  0  0  0  0  0
   26.1319  -21.0338   -9.9126 C   0  0  0  0  0  0  0  0  0  0  0  0
   27.3032  -20.9185   -9.0101 C   0  0  0  0  0  0  0  0  0  0  0  0
   26.9806  -20.7216   -7.6049 C   0  0  0  0  0  0  0  0  0  0  0  0
   25.7316  -20.9656   -7.0115 N   0  0  0  0  0  0  0  0  0  0  0  0
   25.8062  -20.6482   -5.7229 C   0  0  0  0  0  0  0  0  0  0  0  0
   27.0361  -20.2126   -5.4499 C   0  0  0  0  0  0  0  0  0  0  0  0
   27.6386  -19.7813   -4.2950 C   0  0  0  0  0  0  0  0  0  0  0  0
   28.9556  -19.3875   -4.2460 C   0  0  0  0  0  0  0  0  0  0  0  0
   29.7002  -19.4277   -5.4051 C   0  0  0  0  0  0  0  0  0  0  0  0
   29.1214  -19.8558   -6.5798 C   0  0  0  0  0  0  0  0  0  0  0  0
   27.7928  -20.2494   -6.6152 C   0  0  0  0  0  0  0  0  0  0  0  0
   24.8898  -20.3868   -9.5263 O   0  0  0  0  0  0  0  0  0  0  0  0
   23.8872  -21.0468   -8.8244 O   0  0  0  0  0  0  0  0  0  0  0  0
  2  1  1  0
  3  2  1  0
  4  3  1  0
  5  4  1  0
  5  6  1  1
  7  5  1  0
  8  7  2  0
  9 10  1  0
 10 11  2  0
 10 12  1  0
 12 13  1  0
 13 14  1  0
 14 15  1  0
 16 15  1  6
 16 18  1  0
 16 17  1  0
 17  7  1  0
 18 19  2  0
 20 21  1  0
 20 18  1  0
 21 22  1  6
 23 22  1  0
 24 23  2  0
 25 24  1  0
 26 25  1  0
 26 31  2  0
 27 26  1  0
 28 27  2  0
 28 29  1  0
 29 30  2  0
 30 31  1  0
 31 23  1  0
 32 33  1  0
 32 21  1  0
 34 32  2  0
M  END
$$$$
