MRW.pdb
     RDKit          3D

 34 35  0  0  1  0  0  0  0  0999 V2000
   20.9377  -27.2886  -24.4434 C   0  0  0  0  0  0  0  0  0  0  0  0
   22.6997  -26.9506  -24.6797 S   0  0  0  0  0  0  0  0  0  0  0  0
   23.5854  -27.1165  -23.1207 C   0  0  0  0  0  0  0  0  0  0  0  0
   23.0443  -28.2563  -22.3166 C   0  0  0  0  0  0  0  0  0  0  0  0
   24.1566  -29.2696  -22.0195 C   0  0  2  0  0  0  0  0  0  0  0  0
   23.9065  -30.4384  -22.7873 N   0  0  0  0  0  0  0  0  0  0  0  0
   24.1482  -29.5327  -20.5468 C   0  0  0  0  0  0  0  0  0  0  0  0
   23.3147  -30.3970  -20.1004 O   0  0  0  0  0  0  0  0  0  0  0  0
   28.4556  -32.4715  -14.9405 N   0  0  0  0  0  0  0  0  0  0  0  0
   28.5899  -32.4998  -16.3484 C   0  0  0  0  0  0  0  0  0  0  0  0
   28.6508  -33.6391  -16.9429 N   0  0  0  0  0  0  0  0  0  0  0  0
   28.6533  -31.2903  -17.0707 N   0  0  0  0  0  0  0  0  0  0  0  0
   28.3317  -30.0535  -16.3408 C   0  0  0  0  0  0  0  0  0  0  0  0
   26.9082  -29.6974  -16.5061 C   0  0  0  0  0  0  0  0  0  0  0  0
   26.3857  -29.6054  -17.8664 C   0  0  0  0  0  0  0  0  0  0  0  0
   25.0021  -29.2648  -18.1854 C   0  0  2  0  0  0  0  0  0  0  0  0
   25.0049  -28.8775  -19.6614 N   0  0  0  0  0  0  0  0  0  0  0  0
   24.2390  -28.2512  -17.5285 C   0  0  0  0  0  0  0  0  0  0  0  0
   24.4457  -27.0174  -17.7781 O   0  0  0  0  0  0  0  0  0  0  0  0
   28.7465  -33.7096  -17.9794 N   0  0  0  0  0  0  0  0  0  0  0  0
   23.2229  -28.5222  -16.5782 C   0  0  2  0  0  0  0  0  0  0  0  0
   22.5342  -27.4667  -15.8149 C   0  0  0  0  0  0  0  0  0  0  0  0
   21.3677  -28.0735  -15.1289 C   0  0  0  0  0  0  0  0  0  0  0  0
   20.6456  -27.1803  -14.2355 C   0  0  0  0  0  0  0  0  0  0  0  0
   19.9354  -26.0335  -14.6256 N   0  0  0  0  0  0  0  0  0  0  0  0
   19.4303  -25.4586  -13.5389 C   0  0  0  0  0  0  0  0  0  0  0  0
   19.7745  -26.1715  -12.4664 C   0  0  0  0  0  0  0  0  0  0  0  0
   19.5084  -26.0312  -11.1276 C   0  0  0  0  0  0  0  0  0  0  0  0
   19.9642  -26.9200  -10.1820 C   0  0  0  0  0  0  0  0  0  0  0  0
   20.7194  -27.9957  -10.5970 C   0  0  0  0  0  0  0  0  0  0  0  0
   21.0029  -28.1617  -11.9350 C   0  0  0  0  0  0  0  0  0  0  0  0
   20.5378  -27.2580  -12.8774 C   0  0  0  0  0  0  0  0  0  0  0  0
   23.4684  -26.6767  -15.0314 O   0  0  0  0  0  0  0  0  0  0  0  0
   24.5391  -27.2419  -14.3476 O   0  0  0  0  0  0  0  0  0  0  0  0
  2  1  1  0
  3  2  1  0
  4  3  1  0
  5  4  1  0
  5  6  1  6
  7  5  1  0
  8  7  2  0
  9 10  1  0
 10 11  2  0
 10 12  1  0
 12 13  1  0
 13 14  1  0
 14 15  1  0
 16 15  1  1
 16 18  1  0
 16 17  1  0
 17  7  1  0
 18 19  2  0
 20 21  1  0
 20 18  1  0
 21 22  1  6
 23 22  1  0
 24 23  2  0
 25 24  1  0
 26 25  1  0
 26 31  2  0
 27 26  1  0
 28 27  2  0
 28 29  1  0
 29 30  2  0
 30 31  1  0
 31 23  1  0
 32 33  1  0
 32 21  1  0
 34 32  2  0
M  END
$$$$
