MRW.pdb
     RDKit          3D

 34 35  0  0  1  0  0  0  0  0999 V2000
   20.2149  -26.1804  -16.4174 C   0  0  0  0  0  0  0  0  0  0  0  0
   19.8826  -24.7673  -15.3368 S   0  0  0  0  0  0  0  0  0  0  0  0
   21.3787  -24.2817  -14.4602 C   0  0  0  0  0  0  0  0  0  0  0  0
   22.3895  -25.3847  -14.4754 C   0  0  0  0  0  0  0  0  0  0  0  0
   23.4506  -25.1154  -15.5496 C   0  0  2  0  0  0  0  0  0  0  0  0
   23.8904  -26.3661  -16.0600 N   0  0  0  0  0  0  0  0  0  0  0  0
   24.5535  -24.3320  -14.9106 C   0  0  0  0  0  0  0  0  0  0  0  0
   25.1559  -24.8579  -13.9099 O   0  0  0  0  0  0  0  0  0  0  0  0
   30.5339  -23.2875  -15.7664 N   0  0  0  0  0  0  0  0  0  0  0  0
   30.1618  -22.4119  -16.8134 C   0  0  0  0  0  0  0  0  0  0  0  0
   30.2856  -22.8120  -18.0298 N   0  0  0  0  0  0  0  0  0  0  0  0
   29.6654  -21.1276  -16.5096 N   0  0  0  0  0  0  0  0  0  0  0  0
   29.0215  -20.9482  -15.1984 C   0  0  0  0  0  0  0  0  0  0  0  0
   27.6519  -20.4176  -15.3506 C   0  0  0  0  0  0  0  0  0  0  0  0
   26.5825  -21.3712  -15.6311 C   0  0  0  0  0  0  0  0  0  0  0  0
   26.0683  -22.3277  -14.6550 C   0  0  2  0  0  0  0  0  0  0  0  0
   24.9385  -23.0695  -15.3634 N   0  0  0  0  0  0  0  0  0  0  0  0
   25.5484  -21.9824  -13.3699 C   0  0  0  0  0  0  0  0  0  0  0  0
   24.3560  -21.5459  -13.2467 O   0  0  0  0  0  0  0  0  0  0  0  0
   29.9859  -22.2175  -18.8331 N   0  0  0  0  0  0  0  0  0  0  0  0
   26.2878  -22.0930  -12.1656 C   0  0  2  0  0  0  0  0  0  0  0  0
   25.8545  -21.4808  -10.8974 C   0  0  0  0  0  0  0  0  0  0  0  0
   26.8978  -21.7384   -9.8752 C   0  0  0  0  0  0  0  0  0  0  0  0
   26.7482  -20.9851   -8.6393 C   0  0  0  0  0  0  0  0  0  0  0  0
   25.5405  -20.4790   -8.1322 N   0  0  0  0  0  0  0  0  0  0  0  0
   25.7961  -19.8271   -7.0024 C   0  0  0  0  0  0  0  0  0  0  0  0
   27.1039  -19.8843   -6.7505 C   0  0  0  0  0  0  0  0  0  0  0  0
   27.8794  -19.3995   -5.7275 C   0  0  0  0  0  0  0  0  0  0  0  0
   29.2386  -19.6005   -5.6656 C   0  0  0  0  0  0  0  0  0  0  0  0
   29.8463  -20.3183   -6.6731 C   0  0  0  0  0  0  0  0  0  0  0  0
   29.0928  -20.8168   -7.7133 C   0  0  0  0  0  0  0  0  0  0  0  0
   27.7237  -20.6063   -7.7636 C   0  0  0  0  0  0  0  0  0  0  0  0
   25.3927  -20.1170  -11.0916 O   0  0  0  0  0  0  0  0  0  0  0  0
   24.1798  -19.6575  -10.5906 O   0  0  0  0  0  0  0  0  0  0  0  0
  2  1  1  0
  3  2  1  0
  4  3  1  0
  5  4  1  0
  5  6  1  1
  7  5  1  0
  8  7  2  0
  9 10  1  0
 10 11  2  0
 10 12  1  0
 12 13  1  0
 13 14  1  0
 14 15  1  0
 16 15  1  6
 16 18  1  0
 16 17  1  0
 17  7  1  0
 18 19  2  0
 20 21  1  0
 20 18  1  0
 21 22  1  1
 23 22  1  0
 24 23  2  0
 25 24  1  0
 26 25  1  0
 26 31  2  0
 27 26  1  0
 28 27  2  0
 28 29  1  0
 29 30  2  0
 30 31  1  0
 31 23  1  0
 32 33  1  0
 32 21  1  0
 34 32  2  0
M  END
$$$$
