MRW.pdb
     RDKit          3D

 34 35  0  0  1  0  0  0  0  0999 V2000
   18.0594  -21.0896  -12.0124 C   0  0  0  0  0  0  0  0  0  0  0  0
   17.7193  -22.3301  -13.2853 S   0  0  0  0  0  0  0  0  0  0  0  0
   18.9295  -22.2148  -14.6136 C   0  0  0  0  0  0  0  0  0  0  0  0
   20.3018  -22.5449  -14.1172 C   0  0  0  0  0  0  0  0  0  0  0  0
   21.2121  -21.3148  -14.2205 C   0  0  2  0  0  0  0  0  0  0  0  0
   21.1467  -20.8271  -15.5532 N   0  0  0  0  0  0  0  0  0  0  0  0
   22.5921  -21.7382  -13.8272 C   0  0  0  0  0  0  0  0  0  0  0  0
   22.7483  -22.2573  -12.6665 O   0  0  0  0  0  0  0  0  0  0  0  0
   30.0241  -22.1578  -14.5622 N   0  0  0  0  0  0  0  0  0  0  0  0
   29.9512  -23.1725  -15.5452 C   0  0  0  0  0  0  0  0  0  0  0  0
   30.7054  -24.2078  -15.4248 N   0  0  0  0  0  0  0  0  0  0  0  0
   29.0610  -23.0345  -16.6300 N   0  0  0  0  0  0  0  0  0  0  0  0
   28.1223  -21.9018  -16.5899 C   0  0  0  0  0  0  0  0  0  0  0  0
   27.3939  -21.8645  -15.3059 C   0  0  0  0  0  0  0  0  0  0  0  0
   25.9392  -21.9832  -15.3478 C   0  0  0  0  0  0  0  0  0  0  0  0
   25.0858  -21.9519  -14.1634 C   0  0  2  0  0  0  0  0  0  0  0  0
   23.6934  -21.5877  -14.6707 N   0  0  0  0  0  0  0  0  0  0  0  0
   25.3036  -21.1201  -13.0224 C   0  0  0  0  0  0  0  0  0  0  0  0
   24.9819  -19.8859  -13.0466 O   0  0  0  0  0  0  0  0  0  0  0  0
   30.6408  -25.0104  -16.0883 N   0  0  0  0  0  0  0  0  0  0  0  0
   25.8746  -21.5809  -11.8096 C   0  0  2  0  0  0  0  0  0  0  0  0
   26.5081  -20.6834  -10.8277 C   0  0  0  0  0  0  0  0  0  0  0  0
   26.8624  -21.4807   -9.6284 C   0  0  0  0  0  0  0  0  0  0  0  0
   27.0497  -20.7088   -8.4092 C   0  0  0  0  0  0  0  0  0  0  0  0
   26.1998  -19.6904   -7.9485 N   0  0  0  0  0  0  0  0  0  0  0  0
   26.7024  -19.1977   -6.8209 C   0  0  0  0  0  0  0  0  0  0  0  0
   27.8313  -19.8426   -6.5264 C   0  0  0  0  0  0  0  0  0  0  0  0
   28.7206  -19.7402   -5.4864 C   0  0  0  0  0  0  0  0  0  0  0  0
   29.8331  -20.5416   -5.3781 C   0  0  0  0  0  0  0  0  0  0  0  0
   30.0638  -21.4863   -6.3549 C   0  0  0  0  0  0  0  0  0  0  0  0
   29.1881  -21.6113   -7.4112 C   0  0  0  0  0  0  0  0  0  0  0  0
   28.0709  -20.7966   -7.5084 C   0  0  0  0  0  0  0  0  0  0  0  0
   27.5334  -19.8570  -11.4414 O   0  0  0  0  0  0  0  0  0  0  0  0
   27.4597  -18.4688  -11.4703 O   0  0  0  0  0  0  0  0  0  0  0  0
  2  1  1  0
  3  2  1  0
  4  3  1  0
  5  4  1  0
  5  6  1  6
  7  5  1  0
  8  7  2  0
  9 10  1  0
 10 11  2  0
 10 12  1  0
 12 13  1  0
 13 14  1  0
 14 15  1  0
 16 15  1  6
 16 18  1  0
 16 17  1  0
 17  7  1  0
 18 19  2  0
 20 21  1  0
 20 18  1  0
 21 22  1  1
 23 22  1  0
 24 23  2  0
 25 24  1  0
 26 25  1  0
 26 31  2  0
 27 26  1  0
 28 27  2  0
 28 29  1  0
 29 30  2  0
 30 31  1  0
 31 23  1  0
 32 33  1  0
 32 21  1  0
 34 32  2  0
M  END
$$$$
