MRW.pdb
     RDKit          3D

 34 35  0  0  1  0  0  0  0  0999 V2000
   19.7402  -23.2620  -16.0646 C   0  0  0  0  0  0  0  0  0  0  0  0
   19.7760  -22.0282  -17.3879 S   0  0  0  0  0  0  0  0  0  0  0  0
   21.2259  -20.9731  -17.2235 C   0  0  0  0  0  0  0  0  0  0  0  0
   22.3101  -21.6685  -16.4623 C   0  0  0  0  0  0  0  0  0  0  0  0
   22.8254  -20.7676  -15.3330 C   0  0  2  0  0  0  0  0  0  0  0  0
   23.1313  -19.4957  -15.8869 N   0  0  0  0  0  0  0  0  0  0  0  0
   24.0191  -21.4370  -14.7286 C   0  0  0  0  0  0  0  0  0  0  0  0
   23.8686  -22.6234  -14.2696 O   0  0  0  0  0  0  0  0  0  0  0  0
   30.6744  -25.2303  -16.7648 N   0  0  0  0  0  0  0  0  0  0  0  0
   30.6181  -24.0458  -15.9935 C   0  0  0  0  0  0  0  0  0  0  0  0
   31.2322  -24.0118  -14.8635 N   0  0  0  0  0  0  0  0  0  0  0  0
   29.8976  -22.9319  -16.4716 N   0  0  0  0  0  0  0  0  0  0  0  0
   29.9280  -21.7094  -15.6528 C   0  0  0  0  0  0  0  0  0  0  0  0
   28.9221  -21.7712  -14.5735 C   0  0  0  0  0  0  0  0  0  0  0  0
   27.5321  -21.4958  -14.9255 C   0  0  0  0  0  0  0  0  0  0  0  0
   26.4263  -21.5455  -13.9731 C   0  0  2  0  0  0  0  0  0  0  0  0
   25.2680  -20.8195  -14.6512 N   0  0  0  0  0  0  0  0  0  0  0  0
   26.4717  -21.0279  -12.6423 C   0  0  0  0  0  0  0  0  0  0  0  0
   26.3229  -19.7797  -12.4247 O   0  0  0  0  0  0  0  0  0  0  0  0
   31.0996  -23.2229  -14.1938 N   0  0  0  0  0  0  0  0  0  0  0  0
   26.6777  -21.8301  -11.4920 C   0  0  1  0  0  0  0  0  0  0  0  0
   26.2809  -21.4090  -10.1369 C   0  0  0  0  0  0  0  0  0  0  0  0
   27.4957  -20.9607   -9.4139 C   0  0  0  0  0  0  0  0  0  0  0  0
   27.2555  -20.4104   -8.0884 C   0  0  0  0  0  0  0  0  0  0  0  0
   25.9948  -20.1355   -7.5343 N   0  0  0  0  0  0  0  0  0  0  0  0
   26.1691  -19.6190   -6.3221 C   0  0  0  0  0  0  0  0  0  0  0  0
   27.4743  -19.5453   -6.0612 C   0  0  0  0  0  0  0  0  0  0  0  0
   28.1850  -19.1127   -4.9700 C   0  0  0  0  0  0  0  0  0  0  0  0
   29.5589  -19.1475   -4.9164 C   0  0  0  0  0  0  0  0  0  0  0  0
   30.2498  -19.6369   -6.0040 C   0  0  0  0  0  0  0  0  0  0  0  0
   29.5625  -20.0777   -7.1138 C   0  0  0  0  0  0  0  0  0  0  0  0
   28.1777  -20.0365   -7.1548 C   0  0  0  0  0  0  0  0  0  0  0  0
   25.1249  -20.5294  -10.1668 O   0  0  0  0  0  0  0  0  0  0  0  0
   23.9117  -20.8652   -9.5763 O   0  0  0  0  0  0  0  0  0  0  0  0
  2  1  1  0
  3  2  1  0
  4  3  1  0
  5  4  1  0
  5  6  1  6
  7  5  1  0
  8  7  2  0
  9 10  1  0
 10 11  2  0
 10 12  1  0
 12 13  1  0
 13 14  1  0
 14 15  1  0
 16 15  1  6
 16 18  1  0
 16 17  1  0
 17  7  1  0
 18 19  2  0
 20 21  1  0
 20 18  1  0
 21 22  1  1
 23 22  1  0
 24 23  2  0
 25 24  1  0
 26 25  1  0
 26 31  2  0
 27 26  1  0
 28 27  2  0
 28 29  1  0
 29 30  2  0
 30 31  1  0
 31 23  1  0
 32 33  1  0
 32 21  1  0
 34 32  2  0
M  END
$$$$
