MRW.pdb
     RDKit          3D

 34 35  0  0  1  0  0  0  0  0999 V2000
   31.0919  -17.5278  -17.5709 C   0  0  0  0  0  0  0  0  0  0  0  0
   30.4330  -15.9270  -18.0979 S   0  0  0  0  0  0  0  0  0  0  0  0
   28.7578  -16.1151  -18.7309 C   0  0  0  0  0  0  0  0  0  0  0  0
   27.8497  -16.6767  -17.6828 C   0  0  0  0  0  0  0  0  0  0  0  0
   28.2236  -18.1339  -17.3841 C   0  0  2  0  0  0  0  0  0  0  0  0
   28.2865  -18.8358  -18.6176 N   0  0  0  0  0  0  0  0  0  0  0  0
   27.1875  -18.6864  -16.4569 C   0  0  0  0  0  0  0  0  0  0  0  0
   26.9510  -18.0420  -15.3754 O   0  0  0  0  0  0  0  0  0  0  0  0
   23.4405  -25.7409  -14.5806 N   0  0  0  0  0  0  0  0  0  0  0  0
   24.5643  -25.4765  -15.3982 C   0  0  0  0  0  0  0  0  0  0  0  0
   25.0511  -26.4307  -16.1107 N   0  0  0  0  0  0  0  0  0  0  0  0
   25.1266  -24.1836  -15.4195 N   0  0  0  0  0  0  0  0  0  0  0  0
   24.3183  -23.0893  -14.8582 C   0  0  0  0  0  0  0  0  0  0  0  0
   23.7194  -22.2707  -15.9314 C   0  0  0  0  0  0  0  0  0  0  0  0
   24.5391  -21.2127  -16.5150 C   0  0  0  0  0  0  0  0  0  0  0  0
   25.4322  -20.3548  -15.7412 C   0  0  2  0  0  0  0  0  0  0  0  0
   26.4843  -19.8604  -16.7297 N   0  0  0  0  0  0  0  0  0  0  0  0
   26.1624  -20.7688  -14.5852 C   0  0  0  0  0  0  0  0  0  0  0  0
   27.1776  -21.5333  -14.6966 O   0  0  0  0  0  0  0  0  0  0  0  0
   25.9379  -26.3134  -16.6476 N   0  0  0  0  0  0  0  0  0  0  0  0
   25.8323  -20.3775  -13.2634 C   0  0  1  0  0  0  0  0  0  0  0  0
   26.5047  -20.9242  -12.0718 C   0  0  0  0  0  0  0  0  0  0  0  0
   27.6194  -20.0159  -11.7079 C   0  0  0  0  0  0  0  0  0  0  0  0
   28.4137  -20.4428  -10.5659 C   0  0  0  0  0  0  0  0  0  0  0  0
   29.4998  -21.3316  -10.6128 N   0  0  0  0  0  0  0  0  0  0  0  0
   29.9593  -21.5036   -9.3775 C   0  0  0  0  0  0  0  0  0  0  0  0
   29.2298  -20.7737   -8.5336 C   0  0  0  0  0  0  0  0  0  0  0  0
   29.2877  -20.5806   -7.1763 C   0  0  0  0  0  0  0  0  0  0  0  0
   28.4220  -19.7477   -6.5065 C   0  0  0  0  0  0  0  0  0  0  0  0
   27.4566  -19.0801   -7.2289 C   0  0  0  0  0  0  0  0  0  0  0  0
   27.3744  -19.2552   -8.5930 C   0  0  0  0  0  0  0  0  0  0  0  0
   28.2530  -20.0980   -9.2555 C   0  0  0  0  0  0  0  0  0  0  0  0
   25.5497  -21.3000  -11.0434 O   0  0  0  0  0  0  0  0  0  0  0  0
   25.6673  -22.4708  -10.3027 O   0  0  0  0  0  0  0  0  0  0  0  0
  2  1  1  0
  3  2  1  0
  4  3  1  0
  5  4  1  0
  5  6  1  6
  7  5  1  0
  8  7  2  0
  9 10  1  0
 10 11  2  0
 10 12  1  0
 12 13  1  0
 13 14  1  0
 14 15  1  0
 16 15  1  6
 16 18  1  0
 16 17  1  0
 17  7  1  0
 18 19  2  0
 20 21  1  0
 20 18  1  0
 21 22  1  1
 23 22  1  0
 24 23  2  0
 25 24  1  0
 26 25  1  0
 26 31  2  0
 27 26  1  0
 28 27  2  0
 28 29  1  0
 29 30  2  0
 30 31  1  0
 31 23  1  0
 32 33  1  0
 32 21  1  0
 34 32  2  0
M  END
$$$$
