MRW.pdb
     RDKit          3D

 34 35  0  0  1  0  0  0  0  0999 V2000
   24.5456  -21.4661  -11.5086 C   0  0  0  0  0  0  0  0  0  0  0  0
   25.4397  -20.1924  -12.4321 S   0  0  0  0  0  0  0  0  0  0  0  0
   24.6521  -19.9026  -14.0252 C   0  0  0  0  0  0  0  0  0  0  0  0
   25.3415  -20.6682  -15.1100 C   0  0  0  0  0  0  0  0  0  0  0  0
   26.4791  -19.8311  -15.7078 C   0  0  2  0  0  0  0  0  0  0  0  0
   25.9080  -18.6866  -16.3260 N   0  0  0  0  0  0  0  0  0  0  0  0
   27.2215  -20.6996  -16.6736 C   0  0  0  0  0  0  0  0  0  0  0  0
   26.7636  -20.7915  -17.8665 O   0  0  0  0  0  0  0  0  0  0  0  0
   33.1722  -25.6995  -14.8053 N   0  0  0  0  0  0  0  0  0  0  0  0
   33.3427  -25.7920  -16.2065 C   0  0  0  0  0  0  0  0  0  0  0  0
   33.5578  -26.9474  -16.7301 N   0  0  0  0  0  0  0  0  0  0  0  0
   33.2739  -24.6279  -16.9992 N   0  0  0  0  0  0  0  0  0  0  0  0
   32.3601  -23.5638  -16.5535 C   0  0  0  0  0  0  0  0  0  0  0  0
   31.3715  -23.2427  -17.6024 C   0  0  0  0  0  0  0  0  0  0  0  0
   30.3828  -22.2092  -17.3089 C   0  0  0  0  0  0  0  0  0  0  0  0
   28.9425  -22.4472  -17.2748 C   0  0  2  0  0  0  0  0  0  0  0  0
   28.3761  -21.3993  -16.3209 N   0  0  0  0  0  0  0  0  0  0  0  0
   28.3277  -23.6792  -16.8935 C   0  0  0  0  0  0  0  0  0  0  0  0
   28.6467  -24.2540  -15.8003 O   0  0  0  0  0  0  0  0  0  0  0  0
   33.8098  -27.0519  -17.7371 N   0  0  0  0  0  0  0  0  0  0  0  0
   27.3452  -24.3425  -17.6706 C   0  0  2  0  0  0  0  0  0  0  0  0
   26.6905  -25.5912  -17.2429 C   0  0  0  0  0  0  0  0  0  0  0  0
   25.5758  -25.2434  -16.3285 C   0  0  0  0  0  0  0  0  0  0  0  0
   24.5249  -26.2450  -16.2300 C   0  0  0  0  0  0  0  0  0  0  0  0
   24.2974  -27.0846  -15.1277 N   0  0  0  0  0  0  0  0  0  0  0  0
   23.2724  -27.8829  -15.4084 C   0  0  0  0  0  0  0  0  0  0  0  0
   22.8236  -27.6051  -16.6325 C   0  0  0  0  0  0  0  0  0  0  0  0
   21.7968  -28.1130  -17.3877 C   0  0  0  0  0  0  0  0  0  0  0  0
   21.5006  -27.6484  -18.6480 C   0  0  0  0  0  0  0  0  0  0  0  0
   22.2675  -26.6309  -19.1735 C   0  0  0  0  0  0  0  0  0  0  0  0
   23.3055  -26.1019  -18.4381 C   0  0  0  0  0  0  0  0  0  0  0  0
   23.5935  -26.5798  -17.1693 C   0  0  0  0  0  0  0  0  0  0  0  0
   26.4183  -26.4662  -18.3703 O   0  0  0  0  0  0  0  0  0  0  0  0
   26.4921  -26.0340  -19.6899 O   0  0  0  0  0  0  0  0  0  0  0  0
  2  1  1  0
  3  2  1  0
  4  3  1  0
  5  4  1  0
  5  6  1  6
  7  5  1  0
  8  7  2  0
  9 10  1  0
 10 11  2  0
 10 12  1  0
 12 13  1  0
 13 14  1  0
 14 15  1  0
 16 15  1  1
 16 18  1  0
 16 17  1  0
 17  7  1  0
 18 19  2  0
 20 21  1  0
 20 18  1  0
 21 22  1  6
 23 22  1  0
 24 23  2  0
 25 24  1  0
 26 25  1  0
 26 31  2  0
 27 26  1  0
 28 27  2  0
 28 29  1  0
 29 30  2  0
 30 31  1  0
 31 23  1  0
 32 33  1  0
 32 21  1  0
 34 32  2  0
M  END
$$$$
