MRW.pdb
     RDKit          3D

 34 35  0  0  1  0  0  0  0  0999 V2000
   25.2716  -15.2140  -14.5887 C   0  0  0  0  0  0  0  0  0  0  0  0
   25.6815  -14.4676  -16.1854 S   0  0  0  0  0  0  0  0  0  0  0  0
   25.6860  -15.7186  -17.4805 C   0  0  0  0  0  0  0  0  0  0  0  0
   25.8530  -17.0879  -16.9012 C   0  0  0  0  0  0  0  0  0  0  0  0
   25.8274  -18.1409  -18.0159 C   0  0  2  0  0  0  0  0  0  0  0  0
   24.5281  -18.1451  -18.5904 N   0  0  0  0  0  0  0  0  0  0  0  0
   26.1933  -19.4566  -17.4048 C   0  0  0  0  0  0  0  0  0  0  0  0
   25.2533  -20.1543  -16.8847 O   0  0  0  0  0  0  0  0  0  0  0  0
   28.2305  -25.1017  -18.9334 N   0  0  0  0  0  0  0  0  0  0  0  0
   28.1991  -25.5436  -17.5899 C   0  0  0  0  0  0  0  0  0  0  0  0
   27.3537  -26.4541  -17.2561 N   0  0  0  0  0  0  0  0  0  0  0  0
   29.0869  -24.9848  -16.6477 N   0  0  0  0  0  0  0  0  0  0  0  0
   30.0608  -23.9990  -17.1433 C   0  0  0  0  0  0  0  0  0  0  0  0
   29.9064  -22.7069  -16.4454 C   0  0  0  0  0  0  0  0  0  0  0  0
   29.0979  -21.6783  -17.0936 C   0  0  0  0  0  0  0  0  0  0  0  0
   27.8390  -21.1725  -16.5536 C   0  0  2  0  0  0  0  0  0  0  0  0
   27.5030  -19.9375  -17.3846 N   0  0  0  0  0  0  0  0  0  0  0  0
   27.6318  -20.7834  -15.1946 C   0  0  0  0  0  0  0  0  0  0  0  0
   27.9272  -19.6057  -14.8032 O   0  0  0  0  0  0  0  0  0  0  0  0
   27.2935  -26.8107  -16.2776 N   0  0  0  0  0  0  0  0  0  0  0  0
   27.0980  -21.6431  -14.2021 C   0  0  2  0  0  0  0  0  0  0  0  0
   26.9064  -21.2309  -12.8005 C   0  0  0  0  0  0  0  0  0  0  0  0
   26.1222  -19.9721  -12.7880 C   0  0  0  0  0  0  0  0  0  0  0  0
   25.0160  -19.9452  -11.8431 C   0  0  0  0  0  0  0  0  0  0  0  0
   25.1217  -20.1364  -10.4560 N   0  0  0  0  0  0  0  0  0  0  0  0
   23.9048  -20.0684   -9.9256 C   0  0  0  0  0  0  0  0  0  0  0  0
   23.0172  -19.8430  -10.8943 C   0  0  0  0  0  0  0  0  0  0  0  0
   21.6553  -19.6754  -10.8916 C   0  0  0  0  0  0  0  0  0  0  0  0
   20.9344  -19.4296  -12.0370 C   0  0  0  0  0  0  0  0  0  0  0  0
   21.6084  -19.3487  -13.2365 C   0  0  0  0  0  0  0  0  0  0  0  0
   22.9759  -19.5135  -13.2695 C   0  0  0  0  0  0  0  0  0  0  0  0
   23.6900  -19.7613  -12.1077 C   0  0  0  0  0  0  0  0  0  0  0  0
   26.4578  -22.3381  -11.9736 O   0  0  0  0  0  0  0  0  0  0  0  0
   26.7811  -22.4462  -10.6256 O   0  0  0  0  0  0  0  0  0  0  0  0
  2  1  1  0
  3  2  1  0
  4  3  1  0
  5  4  1  0
  5  6  1  1
  7  5  1  0
  8  7  2  0
  9 10  1  0
 10 11  2  0
 10 12  1  0
 12 13  1  0
 13 14  1  0
 14 15  1  0
 16 15  1  1
 16 18  1  0
 16 17  1  0
 17  7  1  0
 18 19  2  0
 20 21  1  0
 20 18  1  0
 21 22  1  6
 23 22  1  0
 24 23  2  0
 25 24  1  0
 26 25  1  0
 26 31  2  0
 27 26  1  0
 28 27  2  0
 28 29  1  0
 29 30  2  0
 30 31  1  0
 31 23  1  0
 32 33  1  0
 32 21  1  0
 34 32  2  0
M  END
$$$$
