MRW.pdb
     RDKit          3D

 34 35  0  0  1  0  0  0  0  0999 V2000
   31.2108  -23.3894  -11.6926 C   0  0  0  0  0  0  0  0  0  0  0  0
   32.0429  -22.5099  -13.0374 S   0  0  0  0  0  0  0  0  0  0  0  0
   30.8590  -21.5255  -13.9710 C   0  0  0  0  0  0  0  0  0  0  0  0
   29.7483  -21.0471  -13.0901 C   0  0  0  0  0  0  0  0  0  0  0  0
   28.6634  -20.3626  -13.9307 C   0  0  2  0  0  0  0  0  0  0  0  0
   29.2443  -19.2331  -14.5671 N   0  0  0  0  0  0  0  0  0  0  0  0
   27.5424  -19.9946  -13.0108 C   0  0  0  0  0  0  0  0  0  0  0  0
   27.7021  -18.9724  -12.2556 O   0  0  0  0  0  0  0  0  0  0  0  0
   19.9436  -20.1108  -13.9046 N   0  0  0  0  0  0  0  0  0  0  0  0
   20.8865  -21.0241  -14.4318 C   0  0  0  0  0  0  0  0  0  0  0  0
   20.9082  -21.2293  -15.7017 N   0  0  0  0  0  0  0  0  0  0  0  0
   21.7793  -21.6877  -13.5653 N   0  0  0  0  0  0  0  0  0  0  0  0
   21.6188  -21.4484  -12.1221 C   0  0  0  0  0  0  0  0  0  0  0  0
   22.8255  -20.8143  -11.5543 C   0  0  0  0  0  0  0  0  0  0  0  0
   24.0762  -20.9518  -12.2951 C   0  0  0  0  0  0  0  0  0  0  0  0
   25.3627  -20.4505  -11.8200 C   0  0  2  0  0  0  0  0  0  0  0  0
   26.3504  -20.7177  -12.9520 N   0  0  0  0  0  0  0  0  0  0  0  0
   26.0208  -20.8899  -10.6304 C   0  0  0  0  0  0  0  0  0  0  0  0
   26.8832  -21.8290  -10.6735 O   0  0  0  0  0  0  0  0  0  0  0  0
   21.5290  -21.9517  -16.1274 N   0  0  0  0  0  0  0  0  0  0  0  0
   25.7798  -20.3377   -9.3474 C   0  0  2  0  0  0  0  0  0  0  0  0
   26.4542  -20.8151   -8.1274 C   0  0  0  0  0  0  0  0  0  0  0  0
   27.5980  -19.9143   -7.8445 C   0  0  0  0  0  0  0  0  0  0  0  0
   28.3014  -20.1847   -6.5998 C   0  0  0  0  0  0  0  0  0  0  0  0
   29.1982  -21.2430   -6.3816 N   0  0  0  0  0  0  0  0  0  0  0  0
   29.6219  -21.1858   -5.1231 C   0  0  0  0  0  0  0  0  0  0  0  0
   29.0484  -20.1474   -4.5149 C   0  0  0  0  0  0  0  0  0  0  0  0
   29.1478  -19.6384   -3.2445 C   0  0  0  0  0  0  0  0  0  0  0  0
   28.4593  -18.5199   -2.8360 C   0  0  0  0  0  0  0  0  0  0  0  0
   27.6356  -17.8848   -3.7403 C   0  0  0  0  0  0  0  0  0  0  0  0
   27.5157  -18.3740   -5.0228 C   0  0  0  0  0  0  0  0  0  0  0  0
   28.2149  -19.5025   -5.4211 C   0  0  0  0  0  0  0  0  0  0  0  0
   25.5042  -21.0885   -7.0628 O   0  0  0  0  0  0  0  0  0  0  0  0
   25.8027  -21.9153   -5.9854 O   0  0  0  0  0  0  0  0  0  0  0  0
  2  1  1  0
  3  2  1  0
  4  3  1  0
  5  4  1  0
  5  6  1  1
  7  5  1  0
  8  7  2  0
  9 10  1  0
 10 11  2  0
 10 12  1  0
 12 13  1  0
 13 14  1  0
 14 15  1  0
 16 15  1  6
 16 18  1  0
 16 17  1  0
 17  7  1  0
 18 19  2  0
 20 21  1  0
 20 18  1  0
 21 22  1  1
 23 22  1  0
 24 23  2  0
 25 24  1  0
 26 25  1  0
 26 31  2  0
 27 26  1  0
 28 27  2  0
 28 29  1  0
 29 30  2  0
 30 31  1  0
 31 23  1  0
 32 33  1  0
 32 21  1  0
 34 32  2  0
M  END
$$$$
