MRW.pdb
     RDKit          3D

 34 35  0  0  1  0  0  0  0  0999 V2000
   28.5310  -19.1489   -6.8837 C   0  0  0  0  0  0  0  0  0  0  0  0
   27.3249  -20.2994   -6.1790 S   0  0  0  0  0  0  0  0  0  0  0  0
   25.8002  -20.2751   -7.1367 C   0  0  0  0  0  0  0  0  0  0  0  0
   26.0817  -20.0232   -8.5844 C   0  0  0  0  0  0  0  0  0  0  0  0
   25.8314  -21.2968   -9.4016 C   0  0  2  0  0  0  0  0  0  0  0  0
   26.6969  -22.3122   -8.9139 N   0  0  0  0  0  0  0  0  0  0  0  0
   26.0791  -20.9680  -10.8400 C   0  0  0  0  0  0  0  0  0  0  0  0
   27.2819  -20.7036  -11.1925 O   0  0  0  0  0  0  0  0  0  0  0  0
   27.5447  -23.5844  -17.9133 N   0  0  0  0  0  0  0  0  0  0  0  0
   27.7487  -24.1669  -16.6404 C   0  0  0  0  0  0  0  0  0  0  0  0
   28.8718  -24.7449  -16.3957 N   0  0  0  0  0  0  0  0  0  0  0  0
   26.7281  -24.1045  -15.6695 N   0  0  0  0  0  0  0  0  0  0  0  0
   25.5300  -23.3174  -16.0028 C   0  0  0  0  0  0  0  0  0  0  0  0
   25.5996  -21.9697  -15.4035 C   0  0  0  0  0  0  0  0  0  0  0  0
   25.3514  -21.8515  -13.9695 C   0  0  0  0  0  0  0  0  0  0  0  0
   25.3875  -20.5878  -13.2388 C   0  0  2  0  0  0  0  0  0  0  0  0
   25.0586  -20.9414  -11.7913 N   0  0  0  0  0  0  0  0  0  0  0  0
   24.5840  -19.4462  -13.5426 C   0  0  0  0  0  0  0  0  0  0  0  0
   23.3548  -19.4074  -13.2034 O   0  0  0  0  0  0  0  0  0  0  0  0
   29.0419  -25.2497  -15.4987 N   0  0  0  0  0  0  0  0  0  0  0  0
   25.0686  -18.3004  -14.2218 C   0  0  2  0  0  0  0  0  0  0  0  0
   24.1997  -17.1860  -14.6390 C   0  0  0  0  0  0  0  0  0  0  0  0
   25.0617  -16.0448  -15.0319 C   0  0  0  0  0  0  0  0  0  0  0  0
   25.9834  -16.3171  -16.1245 C   0  0  0  0  0  0  0  0  0  0  0  0
   25.8716  -15.8161  -17.4315 N   0  0  0  0  0  0  0  0  0  0  0  0
   26.8765  -16.2973  -18.1563 C   0  0  0  0  0  0  0  0  0  0  0  0
   27.6330  -17.0822  -17.3891 C   0  0  0  0  0  0  0  0  0  0  0  0
   28.7775  -17.7998  -17.6301 C   0  0  0  0  0  0  0  0  0  0  0  0
   29.4086  -18.5410  -16.6584 C   0  0  0  0  0  0  0  0  0  0  0  0
   28.8684  -18.5637  -15.3906 C   0  0  0  0  0  0  0  0  0  0  0  0
   27.7195  -17.8532  -15.1197 C   0  0  0  0  0  0  0  0  0  0  0  0
   27.0934  -17.1107  -16.1086 C   0  0  0  0  0  0  0  0  0  0  0  0
   23.1678  -17.6281  -15.5612 O   0  0  0  0  0  0  0  0  0  0  0  0
   21.9696  -16.9432  -15.7301 O   0  0  0  0  0  0  0  0  0  0  0  0
  2  1  1  0
  3  2  1  0
  4  3  1  0
  5  4  1  0
  5  6  1  1
  7  5  1  0
  8  7  2  0
  9 10  1  0
 10 11  2  0
 10 12  1  0
 12 13  1  0
 13 14  1  0
 14 15  1  0
 16 15  1  6
 16 18  1  0
 16 17  1  0
 17  7  1  0
 18 19  2  0
 20 21  1  0
 20 18  1  0
 21 22  1  1
 23 22  1  0
 24 23  2  0
 25 24  1  0
 26 25  1  0
 26 31  2  0
 27 26  1  0
 28 27  2  0
 28 29  1  0
 29 30  2  0
 30 31  1  0
 31 23  1  0
 32 33  1  0
 32 21  1  0
 34 32  2  0
M  END
$$$$
