PWP.pdb
     RDKit          3D

 29 32  0  0  1  0  0  0  0  0999 V2000
   10.5715  -17.6275   20.3052 N   0  0  0  0  0  0  0  0  0  0  0  0
   10.0828  -17.5985   18.9356 C   0  0  0  0  0  0  0  0  0  0  0  0
   11.0492  -16.7020   18.1846 C   0  0  0  0  0  0  0  0  0  0  0  0
   11.3263  -15.6329   19.2295 C   0  0  0  0  0  0  0  0  0  0  0  0
   11.3879  -16.4377   20.4850 C   0  0  1  0  0  0  0  0  0  0  0  0
   10.9289  -15.7379   21.6916 C   0  0  0  0  0  0  0  0  0  0  0  0
   11.5188  -14.6894   22.1053 O   0  0  0  0  0  0  0  0  0  0  0  0
    9.8102  -16.2122   22.4352 N   0  0  0  0  0  0  0  0  0  0  0  0
    9.3785  -15.5486   23.6630 C   0  0  1  0  0  0  0  0  0  0  0  0
    7.8869  -15.5049   23.6718 C   0  0  0  0  0  0  0  0  0  0  0  0
    7.2723  -15.0938   24.9469 C   0  0  0  0  0  0  0  0  0  0  0  0
    6.7486  -15.8313   25.9732 C   0  0  0  0  0  0  0  0  0  0  0  0
    6.2972  -14.9594   26.9166 N   0  0  0  0  0  0  0  0  0  0  0  0
    6.5128  -13.7105   26.5310 C   0  0  0  0  0  0  0  0  0  0  0  0
    6.2363  -12.4766   27.1306 C   0  0  0  0  0  0  0  0  0  0  0  0
    6.5949  -11.3425   26.4479 C   0  0  0  0  0  0  0  0  0  0  0  0
    7.2078  -11.3583   25.2131 C   0  0  0  0  0  0  0  0  0  0  0  0
    7.4743  -12.5857   24.6338 C   0  0  0  0  0  0  0  0  0  0  0  0
    7.1193  -13.7459   25.3076 C   0  0  0  0  0  0  0  0  0  0  0  0
    9.7814  -16.3741   24.8469 C   0  0  0  0  0  0  0  0  0  0  0  0
   10.0710  -17.5761   24.6374 O   0  0  0  0  0  0  0  0  0  0  0  0
    9.8382  -15.8274   26.1571 N   0  0  0  0  0  0  0  0  0  0  0  0
    9.1295  -14.7049   26.7159 C   0  0  0  0  0  0  0  0  0  0  0  0
   10.2090  -14.0157   27.5309 C   0  0  0  0  0  0  0  0  0  0  0  0
   11.2244  -15.0850   27.8463 C   0  0  0  0  0  0  0  0  0  0  0  0
   10.6779  -16.3369   27.2057 C   0  0  1  0  0  0  0  0  0  0  0  0
    9.8475  -17.0535   28.1914 C   0  0  0  0  0  0  0  0  0  0  0  0
   10.4034  -17.6886   29.3113 O   0  0  0  0  0  0  0  0  0  0  0  0
    8.6104  -17.1316   28.0806 O   0  0  0  0  0  0  0  0  0  0  0  0
  1  2  1  0
  1  5  1  0
  2  3  1  0
  3  4  1  0
  5  4  1  0
  5  6  1  1
  6  7  2  0
  8  6  1  0
  9  8  1  0
  9 10  1  6
 11 19  1  0
 11 10  1  0
 12 11  2  0
 13 12  1  0
 13 14  1  0
 14 15  1  0
 14 19  2  0
 15 16  2  0
 16 17  1  0
 18 17  2  0
 19 18  1  0
 20  9  1  0
 21 20  2  0
 22 20  1  0
 22 26  1  0
 23 22  1  0
 24 25  1  0
 24 23  1  0
 25 26  1  0
 26 27  1  1
 27 29  2  0
 27 28  1  0
M  END
$$$$
