PWP.pdb
     RDKit          3D

 29 32  0  0  1  0  0  0  0  0999 V2000
    9.2310  -16.3571   19.7313 N   0  0  0  0  0  0  0  0  0  0  0  0
    8.3151  -16.2575   18.6059 C   0  0  0  0  0  0  0  0  0  0  0  0
    8.7894  -15.0570   17.8087 C   0  0  0  0  0  0  0  0  0  0  0  0
    9.1970  -14.1089   18.9251 C   0  0  0  0  0  0  0  0  0  0  0  0
    9.8243  -15.0412   19.9075 C   0  0  1  0  0  0  0  0  0  0  0  0
    9.6748  -14.6493   21.3148 C   0  0  0  0  0  0  0  0  0  0  0  0
    9.9701  -13.4742   21.7026 O   0  0  0  0  0  0  0  0  0  0  0  0
    9.1957  -15.5731   22.2876 N   0  0  0  0  0  0  0  0  0  0  0  0
    8.8828  -15.1469   23.6495 C   0  0  1  0  0  0  0  0  0  0  0  0
    7.4201  -15.3382   23.8754 C   0  0  0  0  0  0  0  0  0  0  0  0
    6.9322  -14.9685   25.2163 C   0  0  0  0  0  0  0  0  0  0  0  0
    6.5193  -15.7392   26.2684 C   0  0  0  0  0  0  0  0  0  0  0  0
    6.1570  -14.8981   27.2761 N   0  0  0  0  0  0  0  0  0  0  0  0
    6.3229  -13.6369   26.9062 C   0  0  0  0  0  0  0  0  0  0  0  0
    6.0975  -12.4228   27.5646 C   0  0  0  0  0  0  0  0  0  0  0  0
    6.3771  -11.2669   26.8817 C   0  0  0  0  0  0  0  0  0  0  0  0
    6.8642  -11.2425   25.5922 C   0  0  0  0  0  0  0  0  0  0  0  0
    7.0816  -12.4508   24.9552 C   0  0  0  0  0  0  0  0  0  0  0  0
    6.8050  -13.6326   25.6280 C   0  0  0  0  0  0  0  0  0  0  0  0
    9.5795  -16.0433   24.6275 C   0  0  0  0  0  0  0  0  0  0  0  0
    9.9720  -17.1575   24.2068 O   0  0  0  0  0  0  0  0  0  0  0  0
    9.7937  -15.6562   25.9777 N   0  0  0  0  0  0  0  0  0  0  0  0
    9.1743  -14.6036   26.7411 C   0  0  0  0  0  0  0  0  0  0  0  0
   10.3518  -14.0226   27.5031 C   0  0  0  0  0  0  0  0  0  0  0  0
   11.3750  -15.1280   27.5735 C   0  0  0  0  0  0  0  0  0  0  0  0
   10.7358  -16.2916   26.8570 C   0  0  1  0  0  0  0  0  0  0  0  0
   10.0074  -17.1151   27.8400 C   0  0  0  0  0  0  0  0  0  0  0  0
   10.6733  -17.9071   28.7864 O   0  0  0  0  0  0  0  0  0  0  0  0
    8.7640  -17.1495   27.8807 O   0  0  0  0  0  0  0  0  0  0  0  0
  1  2  1  0
  1  5  1  0
  2  3  1  0
  3  4  1  0
  5  4  1  0
  5  6  1  1
  6  7  2  0
  8  6  1  0
  9  8  1  0
  9 10  1  1
 11 19  1  0
 11 10  1  0
 12 11  2  0
 13 12  1  0
 13 14  1  0
 14 15  1  0
 14 19  2  0
 15 16  2  0
 16 17  1  0
 18 17  2  0
 19 18  1  0
 20  9  1  0
 21 20  2  0
 22 20  1  0
 22 26  1  0
 23 22  1  0
 24 25  1  0
 24 23  1  0
 25 26  1  0
 26 27  1  1
 27 29  2  0
 27 28  1  0
M  END
$$$$
