PWP.pdb
     RDKit          3D

 29 32  0  0  1  0  0  0  0  0999 V2000
    8.2177  -16.6836   21.5574 N   0  0  0  0  0  0  0  0  0  0  0  0
    7.1312  -16.2958   20.6718 C   0  0  0  0  0  0  0  0  0  0  0  0
    7.7446  -15.3135   19.6917 C   0  0  0  0  0  0  0  0  0  0  0  0
    8.6894  -14.5457   20.6023 C   0  0  0  0  0  0  0  0  0  0  0  0
    9.2161  -15.6289   21.4838 C   0  0  1  0  0  0  0  0  0  0  0  0
    9.5478  -15.2075   22.8508 C   0  0  0  0  0  0  0  0  0  0  0  0
   10.2556  -14.1720   23.0638 O   0  0  0  0  0  0  0  0  0  0  0  0
    9.0880  -15.9458   23.9790 N   0  0  0  0  0  0  0  0  0  0  0  0
    9.3377  -15.4829   25.3420 C   0  0  1  0  0  0  0  0  0  0  0  0
    8.1236  -15.7661   26.1623 C   0  0  0  0  0  0  0  0  0  0  0  0
    6.9217  -14.9920   25.8036 C   0  0  0  0  0  0  0  0  0  0  0  0
    5.6898  -15.3935   25.3646 C   0  0  0  0  0  0  0  0  0  0  0  0
    4.9395  -14.2745   25.1672 N   0  0  0  0  0  0  0  0  0  0  0  0
    5.6419  -13.1905   25.4615 C   0  0  0  0  0  0  0  0  0  0  0  0
    5.3323  -11.8263   25.4237 C   0  0  0  0  0  0  0  0  0  0  0  0
    6.3101  -10.9410   25.7992 C   0  0  0  0  0  0  0  0  0  0  0  0
    7.5697  -11.3251   26.2076 C   0  0  0  0  0  0  0  0  0  0  0  0
    7.8601  -12.6770   26.2393 C   0  0  0  0  0  0  0  0  0  0  0  0
    6.8849  -13.5900   25.8631 C   0  0  0  0  0  0  0  0  0  0  0  0
   10.4498  -16.2843   25.9474 C   0  0  0  0  0  0  0  0  0  0  0  0
   11.0922  -17.0438   25.1839 O   0  0  0  0  0  0  0  0  0  0  0  0
   10.7730  -16.1937   27.3280 N   0  0  0  0  0  0  0  0  0  0  0  0
   10.0924  -15.4940   28.3871 C   0  0  0  0  0  0  0  0  0  0  0  0
   11.2461  -14.8913   29.1683 C   0  0  0  0  0  0  0  0  0  0  0  0
   12.4405  -15.7597   28.8633 C   0  0  0  0  0  0  0  0  0  0  0  0
   11.9164  -16.8224   27.9294 C   0  0  1  0  0  0  0  0  0  0  0  0
   11.4733  -17.9814   28.7266 C   0  0  0  0  0  0  0  0  0  0  0  0
   12.3834  -18.8689   29.3188 O   0  0  0  0  0  0  0  0  0  0  0  0
   10.2689  -18.2316   28.9153 O   0  0  0  0  0  0  0  0  0  0  0  0
  1  2  1  0
  1  5  1  0
  2  3  1  0
  3  4  1  0
  5  4  1  0
  5  6  1  1
  6  7  2  0
  8  6  1  0
  9  8  1  0
  9 10  1  1
 11 19  1  0
 11 10  1  0
 12 11  2  0
 13 12  1  0
 13 14  1  0
 14 15  1  0
 14 19  2  0
 15 16  2  0
 16 17  1  0
 18 17  2  0
 19 18  1  0
 20  9  1  0
 21 20  2  0
 22 20  1  0
 22 26  1  0
 23 22  1  0
 24 25  1  0
 24 23  1  0
 25 26  1  0
 26 27  1  1
 27 29  2  0
 27 28  1  0
M  END
$$$$
