PWP.pdb
     RDKit          3D

 29 32  0  0  1  0  0  0  0  0999 V2000
    8.4121  -16.7092   21.4047 N   0  0  0  0  0  0  0  0  0  0  0  0
    7.3801  -16.3705   20.4375 C   0  0  0  0  0  0  0  0  0  0  0  0
    8.0226  -15.3631   19.5026 C   0  0  0  0  0  0  0  0  0  0  0  0
    8.8610  -14.5536   20.4789 C   0  0  0  0  0  0  0  0  0  0  0  0
    9.3661  -15.6117   21.4025 C   0  0  1  0  0  0  0  0  0  0  0  0
    9.5742  -15.1749   22.7889 C   0  0  0  0  0  0  0  0  0  0  0  0
   10.2090  -14.1037   23.0501 O   0  0  0  0  0  0  0  0  0  0  0  0
    9.0725  -15.9375   23.8826 N   0  0  0  0  0  0  0  0  0  0  0  0
    9.2394  -15.4866   25.2621 C   0  0  1  0  0  0  0  0  0  0  0  0
    8.0179  -15.8676   26.0301 C   0  0  0  0  0  0  0  0  0  0  0  0
    6.8108  -15.0751   25.7348 C   0  0  0  0  0  0  0  0  0  0  0  0
    5.5667  -15.4535   25.3101 C   0  0  0  0  0  0  0  0  0  0  0  0
    4.8165  -14.3247   25.1792 N   0  0  0  0  0  0  0  0  0  0  0  0
    5.5307  -13.2565   25.5015 C   0  0  0  0  0  0  0  0  0  0  0  0
    5.2261  -11.8909   25.5294 C   0  0  0  0  0  0  0  0  0  0  0  0
    6.2168  -11.0256   25.9175 C   0  0  0  0  0  0  0  0  0  0  0  0
    7.4845  -11.4308   26.2776 C   0  0  0  0  0  0  0  0  0  0  0  0
    7.7697  -12.7838   26.2446 C   0  0  0  0  0  0  0  0  0  0  0  0
    6.7816  -13.6768   25.8545 C   0  0  0  0  0  0  0  0  0  0  0  0
   10.3803  -16.2234   25.8954 C   0  0  0  0  0  0  0  0  0  0  0  0
   11.1043  -16.9175   25.1428 O   0  0  0  0  0  0  0  0  0  0  0  0
   10.6414  -16.1445   27.2898 N   0  0  0  0  0  0  0  0  0  0  0  0
    9.8559  -15.5477   28.3393 C   0  0  0  0  0  0  0  0  0  0  0  0
   10.9145  -14.8595   29.1822 C   0  0  0  0  0  0  0  0  0  0  0  0
   12.1995  -15.5971   28.9019 C   0  0  0  0  0  0  0  0  0  0  0  0
   11.8181  -16.6766   27.9193 C   0  0  1  0  0  0  0  0  0  0  0  0
   11.4625  -17.8974   28.6664 C   0  0  0  0  0  0  0  0  0  0  0  0
   10.1445  -18.3719   28.7326 O   0  0  0  0  0  0  0  0  0  0  0  0
   12.3136  -18.5700   29.2765 O   0  0  0  0  0  0  0  0  0  0  0  0
  1  2  1  0
  1  5  1  0
  2  3  1  0
  3  4  1  0
  5  4  1  0
  5  6  1  1
  6  7  2  0
  8  6  1  0
  9  8  1  0
  9 10  1  1
 11 19  1  0
 11 10  1  0
 12 11  2  0
 13 12  1  0
 13 14  1  0
 14 15  1  0
 14 19  2  0
 15 16  2  0
 16 17  1  0
 18 17  2  0
 19 18  1  0
 20  9  1  0
 21 20  2  0
 22 20  1  0
 22 26  1  0
 23 22  1  0
 24 25  1  0
 24 23  1  0
 25 26  1  0
 26 27  1  1
 27 29  2  0
 27 28  1  0
M  END
$$$$
