PWP.pdb
     RDKit          3D

 29 32  0  0  1  0  0  0  0  0999 V2000
    9.1057  -15.6641   19.4744 N   0  0  0  0  0  0  0  0  0  0  0  0
    8.1781  -15.3595   18.3963 C   0  0  0  0  0  0  0  0  0  0  0  0
    8.7176  -14.0983   17.7483 C   0  0  0  0  0  0  0  0  0  0  0  0
    9.2085  -13.3324   18.9665 C   0  0  0  0  0  0  0  0  0  0  0  0
    9.7894  -14.4235   19.8030 C   0  0  1  0  0  0  0  0  0  0  0  0
    9.6924  -14.2100   21.2526 C   0  0  0  0  0  0  0  0  0  0  0  0
   10.0970  -13.1272   21.7840 O   0  0  0  0  0  0  0  0  0  0  0  0
    9.1433  -15.2088   22.1072 N   0  0  0  0  0  0  0  0  0  0  0  0
    8.8817  -14.9396   23.5190 C   0  0  1  0  0  0  0  0  0  0  0  0
    7.4266  -15.1511   23.7740 C   0  0  0  0  0  0  0  0  0  0  0  0
    6.9803  -14.8888   25.1540 C   0  0  0  0  0  0  0  0  0  0  0  0
    6.5989  -15.7405   26.1543 C   0  0  0  0  0  0  0  0  0  0  0  0
    6.2684  -14.9819   27.2357 N   0  0  0  0  0  0  0  0  0  0  0  0
    6.4243  -13.6952   26.9613 C   0  0  0  0  0  0  0  0  0  0  0  0
    6.2203  -12.5371   27.7199 C   0  0  0  0  0  0  0  0  0  0  0  0
    6.4800  -11.3305   27.1219 C   0  0  0  0  0  0  0  0  0  0  0  0
    6.9275  -11.2040   25.8240 C   0  0  0  0  0  0  0  0  0  0  0  0
    7.1242  -12.3582   25.0875 C   0  0  0  0  0  0  0  0  0  0  0  0
    6.8670  -13.5897   25.6734 C   0  0  0  0  0  0  0  0  0  0  0  0
    9.6062  -15.9436   24.3631 C   0  0  0  0  0  0  0  0  0  0  0  0
    9.9834  -17.0000   23.8026 O   0  0  0  0  0  0  0  0  0  0  0  0
    9.8624  -15.7174   25.7422 N   0  0  0  0  0  0  0  0  0  0  0  0
    9.2694  -14.7621   26.6424 C   0  0  0  0  0  0  0  0  0  0  0  0
   10.4711  -14.2736   27.4310 C   0  0  0  0  0  0  0  0  0  0  0  0
   11.4929  -15.3789   27.3400 C   0  0  0  0  0  0  0  0  0  0  0  0
   10.8289  -16.4509   26.5117 C   0  0  1  0  0  0  0  0  0  0  0  0
   10.1284  -17.3845   27.4132 C   0  0  0  0  0  0  0  0  0  0  0  0
   10.8207  -18.2471   28.2753 O   0  0  0  0  0  0  0  0  0  0  0  0
    8.8866  -17.4551   27.4556 O   0  0  0  0  0  0  0  0  0  0  0  0
  1  2  1  0
  1  5  1  0
  2  3  1  0
  3  4  1  0
  5  4  1  0
  5  6  1  1
  6  7  2  0
  8  6  1  0
  9  8  1  0
  9 10  1  6
 11 19  1  0
 11 10  1  0
 12 11  2  0
 13 12  1  0
 13 14  1  0
 14 15  1  0
 14 19  2  0
 15 16  2  0
 16 17  1  0
 18 17  2  0
 19 18  1  0
 20  9  1  0
 21 20  2  0
 22 20  1  0
 22 26  1  0
 23 22  1  0
 24 25  1  0
 24 23  1  0
 25 26  1  0
 26 27  1  1
 27 29  2  0
 27 28  1  0
M  END
$$$$
