PWP.pdb
     RDKit          3D

 29 32  0  0  1  0  0  0  0  0999 V2000
    7.1302  -20.2233   23.2698 N   0  0  0  0  0  0  0  0  0  0  0  0
    6.8688  -21.1379   24.3700 C   0  0  0  0  0  0  0  0  0  0  0  0
    5.3907  -21.4663   24.2753 C   0  0  0  0  0  0  0  0  0  0  0  0
    4.8191  -20.1188   23.8642 C   0  0  0  0  0  0  0  0  0  0  0  0
    5.8555  -19.6219   22.9119 C   0  0  1  0  0  0  0  0  0  0  0  0
    6.0219  -18.1632   22.8845 C   0  0  0  0  0  0  0  0  0  0  0  0
    5.0249  -17.3932   22.7069 O   0  0  0  0  0  0  0  0  0  0  0  0
    7.3043  -17.5668   23.0552 N   0  0  0  0  0  0  0  0  0  0  0  0
    7.5197  -16.1444   22.8013 C   0  0  1  0  0  0  0  0  0  0  0  0
    8.2481  -15.5657   23.9681 C   0  0  0  0  0  0  0  0  0  0  0  0
    7.3975  -15.0895   25.0736 C   0  0  0  0  0  0  0  0  0  0  0  0
    6.4692  -15.7394   25.8400 C   0  0  0  0  0  0  0  0  0  0  0  0
    5.9578  -14.8352   26.7203 N   0  0  0  0  0  0  0  0  0  0  0  0
    6.5210  -13.6494   26.5427 C   0  0  0  0  0  0  0  0  0  0  0  0
    6.3434  -12.4155   27.1786 C   0  0  0  0  0  0  0  0  0  0  0  0
    7.1007  -11.3591   26.7412 C   0  0  0  0  0  0  0  0  0  0  0  0
    8.0186  -11.4522   25.7167 C   0  0  0  0  0  0  0  0  0  0  0  0
    8.1824  -12.6785   25.0984 C   0  0  0  0  0  0  0  0  0  0  0  0
    7.4257  -13.7607   25.5253 C   0  0  0  0  0  0  0  0  0  0  0  0
    8.4233  -15.9780   21.6176 C   0  0  0  0  0  0  0  0  0  0  0  0
    9.0396  -16.9943   21.2179 O   0  0  0  0  0  0  0  0  0  0  0  0
    8.5814  -14.7253   20.9659 N   0  0  0  0  0  0  0  0  0  0  0  0
    8.1534  -13.4138   21.3797 C   0  0  0  0  0  0  0  0  0  0  0  0
    7.6333  -12.8206   20.0826 C   0  0  0  0  0  0  0  0  0  0  0  0
    8.3367  -13.5731   18.9813 C   0  0  0  0  0  0  0  0  0  0  0  0
    9.2313  -14.5556   19.6958 C   0  0  1  0  0  0  0  0  0  0  0  0
   10.5527  -13.9342   19.9027 C   0  0  0  0  0  0  0  0  0  0  0  0
   11.5008  -13.8417   18.8736 O   0  0  0  0  0  0  0  0  0  0  0  0
   10.8947  -13.4596   21.0012 O   0  0  0  0  0  0  0  0  0  0  0  0
  1  2  1  0
  1  5  1  0
  2  3  1  0
  3  4  1  0
  5  4  1  0
  5  6  1  1
  6  7  2  0
  8  6  1  0
  9  8  1  0
  9 10  1  1
 11 19  1  0
 11 10  1  0
 12 11  2  0
 13 12  1  0
 13 14  1  0
 14 15  1  0
 14 19  2  0
 15 16  2  0
 16 17  1  0
 18 17  2  0
 19 18  1  0
 20  9  1  0
 21 20  2  0
 22 20  1  0
 22 26  1  0
 23 22  1  0
 24 25  1  0
 24 23  1  0
 25 26  1  0
 26 27  1  1
 27 29  2  0
 27 28  1  0
M  END
$$$$
