PWP.pdb
     RDKit          3D

 29 32  0  0  1  0  0  0  0  0999 V2000
    9.9530  -18.1626   20.7922 N   0  0  0  0  0  0  0  0  0  0  0  0
    9.2049  -18.2172   19.5462 C   0  0  0  0  0  0  0  0  0  0  0  0
   10.1384  -17.6494   18.4936 C   0  0  0  0  0  0  0  0  0  0  0  0
   10.8101  -16.5305   19.2734 C   0  0  0  0  0  0  0  0  0  0  0  0
   10.9863  -17.1545   20.6178 C   0  0  1  0  0  0  0  0  0  0  0  0
   10.9177  -16.2192   21.7478 C   0  0  0  0  0  0  0  0  0  0  0  0
   11.7813  -15.2953   21.8870 O   0  0  0  0  0  0  0  0  0  0  0  0
    9.8832  -16.3187   22.7220 N   0  0  0  0  0  0  0  0  0  0  0  0
    9.8313  -15.4153   23.8689 C   0  0  1  0  0  0  0  0  0  0  0  0
    8.6514  -14.5165   23.7037 C   0  0  0  0  0  0  0  0  0  0  0  0
    7.6369  -14.6000   24.7697 C   0  0  0  0  0  0  0  0  0  0  0  0
    6.9695  -15.6720   25.2957 C   0  0  0  0  0  0  0  0  0  0  0  0
    6.1281  -15.2006   26.2568 N   0  0  0  0  0  0  0  0  0  0  0  0
    6.2360  -13.8842   26.3587 C   0  0  0  0  0  0  0  0  0  0  0  0
    5.5987  -12.9457   27.1782 C   0  0  0  0  0  0  0  0  0  0  0  0
    5.9460  -11.6277   27.0259 C   0  0  0  0  0  0  0  0  0  0  0  0
    6.8821  -11.1868   26.1148 C   0  0  0  0  0  0  0  0  0  0  0  0
    7.5029  -12.1268   25.3122 C   0  0  0  0  0  0  0  0  0  0  0  0
    7.1660  -13.4660   25.4498 C   0  0  0  0  0  0  0  0  0  0  0  0
    9.5856  -16.2053   25.1182 C   0  0  0  0  0  0  0  0  0  0  0  0
    9.1281  -17.3651   24.9839 O   0  0  0  0  0  0  0  0  0  0  0  0
    9.8580  -15.6729   26.4071 N   0  0  0  0  0  0  0  0  0  0  0  0
    9.4388  -14.4260   26.9935 C   0  0  0  0  0  0  0  0  0  0  0  0
   10.6980  -13.9657   27.7058 C   0  0  0  0  0  0  0  0  0  0  0  0
   11.4980  -15.2172   27.9655 C   0  0  0  0  0  0  0  0  0  0  0  0
   10.6594  -16.3358   27.3984 C   0  0  1  0  0  0  0  0  0  0  0  0
    9.7838  -16.8618   28.4621 C   0  0  0  0  0  0  0  0  0  0  0  0
   10.2877  -17.5954   29.5458 O   0  0  0  0  0  0  0  0  0  0  0  0
    8.5524  -16.6817   28.4533 O   0  0  0  0  0  0  0  0  0  0  0  0
  1  2  1  0
  1  5  1  0
  2  3  1  0
  3  4  1  0
  5  4  1  0
  5  6  1  1
  6  7  2  0
  8  6  1  0
  9  8  1  0
  9 10  1  6
 11 19  1  0
 11 10  1  0
 12 11  2  0
 13 12  1  0
 13 14  1  0
 14 15  1  0
 14 19  2  0
 15 16  2  0
 16 17  1  0
 18 17  2  0
 19 18  1  0
 20  9  1  0
 21 20  2  0
 22 20  1  0
 22 26  1  0
 23 22  1  0
 24 25  1  0
 24 23  1  0
 25 26  1  0
 26 27  1  1
 27 29  2  0
 27 28  1  0
M  END
$$$$
