PWP.pdb
     RDKit          3D

 29 32  0  0  1  0  0  0  0  0999 V2000
    9.0105  -15.6466   19.4150 N   0  0  0  0  0  0  0  0  0  0  0  0
    8.1102  -15.2767   18.3343 C   0  0  0  0  0  0  0  0  0  0  0  0
    8.7148  -14.0287   17.7190 C   0  0  0  0  0  0  0  0  0  0  0  0
    9.2271  -13.3122   18.9582 C   0  0  0  0  0  0  0  0  0  0  0  0
    9.7473  -14.4464   19.7771 C   0  0  1  0  0  0  0  0  0  0  0  0
    9.6441  -14.2589   21.2299 C   0  0  0  0  0  0  0  0  0  0  0  0
   10.1698  -13.2500   21.7993 O   0  0  0  0  0  0  0  0  0  0  0  0
    8.9533  -15.2011   22.0449 N   0  0  0  0  0  0  0  0  0  0  0  0
    8.7265  -14.9526   23.4665 C   0  0  1  0  0  0  0  0  0  0  0  0
    7.2910  -15.2285   23.7667 C   0  0  0  0  0  0  0  0  0  0  0  0
    6.8604  -14.9198   25.1422 C   0  0  0  0  0  0  0  0  0  0  0  0
    6.5487  -15.7380   26.1932 C   0  0  0  0  0  0  0  0  0  0  0  0
    6.1996  -14.9436   27.2426 N   0  0  0  0  0  0  0  0  0  0  0  0
    6.2774  -13.6663   26.8998 C   0  0  0  0  0  0  0  0  0  0  0  0
    6.0254  -12.4833   27.6035 C   0  0  0  0  0  0  0  0  0  0  0  0
    6.2044  -11.2969   26.9391 C   0  0  0  0  0  0  0  0  0  0  0  0
    6.6163  -11.2136   25.6260 C   0  0  0  0  0  0  0  0  0  0  0  0
    6.8612  -12.3919   24.9443 C   0  0  0  0  0  0  0  0  0  0  0  0
    6.6859  -13.6036   25.5977 C   0  0  0  0  0  0  0  0  0  0  0  0
    9.5207  -15.9298   24.2789 C   0  0  0  0  0  0  0  0  0  0  0  0
    9.9401  -16.9564   23.6936 O   0  0  0  0  0  0  0  0  0  0  0  0
    9.7947  -15.7112   25.6558 N   0  0  0  0  0  0  0  0  0  0  0  0
    9.2085  -14.7657   26.5706 C   0  0  0  0  0  0  0  0  0  0  0  0
   10.4181  -14.2751   27.3458 C   0  0  0  0  0  0  0  0  0  0  0  0
   11.4453  -15.3733   27.2330 C   0  0  0  0  0  0  0  0  0  0  0  0
   10.7764  -16.4439   26.4068 C   0  0  1  0  0  0  0  0  0  0  0  0
   10.0942  -17.3879   27.3115 C   0  0  0  0  0  0  0  0  0  0  0  0
   10.8038  -18.2655   28.1438 O   0  0  0  0  0  0  0  0  0  0  0  0
    8.8536  -17.4543   27.3834 O   0  0  0  0  0  0  0  0  0  0  0  0
  1  2  1  0
  1  5  1  0
  2  3  1  0
  3  4  1  0
  5  4  1  0
  5  6  1  1
  6  7  2  0
  8  6  1  0
  9  8  1  0
  9 10  1  6
 11 19  1  0
 11 10  1  0
 12 11  2  0
 13 12  1  0
 13 14  1  0
 14 15  1  0
 14 19  2  0
 15 16  2  0
 16 17  1  0
 18 17  2  0
 19 18  1  0
 20  9  1  0
 21 20  2  0
 22 20  1  0
 22 26  1  0
 23 22  1  0
 24 25  1  0
 24 23  1  0
 25 26  1  0
 26 27  1  1
 27 29  2  0
 27 28  1  0
M  END
$$$$
