PWP.pdb
     RDKit          3D

 29 32  0  0  1  0  0  0  0  0999 V2000
    7.4692  -20.0668   23.4754 N   0  0  0  0  0  0  0  0  0  0  0  0
    7.2529  -20.8729   24.6666 C   0  0  0  0  0  0  0  0  0  0  0  0
    5.7881  -21.2655   24.6237 C   0  0  0  0  0  0  0  0  0  0  0  0
    5.1607  -19.9903   24.0838 C   0  0  0  0  0  0  0  0  0  0  0  0
    6.1690  -19.5546   23.0733 C   0  0  1  0  0  0  0  0  0  0  0  0
    6.2777  -18.1011   22.8948 C   0  0  0  0  0  0  0  0  0  0  0  0
    5.2546  -17.3962   22.6208 O   0  0  0  0  0  0  0  0  0  0  0  0
    7.5316  -17.4371   23.0222 N   0  0  0  0  0  0  0  0  0  0  0  0
    7.6884  -16.0334   22.6489 C   0  0  1  0  0  0  0  0  0  0  0  0
    8.3892  -15.3286   23.7620 C   0  0  0  0  0  0  0  0  0  0  0  0
    7.5473  -14.9784   24.9201 C   0  0  0  0  0  0  0  0  0  0  0  0
    6.7277  -15.7452   25.7022 C   0  0  0  0  0  0  0  0  0  0  0  0
    6.1684  -14.9273   26.6362 N   0  0  0  0  0  0  0  0  0  0  0  0
    6.5982  -13.6843   26.4772 C   0  0  0  0  0  0  0  0  0  0  0  0
    6.3252  -12.4962   27.1645 C   0  0  0  0  0  0  0  0  0  0  0  0
    6.9489  -11.3536   26.7330 C   0  0  0  0  0  0  0  0  0  0  0  0
    7.8222  -11.3184   25.6668 C   0  0  0  0  0  0  0  0  0  0  0  0
    8.0815  -12.5010   24.9979 C   0  0  0  0  0  0  0  0  0  0  0  0
    7.4606  -13.6689   25.4179 C   0  0  0  0  0  0  0  0  0  0  0  0
    8.5875  -15.9301   21.4545 C   0  0  0  0  0  0  0  0  0  0  0  0
    9.1443  -16.9828   21.0619 O   0  0  0  0  0  0  0  0  0  0  0  0
    8.8057  -14.6957   20.7857 N   0  0  0  0  0  0  0  0  0  0  0  0
    8.4260  -13.3612   21.1725 C   0  0  0  0  0  0  0  0  0  0  0  0
    7.9487  -12.7686   19.8589 C   0  0  0  0  0  0  0  0  0  0  0  0
    8.6359  -13.5669   18.7799 C   0  0  0  0  0  0  0  0  0  0  0  0
    9.4796  -14.5733   19.5226 C   0  0  1  0  0  0  0  0  0  0  0  0
   10.8223  -14.0029   19.7389 C   0  0  0  0  0  0  0  0  0  0  0  0
   11.7999  -13.9991   18.7336 O   0  0  0  0  0  0  0  0  0  0  0  0
   11.1571  -13.4951   20.8247 O   0  0  0  0  0  0  0  0  0  0  0  0
  1  2  1  0
  1  5  1  0
  2  3  1  0
  3  4  1  0
  5  4  1  0
  5  6  1  1
  6  7  2  0
  8  6  1  0
  9  8  1  0
  9 10  1  1
 11 19  1  0
 11 10  1  0
 12 11  2  0
 13 12  1  0
 13 14  1  0
 14 15  1  0
 14 19  2  0
 15 16  2  0
 16 17  1  0
 18 17  2  0
 19 18  1  0
 20  9  1  0
 21 20  2  0
 22 20  1  0
 22 26  1  0
 23 22  1  0
 24 25  1  0
 24 23  1  0
 25 26  1  0
 26 27  1  1
 27 29  2  0
 27 28  1  0
M  END
$$$$
