PWP.pdb
     RDKit          3D

 29 32  0  0  1  0  0  0  0  0999 V2000
    8.6902  -16.7302   21.1926 N   0  0  0  0  0  0  0  0  0  0  0  0
    7.6281  -16.5958   20.2082 C   0  0  0  0  0  0  0  0  0  0  0  0
    8.0615  -15.4570   19.3045 C   0  0  0  0  0  0  0  0  0  0  0  0
    8.6927  -14.5097   20.3123 C   0  0  0  0  0  0  0  0  0  0  0  0
    9.3919  -15.4570   21.2297 C   0  0  1  0  0  0  0  0  0  0  0  0
    9.4778  -15.0149   22.6273 C   0  0  0  0  0  0  0  0  0  0  0  0
    9.8940  -13.8492   22.9214 O   0  0  0  0  0  0  0  0  0  0  0  0
    9.0987  -15.8778   23.6955 N   0  0  0  0  0  0  0  0  0  0  0  0
    9.2093  -15.4542   25.0892 C   0  0  1  0  0  0  0  0  0  0  0  0
    7.9945  -15.9227   25.8185 C   0  0  0  0  0  0  0  0  0  0  0  0
    6.7975  -15.0764   25.6652 C   0  0  0  0  0  0  0  0  0  0  0  0
    5.4906  -15.4004   25.4234 C   0  0  0  0  0  0  0  0  0  0  0  0
    4.7841  -14.2381   25.3613 N   0  0  0  0  0  0  0  0  0  0  0  0
    5.5854  -13.2007   25.5527 C   0  0  0  0  0  0  0  0  0  0  0  0
    5.3527  -11.8210   25.5809 C   0  0  0  0  0  0  0  0  0  0  0  0
    6.4270  -10.9988   25.8061 C   0  0  0  0  0  0  0  0  0  0  0  0
    7.7111  -11.4599   26.0040 C   0  0  0  0  0  0  0  0  0  0  0  0
    7.9246  -12.8261   25.9731 C   0  0  0  0  0  0  0  0  0  0  0  0
    6.8513  -13.6761   25.7463 C   0  0  0  0  0  0  0  0  0  0  0  0
   10.3757  -16.1421   25.7308 C   0  0  0  0  0  0  0  0  0  0  0  0
   11.1437  -16.7906   24.9811 O   0  0  0  0  0  0  0  0  0  0  0  0
   10.6124  -16.0677   27.1298 N   0  0  0  0  0  0  0  0  0  0  0  0
    9.8145  -15.4642   28.1660 C   0  0  0  0  0  0  0  0  0  0  0  0
   10.8648  -14.7883   29.0289 C   0  0  0  0  0  0  0  0  0  0  0  0
   12.1468  -15.5390   28.7706 C   0  0  0  0  0  0  0  0  0  0  0  0
   11.7720  -16.6131   27.7796 C   0  0  1  0  0  0  0  0  0  0  0  0
   11.3902  -17.8311   28.5183 C   0  0  0  0  0  0  0  0  0  0  0  0
   12.3406  -18.6501   29.1448 O   0  0  0  0  0  0  0  0  0  0  0  0
   10.2048  -18.1950   28.6242 O   0  0  0  0  0  0  0  0  0  0  0  0
  1  2  1  0
  1  5  1  0
  2  3  1  0
  3  4  1  0
  5  4  1  0
  5  6  1  1
  6  7  2  0
  8  6  1  0
  9  8  1  0
  9 10  1  1
 11 19  1  0
 11 10  1  0
 12 11  2  0
 13 12  1  0
 13 14  1  0
 14 15  1  0
 14 19  2  0
 15 16  2  0
 16 17  1  0
 18 17  2  0
 19 18  1  0
 20  9  1  0
 21 20  2  0
 22 20  1  0
 22 26  1  0
 23 22  1  0
 24 25  1  0
 24 23  1  0
 25 26  1  0
 26 27  1  1
 27 29  2  0
 27 28  1  0
M  END
$$$$
