PWP.pdb
     RDKit          3D

 29 32  0  0  1  0  0  0  0  0999 V2000
    8.7973  -16.7676   21.1179 N   0  0  0  0  0  0  0  0  0  0  0  0
    7.7627  -16.6149   20.1071 C   0  0  0  0  0  0  0  0  0  0  0  0
    8.2450  -15.4930   19.2069 C   0  0  0  0  0  0  0  0  0  0  0  0
    8.8742  -14.5541   20.2237 C   0  0  0  0  0  0  0  0  0  0  0  0
    9.5281  -15.5113   21.1638 C   0  0  1  0  0  0  0  0  0  0  0  0
    9.5909  -15.0616   22.5603 C   0  0  0  0  0  0  0  0  0  0  0  0
   10.0716  -13.9227   22.8609 O   0  0  0  0  0  0  0  0  0  0  0  0
    9.1163  -15.8871   23.6199 N   0  0  0  0  0  0  0  0  0  0  0  0
    9.1892  -15.4513   25.0123 C   0  0  1  0  0  0  0  0  0  0  0  0
    7.9642  -15.9301   25.7174 C   0  0  0  0  0  0  0  0  0  0  0  0
    6.7902  -15.0441   25.6209 C   0  0  0  0  0  0  0  0  0  0  0  0
    5.4582  -15.3255   25.4880 C   0  0  0  0  0  0  0  0  0  0  0  0
    4.7912  -14.1396   25.4347 N   0  0  0  0  0  0  0  0  0  0  0  0
    5.6414  -13.1279   25.5279 C   0  0  0  0  0  0  0  0  0  0  0  0
    5.4613  -11.7402   25.5216 C   0  0  0  0  0  0  0  0  0  0  0  0
    6.5782  -10.9527   25.6365 C   0  0  0  0  0  0  0  0  0  0  0  0
    7.8562  -11.4560   25.7567 C   0  0  0  0  0  0  0  0  0  0  0  0
    8.0175  -12.8297   25.7611 C   0  0  0  0  0  0  0  0  0  0  0  0
    6.9003  -13.6449   25.6456 C   0  0  0  0  0  0  0  0  0  0  0  0
   10.3494  -16.1188   25.6861 C   0  0  0  0  0  0  0  0  0  0  0  0
   11.1564  -16.7422   24.9564 O   0  0  0  0  0  0  0  0  0  0  0  0
   10.5380  -16.0529   27.0928 N   0  0  0  0  0  0  0  0  0  0  0  0
    9.6885  -15.4858   28.1083 C   0  0  0  0  0  0  0  0  0  0  0  0
   10.6888  -14.7877   29.0120 C   0  0  0  0  0  0  0  0  0  0  0  0
   12.0012  -15.4958   28.7884 C   0  0  0  0  0  0  0  0  0  0  0  0
   11.6923  -16.5697   27.7747 C   0  0  1  0  0  0  0  0  0  0  0  0
   11.3245  -17.8071   28.4880 C   0  0  0  0  0  0  0  0  0  0  0  0
   12.2719  -18.5791   29.1757 O   0  0  0  0  0  0  0  0  0  0  0  0
   10.1544  -18.2300   28.5167 O   0  0  0  0  0  0  0  0  0  0  0  0
  1  2  1  0
  1  5  1  0
  2  3  1  0
  3  4  1  0
  5  4  1  0
  5  6  1  1
  6  7  2  0
  8  6  1  0
  9  8  1  0
  9 10  1  1
 11 19  1  0
 11 10  1  0
 12 11  2  0
 13 12  1  0
 13 14  1  0
 14 15  1  0
 14 19  2  0
 15 16  2  0
 16 17  1  0
 18 17  2  0
 19 18  1  0
 20  9  1  0
 21 20  2  0
 22 20  1  0
 22 26  1  0
 23 22  1  0
 24 25  1  0
 24 23  1  0
 25 26  1  0
 26 27  1  1
 27 29  2  0
 27 28  1  0
M  END
$$$$
