PWP.pdb
     RDKit          3D

 29 32  0  0  1  0  0  0  0  0999 V2000
    8.7942  -16.8742   21.1319 N   0  0  0  0  0  0  0  0  0  0  0  0
    7.7409  -16.7861   20.1329 C   0  0  0  0  0  0  0  0  0  0  0  0
    8.1615  -15.6614   19.2057 C   0  0  0  0  0  0  0  0  0  0  0  0
    8.7619  -14.6767   20.1963 C   0  0  0  0  0  0  0  0  0  0  0  0
    9.4696  -15.5864   21.1447 C   0  0  1  0  0  0  0  0  0  0  0  0
    9.5306  -15.1081   22.5317 C   0  0  0  0  0  0  0  0  0  0  0  0
    9.9349  -13.9325   22.8022 O   0  0  0  0  0  0  0  0  0  0  0  0
    9.1398  -15.9458   23.6156 N   0  0  0  0  0  0  0  0  0  0  0  0
    9.2250  -15.4857   24.9994 C   0  0  1  0  0  0  0  0  0  0  0  0
    8.0154  -15.9679   25.7283 C   0  0  0  0  0  0  0  0  0  0  0  0
    6.8424  -15.0774   25.6685 C   0  0  0  0  0  0  0  0  0  0  0  0
    5.5127  -15.3500   25.4981 C   0  0  0  0  0  0  0  0  0  0  0  0
    4.8457  -14.1629   25.5074 N   0  0  0  0  0  0  0  0  0  0  0  0
    5.6936  -13.1590   25.6756 C   0  0  0  0  0  0  0  0  0  0  0  0
    5.5125  -11.7734   25.7518 C   0  0  0  0  0  0  0  0  0  0  0  0
    6.6269  -10.9947   25.9320 C   0  0  0  0  0  0  0  0  0  0  0  0
    7.9032  -11.5046   26.0406 C   0  0  0  0  0  0  0  0  0  0  0  0
    8.0655  -12.8760   25.9632 C   0  0  0  0  0  0  0  0  0  0  0  0
    6.9509  -13.6825   25.7807 C   0  0  0  0  0  0  0  0  0  0  0  0
   10.4022  -16.1270   25.6690 C   0  0  0  0  0  0  0  0  0  0  0  0
   11.2157  -16.7398   24.9375 O   0  0  0  0  0  0  0  0  0  0  0  0
   10.5995  -16.0486   27.0739 N   0  0  0  0  0  0  0  0  0  0  0  0
    9.7498  -15.4846   28.0911 C   0  0  0  0  0  0  0  0  0  0  0  0
   10.7474  -14.7678   28.9830 C   0  0  0  0  0  0  0  0  0  0  0  0
   12.0670  -15.4613   28.7555 C   0  0  0  0  0  0  0  0  0  0  0  0
   11.7645  -16.5462   27.7517 C   0  0  1  0  0  0  0  0  0  0  0  0
   11.4169  -17.7828   28.4763 C   0  0  0  0  0  0  0  0  0  0  0  0
   12.3877  -18.5721   29.1096 O   0  0  0  0  0  0  0  0  0  0  0  0
   10.2440  -18.1897   28.5634 O   0  0  0  0  0  0  0  0  0  0  0  0
  1  2  1  0
  1  5  1  0
  2  3  1  0
  3  4  1  0
  5  4  1  0
  5  6  1  1
  6  7  2  0
  8  6  1  0
  9  8  1  0
  9 10  1  1
 11 19  1  0
 11 10  1  0
 12 11  2  0
 13 12  1  0
 13 14  1  0
 14 15  1  0
 14 19  2  0
 15 16  2  0
 16 17  1  0
 18 17  2  0
 19 18  1  0
 20  9  1  0
 21 20  2  0
 22 20  1  0
 22 26  1  0
 23 22  1  0
 24 25  1  0
 24 23  1  0
 25 26  1  0
 26 27  1  1
 27 29  2  0
 27 28  1  0
M  END
$$$$
