PWP.pdb
     RDKit          3D

 29 32  0  0  1  0  0  0  0  0999 V2000
    8.6606  -16.9950   21.3449 N   0  0  0  0  0  0  0  0  0  0  0  0
    7.6411  -16.7867   20.3288 C   0  0  0  0  0  0  0  0  0  0  0  0
    8.2324  -15.7697   19.3709 C   0  0  0  0  0  0  0  0  0  0  0  0
    8.9634  -14.8509   20.3368 C   0  0  0  0  0  0  0  0  0  0  0  0
    9.5195  -15.8218   21.3246 C   0  0  1  0  0  0  0  0  0  0  0  0
    9.6383  -15.3097   22.6957 C   0  0  0  0  0  0  0  0  0  0  0  0
   10.2057  -14.1959   22.9324 O   0  0  0  0  0  0  0  0  0  0  0  0
    9.1229  -16.0449   23.8017 N   0  0  0  0  0  0  0  0  0  0  0  0
    9.2636  -15.5548   25.1707 C   0  0  1  0  0  0  0  0  0  0  0  0
    8.0362  -15.9316   25.9313 C   0  0  0  0  0  0  0  0  0  0  0  0
    6.8494  -15.0965   25.6733 C   0  0  0  0  0  0  0  0  0  0  0  0
    5.5747  -15.4317   25.3070 C   0  0  0  0  0  0  0  0  0  0  0  0
    4.8641  -14.2763   25.1887 N   0  0  0  0  0  0  0  0  0  0  0  0
    5.6323  -13.2324   25.4633 C   0  0  0  0  0  0  0  0  0  0  0  0
    5.3824  -11.8556   25.4812 C   0  0  0  0  0  0  0  0  0  0  0  0
    6.4215  -11.0244   25.8134 C   0  0  0  0  0  0  0  0  0  0  0  0
    7.6865  -11.4740   26.1271 C   0  0  0  0  0  0  0  0  0  0  0  0
    7.9173  -12.8375   26.1048 C   0  0  0  0  0  0  0  0  0  0  0  0
    6.8796  -13.6965   25.7710 C   0  0  0  0  0  0  0  0  0  0  0  0
   10.4048  -16.2586   25.8399 C   0  0  0  0  0  0  0  0  0  0  0  0
   11.1704  -16.9334   25.1112 O   0  0  0  0  0  0  0  0  0  0  0  0
   10.6212  -16.1703   27.2414 N   0  0  0  0  0  0  0  0  0  0  0  0
    9.7957  -15.5795   28.2632 C   0  0  0  0  0  0  0  0  0  0  0  0
   10.8185  -14.8739   29.1354 C   0  0  0  0  0  0  0  0  0  0  0  0
   12.1210  -15.5958   28.8987 C   0  0  0  0  0  0  0  0  0  0  0  0
   11.7846  -16.6843   27.9097 C   0  0  1  0  0  0  0  0  0  0  0  0
   11.4217  -17.9065   28.6510 C   0  0  0  0  0  0  0  0  0  0  0  0
   12.3776  -18.6782   29.3272 O   0  0  0  0  0  0  0  0  0  0  0  0
   10.2483  -18.3163   28.7150 O   0  0  0  0  0  0  0  0  0  0  0  0
  1  2  1  0
  1  5  1  0
  2  3  1  0
  3  4  1  0
  5  4  1  0
  5  6  1  1
  6  7  2  0
  8  6  1  0
  9  8  1  0
  9 10  1  1
 11 19  1  0
 11 10  1  0
 12 11  2  0
 13 12  1  0
 13 14  1  0
 14 15  1  0
 14 19  2  0
 15 16  2  0
 16 17  1  0
 18 17  2  0
 19 18  1  0
 20  9  1  0
 21 20  2  0
 22 20  1  0
 22 26  1  0
 23 22  1  0
 24 25  1  0
 24 23  1  0
 25 26  1  0
 26 27  1  1
 27 29  2  0
 27 28  1  0
M  END
$$$$
