PWP.pdb
     RDKit          3D

 29 32  0  0  1  0  0  0  0  0999 V2000
    8.5840  -16.7611   21.2104 N   0  0  0  0  0  0  0  0  0  0  0  0
    7.5311  -16.5174   20.2371 C   0  0  0  0  0  0  0  0  0  0  0  0
    8.0730  -15.4339   19.3239 C   0  0  0  0  0  0  0  0  0  0  0  0
    8.8128  -14.5563   20.3207 C   0  0  0  0  0  0  0  0  0  0  0  0
    9.4176  -15.5698   21.2343 C   0  0  1  0  0  0  0  0  0  0  0  0
    9.5659  -15.1351   22.6291 C   0  0  0  0  0  0  0  0  0  0  0  0
   10.1311  -14.0317   22.9149 O   0  0  0  0  0  0  0  0  0  0  0  0
    9.0824  -15.9358   23.7035 N   0  0  0  0  0  0  0  0  0  0  0  0
    9.2083  -15.4991   25.0919 C   0  0  1  0  0  0  0  0  0  0  0  0
    7.9873  -15.9337   25.8318 C   0  0  0  0  0  0  0  0  0  0  0  0
    6.8082  -15.0631   25.6757 C   0  0  0  0  0  0  0  0  0  0  0  0
    5.4889  -15.3620   25.4714 C   0  0  0  0  0  0  0  0  0  0  0  0
    4.8097  -14.1849   25.3862 N   0  0  0  0  0  0  0  0  0  0  0  0
    5.6399  -13.1623   25.5272 C   0  0  0  0  0  0  0  0  0  0  0  0
    5.4415  -11.7770   25.5154 C   0  0  0  0  0  0  0  0  0  0  0  0
    6.5400  -10.9751   25.6917 C   0  0  0  0  0  0  0  0  0  0  0  0
    7.8165  -11.4615   25.8780 C   0  0  0  0  0  0  0  0  0  0  0  0
    7.9960  -12.8330   25.8871 C   0  0  0  0  0  0  0  0  0  0  0  0
    6.8977  -13.6627   25.7101 C   0  0  0  0  0  0  0  0  0  0  0  0
   10.3629  -16.2042   25.7362 C   0  0  0  0  0  0  0  0  0  0  0  0
   11.1007  -16.8949   24.9940 O   0  0  0  0  0  0  0  0  0  0  0  0
   10.6215  -16.0998   27.1294 N   0  0  0  0  0  0  0  0  0  0  0  0
    9.8622  -15.4360   28.1577 C   0  0  0  0  0  0  0  0  0  0  0  0
   10.9501  -14.7782   28.9875 C   0  0  0  0  0  0  0  0  0  0  0  0
   12.1980  -15.5863   28.7348 C   0  0  0  0  0  0  0  0  0  0  0  0
   11.7676  -16.6722   27.7799 C   0  0  1  0  0  0  0  0  0  0  0  0
   11.3483  -17.8527   28.5581 C   0  0  0  0  0  0  0  0  0  0  0  0
   12.2750  -18.6995   29.1831 O   0  0  0  0  0  0  0  0  0  0  0  0
   10.1503  -18.1584   28.7006 O   0  0  0  0  0  0  0  0  0  0  0  0
  1  2  1  0
  1  5  1  0
  2  3  1  0
  3  4  1  0
  5  4  1  0
  5  6  1  1
  6  7  2  0
  8  6  1  0
  9  8  1  0
  9 10  1  1
 11 19  1  0
 11 10  1  0
 12 11  2  0
 13 12  1  0
 13 14  1  0
 14 15  1  0
 14 19  2  0
 15 16  2  0
 16 17  1  0
 18 17  2  0
 19 18  1  0
 20  9  1  0
 21 20  2  0
 22 20  1  0
 22 26  1  0
 23 22  1  0
 24 25  1  0
 24 23  1  0
 25 26  1  0
 26 27  1  1
 27 29  2  0
 27 28  1  0
M  END
$$$$
