MCM.pdb
     RDKit          3D

 23 22  0  0  1  0  0  0  0  0999 V2000
   11.5970   -9.9545  -14.4136 C   0  0  0  0  0  0  0  0  0  0  0  0
   12.4513  -10.8406  -15.7152 S   0  0  0  0  0  0  0  0  0  0  0  0
   14.2289  -10.9361  -15.4544 C   0  0  0  0  0  0  0  0  0  0  0  0
   14.6189  -10.5497  -14.0376 C   0  0  0  0  0  0  0  0  0  0  0  0
   16.1159  -10.7494  -13.9305 C   0  0  2  0  0  0  0  0  0  0  0  0
   16.4047  -12.1686  -13.9547 N   0  0  0  0  0  0  0  0  0  0  0  0
   16.6656  -10.1853  -12.6799 C   0  0  0  0  0  0  0  0  0  0  0  0
   16.8216  -10.9157  -11.6711 O   0  0  0  0  0  0  0  0  0  0  0  0
   17.0270   -8.8360  -12.5759 N   0  0  0  0  0  0  0  0  0  0  0  0
   17.6177   -8.2367  -11.3789 C   0  0  1  0  0  0  0  0  0  0  0  0
   18.7975   -7.3550  -11.7992 C   0  0  0  0  0  0  0  0  0  0  0  0
   19.7640   -6.8913  -10.3614 S   0  0  0  0  0  0  0  0  0  0  0  0
   16.5693   -7.3342  -10.8331 C   0  0  0  0  0  0  0  0  0  0  0  0
   15.8710   -6.6061  -11.6181 O   0  0  0  0  0  0  0  0  0  0  0  0
   11.9025   -8.3455   -6.3872 C   0  0  0  0  0  0  0  0  0  0  0  0
   12.4248   -6.6620   -6.0697 S   0  0  0  0  0  0  0  0  0  0  0  0
   13.4361   -5.9626   -7.3734 C   0  0  0  0  0  0  0  0  0  0  0  0
   14.5250   -6.9053   -7.8331 C   0  0  0  0  0  0  0  0  0  0  0  0
   15.2531   -6.2421   -9.0072 C   0  0  2  0  0  0  0  0  0  0  0  0
   16.2550   -7.2003   -9.4632 N   0  0  0  0  0  0  0  0  0  0  0  0
   15.9108   -5.0092   -8.5336 C   0  0  0  0  0  0  0  0  0  0  0  0
   15.2622   -3.9484   -8.4346 O   0  0  0  0  0  0  0  0  0  0  0  0
   17.2442   -5.0356   -8.2013 O   0  0  0  0  0  0  0  0  0  0  0  0
  2  1  1  0
  3  2  1  0
  4  3  1  0
  5  6  1  1
  5  4  1  0
  7  5  1  0
  8  7  2  0
  9  7  1  0
 10  9  1  0
 10 13  1  0
 10 11  1  6
 12 11  1  0
 13 20  1  0
 14 13  2  0
 16 15  1  0
 17 16  1  0
 18 17  1  0
 19 18  1  1
 19 21  1  0
 20 19  1  0
 21 22  2  0
 21 23  1  0
M  END
$$$$
