MCM.pdb
     RDKit          3D

 23 22  0  0  1  0  0  0  0  0999 V2000
   20.4468  -15.0369  -18.3389 C   0  0  0  0  0  0  0  0  0  0  0  0
   21.6893  -15.9340  -19.2666 S   0  0  0  0  0  0  0  0  0  0  0  0
   23.3516  -15.7146  -18.6145 C   0  0  0  0  0  0  0  0  0  0  0  0
   23.3399  -15.2195  -17.1780 C   0  0  0  0  0  0  0  0  0  0  0  0
   24.7850  -14.9995  -16.7837 C   0  0  2  0  0  0  0  0  0  0  0  0
   25.2175  -16.0994  -15.9463 N   0  0  0  0  0  0  0  0  0  0  0  0
   24.9721  -13.7415  -16.0306 C   0  0  0  0  0  0  0  0  0  0  0  0
   24.5938  -13.6564  -14.8369 O   0  0  0  0  0  0  0  0  0  0  0  0
   25.5692  -12.6158  -16.6122 N   0  0  0  0  0  0  0  0  0  0  0  0
   25.7281  -11.3301  -15.9319 C   0  0  1  0  0  0  0  0  0  0  0  0
   27.1299  -10.7867  -16.2247 C   0  0  0  0  0  0  0  0  0  0  0  0
   28.3710  -11.8599  -15.5008 S   0  0  0  0  0  0  0  0  0  0  0  0
   24.7576  -10.4151  -16.5895 C   0  0  0  0  0  0  0  0  0  0  0  0
   24.7688  -10.2655  -17.8589 O   0  0  0  0  0  0  0  0  0  0  0  0
   17.7849   -7.9990  -18.3697 C   0  0  0  0  0  0  0  0  0  0  0  0
   18.9012   -9.0550  -17.4495 S   0  0  0  0  0  0  0  0  0  0  0  0
   20.5728   -8.4178  -17.3426 C   0  0  0  0  0  0  0  0  0  0  0  0
   21.4972   -9.3372  -16.5773 C   0  0  0  0  0  0  0  0  0  0  0  0
   22.9051   -8.7341  -16.6289 C   0  0  2  0  0  0  0  0  0  0  0  0
   23.7754   -9.6606  -15.9118 N   0  0  0  0  0  0  0  0  0  0  0  0
   22.8943   -7.4232  -15.9519 C   0  0  0  0  0  0  0  0  0  0  0  0
   23.1075   -7.3470  -14.7253 O   0  0  0  0  0  0  0  0  0  0  0  0
   22.6479   -6.2845  -16.6810 O   0  0  0  0  0  0  0  0  0  0  0  0
  2  1  1  0
  3  2  1  0
  4  3  1  0
  5  6  1  1
  5  4  1  0
  7  5  1  0
  8  7  2  0
  9  7  1  0
 10  9  1  0
 10 13  1  0
 10 11  1  6
 12 11  1  0
 13 20  1  0
 14 13  2  0
 16 15  1  0
 17 16  1  0
 18 17  1  0
 19 18  1  1
 19 21  1  0
 20 19  1  0
 21 22  2  0
 21 23  1  0
M  END
$$$$
