MCM.pdb
     RDKit          3D

 23 22  0  0  1  0  0  0  0  0999 V2000
   26.6762  -15.8786  -14.6472 C   0  0  0  0  0  0  0  0  0  0  0  0
   25.6933  -14.5695  -15.3749 S   0  0  0  0  0  0  0  0  0  0  0  0
   25.4477  -14.7729  -17.1455 C   0  0  0  0  0  0  0  0  0  0  0  0
   24.7243  -13.5868  -17.7608 C   0  0  0  0  0  0  0  0  0  0  0  0
   23.3318  -13.5726  -17.1666 C   0  0  2  0  0  0  0  0  0  0  0  0
   22.6174  -14.7510  -17.6126 N   0  0  0  0  0  0  0  0  0  0  0  0
   22.5621  -12.3799  -17.5780 C   0  0  0  0  0  0  0  0  0  0  0  0
   22.1285  -12.2804  -18.7517 O   0  0  0  0  0  0  0  0  0  0  0  0
   22.2923  -11.3330  -16.6874 N   0  0  0  0  0  0  0  0  0  0  0  0
   21.5799  -10.1088  -17.0547 C   0  0  1  0  0  0  0  0  0  0  0  0
   20.1252  -10.2260  -16.5898 C   0  0  0  0  0  0  0  0  0  0  0  0
   20.0527  -11.0242  -14.9855 S   0  0  0  0  0  0  0  0  0  0  0  0
   22.2114   -9.0300  -16.2491 C   0  0  0  0  0  0  0  0  0  0  0  0
   22.7135   -9.2894  -15.1025 O   0  0  0  0  0  0  0  0  0  0  0  0
   25.4268   -3.3748  -18.4190 C   0  0  0  0  0  0  0  0  0  0  0  0
   24.4918   -3.0267  -16.9316 S   0  0  0  0  0  0  0  0  0  0  0  0
   24.0976   -4.4863  -15.9694 C   0  0  0  0  0  0  0  0  0  0  0  0
   23.4125   -5.5555  -16.7898 C   0  0  0  0  0  0  0  0  0  0  0  0
   23.0458   -6.7061  -15.8463 C   0  0  2  0  0  0  0  0  0  0  0  0
   22.3162   -7.6807  -16.6512 N   0  0  0  0  0  0  0  0  0  0  0  0
   22.1800   -6.1902  -14.7687 C   0  0  0  0  0  0  0  0  0  0  0  0
   20.9420   -6.1584  -14.9174 O   0  0  0  0  0  0  0  0  0  0  0  0
   22.7456   -5.7441  -13.5982 O   0  0  0  0  0  0  0  0  0  0  0  0
  2  1  1  0
  3  2  1  0
  4  3  1  0
  5  6  1  6
  5  4  1  0
  7  5  1  0
  8  7  2  0
  9  7  1  0
 10  9  1  0
 10 13  1  0
 10 11  1  1
 12 11  1  0
 13 20  1  0
 14 13  2  0
 16 15  1  0
 17 16  1  0
 18 17  1  0
 19 18  1  6
 19 21  1  0
 20 19  1  0
 21 22  2  0
 21 23  1  0
M  END
$$$$
