MCM.pdb
     RDKit          3D

 23 22  0  0  1  0  0  0  0  0999 V2000
   31.7935  -22.7108  -10.5762 C   0  0  0  0  0  0  0  0  0  0  0  0
   32.4202  -22.5989  -12.2507 S   0  0  0  0  0  0  0  0  0  0  0  0
   31.1947  -22.0005  -13.4240 C   0  0  0  0  0  0  0  0  0  0  0  0
   30.2384  -21.0036  -12.7912 C   0  0  0  0  0  0  0  0  0  0  0  0
   29.1125  -20.7944  -13.7816 C   0  0  2  0  0  0  0  0  0  0  0  0
   29.6003  -19.9965  -14.8877 N   0  0  0  0  0  0  0  0  0  0  0  0
   27.9606  -20.0935  -13.1764 C   0  0  0  0  0  0  0  0  0  0  0  0
   27.8824  -18.8420  -13.2293 O   0  0  0  0  0  0  0  0  0  0  0  0
   26.9300  -20.7892  -12.5316 N   0  0  0  0  0  0  0  0  0  0  0  0
   25.9489  -20.1625  -11.6452 C   0  0  1  0  0  0  0  0  0  0  0  0
   24.5462  -20.6130  -12.0644 C   0  0  0  0  0  0  0  0  0  0  0  0
   24.5731  -22.3382  -12.5536 S   0  0  0  0  0  0  0  0  0  0  0  0
   26.2101  -20.7392  -10.2996 C   0  0  0  0  0  0  0  0  0  0  0  0
   26.4582  -21.9863  -10.1683 O   0  0  0  0  0  0  0  0  0  0  0  0
   29.7381  -18.7545   -5.0627 C   0  0  0  0  0  0  0  0  0  0  0  0
   28.2077  -19.3955   -4.3884 S   0  0  0  0  0  0  0  0  0  0  0  0
   27.2692  -20.3893   -5.5475 C   0  0  0  0  0  0  0  0  0  0  0  0
   27.1715  -19.7505   -6.9143 C   0  0  0  0  0  0  0  0  0  0  0  0
   26.3261  -20.6707   -7.8014 C   0  0  2  0  0  0  0  0  0  0  0  0
   26.2123  -20.0036   -9.0945 N   0  0  0  0  0  0  0  0  0  0  0  0
   24.9903  -20.8320   -7.1960 C   0  0  0  0  0  0  0  0  0  0  0  0
   24.0157  -20.1953   -7.6438 O   0  0  0  0  0  0  0  0  0  0  0  0
   24.8251  -21.6890   -6.1342 O   0  0  0  0  0  0  0  0  0  0  0  0
  2  1  1  0
  3  2  1  0
  4  3  1  0
  5  6  1  6
  5  4  1  0
  7  5  1  0
  8  7  2  0
  9  7  1  0
 10  9  1  0
 10 13  1  0
 10 11  1  6
 12 11  1  0
 13 20  1  0
 14 13  2  0
 16 15  1  0
 17 16  1  0
 18 17  1  0
 19 18  1  1
 19 21  1  0
 20 19  1  0
 21 22  2  0
 21 23  1  0
M  END
$$$$
