MCM.pdb
     RDKit          3D

 23 22  0  0  1  0  0  0  0  0999 V2000
   29.1485  -16.6830  -16.1753 C   0  0  0  0  0  0  0  0  0  0  0  0
   28.1006  -17.2413  -14.8339 S   0  0  0  0  0  0  0  0  0  0  0  0
   26.7913  -18.3497  -15.3760 C   0  0  0  0  0  0  0  0  0  0  0  0
   27.3317  -19.5203  -16.1801 C   0  0  0  0  0  0  0  0  0  0  0  0
   27.8145  -20.5480  -15.1786 C   0  0  2  0  0  0  0  0  0  0  0  0
   28.4307  -21.6476  -15.8920 N   0  0  0  0  0  0  0  0  0  0  0  0
   26.7104  -21.0881  -14.3577 C   0  0  0  0  0  0  0  0  0  0  0  0
   25.9084  -21.9214  -14.8453 O   0  0  0  0  0  0  0  0  0  0  0  0
   26.5214  -20.6961  -13.0263 N   0  0  0  0  0  0  0  0  0  0  0  0
   25.5267  -21.2889  -12.1318 C   0  0  1  0  0  0  0  0  0  0  0  0
   25.7068  -20.6956  -10.7312 C   0  0  0  0  0  0  0  0  0  0  0  0
   24.3178  -21.1431   -9.6886 S   0  0  0  0  0  0  0  0  0  0  0  0
   24.2109  -20.8186  -12.6406 C   0  0  0  0  0  0  0  0  0  0  0  0
   23.9502  -19.5686  -12.6995 O   0  0  0  0  0  0  0  0  0  0  0  0
   19.4074  -24.4107  -15.8095 C   0  0  0  0  0  0  0  0  0  0  0  0
   19.3954  -22.7276  -16.4218 S   0  0  0  0  0  0  0  0  0  0  0  0
   20.2076  -21.5584  -15.3332 C   0  0  0  0  0  0  0  0  0  0  0  0
   21.4246  -22.1450  -14.6547 C   0  0  0  0  0  0  0  0  0  0  0  0
   21.9376  -21.1154  -13.6422 C   0  0  2  0  0  0  0  0  0  0  0  0
   23.1721  -21.6631  -13.0890 N   0  0  0  0  0  0  0  0  0  0  0  0
   20.9347  -20.9478  -12.5731 C   0  0  0  0  0  0  0  0  0  0  0  0
   20.9177  -21.7265  -11.5989 O   0  0  0  0  0  0  0  0  0  0  0  0
   20.0177  -19.9274  -12.6563 O   0  0  0  0  0  0  0  0  0  0  0  0
  2  1  1  0
  3  2  1  0
  4  3  1  0
  5  6  1  6
  5  4  1  0
  7  5  1  0
  8  7  2  0
  9  7  1  0
 10  9  1  0
 10 13  1  0
 10 11  1  1
 12 11  1  0
 13 20  1  0
 14 13  2  0
 16 15  1  0
 17 16  1  0
 18 17  1  0
 19 18  1  6
 19 21  1  0
 20 19  1  0
 21 22  2  0
 21 23  1  0
M  END
$$$$
