MCM.pdb
     RDKit          3D

 23 22  0  0  1  0  0  0  0  0999 V2000
   15.4253  -12.9395  -16.9265 C   0  0  0  0  0  0  0  0  0  0  0  0
   16.6381  -13.5919  -18.0722 S   0  0  0  0  0  0  0  0  0  0  0  0
   18.2557  -12.8233  -17.9006 C   0  0  0  0  0  0  0  0  0  0  0  0
   18.4594  -12.2259  -16.5185 C   0  0  0  0  0  0  0  0  0  0  0  0
   19.8778  -11.6980  -16.4792 C   0  0  2  0  0  0  0  0  0  0  0  0
   20.7953  -12.8170  -16.4146 N   0  0  0  0  0  0  0  0  0  0  0  0
   20.1184  -10.8323  -15.3057 C   0  0  0  0  0  0  0  0  0  0  0  0
   20.4116  -11.3387  -14.1953 O   0  0  0  0  0  0  0  0  0  0  0  0
   20.0294   -9.4369  -15.3881 N   0  0  0  0  0  0  0  0  0  0  0  0
   20.3233   -8.5309  -14.2773 C   0  0  1  0  0  0  0  0  0  0  0  0
   21.0572   -7.3024  -14.8234 C   0  0  0  0  0  0  0  0  0  0  0  0
   21.2970   -6.0964  -13.5178 S   0  0  0  0  0  0  0  0  0  0  0  0
   18.9979   -8.0672  -13.7873 C   0  0  0  0  0  0  0  0  0  0  0  0
   18.0799   -7.7436  -14.6158 O   0  0  0  0  0  0  0  0  0  0  0  0
   13.6497   -7.6544   -8.0022 C   0  0  0  0  0  0  0  0  0  0  0  0
   15.3407   -8.0017   -8.4797 S   0  0  0  0  0  0  0  0  0  0  0  0
   15.7509   -7.4485  -10.1342 C   0  0  0  0  0  0  0  0  0  0  0  0
   17.1348   -7.8790  -10.5643 C   0  0  0  0  0  0  0  0  0  0  0  0
   17.3136   -7.4800  -12.0331 C   0  0  2  0  0  0  0  0  0  0  0  0
   18.6391   -7.9469  -12.4271 N   0  0  0  0  0  0  0  0  0  0  0  0
   17.2401   -6.0108  -12.1471 C   0  0  0  0  0  0  0  0  0  0  0  0
   18.2693   -5.3178  -12.0197 O   0  0  0  0  0  0  0  0  0  0  0  0
   16.0297   -5.4088  -12.3950 O   0  0  0  0  0  0  0  0  0  0  0  0
  2  1  1  0
  3  2  1  0
  4  3  1  0
  5  6  1  1
  5  4  1  0
  7  5  1  0
  8  7  2  0
  9  7  1  0
 10  9  1  0
 10 13  1  0
 10 11  1  6
 12 11  1  0
 13 20  1  0
 14 13  2  0
 16 15  1  0
 17 16  1  0
 18 17  1  0
 19 18  1  1
 19 21  1  0
 20 19  1  0
 21 22  2  0
 21 23  1  0
M  END
$$$$
