MCM.pdb
     RDKit          3D

 23 22  0  0  1  0  0  0  0  0999 V2000
   29.5881  -18.8659   -5.7449 C   0  0  0  0  0  0  0  0  0  0  0  0
   27.9960  -19.1845   -4.9879 S   0  0  0  0  0  0  0  0  0  0  0  0
   26.8288  -19.9747   -6.1060 C   0  0  0  0  0  0  0  0  0  0  0  0
   27.1246  -19.6512   -7.5609 C   0  0  0  0  0  0  0  0  0  0  0  0
   26.2050  -20.5193   -8.3934 C   0  0  2  0  0  0  0  0  0  0  0  0
   26.5315  -21.9110   -8.1596 N   0  0  0  0  0  0  0  0  0  0  0  0
   26.3401  -20.2476   -9.8399 C   0  0  0  0  0  0  0  0  0  0  0  0
   27.4566  -19.9415  -10.3247 O   0  0  0  0  0  0  0  0  0  0  0  0
   25.2444  -20.3207  -10.7094 N   0  0  0  0  0  0  0  0  0  0  0  0
   25.3346  -20.1324  -12.1577 C   0  0  1  0  0  0  0  0  0  0  0  0
   26.0647  -21.3332  -12.7669 C   0  0  0  0  0  0  0  0  0  0  0  0
   25.6682  -22.8246  -11.8531 S   0  0  0  0  0  0  0  0  0  0  0  0
   23.9314  -20.1783  -12.6480 C   0  0  0  0  0  0  0  0  0  0  0  0
   23.0788  -20.9535  -12.0950 O   0  0  0  0  0  0  0  0  0  0  0  0
   21.2393  -15.8048  -16.8218 C   0  0  0  0  0  0  0  0  0  0  0  0
   19.9041  -16.9708  -16.5653 S   0  0  0  0  0  0  0  0  0  0  0  0
   20.3269  -18.3207  -15.4650 C   0  0  0  0  0  0  0  0  0  0  0  0
   21.7998  -18.3542  -15.1257 C   0  0  0  0  0  0  0  0  0  0  0  0
   22.0163  -19.4628  -14.0900 C   0  0  2  0  0  0  0  0  0  0  0  0
   23.4263  -19.4072  -13.7175 N   0  0  0  0  0  0  0  0  0  0  0  0
   21.7069  -20.7670  -14.7064 C   0  0  0  0  0  0  0  0  0  0  0  0
   20.5685  -21.2634  -14.5904 O   0  0  0  0  0  0  0  0  0  0  0  0
   22.6812  -21.4334  -15.4106 O   0  0  0  0  0  0  0  0  0  0  0  0
  2  1  1  0
  3  2  1  0
  4  3  1  0
  5  6  1  6
  5  4  1  0
  7  5  1  0
  8  7  2  0
  9  7  1  0
 10  9  1  0
 10 13  1  0
 10 11  1  6
 12 11  1  0
 13 20  1  0
 14 13  2  0
 16 15  1  0
 17 16  1  0
 18 17  1  0
 19 18  1  6
 19 21  1  0
 20 19  1  0
 21 22  2  0
 21 23  1  0
M  END
$$$$
