MCM.pdb
     RDKit          3D

 23 22  0  0  1  0  0  0  0  0999 V2000
   18.6660  -18.7972  -13.7468 C   0  0  0  0  0  0  0  0  0  0  0  0
   19.7625  -17.7792  -14.7319 S   0  0  0  0  0  0  0  0  0  0  0  0
   21.4435  -18.4164  -14.8024 C   0  0  0  0  0  0  0  0  0  0  0  0
   21.6600  -19.5627  -13.8287 C   0  0  0  0  0  0  0  0  0  0  0  0
   23.1263  -19.9304  -13.9113 C   0  0  2  0  0  0  0  0  0  0  0  0
   23.3491  -20.7124  -15.1100 N   0  0  0  0  0  0  0  0  0  0  0  0
   23.5675  -20.7282  -12.7480 C   0  0  0  0  0  0  0  0  0  0  0  0
   22.8971  -21.7196  -12.3697 O   0  0  0  0  0  0  0  0  0  0  0  0
   24.7318  -20.4125  -12.0361 N   0  0  0  0  0  0  0  0  0  0  0  0
   25.2791  -21.2341  -10.9561 C   0  0  1  0  0  0  0  0  0  0  0  0
   26.1950  -22.3011  -11.5633 C   0  0  0  0  0  0  0  0  0  0  0  0
   27.4385  -21.5292  -12.5997 S   0  0  0  0  0  0  0  0  0  0  0  0
   26.1406  -20.3174  -10.1630 C   0  0  0  0  0  0  0  0  0  0  0  0
   26.7788  -19.3711  -10.7385 O   0  0  0  0  0  0  0  0  0  0  0  0
   27.8172  -18.1858   -3.5317 C   0  0  0  0  0  0  0  0  0  0  0  0
   28.5535  -19.6847   -4.1791 S   0  0  0  0  0  0  0  0  0  0  0  0
   28.6824  -19.7111   -5.9664 C   0  0  0  0  0  0  0  0  0  0  0  0
   27.3870  -20.1090   -6.6365 C   0  0  0  0  0  0  0  0  0  0  0  0
   27.6013  -20.0325   -8.1520 C   0  0  2  0  0  0  0  0  0  0  0  0
   26.3280  -20.3955   -8.7658 N   0  0  0  0  0  0  0  0  0  0  0  0
   28.6449  -20.9999   -8.5418 C   0  0  0  0  0  0  0  0  0  0  0  0
   28.3880  -22.2198   -8.5829 O   0  0  0  0  0  0  0  0  0  0  0  0
   29.9037  -20.5492   -8.8602 O   0  0  0  0  0  0  0  0  0  0  0  0
  2  1  1  0
  3  2  1  0
  4  3  1  0
  5  6  1  6
  5  4  1  0
  7  5  1  0
  8  7  2  0
  9  7  1  0
 10  9  1  0
 10 13  1  0
 10 11  1  6
 12 11  1  0
 13 20  1  0
 14 13  2  0
 16 15  1  0
 17 16  1  0
 18 17  1  0
 19 18  1  1
 19 21  1  0
 20 19  1  0
 21 22  2  0
 21 23  1  0
M  END
$$$$
