MCM.pdb
     RDKit          3D

 23 22  0  0  1  0  0  0  0  0999 V2000
   26.7210  -14.3669  -14.4620 C   0  0  0  0  0  0  0  0  0  0  0  0
   25.7804  -15.5586  -15.4130 S   0  0  0  0  0  0  0  0  0  0  0  0
   24.0074  -15.2572  -15.3660 C   0  0  0  0  0  0  0  0  0  0  0  0
   23.6335  -13.9484  -16.0413 C   0  0  0  0  0  0  0  0  0  0  0  0
   22.1444  -13.7654  -15.8372 C   0  0  2  0  0  0  0  0  0  0  0  0
   21.4468  -14.8912  -16.4237 N   0  0  0  0  0  0  0  0  0  0  0  0
   21.6428  -12.5277  -16.4704 C   0  0  0  0  0  0  0  0  0  0  0  0
   21.1806  -12.5561  -17.6370 O   0  0  0  0  0  0  0  0  0  0  0  0
   21.6643  -11.2967  -15.8024 N   0  0  0  0  0  0  0  0  0  0  0  0
   21.0906  -10.0630  -16.3408 C   0  0  1  0  0  0  0  0  0  0  0  0
   19.6606   -9.9124  -15.8133 C   0  0  0  0  0  0  0  0  0  0  0  0
   19.5995  -10.3278  -14.0697 S   0  0  0  0  0  0  0  0  0  0  0  0
   21.8951   -8.9631  -15.7454 C   0  0  0  0  0  0  0  0  0  0  0  0
   22.3414   -9.0621  -14.5517 O   0  0  0  0  0  0  0  0  0  0  0  0
   26.6765   -2.7800  -16.7651 C   0  0  0  0  0  0  0  0  0  0  0  0
   25.5628   -3.9875  -17.4790 S   0  0  0  0  0  0  0  0  0  0  0  0
   24.7100   -4.9898  -16.2626 C   0  0  0  0  0  0  0  0  0  0  0  0
   23.8204   -6.0370  -16.8933 C   0  0  0  0  0  0  0  0  0  0  0  0
   23.0709   -6.7549  -15.7657 C   0  0  2  0  0  0  0  0  0  0  0  0
   22.2311   -7.7618  -16.4068 N   0  0  0  0  0  0  0  0  0  0  0  0
   22.2306   -5.7788  -15.0461 C   0  0  0  0  0  0  0  0  0  0  0  0
   21.0830   -5.5135  -15.4565 O   0  0  0  0  0  0  0  0  0  0  0  0
   22.7196   -5.1623  -13.9192 O   0  0  0  0  0  0  0  0  0  0  0  0
  2  1  1  0
  3  2  1  0
  4  3  1  0
  5  6  1  6
  5  4  1  0
  7  5  1  0
  8  7  2  0
  9  7  1  0
 10  9  1  0
 10 13  1  0
 10 11  1  1
 12 11  1  0
 13 20  1  0
 14 13  2  0
 16 15  1  0
 17 16  1  0
 18 17  1  0
 19 18  1  6
 19 21  1  0
 20 19  1  0
 21 22  2  0
 21 23  1  0
M  END
$$$$
