MCM.pdb
     RDKit          3D

 23 22  0  0  1  0  0  0  0  0999 V2000
   21.6121  -19.5812  -13.0283 C   0  0  0  0  0  0  0  0  0  0  0  0
   21.5346  -19.3164  -14.7983 S   0  0  0  0  0  0  0  0  0  0  0  0
   21.5251  -20.8487  -15.7411 C   0  0  0  0  0  0  0  0  0  0  0  0
   21.7284  -22.0653  -14.8539 C   0  0  0  0  0  0  0  0  0  0  0  0
   21.6608  -23.2775  -15.7584 C   0  0  2  0  0  0  0  0  0  0  0  0
   21.1200  -22.8782  -17.0415 N   0  0  0  0  0  0  0  0  0  0  0  0
   20.7983  -24.3410  -15.2020 C   0  0  0  0  0  0  0  0  0  0  0  0
   19.5713  -24.1372  -15.0335 O   0  0  0  0  0  0  0  0  0  0  0  0
   21.3103  -25.5957  -14.8478 N   0  0  0  0  0  0  0  0  0  0  0  0
   20.5126  -26.6657  -14.2479 C   0  0  1  0  0  0  0  0  0  0  0  0
   21.3942  -27.9079  -14.0875 C   0  0  0  0  0  0  0  0  0  0  0  0
   22.9253  -27.4749  -13.2600 S   0  0  0  0  0  0  0  0  0  0  0  0
   20.1779  -26.1868  -12.8804 C   0  0  0  0  0  0  0  0  0  0  0  0
   20.8257  -25.2159  -12.3593 O   0  0  0  0  0  0  0  0  0  0  0  0
   17.8536  -21.5647  -10.7181 C   0  0  0  0  0  0  0  0  0  0  0  0
   16.8903  -22.7267   -9.7538 S   0  0  0  0  0  0  0  0  0  0  0  0
   17.6217  -24.3595   -9.6512 C   0  0  0  0  0  0  0  0  0  0  0  0
   18.1318  -24.8525  -10.9862 C   0  0  0  0  0  0  0  0  0  0  0  0
   18.8737  -26.1717  -10.7455 C   0  0  2  0  0  0  0  0  0  0  0  0
   19.1611  -26.7279  -12.0638 N   0  0  0  0  0  0  0  0  0  0  0  0
   17.9979  -27.0876   -9.9899 C   0  0  0  0  0  0  0  0  0  0  0  0
   18.0810  -27.1554   -8.7473 O   0  0  0  0  0  0  0  0  0  0  0  0
   17.0881  -27.8671  -10.6636 O   0  0  0  0  0  0  0  0  0  0  0  0
  2  1  1  0
  3  2  1  0
  4  3  1  0
  5  6  1  6
  5  4  1  0
  7  5  1  0
  8  7  2  0
  9  7  1  0
 10  9  1  0
 10 13  1  0
 10 11  1  1
 12 11  1  0
 13 20  1  0
 14 13  2  0
 16 15  1  0
 17 16  1  0
 18 17  1  0
 19 18  1  6
 19 21  1  0
 20 19  1  0
 21 22  2  0
 21 23  1  0
M  END
$$$$
