MCM.pdb
     RDKit          3D

 23 22  0  0  1  0  0  0  0  0999 V2000
   15.2455  -12.5132  -17.3292 C   0  0  0  0  0  0  0  0  0  0  0  0
   16.5919  -13.1757  -18.3077 S   0  0  0  0  0  0  0  0  0  0  0  0
   18.2094  -12.6184  -17.7509 C   0  0  0  0  0  0  0  0  0  0  0  0
   18.1063  -11.4900  -16.7385 C   0  0  0  0  0  0  0  0  0  0  0  0
   19.5241  -11.1044  -16.3735 C   0  0  2  0  0  0  0  0  0  0  0  0
   20.1435  -12.2044  -15.6633 N   0  0  0  0  0  0  0  0  0  0  0  0
   19.5711   -9.9077  -15.5073 C   0  0  0  0  0  0  0  0  0  0  0  0
   18.7461   -9.7713  -14.5713 O   0  0  0  0  0  0  0  0  0  0  0  0
   20.5230   -8.8976  -15.6961 N   0  0  0  0  0  0  0  0  0  0  0  0
   20.5796   -7.6680  -14.9051 C   0  0  1  0  0  0  0  0  0  0  0  0
   22.0041   -7.4899  -14.3710 C   0  0  0  0  0  0  0  0  0  0  0  0
   22.1910   -5.8612  -13.6439 S   0  0  0  0  0  0  0  0  0  0  0  0
   20.3342   -6.5663  -15.8733 C   0  0  0  0  0  0  0  0  0  0  0  0
   21.0816   -6.4313  -16.9015 O   0  0  0  0  0  0  0  0  0  0  0  0
   15.4284   -1.2390  -19.0135 C   0  0  0  0  0  0  0  0  0  0  0  0
   15.7638   -2.4147  -17.7046 S   0  0  0  0  0  0  0  0  0  0  0  0
   17.4364   -3.0580  -17.7242 C   0  0  0  0  0  0  0  0  0  0  0  0
   17.6647   -4.1152  -16.6679 C   0  0  0  0  0  0  0  0  0  0  0  0
   19.1269   -4.5639  -16.7633 C   0  0  2  0  0  0  0  0  0  0  0  0
   19.3020   -5.6096  -15.7604 N   0  0  0  0  0  0  0  0  0  0  0  0
   20.0049   -3.4181  -16.4580 C   0  0  0  0  0  0  0  0  0  0  0  0
   20.2224   -3.0901  -15.2744 O   0  0  0  0  0  0  0  0  0  0  0  0
   20.5830   -2.7128  -17.4864 O   0  0  0  0  0  0  0  0  0  0  0  0
  2  1  1  0
  3  2  1  0
  4  3  1  0
  5  6  1  1
  5  4  1  0
  7  5  1  0
  8  7  2  0
  9  7  1  0
 10  9  1  0
 10 13  1  0
 10 11  1  6
 12 11  1  0
 13 20  1  0
 14 13  2  0
 16 15  1  0
 17 16  1  0
 18 17  1  0
 19 18  1  1
 19 21  1  0
 20 19  1  0
 21 22  2  0
 21 23  1  0
M  END
$$$$
