YAV.pdb
     RDKit          3D

 25 25  0  0  1  0  0  0  0  0999 V2000
   15.9859  -20.1880  -17.6210 O   0  0  0  0  0  0  0  0  0  0  0  0
   17.3573  -20.3335  -17.3899 C   0  0  0  0  0  0  0  0  0  0  0  0
   18.0706  -21.4084  -17.8595 C   0  0  0  0  0  0  0  0  0  0  0  0
   19.4401  -21.5129  -17.6047 C   0  0  0  0  0  0  0  0  0  0  0  0
   20.1193  -20.5564  -16.8829 C   0  0  0  0  0  0  0  0  0  0  0  0
   21.5613  -20.6400  -16.5929 C   0  0  0  0  0  0  0  0  0  0  0  0
   22.4003  -19.6121  -17.3159 C   0  0  2  0  0  0  0  0  0  0  0  0
   22.6436  -20.1608  -18.6427 N   0  0  0  0  0  0  0  0  0  0  0  0
   23.6521  -19.4056  -16.5692 C   0  0  0  0  0  0  0  0  0  0  0  0
   24.5920  -20.2340  -16.6755 O   0  0  0  0  0  0  0  0  0  0  0  0
   19.3655  -19.4777  -16.4205 C   0  0  0  0  0  0  0  0  0  0  0  0
   18.0134  -19.3696  -16.6693 C   0  0  0  0  0  0  0  0  0  0  0  0
   25.2899  -16.8071  -14.3550 C   0  0  0  0  0  0  0  0  0  0  0  0
   25.1131  -18.1699  -14.9878 C   0  0  2  0  0  0  0  0  0  0  0  0
   23.8865  -18.2983  -15.7046 N   0  0  0  0  0  0  0  0  0  0  0  0
   25.2866  -19.1798  -13.9211 C   0  0  0  0  0  0  0  0  0  0  0  0
   24.2386  -19.7323  -13.4845 O   0  0  0  0  0  0  0  0  0  0  0  0
   28.0907  -21.7173  -10.6745 C   0  0  0  0  0  0  0  0  0  0  0  0
   28.0169  -20.6521  -11.7600 C   0  0  1  0  0  0  0  0  0  0  0  0
   29.0134  -20.9680  -12.8378 C   0  0  0  0  0  0  0  0  0  0  0  0
   26.6068  -20.5280  -12.3050 C   0  0  2  0  0  0  0  0  0  0  0  0
   26.5349  -19.5534  -13.3738 N   0  0  0  0  0  0  0  0  0  0  0  0
   25.7513  -20.0910  -11.1717 C   0  0  0  0  0  0  0  0  0  0  0  0
   24.8396  -20.9490  -10.5643 O   0  0  0  0  0  0  0  0  0  0  0  0
   25.8747  -18.9053  -10.7689 O   0  0  0  0  0  0  0  0  0  0  0  0
  2  1  1  0
  3  2  2  0
  4  5  2  0
  4  3  1  0
  5 11  1  0
  6  5  1  0
  7  9  1  0
  7  6  1  0
  7  8  1  6
  9 10  2  0
 11 12  2  0
 12  2  1  0
 14 13  1  1
 15 14  1  0
 15  9  1  0
 16 22  1  0
 16 14  1  0
 17 16  2  0
 19 18  1  1
 19 20  1  0
 21 19  1  0
 21 22  1  6
 23 21  1  0
 23 24  1  0
 25 23  2  0
M  END
$$$$
