YAV.pdb
     RDKit          3D

 25 25  0  0  1  0  0  0  0  0999 V2000
   24.0639  -11.6879  -16.8764 O   0  0  0  0  0  0  0  0  0  0  0  0
   24.2091  -13.0480  -16.5864 C   0  0  0  0  0  0  0  0  0  0  0  0
   25.0892  -13.5061  -15.6376 C   0  0  0  0  0  0  0  0  0  0  0  0
   25.2014  -14.8746  -15.3804 C   0  0  0  0  0  0  0  0  0  0  0  0
   24.4451  -15.8050  -16.0583 C   0  0  0  0  0  0  0  0  0  0  0  0
   24.5435  -17.2546  -15.8143 C   0  0  0  0  0  0  0  0  0  0  0  0
   25.7485  -17.9102  -16.4478 C   0  0  2  0  0  0  0  0  0  0  0  0
   25.2923  -18.4212  -17.7328 N   0  0  0  0  0  0  0  0  0  0  0  0
   26.2251  -18.9884  -15.5661 C   0  0  0  0  0  0  0  0  0  0  0  0
   25.5291  -20.0229  -15.4047 O   0  0  0  0  0  0  0  0  0  0  0  0
   23.5611  -15.3065  -17.0153 C   0  0  0  0  0  0  0  0  0  0  0  0
   23.4464  -13.9566  -17.2729 C   0  0  0  0  0  0  0  0  0  0  0  0
   29.1888  -19.8267  -13.3575 C   0  0  0  0  0  0  0  0  0  0  0  0
   27.7540  -19.8940  -13.8328 C   0  0  2  0  0  0  0  0  0  0  0  0
   27.4596  -18.9458  -14.8570 N   0  0  0  0  0  0  0  0  0  0  0  0
   26.8863  -19.7705  -12.6413 C   0  0  0  0  0  0  0  0  0  0  0  0
   26.6462  -18.6009  -12.2308 O   0  0  0  0  0  0  0  0  0  0  0  0
   23.4051  -20.3379  -12.1952 C   0  0  0  0  0  0  0  0  0  0  0  0
   24.0507  -21.1321  -11.0680 C   0  0  1  0  0  0  0  0  0  0  0  0
   24.0058  -22.5959  -11.3994 C   0  0  0  0  0  0  0  0  0  0  0  0
   25.4644  -20.6499  -10.8036 C   0  0  2  0  0  0  0  0  0  0  0  0
   26.3221  -20.8666  -11.9502 N   0  0  0  0  0  0  0  0  0  0  0  0
   25.9697  -21.4325   -9.6463 C   0  0  0  0  0  0  0  0  0  0  0  0
   25.5041  -21.2172   -8.3528 O   0  0  0  0  0  0  0  0  0  0  0  0
   26.8440  -22.3094   -9.8700 O   0  0  0  0  0  0  0  0  0  0  0  0
  2  1  1  0
  3  2  2  0
  4  5  2  0
  4  3  1  0
  5 11  1  0
  6  5  1  0
  7  9  1  0
  7  6  1  0
  7  8  1  6
  9 10  2  0
 11 12  2  0
 12  2  1  0
 14 13  1  1
 15 14  1  0
 15  9  1  0
 16 22  1  0
 16 14  1  0
 17 16  2  0
 19 18  1  6
 19 20  1  0
 21 19  1  0
 21 22  1  6
 23 21  1  0
 23 24  1  0
 25 23  2  0
M  END
$$$$
