YAV.pdb
     RDKit          3D

 25 25  0  0  1  0  0  0  0  0999 V2000
   16.4813  -20.8749    2.1745 O   0  0  0  0  0  0  0  0  0  0  0  0
   16.7983  -20.0113    3.2276 C   0  0  0  0  0  0  0  0  0  0  0  0
   17.2018  -18.7160    3.0182 C   0  0  0  0  0  0  0  0  0  0  0  0
   17.5087  -17.8881    4.1008 C   0  0  0  0  0  0  0  0  0  0  0  0
   17.4203  -18.3316    5.4017 C   0  0  0  0  0  0  0  0  0  0  0  0
   17.7415  -17.4855    6.5643 C   0  0  0  0  0  0  0  0  0  0  0  0
   16.5778  -17.2459    7.4979 C   0  0  2  0  0  0  0  0  0  0  0  0
   15.6529  -16.3907    6.7674 N   0  0  0  0  0  0  0  0  0  0  0  0
   17.0735  -16.5980    8.7234 C   0  0  0  0  0  0  0  0  0  0  0  0
   16.9201  -15.3609    8.8870 O   0  0  0  0  0  0  0  0  0  0  0  0
   17.0074  -19.6521    5.5796 C   0  0  0  0  0  0  0  0  0  0  0  0
   16.7032  -20.4735    4.5145 C   0  0  0  0  0  0  0  0  0  0  0  0
   17.7319  -17.4081   12.2246 C   0  0  0  0  0  0  0  0  0  0  0  0
   18.1012  -16.6267   10.9828 C   0  0  2  0  0  0  0  0  0  0  0  0
   17.7373  -17.2925    9.7749 N   0  0  0  0  0  0  0  0  0  0  0  0
   19.5422  -16.3055   11.0735 C   0  0  0  0  0  0  0  0  0  0  0  0
   19.9581  -15.8633   12.1806 O   0  0  0  0  0  0  0  0  0  0  0  0
   22.6498  -18.5059    9.7782 C   0  0  0  0  0  0  0  0  0  0  0  0
   22.7449  -17.0502    9.3419 C   0  0  1  0  0  0  0  0  0  0  0  0
   22.3982  -16.9423    7.8849 C   0  0  0  0  0  0  0  0  0  0  0  0
   21.8656  -16.1654   10.2049 C   0  0  2  0  0  0  0  0  0  0  0  0
   20.4615  -16.4628   10.0116 N   0  0  0  0  0  0  0  0  0  0  0  0
   22.1410  -14.7645    9.7942 C   0  0  0  0  0  0  0  0  0  0  0  0
   23.2791  -14.0842   10.2163 O   0  0  0  0  0  0  0  0  0  0  0  0
   21.3046  -14.2000    9.0424 O   0  0  0  0  0  0  0  0  0  0  0  0
  2  1  1  0
  3  2  2  0
  4  5  2  0
  4  3  1  0
  5 11  1  0
  6  5  1  0
  7  9  1  0
  7  6  1  0
  7  8  1  6
  9 10  2  0
 11 12  2  0
 12  2  1  0
 14 13  1  1
 15 14  1  0
 15  9  1  0
 16 22  1  0
 16 14  1  0
 17 16  2  0
 19 18  1  1
 19 20  1  0
 21 19  1  0
 21 22  1  6
 23 21  1  0
 23 24  1  0
 25 23  2  0
M  END
$$$$
