YAV.pdb
     RDKit          3D

 25 25  0  0  1  0  0  0  0  0999 V2000
   20.9051  -28.9862  -18.8200 O   0  0  0  0  0  0  0  0  0  0  0  0
   21.0923  -29.6191  -17.5873 C   0  0  0  0  0  0  0  0  0  0  0  0
   21.7046  -28.9962  -16.5282 C   0  0  0  0  0  0  0  0  0  0  0  0
   21.8707  -29.6671  -15.3141 C   0  0  0  0  0  0  0  0  0  0  0  0
   21.4334  -30.9607  -15.1339 C   0  0  0  0  0  0  0  0  0  0  0  0
   21.5979  -31.6972  -13.8685 C   0  0  0  0  0  0  0  0  0  0  0  0
   23.0149  -32.1405  -13.5881 C   0  0  2  0  0  0  0  0  0  0  0  0
   23.2830  -33.2258  -14.5214 N   0  0  0  0  0  0  0  0  0  0  0  0
   23.1088  -32.5847  -12.1878 C   0  0  0  0  0  0  0  0  0  0  0  0
   22.9224  -33.7938  -11.8976 O   0  0  0  0  0  0  0  0  0  0  0  0
   20.8158  -31.5643  -16.2293 C   0  0  0  0  0  0  0  0  0  0  0  0
   20.6493  -30.9066  -17.4298 C   0  0  0  0  0  0  0  0  0  0  0  0
   24.1404  -31.2018   -8.8160 C   0  0  0  0  0  0  0  0  0  0  0  0
   23.5737  -32.2245   -9.7761 C   0  0  2  0  0  0  0  0  0  0  0  0
   23.4055  -31.7165  -11.0984 N   0  0  0  0  0  0  0  0  0  0  0  0
   22.3271  -32.7505   -9.1784 C   0  0  0  0  0  0  0  0  0  0  0  0
   21.2569  -32.1483   -9.4721 O   0  0  0  0  0  0  0  0  0  0  0  0
   20.6642  -36.0228   -9.7215 C   0  0  0  0  0  0  0  0  0  0  0  0
   20.8202  -35.8427   -8.2177 C   0  0  1  0  0  0  0  0  0  0  0  0
   21.9671  -36.6806   -7.7309 C   0  0  0  0  0  0  0  0  0  0  0  0
   20.9912  -34.3784   -7.8604 C   0  0  2  0  0  0  0  0  0  0  0  0
   22.2679  -33.8671   -8.3142 N   0  0  0  0  0  0  0  0  0  0  0  0
   20.9160  -34.2920   -6.3792 C   0  0  0  0  0  0  0  0  0  0  0  0
   19.6995  -34.2295   -5.7065 O   0  0  0  0  0  0  0  0  0  0  0  0
   21.9988  -34.2764   -5.7383 O   0  0  0  0  0  0  0  0  0  0  0  0
  2  1  1  0
  3  2  2  0
  4  5  2  0
  4  3  1  0
  5 11  1  0
  6  5  1  0
  7  9  1  0
  7  6  1  0
  7  8  1  6
  9 10  2  0
 11 12  2  0
 12  2  1  0
 14 13  1  1
 15 14  1  0
 15  9  1  0
 16 22  1  0
 16 14  1  0
 17 16  2  0
 19 18  1  6
 19 20  1  0
 21 19  1  0
 21 22  1  1
 23 21  1  0
 23 24  1  0
 25 23  2  0
M  END
$$$$
