YAV.pdb
     RDKit          3D

 25 25  0  0  1  0  0  0  0  0999 V2000
   15.3698  -14.0845  -14.4508 O   0  0  0  0  0  0  0  0  0  0  0  0
   15.9451  -12.8152  -14.5653 C   0  0  0  0  0  0  0  0  0  0  0  0
   17.1204  -12.6005  -15.2415 C   0  0  0  0  0  0  0  0  0  0  0  0
   17.6592  -11.3147  -15.3307 C   0  0  0  0  0  0  0  0  0  0  0  0
   17.0423  -10.2274  -14.7525 C   0  0  0  0  0  0  0  0  0  0  0  0
   17.5871   -8.8604  -14.8242 C   0  0  0  0  0  0  0  0  0  0  0  0
   18.6978   -8.5825  -13.8381 C   0  0  2  0  0  0  0  0  0  0  0  0
   18.0527   -8.4586  -12.5385 N   0  0  0  0  0  0  0  0  0  0  0  0
   19.3859   -7.3415  -14.2301 C   0  0  0  0  0  0  0  0  0  0  0  0
   19.0045   -6.2372  -13.7657 O   0  0  0  0  0  0  0  0  0  0  0  0
   15.8504  -10.4799  -14.0733 C   0  0  0  0  0  0  0  0  0  0  0  0
   15.3142  -11.7471  -13.9823 C   0  0  0  0  0  0  0  0  0  0  0  0
   22.4804   -6.2626  -16.1209 C   0  0  0  0  0  0  0  0  0  0  0  0
   21.1547   -6.0681  -15.4183 C   0  0  2  0  0  0  0  0  0  0  0  0
   20.4906   -7.2967  -15.1281 N   0  0  0  0  0  0  0  0  0  0  0  0
   20.3504   -5.1372  -16.2394 C   0  0  0  0  0  0  0  0  0  0  0  0
   19.6756   -5.6441  -17.1784 O   0  0  0  0  0  0  0  0  0  0  0  0
   17.3094   -3.1632  -15.5919 C   0  0  0  0  0  0  0  0  0  0  0  0
   18.3930   -2.1948  -16.0463 C   0  0  1  0  0  0  0  0  0  0  0  0
   18.9786   -1.5035  -14.8489 C   0  0  0  0  0  0  0  0  0  0  0  0
   19.4504   -2.9083  -16.8672 C   0  0  2  0  0  0  0  0  0  0  0  0
   20.2959   -3.7397  -16.0358 N   0  0  0  0  0  0  0  0  0  0  0  0
   20.2696   -1.8511  -17.5140 C   0  0  0  0  0  0  0  0  0  0  0  0
   19.7738   -1.0676  -18.5516 O   0  0  0  0  0  0  0  0  0  0  0  0
   21.4426   -1.6799  -17.0921 O   0  0  0  0  0  0  0  0  0  0  0  0
  2  1  1  0
  3  2  2  0
  4  5  2  0
  4  3  1  0
  5 11  1  0
  6  5  1  0
  7  9  1  0
  7  6  1  0
  7  8  1  1
  9 10  2  0
 11 12  2  0
 12  2  1  0
 14 13  1  6
 15 14  1  0
 15  9  1  0
 16 22  1  0
 16 14  1  0
 17 16  2  0
 19 18  1  1
 19 20  1  0
 21 19  1  0
 21 22  1  1
 23 21  1  0
 23 24  1  0
 25 23  2  0
M  END
$$$$
