YAV.pdb
     RDKit          3D

 25 25  0  0  1  0  0  0  0  0999 V2000
   22.9889  -20.3158   -9.6187 O   0  0  0  0  0  0  0  0  0  0  0  0
   23.5496  -20.9342  -10.7405 C   0  0  0  0  0  0  0  0  0  0  0  0
   22.7856  -21.3868  -11.7874 C   0  0  0  0  0  0  0  0  0  0  0  0
   23.3886  -21.9990  -12.8889 C   0  0  0  0  0  0  0  0  0  0  0  0
   24.7530  -22.1706  -12.9672 C   0  0  0  0  0  0  0  0  0  0  0  0
   25.4187  -22.8164  -14.1120 C   0  0  0  0  0  0  0  0  0  0  0  0
   25.9596  -21.8509  -15.1408 C   0  0  2  0  0  0  0  0  0  0  0  0
   24.7970  -21.1787  -15.7038 N   0  0  0  0  0  0  0  0  0  0  0  0
   26.7044  -22.6069  -16.1611 C   0  0  0  0  0  0  0  0  0  0  0  0
   26.0836  -23.2699  -17.0305 O   0  0  0  0  0  0  0  0  0  0  0  0
   25.4998  -21.6997  -11.8873 C   0  0  0  0  0  0  0  0  0  0  0  0
   24.9096  -21.0946  -10.7978 C   0  0  0  0  0  0  0  0  0  0  0  0
   30.0286  -22.6672  -17.7871 C   0  0  0  0  0  0  0  0  0  0  0  0
   28.7874  -23.3663  -17.2773 C   0  0  2  0  0  0  0  0  0  0  0  0
   28.1260  -22.6448  -16.2397 N   0  0  0  0  0  0  0  0  0  0  0  0
   29.1795  -24.7390  -16.8901 C   0  0  0  0  0  0  0  0  0  0  0  0
   29.7222  -24.8780  -15.7586 O   0  0  0  0  0  0  0  0  0  0  0  0
   27.1531  -27.9135  -16.3552 C   0  0  0  0  0  0  0  0  0  0  0  0
   28.2591  -28.1979  -17.3623 C   0  0  1  0  0  0  0  0  0  0  0  0
   27.6795  -28.2195  -18.7473 C   0  0  0  0  0  0  0  0  0  0  0  0
   29.3861  -27.1912  -17.2309 C   0  0  2  0  0  0  0  0  0  0  0  0
   28.9845  -25.8811  -17.6994 N   0  0  0  0  0  0  0  0  0  0  0  0
   30.5067  -27.6983  -18.0641 C   0  0  0  0  0  0  0  0  0  0  0  0
   31.3551  -28.7081  -17.6206 O   0  0  0  0  0  0  0  0  0  0  0  0
   30.6712  -27.1823  -19.1999 O   0  0  0  0  0  0  0  0  0  0  0  0
  2  1  1  0
  3  2  2  0
  4  5  2  0
  4  3  1  0
  5 11  1  0
  6  5  1  0
  7  9  1  0
  7  6  1  0
  7  8  1  6
  9 10  2  0
 11 12  2  0
 12  2  1  0
 14 13  1  1
 15 14  1  0
 15  9  1  0
 16 22  1  0
 16 14  1  0
 17 16  2  0
 19 18  1  1
 19 20  1  0
 21 19  1  0
 21 22  1  6
 23 21  1  0
 23 24  1  0
 25 23  2  0
M  END
$$$$
