YAV.pdb
     RDKit          3D

 25 25  0  0  1  0  0  0  0  0999 V2000
   23.7399  -21.1300   -7.9589 O   0  0  0  0  0  0  0  0  0  0  0  0
   24.1041  -20.9046   -9.2900 C   0  0  0  0  0  0  0  0  0  0  0  0
   23.1751  -20.7203  -10.2838 C   0  0  0  0  0  0  0  0  0  0  0  0
   23.5844  -20.4979  -11.6008 C   0  0  0  0  0  0  0  0  0  0  0  0
   24.9162  -20.4554  -11.9497 C   0  0  0  0  0  0  0  0  0  0  0  0
   25.3800  -20.2281  -13.3295 C   0  0  0  0  0  0  0  0  0  0  0  0
   24.8200  -21.2012  -14.3408 C   0  0  2  0  0  0  0  0  0  0  0  0
   25.3939  -22.4967  -14.0047 N   0  0  0  0  0  0  0  0  0  0  0  0
   25.2073  -20.7628  -15.6917 C   0  0  0  0  0  0  0  0  0  0  0  0
   26.3721  -20.9784  -16.1131 O   0  0  0  0  0  0  0  0  0  0  0  0
   25.8338  -20.6463  -10.9167 C   0  0  0  0  0  0  0  0  0  0  0  0
   25.4351  -20.8661   -9.6150 C   0  0  0  0  0  0  0  0  0  0  0  0
   23.6301  -19.3575  -18.8226 C   0  0  0  0  0  0  0  0  0  0  0  0
   24.7708  -19.6810  -17.8828 C   0  0  2  0  0  0  0  0  0  0  0  0
   24.3302  -20.0889  -16.5889 N   0  0  0  0  0  0  0  0  0  0  0  0
   25.6732  -18.5093  -17.8615 C   0  0  0  0  0  0  0  0  0  0  0  0
   25.4998  -17.6743  -16.9305 O   0  0  0  0  0  0  0  0  0  0  0  0
   29.4763  -18.9281  -18.2756 C   0  0  0  0  0  0  0  0  0  0  0  0
   28.8061  -17.6868  -17.7026 C   0  0  1  0  0  0  0  0  0  0  0  0
   29.8359  -16.6137  -17.4964 C   0  0  0  0  0  0  0  0  0  0  0  0
   27.6689  -17.2230  -18.5929 C   0  0  2  0  0  0  0  0  0  0  0  0
   26.6984  -18.2766  -18.8061 N   0  0  0  0  0  0  0  0  0  0  0  0
   28.2782  -16.8344  -19.8909 C   0  0  0  0  0  0  0  0  0  0  0  0
   28.9409  -15.6225  -20.0592 O   0  0  0  0  0  0  0  0  0  0  0  0
   28.1776  -17.6430  -20.8498 O   0  0  0  0  0  0  0  0  0  0  0  0
  2  1  1  0
  3  2  2  0
  4  5  2  0
  4  3  1  0
  5 11  1  0
  6  5  1  0
  7  9  1  0
  7  6  1  0
  7  8  1  1
  9 10  2  0
 11 12  2  0
 12  2  1  0
 14 13  1  6
 15 14  1  0
 15  9  1  0
 16 22  1  0
 16 14  1  0
 17 16  2  0
 19 18  1  6
 19 20  1  0
 21 19  1  0
 21 22  1  6
 23 21  1  0
 23 24  1  0
 25 23  2  0
M  END
$$$$
