YAV.pdb
     RDKit          3D

 25 25  0  0  1  0  0  0  0  0999 V2000
   33.1376  -13.6072  -18.7828 O   0  0  0  0  0  0  0  0  0  0  0  0
   32.4191  -14.5809  -18.0821 C   0  0  0  0  0  0  0  0  0  0  0  0
   32.6954  -14.8982  -16.7753 C   0  0  0  0  0  0  0  0  0  0  0  0
   31.9514  -15.8783  -16.1140 C   0  0  0  0  0  0  0  0  0  0  0  0
   30.9265  -16.5554  -16.7372 C   0  0  0  0  0  0  0  0  0  0  0  0
   30.1269  -17.5972  -16.0694 C   0  0  0  0  0  0  0  0  0  0  0  0
   30.7529  -18.9723  -16.0959 C   0  0  2  0  0  0  0  0  0  0  0  0
   30.6461  -19.4302  -17.4741 N   0  0  0  0  0  0  0  0  0  0  0  0
   30.0204  -19.8492  -15.1677 C   0  0  0  0  0  0  0  0  0  0  0  0
   28.8818  -20.2828  -15.4782 O   0  0  0  0  0  0  0  0  0  0  0  0
   30.6718  -16.2092  -18.0641 C   0  0  0  0  0  0  0  0  0  0  0  0
   31.4031  -15.2424  -18.7215 C   0  0  0  0  0  0  0  0  0  0  0  0
   30.5028  -21.5270  -11.8009 C   0  0  0  0  0  0  0  0  0  0  0  0
   29.7368  -21.0585  -13.0185 C   0  0  2  0  0  0  0  0  0  0  0  0
   30.5228  -20.2576  -13.8991 N   0  0  0  0  0  0  0  0  0  0  0  0
   28.5101  -20.3857  -12.5385 C   0  0  0  0  0  0  0  0  0  0  0  0
   28.5793  -19.1382  -12.3567 O   0  0  0  0  0  0  0  0  0  0  0  0
   23.7362  -19.7750  -11.9113 C   0  0  0  0  0  0  0  0  0  0  0  0
   24.9361  -20.4317  -12.5799 C   0  0  1  0  0  0  0  0  0  0  0  0
   25.1504  -19.8190  -13.9339 C   0  0  0  0  0  0  0  0  0  0  0  0
   26.1706  -20.3278  -11.7046 C   0  0  2  0  0  0  0  0  0  0  0  0
   27.2892  -21.0477  -12.2772 N   0  0  0  0  0  0  0  0  0  0  0  0
   25.8112  -20.9243  -10.3923 C   0  0  0  0  0  0  0  0  0  0  0  0
   25.2904  -20.1585   -9.3538 O   0  0  0  0  0  0  0  0  0  0  0  0
   25.9930  -22.1604  -10.2421 O   0  0  0  0  0  0  0  0  0  0  0  0
  2  1  1  0
  3  2  2  0
  4  5  2  0
  4  3  1  0
  5 11  1  0
  6  5  1  0
  7  9  1  0
  7  6  1  0
  7  8  1  6
  9 10  2  0
 11 12  2  0
 12  2  1  0
 14 13  1  1
 15 14  1  0
 15  9  1  0
 16 22  1  0
 16 14  1  0
 17 16  2  0
 19 18  1  1
 19 20  1  0
 21 19  1  0
 21 22  1  6
 23 21  1  0
 23 24  1  0
 25 23  2  0
M  END
$$$$
