YAV.pdb
     RDKit          3D

 25 25  0  0  1  0  0  0  0  0999 V2000
   29.5446  -19.4136   -5.8786 O   0  0  0  0  0  0  0  0  0  0  0  0
   28.6203  -19.7148   -6.8837 C   0  0  0  0  0  0  0  0  0  0  0  0
   27.5116  -18.9397   -7.1172 C   0  0  0  0  0  0  0  0  0  0  0  0
   26.6141  -19.2784   -8.1328 C   0  0  0  0  0  0  0  0  0  0  0  0
   26.8028  -20.3868   -8.9283 C   0  0  0  0  0  0  0  0  0  0  0  0
   25.8729  -20.7738  -10.0035 C   0  0  0  0  0  0  0  0  0  0  0  0
   26.5459  -21.1198  -11.3114 C   0  0  2  0  0  0  0  0  0  0  0  0
   27.4763  -20.0320  -11.5787 N   0  0  0  0  0  0  0  0  0  0  0  0
   25.5202  -21.2355  -12.3611 C   0  0  0  0  0  0  0  0  0  0  0  0
   25.0197  -20.1997  -12.8684 O   0  0  0  0  0  0  0  0  0  0  0  0
   27.9386  -21.1525   -8.6650 C   0  0  0  0  0  0  0  0  0  0  0  0
   28.8277  -20.8225   -7.6639 C   0  0  0  0  0  0  0  0  0  0  0  0
   23.8814  -23.9135  -14.4815 C   0  0  0  0  0  0  0  0  0  0  0  0
   24.0829  -22.5216  -13.9237 C   0  0  2  0  0  0  0  0  0  0  0  0
   25.0353  -22.4772  -12.8628 N   0  0  0  0  0  0  0  0  0  0  0  0
   22.7514  -21.9972  -13.5496 C   0  0  0  0  0  0  0  0  0  0  0  0
   22.3961  -22.1512  -12.3479 O   0  0  0  0  0  0  0  0  0  0  0  0
   18.8735  -19.0456  -14.1579 C   0  0  0  0  0  0  0  0  0  0  0  0
   20.2949  -19.4706  -14.5002 C   0  0  1  0  0  0  0  0  0  0  0  0
   21.2629  -18.4610  -13.9540 C   0  0  0  0  0  0  0  0  0  0  0  0
   20.5816  -20.8702  -13.9903 C   0  0  2  0  0  0  0  0  0  0  0  0
   21.8719  -21.3462  -14.4441 N   0  0  0  0  0  0  0  0  0  0  0  0
   19.5085  -21.7454  -14.5284 C   0  0  0  0  0  0  0  0  0  0  0  0
   18.3861  -22.0801  -13.7771 O   0  0  0  0  0  0  0  0  0  0  0  0
   19.6432  -22.1832  -15.7004 O   0  0  0  0  0  0  0  0  0  0  0  0
  2  1  1  0
  3  2  2  0
  4  5  2  0
  4  3  1  0
  5 11  1  0
  6  5  1  0
  7  9  1  0
  7  6  1  0
  7  8  1  6
  9 10  2  0
 11 12  2  0
 12  2  1  0
 14 13  1  1
 15 14  1  0
 15  9  1  0
 16 22  1  0
 16 14  1  0
 17 16  2  0
 19 18  1  1
 19 20  1  0
 21 19  1  0
 21 22  1  6
 23 21  1  0
 23 24  1  0
 25 23  2  0
M  END
$$$$
