YAV.pdb
     RDKit          3D

 25 25  0  0  1  0  0  0  0  0999 V2000
   19.5983  -17.4657  -22.1409 O   0  0  0  0  0  0  0  0  0  0  0  0
   20.5204  -17.9391  -21.2023 C   0  0  0  0  0  0  0  0  0  0  0  0
   20.8196  -17.2480  -20.0546 C   0  0  0  0  0  0  0  0  0  0  0  0
   21.7478  -17.7591  -19.1441 C   0  0  0  0  0  0  0  0  0  0  0  0
   22.3902  -18.9584  -19.3584 C   0  0  0  0  0  0  0  0  0  0  0  0
   23.3772  -19.5218  -18.4208 C   0  0  0  0  0  0  0  0  0  0  0  0
   24.7738  -18.9683  -18.5833 C   0  0  2  0  0  0  0  0  0  0  0  0
   25.4013  -19.7737  -19.6217 N   0  0  0  0  0  0  0  0  0  0  0  0
   25.4842  -19.0784  -17.2986 C   0  0  0  0  0  0  0  0  0  0  0  0
   26.0837  -20.1426  -17.0005 O   0  0  0  0  0  0  0  0  0  0  0  0
   22.0634  -19.6351  -20.5335 C   0  0  0  0  0  0  0  0  0  0  0  0
   21.1479  -19.1352  -21.4355 C   0  0  0  0  0  0  0  0  0  0  0  0
   26.3961  -16.9145  -14.3236 C   0  0  0  0  0  0  0  0  0  0  0  0
   26.2585  -18.1997  -15.1099 C   0  0  2  0  0  0  0  0  0  0  0  0
   25.5454  -18.0323  -16.3339 N   0  0  0  0  0  0  0  0  0  0  0  0
   25.6625  -19.2093  -14.2081 C   0  0  0  0  0  0  0  0  0  0  0  0
   24.4219  -19.4139  -14.3235 O   0  0  0  0  0  0  0  0  0  0  0  0
   27.3995  -20.4509  -10.5200 C   0  0  0  0  0  0  0  0  0  0  0  0
   26.6742  -21.4903  -11.3637 C   0  0  1  0  0  0  0  0  0  0  0  0
   25.9909  -22.4771  -10.4615 C   0  0  0  0  0  0  0  0  0  0  0  0
   25.7047  -20.8297  -12.3253 C   0  0  2  0  0  0  0  0  0  0  0  0
   26.3893  -19.9434  -13.2435 N   0  0  0  0  0  0  0  0  0  0  0  0
   24.7503  -20.0499  -11.4958 C   0  0  0  0  0  0  0  0  0  0  0  0
   23.5155  -20.5655  -11.1138 O   0  0  0  0  0  0  0  0  0  0  0  0
   25.0932  -18.8921  -11.1418 O   0  0  0  0  0  0  0  0  0  0  0  0
  2  1  1  0
  3  2  2  0
  4  5  2  0
  4  3  1  0
  5 11  1  0
  6  5  1  0
  7  9  1  0
  7  6  1  0
  7  8  1  6
  9 10  2  0
 11 12  2  0
 12  2  1  0
 14 13  1  1
 15 14  1  0
 15  9  1  0
 16 22  1  0
 16 14  1  0
 17 16  2  0
 19 18  1  1
 19 20  1  0
 21 19  1  0
 21 22  1  6
 23 21  1  0
 23 24  1  0
 25 23  2  0
M  END
$$$$
