YAV.pdb
     RDKit          3D

 25 25  0  0  1  0  0  0  0  0999 V2000
   26.4279  -17.1685  -15.7017 O   0  0  0  0  0  0  0  0  0  0  0  0
   25.6929  -15.9907  -15.8687 C   0  0  0  0  0  0  0  0  0  0  0  0
   25.3994  -15.1542  -14.8205 C   0  0  0  0  0  0  0  0  0  0  0  0
   24.6618  -13.9870  -15.0336 C   0  0  0  0  0  0  0  0  0  0  0  0
   24.2063  -13.6344  -16.2847 C   0  0  0  0  0  0  0  0  0  0  0  0
   23.4222  -12.4138  -16.5414 C   0  0  0  0  0  0  0  0  0  0  0  0
   21.9906  -12.4837  -16.0629 C   0  0  2  0  0  0  0  0  0  0  0  0
   21.3381  -13.4743  -16.9076 N   0  0  0  0  0  0  0  0  0  0  0  0
   21.3749  -11.1536  -16.2005 C   0  0  0  0  0  0  0  0  0  0  0  0
   21.1466  -10.6813  -17.3432 O   0  0  0  0  0  0  0  0  0  0  0  0
   24.5217  -14.5057  -17.3273 C   0  0  0  0  0  0  0  0  0  0  0  0
   25.2495  -15.6589  -17.1225 C   0  0  0  0  0  0  0  0  0  0  0  0
   19.0226   -8.9232  -14.7862 C   0  0  0  0  0  0  0  0  0  0  0  0
   20.4417   -9.0378  -15.2981 C   0  0  2  0  0  0  0  0  0  0  0  0
   21.0054  -10.3326  -15.0969 N   0  0  0  0  0  0  0  0  0  0  0  0
   21.2251   -7.9458  -14.6803 C   0  0  0  0  0  0  0  0  0  0  0  0
   21.8883   -8.2360  -13.6459 O   0  0  0  0  0  0  0  0  0  0  0  0
   23.6054   -5.4676  -16.6053 C   0  0  0  0  0  0  0  0  0  0  0  0
   22.7382   -4.7073  -15.6112 C   0  0  1  0  0  0  0  0  0  0  0  0
   21.6729   -3.9528  -16.3530 C   0  0  0  0  0  0  0  0  0  0  0  0
   22.1545   -5.6445  -14.5709 C   0  0  2  0  0  0  0  0  0  0  0  0
   21.2721   -6.6221  -15.1732 N   0  0  0  0  0  0  0  0  0  0  0  0
   21.3884   -4.7981  -13.6203 C   0  0  0  0  0  0  0  0  0  0  0  0
   22.0176   -4.0445  -12.6341 O   0  0  0  0  0  0  0  0  0  0  0  0
   20.1351   -4.7801  -13.7320 O   0  0  0  0  0  0  0  0  0  0  0  0
  2  1  1  0
  3  2  2  0
  4  5  2  0
  4  3  1  0
  5 11  1  0
  6  5  1  0
  7  9  1  0
  7  6  1  0
  7  8  1  6
  9 10  2  0
 11 12  2  0
 12  2  1  0
 14 13  1  1
 15 14  1  0
 15  9  1  0
 16 22  1  0
 16 14  1  0
 17 16  2  0
 19 18  1  6
 19 20  1  0
 21 19  1  0
 21 22  1  6
 23 21  1  0
 23 24  1  0
 25 23  2  0
M  END
$$$$
