YAV.pdb
     RDKit          3D

 25 25  0  0  1  0  0  0  0  0999 V2000
   28.8078  -20.3014   -6.9538 O   0  0  0  0  0  0  0  0  0  0  0  0
   28.0848  -20.3674   -8.1488 C   0  0  0  0  0  0  0  0  0  0  0  0
   26.7506  -20.0517   -8.2176 C   0  0  0  0  0  0  0  0  0  0  0  0
   26.0676  -20.1319   -9.4336 C   0  0  0  0  0  0  0  0  0  0  0  0
   26.6959  -20.5251  -10.5945 C   0  0  0  0  0  0  0  0  0  0  0  0
   26.0030  -20.6247  -11.8909 C   0  0  0  0  0  0  0  0  0  0  0  0
   24.9218  -21.6793  -11.9373 C   0  0  2  0  0  0  0  0  0  0  0  0
   25.6094  -22.9424  -12.1664 N   0  0  0  0  0  0  0  0  0  0  0  0
   23.9865  -21.3577  -13.0276 C   0  0  0  0  0  0  0  0  0  0  0  0
   24.1727  -21.8327  -14.1767 O   0  0  0  0  0  0  0  0  0  0  0  0
   28.0510  -20.8386  -10.4901 C   0  0  0  0  0  0  0  0  0  0  0  0
   28.7300  -20.7611   -9.2923 C   0  0  0  0  0  0  0  0  0  0  0  0
   20.5641  -19.8068  -13.4210 C   0  0  0  0  0  0  0  0  0  0  0  0
   21.8644  -20.4124  -13.9022 C   0  0  2  0  0  0  0  0  0  0  0  0
   22.8459  -20.5188  -12.8726 N   0  0  0  0  0  0  0  0  0  0  0  0
   22.3130  -19.6265  -15.0722 C   0  0  0  0  0  0  0  0  0  0  0  0
   22.9959  -18.5914  -14.8346 O   0  0  0  0  0  0  0  0  0  0  0  0
   21.7615  -20.7859  -19.2304 C   0  0  0  0  0  0  0  0  0  0  0  0
   22.9392  -19.9870  -18.6890 C   0  0  1  0  0  0  0  0  0  0  0  0
   23.5289  -19.1571  -19.7926 C   0  0  0  0  0  0  0  0  0  0  0  0
   22.5225  -19.1423  -17.4999 C   0  0  2  0  0  0  0  0  0  0  0  0
   22.0258  -19.9624  -16.4146 N   0  0  0  0  0  0  0  0  0  0  0  0
   21.4439  -18.2397  -17.9785 C   0  0  0  0  0  0  0  0  0  0  0  0
   20.1065  -18.4595  -17.6634 O   0  0  0  0  0  0  0  0  0  0  0  0
   21.7768  -17.2550  -18.6877 O   0  0  0  0  0  0  0  0  0  0  0  0
  2  1  1  0
  3  2  2  0
  4  5  2  0
  4  3  1  0
  5 11  1  0
  6  5  1  0
  7  9  1  0
  7  6  1  0
  7  8  1  6
  9 10  2  0
 11 12  2  0
 12  2  1  0
 14 13  1  1
 15 14  1  0
 15  9  1  0
 16 22  1  0
 16 14  1  0
 17 16  2  0
 19 18  1  6
 19 20  1  0
 21 19  1  0
 21 22  1  1
 23 21  1  0
 23 24  1  0
 25 23  2  0
M  END
$$$$
