QWL.pdb
     RDKit          3D

 32 33  0  0  1  0  0  0  0  0999 V2000
   25.7715  -16.1937  -19.8353 N   0  0  0  0  0  0  0  0  0  0  0  0
   27.1193  -15.7388  -19.6942 C   0  0  0  0  0  0  0  0  0  0  0  0
   27.5103  -14.8900  -20.5088 O   0  0  0  0  0  0  0  0  0  0  0  0
   27.9428  -16.2942  -18.6186 C   0  0  0  0  0  0  0  0  0  0  0  0
   27.3089  -17.2738  -17.7065 C   0  0  0  0  0  0  0  0  0  0  0  0
   28.1072  -18.4931  -17.3473 C   0  0  2  0  0  0  0  0  0  0  0  0
   28.6091  -19.2458  -18.4281 N   0  0  0  0  0  0  0  0  0  0  0  0
   27.2421  -19.2681  -16.3852 C   0  0  0  0  0  0  0  0  0  0  0  0
   26.3399  -19.9356  -16.9393 O   0  0  0  0  0  0  0  0  0  0  0  0
   27.4107  -19.2611  -14.9861 N   0  0  0  0  0  0  0  0  0  0  0  0
   26.5981  -19.8793  -13.9973 C   0  0  1  0  0  0  0  0  0  0  0  0
   27.1601  -19.9423  -12.6244 C   0  0  0  0  0  0  0  0  0  0  0  0
   26.3422  -20.6923  -11.6434 C   0  0  0  0  0  0  0  0  0  0  0  0
   25.6460  -21.8423  -11.8044 C   0  0  0  0  0  0  0  0  0  0  0  0
   25.0507  -22.1192  -10.6264 N   0  0  0  0  0  0  0  0  0  0  0  0
   25.3499  -21.1693   -9.7101 C   0  0  0  0  0  0  0  0  0  0  0  0
   24.9944  -20.9992   -8.3902 C   0  0  0  0  0  0  0  0  0  0  0  0
   25.4530  -19.9063   -7.6664 C   0  0  0  0  0  0  0  0  0  0  0  0
   26.2706  -18.9885   -8.2811 C   0  0  0  0  0  0  0  0  0  0  0  0
   26.6080  -19.1847   -9.5996 C   0  0  0  0  0  0  0  0  0  0  0  0
   26.1615  -20.2706  -10.3446 C   0  0  0  0  0  0  0  0  0  0  0  0
   25.1793  -19.3752  -13.9356 C   0  0  0  0  0  0  0  0  0  0  0  0
   24.8657  -18.1763  -13.7510 O   0  0  0  0  0  0  0  0  0  0  0  0
   20.6477  -18.1119  -15.5907 C   0  0  0  0  0  0  0  0  0  0  0  0
   20.6518  -19.6750  -15.5174 C   0  0  1  0  0  0  0  0  0  0  0  0
   20.0706  -20.0859  -16.8455 C   0  0  0  0  0  0  0  0  0  0  0  0
   22.0659  -20.0248  -15.2791 C   0  0  0  0  0  0  0  0  0  0  0  0
   22.6854  -19.7767  -13.9596 C   0  0  2  0  0  0  0  0  0  0  0  0
   24.0894  -20.2617  -14.0907 N   0  0  0  0  0  0  0  0  0  0  0  0
   22.1586  -20.4747  -12.7928 C   0  0  0  0  0  0  0  0  0  0  0  0
   21.3095  -19.8597  -11.8468 O   0  0  0  0  0  0  0  0  0  0  0  0
   22.4188  -21.6746  -12.5349 O   0  0  0  0  0  0  0  0  0  0  0  0
  2  1  1  0
  3  2  2  0
  4  2  1  0
  5  4  1  0
  6  8  1  0
  6  5  1  0
  6  7  1  6
  8  9  2  0
 10 11  1  0
 10  8  1  0
 11 12  1  1
 12 13  1  0
 13 21  1  0
 14 15  1  0
 14 13  2  0
 15 16  1  0
 16 21  2  0
 16 17  1  0
 17 18  2  0
 18 19  1  0
 20 19  2  0
 21 20  1  0
 22 11  1  0
 23 22  2  0
 25 24  1  6
 26 25  1  0
 27 25  1  0
 28 27  1  6
 28 29  1  0
 29 22  1  0
 30 31  1  0
 30 28  1  0
 32 30  2  0
M  END
$$$$
