QWL.pdb
     RDKit          3D

 32 33  0  0  1  0  0  0  0  0999 V2000
   26.2446  -36.0182  -13.7264 N   0  0  0  0  0  0  0  0  0  0  0  0
   26.7341  -36.0150  -12.3833 C   0  0  0  0  0  0  0  0  0  0  0  0
   26.5202  -37.0329  -11.7087 O   0  0  0  0  0  0  0  0  0  0  0  0
   27.4425  -34.8313  -11.8929 C   0  0  0  0  0  0  0  0  0  0  0  0
   26.9256  -34.1829  -10.6658 C   0  0  0  0  0  0  0  0  0  0  0  0
   25.6540  -33.3950  -10.7897 C   0  0  2  0  0  0  0  0  0  0  0  0
   25.6874  -32.3000  -11.6764 N   0  0  0  0  0  0  0  0  0  0  0  0
   25.2574  -33.0512   -9.3757 C   0  0  0  0  0  0  0  0  0  0  0  0
   25.9147  -32.1085   -8.8798 O   0  0  0  0  0  0  0  0  0  0  0  0
   24.2437  -33.7127   -8.6543 N   0  0  0  0  0  0  0  0  0  0  0  0
   23.8239  -33.4867   -7.3152 C   0  0  1  0  0  0  0  0  0  0  0  0
   22.3680  -33.6068   -7.0495 C   0  0  0  0  0  0  0  0  0  0  0  0
   21.5191  -32.6018   -7.7300 C   0  0  0  0  0  0  0  0  0  0  0  0
   21.5574  -32.1703   -9.0128 C   0  0  0  0  0  0  0  0  0  0  0  0
   20.5937  -31.2371   -9.1512 N   0  0  0  0  0  0  0  0  0  0  0  0
   19.9359  -31.0592   -7.9821 C   0  0  0  0  0  0  0  0  0  0  0  0
   18.8946  -30.2369   -7.6115 C   0  0  0  0  0  0  0  0  0  0  0  0
   18.4025  -30.2558   -6.3130 C   0  0  0  0  0  0  0  0  0  0  0  0
   18.9659  -31.1073   -5.3932 C   0  0  0  0  0  0  0  0  0  0  0  0
   20.0040  -31.9158   -5.7923 C   0  0  0  0  0  0  0  0  0  0  0  0
   20.5138  -31.9148   -7.0861 C   0  0  0  0  0  0  0  0  0  0  0  0
   24.5894  -34.2579   -6.2712 C   0  0  0  0  0  0  0  0  0  0  0  0
   24.5685  -35.5059   -6.1619 O   0  0  0  0  0  0  0  0  0  0  0  0
   29.5697  -32.8444   -5.3047 C   0  0  0  0  0  0  0  0  0  0  0  0
   28.2997  -33.6931   -5.6440 C   0  0  1  0  0  0  0  0  0  0  0  0
   28.8748  -34.9905   -6.1503 C   0  0  0  0  0  0  0  0  0  0  0  0
   27.5519  -33.7541   -4.3728 C   0  0  0  0  0  0  0  0  0  0  0  0
   26.2008  -34.3531   -4.3281 C   0  0  2  0  0  0  0  0  0  0  0  0
   25.4019  -33.5882   -5.3283 N   0  0  0  0  0  0  0  0  0  0  0  0
   25.4323  -34.2638   -3.0921 C   0  0  0  0  0  0  0  0  0  0  0  0
   24.2552  -33.4929   -2.9720 O   0  0  0  0  0  0  0  0  0  0  0  0
   25.7557  -34.8617   -2.0376 O   0  0  0  0  0  0  0  0  0  0  0  0
  2  1  1  0
  3  2  2  0
  4  2  1  0
  5  4  1  0
  6  8  1  0
  6  5  1  0
  6  7  1  6
  8  9  2  0
 10 11  1  0
 10  8  1  0
 11 12  1  6
 12 13  1  0
 13 21  1  0
 14 15  1  0
 14 13  2  0
 15 16  1  0
 16 21  2  0
 16 17  1  0
 17 18  2  0
 18 19  1  0
 20 19  2  0
 21 20  1  0
 22 11  1  0
 23 22  2  0
 25 24  1  1
 26 25  1  0
 27 25  1  0
 28 27  1  1
 28 29  1  0
 29 22  1  0
 30 31  1  0
 30 28  1  0
 32 30  2  0
M  END
$$$$
