QWL.pdb
     RDKit          3D

 32 33  0  0  1  0  0  0  0  0999 V2000
   28.6711  -18.3661  -16.9211 N   0  0  0  0  0  0  0  0  0  0  0  0
   28.2163  -18.7994  -18.2052 C   0  0  0  0  0  0  0  0  0  0  0  0
   28.8877  -18.4434  -19.1846 O   0  0  0  0  0  0  0  0  0  0  0  0
   27.0061  -19.6193  -18.2857 C   0  0  0  0  0  0  0  0  0  0  0  0
   26.4471  -20.1423  -17.0177 C   0  0  0  0  0  0  0  0  0  0  0  0
   27.3255  -21.0453  -16.2017 C   0  0  2  0  0  0  0  0  0  0  0  0
   27.8077  -22.1971  -16.8553 N   0  0  0  0  0  0  0  0  0  0  0  0
   26.5540  -21.3144  -14.9339 C   0  0  0  0  0  0  0  0  0  0  0  0
   25.3616  -21.6430  -15.1262 O   0  0  0  0  0  0  0  0  0  0  0  0
   27.0991  -21.2138  -13.6384 N   0  0  0  0  0  0  0  0  0  0  0  0
   26.4214  -21.2699  -12.3901 C   0  0  1  0  0  0  0  0  0  0  0  0
   27.2534  -21.0707  -11.1766 C   0  0  0  0  0  0  0  0  0  0  0  0
   26.4970  -20.7969   -9.9330 C   0  0  0  0  0  0  0  0  0  0  0  0
   25.1631  -20.8533   -9.7075 C   0  0  0  0  0  0  0  0  0  0  0  0
   24.9584  -20.5021   -8.4216 N   0  0  0  0  0  0  0  0  0  0  0  0
   26.1347  -20.2204   -7.8149 C   0  0  0  0  0  0  0  0  0  0  0  0
   26.4545  -19.8211   -6.5359 C   0  0  0  0  0  0  0  0  0  0  0  0
   27.7755  -19.5945   -6.1721 C   0  0  0  0  0  0  0  0  0  0  0  0
   28.7692  -19.7729   -7.1044 C   0  0  0  0  0  0  0  0  0  0  0  0
   28.4195  -20.1715   -8.3731 C   0  0  0  0  0  0  0  0  0  0  0  0
   27.1045  -20.4044   -8.7608 C   0  0  0  0  0  0  0  0  0  0  0  0
   25.1873  -20.4100  -12.2986 C   0  0  0  0  0  0  0  0  0  0  0  0
   25.1828  -19.1666  -12.4529 O   0  0  0  0  0  0  0  0  0  0  0  0
   22.1092  -18.1068  -15.0062 C   0  0  0  0  0  0  0  0  0  0  0  0
   21.6766  -19.5795  -14.7019 C   0  0  1  0  0  0  0  0  0  0  0  0
   21.4617  -20.1679  -16.0723 C   0  0  0  0  0  0  0  0  0  0  0  0
   22.7957  -20.1326  -13.9141 C   0  0  0  0  0  0  0  0  0  0  0  0
   22.6681  -20.3021  -12.4508 C   0  0  2  0  0  0  0  0  0  0  0  0
   23.9246  -20.9837  -12.0262 N   0  0  0  0  0  0  0  0  0  0  0  0
   21.5958  -21.1423  -11.9310 C   0  0  0  0  0  0  0  0  0  0  0  0
   21.6140  -22.5520  -12.0136 O   0  0  0  0  0  0  0  0  0  0  0  0
   20.5718  -20.6813  -11.3717 O   0  0  0  0  0  0  0  0  0  0  0  0
  2  1  1  0
  3  2  2  0
  4  2  1  0
  5  4  1  0
  6  8  1  0
  6  5  1  0
  6  7  1  6
  8  9  2  0
 10 11  1  0
 10  8  1  0
 11 12  1  1
 12 13  1  0
 13 21  1  0
 14 15  1  0
 14 13  2  0
 15 16  1  0
 16 21  2  0
 16 17  1  0
 17 18  2  0
 18 19  1  0
 20 19  2  0
 21 20  1  0
 22 11  1  0
 23 22  2  0
 25 24  1  6
 26 25  1  0
 27 25  1  0
 28 27  1  6
 28 29  1  0
 29 22  1  0
 30 31  1  0
 30 28  1  0
 32 30  2  0
M  END
$$$$
