QWL.pdb
     RDKit          3D

 32 33  0  0  1  0  0  0  0  0999 V2000
   26.8748  -18.2786  -15.8967 N   0  0  0  0  0  0  0  0  0  0  0  0
   27.0939  -19.1162  -17.0342 C   0  0  0  0  0  0  0  0  0  0  0  0
   27.4027  -18.5503  -18.0930 O   0  0  0  0  0  0  0  0  0  0  0  0
   26.9404  -20.5645  -16.8845 C   0  0  0  0  0  0  0  0  0  0  0  0
   26.6868  -21.0895  -15.5230 C   0  0  0  0  0  0  0  0  0  0  0  0
   27.5614  -20.5768  -14.4161 C   0  0  2  0  0  0  0  0  0  0  0  0
   28.9062  -20.9979  -14.4432 N   0  0  0  0  0  0  0  0  0  0  0  0
   26.8235  -20.9004  -13.1411 C   0  0  0  0  0  0  0  0  0  0  0  0
   25.6278  -21.2264  -13.3162 O   0  0  0  0  0  0  0  0  0  0  0  0
   27.4012  -20.8497  -11.8568 N   0  0  0  0  0  0  0  0  0  0  0  0
   26.7481  -20.8799  -10.5947 C   0  0  1  0  0  0  0  0  0  0  0  0
   27.5805  -20.5466   -9.4113 C   0  0  0  0  0  0  0  0  0  0  0  0
   26.8758  -20.6040   -8.1098 C   0  0  0  0  0  0  0  0  0  0  0  0
   25.6440  -21.0850   -7.8192 C   0  0  0  0  0  0  0  0  0  0  0  0
   25.4429  -20.9012   -6.4983 N   0  0  0  0  0  0  0  0  0  0  0  0
   26.5214  -20.3109   -5.9331 C   0  0  0  0  0  0  0  0  0  0  0  0
   26.8032  -19.9189   -4.6429 C   0  0  0  0  0  0  0  0  0  0  0  0
   28.0168  -19.3199   -4.3318 C   0  0  0  0  0  0  0  0  0  0  0  0
   28.9421  -19.1194   -5.3279 C   0  0  0  0  0  0  0  0  0  0  0  0
   28.6325  -19.5208   -6.6061 C   0  0  0  0  0  0  0  0  0  0  0  0
   27.4246  -20.1223   -6.9419 C   0  0  0  0  0  0  0  0  0  0  0  0
   25.4545  -20.1096  -10.5307 C   0  0  0  0  0  0  0  0  0  0  0  0
   25.3810  -18.8700  -10.3639 O   0  0  0  0  0  0  0  0  0  0  0  0
   21.8166  -21.5796  -13.2137 C   0  0  0  0  0  0  0  0  0  0  0  0
   23.0760  -20.6510  -13.2243 C   0  0  1  0  0  0  0  0  0  0  0  0
   23.1251  -20.1495  -14.6444 C   0  0  0  0  0  0  0  0  0  0  0  0
   22.7971  -19.6468  -12.1789 C   0  0  0  0  0  0  0  0  0  0  0  0
   22.9404  -19.9962  -10.7494 C   0  0  2  0  0  0  0  0  0  0  0  0
   24.2120  -20.7703  -10.6627 N   0  0  0  0  0  0  0  0  0  0  0  0
   21.9386  -20.8571  -10.1319 C   0  0  0  0  0  0  0  0  0  0  0  0
   22.2347  -22.1418   -9.6257 O   0  0  0  0  0  0  0  0  0  0  0  0
   20.7350  -20.5273  -10.0030 O   0  0  0  0  0  0  0  0  0  0  0  0
  2  1  1  0
  3  2  2  0
  4  2  1  0
  5  4  1  0
  6  8  1  0
  6  5  1  0
  6  7  1  1
  8  9  2  0
 10 11  1  0
 10  8  1  0
 11 12  1  1
 12 13  1  0
 13 21  1  0
 14 15  1  0
 14 13  2  0
 15 16  1  0
 16 21  2  0
 16 17  1  0
 17 18  2  0
 18 19  1  0
 20 19  2  0
 21 20  1  0
 22 11  1  0
 23 22  2  0
 25 24  1  6
 26 25  1  0
 27 25  1  0
 28 27  1  6
 28 29  1  0
 29 22  1  0
 30 31  1  0
 30 28  1  0
 32 30  2  0
M  END
$$$$
