QWL.pdb
     RDKit          3D

 32 33  0  0  1  0  0  0  0  0999 V2000
   21.3795  -22.8974  -13.5495 N   0  0  0  0  0  0  0  0  0  0  0  0
   20.1902  -22.1982  -13.1752 C   0  0  0  0  0  0  0  0  0  0  0  0
   19.1190  -22.8082  -13.3070 O   0  0  0  0  0  0  0  0  0  0  0  0
   20.3056  -20.8285  -12.6711 C   0  0  0  0  0  0  0  0  0  0  0  0
   21.6609  -20.3332  -12.3372 C   0  0  0  0  0  0  0  0  0  0  0  0
   22.2261  -20.7275  -11.0037 C   0  0  2  0  0  0  0  0  0  0  0  0
   21.5043  -20.2962   -9.8726 N   0  0  0  0  0  0  0  0  0  0  0  0
   23.6694  -20.2910  -11.0365 C   0  0  0  0  0  0  0  0  0  0  0  0
   23.8654  -19.2356  -11.6802 O   0  0  0  0  0  0  0  0  0  0  0  0
   24.7220  -20.9868  -10.4089 N   0  0  0  0  0  0  0  0  0  0  0  0
   26.1199  -20.7519  -10.5138 C   0  0  1  0  0  0  0  0  0  0  0  0
   26.9482  -21.1619   -9.3517 C   0  0  0  0  0  0  0  0  0  0  0  0
   27.0930  -20.1394   -8.2901 C   0  0  0  0  0  0  0  0  0  0  0  0
   26.5418  -18.9057   -8.2031 C   0  0  0  0  0  0  0  0  0  0  0  0
   26.9853  -18.3479   -7.0581 N   0  0  0  0  0  0  0  0  0  0  0  0
   27.8117  -19.1986   -6.4064 C   0  0  0  0  0  0  0  0  0  0  0  0
   28.5086  -19.1009   -5.2222 C   0  0  0  0  0  0  0  0  0  0  0  0
   29.3039  -20.1490   -4.7778 C   0  0  0  0  0  0  0  0  0  0  0  0
   29.3915  -21.2933   -5.5336 C   0  0  0  0  0  0  0  0  0  0  0  0
   28.6848  -21.3616   -6.7111 C   0  0  0  0  0  0  0  0  0  0  0  0
   27.8822  -20.3258   -7.1767 C   0  0  0  0  0  0  0  0  0  0  0  0
   26.7546  -21.2552  -11.7844 C   0  0  0  0  0  0  0  0  0  0  0  0
   26.5691  -22.4001  -12.2583 O   0  0  0  0  0  0  0  0  0  0  0  0
   26.2833  -18.2145  -16.0906 C   0  0  0  0  0  0  0  0  0  0  0  0
   27.7874  -18.5014  -15.7681 C   0  0  1  0  0  0  0  0  0  0  0  0
   28.4614  -17.1854  -16.0581 C   0  0  0  0  0  0  0  0  0  0  0  0
   27.7802  -18.9432  -14.3597 C   0  0  0  0  0  0  0  0  0  0  0  0
   27.5115  -20.3572  -14.0209 C   0  0  2  0  0  0  0  0  0  0  0  0
   27.6222  -20.4301  -12.5356 N   0  0  0  0  0  0  0  0  0  0  0  0
   28.4232  -21.3836  -14.5122 C   0  0  0  0  0  0  0  0  0  0  0  0
   28.2312  -22.0614  -15.7361 O   0  0  0  0  0  0  0  0  0  0  0  0
   29.4482  -21.7481  -13.8871 O   0  0  0  0  0  0  0  0  0  0  0  0
  2  1  1  0
  3  2  2  0
  4  2  1  0
  5  4  1  0
  6  8  1  0
  6  5  1  0
  6  7  1  1
  8  9  2  0
 10 11  1  0
 10  8  1  0
 11 12  1  1
 12 13  1  0
 13 21  1  0
 14 15  1  0
 14 13  2  0
 15 16  1  0
 16 21  2  0
 16 17  1  0
 17 18  2  0
 18 19  1  0
 20 19  2  0
 21 20  1  0
 22 11  1  0
 23 22  2  0
 25 24  1  1
 26 25  1  0
 27 25  1  0
 28 27  1  6
 28 29  1  0
 29 22  1  0
 30 31  1  0
 30 28  1  0
 32 30  2  0
M  END
$$$$
