QWL.pdb
     RDKit          3D

 32 33  0  0  1  0  0  0  0  0999 V2000
   22.6174  -28.1708  -22.8208 N   0  0  0  0  0  0  0  0  0  0  0  0
   22.9433  -29.4960  -22.3951 C   0  0  0  0  0  0  0  0  0  0  0  0
   22.2612  -29.9706  -21.4752 O   0  0  0  0  0  0  0  0  0  0  0  0
   24.0444  -30.1990  -23.0561 C   0  0  0  0  0  0  0  0  0  0  0  0
   25.0894  -30.7989  -22.1949 C   0  0  0  0  0  0  0  0  0  0  0  0
   25.8843  -29.8652  -21.3292 C   0  0  2  0  0  0  0  0  0  0  0  0
   26.9991  -29.2540  -21.9375 N   0  0  0  0  0  0  0  0  0  0  0  0
   26.1971  -30.6484  -20.0788 C   0  0  0  0  0  0  0  0  0  0  0  0
   26.9084  -31.6589  -20.2781 O   0  0  0  0  0  0  0  0  0  0  0  0
   25.7445  -30.2986  -18.7910 N   0  0  0  0  0  0  0  0  0  0  0  0
   26.0529  -30.9187  -17.5497 C   0  0  1  0  0  0  0  0  0  0  0  0
   26.9867  -30.1853  -16.6582 C   0  0  0  0  0  0  0  0  0  0  0  0
   28.3756  -30.0703  -17.1596 C   0  0  0  0  0  0  0  0  0  0  0  0
   28.9023  -29.1853  -18.0385 C   0  0  0  0  0  0  0  0  0  0  0  0
   30.2062  -29.4959  -18.1880 N   0  0  0  0  0  0  0  0  0  0  0  0
   30.5289  -30.5641  -17.4225 C   0  0  0  0  0  0  0  0  0  0  0  0
   31.7057  -31.2537  -17.2289 C   0  0  0  0  0  0  0  0  0  0  0  0
   31.7579  -32.3410  -16.3666 C   0  0  0  0  0  0  0  0  0  0  0  0
   30.6185  -32.7272  -15.7025 C   0  0  0  0  0  0  0  0  0  0  0  0
   29.4588  -32.0200  -15.9161 C   0  0  0  0  0  0  0  0  0  0  0  0
   29.3818  -30.9284  -16.7742 C   0  0  0  0  0  0  0  0  0  0  0  0
   24.8576  -31.3777  -16.7551 C   0  0  0  0  0  0  0  0  0  0  0  0
   23.8320  -30.6842  -16.5625 O   0  0  0  0  0  0  0  0  0  0  0  0
   22.9849  -36.6086  -16.7848 C   0  0  0  0  0  0  0  0  0  0  0  0
   23.0397  -35.0533  -16.9477 C   0  0  1  0  0  0  0  0  0  0  0  0
   21.6201  -34.6913  -17.2996 C   0  0  0  0  0  0  0  0  0  0  0  0
   23.5417  -34.5682  -15.6471 C   0  0  0  0  0  0  0  0  0  0  0  0
   23.6478  -33.1177  -15.3804 C   0  0  2  0  0  0  0  0  0  0  0  0
   24.8304  -32.6623  -16.1664 N   0  0  0  0  0  0  0  0  0  0  0  0
   23.9126  -32.6705  -14.0181 C   0  0  0  0  0  0  0  0  0  0  0  0
   22.8999  -32.2060  -13.1502 O   0  0  0  0  0  0  0  0  0  0  0  0
   25.0593  -32.6602  -13.5092 O   0  0  0  0  0  0  0  0  0  0  0  0
  2  1  1  0
  3  2  2  0
  4  2  1  0
  5  4  1  0
  6  8  1  0
  6  5  1  0
  6  7  1  6
  8  9  2  0
 10 11  1  0
 10  8  1  0
 11 12  1  1
 12 13  1  0
 13 21  1  0
 14 15  1  0
 14 13  2  0
 15 16  1  0
 16 21  2  0
 16 17  1  0
 17 18  2  0
 18 19  1  0
 20 19  2  0
 21 20  1  0
 22 11  1  0
 23 22  2  0
 25 24  1  1
 26 25  1  0
 27 25  1  0
 28 27  1  1
 28 29  1  0
 29 22  1  0
 30 31  1  0
 30 28  1  0
 32 30  2  0
M  END
$$$$
