QWL.pdb
     RDKit          3D

 32 33  0  0  1  0  0  0  0  0999 V2000
   28.9979  -26.9361  -15.6000 N   0  0  0  0  0  0  0  0  0  0  0  0
   30.0208  -26.9489  -16.5986 C   0  0  0  0  0  0  0  0  0  0  0  0
   30.3970  -28.0604  -16.9982 O   0  0  0  0  0  0  0  0  0  0  0  0
   30.5550  -25.6729  -17.0783 C   0  0  0  0  0  0  0  0  0  0  0  0
   30.0191  -24.4336  -16.4696 C   0  0  0  0  0  0  0  0  0  0  0  0
   29.3709  -23.4416  -17.3909 C   0  0  2  0  0  0  0  0  0  0  0  0
   30.1437  -23.0218  -18.4923 N   0  0  0  0  0  0  0  0  0  0  0  0
   28.8838  -22.3270  -16.4992 C   0  0  0  0  0  0  0  0  0  0  0  0
   29.1623  -22.4870  -15.2895 O   0  0  0  0  0  0  0  0  0  0  0  0
   28.1779  -21.1968  -16.9577 N   0  0  0  0  0  0  0  0  0  0  0  0
   27.6463  -20.1208  -16.1961 C   0  0  1  0  0  0  0  0  0  0  0  0
   27.2758  -18.8966  -16.9502 C   0  0  0  0  0  0  0  0  0  0  0  0
   26.7420  -17.7875  -16.1264 C   0  0  0  0  0  0  0  0  0  0  0  0
   27.2779  -17.1912  -15.0353 C   0  0  0  0  0  0  0  0  0  0  0  0
   26.4091  -16.2433  -14.6287 N   0  0  0  0  0  0  0  0  0  0  0  0
   25.3239  -16.2179  -15.4369 C   0  0  0  0  0  0  0  0  0  0  0  0
   24.1806  -15.4496  -15.4424 C   0  0  0  0  0  0  0  0  0  0  0  0
   23.2023  -15.6392  -16.4096 C   0  0  0  0  0  0  0  0  0  0  0  0
   23.3844  -16.6062  -17.3689 C   0  0  0  0  0  0  0  0  0  0  0  0
   24.5354  -17.3577  -17.3377 C   0  0  0  0  0  0  0  0  0  0  0  0
   25.5287  -17.1865  -16.3797 C   0  0  0  0  0  0  0  0  0  0  0  0
   26.5218  -20.4962  -15.2658 C   0  0  0  0  0  0  0  0  0  0  0  0
   25.5653  -21.2410  -15.5825 O   0  0  0  0  0  0  0  0  0  0  0  0
   25.5007  -21.9820  -10.1421 C   0  0  0  0  0  0  0  0  0  0  0  0
   25.2086  -20.4710  -10.4250 C   0  0  1  0  0  0  0  0  0  0  0  0
   25.6442  -19.7897   -9.1535 C   0  0  0  0  0  0  0  0  0  0  0  0
   25.9937  -20.1690  -11.6380 C   0  0  0  0  0  0  0  0  0  0  0  0
   25.4531  -20.4873  -12.9770 C   0  0  2  0  0  0  0  0  0  0  0  0
   26.4884  -20.0111  -13.9387 N   0  0  0  0  0  0  0  0  0  0  0  0
   24.2194  -19.8412  -13.4092 C   0  0  0  0  0  0  0  0  0  0  0  0
   22.9825  -20.5181  -13.4864 O   0  0  0  0  0  0  0  0  0  0  0  0
   24.1584  -18.6350  -13.7489 O   0  0  0  0  0  0  0  0  0  0  0  0
  2  1  1  0
  3  2  2  0
  4  2  1  0
  5  4  1  0
  6  8  1  0
  6  5  1  0
  6  7  1  6
  8  9  2  0
 10 11  1  0
 10  8  1  0
 11 12  1  6
 12 13  1  0
 13 21  1  0
 14 15  1  0
 14 13  2  0
 15 16  1  0
 16 21  2  0
 16 17  1  0
 17 18  2  0
 18 19  1  0
 20 19  2  0
 21 20  1  0
 22 11  1  0
 23 22  2  0
 25 24  1  1
 26 25  1  0
 27 25  1  0
 28 27  1  1
 28 29  1  0
 29 22  1  0
 30 31  1  0
 30 28  1  0
 32 30  2  0
M  END
$$$$
