QWL.pdb
     RDKit          3D

 32 33  0  0  1  0  0  0  0  0999 V2000
   27.7721  -17.2306  -14.2992 N   0  0  0  0  0  0  0  0  0  0  0  0
   27.9617  -17.6957  -15.6375 C   0  0  0  0  0  0  0  0  0  0  0  0
   28.6538  -16.9865  -16.3823 O   0  0  0  0  0  0  0  0  0  0  0  0
   27.3364  -18.9563  -16.0420 C   0  0  0  0  0  0  0  0  0  0  0  0
   26.7923  -19.8251  -14.9731 C   0  0  0  0  0  0  0  0  0  0  0  0
   27.7804  -20.5888  -14.1403 C   0  0  2  0  0  0  0  0  0  0  0  0
   28.5721  -21.5312  -14.8269 N   0  0  0  0  0  0  0  0  0  0  0  0
   26.9833  -21.1513  -12.9901 C   0  0  0  0  0  0  0  0  0  0  0  0
   26.3692  -22.2063  -13.2668 O   0  0  0  0  0  0  0  0  0  0  0  0
   26.9177  -20.5652  -11.7102 N   0  0  0  0  0  0  0  0  0  0  0  0
   25.9081  -20.7182  -10.7214 C   0  0  1  0  0  0  0  0  0  0  0  0
   26.1908  -20.1240   -9.3904 C   0  0  0  0  0  0  0  0  0  0  0  0
   27.4837  -20.5200   -8.7863 C   0  0  0  0  0  0  0  0  0  0  0  0
   28.4826  -21.2710   -9.3074 C   0  0  0  0  0  0  0  0  0  0  0  0
   29.4458  -21.3651   -8.3682 N   0  0  0  0  0  0  0  0  0  0  0  0
   29.0862  -20.6896   -7.2522 C   0  0  0  0  0  0  0  0  0  0  0  0
   29.7088  -20.4889   -6.0399 C   0  0  0  0  0  0  0  0  0  0  0  0
   29.0991  -19.7367   -5.0444 C   0  0  0  0  0  0  0  0  0  0  0  0
   27.8605  -19.1897   -5.2790 C   0  0  0  0  0  0  0  0  0  0  0  0
   27.2636  -19.4074   -6.4984 C   0  0  0  0  0  0  0  0  0  0  0  0
   27.8539  -20.1566   -7.5103 C   0  0  0  0  0  0  0  0  0  0  0  0
   24.5224  -20.3234  -11.1627 C   0  0  0  0  0  0  0  0  0  0  0  0
   24.2102  -19.1769  -11.5602 O   0  0  0  0  0  0  0  0  0  0  0  0
   21.7041  -22.3092  -15.3701 C   0  0  0  0  0  0  0  0  0  0  0  0
   21.1998  -21.4767  -14.1449 C   0  0  1  0  0  0  0  0  0  0  0  0
   19.8239  -22.0352  -13.8890 C   0  0  0  0  0  0  0  0  0  0  0  0
   22.2142  -21.7159  -13.0996 C   0  0  0  0  0  0  0  0  0  0  0  0
   22.1706  -20.9612  -11.8288 C   0  0  2  0  0  0  0  0  0  0  0  0
   23.4652  -21.2615  -11.1524 N   0  0  0  0  0  0  0  0  0  0  0  0
   21.1498  -21.2999  -10.8443 C   0  0  0  0  0  0  0  0  0  0  0  0
   21.3714  -22.2113   -9.7885 O   0  0  0  0  0  0  0  0  0  0  0  0
   19.9942  -20.8116  -10.8573 O   0  0  0  0  0  0  0  0  0  0  0  0
  2  1  1  0
  3  2  2  0
  4  2  1  0
  5  4  1  0
  6  8  1  0
  6  5  1  0
  6  7  1  6
  8  9  2  0
 10 11  1  0
 10  8  1  0
 11 12  1  1
 12 13  1  0
 13 21  1  0
 14 15  1  0
 14 13  2  0
 15 16  1  0
 16 21  2  0
 16 17  1  0
 17 18  2  0
 18 19  1  0
 20 19  2  0
 21 20  1  0
 22 11  1  0
 23 22  2  0
 25 24  1  6
 26 25  1  0
 27 25  1  0
 28 27  1  6
 28 29  1  0
 29 22  1  0
 30 31  1  0
 30 28  1  0
 32 30  2  0
M  END
$$$$
