QWL.pdb
     RDKit          3D

 32 33  0  0  1  0  0  0  0  0999 V2000
   29.2475  -28.3705  -16.4369 N   0  0  0  0  0  0  0  0  0  0  0  0
   28.1079  -28.7779  -17.1977 C   0  0  0  0  0  0  0  0  0  0  0  0
   28.0788  -29.9600  -17.5700 O   0  0  0  0  0  0  0  0  0  0  0  0
   27.0648  -27.7928  -17.4891 C   0  0  0  0  0  0  0  0  0  0  0  0
   27.1455  -26.4849  -16.7989 C   0  0  0  0  0  0  0  0  0  0  0  0
   27.8947  -25.3867  -17.4956 C   0  0  2  0  0  0  0  0  0  0  0  0
   29.2846  -25.5756  -17.6340 N   0  0  0  0  0  0  0  0  0  0  0  0
   27.4973  -24.1177  -16.7838 C   0  0  0  0  0  0  0  0  0  0  0  0
   28.1854  -23.8694  -15.7681 O   0  0  0  0  0  0  0  0  0  0  0  0
   26.4522  -23.2695  -17.2009 N   0  0  0  0  0  0  0  0  0  0  0  0
   26.0382  -22.0350  -16.6309 C   0  0  1  0  0  0  0  0  0  0  0  0
   25.3965  -21.0634  -17.5523 C   0  0  0  0  0  0  0  0  0  0  0  0
   24.9797  -19.7861  -16.9292 C   0  0  0  0  0  0  0  0  0  0  0  0
   25.7356  -18.8281  -16.3427 C   0  0  0  0  0  0  0  0  0  0  0  0
   24.8976  -17.8632  -15.9121 N   0  0  0  0  0  0  0  0  0  0  0  0
   23.6165  -18.1817  -16.2098 C   0  0  0  0  0  0  0  0  0  0  0  0
   22.4179  -17.5408  -15.9855 C   0  0  0  0  0  0  0  0  0  0  0  0
   21.2209  -18.1064  -16.4049 C   0  0  0  0  0  0  0  0  0  0  0  0
   21.2407  -19.3194  -17.0504 C   0  0  0  0  0  0  0  0  0  0  0  0
   22.4520  -19.9354  -17.2597 C   0  0  0  0  0  0  0  0  0  0  0  0
   23.6631  -19.3892  -16.8492 C   0  0  0  0  0  0  0  0  0  0  0  0
   25.2099  -22.1602  -15.3782 C   0  0  0  0  0  0  0  0  0  0  0  0
   24.2142  -22.9122  -15.2651 O   0  0  0  0  0  0  0  0  0  0  0  0
   27.1975  -20.7664  -10.2058 C   0  0  0  0  0  0  0  0  0  0  0  0
   26.1459  -20.2972  -11.2653 C   0  0  1  0  0  0  0  0  0  0  0  0
   26.9398  -19.3803  -12.1593 C   0  0  0  0  0  0  0  0  0  0  0  0
   25.6566  -21.5505  -11.8726 C   0  0  0  0  0  0  0  0  0  0  0  0
   24.6917  -21.5118  -12.9924 C   0  0  2  0  0  0  0  0  0  0  0  0
   25.5271  -21.4095  -14.2234 N   0  0  0  0  0  0  0  0  0  0  0  0
   23.7613  -20.3926  -13.0808 C   0  0  0  0  0  0  0  0  0  0  0  0
   22.5100  -20.3787  -12.4263 O   0  0  0  0  0  0  0  0  0  0  0  0
   23.9962  -19.3551  -13.7459 O   0  0  0  0  0  0  0  0  0  0  0  0
  2  1  1  0
  3  2  2  0
  4  2  1  0
  5  4  1  0
  6  8  1  0
  6  5  1  0
  6  7  1  1
  8  9  2  0
 10 11  1  0
 10  8  1  0
 11 12  1  6
 12 13  1  0
 13 21  1  0
 14 15  1  0
 14 13  2  0
 15 16  1  0
 16 21  2  0
 16 17  1  0
 17 18  2  0
 18 19  1  0
 20 19  2  0
 21 20  1  0
 22 11  1  0
 23 22  2  0
 25 24  1  1
 26 25  1  0
 27 25  1  0
 28 27  1  1
 28 29  1  0
 29 22  1  0
 30 31  1  0
 30 28  1  0
 32 30  2  0
M  END
$$$$
