QWL.pdb
     RDKit          3D

 32 33  0  0  1  0  0  0  0  0999 V2000
   29.9748  -23.8058  -16.0536 N   0  0  0  0  0  0  0  0  0  0  0  0
   29.8345  -22.6542  -16.8888 C   0  0  0  0  0  0  0  0  0  0  0  0
   30.6935  -22.4943  -17.7682 O   0  0  0  0  0  0  0  0  0  0  0  0
   28.7080  -21.7479  -16.6581 C   0  0  0  0  0  0  0  0  0  0  0  0
   27.8506  -22.0071  -15.4786 C   0  0  0  0  0  0  0  0  0  0  0  0
   27.1756  -20.8239  -14.8479 C   0  0  2  0  0  0  0  0  0  0  0  0
   28.0083  -19.7320  -14.5303 N   0  0  0  0  0  0  0  0  0  0  0  0
   26.3947  -21.3825  -13.6847 C   0  0  0  0  0  0  0  0  0  0  0  0
   25.9176  -22.5205  -13.8941 O   0  0  0  0  0  0  0  0  0  0  0  0
   26.2035  -20.7082  -12.4622 N   0  0  0  0  0  0  0  0  0  0  0  0
   25.1726  -20.8987  -11.5023 C   0  0  1  0  0  0  0  0  0  0  0  0
   25.4940  -20.5204  -10.1030 C   0  0  0  0  0  0  0  0  0  0  0  0
   26.8577  -20.8805   -9.6512 C   0  0  0  0  0  0  0  0  0  0  0  0
   27.8042  -21.6192  -10.2770 C   0  0  0  0  0  0  0  0  0  0  0  0
   28.8736  -21.6789   -9.4574 N   0  0  0  0  0  0  0  0  0  0  0  0
   28.6337  -20.9932   -8.3158 C   0  0  0  0  0  0  0  0  0  0  0  0
   29.3907  -20.7607   -7.1886 C   0  0  0  0  0  0  0  0  0  0  0  0
   28.8866  -20.0053   -6.1380 C   0  0  0  0  0  0  0  0  0  0  0  0
   27.6172  -19.4873   -6.2314 C   0  0  0  0  0  0  0  0  0  0  0  0
   26.8852  -19.7365   -7.3684 C   0  0  0  0  0  0  0  0  0  0  0  0
   27.3681  -20.4894   -8.4330 C   0  0  0  0  0  0  0  0  0  0  0  0
   23.8350  -20.3190  -11.8839 C   0  0  0  0  0  0  0  0  0  0  0  0
   23.6373  -19.1060  -12.1275 O   0  0  0  0  0  0  0  0  0  0  0  0
   19.7383  -22.4010  -14.8749 C   0  0  0  0  0  0  0  0  0  0  0  0
   21.2262  -22.3239  -14.3967 C   0  0  1  0  0  0  0  0  0  0  0  0
   22.0050  -22.7368  -15.6188 C   0  0  0  0  0  0  0  0  0  0  0  0
   21.3930  -20.9274  -13.9483 C   0  0  0  0  0  0  0  0  0  0  0  0
   21.4031  -20.6014  -12.5062 C   0  0  2  0  0  0  0  0  0  0  0  0
   22.6932  -21.1449  -11.9926 N   0  0  0  0  0  0  0  0  0  0  0  0
   20.3835  -21.1887  -11.6451 C   0  0  0  0  0  0  0  0  0  0  0  0
   19.0574  -20.7071  -11.5839 O   0  0  0  0  0  0  0  0  0  0  0  0
   20.6025  -22.1657  -10.8891 O   0  0  0  0  0  0  0  0  0  0  0  0
  2  1  1  0
  3  2  2  0
  4  2  1  0
  5  4  1  0
  6  8  1  0
  6  5  1  0
  6  7  1  1
  8  9  2  0
 10 11  1  0
 10  8  1  0
 11 12  1  1
 12 13  1  0
 13 21  1  0
 14 15  1  0
 14 13  2  0
 15 16  1  0
 16 21  2  0
 16 17  1  0
 17 18  2  0
 18 19  1  0
 20 19  2  0
 21 20  1  0
 22 11  1  0
 23 22  2  0
 25 24  1  6
 26 25  1  0
 27 25  1  0
 28 27  1  6
 28 29  1  0
 29 22  1  0
 30 31  1  0
 30 28  1  0
 32 30  2  0
M  END
$$$$
