QWL.pdb
     RDKit          3D

 32 33  0  0  1  0  0  0  0  0999 V2000
   29.5800  -19.8942  -18.7453 N   0  0  0  0  0  0  0  0  0  0  0  0
   28.9440  -19.7501  -17.4732 C   0  0  0  0  0  0  0  0  0  0  0  0
   28.6713  -20.7946  -16.8638 O   0  0  0  0  0  0  0  0  0  0  0  0
   28.6552  -18.4033  -16.9769 C   0  0  0  0  0  0  0  0  0  0  0  0
   27.3088  -18.1554  -16.4119 C   0  0  0  0  0  0  0  0  0  0  0  0
   26.1291  -18.5548  -17.2496 C   0  0  2  0  0  0  0  0  0  0  0  0
   25.9970  -17.8955  -18.4884 N   0  0  0  0  0  0  0  0  0  0  0  0
   24.9329  -18.4340  -16.3389 C   0  0  0  0  0  0  0  0  0  0  0  0
   24.8283  -17.3166  -15.7848 O   0  0  0  0  0  0  0  0  0  0  0  0
   24.0014  -19.4671  -16.1134 N   0  0  0  0  0  0  0  0  0  0  0  0
   22.8715  -19.4625  -15.2511 C   0  0  1  0  0  0  0  0  0  0  0  0
   21.5395  -19.4342  -15.9066 C   0  0  0  0  0  0  0  0  0  0  0  0
   21.1310  -18.1164  -16.4450 C   0  0  0  0  0  0  0  0  0  0  0  0
   20.3496  -17.1630  -15.8848 C   0  0  0  0  0  0  0  0  0  0  0  0
   20.2564  -16.1496  -16.7697 N   0  0  0  0  0  0  0  0  0  0  0  0
   20.9624  -16.4323  -17.8890 C   0  0  0  0  0  0  0  0  0  0  0  0
   21.1765  -15.7377  -19.0593 C   0  0  0  0  0  0  0  0  0  0  0  0
   21.9614  -16.2755  -20.0708 C   0  0  0  0  0  0  0  0  0  0  0  0
   22.5277  -17.5152  -19.8947 C   0  0  0  0  0  0  0  0  0  0  0  0
   22.2959  -18.1847  -18.7163 C   0  0  0  0  0  0  0  0  0  0  0  0
   21.5140  -17.6671  -17.6895 C   0  0  0  0  0  0  0  0  0  0  0  0
   22.8828  -20.5267  -14.1842 C   0  0  0  0  0  0  0  0  0  0  0  0
   22.9357  -21.7566  -14.4174 O   0  0  0  0  0  0  0  0  0  0  0  0
   25.6833  -19.9414   -9.7009 C   0  0  0  0  0  0  0  0  0  0  0  0
   25.0985  -20.5576  -11.0149 C   0  0  1  0  0  0  0  0  0  0  0  0
   25.9573  -21.7752  -11.2390 C   0  0  0  0  0  0  0  0  0  0  0  0
   23.6767  -20.8012  -10.7017 C   0  0  0  0  0  0  0  0  0  0  0  0
   22.7404  -21.2307  -11.7624 C   0  0  2  0  0  0  0  0  0  0  0  0
   22.8347  -20.1788  -12.8151 N   0  0  0  0  0  0  0  0  0  0  0  0
   21.3184  -21.3191  -11.4519 C   0  0  0  0  0  0  0  0  0  0  0  0
   20.3740  -20.3662  -11.8925 O   0  0  0  0  0  0  0  0  0  0  0  0
   20.8212  -22.2458  -10.7677 O   0  0  0  0  0  0  0  0  0  0  0  0
  2  1  1  0
  3  2  2  0
  4  2  1  0
  5  4  1  0
  6  8  1  0
  6  5  1  0
  6  7  1  6
  8  9  2  0
 10 11  1  0
 10  8  1  0
 11 12  1  6
 12 13  1  0
 13 21  1  0
 14 15  1  0
 14 13  2  0
 15 16  1  0
 16 21  2  0
 16 17  1  0
 17 18  2  0
 18 19  1  0
 20 19  2  0
 21 20  1  0
 22 11  1  0
 23 22  2  0
 25 24  1  1
 26 25  1  0
 27 25  1  0
 28 27  1  1
 28 29  1  0
 29 22  1  0
 30 31  1  0
 30 28  1  0
 32 30  2  0
M  END
$$$$
