QWL.pdb
     RDKit          3D

 32 33  0  0  1  0  0  0  0  0999 V2000
   26.3058  -18.2040  -17.2490 N   0  0  0  0  0  0  0  0  0  0  0  0
   27.6403  -18.7158  -17.2736 C   0  0  0  0  0  0  0  0  0  0  0  0
   28.1024  -19.0167  -18.3839 O   0  0  0  0  0  0  0  0  0  0  0  0
   28.3665  -18.8546  -16.0099 C   0  0  0  0  0  0  0  0  0  0  0  0
   27.6447  -19.4614  -14.8679 C   0  0  0  0  0  0  0  0  0  0  0  0
   28.0780  -20.8309  -14.4321 C   0  0  2  0  0  0  0  0  0  0  0  0
   28.0237  -21.8400  -15.4145 N   0  0  0  0  0  0  0  0  0  0  0  0
   27.2852  -21.1221  -13.1825 C   0  0  0  0  0  0  0  0  0  0  0  0
   26.2086  -21.7243  -13.3940 O   0  0  0  0  0  0  0  0  0  0  0  0
   27.6941  -20.7619  -11.8829 N   0  0  0  0  0  0  0  0  0  0  0  0
   26.9537  -20.8411  -10.6722 C   0  0  1  0  0  0  0  0  0  0  0  0
   27.6648  -20.4327   -9.4344 C   0  0  0  0  0  0  0  0  0  0  0  0
   26.8534  -20.4842   -8.1964 C   0  0  0  0  0  0  0  0  0  0  0  0
   25.5658  -20.8672   -8.0272 C   0  0  0  0  0  0  0  0  0  0  0  0
   25.2733  -20.7239   -6.7185 N   0  0  0  0  0  0  0  0  0  0  0  0
   26.3477  -20.2558   -6.0419 C   0  0  0  0  0  0  0  0  0  0  0  0
   26.5547  -19.9463   -4.7156 C   0  0  0  0  0  0  0  0  0  0  0  0
   27.7848  -19.4705   -4.2811 C   0  0  0  0  0  0  0  0  0  0  0  0
   28.8022  -19.3091   -5.1907 C   0  0  0  0  0  0  0  0  0  0  0  0
   28.5658  -19.6259   -6.5077 C   0  0  0  0  0  0  0  0  0  0  0  0
   27.3432  -20.1038   -6.9665 C   0  0  0  0  0  0  0  0  0  0  0  0
   25.5988  -20.1827  -10.7124 C   0  0  0  0  0  0  0  0  0  0  0  0
   25.4140  -18.9467  -10.6225 O   0  0  0  0  0  0  0  0  0  0  0  0
   23.0371  -20.8665  -15.1068 C   0  0  0  0  0  0  0  0  0  0  0  0
   23.4228  -20.0114  -13.8544 C   0  0  1  0  0  0  0  0  0  0  0  0
   22.7077  -18.7065  -14.0919 C   0  0  0  0  0  0  0  0  0  0  0  0
   22.9617  -20.8174  -12.7069 C   0  0  0  0  0  0  0  0  0  0  0  0
   23.1524  -20.3280  -11.3247 C   0  0  2  0  0  0  0  0  0  0  0  0
   24.4240  -20.9542  -10.8614 N   0  0  0  0  0  0  0  0  0  0  0  0
   22.1697  -20.6876  -10.3094 C   0  0  0  0  0  0  0  0  0  0  0  0
   22.2222  -21.8969   -9.5819 O   0  0  0  0  0  0  0  0  0  0  0  0
   21.1991  -19.9542  -10.0027 O   0  0  0  0  0  0  0  0  0  0  0  0
  2  1  1  0
  3  2  2  0
  4  2  1  0
  5  4  1  0
  6  8  1  0
  6  5  1  0
  6  7  1  6
  8  9  2  0
 10 11  1  0
 10  8  1  0
 11 12  1  1
 12 13  1  0
 13 21  1  0
 14 15  1  0
 14 13  2  0
 15 16  1  0
 16 21  2  0
 16 17  1  0
 17 18  2  0
 18 19  1  0
 20 19  2  0
 21 20  1  0
 22 11  1  0
 23 22  2  0
 25 24  1  6
 26 25  1  0
 27 25  1  0
 28 27  1  6
 28 29  1  0
 29 22  1  0
 30 31  1  0
 30 28  1  0
 32 30  2  0
M  END
$$$$
