QWL.pdb
     RDKit          3D

 32 33  0  0  1  0  0  0  0  0999 V2000
   22.2374  -35.8458  -17.6918 N   0  0  0  0  0  0  0  0  0  0  0  0
   23.3528  -36.6852  -17.9998 C   0  0  0  0  0  0  0  0  0  0  0  0
   23.1926  -37.5166  -18.9053 O   0  0  0  0  0  0  0  0  0  0  0  0
   24.5930  -36.5183  -17.2398 C   0  0  0  0  0  0  0  0  0  0  0  0
   24.6006  -35.5117  -16.1534 C   0  0  0  0  0  0  0  0  0  0  0  0
   24.8340  -34.0816  -16.5449 C   0  0  2  0  0  0  0  0  0  0  0  0
   26.0627  -33.8049  -17.1776 N   0  0  0  0  0  0  0  0  0  0  0  0
   24.5710  -33.2774  -15.2963 C   0  0  0  0  0  0  0  0  0  0  0  0
   25.6091  -32.8742  -14.7249 O   0  0  0  0  0  0  0  0  0  0  0  0
   23.2857  -32.9900  -14.7952 N   0  0  0  0  0  0  0  0  0  0  0  0
   22.9386  -32.2842  -13.6113 C   0  0  1  0  0  0  0  0  0  0  0  0
   21.6428  -31.5596  -13.6293 C   0  0  0  0  0  0  0  0  0  0  0  0
   20.4540  -32.4027  -13.8929 C   0  0  0  0  0  0  0  0  0  0  0  0
   20.2974  -33.7394  -13.7444 C   0  0  0  0  0  0  0  0  0  0  0  0
   19.0403  -34.0413  -14.1286 N   0  0  0  0  0  0  0  0  0  0  0  0
   18.3847  -32.9247  -14.5218 C   0  0  0  0  0  0  0  0  0  0  0  0
   17.1087  -32.7074  -14.9933 C   0  0  0  0  0  0  0  0  0  0  0  0
   16.6853  -31.4292  -15.3332 C   0  0  0  0  0  0  0  0  0  0  0  0
   17.5550  -30.3743  -15.1947 C   0  0  0  0  0  0  0  0  0  0  0  0
   18.8223  -30.6220  -14.7220 C   0  0  0  0  0  0  0  0  0  0  0  0
   19.2690  -31.8924  -14.3753 C   0  0  0  0  0  0  0  0  0  0  0  0
   23.0475  -33.0853  -12.3396 C   0  0  0  0  0  0  0  0  0  0  0  0
   22.7840  -34.3072  -12.2527 O   0  0  0  0  0  0  0  0  0  0  0  0
   26.3619  -34.2218   -8.4320 C   0  0  0  0  0  0  0  0  0  0  0  0
   25.2903  -33.2029   -7.9203 C   0  0  1  0  0  0  0  0  0  0  0  0
   26.0824  -32.2885   -7.0221 C   0  0  0  0  0  0  0  0  0  0  0  0
   24.7398  -32.6038   -9.1520 C   0  0  0  0  0  0  0  0  0  0  0  0
   23.6598  -33.2857   -9.8970 C   0  0  2  0  0  0  0  0  0  0  0  0
   23.4702  -32.4773  -11.1357 N   0  0  0  0  0  0  0  0  0  0  0  0
   22.3329  -33.3641   -9.2978 C   0  0  0  0  0  0  0  0  0  0  0  0
   21.9166  -34.4440   -8.4886 O   0  0  0  0  0  0  0  0  0  0  0  0
   21.4552  -32.4814   -9.4546 O   0  0  0  0  0  0  0  0  0  0  0  0
  2  1  1  0
  3  2  2  0
  4  2  1  0
  5  4  1  0
  6  8  1  0
  6  5  1  0
  6  7  1  1
  8  9  2  0
 10 11  1  0
 10  8  1  0
 11 12  1  6
 12 13  1  0
 13 21  1  0
 14 15  1  0
 14 13  2  0
 15 16  1  0
 16 21  2  0
 16 17  1  0
 17 18  2  0
 18 19  1  0
 20 19  2  0
 21 20  1  0
 22 11  1  0
 23 22  2  0
 25 24  1  6
 26 25  1  0
 27 25  1  0
 28 27  1  1
 28 29  1  0
 29 22  1  0
 30 31  1  0
 30 28  1  0
 32 30  2  0
M  END
$$$$
