QWL.pdb
     RDKit          3D

 32 33  0  0  1  0  0  0  0  0999 V2000
   27.5151  -25.6642  -17.3164 N   0  0  0  0  0  0  0  0  0  0  0  0
   28.6321  -24.8415  -17.6616 C   0  0  0  0  0  0  0  0  0  0  0  0
   29.2820  -25.1742  -18.6635 O   0  0  0  0  0  0  0  0  0  0  0  0
   28.9379  -23.6793  -16.8254 C   0  0  0  0  0  0  0  0  0  0  0  0
   28.0561  -23.4197  -15.6642 C   0  0  0  0  0  0  0  0  0  0  0  0
   27.2392  -22.1607  -15.6911 C   0  0  2  0  0  0  0  0  0  0  0  0
   27.9484  -20.9668  -15.9325 N   0  0  0  0  0  0  0  0  0  0  0  0
   26.4419  -22.1742  -14.4109 C   0  0  0  0  0  0  0  0  0  0  0  0
   25.8071  -23.2359  -14.2201 O   0  0  0  0  0  0  0  0  0  0  0  0
   26.3970  -21.1047  -13.4943 N   0  0  0  0  0  0  0  0  0  0  0  0
   25.5582  -20.9533  -12.3568 C   0  0  1  0  0  0  0  0  0  0  0  0
   26.0869  -20.1133  -11.2526 C   0  0  0  0  0  0  0  0  0  0  0  0
   27.3529  -20.5902  -10.6498 C   0  0  0  0  0  0  0  0  0  0  0  0
   28.3398  -21.3365  -11.1995 C   0  0  0  0  0  0  0  0  0  0  0  0
   29.2779  -21.5241  -10.2490 N   0  0  0  0  0  0  0  0  0  0  0  0
   28.9138  -20.9132   -9.0977 C   0  0  0  0  0  0  0  0  0  0  0  0
   29.5145  -20.8139   -7.8620 C   0  0  0  0  0  0  0  0  0  0  0  0
   28.9056  -20.1105   -6.8309 C   0  0  0  0  0  0  0  0  0  0  0  0
   27.6901  -19.5094   -7.0538 C   0  0  0  0  0  0  0  0  0  0  0  0
   27.1148  -19.6261   -8.2972 C   0  0  0  0  0  0  0  0  0  0  0  0
   27.7048  -20.3247   -9.3448 C   0  0  0  0  0  0  0  0  0  0  0  0
   24.1406  -20.5445  -12.6633 C   0  0  0  0  0  0  0  0  0  0  0  0
   23.8215  -19.4564  -13.1964 O   0  0  0  0  0  0  0  0  0  0  0  0
   21.0724  -23.4611  -15.5094 C   0  0  0  0  0  0  0  0  0  0  0  0
   21.7545  -22.1799  -14.9249 C   0  0  1  0  0  0  0  0  0  0  0  0
   21.4303  -21.1187  -15.9443 C   0  0  0  0  0  0  0  0  0  0  0  0
   21.1463  -22.0203  -13.5894 C   0  0  0  0  0  0  0  0  0  0  0  0
   21.6549  -20.9944  -12.6539 C   0  0  2  0  0  0  0  0  0  0  0  0
   23.0585  -21.4002  -12.3558 N   0  0  0  0  0  0  0  0  0  0  0  0
   21.0221  -20.8583  -11.3474 C   0  0  0  0  0  0  0  0  0  0  0  0
   19.7669  -20.2385  -11.1612 O   0  0  0  0  0  0  0  0  0  0  0  0
   21.5418  -21.2780  -10.2854 O   0  0  0  0  0  0  0  0  0  0  0  0
  2  1  1  0
  3  2  2  0
  4  2  1  0
  5  4  1  0
  6  8  1  0
  6  5  1  0
  6  7  1  1
  8  9  2  0
 10 11  1  0
 10  8  1  0
 11 12  1  1
 12 13  1  0
 13 21  1  0
 14 15  1  0
 14 13  2  0
 15 16  1  0
 16 21  2  0
 16 17  1  0
 17 18  2  0
 18 19  1  0
 20 19  2  0
 21 20  1  0
 22 11  1  0
 23 22  2  0
 25 24  1  6
 26 25  1  0
 27 25  1  0
 28 27  1  6
 28 29  1  0
 29 22  1  0
 30 31  1  0
 30 28  1  0
 32 30  2  0
M  END
$$$$
