QWL.pdb
     RDKit          3D

 32 33  0  0  1  0  0  0  0  0999 V2000
   26.3580  -20.9909  -18.8103 N   0  0  0  0  0  0  0  0  0  0  0  0
   27.5369  -21.7543  -19.0766 C   0  0  0  0  0  0  0  0  0  0  0  0
   28.0888  -21.5658  -20.1705 O   0  0  0  0  0  0  0  0  0  0  0  0
   28.0113  -22.6975  -18.0623 C   0  0  0  0  0  0  0  0  0  0  0  0
   27.3211  -22.6990  -16.7519 C   0  0  0  0  0  0  0  0  0  0  0  0
   28.0058  -21.9975  -15.6152 C   0  0  2  0  0  0  0  0  0  0  0  0
   29.2911  -22.4689  -15.2801 N   0  0  0  0  0  0  0  0  0  0  0  0
   27.0121  -22.0111  -14.4805 C   0  0  0  0  0  0  0  0  0  0  0  0
   26.2760  -23.0233  -14.4634 O   0  0  0  0  0  0  0  0  0  0  0  0
   26.9001  -20.9923  -13.5135 N   0  0  0  0  0  0  0  0  0  0  0  0
   25.9617  -20.8845  -12.4513 C   0  0  1  0  0  0  0  0  0  0  0  0
   26.3633  -20.0411  -11.2972 C   0  0  0  0  0  0  0  0  0  0  0  0
   27.5139  -20.5502  -10.5159 C   0  0  0  0  0  0  0  0  0  0  0  0
   28.5890  -21.2606  -10.9315 C   0  0  0  0  0  0  0  0  0  0  0  0
   29.3537  -21.5023   -9.8473 N   0  0  0  0  0  0  0  0  0  0  0  0
   28.7915  -20.9615   -8.7416 C   0  0  0  0  0  0  0  0  0  0  0  0
   29.1718  -20.9345   -7.4178 C   0  0  0  0  0  0  0  0  0  0  0  0
   28.3877  -20.2947   -6.4667 C   0  0  0  0  0  0  0  0  0  0  0  0
   27.2207  -19.6840   -6.8585 C   0  0  0  0  0  0  0  0  0  0  0  0
   26.8670  -19.7278   -8.1866 C   0  0  0  0  0  0  0  0  0  0  0  0
   27.6352  -20.3620   -9.1568 C   0  0  0  0  0  0  0  0  0  0  0  0
   24.5621  -20.5207  -12.8752 C   0  0  0  0  0  0  0  0  0  0  0  0
   24.2679  -19.4862  -13.5179 O   0  0  0  0  0  0  0  0  0  0  0  0
   21.3295  -23.9976  -15.1968 C   0  0  0  0  0  0  0  0  0  0  0  0
   22.1417  -22.7006  -14.8707 C   0  0  1  0  0  0  0  0  0  0  0  0
   21.9508  -21.8532  -16.1020 C   0  0  0  0  0  0  0  0  0  0  0  0
   21.5370  -22.1963  -13.6221 C   0  0  0  0  0  0  0  0  0  0  0  0
   22.0817  -20.9910  -12.9612 C   0  0  2  0  0  0  0  0  0  0  0  0
   23.4696  -21.3601  -12.5598 N   0  0  0  0  0  0  0  0  0  0  0  0
   21.4535  -20.5174  -11.7335 C   0  0  0  0  0  0  0  0  0  0  0  0
   20.2596  -19.7632  -11.7215 O   0  0  0  0  0  0  0  0  0  0  0  0
   21.9234  -20.7395  -10.5916 O   0  0  0  0  0  0  0  0  0  0  0  0
  2  1  1  0
  3  2  2  0
  4  2  1  0
  5  4  1  0
  6  8  1  0
  6  5  1  0
  6  7  1  1
  8  9  2  0
 10 11  1  0
 10  8  1  0
 11 12  1  1
 12 13  1  0
 13 21  1  0
 14 15  1  0
 14 13  2  0
 15 16  1  0
 16 21  2  0
 16 17  1  0
 17 18  2  0
 18 19  1  0
 20 19  2  0
 21 20  1  0
 22 11  1  0
 23 22  2  0
 25 24  1  6
 26 25  1  0
 27 25  1  0
 28 27  1  1
 28 29  1  0
 29 22  1  0
 30 31  1  0
 30 28  1  0
 32 30  2  0
M  END
$$$$
