YCV.pdb
     RDKit          3D

 26 26  0  0  1  0  0  0  0  0999 V2000
    8.9535  -12.7576   17.3503 O   0  0  0  0  0  0  0  0  0  0  0  0
    8.4053  -13.1855   18.5490 C   0  0  0  0  0  0  0  0  0  0  0  0
    9.2530  -13.5106   19.5643 C   0  0  0  0  0  0  0  0  0  0  0  0
    8.7189  -13.9388   20.7650 C   0  0  0  0  0  0  0  0  0  0  0  0
    7.3544  -14.0341   20.9296 C   0  0  0  0  0  0  0  0  0  0  0  0
    6.8223  -14.4982   22.2350 C   0  0  0  0  0  0  0  0  0  0  0  0
    6.7238  -16.0063   22.1949 C   0  0  2  0  0  0  0  0  0  0  0  0
    5.5534  -16.4343   21.4645 N   0  0  0  0  0  0  0  0  0  0  0  0
    6.7314  -16.6026   23.5451 C   0  0  0  0  0  0  0  0  0  0  0  0
    5.6970  -16.5843   24.2420 O   0  0  0  0  0  0  0  0  0  0  0  0
    6.4996  -13.7048   19.9014 C   0  0  0  0  0  0  0  0  0  0  0  0
    7.0468  -13.2757   18.6990 C   0  0  0  0  0  0  0  0  0  0  0  0
    7.9125  -17.1893   24.0355 N   0  0  0  0  0  0  0  0  0  0  0  0
    8.1079  -17.5394   25.4205 C   0  0  1  0  0  0  0  0  0  0  0  0
    8.2307  -19.0525   25.5085 C   0  0  0  0  0  0  0  0  0  0  0  0
    8.6431  -19.5643   27.1820 S   0  0  0  0  0  0  0  0  0  0  0  0
    9.3247  -16.9175   25.9932 C   0  0  0  0  0  0  0  0  0  0  0  0
   10.4109  -16.9550   25.3606 O   0  0  0  0  0  0  0  0  0  0  0  0
    8.9101  -14.7119   29.5682 C   0  0  0  0  0  0  0  0  0  0  0  0
    9.9034  -14.3568   28.5075 C   0  0  2  0  0  0  0  0  0  0  0  0
    9.3189  -13.4346   27.4609 C   0  0  0  0  0  0  0  0  0  0  0  0
   10.4364  -15.6441   27.8726 C   0  0  2  0  0  0  0  0  0  0  0  0
    9.2933  -16.2765   27.2465 N   0  0  0  0  0  0  0  0  0  0  0  0
   10.9602  -16.5419   28.9127 C   0  0  0  0  0  0  0  0  0  0  0  0
   12.2153  -16.3347   29.4373 O   0  0  0  0  0  0  0  0  0  0  0  0
   10.2695  -17.4966   29.3251 O   0  0  0  0  0  0  0  0  0  0  0  0
  2  3  2  0
  2  1  1  0
  4  3  1  0
  5  4  2  0
  6  5  1  0
  7  6  1  0
  7  9  1  0
  7  8  1  1
  9 13  1  0
  9 10  2  0
 11  5  1  0
 11 12  2  0
 12  2  1  0
 13 14  1  0
 14 15  1  6
 15 16  1  0
 17 14  1  0
 17 18  2  0
 20 19  1  1
 20 22  1  0
 20 21  1  0
 22 23  1  1
 23 17  1  0
 24 22  1  0
 25 24  1  0
 26 24  2  0
M  END
$$$$
