YCV.pdb
     RDKit          3D

 26 26  0  0  1  0  0  0  0  0999 V2000
   14.8487  -19.6085   20.9519 O   0  0  0  0  0  0  0  0  0  0  0  0
   13.7504  -18.7899   20.7414 C   0  0  0  0  0  0  0  0  0  0  0  0
   13.1312  -18.8435   19.5295 C   0  0  0  0  0  0  0  0  0  0  0  0
   12.0346  -18.0322   19.3067 C   0  0  0  0  0  0  0  0  0  0  0  0
   11.5783  -17.1859   20.2934 C   0  0  0  0  0  0  0  0  0  0  0  0
   10.3976  -16.3315   20.0130 C   0  0  0  0  0  0  0  0  0  0  0  0
    9.1522  -17.1537   20.2554 C   0  0  2  0  0  0  0  0  0  0  0  0
    8.2978  -17.1636   19.0907 N   0  0  0  0  0  0  0  0  0  0  0  0
    8.4000  -16.6925   21.4386 C   0  0  0  0  0  0  0  0  0  0  0  0
    7.1895  -16.4086   21.3379 O   0  0  0  0  0  0  0  0  0  0  0  0
   12.2063  -17.1338   21.5179 C   0  0  0  0  0  0  0  0  0  0  0  0
   13.3072  -17.9532   21.7312 C   0  0  0  0  0  0  0  0  0  0  0  0
    9.0599  -16.5769   22.6759 N   0  0  0  0  0  0  0  0  0  0  0  0
    8.3685  -16.4214   23.9316 C   0  0  1  0  0  0  0  0  0  0  0  0
    7.4296  -17.6057   24.0994 C   0  0  0  0  0  0  0  0  0  0  0  0
    6.5384  -17.4995   25.6573 S   0  0  0  0  0  0  0  0  0  0  0  0
    9.2978  -16.3690   25.0845 C   0  0  0  0  0  0  0  0  0  0  0  0
   10.1823  -17.2520   25.2234 O   0  0  0  0  0  0  0  0  0  0  0  0
    9.0968  -12.9492   27.2273 C   0  0  0  0  0  0  0  0  0  0  0  0
    9.4744  -14.1272   28.0684 C   0  0  2  0  0  0  0  0  0  0  0  0
   10.4017  -13.7484   29.2016 C   0  0  0  0  0  0  0  0  0  0  0  0
   10.1057  -15.1971   27.1733 C   0  0  2  0  0  0  0  0  0  0  0  0
    9.2129  -15.3397   26.0413 N   0  0  0  0  0  0  0  0  0  0  0  0
   10.1695  -16.4809   27.8874 C   0  0  0  0  0  0  0  0  0  0  0  0
   11.3460  -16.8888   28.4729 O   0  0  0  0  0  0  0  0  0  0  0  0
    9.1573  -17.2074   27.9662 O   0  0  0  0  0  0  0  0  0  0  0  0
  2  3  2  0
  2  1  1  0
  4  3  1  0
  5  4  2  0
  6  5  1  0
  7  6  1  0
  7  9  1  0
  7  8  1  6
  9 13  1  0
  9 10  2  0
 11  5  1  0
 11 12  2  0
 12  2  1  0
 13 14  1  0
 14 15  1  1
 15 16  1  0
 17 14  1  0
 17 18  2  0
 20 19  1  6
 20 22  1  0
 20 21  1  0
 22 23  1  6
 23 17  1  0
 24 22  1  0
 25 24  1  0
 26 24  2  0
M  END
$$$$
