YCV.pdb
     RDKit          3D

 26 26  0  0  1  0  0  0  0  0999 V2000
   14.7817  -22.2689   18.7365 O   0  0  0  0  0  0  0  0  0  0  0  0
   14.3449  -21.2205   19.5307 C   0  0  0  0  0  0  0  0  0  0  0  0
   13.2314  -21.4106   20.2917 C   0  0  0  0  0  0  0  0  0  0  0  0
   12.7853  -20.3729   21.0881 C   0  0  0  0  0  0  0  0  0  0  0  0
   13.4559  -19.1696   21.1103 C   0  0  0  0  0  0  0  0  0  0  0  0
   12.9434  -18.0812   21.9795 C   0  0  0  0  0  0  0  0  0  0  0  0
   11.5618  -17.7027   21.4963 C   0  0  2  0  0  0  0  0  0  0  0  0
   11.6241  -16.9922   20.2401 N   0  0  0  0  0  0  0  0  0  0  0  0
   10.8178  -16.9116   22.4958 C   0  0  0  0  0  0  0  0  0  0  0  0
   11.0271  -15.6866   22.6049 O   0  0  0  0  0  0  0  0  0  0  0  0
   14.5815  -18.9800   20.3398 C   0  0  0  0  0  0  0  0  0  0  0  0
   15.0211  -20.0294   19.5431 C   0  0  0  0  0  0  0  0  0  0  0  0
    9.8741  -17.5508   23.3207 N   0  0  0  0  0  0  0  0  0  0  0  0
    9.1229  -16.8667   24.3437 C   0  0  1  0  0  0  0  0  0  0  0  0
    7.8042  -17.6012   24.5271 C   0  0  0  0  0  0  0  0  0  0  0  0
    6.8352  -16.8563   25.8458 S   0  0  0  0  0  0  0  0  0  0  0  0
    9.8418  -16.8251   25.6387 C   0  0  0  0  0  0  0  0  0  0  0  0
   10.4117  -17.8563   26.0783 O   0  0  0  0  0  0  0  0  0  0  0  0
    9.5915  -13.2561   27.6360 C   0  0  0  0  0  0  0  0  0  0  0  0
    9.6993  -14.4934   28.4700 C   0  0  2  0  0  0  0  0  0  0  0  0
   10.3006  -14.2170   29.8300 C   0  0  0  0  0  0  0  0  0  0  0  0
   10.5175  -15.5390   27.7073 C   0  0  2  0  0  0  0  0  0  0  0  0
    9.9028  -15.6418   26.3994 N   0  0  0  0  0  0  0  0  0  0  0  0
   10.4206  -16.8443   28.3771 C   0  0  0  0  0  0  0  0  0  0  0  0
    9.3610  -17.6811   28.1114 O   0  0  0  0  0  0  0  0  0  0  0  0
   11.2985  -17.2004   29.1902 O   0  0  0  0  0  0  0  0  0  0  0  0
  2  3  2  0
  2  1  1  0
  4  3  1  0
  5  4  2  0
  6  5  1  0
  7  6  1  0
  7  9  1  0
  7  8  1  6
  9 13  1  0
  9 10  2  0
 11  5  1  0
 11 12  2  0
 12  2  1  0
 13 14  1  0
 14 15  1  1
 15 16  1  0
 17 14  1  0
 17 18  2  0
 20 19  1  6
 20 22  1  0
 20 21  1  0
 22 23  1  6
 23 17  1  0
 24 22  1  0
 25 24  1  0
 26 24  2  0
M  END
$$$$
