YCV.pdb
     RDKit          3D

 26 26  0  0  1  0  0  0  0  0999 V2000
   -2.1189  -26.1635   18.0553 O   0  0  0  0  0  0  0  0  0  0  0  0
   -0.7407  -26.1713   17.9095 C   0  0  0  0  0  0  0  0  0  0  0  0
   -0.1787  -27.1603   17.1604 C   0  0  0  0  0  0  0  0  0  0  0  0
    1.1947  -27.1793   17.0072 C   0  0  0  0  0  0  0  0  0  0  0  0
    1.9787  -26.2150   17.6019 C   0  0  0  0  0  0  0  0  0  0  0  0
    3.4496  -26.2720   17.4122 C   0  0  0  0  0  0  0  0  0  0  0  0
    3.8364  -25.2139   16.4040 C   0  0  2  0  0  0  0  0  0  0  0  0
    3.2349  -25.4740   15.1167 N   0  0  0  0  0  0  0  0  0  0  0  0
    5.3001  -25.0807   16.2679 C   0  0  0  0  0  0  0  0  0  0  0  0
    5.9142  -25.7658   15.4255 O   0  0  0  0  0  0  0  0  0  0  0  0
    1.4078  -25.2161   18.3587 C   0  0  0  0  0  0  0  0  0  0  0  0
    0.0268  -25.2063   18.5062 C   0  0  0  0  0  0  0  0  0  0  0  0
    5.9922  -24.1768   17.0947 N   0  0  0  0  0  0  0  0  0  0  0  0
    7.4189  -23.9783   17.0324 C   0  0  1  0  0  0  0  0  0  0  0  0
    7.6769  -22.4943   16.8241 C   0  0  0  0  0  0  0  0  0  0  0  0
    9.4346  -22.1301   16.9269 S   0  0  0  0  0  0  0  0  0  0  0  0
    8.1049  -24.4236   18.2680 C   0  0  0  0  0  0  0  0  0  0  0  0
    7.6824  -24.0540   19.3932 O   0  0  0  0  0  0  0  0  0  0  0  0
   11.1738  -27.7525   20.1425 C   0  0  0  0  0  0  0  0  0  0  0  0
   10.5180  -27.1182   18.9569 C   0  0  2  0  0  0  0  0  0  0  0  0
   11.4652  -26.9753   17.7865 C   0  0  0  0  0  0  0  0  0  0  0  0
    9.9448  -25.7603   19.3715 C   0  0  2  0  0  0  0  0  0  0  0  0
    9.2343  -25.2624   18.2112 N   0  0  0  0  0  0  0  0  0  0  0  0
   11.0352  -24.8274   19.6921 C   0  0  0  0  0  0  0  0  0  0  0  0
   11.4532  -24.6733   20.9940 O   0  0  0  0  0  0  0  0  0  0  0  0
   11.5873  -24.1703   18.7855 O   0  0  0  0  0  0  0  0  0  0  0  0
  2  3  2  0
  2  1  1  0
  4  3  1  0
  5  4  2  0
  6  5  1  0
  7  6  1  0
  7  9  1  0
  7  8  1  6
  9 13  1  0
  9 10  2  0
 11  5  1  0
 11 12  2  0
 12  2  1  0
 13 14  1  0
 14 15  1  1
 15 16  1  0
 17 14  1  0
 17 18  2  0
 20 19  1  1
 20 22  1  0
 20 21  1  0
 22 23  1  6
 23 17  1  0
 24 22  1  0
 25 24  1  0
 26 24  2  0
M  END
$$$$
