YCV.pdb
     RDKit          3D

 26 26  0  0  1  0  0  0  0  0999 V2000
    2.4991  -29.7482   22.4511 O   0  0  0  0  0  0  0  0  0  0  0  0
    1.7811  -29.6082   23.6282 C   0  0  0  0  0  0  0  0  0  0  0  0
    2.3816  -29.9727   24.7951 C   0  0  0  0  0  0  0  0  0  0  0  0
    1.6763  -29.8380   25.9761 C   0  0  0  0  0  0  0  0  0  0  0  0
    0.3902  -29.3442   25.9708 C   0  0  0  0  0  0  0  0  0  0  0  0
   -0.3319  -29.2156   27.2610 C   0  0  0  0  0  0  0  0  0  0  0  0
   -0.2225  -27.7798   27.7216 C   0  0  2  0  0  0  0  0  0  0  0  0
    1.1346  -27.4518   28.0922 N   0  0  0  0  0  0  0  0  0  0  0  0
   -1.1444  -27.4784   28.8342 C   0  0  0  0  0  0  0  0  0  0  0  0
   -0.8551  -27.8256   29.9969 O   0  0  0  0  0  0  0  0  0  0  0  0
   -0.2145  -28.9764   24.7894 C   0  0  0  0  0  0  0  0  0  0  0  0
    0.5031  -29.1158   23.6085 C   0  0  0  0  0  0  0  0  0  0  0  0
   -2.3476  -26.7982   28.5706 N   0  0  0  0  0  0  0  0  0  0  0  0
   -3.3916  -26.6257   29.5500 C   0  0  1  0  0  0  0  0  0  0  0  0
   -3.1236  -25.3287   30.2971 C   0  0  0  0  0  0  0  0  0  0  0  0
   -4.4232  -25.0008   31.4956 S   0  0  0  0  0  0  0  0  0  0  0  0
   -4.7380  -26.5643   28.9343 C   0  0  0  0  0  0  0  0  0  0  0  0
   -4.9773  -25.7344   28.0203 O   0  0  0  0  0  0  0  0  0  0  0  0
   -7.1925  -29.7312   29.8020 C   0  0  0  0  0  0  0  0  0  0  0  0
   -7.3083  -29.0181   28.4920 C   0  0  2  0  0  0  0  0  0  0  0  0
   -6.3615  -29.5737   27.4516 C   0  0  0  0  0  0  0  0  0  0  0  0
   -7.0667  -27.5228   28.7153 C   0  0  2  0  0  0  0  0  0  0  0  0
   -5.7700  -27.4250   29.3542 N   0  0  0  0  0  0  0  0  0  0  0  0
   -8.0831  -26.9766   29.6267 C   0  0  0  0  0  0  0  0  0  0  0  0
   -9.3264  -26.6311   29.1490 O   0  0  0  0  0  0  0  0  0  0  0  0
   -7.8238  -26.8233   30.8383 O   0  0  0  0  0  0  0  0  0  0  0  0
  2  3  2  0
  2  1  1  0
  4  3  1  0
  5  4  2  0
  6  5  1  0
  7  6  1  0
  7  9  1  0
  7  8  1  1
  9 13  1  0
  9 10  2  0
 11  5  1  0
 11 12  2  0
 12  2  1  0
 13 14  1  0
 14 15  1  6
 15 16  1  0
 17 14  1  0
 17 18  2  0
 20 19  1  1
 20 22  1  0
 20 21  1  0
 22 23  1  1
 23 17  1  0
 24 22  1  0
 25 24  1  0
 26 24  2  0
M  END
$$$$
