YCV.pdb
     RDKit          3D

 26 26  0  0  1  0  0  0  0  0999 V2000
    4.5072  -21.7045   21.3904 O   0  0  0  0  0  0  0  0  0  0  0  0
    5.4329  -20.7367   21.7471 C   0  0  0  0  0  0  0  0  0  0  0  0
    6.5472  -20.5974   20.9765 C   0  0  0  0  0  0  0  0  0  0  0  0
    7.4782  -19.6359   21.3215 C   0  0  0  0  0  0  0  0  0  0  0  0
    7.2806  -18.8344   22.4245 C   0  0  0  0  0  0  0  0  0  0  0  0
    8.3049  -17.8141   22.7599 C   0  0  0  0  0  0  0  0  0  0  0  0
    7.8187  -16.4743   22.2558 C   0  0  2  0  0  0  0  0  0  0  0  0
    8.2934  -16.2165   20.9161 N   0  0  0  0  0  0  0  0  0  0  0  0
    8.1985  -15.3677   23.1556 C   0  0  0  0  0  0  0  0  0  0  0  0
    9.1016  -14.5739   22.8232 O   0  0  0  0  0  0  0  0  0  0  0  0
    6.1529  -18.9774   23.2019 C   0  0  0  0  0  0  0  0  0  0  0  0
    5.2239  -19.9467   22.8464 C   0  0  0  0  0  0  0  0  0  0  0  0
    7.5340  -15.2182   24.3868 N   0  0  0  0  0  0  0  0  0  0  0  0
    7.7455  -14.0992   25.2710 C   0  0  1  0  0  0  0  0  0  0  0  0
    6.3874  -13.6365   25.7746 C   0  0  0  0  0  0  0  0  0  0  0  0
    6.5625  -12.2459   26.9007 S   0  0  0  0  0  0  0  0  0  0  0  0
    8.6013  -14.4491   26.4289 C   0  0  0  0  0  0  0  0  0  0  0  0
    8.6313  -13.7028   27.4406 O   0  0  0  0  0  0  0  0  0  0  0  0
    9.8245  -14.1814   29.0794 C   0  0  0  0  0  0  0  0  0  0  0  0
   10.8160  -14.6324   28.0539 C   0  0  2  0  0  0  0  0  0  0  0  0
   11.0340  -13.5967   26.9734 C   0  0  0  0  0  0  0  0  0  0  0  0
   10.3461  -15.9618   27.4570 C   0  0  2  0  0  0  0  0  0  0  0  0
    9.3927  -15.6136   26.4232 N   0  0  0  0  0  0  0  0  0  0  0  0
    9.6588  -16.7616   28.4816 C   0  0  0  0  0  0  0  0  0  0  0  0
   10.3639  -17.2770   29.5448 O   0  0  0  0  0  0  0  0  0  0  0  0
    8.4324  -16.9774   28.3925 O   0  0  0  0  0  0  0  0  0  0  0  0
  2  3  2  0
  2  1  1  0
  4  3  1  0
  5  4  2  0
  6  5  1  0
  7  6  1  0
  7  9  1  0
  7  8  1  6
  9 13  1  0
  9 10  2  0
 11  5  1  0
 11 12  2  0
 12  2  1  0
 13 14  1  0
 14 15  1  1
 15 16  1  0
 17 14  1  0
 17 18  2  0
 20 19  1  1
 20 22  1  0
 20 21  1  0
 22 23  1  6
 23 17  1  0
 24 22  1  0
 25 24  1  0
 26 24  2  0
M  END
$$$$
