YCV.pdb
     RDKit          3D

 26 26  0  0  1  0  0  0  0  0999 V2000
    8.9833  -19.7675   29.4491 O   0  0  0  0  0  0  0  0  0  0  0  0
    8.2853  -20.1490   28.3143 C   0  0  0  0  0  0  0  0  0  0  0  0
    8.9915  -20.3858   27.1739 C   0  0  0  0  0  0  0  0  0  0  0  0
    8.3073  -20.7669   26.0352 C   0  0  0  0  0  0  0  0  0  0  0  0
    6.9366  -20.9042   26.0554 C   0  0  0  0  0  0  0  0  0  0  0  0
    6.2406  -21.3154   24.8107 C   0  0  0  0  0  0  0  0  0  0  0  0
    5.5571  -20.0989   24.2286 C   0  0  2  0  0  0  0  0  0  0  0  0
    4.7442  -20.4521   23.0880 N   0  0  0  0  0  0  0  0  0  0  0  0
    6.5179  -19.0392   23.8645 C   0  0  0  0  0  0  0  0  0  0  0  0
    7.1658  -19.1215   22.8017 O   0  0  0  0  0  0  0  0  0  0  0  0
    6.2250  -20.6642   27.2097 C   0  0  0  0  0  0  0  0  0  0  0  0
    6.9224  -20.2817   28.3483 C   0  0  0  0  0  0  0  0  0  0  0  0
    6.6945  -17.9402   24.7251 N   0  0  0  0  0  0  0  0  0  0  0  0
    7.5427  -16.8169   24.4126 C   0  0  1  0  0  0  0  0  0  0  0  0
    7.1315  -15.6566   25.3052 C   0  0  0  0  0  0  0  0  0  0  0  0
    8.1236  -14.1983   24.9561 S   0  0  0  0  0  0  0  0  0  0  0  0
    8.9775  -17.1154   24.6312 C   0  0  0  0  0  0  0  0  0  0  0  0
    9.3668  -17.5690   25.7375 O   0  0  0  0  0  0  0  0  0  0  0  0
   11.8019  -15.6840   21.8793 C   0  0  0  0  0  0  0  0  0  0  0  0
   11.8946  -17.1171   22.2983 C   0  0  2  0  0  0  0  0  0  0  0  0
   11.1889  -18.0431   21.3329 C   0  0  0  0  0  0  0  0  0  0  0  0
   11.3283  -17.2603   23.7137 C   0  0  2  0  0  0  0  0  0  0  0  0
    9.9285  -16.9002   23.6155 N   0  0  0  0  0  0  0  0  0  0  0  0
   11.9947  -16.3165   24.6231 C   0  0  0  0  0  0  0  0  0  0  0  0
   13.2451  -16.6022   25.1216 O   0  0  0  0  0  0  0  0  0  0  0  0
   11.4302  -15.2514   24.9479 O   0  0  0  0  0  0  0  0  0  0  0  0
  2  3  2  0
  2  1  1  0
  4  3  1  0
  5  4  2  0
  6  5  1  0
  7  6  1  0
  7  9  1  0
  7  8  1  6
  9 13  1  0
  9 10  2  0
 11  5  1  0
 11 12  2  0
 12  2  1  0
 13 14  1  0
 14 15  1  1
 15 16  1  0
 17 14  1  0
 17 18  2  0
 20 19  1  6
 20 22  1  0
 20 21  1  0
 22 23  1  6
 23 17  1  0
 24 22  1  0
 25 24  1  0
 26 24  2  0
M  END
$$$$
