YCV.pdb
     RDKit          3D

 26 26  0  0  1  0  0  0  0  0999 V2000
    9.2214  -12.9094   17.1110 O   0  0  0  0  0  0  0  0  0  0  0  0
    8.6242  -13.3471   18.2824 C   0  0  0  0  0  0  0  0  0  0  0  0
    9.3912  -14.0248   19.1811 C   0  0  0  0  0  0  0  0  0  0  0  0
    8.8076  -14.4668   20.3534 C   0  0  0  0  0  0  0  0  0  0  0  0
    7.4750  -14.2253   20.6062 C   0  0  0  0  0  0  0  0  0  0  0  0
    6.8876  -14.7172   21.8773 C   0  0  0  0  0  0  0  0  0  0  0  0
    6.8162  -16.2259   21.8111 C   0  0  2  0  0  0  0  0  0  0  0  0
    5.8055  -16.6607   20.8752 N   0  0  0  0  0  0  0  0  0  0  0  0
    6.5822  -16.8326   23.1362 C   0  0  0  0  0  0  0  0  0  0  0  0
    5.4578  -16.7525   23.6703 O   0  0  0  0  0  0  0  0  0  0  0  0
    6.7018  -13.5399   19.6957 C   0  0  0  0  0  0  0  0  0  0  0  0
    7.2982  -13.1002   18.5210 C   0  0  0  0  0  0  0  0  0  0  0  0
    7.6362  -17.4994   23.7875 N   0  0  0  0  0  0  0  0  0  0  0  0
    7.7094  -17.6585   25.2186 C   0  0  1  0  0  0  0  0  0  0  0  0
    7.8385  -19.1436   25.5190 C   0  0  0  0  0  0  0  0  0  0  0  0
    8.0740  -19.4218   27.2796 S   0  0  0  0  0  0  0  0  0  0  0  0
    8.8635  -16.9399   25.8079 C   0  0  0  0  0  0  0  0  0  0  0  0
   10.0087  -17.0630   25.3034 O   0  0  0  0  0  0  0  0  0  0  0  0
    8.4613  -13.3596   27.2177 C   0  0  0  0  0  0  0  0  0  0  0  0
    9.1427  -14.1876   28.2608 C   0  0  2  0  0  0  0  0  0  0  0  0
   10.1630  -13.3939   29.0461 C   0  0  0  0  0  0  0  0  0  0  0  0
    9.7876  -15.4033   27.5896 C   0  0  2  0  0  0  0  0  0  0  0  0
    8.7060  -16.1108   26.9349 N   0  0  0  0  0  0  0  0  0  0  0  0
   10.3815  -16.2860   28.6046 C   0  0  0  0  0  0  0  0  0  0  0  0
   11.6989  -16.1313   28.9701 O   0  0  0  0  0  0  0  0  0  0  0  0
    9.6940  -17.1801   29.1399 O   0  0  0  0  0  0  0  0  0  0  0  0
  2  3  2  0
  2  1  1  0
  4  3  1  0
  5  4  2  0
  6  5  1  0
  7  6  1  0
  7  9  1  0
  7  8  1  6
  9 13  1  0
  9 10  2  0
 11  5  1  0
 11 12  2  0
 12  2  1  0
 13 14  1  0
 14 15  1  6
 15 16  1  0
 17 14  1  0
 17 18  2  0
 20 19  1  6
 20 22  1  0
 20 21  1  0
 22 23  1  1
 23 17  1  0
 24 22  1  0
 25 24  1  0
 26 24  2  0
M  END
$$$$
