YCV.pdb
     RDKit          3D

 26 26  0  0  1  0  0  0  0  0999 V2000
    0.9119  -19.7982   17.8240 O   0  0  0  0  0  0  0  0  0  0  0  0
    1.4481  -19.5094   19.0689 C   0  0  0  0  0  0  0  0  0  0  0  0
    2.5660  -18.7332   19.1233 C   0  0  0  0  0  0  0  0  0  0  0  0
    3.1108  -18.4378   20.3587 C   0  0  0  0  0  0  0  0  0  0  0  0
    2.5322  -18.9204   21.5122 C   0  0  0  0  0  0  0  0  0  0  0  0
    3.1489  -18.5796   22.8184 C   0  0  0  0  0  0  0  0  0  0  0  0
    4.5151  -19.2244   22.8774 C   0  0  2  0  0  0  0  0  0  0  0  0
    4.4199  -20.6614   22.7660 N   0  0  0  0  0  0  0  0  0  0  0  0
    5.2555  -18.8533   24.0992 C   0  0  0  0  0  0  0  0  0  0  0  0
    4.8517  -19.2371   25.2153 O   0  0  0  0  0  0  0  0  0  0  0  0
    1.4019  -19.7050   21.4542 C   0  0  0  0  0  0  0  0  0  0  0  0
    0.8627  -19.9958   20.2077 C   0  0  0  0  0  0  0  0  0  0  0  0
    6.4164  -18.0656   23.9921 N   0  0  0  0  0  0  0  0  0  0  0  0
    7.1287  -17.5444   25.1321 C   0  0  1  0  0  0  0  0  0  0  0  0
    8.1897  -18.5600   25.5261 C   0  0  0  0  0  0  0  0  0  0  0  0
    9.3217  -18.8639   24.1628 S   0  0  0  0  0  0  0  0  0  0  0  0
    7.7806  -16.2453   24.8443 C   0  0  0  0  0  0  0  0  0  0  0  0
    8.2604  -16.0182   23.7043 O   0  0  0  0  0  0  0  0  0  0  0  0
    7.3205  -13.1892   27.6396 C   0  0  0  0  0  0  0  0  0  0  0  0
    7.5669  -12.9165   26.1895 C   0  0  2  0  0  0  0  0  0  0  0  0
    6.2856  -12.8852   25.3865 C   0  0  0  0  0  0  0  0  0  0  0  0
    8.5353  -13.9685   25.6419 C   0  0  2  0  0  0  0  0  0  0  0  0
    7.8770  -15.2452   25.8306 N   0  0  0  0  0  0  0  0  0  0  0  0
    9.7825  -13.9622   26.4207 C   0  0  0  0  0  0  0  0  0  0  0  0
   10.7121  -12.9658   26.2298 O   0  0  0  0  0  0  0  0  0  0  0  0
   10.0048  -14.8602   27.2590 O   0  0  0  0  0  0  0  0  0  0  0  0
  2  3  2  0
  2  1  1  0
  4  3  1  0
  5  4  2  0
  6  5  1  0
  7  6  1  0
  7  9  1  0
  7  8  1  1
  9 13  1  0
  9 10  2  0
 11  5  1  0
 11 12  2  0
 12  2  1  0
 13 14  1  0
 14 15  1  6
 15 16  1  0
 17 14  1  0
 17 18  2  0
 20 19  1  1
 20 22  1  0
 20 21  1  0
 22 23  1  1
 23 17  1  0
 24 22  1  0
 25 24  1  0
 26 24  2  0
M  END
$$$$
