YCV.pdb
     RDKit          3D

 26 26  0  0  1  0  0  0  0  0999 V2000
    7.2756  -23.9725   12.5778 O   0  0  0  0  0  0  0  0  0  0  0  0
    8.2784  -23.6759   13.4873 C   0  0  0  0  0  0  0  0  0  0  0  0
    9.4795  -23.2520   13.0049 C   0  0  0  0  0  0  0  0  0  0  0  0
   10.4879  -22.9529   13.9015 C   0  0  0  0  0  0  0  0  0  0  0  0
   10.2799  -23.0819   15.2572 C   0  0  0  0  0  0  0  0  0  0  0  0
   11.3893  -22.7503   16.1857 C   0  0  0  0  0  0  0  0  0  0  0  0
   10.9818  -21.5395   16.9941 C   0  0  2  0  0  0  0  0  0  0  0  0
   10.8306  -20.3757   16.1519 N   0  0  0  0  0  0  0  0  0  0  0  0
   11.9264  -21.2576   18.0926 C   0  0  0  0  0  0  0  0  0  0  0  0
   12.8511  -20.4369   17.9264 O   0  0  0  0  0  0  0  0  0  0  0  0
    9.0644  -23.5108   15.7423 C   0  0  0  0  0  0  0  0  0  0  0  0
    8.0580  -23.8086   14.8327 C   0  0  0  0  0  0  0  0  0  0  0  0
   11.7737  -21.9215   19.3237 N   0  0  0  0  0  0  0  0  0  0  0  0
   12.6995  -21.7814   20.4201 C   0  0  1  0  0  0  0  0  0  0  0  0
   11.8976  -21.4678   21.6734 C   0  0  0  0  0  0  0  0  0  0  0  0
   12.9857  -21.2155   23.0824 S   0  0  0  0  0  0  0  0  0  0  0  0
   13.4963  -23.0101   20.6460 C   0  0  0  0  0  0  0  0  0  0  0  0
   12.9211  -24.1201   20.7807 O   0  0  0  0  0  0  0  0  0  0  0  0
   16.9132  -23.2855   18.8641 C   0  0  0  0  0  0  0  0  0  0  0  0
   17.1095  -23.7282   20.2795 C   0  0  2  0  0  0  0  0  0  0  0  0
   18.1056  -24.8607   20.3927 C   0  0  0  0  0  0  0  0  0  0  0  0
   15.7538  -24.1248   20.8704 C   0  0  2  0  0  0  0  0  0  0  0  0
   14.9018  -22.9635   20.7144 N   0  0  0  0  0  0  0  0  0  0  0  0
   15.8932  -24.4174   22.3047 C   0  0  0  0  0  0  0  0  0  0  0  0
   16.0138  -25.7183   22.7366 O   0  0  0  0  0  0  0  0  0  0  0  0
   15.9027  -23.4877   23.1379 O   0  0  0  0  0  0  0  0  0  0  0  0
  2  3  2  0
  2  1  1  0
  4  3  1  0
  5  4  2  0
  6  5  1  0
  7  6  1  0
  7  9  1  0
  7  8  1  6
  9 13  1  0
  9 10  2  0
 11  5  1  0
 11 12  2  0
 12  2  1  0
 13 14  1  0
 14 15  1  1
 15 16  1  0
 17 14  1  0
 17 18  2  0
 20 19  1  6
 20 22  1  0
 20 21  1  0
 22 23  1  1
 23 17  1  0
 24 22  1  0
 25 24  1  0
 26 24  2  0
M  END
$$$$
