YCV.pdb
     RDKit          3D

 26 26  0  0  1  0  0  0  0  0999 V2000
    9.4176  -25.4606   21.0351 O   0  0  0  0  0  0  0  0  0  0  0  0
   10.1709  -24.3193   20.8098 C   0  0  0  0  0  0  0  0  0  0  0  0
   10.1011  -23.7345   19.5817 C   0  0  0  0  0  0  0  0  0  0  0  0
   10.8474  -22.5957   19.3442 C   0  0  0  0  0  0  0  0  0  0  0  0
   11.6463  -22.0638   20.3326 C   0  0  0  0  0  0  0  0  0  0  0  0
   12.4316  -20.8398   20.0361 C   0  0  0  0  0  0  0  0  0  0  0  0
   11.6007  -19.6396   20.4296 C   0  0  2  0  0  0  0  0  0  0  0  0
   10.6181  -19.3298   19.4172 N   0  0  0  0  0  0  0  0  0  0  0  0
   12.4323  -18.4543   20.7160 C   0  0  0  0  0  0  0  0  0  0  0  0
   12.7031  -17.6461   19.8051 O   0  0  0  0  0  0  0  0  0  0  0  0
   11.7150  -22.6571   21.5735 C   0  0  0  0  0  0  0  0  0  0  0  0
   10.9609  -23.8010   21.8015 C   0  0  0  0  0  0  0  0  0  0  0  0
   12.9143  -18.2465   22.0214 N   0  0  0  0  0  0  0  0  0  0  0  0
   13.7360  -17.1217   22.3935 C   0  0  1  0  0  0  0  0  0  0  0  0
   13.0176  -16.3613   23.4971 C   0  0  0  0  0  0  0  0  0  0  0  0
   12.6171  -17.4522   24.8691 S   0  0  0  0  0  0  0  0  0  0  0  0
   15.0736  -17.5360   22.8779 C   0  0  0  0  0  0  0  0  0  0  0  0
   15.2003  -18.5802   23.5670 O   0  0  0  0  0  0  0  0  0  0  0  0
   18.1373  -16.9938   20.6069 C   0  0  0  0  0  0  0  0  0  0  0  0
   18.5000  -16.4896   21.9678 C   0  0  2  0  0  0  0  0  0  0  0  0
   19.9492  -16.7547   22.3097 C   0  0  0  0  0  0  0  0  0  0  0  0
   17.5646  -17.1246   23.0004 C   0  0  2  0  0  0  0  0  0  0  0  0
   16.2220  -16.7776   22.5809 N   0  0  0  0  0  0  0  0  0  0  0  0
   17.8080  -16.5432   24.3288 C   0  0  0  0  0  0  0  0  0  0  0  0
   17.0958  -15.4409   24.7424 O   0  0  0  0  0  0  0  0  0  0  0  0
   18.6617  -17.0461   25.0883 O   0  0  0  0  0  0  0  0  0  0  0  0
  2  3  2  0
  2  1  1  0
  4  3  1  0
  5  4  2  0
  6  5  1  0
  7  6  1  0
  7  9  1  0
  7  8  1  6
  9 13  1  0
  9 10  2  0
 11  5  1  0
 11 12  2  0
 12  2  1  0
 13 14  1  0
 14 15  1  1
 15 16  1  0
 17 14  1  0
 17 18  2  0
 20 19  1  6
 20 22  1  0
 20 21  1  0
 22 23  1  6
 23 17  1  0
 24 22  1  0
 25 24  1  0
 26 24  2  0
M  END
$$$$
