SAP.pdb
     RDKit          3D

 19 19  0  0  1  0  0  0  0  0999 V2000
   11.3213  -13.3883   19.4952 O   0  0  0  0  0  0  0  0  0  0  0  0
   10.4352  -14.3338   19.9926 C   0  0  0  0  0  0  0  0  0  0  0  0
    8.9994  -13.9398   19.8108 C   0  0  2  0  0  0  0  0  0  0  0  0
    8.9052  -12.7515   19.0236 N   0  0  0  0  0  0  0  0  0  0  0  0
    8.3212  -13.7862   21.1407 C   0  0  0  0  0  0  0  0  0  0  0  0
    8.1874  -12.6558   21.6736 O   0  0  0  0  0  0  0  0  0  0  0  0
    6.3294  -16.1085   23.3762 C   0  0  0  0  0  0  0  0  0  0  0  0
    7.1033  -14.8335   23.0849 C   0  0  2  0  0  0  0  0  0  0  0  0
    7.8115  -14.9109   21.8350 N   0  0  0  0  0  0  0  0  0  0  0  0
    7.9518  -14.4249   24.2041 C   0  0  0  0  0  0  0  0  0  0  0  0
    9.1404  -14.7850   24.2652 O   0  0  0  0  0  0  0  0  0  0  0  0
    7.4424  -13.5935   25.2717 N   0  0  0  0  0  0  0  0  0  0  0  0
    6.1399  -12.9671   25.2491 C   0  0  0  0  0  0  0  0  0  0  0  0
    6.1592  -11.9119   26.3331 C   0  0  0  0  0  0  0  0  0  0  0  0
    7.1456  -12.4905   27.3288 C   0  0  0  0  0  0  0  0  0  0  0  0
    8.1174  -13.2550   26.4848 C   0  0  1  0  0  0  0  0  0  0  0  0
    8.6244  -14.4687   27.2004 C   0  0  0  0  0  0  0  0  0  0  0  0
    8.0416  -15.5442   27.0042 O   0  0  0  0  0  0  0  0  0  0  0  0
    9.7085  -14.4217   28.0601 O   0  0  0  0  0  0  0  0  0  0  0  0
  1  2  1  0
  3  2  1  0
  3  4  1  1
  5  6  2  0
  5  3  1  0
  8  7  1  1
  8  9  1  0
  9  5  1  0
 10  8  1  0
 10 12  1  0
 11 10  2  0
 12 16  1  0
 13 12  1  0
 13 14  1  0
 14 15  1  0
 16 15  1  0
 16 17  1  1
 17 19  1  0
 18 17  2  0
M  END
$$$$
