SAP.pdb
     RDKit          3D

 19 19  0  0  1  0  0  0  0  0999 V2000
   11.9380  -17.4068   15.7522 O   0  0  0  0  0  0  0  0  0  0  0  0
   11.5316  -16.7475   14.6003 C   0  0  0  0  0  0  0  0  0  0  0  0
   10.0403  -16.7160   14.4420 C   0  0  2  0  0  0  0  0  0  0  0  0
    9.6837  -16.0827   13.2122 N   0  0  0  0  0  0  0  0  0  0  0  0
    9.3975  -16.0492   15.6228 C   0  0  0  0  0  0  0  0  0  0  0  0
    9.3693  -14.7967   15.7242 O   0  0  0  0  0  0  0  0  0  0  0  0
    7.0789  -17.2589   18.3412 C   0  0  0  0  0  0  0  0  0  0  0  0
    8.0386  -16.2467   17.7381 C   0  0  2  0  0  0  0  0  0  0  0  0
    8.8034  -16.8117   16.6584 N   0  0  0  0  0  0  0  0  0  0  0  0
    8.8665  -15.5883   18.7483 C   0  0  0  0  0  0  0  0  0  0  0  0
    9.9721  -16.0583   19.0690 O   0  0  0  0  0  0  0  0  0  0  0  0
    8.4318  -14.3760   19.4054 N   0  0  0  0  0  0  0  0  0  0  0  0
    7.2470  -13.6390   19.0277 C   0  0  0  0  0  0  0  0  0  0  0  0
    7.3677  -12.2801   19.6817 C   0  0  0  0  0  0  0  0  0  0  0  0
    8.1913  -12.5888   20.9169 C   0  0  0  0  0  0  0  0  0  0  0  0
    9.0792  -13.7184   20.4964 C   0  0  1  0  0  0  0  0  0  0  0  0
    9.3471  -14.6543   21.6342 C   0  0  0  0  0  0  0  0  0  0  0  0
   10.3376  -14.4352   22.3455 O   0  0  0  0  0  0  0  0  0  0  0  0
    8.5312  -15.7388   21.9080 O   0  0  0  0  0  0  0  0  0  0  0  0
  1  2  1  0
  3  2  1  0
  3  4  1  6
  5  6  2  0
  5  3  1  0
  8  7  1  1
  8  9  1  0
  9  5  1  0
 10  8  1  0
 10 12  1  0
 11 10  2  0
 12 16  1  0
 13 12  1  0
 13 14  1  0
 14 15  1  0
 16 15  1  0
 16 17  1  1
 17 19  1  0
 18 17  2  0
M  END
$$$$
