SAP.pdb
     RDKit          3D

 19 19  0  0  1  0  0  0  0  0999 V2000
   11.1814  -13.2553   19.8095 O   0  0  0  0  0  0  0  0  0  0  0  0
   10.3351  -14.3464   19.9498 C   0  0  0  0  0  0  0  0  0  0  0  0
    8.8868  -13.9830   19.8073 C   0  0  2  0  0  0  0  0  0  0  0  0
    8.7473  -12.7850   19.0420 N   0  0  0  0  0  0  0  0  0  0  0  0
    8.2363  -13.8664   21.1547 C   0  0  0  0  0  0  0  0  0  0  0  0
    7.9692  -12.7428   21.6507 O   0  0  0  0  0  0  0  0  0  0  0  0
    6.4851  -16.3146   23.4293 C   0  0  0  0  0  0  0  0  0  0  0  0
    7.1738  -14.9897   23.1470 C   0  0  2  0  0  0  0  0  0  0  0  0
    7.9038  -15.0194   21.9076 N   0  0  0  0  0  0  0  0  0  0  0  0
    7.9760  -14.5230   24.2776 C   0  0  0  0  0  0  0  0  0  0  0  0
    9.1786  -14.8249   24.3715 O   0  0  0  0  0  0  0  0  0  0  0  0
    7.4033  -13.6997   25.3190 N   0  0  0  0  0  0  0  0  0  0  0  0
    6.0584  -13.1713   25.2758 C   0  0  0  0  0  0  0  0  0  0  0  0
    5.9965  -12.0857   26.3276 C   0  0  0  0  0  0  0  0  0  0  0  0
    7.0191  -12.5604   27.3416 C   0  0  0  0  0  0  0  0  0  0  0  0
    8.0473  -13.2765   26.5223 C   0  0  1  0  0  0  0  0  0  0  0  0
    8.6393  -14.4278   27.2748 C   0  0  0  0  0  0  0  0  0  0  0  0
    9.6350  -14.2108   27.9793 O   0  0  0  0  0  0  0  0  0  0  0  0
    8.1124  -15.7062   27.2055 O   0  0  0  0  0  0  0  0  0  0  0  0
  1  2  1  0
  3  2  1  0
  3  4  1  1
  5  6  2  0
  5  3  1  0
  8  7  1  1
  8  9  1  0
  9  5  1  0
 10  8  1  0
 10 12  1  0
 11 10  2  0
 12 16  1  0
 13 12  1  0
 13 14  1  0
 14 15  1  0
 16 15  1  0
 16 17  1  1
 17 19  1  0
 18 17  2  0
M  END
$$$$
