SAP.pdb
     RDKit          3D

 19 19  0  0  1  0  0  0  0  0999 V2000
   11.2318  -16.4517   22.0319 O   0  0  0  0  0  0  0  0  0  0  0  0
   10.6897  -16.0390   20.8227 C   0  0  0  0  0  0  0  0  0  0  0  0
    9.2179  -16.3100   20.7208 C   0  0  2  0  0  0  0  0  0  0  0  0
    8.7235  -15.8999   19.4448 N   0  0  0  0  0  0  0  0  0  0  0  0
    8.4795  -15.6480   21.8471 C   0  0  0  0  0  0  0  0  0  0  0  0
    8.1875  -14.4264   21.8017 O   0  0  0  0  0  0  0  0  0  0  0  0
    6.5522  -16.8831   24.8364 C   0  0  0  0  0  0  0  0  0  0  0  0
    7.3472  -15.8221   24.0938 C   0  0  2  0  0  0  0  0  0  0  0  0
    8.0895  -16.3806   22.9953 N   0  0  0  0  0  0  0  0  0  0  0  0
    8.1679  -15.0075   24.9896 C   0  0  0  0  0  0  0  0  0  0  0  0
    9.3739  -15.2620   25.1540 O   0  0  0  0  0  0  0  0  0  0  0  0
    7.6103  -13.8853   25.7106 N   0  0  0  0  0  0  0  0  0  0  0  0
    6.2922  -13.3464   25.4615 C   0  0  0  0  0  0  0  0  0  0  0  0
    6.2565  -11.9900   26.1307 C   0  0  0  0  0  0  0  0  0  0  0  0
    7.2333  -12.1699   27.2764 C   0  0  0  0  0  0  0  0  0  0  0  0
    8.2459  -13.1390   26.7502 C   0  0  1  0  0  0  0  0  0  0  0  0
    8.7677  -14.0267   27.8374 C   0  0  0  0  0  0  0  0  0  0  0  0
    8.2697  -15.1551   27.9549 O   0  0  0  0  0  0  0  0  0  0  0  0
    9.7745  -13.6271   28.6995 O   0  0  0  0  0  0  0  0  0  0  0  0
  1  2  1  0
  3  2  1  0
  3  4  1  6
  5  6  2  0
  5  3  1  0
  8  7  1  1
  8  9  1  0
  9  5  1  0
 10  8  1  0
 10 12  1  0
 11 10  2  0
 12 16  1  0
 13 12  1  0
 13 14  1  0
 14 15  1  0
 16 15  1  0
 16 17  1  1
 17 19  1  0
 18 17  2  0
M  END
$$$$
