SAP.pdb
     RDKit          3D

 19 19  0  0  1  0  0  0  0  0999 V2000
   11.0412  -13.9052   19.0352 O   0  0  0  0  0  0  0  0  0  0  0  0
   10.2569  -13.5780   20.1327 C   0  0  0  0  0  0  0  0  0  0  0  0
    8.8015  -13.8694   19.9169 C   0  0  2  0  0  0  0  0  0  0  0  0
    8.2541  -12.9775   18.9446 N   0  0  0  0  0  0  0  0  0  0  0  0
    8.0524  -13.8104   21.2160 C   0  0  0  0  0  0  0  0  0  0  0  0
    7.6547  -12.7146   21.6859 O   0  0  0  0  0  0  0  0  0  0  0  0
    6.5143  -16.3604   23.5458 C   0  0  0  0  0  0  0  0  0  0  0  0
    7.1181  -15.0014   23.2330 C   0  0  2  0  0  0  0  0  0  0  0  0
    7.7714  -14.9882   21.9513 N   0  0  0  0  0  0  0  0  0  0  0  0
    7.9637  -14.5010   24.3166 C   0  0  0  0  0  0  0  0  0  0  0  0
    9.1624  -14.8237   24.3881 O   0  0  0  0  0  0  0  0  0  0  0  0
    7.4397  -13.6196   25.3358 N   0  0  0  0  0  0  0  0  0  0  0  0
    6.1366  -12.9978   25.2664 C   0  0  0  0  0  0  0  0  0  0  0  0
    6.1406  -11.8908   26.2977 C   0  0  0  0  0  0  0  0  0  0  0  0
    7.1153  -12.4181   27.3327 C   0  0  0  0  0  0  0  0  0  0  0  0
    8.0989  -13.2208   26.5392 C   0  0  1  0  0  0  0  0  0  0  0  0
    8.5986  -14.3970   27.3195 C   0  0  0  0  0  0  0  0  0  0  0  0
    8.0759  -15.4999   27.1063 O   0  0  0  0  0  0  0  0  0  0  0  0
    9.6120  -14.2869   28.2564 O   0  0  0  0  0  0  0  0  0  0  0  0
  1  2  1  0
  3  2  1  0
  3  4  1  6
  5  6  2  0
  5  3  1  0
  8  7  1  1
  8  9  1  0
  9  5  1  0
 10  8  1  0
 10 12  1  0
 11 10  2  0
 12 16  1  0
 13 12  1  0
 13 14  1  0
 14 15  1  0
 16 15  1  0
 16 17  1  1
 17 19  1  0
 18 17  2  0
M  END
$$$$
