SAP.pdb
     RDKit          3D

 19 19  0  0  1  0  0  0  0  0999 V2000
   10.7820  -13.9420   20.7270 O   0  0  0  0  0  0  0  0  0  0  0  0
    9.9400  -13.2658   19.8550 C   0  0  0  0  0  0  0  0  0  0  0  0
    8.5632  -13.8582   19.7971 C   0  0  2  0  0  0  0  0  0  0  0  0
    7.7717  -13.1832   18.8181 N   0  0  0  0  0  0  0  0  0  0  0  0
    7.9196  -13.8329   21.1526 C   0  0  0  0  0  0  0  0  0  0  0  0
    7.4374  -12.7713   21.6217 O   0  0  0  0  0  0  0  0  0  0  0  0
    6.6222  -16.4353   23.5203 C   0  0  0  0  0  0  0  0  0  0  0  0
    7.2074  -15.0620   23.2364 C   0  0  2  0  0  0  0  0  0  0  0  0
    7.8366  -15.0051   21.9438 N   0  0  0  0  0  0  0  0  0  0  0  0
    8.0685  -14.5852   24.3184 C   0  0  0  0  0  0  0  0  0  0  0  0
    9.2673  -14.9119   24.3676 O   0  0  0  0  0  0  0  0  0  0  0  0
    7.5602  -13.7231   25.3618 N   0  0  0  0  0  0  0  0  0  0  0  0
    6.2487  -13.1161   25.3332 C   0  0  0  0  0  0  0  0  0  0  0  0
    6.2659  -12.0224   26.3784 C   0  0  0  0  0  0  0  0  0  0  0  0
    7.2725  -12.5511   27.3817 C   0  0  0  0  0  0  0  0  0  0  0  0
    8.2449  -13.3318   26.5534 C   0  0  1  0  0  0  0  0  0  0  0  0
    8.7779  -14.5118   27.3055 C   0  0  0  0  0  0  0  0  0  0  0  0
    8.2347  -15.6103   27.1231 O   0  0  0  0  0  0  0  0  0  0  0  0
    9.8432  -14.4098   28.1838 O   0  0  0  0  0  0  0  0  0  0  0  0
  1  2  1  0
  3  2  1  0
  3  4  1  6
  5  6  2  0
  5  3  1  0
  8  7  1  1
  8  9  1  0
  9  5  1  0
 10  8  1  0
 10 12  1  0
 11 10  2  0
 12 16  1  0
 13 12  1  0
 13 14  1  0
 14 15  1  0
 16 15  1  0
 16 17  1  1
 17 19  1  0
 18 17  2  0
M  END
$$$$
