SAP.pdb
     RDKit          3D

 19 19  0  0  1  0  0  0  0  0999 V2000
   10.7967  -13.4585   20.4944 O   0  0  0  0  0  0  0  0  0  0  0  0
   10.0068  -14.4687   19.9632 C   0  0  0  0  0  0  0  0  0  0  0  0
    8.5809  -14.0490   19.7620 C   0  0  2  0  0  0  0  0  0  0  0  0
    8.5192  -12.8545   18.9810 N   0  0  0  0  0  0  0  0  0  0  0  0
    7.8850  -13.8919   21.0823 C   0  0  0  0  0  0  0  0  0  0  0  0
    7.7495  -12.7609   21.6134 O   0  0  0  0  0  0  0  0  0  0  0  0
    5.9724  -16.2162   23.3928 C   0  0  0  0  0  0  0  0  0  0  0  0
    6.7448  -14.9484   23.0682 C   0  0  2  0  0  0  0  0  0  0  0  0
    7.3599  -15.0141   21.7693 N   0  0  0  0  0  0  0  0  0  0  0  0
    7.6784  -14.5736   24.1301 C   0  0  0  0  0  0  0  0  0  0  0  0
    8.8448  -15.0045   24.1323 O   0  0  0  0  0  0  0  0  0  0  0  0
    7.2811  -13.6950   25.2074 N   0  0  0  0  0  0  0  0  0  0  0  0
    6.0173  -12.9944   25.2469 C   0  0  0  0  0  0  0  0  0  0  0  0
    6.1606  -11.9228   26.3051 C   0  0  0  0  0  0  0  0  0  0  0  0
    7.1696  -12.5397   27.2541 C   0  0  0  0  0  0  0  0  0  0  0  0
    8.0448  -13.3744   26.3717 C   0  0  1  0  0  0  0  0  0  0  0  0
    8.5233  -14.6024   27.0826 C   0  0  0  0  0  0  0  0  0  0  0  0
    7.8964  -15.6565   26.9069 O   0  0  0  0  0  0  0  0  0  0  0  0
    9.6286  -14.5914   27.9161 O   0  0  0  0  0  0  0  0  0  0  0  0
  1  2  1  0
  3  2  1  0
  3  4  1  1
  5  6  2  0
  5  3  1  0
  8  7  1  1
  8  9  1  0
  9  5  1  0
 10  8  1  0
 10 12  1  0
 11 10  2  0
 12 16  1  0
 13 12  1  0
 13 14  1  0
 14 15  1  0
 16 15  1  0
 16 17  1  1
 17 19  1  0
 18 17  2  0
M  END
$$$$
