SAP.pdb
     RDKit          3D

 19 19  0  0  1  0  0  0  0  0999 V2000
   10.9791  -13.0634   19.9981 O   0  0  0  0  0  0  0  0  0  0  0  0
   10.1796  -14.1920   19.8816 C   0  0  0  0  0  0  0  0  0  0  0  0
    8.7168  -13.8662   19.8182 C   0  0  2  0  0  0  0  0  0  0  0  0
    8.5077  -12.6558   19.0890 N   0  0  0  0  0  0  0  0  0  0  0  0
    8.1303  -13.7978   21.1979 C   0  0  0  0  0  0  0  0  0  0  0  0
    7.9126  -12.6928   21.7558 O   0  0  0  0  0  0  0  0  0  0  0  0
    6.4993  -16.3509   23.4661 C   0  0  0  0  0  0  0  0  0  0  0  0
    7.1074  -14.9899   23.1708 C   0  0  2  0  0  0  0  0  0  0  0  0
    7.8047  -14.9768   21.9125 N   0  0  0  0  0  0  0  0  0  0  0  0
    7.9128  -14.4830   24.2817 C   0  0  0  0  0  0  0  0  0  0  0  0
    9.1237  -14.7533   24.3641 O   0  0  0  0  0  0  0  0  0  0  0  0
    7.3338  -13.6554   25.3162 N   0  0  0  0  0  0  0  0  0  0  0  0
    6.0144  -13.0709   25.2316 C   0  0  0  0  0  0  0  0  0  0  0  0
    5.9557  -12.0026   26.3012 C   0  0  0  0  0  0  0  0  0  0  0  0
    6.9174  -12.5376   27.3443 C   0  0  0  0  0  0  0  0  0  0  0  0
    7.9469  -13.2810   26.5513 C   0  0  1  0  0  0  0  0  0  0  0  0
    8.4613  -14.4692   27.3034 C   0  0  0  0  0  0  0  0  0  0  0  0
    7.9728  -15.5775   27.0427 O   0  0  0  0  0  0  0  0  0  0  0  0
    9.4514  -14.3641   28.2653 O   0  0  0  0  0  0  0  0  0  0  0  0
  1  2  1  0
  3  2  1  0
  3  4  1  1
  5  6  2  0
  5  3  1  0
  8  7  1  1
  8  9  1  0
  9  5  1  0
 10  8  1  0
 10 12  1  0
 11 10  2  0
 12 16  1  0
 13 12  1  0
 13 14  1  0
 14 15  1  0
 16 15  1  0
 16 17  1  1
 17 19  1  0
 18 17  2  0
M  END
$$$$
