SAP.pdb
     RDKit          3D

 19 19  0  0  1  0  0  0  0  0999 V2000
   11.3883  -18.4198   22.3192 O   0  0  0  0  0  0  0  0  0  0  0  0
   10.1739  -18.2808   21.6615 C   0  0  0  0  0  0  0  0  0  0  0  0
    9.7934  -16.8474   21.4367 C   0  0  2  0  0  0  0  0  0  0  0  0
   10.7429  -16.2086   20.5819 N   0  0  0  0  0  0  0  0  0  0  0  0
    9.6450  -16.1286   22.7457 C   0  0  0  0  0  0  0  0  0  0  0  0
   10.4894  -15.2742   23.1156 O   0  0  0  0  0  0  0  0  0  0  0  0
    6.9076  -15.9034   25.3567 C   0  0  0  0  0  0  0  0  0  0  0  0
    8.3345  -15.7309   24.8633 C   0  0  2  0  0  0  0  0  0  0  0  0
    8.5487  -16.3917   23.6034 N   0  0  0  0  0  0  0  0  0  0  0  0
    9.3254  -16.0886   25.8780 C   0  0  0  0  0  0  0  0  0  0  0  0
    9.9513  -17.1606   25.8051 O   0  0  0  0  0  0  0  0  0  0  0  0
    9.6105  -15.2148   26.9940 N   0  0  0  0  0  0  0  0  0  0  0  0
    8.9851  -13.9255   27.1838 C   0  0  0  0  0  0  0  0  0  0  0  0
    9.8190  -13.1987   28.2158 C   0  0  0  0  0  0  0  0  0  0  0  0
   10.3827  -14.3414   29.0378 C   0  0  0  0  0  0  0  0  0  0  0  0
   10.5313  -15.4635   28.0580 C   0  0  1  0  0  0  0  0  0  0  0  0
   10.2900  -16.7907   28.7079 C   0  0  0  0  0  0  0  0  0  0  0  0
    9.1977  -17.3423   28.5139 O   0  0  0  0  0  0  0  0  0  0  0  0
   11.2387  -17.4073   29.5057 O   0  0  0  0  0  0  0  0  0  0  0  0
  1  2  1  0
  3  2  1  0
  3  4  1  6
  5  6  2  0
  5  3  1  0
  8  7  1  1
  8  9  1  0
  9  5  1  0
 10  8  1  0
 10 12  1  0
 11 10  2  0
 12 16  1  0
 13 12  1  0
 13 14  1  0
 14 15  1  0
 16 15  1  0
 16 17  1  1
 17 19  1  0
 18 17  2  0
M  END
$$$$
