SAP.pdb
     RDKit          3D

 19 19  0  0  1  0  0  0  0  0999 V2000
   10.9483  -15.8646   21.4227 O   0  0  0  0  0  0  0  0  0  0  0  0
   10.1612  -16.9985   21.2770 C   0  0  0  0  0  0  0  0  0  0  0  0
    8.7466  -16.6807   20.8922 C   0  0  2  0  0  0  0  0  0  0  0  0
    8.7169  -15.9490   19.6658 N   0  0  0  0  0  0  0  0  0  0  0  0
    8.0499  -15.9462   22.0001 C   0  0  0  0  0  0  0  0  0  0  0  0
    7.8321  -14.7108   21.9224 O   0  0  0  0  0  0  0  0  0  0  0  0
    6.2510  -16.9627   25.1727 C   0  0  0  0  0  0  0  0  0  0  0  0
    6.9992  -15.9754   24.2925 C   0  0  2  0  0  0  0  0  0  0  0  0
    7.6171  -16.6237   23.1666 N   0  0  0  0  0  0  0  0  0  0  0  0
    7.9240  -15.1354   25.0533 C   0  0  0  0  0  0  0  0  0  0  0  0
    9.1407  -15.3908   25.0785 O   0  0  0  0  0  0  0  0  0  0  0  0
    7.4597  -13.9863   25.7977 N   0  0  0  0  0  0  0  0  0  0  0  0
    6.1214  -13.4500   25.6937 C   0  0  0  0  0  0  0  0  0  0  0  0
    6.1688  -12.0712   26.3145 C   0  0  0  0  0  0  0  0  0  0  0  0
    7.2789  -12.2160   27.3372 C   0  0  0  0  0  0  0  0  0  0  0  0
    8.2186  -13.2076   26.7248 C   0  0  1  0  0  0  0  0  0  0  0  0
    8.8695  -14.0598   27.7700 C   0  0  0  0  0  0  0  0  0  0  0  0
    8.3897  -15.1814   27.9863 O   0  0  0  0  0  0  0  0  0  0  0  0
    9.9742  -13.6351   28.4883 O   0  0  0  0  0  0  0  0  0  0  0  0
  1  2  1  0
  3  2  1  0
  3  4  1  6
  5  6  2  0
  5  3  1  0
  8  7  1  1
  8  9  1  0
  9  5  1  0
 10  8  1  0
 10 12  1  0
 11 10  2  0
 12 16  1  0
 13 12  1  0
 13 14  1  0
 14 15  1  0
 16 15  1  0
 16 17  1  1
 17 19  1  0
 18 17  2  0
M  END
$$$$
