LVR.pdb
     RDKit          3D

 27 26  0  0  1  0  0  0  0  0999 V2000
   27.0531  -15.9840  -16.6099 C   0  0  0  0  0  0  0  0  0  0  0  0
   26.2599  -17.2737  -16.6143 C   0  0  1  0  0  0  0  0  0  0  0  0
   27.1982  -18.4237  -16.2924 C   0  0  0  0  0  0  0  0  0  0  0  0
   25.1802  -17.2703  -15.5581 C   0  0  0  0  0  0  0  0  0  0  0  0
   24.4153  -18.5723  -15.6817 C   0  0  2  0  0  0  0  0  0  0  0  0
   24.3175  -18.8618  -17.0985 N   0  0  0  0  0  0  0  0  0  0  0  0
   23.0538  -18.4732  -15.1324 C   0  0  0  0  0  0  0  0  0  0  0  0
   22.8710  -18.2024  -13.9208 O   0  0  0  0  0  0  0  0  0  0  0  0
   20.3731  -16.1202  -15.5727 C   0  0  0  0  0  0  0  0  0  0  0  0
   19.7400  -17.4552  -15.9074 C   0  0  2  0  0  0  0  0  0  0  0  0
   18.3330  -17.4319  -15.3975 C   0  0  0  0  0  0  0  0  0  0  0  0
   20.5708  -18.5748  -15.3368 C   0  0  2  0  0  0  0  0  0  0  0  0
   21.8771  -18.6701  -15.9067 N   0  0  0  0  0  0  0  0  0  0  0  0
   19.8476  -19.8970  -15.3885 C   0  0  0  0  0  0  0  0  0  0  0  0
   19.6830  -20.4983  -16.4781 O   0  0  0  0  0  0  0  0  0  0  0  0
   19.0683  -24.0550   -9.3623 N   0  0  0  0  0  0  0  0  0  0  0  0
   18.4215  -24.9056  -10.2864 C   0  0  0  0  0  0  0  0  0  0  0  0
   17.3993  -25.6017   -9.9196 N   0  0  0  0  0  0  0  0  0  0  0  0
   18.8480  -25.0412  -11.6399 N   0  0  0  0  0  0  0  0  0  0  0  0
   20.0711  -24.3846  -12.0327 C   0  0  0  0  0  0  0  0  0  0  0  0
   19.8293  -23.6402  -13.3311 C   0  0  0  0  0  0  0  0  0  0  0  0
   18.8168  -22.5737  -13.0875 C   0  0  0  0  0  0  0  0  0  0  0  0
   18.4936  -21.7029  -14.2600 C   0  0  2  0  0  0  0  0  0  0  0  0
   19.3342  -20.4978  -14.2154 N   0  0  0  0  0  0  0  0  0  0  0  0
   17.0652  -21.3534  -14.2508 C   0  0  0  0  0  0  0  0  0  0  0  0
   16.5660  -20.3751  -13.6210 O   0  0  0  0  0  0  0  0  0  0  0  0
   16.1678  -22.1204  -14.9705 O   0  0  0  0  0  0  0  0  0  0  0  0
  2  1  1  1
  2  3  1  0
  4  5  1  0
  4  2  1  0
  5  6  1  6
  7  5  1  0
  7  8  2  0
 10 11  1  1
 10  9  1  0
 10 12  1  0
 12 13  1  6
 13  7  1  0
 14 15  2  0
 14 12  1  0
 16 17  1  0
 17 18  2  0
 19 17  1  0
 19 20  1  0
 21 20  1  0
 21 22  1  0
 23 22  1  1
 23 24  1  0
 23 25  1  0
 24 14  1  0
 25 27  1  0
 26 25  2  0
M  END
$$$$
