LVR.pdb
     RDKit          3D

 27 26  0  0  1  0  0  0  0  0999 V2000
   15.9727  -24.8129   -5.2667 C   0  0  0  0  0  0  0  0  0  0  0  0
   17.1278  -24.9774   -6.2318 C   0  0  1  0  0  0  0  0  0  0  0  0
   16.8732  -26.2029   -7.0918 C   0  0  0  0  0  0  0  0  0  0  0  0
   17.2502  -23.7958   -7.1646 C   0  0  0  0  0  0  0  0  0  0  0  0
   18.3888  -24.0845   -8.1215 C   0  0  2  0  0  0  0  0  0  0  0  0
   19.5804  -24.2413   -7.3115 N   0  0  0  0  0  0  0  0  0  0  0  0
   18.6131  -22.9819   -9.0698 C   0  0  0  0  0  0  0  0  0  0  0  0
   17.6603  -22.5042   -9.7322 O   0  0  0  0  0  0  0  0  0  0  0  0
   20.7883  -19.7931   -8.4319 C   0  0  0  0  0  0  0  0  0  0  0  0
   21.1083  -20.3210   -9.8154 C   0  0  2  0  0  0  0  0  0  0  0  0
   21.2156  -19.1463  -10.7368 C   0  0  0  0  0  0  0  0  0  0  0  0
   20.0667  -21.3249  -10.2354 C   0  0  2  0  0  0  0  0  0  0  0  0
   19.8857  -22.3909   -9.3020 N   0  0  0  0  0  0  0  0  0  0  0  0
   20.3150  -21.8463  -11.6284 C   0  0  0  0  0  0  0  0  0  0  0  0
   21.1416  -22.7688  -11.8324 O   0  0  0  0  0  0  0  0  0  0  0  0
   24.2060  -25.3950  -15.0406 N   0  0  0  0  0  0  0  0  0  0  0  0
   23.3569  -25.7163  -16.1230 C   0  0  0  0  0  0  0  0  0  0  0  0
   23.3282  -26.9191  -16.5883 N   0  0  0  0  0  0  0  0  0  0  0  0
   22.5059  -24.7578  -16.7472 N   0  0  0  0  0  0  0  0  0  0  0  0
   22.3235  -23.4862  -16.0907 C   0  0  0  0  0  0  0  0  0  0  0  0
   21.3569  -23.6675  -14.9370 C   0  0  0  0  0  0  0  0  0  0  0  0
   21.2312  -22.3710  -14.2124 C   0  0  0  0  0  0  0  0  0  0  0  0
   19.8464  -21.8153  -14.1079 C   0  0  2  0  0  0  0  0  0  0  0  0
   19.6268  -21.3138  -12.7436 N   0  0  0  0  0  0  0  0  0  0  0  0
   18.8600  -22.8484  -14.4579 C   0  0  0  0  0  0  0  0  0  0  0  0
   17.9574  -23.2770  -13.6803 O   0  0  0  0  0  0  0  0  0  0  0  0
   18.8824  -23.4178  -15.7176 O   0  0  0  0  0  0  0  0  0  0  0  0
  2  1  1  1
  2  3  1  0
  4  5  1  0
  4  2  1  0
  5  6  1  1
  7  5  1  0
  7  8  2  0
 10 11  1  6
 10  9  1  0
 10 12  1  0
 12 13  1  1
 13  7  1  0
 14 15  2  0
 14 12  1  0
 16 17  1  0
 17 18  2  0
 19 17  1  0
 19 20  1  0
 21 20  1  0
 21 22  1  0
 23 22  1  1
 23 24  1  0
 23 25  1  0
 24 14  1  0
 25 27  1  0
 26 25  2  0
M  END
$$$$
