LVR.pdb
     RDKit          3D

 27 26  0  0  1  0  0  0  0  0999 V2000
   27.9238  -18.5830  -14.8992 C   0  0  0  0  0  0  0  0  0  0  0  0
   27.2184  -19.8333  -14.4179 C   0  0  1  0  0  0  0  0  0  0  0  0
   28.1948  -20.6586  -13.5983 C   0  0  0  0  0  0  0  0  0  0  0  0
   26.0486  -19.5057  -13.5204 C   0  0  0  0  0  0  0  0  0  0  0  0
   25.3522  -20.8082  -13.1828 C   0  0  2  0  0  0  0  0  0  0  0  0
   25.5155  -21.6748  -14.3329 N   0  0  0  0  0  0  0  0  0  0  0  0
   23.9126  -20.6238  -12.9404 C   0  0  0  0  0  0  0  0  0  0  0  0
   23.5101  -19.8821  -12.0115 O   0  0  0  0  0  0  0  0  0  0  0  0
   21.3378  -19.1178  -15.1169 C   0  0  0  0  0  0  0  0  0  0  0  0
   20.7965  -20.4787  -14.7295 C   0  0  2  0  0  0  0  0  0  0  0  0
   19.3165  -20.3451  -14.5497 C   0  0  0  0  0  0  0  0  0  0  0  0
   21.5106  -20.9851  -13.5036 C   0  0  2  0  0  0  0  0  0  0  0  0
   22.8980  -21.2514  -13.7147 N   0  0  0  0  0  0  0  0  0  0  0  0
   20.8076  -22.1699  -12.8903 C   0  0  0  0  0  0  0  0  0  0  0  0
   20.8285  -23.2923  -13.4522 O   0  0  0  0  0  0  0  0  0  0  0  0
   16.4273  -24.8880   -7.1184 N   0  0  0  0  0  0  0  0  0  0  0  0
   17.5069  -25.5806   -6.5264 C   0  0  0  0  0  0  0  0  0  0  0  0
   17.3067  -26.7127   -5.9413 N   0  0  0  0  0  0  0  0  0  0  0  0
   18.8431  -25.0837   -6.5399 N   0  0  0  0  0  0  0  0  0  0  0  0
   19.1082  -23.8762   -7.2835 C   0  0  0  0  0  0  0  0  0  0  0  0
   18.8862  -24.1528   -8.7575 C   0  0  0  0  0  0  0  0  0  0  0  0
   19.5183  -23.0587   -9.5481 C   0  0  0  0  0  0  0  0  0  0  0  0
   19.4449  -23.2039  -11.0350 C   0  0  2  0  0  0  0  0  0  0  0  0
   20.1055  -22.0533  -11.6678 N   0  0  0  0  0  0  0  0  0  0  0  0
   18.0421  -23.3111  -11.4632 C   0  0  0  0  0  0  0  0  0  0  0  0
   17.2710  -22.3266  -11.6608 O   0  0  0  0  0  0  0  0  0  0  0  0
   17.4855  -24.5580  -11.6795 O   0  0  0  0  0  0  0  0  0  0  0  0
  2  1  1  1
  2  3  1  0
  4  5  1  0
  4  2  1  0
  5  6  1  6
  7  5  1  0
  7  8  2  0
 10 11  1  1
 10  9  1  0
 10 12  1  0
 12 13  1  6
 13  7  1  0
 14 15  2  0
 14 12  1  0
 16 17  1  0
 17 18  2  0
 19 17  1  0
 19 20  1  0
 21 20  1  0
 21 22  1  0
 23 22  1  1
 23 24  1  0
 23 25  1  0
 24 14  1  0
 25 27  1  0
 26 25  2  0
M  END
$$$$
