LVR.pdb
     RDKit          3D

 27 26  0  0  1  0  0  0  0  0999 V2000
   27.6635  -21.9099  -17.3490 C   0  0  0  0  0  0  0  0  0  0  0  0
   27.5935  -22.1283  -15.8524 C   0  0  1  0  0  0  0  0  0  0  0  0
   28.5759  -21.1879  -15.1764 C   0  0  0  0  0  0  0  0  0  0  0  0
   26.2226  -21.8103  -15.3039 C   0  0  0  0  0  0  0  0  0  0  0  0
   26.2156  -22.1952  -13.8385 C   0  0  2  0  0  0  0  0  0  0  0  0
   26.5018  -23.6149  -13.7823 N   0  0  0  0  0  0  0  0  0  0  0  0
   24.9079  -21.9593  -13.2066 C   0  0  0  0  0  0  0  0  0  0  0  0
   24.0050  -22.8292  -13.2606 O   0  0  0  0  0  0  0  0  0  0  0  0
   24.2163  -20.6304   -9.6580 C   0  0  0  0  0  0  0  0  0  0  0  0
   23.3054  -19.8728  -10.6022 C   0  0  2  0  0  0  0  0  0  0  0  0
   21.9597  -19.7737   -9.9543 C   0  0  0  0  0  0  0  0  0  0  0  0
   23.2800  -20.5524  -11.9464 C   0  0  2  0  0  0  0  0  0  0  0  0
   24.5760  -20.7658  -12.5078 N   0  0  0  0  0  0  0  0  0  0  0  0
   22.3663  -19.8480  -12.9175 C   0  0  0  0  0  0  0  0  0  0  0  0
   22.8337  -19.1715  -13.8660 O   0  0  0  0  0  0  0  0  0  0  0  0
   20.8650  -24.5201  -18.6458 N   0  0  0  0  0  0  0  0  0  0  0  0
   20.5408  -23.2268  -19.1129 C   0  0  0  0  0  0  0  0  0  0  0  0
   20.5828  -22.9653  -20.3754 N   0  0  0  0  0  0  0  0  0  0  0  0
   20.1589  -22.1648  -18.2419 N   0  0  0  0  0  0  0  0  0  0  0  0
   20.0495  -22.4522  -16.8324 C   0  0  0  0  0  0  0  0  0  0  0  0
   19.6326  -21.1873  -16.1080 C   0  0  0  0  0  0  0  0  0  0  0  0
   20.4040  -21.0902  -14.8363 C   0  0  0  0  0  0  0  0  0  0  0  0
   20.0690  -19.9259  -13.9591 C   0  0  2  0  0  0  0  0  0  0  0  0
   20.9598  -19.9277  -12.7897 N   0  0  0  0  0  0  0  0  0  0  0  0
   18.6579  -19.9910  -13.5505 C   0  0  0  0  0  0  0  0  0  0  0  0
   18.2445  -20.4850  -12.4605 O   0  0  0  0  0  0  0  0  0  0  0  0
   17.6789  -19.4856  -14.3859 O   0  0  0  0  0  0  0  0  0  0  0  0
  2  1  1  6
  2  3  1  0
  4  5  1  0
  4  2  1  0
  5  6  1  6
  7  5  1  0
  7  8  2  0
 10 11  1  1
 10  9  1  0
 10 12  1  0
 12 13  1  6
 13  7  1  0
 14 15  2  0
 14 12  1  0
 16 17  1  0
 17 18  2  0
 19 17  1  0
 19 20  1  0
 21 20  1  0
 21 22  1  0
 23 22  1  6
 23 24  1  0
 23 25  1  0
 24 14  1  0
 25 27  1  0
 26 25  2  0
M  END
$$$$
