LVR.pdb
     RDKit          3D

 27 26  0  0  1  0  0  0  0  0999 V2000
   15.3458  -11.3771  -17.4227 C   0  0  0  0  0  0  0  0  0  0  0  0
   16.7962  -10.9943  -17.2170 C   0  0  1  0  0  0  0  0  0  0  0  0
   17.0956   -9.7568  -18.0448 C   0  0  0  0  0  0  0  0  0  0  0  0
   17.0844  -10.6469  -15.7756 C   0  0  0  0  0  0  0  0  0  0  0  0
   18.5566  -10.3040  -15.6732 C   0  0  2  0  0  0  0  0  0  0  0  0
   19.2807  -11.5557  -15.7708 N   0  0  0  0  0  0  0  0  0  0  0  0
   18.8934   -9.6711  -14.3883 C   0  0  0  0  0  0  0  0  0  0  0  0
   18.9686  -10.3549  -13.3386 O   0  0  0  0  0  0  0  0  0  0  0  0
   21.9644   -7.7009  -13.4686 C   0  0  0  0  0  0  0  0  0  0  0  0
   20.7742   -6.8538  -13.0676 C   0  0  2  0  0  0  0  0  0  0  0  0
   21.1148   -6.1716  -11.7796 C   0  0  0  0  0  0  0  0  0  0  0  0
   19.5376   -7.7106  -12.9887 C   0  0  2  0  0  0  0  0  0  0  0  0
   19.1516   -8.2803  -14.2404 N   0  0  0  0  0  0  0  0  0  0  0  0
   18.3892   -6.9849  -12.3342 C   0  0  0  0  0  0  0  0  0  0  0  0
   17.8092   -6.0378  -12.9194 O   0  0  0  0  0  0  0  0  0  0  0  0
   11.4774   -9.8837   -8.1327 N   0  0  0  0  0  0  0  0  0  0  0  0
   11.5369   -8.5365   -7.7118 C   0  0  0  0  0  0  0  0  0  0  0  0
   10.6512   -8.0735   -6.8962 N   0  0  0  0  0  0  0  0  0  0  0  0
   12.5502   -7.6348   -8.1508 N   0  0  0  0  0  0  0  0  0  0  0  0
   13.6943   -8.1847   -8.8361 C   0  0  0  0  0  0  0  0  0  0  0  0
   14.6253   -7.0507   -9.2179 C   0  0  0  0  0  0  0  0  0  0  0  0
   15.8006   -7.6203   -9.9362 C   0  0  0  0  0  0  0  0  0  0  0  0
   16.8344   -6.6336  -10.3778 C   0  0  2  0  0  0  0  0  0  0  0  0
   17.9322   -7.3476  -11.0456 N   0  0  0  0  0  0  0  0  0  0  0  0
   17.3259   -5.8664   -9.2235 C   0  0  0  0  0  0  0  0  0  0  0  0
   18.3446   -6.1706   -8.5360 O   0  0  0  0  0  0  0  0  0  0  0  0
   16.6586   -4.7221   -8.8275 O   0  0  0  0  0  0  0  0  0  0  0  0
  2  1  1  1
  2  3  1  0
  4  5  1  0
  4  2  1  0
  5  6  1  1
  7  5  1  0
  7  8  2  0
 10 11  1  1
 10  9  1  0
 10 12  1  0
 12 13  1  6
 13  7  1  0
 14 15  2  0
 14 12  1  0
 16 17  1  0
 17 18  2  0
 19 17  1  0
 19 20  1  0
 21 20  1  0
 21 22  1  0
 23 22  1  1
 23 24  1  0
 23 25  1  0
 24 14  1  0
 25 27  1  0
 26 25  2  0
M  END
$$$$
