LVR.pdb
     RDKit          3D

 27 26  0  0  1  0  0  0  0  0999 V2000
   30.6189  -19.9596  -11.6558 C   0  0  0  0  0  0  0  0  0  0  0  0
   29.4692  -20.9204  -11.8739 C   0  0  1  0  0  0  0  0  0  0  0  0
   29.3488  -21.8204  -10.6565 C   0  0  0  0  0  0  0  0  0  0  0  0
   28.1534  -20.1939  -12.0230 C   0  0  0  0  0  0  0  0  0  0  0  0
   27.0899  -21.2306  -12.3229 C   0  0  2  0  0  0  0  0  0  0  0  0
   27.5586  -21.9845  -13.4685 N   0  0  0  0  0  0  0  0  0  0  0  0
   25.7965  -20.6189  -12.6666 C   0  0  0  0  0  0  0  0  0  0  0  0
   25.1714  -19.9292  -11.8249 O   0  0  0  0  0  0  0  0  0  0  0  0
   25.0948  -18.3757  -15.6705 C   0  0  0  0  0  0  0  0  0  0  0  0
   23.9914  -19.4127  -15.6223 C   0  0  2  0  0  0  0  0  0  0  0  0
   22.7091  -18.7296  -15.9822 C   0  0  0  0  0  0  0  0  0  0  0  0
   23.9652  -20.0717  -14.2679 C   0  0  2  0  0  0  0  0  0  0  0  0
   25.1743  -20.7570  -13.9380 N   0  0  0  0  0  0  0  0  0  0  0  0
   22.7608  -20.9628  -14.0973 C   0  0  0  0  0  0  0  0  0  0  0  0
   22.7249  -22.1035  -14.6202 O   0  0  0  0  0  0  0  0  0  0  0  0
   17.5906  -24.6276  -10.1374 N   0  0  0  0  0  0  0  0  0  0  0  0
   18.3649  -24.1636   -9.0507 C   0  0  0  0  0  0  0  0  0  0  0  0
   18.6915  -24.9696   -8.0979 N   0  0  0  0  0  0  0  0  0  0  0  0
   18.8182  -22.8161   -8.9456 N   0  0  0  0  0  0  0  0  0  0  0  0
   18.4411  -21.8924   -9.9876 C   0  0  0  0  0  0  0  0  0  0  0  0
   19.0265  -22.3736  -11.3007 C   0  0  0  0  0  0  0  0  0  0  0  0
   20.1493  -21.4702  -11.6814 C   0  0  0  0  0  0  0  0  0  0  0  0
   20.4679  -21.4075  -13.1415 C   0  0  2  0  0  0  0  0  0  0  0  0
   21.6386  -20.5423  -13.3457 N   0  0  0  0  0  0  0  0  0  0  0  0
   19.3045  -20.9106  -13.8914 C   0  0  0  0  0  0  0  0  0  0  0  0
   19.0916  -19.6940  -14.1697 O   0  0  0  0  0  0  0  0  0  0  0  0
   18.3510  -21.8026  -14.3462 O   0  0  0  0  0  0  0  0  0  0  0  0
  2  1  1  1
  2  3  1  0
  4  5  1  0
  4  2  1  0
  5  6  1  6
  7  5  1  0
  7  8  2  0
 10 11  1  1
 10  9  1  0
 10 12  1  0
 12 13  1  6
 13  7  1  0
 14 15  2  0
 14 12  1  0
 16 17  1  0
 17 18  2  0
 19 17  1  0
 19 20  1  0
 21 20  1  0
 21 22  1  0
 23 22  1  1
 23 24  1  0
 23 25  1  0
 24 14  1  0
 25 27  1  0
 26 25  2  0
M  END
$$$$
