LVR.pdb
     RDKit          3D

 27 26  0  0  1  0  0  0  0  0999 V2000
   21.2409  -19.0192  -17.5624 C   0  0  0  0  0  0  0  0  0  0  0  0
   22.4572  -19.1394  -16.6687 C   0  0  1  0  0  0  0  0  0  0  0  0
   22.8867  -17.7471  -16.2407 C   0  0  0  0  0  0  0  0  0  0  0  0
   22.1528  -19.9185  -15.4110 C   0  0  0  0  0  0  0  0  0  0  0  0
   23.4548  -20.0965  -14.6569 C   0  0  2  0  0  0  0  0  0  0  0  0
   24.3110  -20.9108  -15.4962 N   0  0  0  0  0  0  0  0  0  0  0  0
   23.2651  -20.7912  -13.3737 C   0  0  0  0  0  0  0  0  0  0  0  0
   22.9938  -22.0161  -13.3435 O   0  0  0  0  0  0  0  0  0  0  0  0
   25.2777  -20.2532   -9.9034 C   0  0  0  0  0  0  0  0  0  0  0  0
   23.7783  -20.2453   -9.6865 C   0  0  2  0  0  0  0  0  0  0  0  0
   23.4992  -20.9805   -8.4129 C   0  0  0  0  0  0  0  0  0  0  0  0
   23.0828  -20.8315  -10.8873 C   0  0  2  0  0  0  0  0  0  0  0  0
   23.3710  -20.1495  -12.1089 N   0  0  0  0  0  0  0  0  0  0  0  0
   21.5972  -20.9681  -10.6679 C   0  0  0  0  0  0  0  0  0  0  0  0
   20.7852  -20.2406  -11.2902 O   0  0  0  0  0  0  0  0  0  0  0  0
   20.6801  -22.4418  -15.2629 N   0  0  0  0  0  0  0  0  0  0  0  0
   19.3959  -21.8734  -15.4170 C   0  0  0  0  0  0  0  0  0  0  0  0
   19.1392  -21.1200  -16.4321 N   0  0  0  0  0  0  0  0  0  0  0  0
   18.3382  -22.0926  -14.4866 N   0  0  0  0  0  0  0  0  0  0  0  0
   18.5992  -22.9489  -13.3552 C   0  0  0  0  0  0  0  0  0  0  0  0
   18.9287  -22.0835  -12.1548 C   0  0  0  0  0  0  0  0  0  0  0  0
   19.2986  -22.9704  -11.0153 C   0  0  0  0  0  0  0  0  0  0  0  0
   19.6500  -22.2763   -9.7377 C   0  0  2  0  0  0  0  0  0  0  0  0
   21.0751  -21.9164   -9.7574 N   0  0  0  0  0  0  0  0  0  0  0  0
   19.3377  -23.1417   -8.5905 C   0  0  0  0  0  0  0  0  0  0  0  0
   20.1799  -23.8657   -7.9827 O   0  0  0  0  0  0  0  0  0  0  0  0
   18.0437  -23.1970   -8.1065 O   0  0  0  0  0  0  0  0  0  0  0  0
  2  1  1  6
  2  3  1  0
  4  5  1  0
  4  2  1  0
  5  6  1  6
  7  5  1  0
  7  8  2  0
 10 11  1  1
 10  9  1  0
 10 12  1  0
 12 13  1  6
 13  7  1  0
 14 15  2  0
 14 12  1  0
 16 17  1  0
 17 18  2  0
 19 17  1  0
 19 20  1  0
 21 20  1  0
 21 22  1  0
 23 22  1  6
 23 24  1  0
 23 25  1  0
 24 14  1  0
 25 27  1  0
 26 25  2  0
M  END
$$$$
