LVR.pdb
     RDKit          3D

 27 26  0  0  1  0  0  0  0  0999 V2000
   27.4405  -17.9736  -17.2394 C   0  0  0  0  0  0  0  0  0  0  0  0
   28.1125  -18.7583  -16.1324 C   0  0  1  0  0  0  0  0  0  0  0  0
   28.8953  -17.7944  -15.2580 C   0  0  0  0  0  0  0  0  0  0  0  0
   27.1044  -19.4480  -15.2440 C   0  0  0  0  0  0  0  0  0  0  0  0
   27.8747  -20.2331  -14.2019 C   0  0  2  0  0  0  0  0  0  0  0  0
   28.5958  -21.2692  -14.9140 N   0  0  0  0  0  0  0  0  0  0  0  0
   26.9873  -20.8756  -13.2197 C   0  0  0  0  0  0  0  0  0  0  0  0
   26.4486  -21.9809  -13.4710 O   0  0  0  0  0  0  0  0  0  0  0  0
   26.9130  -20.8351   -9.1058 C   0  0  0  0  0  0  0  0  0  0  0  0
   25.6256  -20.3370   -9.7300 C   0  0  2  0  0  0  0  0  0  0  0  0
   24.4895  -20.8584   -8.9066 C   0  0  0  0  0  0  0  0  0  0  0  0
   25.5628  -20.7513  -11.1769 C   0  0  2  0  0  0  0  0  0  0  0  0
   26.6807  -20.3124  -11.9501 N   0  0  0  0  0  0  0  0  0  0  0  0
   24.2571  -20.3575  -11.8204 C   0  0  0  0  0  0  0  0  0  0  0  0
   24.2199  -19.4766  -12.7139 O   0  0  0  0  0  0  0  0  0  0  0  0
   19.8903  -25.2409  -16.7128 N   0  0  0  0  0  0  0  0  0  0  0  0
   19.6468  -23.9030  -17.0955 C   0  0  0  0  0  0  0  0  0  0  0  0
   18.7148  -23.6323  -17.9453 N   0  0  0  0  0  0  0  0  0  0  0  0
   20.3951  -22.8045  -16.5802 N   0  0  0  0  0  0  0  0  0  0  0  0
   21.2478  -23.0420  -15.4410 C   0  0  0  0  0  0  0  0  0  0  0  0
   20.8632  -22.0788  -14.3351 C   0  0  0  0  0  0  0  0  0  0  0  0
   22.0107  -21.9532  -13.3922 C   0  0  0  0  0  0  0  0  0  0  0  0
   21.8498  -20.9416  -12.3021 C   0  0  2  0  0  0  0  0  0  0  0  0
   23.0388  -20.9663  -11.4381 N   0  0  0  0  0  0  0  0  0  0  0  0
   20.6287  -21.2198  -11.5313 C   0  0  0  0  0  0  0  0  0  0  0  0
   20.5896  -21.8937  -10.4602 O   0  0  0  0  0  0  0  0  0  0  0  0
   19.4141  -20.7269  -11.9710 O   0  0  0  0  0  0  0  0  0  0  0  0
  2  1  1  6
  2  3  1  0
  4  5  1  0
  4  2  1  0
  5  6  1  6
  7  5  1  0
  7  8  2  0
 10 11  1  1
 10  9  1  0
 10 12  1  0
 12 13  1  6
 13  7  1  0
 14 15  2  0
 14 12  1  0
 16 17  1  0
 17 18  2  0
 19 17  1  0
 19 20  1  0
 21 20  1  0
 21 22  1  0
 23 22  1  6
 23 24  1  0
 23 25  1  0
 24 14  1  0
 25 27  1  0
 26 25  2  0
M  END
$$$$
