LVR.pdb
     RDKit          3D

 27 26  0  0  1  0  0  0  0  0999 V2000
   23.4352  -10.9415  -13.2069 C   0  0  0  0  0  0  0  0  0  0  0  0
   22.9979  -10.2481  -14.4799 C   0  0  1  0  0  0  0  0  0  0  0  0
   22.5684  -11.3019  -15.4857 C   0  0  0  0  0  0  0  0  0  0  0  0
   21.8100   -9.3451  -14.2456 C   0  0  0  0  0  0  0  0  0  0  0  0
   21.4865   -8.6646  -15.5600 C   0  0  2  0  0  0  0  0  0  0  0  0
   22.5626   -7.7286  -15.8172 N   0  0  0  0  0  0  0  0  0  0  0  0
   20.2217   -7.9147  -15.5028 C   0  0  0  0  0  0  0  0  0  0  0  0
   20.2143   -6.6946  -15.2092 O   0  0  0  0  0  0  0  0  0  0  0  0
   15.6927   -6.9844  -16.8978 C   0  0  0  0  0  0  0  0  0  0  0  0
   17.0483   -7.6393  -17.0679 C   0  0  2  0  0  0  0  0  0  0  0  0
   16.8325   -8.9683  -17.7218 C   0  0  0  0  0  0  0  0  0  0  0  0
   17.7463   -7.7277  -15.7358 C   0  0  2  0  0  0  0  0  0  0  0  0
   18.9505   -8.4952  -15.7672 N   0  0  0  0  0  0  0  0  0  0  0  0
   16.8194   -8.1983  -14.6434 C   0  0  0  0  0  0  0  0  0  0  0  0
   16.6146   -9.4225  -14.4561 O   0  0  0  0  0  0  0  0  0  0  0  0
   14.1601   -3.8371   -7.4261 N   0  0  0  0  0  0  0  0  0  0  0  0
   13.3247   -4.9756   -7.4670 C   0  0  0  0  0  0  0  0  0  0  0  0
   12.4227   -5.1494   -6.5613 N   0  0  0  0  0  0  0  0  0  0  0  0
   13.4262   -5.9713   -8.4822 N   0  0  0  0  0  0  0  0  0  0  0  0
   14.2485   -5.6834   -9.6321 C   0  0  0  0  0  0  0  0  0  0  0  0
   14.2478   -6.8925  -10.5468 C   0  0  0  0  0  0  0  0  0  0  0  0
   15.1276   -6.6064  -11.7155 C   0  0  0  0  0  0  0  0  0  0  0  0
   15.2746   -7.7168  -12.7068 C   0  0  2  0  0  0  0  0  0  0  0  0
   16.1546   -7.2780  -13.7995 N   0  0  0  0  0  0  0  0  0  0  0  0
   13.9546   -8.1161  -13.2173 C   0  0  0  0  0  0  0  0  0  0  0  0
   13.3398   -7.5356  -14.1596 O   0  0  0  0  0  0  0  0  0  0  0  0
   13.3031   -9.1998  -12.6580 O   0  0  0  0  0  0  0  0  0  0  0  0
  2  1  1  1
  2  3  1  0
  4  5  1  0
  4  2  1  0
  5  6  1  1
  7  5  1  0
  7  8  2  0
 10 11  1  1
 10  9  1  0
 10 12  1  0
 12 13  1  6
 13  7  1  0
 14 15  2  0
 14 12  1  0
 16 17  1  0
 17 18  2  0
 19 17  1  0
 19 20  1  0
 21 20  1  0
 21 22  1  0
 23 22  1  1
 23 24  1  0
 23 25  1  0
 24 14  1  0
 25 27  1  0
 26 25  2  0
M  END
$$$$
