LVR.pdb
     RDKit          3D

 27 26  0  0  1  0  0  0  0  0999 V2000
   27.4254  -17.1058  -17.2852 C   0  0  0  0  0  0  0  0  0  0  0  0
   27.9559  -18.1143  -16.2881 C   0  0  1  0  0  0  0  0  0  0  0  0
   28.4947  -17.3680  -15.0802 C   0  0  0  0  0  0  0  0  0  0  0  0
   26.8679  -19.0375  -15.7930 C   0  0  0  0  0  0  0  0  0  0  0  0
   27.4835  -19.9558  -14.7570 C   0  0  2  0  0  0  0  0  0  0  0  0
   28.3388  -20.8777  -15.4775 N   0  0  0  0  0  0  0  0  0  0  0  0
   26.4690  -20.7348  -14.0296 C   0  0  0  0  0  0  0  0  0  0  0  0
   25.9401  -21.7445  -14.5545 O   0  0  0  0  0  0  0  0  0  0  0  0
   25.0081  -20.0025   -9.8786 C   0  0  0  0  0  0  0  0  0  0  0  0
   25.1978  -21.3269  -10.5893 C   0  0  2  0  0  0  0  0  0  0  0  0
   26.5583  -21.8416  -10.2365 C   0  0  0  0  0  0  0  0  0  0  0  0
   24.9841  -21.1501  -12.0700 C   0  0  2  0  0  0  0  0  0  0  0  0
   26.0233  -20.4144  -12.7175 N   0  0  0  0  0  0  0  0  0  0  0  0
   23.6249  -20.5751  -12.3792 C   0  0  0  0  0  0  0  0  0  0  0  0
   23.3888  -19.3540  -12.2090 O   0  0  0  0  0  0  0  0  0  0  0  0
   17.4467  -17.5568  -16.3677 N   0  0  0  0  0  0  0  0  0  0  0  0
   17.8721  -18.7084  -17.0667 C   0  0  0  0  0  0  0  0  0  0  0  0
   17.0549  -19.3304  -17.8473 N   0  0  0  0  0  0  0  0  0  0  0  0
   19.1917  -19.2362  -16.9540 N   0  0  0  0  0  0  0  0  0  0  0  0
   19.3468  -20.5549  -16.3900 C   0  0  0  0  0  0  0  0  0  0  0  0
   19.5204  -20.4259  -14.8894 C   0  0  0  0  0  0  0  0  0  0  0  0
   20.8844  -20.9037  -14.5247 C   0  0  0  0  0  0  0  0  0  0  0  0
   21.2154  -20.8763  -13.0663 C   0  0  2  0  0  0  0  0  0  0  0  0
   22.5780  -21.3910  -12.8684 N   0  0  0  0  0  0  0  0  0  0  0  0
   20.2343  -21.6698  -12.3109 C   0  0  0  0  0  0  0  0  0  0  0  0
   20.3953  -22.8772  -11.9657 O   0  0  0  0  0  0  0  0  0  0  0  0
   19.0372  -21.0939  -11.9275 O   0  0  0  0  0  0  0  0  0  0  0  0
  2  1  1  6
  2  3  1  0
  4  5  1  0
  4  2  1  0
  5  6  1  6
  7  5  1  0
  7  8  2  0
 10 11  1  6
 10  9  1  0
 10 12  1  0
 12 13  1  1
 13  7  1  0
 14 15  2  0
 14 12  1  0
 16 17  1  0
 17 18  2  0
 19 17  1  0
 19 20  1  0
 21 20  1  0
 21 22  1  0
 23 22  1  6
 23 24  1  0
 23 25  1  0
 24 14  1  0
 25 27  1  0
 26 25  2  0
M  END
$$$$
