YCF.pdb
     RDKit          3D

 30 31  0  0  1  0  0  0  0  0999 V2000
   29.5651  -14.0443  -16.8058 O   0  0  0  0  0  0  0  0  0  0  0  0
   28.4247  -13.2345  -16.9347 C   0  0  0  0  0  0  0  0  0  0  0  0
   28.0128  -12.4242  -15.8967 C   0  0  0  0  0  0  0  0  0  0  0  0
   26.8709  -11.6250  -16.0501 C   0  0  0  0  0  0  0  0  0  0  0  0
   26.1559  -11.6399  -17.2255 C   0  0  0  0  0  0  0  0  0  0  0  0
   24.9609  -10.7780  -17.3328 C   0  0  0  0  0  0  0  0  0  0  0  0
   23.8045  -11.5376  -16.7416 C   0  0  2  0  0  0  0  0  0  0  0  0
   23.7489  -12.8269  -17.3666 N   0  0  0  0  0  0  0  0  0  0  0  0
   22.5283  -10.7978  -16.8078 C   0  0  0  0  0  0  0  0  0  0  0  0
   21.5575  -11.3078  -17.4136 O   0  0  0  0  0  0  0  0  0  0  0  0
   26.5802  -12.4521  -18.2477 C   0  0  0  0  0  0  0  0  0  0  0  0
   27.7166  -13.2568  -18.1146 C   0  0  0  0  0  0  0  0  0  0  0  0
   22.3309   -9.5105  -16.2109 N   0  0  0  0  0  0  0  0  0  0  0  0
   21.0859   -8.8616  -16.0053 C   0  0  1  0  0  0  0  0  0  0  0  0
   19.9957   -9.6766  -15.3909 C   0  0  0  0  0  0  0  0  0  0  0  0
   18.4380   -8.8394  -15.1607 S   0  0  0  0  0  0  0  0  0  0  0  0
   21.1734   -7.4951  -15.4086 C   0  0  0  0  0  0  0  0  0  0  0  0
   20.0621   -6.8848  -15.3820 O   0  0  0  0  0  0  0  0  0  0  0  0
   22.3172   -6.8851  -14.9138 N   0  0  0  0  0  0  0  0  0  0  0  0
   22.4816   -5.4615  -14.6650 C   0  0  1  0  0  0  0  0  0  0  0  0
   23.8763   -5.0076  -14.8471 C   0  0  0  0  0  0  0  0  0  0  0  0
   24.2741   -4.9839  -16.2594 C   0  0  0  0  0  0  0  0  0  0  0  0
   24.0840   -3.8369  -17.0193 C   0  0  0  0  0  0  0  0  0  0  0  0
   24.4900   -3.8268  -18.3302 C   0  0  0  0  0  0  0  0  0  0  0  0
   25.0875   -4.9065  -18.9540 C   0  0  0  0  0  0  0  0  0  0  0  0
   25.2637   -6.0336  -18.1734 C   0  0  0  0  0  0  0  0  0  0  0  0
   24.8706   -6.0836  -16.8561 C   0  0  0  0  0  0  0  0  0  0  0  0
   21.4218   -4.6255  -15.2680 C   0  0  0  0  0  0  0  0  0  0  0  0
   20.7167   -5.0724  -16.4039 O   0  0  0  0  0  0  0  0  0  0  0  0
   21.0543   -3.4947  -14.8656 O   0  0  0  0  0  0  0  0  0  0  0  0
  1  2  1  0
  2 12  2  0
  3  4  2  0
  3  2  1  0
  4  5  1  0
  5  6  1  0
  5 11  2  0
  6  7  1  0
  7  9  1  0
  7  8  1  6
  9 13  1  0
 10  9  2  0
 12 11  1  0
 13 14  1  0
 14 17  1  0
 14 15  1  1
 15 16  1  0
 17 19  1  0
 18 17  2  0
 19 20  1  0
 20 28  1  0
 20 21  1  6
 22 21  1  0
 23 22  2  0
 24 23  1  0
 25 26  1  0
 25 24  2  0
 26 27  2  0
 27 22  1  0
 28 30  2  0
 28 29  1  0
M  END
$$$$
