YCF.pdb
     RDKit          3D

 30 31  0  0  1  0  0  0  0  0999 V2000
   30.4554  -13.7255  -17.0409 O   0  0  0  0  0  0  0  0  0  0  0  0
   29.4322  -12.7828  -16.8480 C   0  0  0  0  0  0  0  0  0  0  0  0
   29.3202  -11.6830  -17.6736 C   0  0  0  0  0  0  0  0  0  0  0  0
   28.2899  -10.7560  -17.4604 C   0  0  0  0  0  0  0  0  0  0  0  0
   27.3885  -10.9312  -16.4358 C   0  0  0  0  0  0  0  0  0  0  0  0
   26.3229   -9.9238  -16.2566 C   0  0  0  0  0  0  0  0  0  0  0  0
   25.0053  -10.6242  -16.4495 C   0  0  2  0  0  0  0  0  0  0  0  0
   25.0918  -11.4223  -17.6376 N   0  0  0  0  0  0  0  0  0  0  0  0
   23.8511   -9.7033  -16.4439 C   0  0  0  0  0  0  0  0  0  0  0  0
   23.5160   -9.1378  -17.5104 O   0  0  0  0  0  0  0  0  0  0  0  0
   27.5150  -12.0311  -15.6242 C   0  0  0  0  0  0  0  0  0  0  0  0
   28.5357  -12.9673  -15.8202 C   0  0  0  0  0  0  0  0  0  0  0  0
   23.0791   -9.4132  -15.2725 N   0  0  0  0  0  0  0  0  0  0  0  0
   21.9412   -8.5683  -15.2041 C   0  0  1  0  0  0  0  0  0  0  0  0
   20.8789   -8.9480  -14.2254 C   0  0  0  0  0  0  0  0  0  0  0  0
   20.3699  -10.6567  -14.2583 S   0  0  0  0  0  0  0  0  0  0  0  0
   22.2384   -7.1048  -15.1745 C   0  0  0  0  0  0  0  0  0  0  0  0
   23.4476   -6.8418  -14.8971 O   0  0  0  0  0  0  0  0  0  0  0  0
   21.3372   -6.0772  -15.4132 N   0  0  0  0  0  0  0  0  0  0  0  0
   21.6765   -4.6753  -15.6008 C   0  0  1  0  0  0  0  0  0  0  0  0
   22.9061   -4.4877  -16.3992 C   0  0  0  0  0  0  0  0  0  0  0  0
   23.2138   -3.0705  -16.6227 C   0  0  0  0  0  0  0  0  0  0  0  0
   22.9854   -2.4938  -17.8655 C   0  0  0  0  0  0  0  0  0  0  0  0
   23.2528   -1.1597  -18.0443 C   0  0  0  0  0  0  0  0  0  0  0  0
   23.7444   -0.3379  -17.0469 C   0  0  0  0  0  0  0  0  0  0  0  0
   23.9619   -0.9390  -15.8214 C   0  0  0  0  0  0  0  0  0  0  0  0
   23.7066   -2.2728  -15.6019 C   0  0  0  0  0  0  0  0  0  0  0  0
   20.5185   -3.8235  -15.9457 C   0  0  0  0  0  0  0  0  0  0  0  0
   20.3088   -2.5973  -15.2826 O   0  0  0  0  0  0  0  0  0  0  0  0
   19.6448   -4.0790  -16.8100 O   0  0  0  0  0  0  0  0  0  0  0  0
  1  2  1  0
  2 12  2  0
  3  4  2  0
  3  2  1  0
  4  5  1  0
  5  6  1  0
  5 11  2  0
  6  7  1  0
  7  9  1  0
  7  8  1  6
  9 13  1  0
 10  9  2  0
 12 11  1  0
 13 14  1  0
 14 17  1  0
 14 15  1  1
 15 16  1  0
 17 19  1  0
 18 17  2  0
 19 20  1  0
 20 28  1  0
 20 21  1  6
 22 21  1  0
 23 22  2  0
 24 23  1  0
 25 26  1  0
 25 24  2  0
 26 27  2  0
 27 22  1  0
 28 30  2  0
 28 29  1  0
M  END
$$$$
