YCF.pdb
     RDKit          3D

 30 31  0  0  1  0  0  0  0  0999 V2000
   20.0417  -18.4730  -17.9603 O   0  0  0  0  0  0  0  0  0  0  0  0
   20.3539  -17.1161  -18.1461 C   0  0  0  0  0  0  0  0  0  0  0  0
   20.9134  -16.6755  -19.3279 C   0  0  0  0  0  0  0  0  0  0  0  0
   21.2160  -15.3158  -19.4890 C   0  0  0  0  0  0  0  0  0  0  0  0
   20.9608  -14.4153  -18.4806 C   0  0  0  0  0  0  0  0  0  0  0  0
   21.2994  -12.9947  -18.7040 C   0  0  0  0  0  0  0  0  0  0  0  0
   20.0277  -12.2832  -19.0786 C   0  0  2  0  0  0  0  0  0  0  0  0
   19.5602  -12.8252  -20.3210 N   0  0  0  0  0  0  0  0  0  0  0  0
   20.1672  -10.8133  -19.0950 C   0  0  0  0  0  0  0  0  0  0  0  0
   20.2018  -10.2155  -20.1954 O   0  0  0  0  0  0  0  0  0  0  0  0
   20.4039  -14.8713  -17.3117 C   0  0  0  0  0  0  0  0  0  0  0  0
   20.0948  -16.2235  -17.1312 C   0  0  0  0  0  0  0  0  0  0  0  0
   20.2669  -10.0170  -17.9082 N   0  0  0  0  0  0  0  0  0  0  0  0
   20.2910   -8.5996  -17.8470 C   0  0  1  0  0  0  0  0  0  0  0  0
   19.1871   -7.8769  -18.5465 C   0  0  0  0  0  0  0  0  0  0  0  0
   17.5330   -8.3843  -18.1147 S   0  0  0  0  0  0  0  0  0  0  0  0
   20.5727   -8.0276  -16.4962 C   0  0  0  0  0  0  0  0  0  0  0  0
   19.9076   -8.5780  -15.5673 O   0  0  0  0  0  0  0  0  0  0  0  0
   21.4563   -6.9977  -16.2068 N   0  0  0  0  0  0  0  0  0  0  0  0
   21.8559   -6.5694  -14.8754 C   0  0  1  0  0  0  0  0  0  0  0  0
   22.2337   -7.6999  -14.0016 C   0  0  0  0  0  0  0  0  0  0  0  0
   23.3679   -8.4621  -14.5364 C   0  0  0  0  0  0  0  0  0  0  0  0
   24.2382   -7.8739  -15.4453 C   0  0  0  0  0  0  0  0  0  0  0  0
   25.3091   -8.5951  -15.9104 C   0  0  0  0  0  0  0  0  0  0  0  0
   25.5816   -9.8945  -15.5244 C   0  0  0  0  0  0  0  0  0  0  0  0
   24.6989  -10.4536  -14.6194 C   0  0  0  0  0  0  0  0  0  0  0  0
   23.6140   -9.7641  -14.1297 C   0  0  0  0  0  0  0  0  0  0  0  0
   22.7514   -5.3931  -14.8723 C   0  0  0  0  0  0  0  0  0  0  0  0
   23.0686   -4.7379  -13.6650 O   0  0  0  0  0  0  0  0  0  0  0  0
   23.2941   -4.8751  -15.8785 O   0  0  0  0  0  0  0  0  0  0  0  0
  1  2  1  0
  2 12  2  0
  3  4  2  0
  3  2  1  0
  4  5  1  0
  5  6  1  0
  5 11  2  0
  6  7  1  0
  7  9  1  0
  7  8  1  6
  9 13  1  0
 10  9  2  0
 12 11  1  0
 13 14  1  0
 14 17  1  0
 14 15  1  1
 15 16  1  0
 17 19  1  0
 18 17  2  0
 19 20  1  0
 20 28  1  0
 20 21  1  6
 22 21  1  0
 23 22  2  0
 24 23  1  0
 25 26  1  0
 25 24  2  0
 26 27  2  0
 27 22  1  0
 28 30  2  0
 28 29  1  0
M  END
$$$$
