YCF.pdb
     RDKit          3D

 30 31  0  0  1  0  0  0  0  0999 V2000
   27.5030  -16.5285  -16.7131 O   0  0  0  0  0  0  0  0  0  0  0  0
   26.6810  -15.3898  -16.7412 C   0  0  0  0  0  0  0  0  0  0  0  0
   25.9209  -15.0947  -17.8542 C   0  0  0  0  0  0  0  0  0  0  0  0
   25.1082  -13.9519  -17.8576 C   0  0  0  0  0  0  0  0  0  0  0  0
   25.0605  -13.1209  -16.7621 C   0  0  0  0  0  0  0  0  0  0  0  0
   24.1872  -11.9307  -16.8198 C   0  0  0  0  0  0  0  0  0  0  0  0
   22.9143  -12.2716  -16.0935 C   0  0  2  0  0  0  0  0  0  0  0  0
   22.3628  -13.4545  -16.6872 N   0  0  0  0  0  0  0  0  0  0  0  0
   21.9605  -11.1461  -16.0326 C   0  0  0  0  0  0  0  0  0  0  0  0
   20.8765  -11.2300  -16.6549 O   0  0  0  0  0  0  0  0  0  0  0  0
   25.8233  -13.4299  -15.6635 C   0  0  0  0  0  0  0  0  0  0  0  0
   26.6404  -14.5650  -15.6402 C   0  0  0  0  0  0  0  0  0  0  0  0
   22.2048   -9.9442  -15.2922 N   0  0  0  0  0  0  0  0  0  0  0  0
   21.2915   -8.8754  -15.1000 C   0  0  1  0  0  0  0  0  0  0  0  0
   19.8991   -9.2429  -14.7045 C   0  0  0  0  0  0  0  0  0  0  0  0
   18.8182   -7.8788  -14.3162 S   0  0  0  0  0  0  0  0  0  0  0  0
   21.8186   -7.7254  -14.3057 C   0  0  0  0  0  0  0  0  0  0  0  0
   22.5604   -8.0783  -13.3395 O   0  0  0  0  0  0  0  0  0  0  0  0
   21.5662   -6.3810  -14.5374 N   0  0  0  0  0  0  0  0  0  0  0  0
   22.5244   -5.4110  -15.0440 C   0  0  1  0  0  0  0  0  0  0  0  0
   23.3450   -5.9443  -16.1516 C   0  0  0  0  0  0  0  0  0  0  0  0
   24.3625   -4.9874  -16.6013 C   0  0  0  0  0  0  0  0  0  0  0  0
   24.1638   -3.6236  -16.4280 C   0  0  0  0  0  0  0  0  0  0  0  0
   25.1412   -2.7479  -16.8293 C   0  0  0  0  0  0  0  0  0  0  0  0
   26.3336   -3.1446  -17.4061 C   0  0  0  0  0  0  0  0  0  0  0  0
   26.5034   -4.5071  -17.5660 C   0  0  0  0  0  0  0  0  0  0  0  0
   25.5480   -5.4170  -17.1769 C   0  0  0  0  0  0  0  0  0  0  0  0
   21.9624   -4.0551  -15.2205 C   0  0  0  0  0  0  0  0  0  0  0  0
   22.4368   -2.9769  -14.4460 O   0  0  0  0  0  0  0  0  0  0  0  0
   21.0557   -3.7302  -16.0255 O   0  0  0  0  0  0  0  0  0  0  0  0
  1  2  1  0
  2 12  2  0
  3  4  2  0
  3  2  1  0
  4  5  1  0
  5  6  1  0
  5 11  2  0
  6  7  1  0
  7  9  1  0
  7  8  1  6
  9 13  1  0
 10  9  2  0
 12 11  1  0
 13 14  1  0
 14 17  1  0
 14 15  1  1
 15 16  1  0
 17 19  1  0
 18 17  2  0
 19 20  1  0
 20 28  1  0
 20 21  1  6
 22 21  1  0
 23 22  2  0
 24 23  1  0
 25 26  1  0
 25 24  2  0
 26 27  2  0
 27 22  1  0
 28 30  2  0
 28 29  1  0
M  END
$$$$
