YCF.pdb
     RDKit          3D

 30 31  0  0  1  0  0  0  0  0999 V2000
   23.5208  -19.0195  -22.0588 O   0  0  0  0  0  0  0  0  0  0  0  0
   23.3269  -18.6773  -20.7104 C   0  0  0  0  0  0  0  0  0  0  0  0
   24.2515  -17.9051  -20.0377 C   0  0  0  0  0  0  0  0  0  0  0  0
   24.0351  -17.5769  -18.6917 C   0  0  0  0  0  0  0  0  0  0  0  0
   22.9098  -18.0169  -18.0337 C   0  0  0  0  0  0  0  0  0  0  0  0
   22.7321  -17.6416  -16.6159 C   0  0  0  0  0  0  0  0  0  0  0  0
   23.0871  -18.8446  -15.7848 C   0  0  2  0  0  0  0  0  0  0  0  0
   24.3910  -19.2924  -16.1787 N   0  0  0  0  0  0  0  0  0  0  0  0
   22.0626  -19.9068  -15.8324 C   0  0  0  0  0  0  0  0  0  0  0  0
   22.2944  -20.9499  -16.4865 O   0  0  0  0  0  0  0  0  0  0  0  0
   22.0005  -18.7842  -18.7186 C   0  0  0  0  0  0  0  0  0  0  0  0
   22.1979  -19.1225  -20.0614 C   0  0  0  0  0  0  0  0  0  0  0  0
   20.7986  -19.8143  -15.1644 N   0  0  0  0  0  0  0  0  0  0  0  0
   19.7533  -20.7728  -15.2075 C   0  0  1  0  0  0  0  0  0  0  0  0
   19.6151  -21.6716  -14.0229 C   0  0  0  0  0  0  0  0  0  0  0  0
   18.1449  -22.6799  -13.9824 S   0  0  0  0  0  0  0  0  0  0  0  0
   18.4344  -20.2527  -15.6777 C   0  0  0  0  0  0  0  0  0  0  0  0
   17.9935  -19.2912  -14.9781 O   0  0  0  0  0  0  0  0  0  0  0  0
   17.7033  -20.7218  -16.7596 N   0  0  0  0  0  0  0  0  0  0  0  0
   16.4110  -20.2165  -17.1957 C   0  0  1  0  0  0  0  0  0  0  0  0
   16.4852  -19.4958  -18.4840 C   0  0  0  0  0  0  0  0  0  0  0  0
   17.2832  -18.2680  -18.3898 C   0  0  0  0  0  0  0  0  0  0  0  0
   18.6635  -18.3192  -18.5368 C   0  0  0  0  0  0  0  0  0  0  0  0
   19.3875  -17.1551  -18.4743 C   0  0  0  0  0  0  0  0  0  0  0  0
   18.8193  -15.9111  -18.2705 C   0  0  0  0  0  0  0  0  0  0  0  0
   17.4445  -15.8911  -18.1278 C   0  0  0  0  0  0  0  0  0  0  0  0
   16.6834  -17.0355  -18.1842 C   0  0  0  0  0  0  0  0  0  0  0  0
   15.3071  -21.1865  -17.0344 C   0  0  0  0  0  0  0  0  0  0  0  0
   13.9902  -20.8398  -17.3985 O   0  0  0  0  0  0  0  0  0  0  0  0
   15.4088  -22.3529  -16.5817 O   0  0  0  0  0  0  0  0  0  0  0  0
  1  2  1  0
  2 12  2  0
  3  4  2  0
  3  2  1  0
  4  5  1  0
  5  6  1  0
  5 11  2  0
  6  7  1  0
  7  9  1  0
  7  8  1  6
  9 13  1  0
 10  9  2  0
 12 11  1  0
 13 14  1  0
 14 17  1  0
 14 15  1  1
 15 16  1  0
 17 19  1  0
 18 17  2  0
 19 20  1  0
 20 28  1  0
 20 21  1  6
 22 21  1  0
 23 22  2  0
 24 23  1  0
 25 26  1  0
 25 24  2  0
 26 27  2  0
 27 22  1  0
 28 30  2  0
 28 29  1  0
M  END
$$$$
