YCF.pdb
     RDKit          3D

 30 31  0  0  1  0  0  0  0  0999 V2000
   14.7612  -14.9988  -16.5279 O   0  0  0  0  0  0  0  0  0  0  0  0
   15.9013  -14.1948  -16.3648 C   0  0  0  0  0  0  0  0  0  0  0  0
   17.0334  -14.6905  -15.7513 C   0  0  0  0  0  0  0  0  0  0  0  0
   18.1589  -13.8678  -15.6003 C   0  0  0  0  0  0  0  0  0  0  0  0
   18.1467  -12.5703  -16.0578 C   0  0  0  0  0  0  0  0  0  0  0  0
   19.3599  -11.7479  -15.8727 C   0  0  0  0  0  0  0  0  0  0  0  0
   20.0217  -11.6143  -17.2173 C   0  0  2  0  0  0  0  0  0  0  0  0
   20.6091  -12.8780  -17.5551 N   0  0  0  0  0  0  0  0  0  0  0  0
   20.9732  -10.4874  -17.2875 C   0  0  0  0  0  0  0  0  0  0  0  0
   22.0743  -10.6527  -17.8619 O   0  0  0  0  0  0  0  0  0  0  0  0
   17.0119  -12.0937  -16.6658 C   0  0  0  0  0  0  0  0  0  0  0  0
   15.8788  -12.8982  -16.8259 C   0  0  0  0  0  0  0  0  0  0  0  0
   20.7080   -9.1951  -16.7288 N   0  0  0  0  0  0  0  0  0  0  0  0
   21.5309   -8.0449  -16.8441 C   0  0  1  0  0  0  0  0  0  0  0  0
   22.1893   -7.8182  -18.1652 C   0  0  0  0  0  0  0  0  0  0  0  0
   23.2417   -6.3825  -18.2704 S   0  0  0  0  0  0  0  0  0  0  0  0
   20.9492   -6.7896  -16.2810 C   0  0  0  0  0  0  0  0  0  0  0  0
   19.7512   -6.5832  -16.6420 O   0  0  0  0  0  0  0  0  0  0  0  0
   21.5912   -5.8889  -15.4433 N   0  0  0  0  0  0  0  0  0  0  0  0
   21.1307   -5.4754  -14.1270 C   0  0  1  0  0  0  0  0  0  0  0  0
   20.6747   -6.6115  -13.2989 C   0  0  0  0  0  0  0  0  0  0  0  0
   20.1670   -6.1792  -11.9918 C   0  0  0  0  0  0  0  0  0  0  0  0
   20.8784   -6.4707  -10.8350 C   0  0  0  0  0  0  0  0  0  0  0  0
   20.4003   -6.0315   -9.6259 C   0  0  0  0  0  0  0  0  0  0  0  0
   19.2333   -5.3035   -9.4838 C   0  0  0  0  0  0  0  0  0  0  0  0
   18.5469   -5.0285  -10.6517 C   0  0  0  0  0  0  0  0  0  0  0  0
   18.9928   -5.4508  -11.8825 C   0  0  0  0  0  0  0  0  0  0  0  0
   22.0093   -4.4817  -13.4740 C   0  0  0  0  0  0  0  0  0  0  0  0
   21.4837   -3.2616  -13.0025 O   0  0  0  0  0  0  0  0  0  0  0  0
   23.2436   -4.6015  -13.2797 O   0  0  0  0  0  0  0  0  0  0  0  0
  1  2  1  0
  2 12  2  0
  3  4  2  0
  3  2  1  0
  4  5  1  0
  5  6  1  0
  5 11  2  0
  6  7  1  0
  7  9  1  0
  7  8  1  1
  9 13  1  0
 10  9  2  0
 12 11  1  0
 13 14  1  0
 14 17  1  0
 14 15  1  6
 15 16  1  0
 17 19  1  0
 18 17  2  0
 19 20  1  0
 20 28  1  0
 20 21  1  1
 22 21  1  0
 23 22  2  0
 24 23  1  0
 25 26  1  0
 25 24  2  0
 26 27  2  0
 27 22  1  0
 28 30  2  0
 28 29  1  0
M  END
$$$$
