YCF.pdb
     RDKit          3D

 30 31  0  0  1  0  0  0  0  0999 V2000
   29.7603  -14.7055  -18.1071 O   0  0  0  0  0  0  0  0  0  0  0  0
   28.6239  -15.3827  -17.6347 C   0  0  0  0  0  0  0  0  0  0  0  0
   28.3165  -16.6488  -18.0888 C   0  0  0  0  0  0  0  0  0  0  0  0
   27.1763  -17.3039  -17.6018 C   0  0  0  0  0  0  0  0  0  0  0  0
   26.3600  -16.6974  -16.6751 C   0  0  0  0  0  0  0  0  0  0  0  0
   25.1718  -17.4332  -16.1961 C   0  0  0  0  0  0  0  0  0  0  0  0
   24.3872  -17.8572  -17.4079 C   0  0  2  0  0  0  0  0  0  0  0  0
   23.9248  -16.6769  -18.0779 N   0  0  0  0  0  0  0  0  0  0  0  0
   23.3081  -18.8156  -17.0956 C   0  0  0  0  0  0  0  0  0  0  0  0
   22.3095  -18.4216  -16.4498 O   0  0  0  0  0  0  0  0  0  0  0  0
   26.6811  -15.4375  -16.2345 C   0  0  0  0  0  0  0  0  0  0  0  0
   27.8139  -14.7672  -16.7078 C   0  0  0  0  0  0  0  0  0  0  0  0
   23.3356  -20.1916  -17.4935 N   0  0  0  0  0  0  0  0  0  0  0  0
   22.3629  -21.1762  -17.1810 C   0  0  1  0  0  0  0  0  0  0  0  0
   22.2990  -22.3679  -18.0788 C   0  0  0  0  0  0  0  0  0  0  0  0
   22.1577  -22.0183  -19.8218 S   0  0  0  0  0  0  0  0  0  0  0  0
   22.2818  -21.5524  -15.7377 C   0  0  0  0  0  0  0  0  0  0  0  0
   23.4164  -21.7080  -15.1931 O   0  0  0  0  0  0  0  0  0  0  0  0
   21.1216  -21.7336  -14.9987 N   0  0  0  0  0  0  0  0  0  0  0  0
   21.0486  -21.8818  -13.5535 C   0  0  1  0  0  0  0  0  0  0  0  0
   21.8623  -20.8787  -12.8351 C   0  0  0  0  0  0  0  0  0  0  0  0
   21.2176  -19.5610  -12.7997 C   0  0  0  0  0  0  0  0  0  0  0  0
   20.3575  -19.2320  -11.7598 C   0  0  0  0  0  0  0  0  0  0  0  0
   19.7882  -17.9837  -11.7308 C   0  0  0  0  0  0  0  0  0  0  0  0
   20.0210  -17.0145  -12.6891 C   0  0  0  0  0  0  0  0  0  0  0  0
   20.8808  -17.3701  -13.7114 C   0  0  0  0  0  0  0  0  0  0  0  0
   21.4714  -18.6107  -13.7763 C   0  0  0  0  0  0  0  0  0  0  0  0
   19.6799  -22.1195  -13.0478 C   0  0  0  0  0  0  0  0  0  0  0  0
   19.4745  -22.6241  -11.7477 O   0  0  0  0  0  0  0  0  0  0  0  0
   18.6136  -21.9152  -13.6779 O   0  0  0  0  0  0  0  0  0  0  0  0
  1  2  1  0
  2 12  2  0
  3  4  2  0
  3  2  1  0
  4  5  1  0
  5  6  1  0
  5 11  2  0
  6  7  1  0
  7  9  1  0
  7  8  1  1
  9 13  1  0
 10  9  2  0
 12 11  1  0
 13 14  1  0
 14 17  1  0
 14 15  1  6
 15 16  1  0
 17 19  1  0
 18 17  2  0
 19 20  1  0
 20 28  1  0
 20 21  1  1
 22 21  1  0
 23 22  2  0
 24 23  1  0
 25 26  1  0
 25 24  2  0
 26 27  2  0
 27 22  1  0
 28 30  2  0
 28 29  1  0
M  END
$$$$
