YCF.pdb
     RDKit          3D

 30 31  0  0  1  0  0  0  0  0999 V2000
   30.7361  -18.5397  -18.8707 O   0  0  0  0  0  0  0  0  0  0  0  0
   29.9529  -18.4371  -17.7092 C   0  0  0  0  0  0  0  0  0  0  0  0
   29.3788  -17.2356  -17.3482 C   0  0  0  0  0  0  0  0  0  0  0  0
   28.6010  -17.1590  -16.1839 C   0  0  0  0  0  0  0  0  0  0  0  0
   28.4039  -18.2701  -15.3968 C   0  0  0  0  0  0  0  0  0  0  0  0
   27.5756  -18.1327  -14.1811 C   0  0  0  0  0  0  0  0  0  0  0  0
   26.3328  -18.9549  -14.3890 C   0  0  2  0  0  0  0  0  0  0  0  0
   25.5287  -18.3077  -15.3843 N   0  0  0  0  0  0  0  0  0  0  0  0
   25.6036  -19.2333  -13.1356 C   0  0  0  0  0  0  0  0  0  0  0  0
   24.6161  -18.5242  -12.8332 O   0  0  0  0  0  0  0  0  0  0  0  0
   28.9826  -19.4572  -15.7712 C   0  0  0  0  0  0  0  0  0  0  0  0
   29.7618  -19.5545  -16.9287 C   0  0  0  0  0  0  0  0  0  0  0  0
   25.9640  -20.2832  -12.2299 N   0  0  0  0  0  0  0  0  0  0  0  0
   25.2688  -20.6490  -11.0483 C   0  0  1  0  0  0  0  0  0  0  0  0
   24.1551  -21.6324  -11.1999 C   0  0  0  0  0  0  0  0  0  0  0  0
   24.2859  -22.7432  -12.5888 S   0  0  0  0  0  0  0  0  0  0  0  0
   26.1357  -20.9557   -9.8712 C   0  0  0  0  0  0  0  0  0  0  0  0
   26.8782  -21.9693  -10.0427 O   0  0  0  0  0  0  0  0  0  0  0  0
   26.1799  -20.2518   -8.6763 N   0  0  0  0  0  0  0  0  0  0  0  0
   26.9659  -20.6113   -7.5064 C   0  0  1  0  0  0  0  0  0  0  0  0
   28.1298  -19.7228   -7.3058 C   0  0  0  0  0  0  0  0  0  0  0  0
   28.6946  -19.8413   -5.9567 C   0  0  0  0  0  0  0  0  0  0  0  0
   28.1971  -19.0616   -4.9203 C   0  0  0  0  0  0  0  0  0  0  0  0
   28.7200  -19.2095   -3.6601 C   0  0  0  0  0  0  0  0  0  0  0  0
   29.7296  -20.1022   -3.3510 C   0  0  0  0  0  0  0  0  0  0  0  0
   30.2048  -20.8643   -4.4018 C   0  0  0  0  0  0  0  0  0  0  0  0
   29.7073  -20.7459   -5.6788 C   0  0  0  0  0  0  0  0  0  0  0  0
   26.1498  -20.9244   -6.3141 C   0  0  0  0  0  0  0  0  0  0  0  0
   26.6440  -21.7869   -5.3145 O   0  0  0  0  0  0  0  0  0  0  0  0
   24.9977  -20.4888   -6.0723 O   0  0  0  0  0  0  0  0  0  0  0  0
  1  2  1  0
  2 12  2  0
  3  4  2  0
  3  2  1  0
  4  5  1  0
  5  6  1  0
  5 11  2  0
  6  7  1  0
  7  9  1  0
  7  8  1  6
  9 13  1  0
 10  9  2  0
 12 11  1  0
 13 14  1  0
 14 17  1  0
 14 15  1  6
 15 16  1  0
 17 19  1  0
 18 17  2  0
 19 20  1  0
 20 28  1  0
 20 21  1  1
 22 21  1  0
 23 22  2  0
 24 23  1  0
 25 26  1  0
 25 24  2  0
 26 27  2  0
 27 22  1  0
 28 30  2  0
 28 29  1  0
M  END
$$$$
