YCF.pdb
     RDKit          3D

 30 31  0  0  1  0  0  0  0  0999 V2000
   36.2749   -5.7962  -13.9795 O   0  0  0  0  0  0  0  0  0  0  0  0
   36.7309   -6.0632  -12.6781 C   0  0  0  0  0  0  0  0  0  0  0  0
   37.0596   -7.3470  -12.2943 C   0  0  0  0  0  0  0  0  0  0  0  0
   37.5125   -7.5878  -10.9892 C   0  0  0  0  0  0  0  0  0  0  0  0
   37.6328   -6.5567  -10.0862 C   0  0  0  0  0  0  0  0  0  0  0  0
   38.1149   -6.8670   -8.7246 C   0  0  0  0  0  0  0  0  0  0  0  0
   39.5661   -6.4748   -8.6615 C   0  0  2  0  0  0  0  0  0  0  0  0
   40.3267   -7.4547   -9.3806 N   0  0  0  0  0  0  0  0  0  0  0  0
   40.0487   -6.2524   -7.2839 C   0  0  0  0  0  0  0  0  0  0  0  0
   40.8037   -7.1018   -6.7568 O   0  0  0  0  0  0  0  0  0  0  0  0
   37.3013   -5.2857  -10.4853 C   0  0  0  0  0  0  0  0  0  0  0  0
   36.8476   -5.0247  -11.7824 C   0  0  0  0  0  0  0  0  0  0  0  0
   39.6994   -5.1043   -6.5014 N   0  0  0  0  0  0  0  0  0  0  0  0
   40.2327   -4.7582   -5.2328 C   0  0  1  0  0  0  0  0  0  0  0  0
   41.7206   -4.7601   -5.1050 C   0  0  0  0  0  0  0  0  0  0  0  0
   42.3590   -4.4113   -3.4769 S   0  0  0  0  0  0  0  0  0  0  0  0
   39.6128   -3.5613   -4.5891 C   0  0  0  0  0  0  0  0  0  0  0  0
   38.9306   -2.8545   -5.3911 O   0  0  0  0  0  0  0  0  0  0  0  0
   39.7269   -3.1922   -3.2565 N   0  0  0  0  0  0  0  0  0  0  0  0
   38.6666   -2.6259   -2.4374 C   0  0  1  0  0  0  0  0  0  0  0  0
   37.4101   -3.4003   -2.5150 C   0  0  0  0  0  0  0  0  0  0  0  0
   36.3145   -2.7588   -1.7793 C   0  0  0  0  0  0  0  0  0  0  0  0
   36.0265   -3.1467   -0.4770 C   0  0  0  0  0  0  0  0  0  0  0  0
   35.0167   -2.5133    0.2029 C   0  0  0  0  0  0  0  0  0  0  0  0
   34.2534   -1.4944   -0.3365 C   0  0  0  0  0  0  0  0  0  0  0  0
   34.5625   -1.1297   -1.6335 C   0  0  0  0  0  0  0  0  0  0  0  0
   35.5670   -1.7398   -2.3485 C   0  0  0  0  0  0  0  0  0  0  0  0
   39.1129   -2.2081   -1.0914 C   0  0  0  0  0  0  0  0  0  0  0  0
   38.9305   -0.8794   -0.6569 O   0  0  0  0  0  0  0  0  0  0  0  0
   39.6713   -2.9398   -0.2379 O   0  0  0  0  0  0  0  0  0  0  0  0
  1  2  1  0
  2 12  2  0
  3  4  2  0
  3  2  1  0
  4  5  1  0
  5  6  1  0
  5 11  2  0
  6  7  1  0
  7  9  1  0
  7  8  1  1
  9 13  1  0
 10  9  2  0
 12 11  1  0
 13 14  1  0
 14 17  1  0
 14 15  1  6
 15 16  1  0
 17 19  1  0
 18 17  2  0
 19 20  1  0
 20 28  1  0
 20 21  1  1
 22 21  1  0
 23 22  2  0
 24 23  1  0
 25 26  1  0
 25 24  2  0
 26 27  2  0
 27 22  1  0
 28 30  2  0
 28 29  1  0
M  END
$$$$
