YCF.pdb
     RDKit          3D

 30 31  0  0  1  0  0  0  0  0999 V2000
   32.1443  -16.2060  -18.6045 O   0  0  0  0  0  0  0  0  0  0  0  0
   31.0907  -16.3610  -17.6887 C   0  0  0  0  0  0  0  0  0  0  0  0
   31.0968  -17.3931  -16.7730 C   0  0  0  0  0  0  0  0  0  0  0  0
   30.0331  -17.5264  -15.8690 C   0  0  0  0  0  0  0  0  0  0  0  0
   28.9823  -16.6385  -15.8853 C   0  0  0  0  0  0  0  0  0  0  0  0
   27.8880  -16.8260  -14.9105 C   0  0  0  0  0  0  0  0  0  0  0  0
   27.1986  -18.1190  -15.2521 C   0  0  2  0  0  0  0  0  0  0  0  0
   26.7163  -18.0273  -16.5993 N   0  0  0  0  0  0  0  0  0  0  0  0
   26.1537  -18.4953  -14.2791 C   0  0  0  0  0  0  0  0  0  0  0  0
   25.0236  -17.9609  -14.3593 O   0  0  0  0  0  0  0  0  0  0  0  0
   28.9927  -15.6177  -16.8031 C   0  0  0  0  0  0  0  0  0  0  0  0
   30.0442  -15.4674  -17.7132 C   0  0  0  0  0  0  0  0  0  0  0  0
   26.3587  -19.4509  -13.2315 N   0  0  0  0  0  0  0  0  0  0  0  0
   25.3898  -19.8883  -12.2917 C   0  0  1  0  0  0  0  0  0  0  0  0
   24.1243  -20.4565  -12.8449 C   0  0  0  0  0  0  0  0  0  0  0  0
   23.1341  -21.4010  -11.7016 S   0  0  0  0  0  0  0  0  0  0  0  0
   25.9259  -20.7019  -11.1596 C   0  0  0  0  0  0  0  0  0  0  0  0
   26.4277  -21.8071  -11.5267 O   0  0  0  0  0  0  0  0  0  0  0  0
   25.9114  -20.3532   -9.8167 N   0  0  0  0  0  0  0  0  0  0  0  0
   26.2867  -21.2187   -8.7096 C   0  0  1  0  0  0  0  0  0  0  0  0
   27.6798  -21.0049   -8.2648 C   0  0  0  0  0  0  0  0  0  0  0  0
   27.7592  -20.1510   -7.0741 C   0  0  0  0  0  0  0  0  0  0  0  0
   28.3021  -20.6454   -5.8950 C   0  0  0  0  0  0  0  0  0  0  0  0
   28.3934  -19.8206   -4.8020 C   0  0  0  0  0  0  0  0  0  0  0  0
   27.9713  -18.5039   -4.8002 C   0  0  0  0  0  0  0  0  0  0  0  0
   27.4356  -18.0396   -5.9868 C   0  0  0  0  0  0  0  0  0  0  0  0
   27.3267  -18.8345   -7.1042 C   0  0  0  0  0  0  0  0  0  0  0  0
   25.2553  -21.3173   -7.6549 C   0  0  0  0  0  0  0  0  0  0  0  0
   24.0227  -20.6475   -7.7940 O   0  0  0  0  0  0  0  0  0  0  0  0
   25.3536  -21.9641   -6.5837 O   0  0  0  0  0  0  0  0  0  0  0  0
  1  2  1  0
  2 12  2  0
  3  4  2  0
  3  2  1  0
  4  5  1  0
  5  6  1  0
  5 11  2  0
  6  7  1  0
  7  9  1  0
  7  8  1  6
  9 13  1  0
 10  9  2  0
 12 11  1  0
 13 14  1  0
 14 17  1  0
 14 15  1  6
 15 16  1  0
 17 19  1  0
 18 17  2  0
 19 20  1  0
 20 28  1  0
 20 21  1  1
 22 21  1  0
 23 22  2  0
 24 23  1  0
 25 26  1  0
 25 24  2  0
 26 27  2  0
 27 22  1  0
 28 30  2  0
 28 29  1  0
M  END
$$$$
