YCF.pdb
     RDKit          3D

 30 31  0  0  1  0  0  0  0  0999 V2000
   18.6747   -9.7463  -15.5445 O   0  0  0  0  0  0  0  0  0  0  0  0
   18.8804  -11.0784  -15.9398 C   0  0  0  0  0  0  0  0  0  0  0  0
   18.5182  -11.5048  -17.2011 C   0  0  0  0  0  0  0  0  0  0  0  0
   18.7338  -12.8398  -17.5719 C   0  0  0  0  0  0  0  0  0  0  0  0
   19.3032  -13.7301  -16.6909 C   0  0  0  0  0  0  0  0  0  0  0  0
   19.5075  -15.1246  -17.1339 C   0  0  0  0  0  0  0  0  0  0  0  0
   20.9322  -15.2430  -17.6029 C   0  0  2  0  0  0  0  0  0  0  0  0
   21.0388  -14.5985  -18.8793 N   0  0  0  0  0  0  0  0  0  0  0  0
   21.4303  -16.6330  -17.6040 C   0  0  0  0  0  0  0  0  0  0  0  0
   20.9873  -17.4397  -18.4539 O   0  0  0  0  0  0  0  0  0  0  0  0
   19.6574  -13.2886  -15.4403 C   0  0  0  0  0  0  0  0  0  0  0  0
   19.4506  -11.9610  -15.0511 C   0  0  0  0  0  0  0  0  0  0  0  0
   22.4059  -17.1221  -16.6758 N   0  0  0  0  0  0  0  0  0  0  0  0
   22.8787  -18.4564  -16.5790 C   0  0  1  0  0  0  0  0  0  0  0  0
   24.1580  -18.7698  -17.2829 C   0  0  0  0  0  0  0  0  0  0  0  0
   24.6823  -17.5803  -18.5036 S   0  0  0  0  0  0  0  0  0  0  0  0
   22.8288  -19.0494  -15.2090 C   0  0  0  0  0  0  0  0  0  0  0  0
   23.3780  -18.3240  -14.3256 O   0  0  0  0  0  0  0  0  0  0  0  0
   22.2595  -20.2654  -14.8590 N   0  0  0  0  0  0  0  0  0  0  0  0
   22.1960  -20.8191  -13.5155 C   0  0  1  0  0  0  0  0  0  0  0  0
   21.8508  -19.8058  -12.4964 C   0  0  0  0  0  0  0  0  0  0  0  0
   21.6986  -20.3906  -11.1592 C   0  0  0  0  0  0  0  0  0  0  0  0
   20.4657  -20.8798  -10.7470 C   0  0  0  0  0  0  0  0  0  0  0  0
   20.3526  -21.4491   -9.5034 C   0  0  0  0  0  0  0  0  0  0  0  0
   21.4081  -21.5689   -8.6183 C   0  0  0  0  0  0  0  0  0  0  0  0
   22.6223  -21.0736   -9.0556 C   0  0  0  0  0  0  0  0  0  0  0  0
   22.7767  -20.4959  -10.2944 C   0  0  0  0  0  0  0  0  0  0  0  0
   21.4872  -22.1142  -13.4382 C   0  0  0  0  0  0  0  0  0  0  0  0
   22.0284  -23.1834  -12.6958 O   0  0  0  0  0  0  0  0  0  0  0  0
   20.3952  -22.3929  -13.9908 O   0  0  0  0  0  0  0  0  0  0  0  0
  1  2  1  0
  2 12  2  0
  3  4  2  0
  3  2  1  0
  4  5  1  0
  5  6  1  0
  5 11  2  0
  6  7  1  0
  7  9  1  0
  7  8  1  6
  9 13  1  0
 10  9  2  0
 12 11  1  0
 13 14  1  0
 14 17  1  0
 14 15  1  1
 15 16  1  0
 17 19  1  0
 18 17  2  0
 19 20  1  0
 20 28  1  0
 20 21  1  1
 22 21  1  0
 23 22  2  0
 24 23  1  0
 25 26  1  0
 25 24  2  0
 26 27  2  0
 27 22  1  0
 28 30  2  0
 28 29  1  0
M  END
$$$$
