YCF.pdb
     RDKit          3D

 30 31  0  0  1  0  0  0  0  0999 V2000
   30.1897  -26.0702  -17.9736 O   0  0  0  0  0  0  0  0  0  0  0  0
   28.9746  -25.8491  -17.3047 C   0  0  0  0  0  0  0  0  0  0  0  0
   28.4070  -24.5920  -17.2680 C   0  0  0  0  0  0  0  0  0  0  0  0
   27.1932  -24.3970  -16.5936 C   0  0  0  0  0  0  0  0  0  0  0  0
   26.5612  -25.4465  -15.9674 C   0  0  0  0  0  0  0  0  0  0  0  0
   25.2845  -25.1846  -15.2717 C   0  0  0  0  0  0  0  0  0  0  0  0
   24.1747  -25.6128  -16.1929 C   0  0  2  0  0  0  0  0  0  0  0  0
   23.8206  -24.4947  -17.0179 N   0  0  0  0  0  0  0  0  0  0  0  0
   23.0242  -26.2046  -15.4813 C   0  0  0  0  0  0  0  0  0  0  0  0
   21.9067  -25.6432  -15.5539 O   0  0  0  0  0  0  0  0  0  0  0  0
   27.1402  -26.6903  -16.0141 C   0  0  0  0  0  0  0  0  0  0  0  0
   28.3505  -26.9057  -16.6815 C   0  0  0  0  0  0  0  0  0  0  0  0
   23.1113  -27.4023  -14.6998 N   0  0  0  0  0  0  0  0  0  0  0  0
   22.0381  -28.0545  -14.0394 C   0  0  1  0  0  0  0  0  0  0  0  0
   20.7593  -28.1841  -14.7997 C   0  0  0  0  0  0  0  0  0  0  0  0
   19.6440  -29.4534  -14.2296 S   0  0  0  0  0  0  0  0  0  0  0  0
   22.4031  -29.3174  -13.3302 C   0  0  0  0  0  0  0  0  0  0  0  0
   23.5038  -29.8133  -13.7186 O   0  0  0  0  0  0  0  0  0  0  0  0
   21.6649  -29.9468  -12.3382 N   0  0  0  0  0  0  0  0  0  0  0  0
   22.2033  -30.7969  -11.2879 C   0  0  1  0  0  0  0  0  0  0  0  0
   23.3439  -30.1776  -10.5809 C   0  0  0  0  0  0  0  0  0  0  0  0
   23.9614  -31.0914   -9.6130 C   0  0  0  0  0  0  0  0  0  0  0  0
   23.5220  -31.1141   -8.2954 C   0  0  0  0  0  0  0  0  0  0  0  0
   24.0935  -31.9971   -7.4139 C   0  0  0  0  0  0  0  0  0  0  0  0
   25.0976  -32.8820   -7.7607 C   0  0  0  0  0  0  0  0  0  0  0  0
   25.5144  -32.8368   -9.0779 C   0  0  0  0  0  0  0  0  0  0  0  0
   24.9671  -31.9666   -9.9919 C   0  0  0  0  0  0  0  0  0  0  0  0
   21.1668  -31.4390  -10.4519 C   0  0  0  0  0  0  0  0  0  0  0  0
   21.1748  -32.8337  -10.2467 O   0  0  0  0  0  0  0  0  0  0  0  0
   20.2210  -30.8545   -9.8692 O   0  0  0  0  0  0  0  0  0  0  0  0
  1  2  1  0
  2 12  2  0
  3  4  2  0
  3  2  1  0
  4  5  1  0
  5  6  1  0
  5 11  2  0
  6  7  1  0
  7  9  1  0
  7  8  1  1
  9 13  1  0
 10  9  2  0
 12 11  1  0
 13 14  1  0
 14 17  1  0
 14 15  1  6
 15 16  1  0
 17 19  1  0
 18 17  2  0
 19 20  1  0
 20 28  1  0
 20 21  1  1
 22 21  1  0
 23 22  2  0
 24 23  1  0
 25 26  1  0
 25 24  2  0
 26 27  2  0
 27 22  1  0
 28 30  2  0
 28 29  1  0
M  END
$$$$
