KWG.pdb
     RDKit          3D

 28 29  0  0  1  0  0  0  0  0999 V2000
   28.6243  -20.7597  -14.4823 N   0  0  0  0  0  0  0  0  0  0  0  0
   27.2782  -20.5106  -14.8483 C   0  0  1  0  0  0  0  0  0  0  0  0
   26.9198  -20.9782  -16.2201 C   0  0  0  0  0  0  0  0  0  0  0  0
   26.9352  -19.8988  -17.2215 C   0  0  0  0  0  0  0  0  0  0  0  0
   28.2858  -19.3165  -17.4672 C   0  0  0  0  0  0  0  0  0  0  0  0
   28.1441  -18.0854  -18.3337 C   0  0  0  0  0  0  0  0  0  0  0  0
   29.4496  -17.4786  -18.6058 N   0  0  0  0  0  0  0  0  0  0  0  0
   26.2988  -21.1409  -13.9140 C   0  0  0  0  0  0  0  0  0  0  0  0
   25.8155  -22.2447  -14.2265 O   0  0  0  0  0  0  0  0  0  0  0  0
   25.9575  -20.4745  -12.7251 N   0  0  0  0  0  0  0  0  0  0  0  0
   25.0516  -21.0090  -11.7341 C   0  0  1  0  0  0  0  0  0  0  0  0
   25.3825  -20.5678  -10.3651 C   0  0  0  0  0  0  0  0  0  0  0  0
   26.7381  -20.8541   -9.8872 C   0  0  0  0  0  0  0  0  0  0  0  0
   27.7990  -21.5252  -10.4231 C   0  0  0  0  0  0  0  0  0  0  0  0
   28.8738  -21.5142   -9.5991 N   0  0  0  0  0  0  0  0  0  0  0  0
   28.4987  -20.8214   -8.5066 C   0  0  0  0  0  0  0  0  0  0  0  0
   29.2230  -20.5173   -7.3580 C   0  0  0  0  0  0  0  0  0  0  0  0
   28.6183  -19.7891   -6.3603 C   0  0  0  0  0  0  0  0  0  0  0  0
   27.3137  -19.3506   -6.4646 C   0  0  0  0  0  0  0  0  0  0  0  0
   26.6197  -19.6676   -7.6167 C   0  0  0  0  0  0  0  0  0  0  0  0
   27.1887  -20.3948   -8.6393 C   0  0  0  0  0  0  0  0  0  0  0  0
   23.6310  -20.7884  -12.1206 C   0  0  0  0  0  0  0  0  0  0  0  0
   23.2658  -19.6112  -12.4183 O   0  0  0  0  0  0  0  0  0  0  0  0
   22.7005  -21.8559  -12.1589 N   0  0  0  0  0  0  0  0  0  0  0  0
   21.3671  -21.6064  -12.6673 C   0  0  0  0  0  0  0  0  0  0  0  0
   20.4770  -21.3581  -11.4993 C   0  0  0  0  0  0  0  0  0  0  0  0
   20.8866  -21.3600  -10.3192 O   0  0  0  0  0  0  0  0  0  0  0  0
   19.1186  -21.1081  -11.6851 O   0  0  0  0  0  0  0  0  0  0  0  0
  2  1  1  1
  2  3  1  0
  3  4  1  0
  5  6  1  0
  5  4  1  0
  7  6  1  0
  8  9  2  0
  8  2  1  0
 10  8  1  0
 11 10  1  0
 11 12  1  1
 12 13  1  0
 13 21  1  0
 13 14  2  0
 14 15  1  0
 16 15  1  0
 16 17  2  0
 18 17  1  0
 19 18  2  0
 20 21  2  0
 20 19  1  0
 21 16  1  0
 22 24  1  0
 22 11  1  0
 23 22  2  0
 25 26  1  0
 25 24  1  0
 26 28  1  0
 27 26  2  0
M  END
$$$$
