KWG.pdb
     RDKit          3D

 28 29  0  0  1  0  0  0  0  0999 V2000
   27.6537  -22.5263  -15.2917 N   0  0  0  0  0  0  0  0  0  0  0  0
   26.2686  -22.2373  -15.2138 C   0  0  1  0  0  0  0  0  0  0  0  0
   25.4040  -23.1646  -16.0021 C   0  0  0  0  0  0  0  0  0  0  0  0
   25.5114  -22.9597  -17.4563 C   0  0  0  0  0  0  0  0  0  0  0  0
   26.2914  -24.0158  -18.1633 C   0  0  0  0  0  0  0  0  0  0  0  0
   26.3942  -23.6578  -19.6288 C   0  0  0  0  0  0  0  0  0  0  0  0
   27.2172  -24.6300  -20.3530 N   0  0  0  0  0  0  0  0  0  0  0  0
   25.7511  -22.2594  -13.8134 C   0  0  0  0  0  0  0  0  0  0  0  0
   25.5991  -23.3644  -13.2608 O   0  0  0  0  0  0  0  0  0  0  0  0
   25.4550  -21.0450  -13.1717 N   0  0  0  0  0  0  0  0  0  0  0  0
   25.0256  -20.9455  -11.7955 C   0  0  1  0  0  0  0  0  0  0  0  0
   25.8572  -20.0158  -11.0067 C   0  0  0  0  0  0  0  0  0  0  0  0
   27.1840  -20.4922  -10.6061 C   0  0  0  0  0  0  0  0  0  0  0  0
   28.1751  -21.1658  -11.2596 C   0  0  0  0  0  0  0  0  0  0  0  0
   29.2521  -21.3773  -10.4661 N   0  0  0  0  0  0  0  0  0  0  0  0
   28.9498  -20.8288   -9.2737 C   0  0  0  0  0  0  0  0  0  0  0  0
   29.7070  -20.7700   -8.1076 C   0  0  0  0  0  0  0  0  0  0  0  0
   29.1788  -20.1515   -6.9987 C   0  0  0  0  0  0  0  0  0  0  0  0
   27.9193  -19.5870   -7.0081 C   0  0  0  0  0  0  0  0  0  0  0  0
   27.1911  -19.6607   -8.1800 C   0  0  0  0  0  0  0  0  0  0  0  0
   27.6837  -20.2712   -9.3128 C   0  0  0  0  0  0  0  0  0  0  0  0
   23.5625  -20.6881  -11.6996 C   0  0  0  0  0  0  0  0  0  0  0  0
   23.0747  -20.4130  -10.5620 O   0  0  0  0  0  0  0  0  0  0  0  0
   22.7248  -20.7459  -12.8407 N   0  0  0  0  0  0  0  0  0  0  0  0
   21.3281  -20.3863  -12.7046 C   0  0  0  0  0  0  0  0  0  0  0  0
   20.5398  -21.6485  -12.6468 C   0  0  0  0  0  0  0  0  0  0  0  0
   20.9803  -22.7034  -12.1433 O   0  0  0  0  0  0  0  0  0  0  0  0
   19.2475  -21.7004  -13.1663 O   0  0  0  0  0  0  0  0  0  0  0  0
  2  1  1  1
  2  3  1  0
  3  4  1  0
  5  6  1  0
  5  4  1  0
  7  6  1  0
  8  9  2  0
  8  2  1  0
 10  8  1  0
 11 10  1  0
 11 12  1  6
 12 13  1  0
 13 21  1  0
 13 14  2  0
 14 15  1  0
 16 15  1  0
 16 17  2  0
 18 17  1  0
 19 18  2  0
 20 21  2  0
 20 19  1  0
 21 16  1  0
 22 24  1  0
 22 11  1  0
 23 22  2  0
 25 26  1  0
 25 24  1  0
 26 28  1  0
 27 26  2  0
M  END
$$$$
