KWG.pdb
     RDKit          3D

 28 29  0  0  1  0  0  0  0  0999 V2000
   28.0664  -20.6796  -14.4962 N   0  0  0  0  0  0  0  0  0  0  0  0
   26.6813  -20.8677  -14.7289 C   0  0  1  0  0  0  0  0  0  0  0  0
   26.3698  -21.8229  -15.8332 C   0  0  0  0  0  0  0  0  0  0  0  0
   26.7010  -21.2934  -17.1666 C   0  0  0  0  0  0  0  0  0  0  0  0
   27.1540  -19.8727  -17.1614 C   0  0  0  0  0  0  0  0  0  0  0  0
   27.4269  -19.4349  -18.5828 C   0  0  0  0  0  0  0  0  0  0  0  0
   28.0260  -18.0982  -18.6174 N   0  0  0  0  0  0  0  0  0  0  0  0
   25.9538  -21.3603  -13.5216 C   0  0  0  0  0  0  0  0  0  0  0  0
   25.5136  -22.5246  -13.5355 O   0  0  0  0  0  0  0  0  0  0  0  0
   25.7907  -20.5025  -12.4209 N   0  0  0  0  0  0  0  0  0  0  0  0
   25.0858  -20.8674  -11.2133 C   0  0  1  0  0  0  0  0  0  0  0  0
   25.6452  -20.2194  -10.0110 C   0  0  0  0  0  0  0  0  0  0  0  0
   27.0243  -20.5642   -9.6547 C   0  0  0  0  0  0  0  0  0  0  0  0
   28.0251  -21.2224  -10.3089 C   0  0  0  0  0  0  0  0  0  0  0  0
   29.1576  -21.2863   -9.5688 N   0  0  0  0  0  0  0  0  0  0  0  0
   28.8820  -20.6561   -8.4108 C   0  0  0  0  0  0  0  0  0  0  0  0
   29.6965  -20.4406   -7.3033 C   0  0  0  0  0  0  0  0  0  0  0  0
   29.1860  -19.7641   -6.2203 C   0  0  0  0  0  0  0  0  0  0  0  0
   27.8891  -19.2923   -6.1992 C   0  0  0  0  0  0  0  0  0  0  0  0
   27.1042  -19.5210   -7.3132 C   0  0  0  0  0  0  0  0  0  0  0  0
   27.5773  -20.1942   -8.4183 C   0  0  0  0  0  0  0  0  0  0  0  0
   23.6150  -20.6988  -11.3700 C   0  0  0  0  0  0  0  0  0  0  0  0
   23.1549  -19.5232  -11.4886 O   0  0  0  0  0  0  0  0  0  0  0  0
   22.7404  -21.8131  -11.3878 N   0  0  0  0  0  0  0  0  0  0  0  0
   21.3104  -21.5831  -11.3582 C   0  0  0  0  0  0  0  0  0  0  0  0
   20.8105  -21.6630  -12.7588 C   0  0  0  0  0  0  0  0  0  0  0  0
   20.4448  -20.6610  -13.4089 O   0  0  0  0  0  0  0  0  0  0  0  0
   20.7301  -22.8912  -13.4127 O   0  0  0  0  0  0  0  0  0  0  0  0
  2  1  1  1
  2  3  1  0
  3  4  1  0
  5  6  1  0
  5  4  1  0
  7  6  1  0
  8  9  2  0
  8  2  1  0
 10  8  1  0
 11 10  1  0
 11 12  1  1
 12 13  1  0
 13 21  1  0
 13 14  2  0
 14 15  1  0
 16 15  1  0
 16 17  2  0
 18 17  1  0
 19 18  2  0
 20 21  2  0
 20 19  1  0
 21 16  1  0
 22 24  1  0
 22 11  1  0
 23 22  2  0
 25 26  1  0
 25 24  1  0
 26 28  1  0
 27 26  2  0
M  END
$$$$
