KWG.pdb
     RDKit          3D

 28 29  0  0  1  0  0  0  0  0999 V2000
   26.6848  -24.4709  -15.3206 N   0  0  0  0  0  0  0  0  0  0  0  0
   25.3318  -24.0839  -15.4865 C   0  0  1  0  0  0  0  0  0  0  0  0
   24.3836  -25.2256  -15.6487 C   0  0  0  0  0  0  0  0  0  0  0  0
   24.3736  -25.7798  -17.0128 C   0  0  0  0  0  0  0  0  0  0  0  0
   25.1846  -27.0211  -17.1709 C   0  0  0  0  0  0  0  0  0  0  0  0
   25.1521  -27.4526  -18.6198 C   0  0  0  0  0  0  0  0  0  0  0  0
   25.9717  -28.6484  -18.8327 N   0  0  0  0  0  0  0  0  0  0  0  0
   24.8209  -23.2644  -14.3478 C   0  0  0  0  0  0  0  0  0  0  0  0
   24.6734  -23.8202  -13.2438 O   0  0  0  0  0  0  0  0  0  0  0  0
   24.5259  -21.9067  -14.5571 N   0  0  0  0  0  0  0  0  0  0  0  0
   24.0570  -21.0156  -13.5206 C   0  0  1  0  0  0  0  0  0  0  0  0
   25.0585  -19.9963  -13.1517 C   0  0  0  0  0  0  0  0  0  0  0  0
   26.2208  -20.4571  -12.3871 C   0  0  0  0  0  0  0  0  0  0  0  0
   27.4964  -20.7969  -12.7339 C   0  0  0  0  0  0  0  0  0  0  0  0
   28.2357  -21.1552  -11.6571 N   0  0  0  0  0  0  0  0  0  0  0  0
   27.4194  -21.0450  -10.5914 C   0  0  0  0  0  0  0  0  0  0  0  0
   27.6780  -21.2954   -9.2472 C   0  0  0  0  0  0  0  0  0  0  0  0
   26.6716  -21.1124   -8.3281 C   0  0  0  0  0  0  0  0  0  0  0  0
   25.4120  -20.6875   -8.6995 C   0  0  0  0  0  0  0  0  0  0  0  0
   25.1849  -20.4467  -10.0410 C   0  0  0  0  0  0  0  0  0  0  0  0
   26.1658  -20.6177  -10.9934 C   0  0  0  0  0  0  0  0  0  0  0  0
   22.7135  -20.4627  -13.8455 C   0  0  0  0  0  0  0  0  0  0  0  0
   22.6401  -19.5233  -14.6940 O   0  0  0  0  0  0  0  0  0  0  0  0
   21.5393  -20.9629  -13.2306 N   0  0  0  0  0  0  0  0  0  0  0  0
   20.2574  -20.4018  -13.6057 C   0  0  0  0  0  0  0  0  0  0  0  0
   19.2075  -21.1078  -12.8200 C   0  0  0  0  0  0  0  0  0  0  0  0
   18.7283  -20.6515  -11.7605 O   0  0  0  0  0  0  0  0  0  0  0  0
   18.7080  -22.3360  -13.2495 O   0  0  0  0  0  0  0  0  0  0  0  0
  2  1  1  1
  2  3  1  0
  3  4  1  0
  5  6  1  0
  5  4  1  0
  7  6  1  0
  8  9  2  0
  8  2  1  0
 10  8  1  0
 11 10  1  0
 11 12  1  6
 12 13  1  0
 13 21  1  0
 13 14  2  0
 14 15  1  0
 16 15  1  0
 16 17  2  0
 18 17  1  0
 19 18  2  0
 20 21  2  0
 20 19  1  0
 21 16  1  0
 22 24  1  0
 22 11  1  0
 23 22  2  0
 25 26  1  0
 25 24  1  0
 26 28  1  0
 27 26  2  0
M  END
$$$$
