KWG.pdb
     RDKit          3D

 28 29  0  0  1  0  0  0  0  0999 V2000
   27.3542  -21.2897  -15.2634 N   0  0  0  0  0  0  0  0  0  0  0  0
   27.3251  -19.8851  -15.4486 C   0  0  1  0  0  0  0  0  0  0  0  0
   27.5555  -19.4481  -16.8574 C   0  0  0  0  0  0  0  0  0  0  0  0
   28.7744  -20.0241  -17.4496 C   0  0  0  0  0  0  0  0  0  0  0  0
   28.6060  -21.4176  -17.9529 C   0  0  0  0  0  0  0  0  0  0  0  0
   29.9172  -21.8957  -18.5349 C   0  0  0  0  0  0  0  0  0  0  0  0
   29.8631  -23.3248  -18.8536 N   0  0  0  0  0  0  0  0  0  0  0  0
   26.0336  -19.2717  -15.0181 C   0  0  0  0  0  0  0  0  0  0  0  0
   25.9316  -18.0316  -15.0542 O   0  0  0  0  0  0  0  0  0  0  0  0
   24.9866  -20.1053  -14.5903 N   0  0  0  0  0  0  0  0  0  0  0  0
   23.6971  -19.6192  -14.1553 C   0  0  1  0  0  0  0  0  0  0  0  0
   22.6083  -19.9911  -15.0798 C   0  0  0  0  0  0  0  0  0  0  0  0
   22.6119  -19.3506  -16.3979 C   0  0  0  0  0  0  0  0  0  0  0  0
   23.2457  -19.6295  -17.5742 C   0  0  0  0  0  0  0  0  0  0  0  0
   22.9211  -18.7444  -18.5466 N   0  0  0  0  0  0  0  0  0  0  0  0
   22.0592  -17.8744  -17.9860 C   0  0  0  0  0  0  0  0  0  0  0  0
   21.4239  -16.7705  -18.5466 C   0  0  0  0  0  0  0  0  0  0  0  0
   20.5770  -16.0194  -17.7656 C   0  0  0  0  0  0  0  0  0  0  0  0
   20.3384  -16.3282  -16.4417 C   0  0  0  0  0  0  0  0  0  0  0  0
   20.9831  -17.4300  -15.9128 C   0  0  0  0  0  0  0  0  0  0  0  0
   21.8389  -18.2085  -16.6611 C   0  0  0  0  0  0  0  0  0  0  0  0
   23.4361  -19.9685  -12.7319 C   0  0  0  0  0  0  0  0  0  0  0  0
   22.2798  -19.7462  -12.2616 O   0  0  0  0  0  0  0  0  0  0  0  0
   24.4436  -20.5347  -11.9125 N   0  0  0  0  0  0  0  0  0  0  0  0
   24.1551  -20.7795  -10.5141 C   0  0  0  0  0  0  0  0  0  0  0  0
   25.4296  -21.1734   -9.8517 C   0  0  0  0  0  0  0  0  0  0  0  0
   26.5205  -21.2342  -10.4571 O   0  0  0  0  0  0  0  0  0  0  0  0
   25.4522  -21.4972   -8.4963 O   0  0  0  0  0  0  0  0  0  0  0  0
  2  1  1  6
  2  3  1  0
  3  4  1  0
  5  6  1  0
  5  4  1  0
  7  6  1  0
  8  9  2  0
  8  2  1  0
 10  8  1  0
 11 10  1  0
 11 12  1  6
 12 13  1  0
 13 21  1  0
 13 14  2  0
 14 15  1  0
 16 15  1  0
 16 17  2  0
 18 17  1  0
 19 18  2  0
 20 21  2  0
 20 19  1  0
 21 16  1  0
 22 24  1  0
 22 11  1  0
 23 22  2  0
 25 26  1  0
 25 24  1  0
 26 28  1  0
 27 26  2  0
M  END
$$$$
