KWG.pdb
     RDKit          3D

 28 29  0  0  1  0  0  0  0  0999 V2000
   27.6109  -21.5458  -15.0642 N   0  0  0  0  0  0  0  0  0  0  0  0
   26.6373  -20.6484  -14.5595 C   0  0  1  0  0  0  0  0  0  0  0  0
   25.6489  -20.1815  -15.5765 C   0  0  0  0  0  0  0  0  0  0  0  0
   26.2762  -19.7471  -16.8358 C   0  0  0  0  0  0  0  0  0  0  0  0
   26.8945  -18.3918  -16.7715 C   0  0  0  0  0  0  0  0  0  0  0  0
   27.4432  -18.0326  -18.1340 C   0  0  0  0  0  0  0  0  0  0  0  0
   26.5655  -17.0828  -18.8226 N   0  0  0  0  0  0  0  0  0  0  0  0
   25.8475  -21.2262  -13.4319 C   0  0  0  0  0  0  0  0  0  0  0  0
   25.3693  -22.3667  -13.5735 O   0  0  0  0  0  0  0  0  0  0  0  0
   25.6711  -20.4717  -12.2599 N   0  0  0  0  0  0  0  0  0  0  0  0
   24.9401  -20.9388  -11.1041 C   0  0  1  0  0  0  0  0  0  0  0  0
   25.5086  -20.4450   -9.8347 C   0  0  0  0  0  0  0  0  0  0  0  0
   26.9009  -20.8029   -9.5497 C   0  0  0  0  0  0  0  0  0  0  0  0
   27.8592  -21.4740  -10.2528 C   0  0  0  0  0  0  0  0  0  0  0  0
   29.0282  -21.5471   -9.5728 N   0  0  0  0  0  0  0  0  0  0  0  0
   28.8202  -20.9099   -8.4045 C   0  0  0  0  0  0  0  0  0  0  0  0
   29.6939  -20.6990   -7.3422 C   0  0  0  0  0  0  0  0  0  0  0  0
   29.2479  -20.0134   -6.2366 C   0  0  0  0  0  0  0  0  0  0  0  0
   27.9588  -19.5279   -6.1496 C   0  0  0  0  0  0  0  0  0  0  0  0
   27.1142  -19.7524   -7.2199 C   0  0  0  0  0  0  0  0  0  0  0  0
   27.5218  -20.4344   -8.3456 C   0  0  0  0  0  0  0  0  0  0  0  0
   23.4781  -20.7007  -11.2524 C   0  0  0  0  0  0  0  0  0  0  0  0
   23.0874  -19.5317  -11.5500 O   0  0  0  0  0  0  0  0  0  0  0  0
   22.5365  -21.7431  -11.0687 N   0  0  0  0  0  0  0  0  0  0  0  0
   21.1268  -21.4138  -11.0150 C   0  0  0  0  0  0  0  0  0  0  0  0
   20.5346  -21.7434  -12.3412 C   0  0  0  0  0  0  0  0  0  0  0  0
   21.2043  -22.2040  -13.2898 O   0  0  0  0  0  0  0  0  0  0  0  0
   19.1757  -21.5449  -12.5787 O   0  0  0  0  0  0  0  0  0  0  0  0
  2  1  1  6
  2  3  1  0
  3  4  1  0
  5  6  1  0
  5  4  1  0
  7  6  1  0
  8  9  2  0
  8  2  1  0
 10  8  1  0
 11 10  1  0
 11 12  1  1
 12 13  1  0
 13 21  1  0
 13 14  2  0
 14 15  1  0
 16 15  1  0
 16 17  2  0
 18 17  1  0
 19 18  2  0
 20 21  2  0
 20 19  1  0
 21 16  1  0
 22 24  1  0
 22 11  1  0
 23 22  2  0
 25 26  1  0
 25 24  1  0
 26 28  1  0
 27 26  2  0
M  END
$$$$
