KWG.pdb
     RDKit          3D

 28 29  0  0  1  0  0  0  0  0999 V2000
   25.6122  -19.2814  -15.1157 N   0  0  0  0  0  0  0  0  0  0  0  0
   26.3456  -20.4627  -14.8424 C   0  0  1  0  0  0  0  0  0  0  0  0
   27.8193  -20.3284  -15.0403 C   0  0  0  0  0  0  0  0  0  0  0  0
   28.1976  -19.0944  -15.7490 C   0  0  0  0  0  0  0  0  0  0  0  0
   29.6668  -18.9315  -15.9448 C   0  0  0  0  0  0  0  0  0  0  0  0
   29.9337  -17.5964  -16.6026 C   0  0  0  0  0  0  0  0  0  0  0  0
   29.6257  -17.6426  -18.0343 N   0  0  0  0  0  0  0  0  0  0  0  0
   26.1465  -20.9572  -13.4477 C   0  0  0  0  0  0  0  0  0  0  0  0
   26.6423  -22.0562  -13.1378 O   0  0  0  0  0  0  0  0  0  0  0  0
   25.4133  -20.1747  -12.5399 N   0  0  0  0  0  0  0  0  0  0  0  0
   24.8681  -20.6784  -11.3000 C   0  0  1  0  0  0  0  0  0  0  0  0
   25.5132  -20.0843  -10.1129 C   0  0  0  0  0  0  0  0  0  0  0  0
   26.8582  -20.5630   -9.7817 C   0  0  0  0  0  0  0  0  0  0  0  0
   27.7834  -21.3029  -10.4595 C   0  0  0  0  0  0  0  0  0  0  0  0
   28.9145  -21.4846   -9.7370 N   0  0  0  0  0  0  0  0  0  0  0  0
   28.7153  -20.8486   -8.5666 C   0  0  0  0  0  0  0  0  0  0  0  0
   29.5613  -20.7276   -7.4684 C   0  0  0  0  0  0  0  0  0  0  0  0
   29.1315  -20.0223   -6.3688 C   0  0  0  0  0  0  0  0  0  0  0  0
   27.8855  -19.4305   -6.3222 C   0  0  0  0  0  0  0  0  0  0  0  0
   27.0677  -19.5674   -7.4275 C   0  0  0  0  0  0  0  0  0  0  0  0
   27.4602  -20.2656   -8.5486 C   0  0  0  0  0  0  0  0  0  0  0  0
   23.3813  -20.6034  -11.2893 C   0  0  0  0  0  0  0  0  0  0  0  0
   22.8286  -19.5756  -11.7850 O   0  0  0  0  0  0  0  0  0  0  0  0
   22.5920  -21.6453  -10.7429 N   0  0  0  0  0  0  0  0  0  0  0  0
   21.1561  -21.4703  -10.6646 C   0  0  0  0  0  0  0  0  0  0  0  0
   20.5814  -21.8532  -11.9841 C   0  0  0  0  0  0  0  0  0  0  0  0
   21.2796  -22.2483  -12.9416 O   0  0  0  0  0  0  0  0  0  0  0  0
   19.2071  -21.7826  -12.2049 O   0  0  0  0  0  0  0  0  0  0  0  0
  2  1  1  1
  2  3  1  0
  3  4  1  0
  5  6  1  0
  5  4  1  0
  7  6  1  0
  8  9  2  0
  8  2  1  0
 10  8  1  0
 11 10  1  0
 11 12  1  1
 12 13  1  0
 13 21  1  0
 13 14  2  0
 14 15  1  0
 16 15  1  0
 16 17  2  0
 18 17  1  0
 19 18  2  0
 20 21  2  0
 20 19  1  0
 21 16  1  0
 22 24  1  0
 22 11  1  0
 23 22  2  0
 25 26  1  0
 25 24  1  0
 26 28  1  0
 27 26  2  0
M  END
$$$$
