KWG.pdb
     RDKit          3D

 28 29  0  0  1  0  0  0  0  0999 V2000
   28.9480  -22.7525  -17.1020 N   0  0  0  0  0  0  0  0  0  0  0  0
   28.0580  -21.6938  -16.7938 C   0  0  1  0  0  0  0  0  0  0  0  0
   27.0459  -21.4156  -17.8555 C   0  0  0  0  0  0  0  0  0  0  0  0
   27.5126  -20.4446  -18.8592 C   0  0  0  0  0  0  0  0  0  0  0  0
   28.7099  -20.8918  -19.6273 C   0  0  0  0  0  0  0  0  0  0  0  0
   29.4772  -19.6773  -20.0994 C   0  0  0  0  0  0  0  0  0  0  0  0
   28.5801  -18.6876  -20.7014 N   0  0  0  0  0  0  0  0  0  0  0  0
   27.2970  -21.9273  -15.5306 C   0  0  0  0  0  0  0  0  0  0  0  0
   26.5771  -22.9402  -15.4572 O   0  0  0  0  0  0  0  0  0  0  0  0
   27.4164  -21.0056  -14.4768 N   0  0  0  0  0  0  0  0  0  0  0  0
   26.7401  -21.1424  -13.2071 C   0  0  1  0  0  0  0  0  0  0  0  0
   27.4619  -20.4779  -12.1045 C   0  0  0  0  0  0  0  0  0  0  0  0
   26.7881  -20.4351  -10.8037 C   0  0  0  0  0  0  0  0  0  0  0  0
   25.4857  -20.2770  -10.4271 C   0  0  0  0  0  0  0  0  0  0  0  0
   25.3386  -20.3218   -9.0815 N   0  0  0  0  0  0  0  0  0  0  0  0
   26.5731  -20.5122   -8.5778 C   0  0  0  0  0  0  0  0  0  0  0  0
   26.9815  -20.6284   -7.2526 C   0  0  0  0  0  0  0  0  0  0  0  0
   28.3157  -20.8186   -6.9791 C   0  0  0  0  0  0  0  0  0  0  0  0
   29.2623  -20.8977   -7.9805 C   0  0  0  0  0  0  0  0  0  0  0  0
   28.8270  -20.7791   -9.2866 C   0  0  0  0  0  0  0  0  0  0  0  0
   27.4997  -20.5879   -9.6031 C   0  0  0  0  0  0  0  0  0  0  0  0
   25.3039  -20.7649  -13.3124 C   0  0  0  0  0  0  0  0  0  0  0  0
   25.0178  -19.6030  -13.7315 O   0  0  0  0  0  0  0  0  0  0  0  0
   24.2733  -21.6697  -12.9569 N   0  0  0  0  0  0  0  0  0  0  0  0
   22.9052  -21.3476  -13.3077 C   0  0  0  0  0  0  0  0  0  0  0  0
   22.1862  -20.9991  -12.0508 C   0  0  0  0  0  0  0  0  0  0  0  0
   22.7752  -20.7065  -10.9888 O   0  0  0  0  0  0  0  0  0  0  0  0
   20.7931  -20.9866  -12.0125 O   0  0  0  0  0  0  0  0  0  0  0  0
  2  1  1  6
  2  3  1  0
  3  4  1  0
  5  6  1  0
  5  4  1  0
  7  6  1  0
  8  9  2  0
  8  2  1  0
 10  8  1  0
 11 10  1  0
 11 12  1  1
 12 13  1  0
 13 21  1  0
 13 14  2  0
 14 15  1  0
 16 15  1  0
 16 17  2  0
 18 17  1  0
 19 18  2  0
 20 21  2  0
 20 19  1  0
 21 16  1  0
 22 24  1  0
 22 11  1  0
 23 22  2  0
 25 26  1  0
 25 24  1  0
 26 28  1  0
 27 26  2  0
M  END
$$$$
