KWG.pdb
     RDKit          3D

 28 29  0  0  1  0  0  0  0  0999 V2000
   27.3046  -18.8589  -13.9088 N   0  0  0  0  0  0  0  0  0  0  0  0
   26.9721  -20.2137  -14.1577 C   0  0  1  0  0  0  0  0  0  0  0  0
   28.1171  -21.0495  -14.6262 C   0  0  0  0  0  0  0  0  0  0  0  0
   28.6726  -20.5999  -15.9136 C   0  0  0  0  0  0  0  0  0  0  0  0
   27.7601  -19.7157  -16.6941 C   0  0  0  0  0  0  0  0  0  0  0  0
   28.4482  -19.3016  -17.9753 C   0  0  0  0  0  0  0  0  0  0  0  0
   27.6277  -18.3523  -18.7319 N   0  0  0  0  0  0  0  0  0  0  0  0
   26.4063  -20.9001  -12.9585 C   0  0  0  0  0  0  0  0  0  0  0  0
   26.2853  -22.1385  -12.9930 O   0  0  0  0  0  0  0  0  0  0  0  0
   26.0324  -20.1339  -11.8417 N   0  0  0  0  0  0  0  0  0  0  0  0
   25.3379  -20.6702  -10.6935 C   0  0  1  0  0  0  0  0  0  0  0  0
   25.8807  -20.1687   -9.4159 C   0  0  0  0  0  0  0  0  0  0  0  0
   27.2581  -20.5475   -9.0882 C   0  0  0  0  0  0  0  0  0  0  0  0
   28.2134  -21.2688   -9.7439 C   0  0  0  0  0  0  0  0  0  0  0  0
   29.3667  -21.3418   -9.0376 N   0  0  0  0  0  0  0  0  0  0  0  0
   29.1513  -20.6531   -7.9003 C   0  0  0  0  0  0  0  0  0  0  0  0
   30.0088  -20.4201   -6.8294 C   0  0  0  0  0  0  0  0  0  0  0  0
   29.5579  -19.6799   -5.7616 C   0  0  0  0  0  0  0  0  0  0  0  0
   28.2796  -19.1611   -5.7206 C   0  0  0  0  0  0  0  0  0  0  0  0
   27.4510  -19.4088   -6.7983 C   0  0  0  0  0  0  0  0  0  0  0  0
   27.8639  -20.1452   -7.8872 C   0  0  0  0  0  0  0  0  0  0  0  0
   23.8631  -20.5210  -10.8313 C   0  0  0  0  0  0  0  0  0  0  0  0
   23.4004  -19.3781  -11.1269 O   0  0  0  0  0  0  0  0  0  0  0  0
   22.9875  -21.6181  -10.6398 N   0  0  0  0  0  0  0  0  0  0  0  0
   21.5582  -21.3823  -10.6339 C   0  0  0  0  0  0  0  0  0  0  0  0
   21.0521  -21.6377  -12.0110 C   0  0  0  0  0  0  0  0  0  0  0  0
   21.7936  -21.9819  -12.9555 O   0  0  0  0  0  0  0  0  0  0  0  0
   19.6967  -21.4981  -12.3042 O   0  0  0  0  0  0  0  0  0  0  0  0
  2  1  1  1
  2  3  1  0
  3  4  1  0
  5  6  1  0
  5  4  1  0
  7  6  1  0
  8  9  2  0
  8  2  1  0
 10  8  1  0
 11 10  1  0
 11 12  1  1
 12 13  1  0
 13 21  1  0
 13 14  2  0
 14 15  1  0
 16 15  1  0
 16 17  2  0
 18 17  1  0
 19 18  2  0
 20 21  2  0
 20 19  1  0
 21 16  1  0
 22 24  1  0
 22 11  1  0
 23 22  2  0
 25 26  1  0
 25 24  1  0
 26 28  1  0
 27 26  2  0
M  END
$$$$
