KWG.pdb
     RDKit          3D

 28 29  0  0  1  0  0  0  0  0999 V2000
   21.6705  -20.6004  -11.4148 N   0  0  0  0  0  0  0  0  0  0  0  0
   22.5709  -20.9622  -12.4475 C   0  0  1  0  0  0  0  0  0  0  0  0
   22.1861  -20.4597  -13.7997 C   0  0  0  0  0  0  0  0  0  0  0  0
   21.6305  -21.5092  -14.6702 C   0  0  0  0  0  0  0  0  0  0  0  0
   21.8373  -22.8950  -14.1601 C   0  0  0  0  0  0  0  0  0  0  0  0
   21.2419  -23.8783  -15.1426 C   0  0  0  0  0  0  0  0  0  0  0  0
   21.4619  -25.2594  -14.7057 N   0  0  0  0  0  0  0  0  0  0  0  0
   23.9625  -20.4836  -12.1953 C   0  0  0  0  0  0  0  0  0  0  0  0
   24.1617  -19.2558  -12.1470 O   0  0  0  0  0  0  0  0  0  0  0  0
   24.9915  -21.4248  -12.0230 N   0  0  0  0  0  0  0  0  0  0  0  0
   26.3755  -21.0729  -11.8018 C   0  0  1  0  0  0  0  0  0  0  0  0
   26.9135  -21.6420  -10.5508 C   0  0  0  0  0  0  0  0  0  0  0  0
   26.5760  -20.9435   -9.3074 C   0  0  0  0  0  0  0  0  0  0  0  0
   25.4132  -20.4389   -8.8014 C   0  0  0  0  0  0  0  0  0  0  0  0
   25.5921  -19.8813   -7.5802 N   0  0  0  0  0  0  0  0  0  0  0  0
   26.8994  -20.0283   -7.2913 C   0  0  0  0  0  0  0  0  0  0  0  0
   27.6079  -19.6297   -6.1619 C   0  0  0  0  0  0  0  0  0  0  0  0
   28.9565  -19.8903   -6.0930 C   0  0  0  0  0  0  0  0  0  0  0  0
   29.6283  -20.5359   -7.1112 C   0  0  0  0  0  0  0  0  0  0  0  0
   28.8985  -20.9200   -8.2199 C   0  0  0  0  0  0  0  0  0  0  0  0
   27.5465  -20.6779   -8.3281 C   0  0  0  0  0  0  0  0  0  0  0  0
   27.2062  -21.3498  -13.0058 C   0  0  0  0  0  0  0  0  0  0  0  0
   28.4614  -21.1936  -12.9180 O   0  0  0  0  0  0  0  0  0  0  0  0
   26.6233  -21.7769  -14.2244 N   0  0  0  0  0  0  0  0  0  0  0  0
   27.4849  -22.0487  -15.3569 C   0  0  0  0  0  0  0  0  0  0  0  0
   26.7290  -21.7044  -16.5930 C   0  0  0  0  0  0  0  0  0  0  0  0
   25.5508  -21.2896  -16.5768 O   0  0  0  0  0  0  0  0  0  0  0  0
   27.3241  -21.8361  -17.8464 O   0  0  0  0  0  0  0  0  0  0  0  0
  2  1  1  1
  2  3  1  0
  3  4  1  0
  5  6  1  0
  5  4  1  0
  7  6  1  0
  8  9  2  0
  8  2  1  0
 10  8  1  0
 11 10  1  0
 11 12  1  1
 12 13  1  0
 13 21  1  0
 13 14  2  0
 14 15  1  0
 16 15  1  0
 16 17  2  0
 18 17  1  0
 19 18  2  0
 20 21  2  0
 20 19  1  0
 21 16  1  0
 22 24  1  0
 22 11  1  0
 23 22  2  0
 25 26  1  0
 25 24  1  0
 26 28  1  0
 27 26  2  0
M  END
$$$$
