KWG.pdb
     RDKit          3D

 28 29  0  0  1  0  0  0  0  0999 V2000
   23.8019  -22.8910  -12.0936 N   0  0  0  0  0  0  0  0  0  0  0  0
   23.4488  -21.5202  -12.0296 C   0  0  1  0  0  0  0  0  0  0  0  0
   22.1835  -21.2476  -11.2855 C   0  0  0  0  0  0  0  0  0  0  0  0
   21.0219  -21.9642  -11.8378 C   0  0  0  0  0  0  0  0  0  0  0  0
   21.3078  -22.7040  -13.1005 C   0  0  0  0  0  0  0  0  0  0  0  0
   20.0211  -23.2966  -13.6294 C   0  0  0  0  0  0  0  0  0  0  0  0
   20.2471  -24.0088  -14.8898 N   0  0  0  0  0  0  0  0  0  0  0  0
   24.5065  -20.6797  -11.3938 C   0  0  0  0  0  0  0  0  0  0  0  0
   24.2407  -19.4890  -11.1463 O   0  0  0  0  0  0  0  0  0  0  0  0
   25.7545  -21.2538  -11.0989 N   0  0  0  0  0  0  0  0  0  0  0  0
   26.8877  -20.5062  -10.6036 C   0  0  1  0  0  0  0  0  0  0  0  0
   27.4932  -21.1195   -9.4055 C   0  0  0  0  0  0  0  0  0  0  0  0
   26.9336  -20.7298   -8.1082 C   0  0  0  0  0  0  0  0  0  0  0  0
   25.6643  -20.6920   -7.6078 C   0  0  0  0  0  0  0  0  0  0  0  0
   25.6392  -20.2668   -6.3222 N   0  0  0  0  0  0  0  0  0  0  0  0
   26.9204  -20.0239   -5.9849 C   0  0  0  0  0  0  0  0  0  0  0  0
   27.4488  -19.5670   -4.7814 C   0  0  0  0  0  0  0  0  0  0  0  0
   28.8082  -19.3896   -4.6734 C   0  0  0  0  0  0  0  0  0  0  0  0
   29.6645  -19.6515   -5.7238 C   0  0  0  0  0  0  0  0  0  0  0  0
   29.1110  -20.1041   -6.9061 C   0  0  0  0  0  0  0  0  0  0  0  0
   27.7546  -20.2951   -7.0555 C   0  0  0  0  0  0  0  0  0  0  0  0
   27.8576  -20.2041  -11.6918 C   0  0  0  0  0  0  0  0  0  0  0  0
   28.9499  -19.6392  -11.3826 O   0  0  0  0  0  0  0  0  0  0  0  0
   27.5809  -20.5330  -13.0417 N   0  0  0  0  0  0  0  0  0  0  0  0
   28.5860  -20.2635  -14.0496 C   0  0  0  0  0  0  0  0  0  0  0  0
   28.0378  -20.7014  -15.3633 C   0  0  0  0  0  0  0  0  0  0  0  0
   26.8785  -21.1453  -15.5029 O   0  0  0  0  0  0  0  0  0  0  0  0
   28.8188  -20.6303  -16.5154 O   0  0  0  0  0  0  0  0  0  0  0  0
  2  1  1  1
  2  3  1  0
  3  4  1  0
  5  6  1  0
  5  4  1  0
  7  6  1  0
  8  9  2  0
  8  2  1  0
 10  8  1  0
 11 10  1  0
 11 12  1  1
 12 13  1  0
 13 21  1  0
 13 14  2  0
 14 15  1  0
 16 15  1  0
 16 17  2  0
 18 17  1  0
 19 18  2  0
 20 21  2  0
 20 19  1  0
 21 16  1  0
 22 24  1  0
 22 11  1  0
 23 22  2  0
 25 26  1  0
 25 24  1  0
 26 28  1  0
 27 26  2  0
M  END
$$$$
