KWG.pdb
     RDKit          3D

 28 29  0  0  1  0  0  0  0  0999 V2000
   27.9998  -18.5858  -13.6978 N   0  0  0  0  0  0  0  0  0  0  0  0
   27.6220  -19.5304  -14.6842 C   0  0  1  0  0  0  0  0  0  0  0  0
   28.7709  -20.1866  -15.3758 C   0  0  0  0  0  0  0  0  0  0  0  0
   29.1692  -19.4986  -16.6153 C   0  0  0  0  0  0  0  0  0  0  0  0
   29.7751  -18.1537  -16.3965 C   0  0  0  0  0  0  0  0  0  0  0  0
   30.1185  -17.5416  -17.7359 C   0  0  0  0  0  0  0  0  0  0  0  0
   29.1032  -16.5686  -18.1472 N   0  0  0  0  0  0  0  0  0  0  0  0
   26.7706  -20.6283  -14.1374 C   0  0  0  0  0  0  0  0  0  0  0  0
   26.4788  -21.5757  -14.8902 O   0  0  0  0  0  0  0  0  0  0  0  0
   26.3304  -20.5570  -12.8050 N   0  0  0  0  0  0  0  0  0  0  0  0
   25.3757  -21.4721  -12.2225 C   0  0  1  0  0  0  0  0  0  0  0  0
   25.8360  -22.0308  -10.9363 C   0  0  0  0  0  0  0  0  0  0  0  0
   26.2604  -21.0719   -9.9125 C   0  0  0  0  0  0  0  0  0  0  0  0
   25.5989  -20.1320   -9.1764 C   0  0  0  0  0  0  0  0  0  0  0  0
   26.4265  -19.4811   -8.3245 N   0  0  0  0  0  0  0  0  0  0  0  0
   27.6497  -20.0118   -8.5150 C   0  0  0  0  0  0  0  0  0  0  0  0
   28.8567  -19.7013   -7.8961 C   0  0  0  0  0  0  0  0  0  0  0  0
   29.9913  -20.3862   -8.2637 C   0  0  0  0  0  0  0  0  0  0  0  0
   29.9682  -21.3728   -9.2285 C   0  0  0  0  0  0  0  0  0  0  0  0
   28.7553  -21.6594   -9.8253 C   0  0  0  0  0  0  0  0  0  0  0  0
   27.5959  -20.9968   -9.4858 C   0  0  0  0  0  0  0  0  0  0  0  0
   24.0111  -20.8788  -12.1776 C   0  0  0  0  0  0  0  0  0  0  0  0
   23.9057  -19.6292  -11.9900 O   0  0  0  0  0  0  0  0  0  0  0  0
   22.8517  -21.6770  -12.3385 N   0  0  0  0  0  0  0  0  0  0  0  0
   21.5496  -21.0471  -12.2581 C   0  0  0  0  0  0  0  0  0  0  0  0
   20.7877  -21.4263  -13.4803 C   0  0  0  0  0  0  0  0  0  0  0  0
   21.3209  -21.9588  -14.4766 O   0  0  0  0  0  0  0  0  0  0  0  0
   19.4157  -21.1947  -13.5593 O   0  0  0  0  0  0  0  0  0  0  0  0
  2  1  1  1
  2  3  1  0
  3  4  1  0
  5  6  1  0
  5  4  1  0
  7  6  1  0
  8  9  2  0
  8  2  1  0
 10  8  1  0
 11 10  1  0
 11 12  1  1
 12 13  1  0
 13 21  1  0
 13 14  2  0
 14 15  1  0
 16 15  1  0
 16 17  2  0
 18 17  1  0
 19 18  2  0
 20 21  2  0
 20 19  1  0
 21 16  1  0
 22 24  1  0
 22 11  1  0
 23 22  2  0
 25 26  1  0
 25 24  1  0
 26 28  1  0
 27 26  2  0
M  END
$$$$
