KWG.pdb
     RDKit          3D

 28 29  0  0  1  0  0  0  0  0999 V2000
   27.4577  -21.4449  -17.3685 N   0  0  0  0  0  0  0  0  0  0  0  0
   26.0413  -21.4058  -17.3806 C   0  0  1  0  0  0  0  0  0  0  0  0
   25.4127  -22.2893  -18.4069 C   0  0  0  0  0  0  0  0  0  0  0  0
   25.5050  -21.7462  -19.7724 C   0  0  0  0  0  0  0  0  0  0  0  0
   26.7783  -22.0779  -20.4740 C   0  0  0  0  0  0  0  0  0  0  0  0
   26.7807  -21.4174  -21.8342 C   0  0  0  0  0  0  0  0  0  0  0  0
   28.0049  -21.7361  -22.5734 N   0  0  0  0  0  0  0  0  0  0  0  0
   25.4410  -21.7848  -16.0670 C   0  0  0  0  0  0  0  0  0  0  0  0
   25.4213  -22.9900  -15.7561 O   0  0  0  0  0  0  0  0  0  0  0  0
   24.9229  -20.7795  -15.2334 N   0  0  0  0  0  0  0  0  0  0  0  0
   24.2488  -21.0396  -13.9818 C   0  0  1  0  0  0  0  0  0  0  0  0
   24.7302  -20.1749  -12.8869 C   0  0  0  0  0  0  0  0  0  0  0  0
   24.3407  -20.5528  -11.5255 C   0  0  0  0  0  0  0  0  0  0  0  0
   24.9442  -21.2897  -10.5479 C   0  0  0  0  0  0  0  0  0  0  0  0
   24.1909  -21.3540   -9.4242 N   0  0  0  0  0  0  0  0  0  0  0  0
   23.0760  -20.6436   -9.6818 C   0  0  0  0  0  0  0  0  0  0  0  0
   21.9760  -20.3940   -8.8668 C   0  0  0  0  0  0  0  0  0  0  0  0
   20.9410  -19.6325   -9.3567 C   0  0  0  0  0  0  0  0  0  0  0  0
   20.9608  -19.1082  -10.6333 C   0  0  0  0  0  0  0  0  0  0  0  0
   22.0662  -19.3727  -11.4192 C   0  0  0  0  0  0  0  0  0  0  0  0
   23.1239  -20.1307  -10.9664 C   0  0  0  0  0  0  0  0  0  0  0  0
   22.7698  -21.0444  -14.1514 C   0  0  0  0  0  0  0  0  0  0  0  0
   22.2256  -20.0410  -14.7035 O   0  0  0  0  0  0  0  0  0  0  0  0
   21.9785  -22.1343  -13.7121 N   0  0  0  0  0  0  0  0  0  0  0  0
   20.5451  -22.0879  -13.9167 C   0  0  0  0  0  0  0  0  0  0  0  0
   19.8927  -22.2863  -12.5926 C   0  0  0  0  0  0  0  0  0  0  0  0
   20.5166  -22.6548  -11.5751 O   0  0  0  0  0  0  0  0  0  0  0  0
   18.5261  -22.0621  -12.4362 O   0  0  0  0  0  0  0  0  0  0  0  0
  2  1  1  1
  2  3  1  0
  3  4  1  0
  5  6  1  0
  5  4  1  0
  7  6  1  0
  8  9  2  0
  8  2  1  0
 10  8  1  0
 11 10  1  0
 11 12  1  1
 12 13  1  0
 13 21  1  0
 13 14  2  0
 14 15  1  0
 16 15  1  0
 16 17  2  0
 18 17  1  0
 19 18  2  0
 20 21  2  0
 20 19  1  0
 21 16  1  0
 22 24  1  0
 22 11  1  0
 23 22  2  0
 25 26  1  0
 25 24  1  0
 26 28  1  0
 27 26  2  0
M  END
$$$$
