KWG.pdb
     RDKit          3D

 28 29  0  0  1  0  0  0  0  0999 V2000
   26.7699  -23.1319  -17.3338 N   0  0  0  0  0  0  0  0  0  0  0  0
   25.5803  -22.4328  -17.0113 C   0  0  1  0  0  0  0  0  0  0  0  0
   24.3341  -23.0749  -17.5247 C   0  0  0  0  0  0  0  0  0  0  0  0
   23.8245  -22.4467  -18.7551 C   0  0  0  0  0  0  0  0  0  0  0  0
   23.3607  -21.0412  -18.5731 C   0  0  0  0  0  0  0  0  0  0  0  0
   22.7876  -20.5361  -19.8782 C   0  0  0  0  0  0  0  0  0  0  0  0
   22.3908  -19.1298  -19.7709 N   0  0  0  0  0  0  0  0  0  0  0  0
   25.3939  -22.2566  -15.5404 C   0  0  0  0  0  0  0  0  0  0  0  0
   25.5129  -23.2569  -14.8092 O   0  0  0  0  0  0  0  0  0  0  0  0
   25.0927  -20.9808  -15.0346 N   0  0  0  0  0  0  0  0  0  0  0  0
   24.9219  -20.6918  -13.6290 C   0  0  1  0  0  0  0  0  0  0  0  0
   25.8380  -19.6385  -13.1501 C   0  0  0  0  0  0  0  0  0  0  0  0
   27.0869  -20.0821  -12.5244 C   0  0  0  0  0  0  0  0  0  0  0  0
   28.3533  -20.2772  -12.9945 C   0  0  0  0  0  0  0  0  0  0  0  0
   29.1982  -20.6874  -12.0186 N   0  0  0  0  0  0  0  0  0  0  0  0
   28.4610  -20.7596  -10.8937 C   0  0  0  0  0  0  0  0  0  0  0  0
   28.8408  -21.1310   -9.6075 C   0  0  0  0  0  0  0  0  0  0  0  0
   27.8978  -21.1308   -8.6064 C   0  0  0  0  0  0  0  0  0  0  0  0
   26.5854  -20.7730   -8.8397 C   0  0  0  0  0  0  0  0  0  0  0  0
   26.2379  -20.4088  -10.1266 C   0  0  0  0  0  0  0  0  0  0  0  0
   27.1520  -20.3956  -11.1574 C   0  0  0  0  0  0  0  0  0  0  0  0
   23.4910  -20.4566  -13.2921 C   0  0  0  0  0  0  0  0  0  0  0  0
   22.8158  -19.6897  -14.0429 O   0  0  0  0  0  0  0  0  0  0  0  0
   22.8863  -21.0666  -12.1655 N   0  0  0  0  0  0  0  0  0  0  0  0
   21.5517  -20.6576  -11.7781 C   0  0  0  0  0  0  0  0  0  0  0  0
   20.5866  -21.5798  -12.4385 C   0  0  0  0  0  0  0  0  0  0  0  0
   19.3563  -21.5440  -12.2251 O   0  0  0  0  0  0  0  0  0  0  0  0
   21.0326  -22.5422  -13.3425 O   0  0  0  0  0  0  0  0  0  0  0  0
  2  1  1  1
  2  3  1  0
  3  4  1  0
  5  6  1  0
  5  4  1  0
  7  6  1  0
  8  9  2  0
  8  2  1  0
 10  8  1  0
 11 10  1  0
 11 12  1  6
 12 13  1  0
 13 21  1  0
 13 14  2  0
 14 15  1  0
 16 15  1  0
 16 17  2  0
 18 17  1  0
 19 18  2  0
 20 21  2  0
 20 19  1  0
 21 16  1  0
 22 24  1  0
 22 11  1  0
 23 22  2  0
 25 26  1  0
 25 24  1  0
 26 28  1  0
 27 26  2  0
M  END
$$$$
