KWG.pdb
     RDKit          3D

 28 29  0  0  1  0  0  0  0  0999 V2000
   26.2657  -24.1125  -14.6742 N   0  0  0  0  0  0  0  0  0  0  0  0
   25.2038  -23.4901  -15.3762 C   0  0  1  0  0  0  0  0  0  0  0  0
   24.7596  -24.2284  -16.5954 C   0  0  0  0  0  0  0  0  0  0  0  0
   25.8709  -24.5824  -17.4942 C   0  0  0  0  0  0  0  0  0  0  0  0
   26.5153  -25.8896  -17.1788 C   0  0  0  0  0  0  0  0  0  0  0  0
   27.5527  -26.1978  -18.2349 C   0  0  0  0  0  0  0  0  0  0  0  0
   28.3484  -27.3715  -17.8662 N   0  0  0  0  0  0  0  0  0  0  0  0
   23.9888  -23.2934  -14.5310 C   0  0  0  0  0  0  0  0  0  0  0  0
   23.4790  -24.2937  -13.9934 O   0  0  0  0  0  0  0  0  0  0  0  0
   23.4653  -21.9992  -14.3720 N   0  0  0  0  0  0  0  0  0  0  0  0
   22.3110  -21.6920  -13.5587 C   0  0  1  0  0  0  0  0  0  0  0  0
   22.3948  -20.3572  -12.9345 C   0  0  0  0  0  0  0  0  0  0  0  0
   21.2847  -19.9640  -12.0621 C   0  0  0  0  0  0  0  0  0  0  0  0
   20.8122  -20.4402  -10.8735 C   0  0  0  0  0  0  0  0  0  0  0  0
   19.7488  -19.7286  -10.4295 N   0  0  0  0  0  0  0  0  0  0  0  0
   19.5292  -18.7721  -11.3520 C   0  0  0  0  0  0  0  0  0  0  0  0
   18.5571  -17.7768  -11.3827 C   0  0  0  0  0  0  0  0  0  0  0  0
   18.5282  -16.9041  -12.4451 C   0  0  0  0  0  0  0  0  0  0  0  0
   19.4352  -16.9860  -13.4823 C   0  0  0  0  0  0  0  0  0  0  0  0
   20.3888  -17.9842  -13.4242 C   0  0  0  0  0  0  0  0  0  0  0  0
   20.4522  -18.8784  -12.3779 C   0  0  0  0  0  0  0  0  0  0  0  0
   21.0430  -21.9427  -14.2973 C   0  0  0  0  0  0  0  0  0  0  0  0
   20.9484  -21.5190  -15.4886 O   0  0  0  0  0  0  0  0  0  0  0  0
   19.9620  -22.6347  -13.6975 N   0  0  0  0  0  0  0  0  0  0  0  0
   18.6899  -22.6831  -14.3890 C   0  0  0  0  0  0  0  0  0  0  0  0
   18.3736  -24.1141  -14.6541 C   0  0  0  0  0  0  0  0  0  0  0  0
   19.2168  -25.0291  -14.5440 O   0  0  0  0  0  0  0  0  0  0  0  0
   17.0912  -24.4948  -15.0453 O   0  0  0  0  0  0  0  0  0  0  0  0
  2  1  1  1
  2  3  1  0
  3  4  1  0
  5  6  1  0
  5  4  1  0
  7  6  1  0
  8  9  2  0
  8  2  1  0
 10  8  1  0
 11 10  1  0
 11 12  1  6
 12 13  1  0
 13 21  1  0
 13 14  2  0
 14 15  1  0
 16 15  1  0
 16 17  2  0
 18 17  1  0
 19 18  2  0
 20 21  2  0
 20 19  1  0
 21 16  1  0
 22 24  1  0
 22 11  1  0
 23 22  2  0
 25 26  1  0
 25 24  1  0
 26 28  1  0
 27 26  2  0
M  END
$$$$
