LRG.pdb
     RDKit          3D

 24 23  0  0  1  0  0  0  0  0999 V2000
   27.5914  -17.6609  -18.3293 C   0  0  0  0  0  0  0  0  0  0  0  0
   28.1107  -18.8225  -17.5577 C   0  0  1  0  0  0  0  0  0  0  0  0
   29.3595  -18.4162  -16.8102 C   0  0  0  0  0  0  0  0  0  0  0  0
   27.1348  -19.5306  -16.6880 C   0  0  0  0  0  0  0  0  0  0  0  0
   27.6952  -20.5481  -15.7476 C   0  0  2  0  0  0  0  0  0  0  0  0
   28.0796  -21.7627  -16.4515 N   0  0  0  0  0  0  0  0  0  0  0  0
   26.5445  -20.9395  -14.8494 C   0  0  0  0  0  0  0  0  0  0  0  0
   25.7732  -21.8853  -15.1695 O   0  0  0  0  0  0  0  0  0  0  0  0
   21.6821  -20.0814   -9.1513 N   0  0  0  0  0  0  0  0  0  0  0  0
   22.2400  -21.0445   -8.2775 C   0  0  0  0  0  0  0  0  0  0  0  0
   21.4219  -21.8464   -7.6702 N   0  0  0  0  0  0  0  0  0  0  0  0
   23.6478  -21.1402   -8.0654 N   0  0  0  0  0  0  0  0  0  0  0  0
   24.5815  -20.4846   -8.9677 C   0  0  0  0  0  0  0  0  0  0  0  0
   24.3547  -20.8714  -10.3900 C   0  0  0  0  0  0  0  0  0  0  0  0
   25.3500  -20.3081  -11.3414 C   0  0  0  0  0  0  0  0  0  0  0  0
   25.2244  -20.6372  -12.7748 C   0  0  2  0  0  0  0  0  0  0  0  0
   26.3176  -20.2435  -13.6294 N   0  0  0  0  0  0  0  0  0  0  0  0
   24.0075  -19.9235  -13.2794 C   0  0  0  0  0  0  0  0  0  0  0  0
   24.0160  -18.6876  -13.3549 O   0  0  0  0  0  0  0  0  0  0  0  0
   21.7567  -22.5361   -6.9929 N   0  0  0  0  0  0  0  0  0  0  0  0
   22.8845  -20.6667  -13.6577 C   0  0  0  0  0  0  0  0  0  0  0  0
   21.6819  -20.0765  -14.2131 C   0  0  0  0  0  0  0  0  0  0  0  0
   20.6016  -19.9489  -13.2415 O   0  0  0  0  0  0  0  0  0  0  0  0
   20.7189  -20.3932  -12.0787 O   0  0  0  0  0  0  0  0  0  0  0  0
  2  1  1  1
  2  3  1  0
  4  2  1  0
  4  5  1  0
  5  6  1  6
  7  5  1  0
  7  8  2  0
 10  9  1  0
 11 10  2  0
 12 10  1  0
 13 14  1  0
 13 12  1  0
 14 15  1  0
 16 15  1  1
 16 17  1  0
 17  7  1  0
 18 16  1  0
 19 18  2  0
 20 18  1  0
 21 20  1  0
 22 24  1  0
 22 21  1  0
 23 22  2  0
M  END
$$$$
