LRG.pdb
     RDKit          3D

 24 23  0  0  1  0  0  0  0  0999 V2000
   23.6736  -18.7678  -16.8315 C   0  0  0  0  0  0  0  0  0  0  0  0
   22.4121  -19.1703  -16.1523 C   0  0  1  0  0  0  0  0  0  0  0  0
   21.5166  -19.8907  -17.1333 C   0  0  0  0  0  0  0  0  0  0  0  0
   22.5558  -19.9073  -14.8693 C   0  0  0  0  0  0  0  0  0  0  0  0
   21.2997  -20.4490  -14.2671 C   0  0  2  0  0  0  0  0  0  0  0  0
   20.8080  -19.5846  -13.2044 N   0  0  0  0  0  0  0  0  0  0  0  0
   21.7032  -21.7405  -13.5937 C   0  0  0  0  0  0  0  0  0  0  0  0
   22.3430  -21.7249  -12.5064 O   0  0  0  0  0  0  0  0  0  0  0  0
   18.0402  -25.0660  -10.1687 N   0  0  0  0  0  0  0  0  0  0  0  0
   18.4693  -26.2851   -9.5924 C   0  0  0  0  0  0  0  0  0  0  0  0
   17.8319  -26.7092   -8.5460 N   0  0  0  0  0  0  0  0  0  0  0  0
   19.5599  -27.0290  -10.1338 N   0  0  0  0  0  0  0  0  0  0  0  0
   19.9674  -26.8492  -11.5185 C   0  0  0  0  0  0  0  0  0  0  0  0
   20.1929  -25.4144  -11.8566 C   0  0  0  0  0  0  0  0  0  0  0  0
   20.6319  -25.1797  -13.2585 C   0  0  0  0  0  0  0  0  0  0  0  0
   21.7222  -24.2164  -13.5073 C   0  0  2  0  0  0  0  0  0  0  0  0
   21.3654  -22.9917  -14.1806 N   0  0  0  0  0  0  0  0  0  0  0  0
   22.7234  -24.9094  -14.3802 C   0  0  0  0  0  0  0  0  0  0  0  0
   22.3288  -25.5732  -15.3480 O   0  0  0  0  0  0  0  0  0  0  0  0
   18.0802  -27.5920   -8.0927 N   0  0  0  0  0  0  0  0  0  0  0  0
   24.0860  -24.7922  -14.0869 C   0  0  0  0  0  0  0  0  0  0  0  0
   25.1264  -25.4931  -14.8145 C   0  0  0  0  0  0  0  0  0  0  0  0
   25.5032  -24.8328  -16.0592 O   0  0  0  0  0  0  0  0  0  0  0  0
   24.9634  -23.7625  -16.4152 O   0  0  0  0  0  0  0  0  0  0  0  0
  2  1  1  6
  2  3  1  0
  4  2  1  0
  4  5  1  0
  5  6  1  1
  7  5  1  0
  7  8  2  0
 10  9  1  0
 11 10  2  0
 12 10  1  0
 13 14  1  0
 13 12  1  0
 14 15  1  0
 16 15  1  6
 16 17  1  0
 17  7  1  0
 18 16  1  0
 19 18  2  0
 20 18  1  0
 21 20  1  0
 22 24  1  0
 22 21  1  0
 23 22  2  0
M  END
$$$$
