LRG.pdb
     RDKit          3D

 24 23  0  0  1  0  0  0  0  0999 V2000
   29.1499  -18.4288   -4.6074 C   0  0  0  0  0  0  0  0  0  0  0  0
   28.8619  -19.6011   -5.4776 C   0  0  1  0  0  0  0  0  0  0  0  0
   28.5858  -20.8134   -4.6188 C   0  0  0  0  0  0  0  0  0  0  0  0
   27.8320  -19.4071   -6.5320 C   0  0  0  0  0  0  0  0  0  0  0  0
   27.4745  -20.6097   -7.3444 C   0  0  2  0  0  0  0  0  0  0  0  0
   28.6068  -21.0680   -8.1357 N   0  0  0  0  0  0  0  0  0  0  0  0
   26.4444  -20.1284   -8.3400 C   0  0  0  0  0  0  0  0  0  0  0  0
   25.4990  -19.3776   -7.9733 O   0  0  0  0  0  0  0  0  0  0  0  0
   26.3460  -22.3938  -15.5196 N   0  0  0  0  0  0  0  0  0  0  0  0
   27.7337  -22.1391  -15.4115 C   0  0  0  0  0  0  0  0  0  0  0  0
   28.5434  -23.0020  -15.9416 N   0  0  0  0  0  0  0  0  0  0  0  0
   28.2352  -20.9797  -14.7480 N   0  0  0  0  0  0  0  0  0  0  0  0
   27.3316  -20.0589  -14.0761 C   0  0  0  0  0  0  0  0  0  0  0  0
   26.8745  -20.5819  -12.7565 C   0  0  0  0  0  0  0  0  0  0  0  0
   26.0480  -19.6241  -11.9738 C   0  0  0  0  0  0  0  0  0  0  0  0
   25.5486  -20.0384  -10.6481 C   0  0  2  0  0  0  0  0  0  0  0  0
   26.5295  -20.5180   -9.7056 N   0  0  0  0  0  0  0  0  0  0  0  0
   24.5886  -21.1654  -10.8783 C   0  0  0  0  0  0  0  0  0  0  0  0
   25.0242  -22.2758  -11.2108 O   0  0  0  0  0  0  0  0  0  0  0  0
   29.5533  -22.8409  -15.9638 N   0  0  0  0  0  0  0  0  0  0  0  0
   23.2177  -20.9431  -10.7115 C   0  0  0  0  0  0  0  0  0  0  0  0
   22.4927  -19.8732  -11.3693 C   0  0  0  0  0  0  0  0  0  0  0  0
   21.9140  -20.2709  -12.6476 O   0  0  0  0  0  0  0  0  0  0  0  0
   22.5481  -20.1365  -13.7169 O   0  0  0  0  0  0  0  0  0  0  0  0
  2  1  1  1
  2  3  1  0
  4  2  1  0
  4  5  1  0
  5  6  1  6
  7  5  1  0
  7  8  2  0
 10  9  1  0
 11 10  2  0
 12 10  1  0
 13 14  1  0
 13 12  1  0
 14 15  1  0
 16 15  1  6
 16 17  1  0
 17  7  1  0
 18 16  1  0
 19 18  2  0
 20 18  1  0
 21 20  1  0
 22 24  1  0
 22 21  1  0
 23 22  2  0
M  END
$$$$
