LRG.pdb
     RDKit          3D

 24 23  0  0  1  0  0  0  0  0999 V2000
   30.0554  -24.1358  -17.0744 C   0  0  0  0  0  0  0  0  0  0  0  0
   29.1670  -22.9593  -17.2770 C   0  0  1  0  0  0  0  0  0  0  0  0
   28.8810  -22.7887  -18.7509 C   0  0  0  0  0  0  0  0  0  0  0  0
   27.9321  -22.9108  -16.4508 C   0  0  0  0  0  0  0  0  0  0  0  0
   27.0417  -21.7272  -16.6512 C   0  0  2  0  0  0  0  0  0  0  0  0
   27.6791  -20.5027  -16.1900 N   0  0  0  0  0  0  0  0  0  0  0  0
   25.8649  -21.9511  -15.7297 C   0  0  0  0  0  0  0  0  0  0  0  0
   25.1537  -22.9877  -15.8370 O   0  0  0  0  0  0  0  0  0  0  0  0
   26.1004  -20.3654   -7.5020 N   0  0  0  0  0  0  0  0  0  0  0  0
   24.9306  -20.8154   -8.1589 C   0  0  0  0  0  0  0  0  0  0  0  0
   23.8552  -20.9419   -7.4458 N   0  0  0  0  0  0  0  0  0  0  0  0
   24.9221  -21.1206   -9.5527 N   0  0  0  0  0  0  0  0  0  0  0  0
   26.1258  -20.9662  -10.3546 C   0  0  0  0  0  0  0  0  0  0  0  0
   25.9311  -21.4338  -11.7572 C   0  0  0  0  0  0  0  0  0  0  0  0
   24.6837  -20.9376  -12.3981 C   0  0  0  0  0  0  0  0  0  0  0  0
   24.4502  -21.2424  -13.8233 C   0  0  2  0  0  0  0  0  0  0  0  0
   25.5450  -20.9923  -14.7285 N   0  0  0  0  0  0  0  0  0  0  0  0
   23.3153  -20.3738  -14.2730 C   0  0  0  0  0  0  0  0  0  0  0  0
   23.4805  -19.1489  -14.3473 O   0  0  0  0  0  0  0  0  0  0  0  0
   22.9814  -21.2810   -7.8556 N   0  0  0  0  0  0  0  0  0  0  0  0
   22.0901  -20.9629  -14.6026 C   0  0  0  0  0  0  0  0  0  0  0  0
   20.9339  -20.2116  -15.0517 C   0  0  0  0  0  0  0  0  0  0  0  0
   19.9174  -20.0474  -14.0187 O   0  0  0  0  0  0  0  0  0  0  0  0
   20.1617  -19.4273  -12.9607 O   0  0  0  0  0  0  0  0  0  0  0  0
  2  1  1  6
  2  3  1  0
  4  2  1  0
  4  5  1  0
  5  6  1  1
  7  5  1  0
  7  8  2  0
 10  9  1  0
 11 10  2  0
 12 10  1  0
 13 14  1  0
 13 12  1  0
 14 15  1  0
 16 15  1  1
 16 17  1  0
 17  7  1  0
 18 16  1  0
 19 18  2  0
 20 18  1  0
 21 20  1  0
 22 24  1  0
 22 21  1  0
 23 22  2  0
M  END
$$$$
