LRG.pdb
     RDKit          3D

 24 23  0  0  1  0  0  0  0  0999 V2000
   32.5482  -25.1194  -18.6841 C   0  0  0  0  0  0  0  0  0  0  0  0
   31.7470  -25.2674  -17.4388 C   0  0  1  0  0  0  0  0  0  0  0  0
   32.6192  -24.9814  -16.2386 C   0  0  0  0  0  0  0  0  0  0  0  0
   30.4561  -24.5315  -17.3896 C   0  0  0  0  0  0  0  0  0  0  0  0
   29.6897  -24.6144  -16.1091 C   0  0  2  0  0  0  0  0  0  0  0  0
   29.0325  -25.9055  -15.9697 N   0  0  0  0  0  0  0  0  0  0  0  0
   28.5783  -23.5988  -16.2415 C   0  0  0  0  0  0  0  0  0  0  0  0
   27.4954  -23.9031  -16.8129 O   0  0  0  0  0  0  0  0  0  0  0  0
   24.3686  -20.6973  -11.9096 N   0  0  0  0  0  0  0  0  0  0  0  0
   25.3390  -20.6400  -10.8812 C   0  0  0  0  0  0  0  0  0  0  0  0
   24.9903  -21.0607   -9.7055 N   0  0  0  0  0  0  0  0  0  0  0  0
   26.6549  -20.1412  -11.1172 N   0  0  0  0  0  0  0  0  0  0  0  0
   27.0405  -19.6549  -12.4326 C   0  0  0  0  0  0  0  0  0  0  0  0
   27.1141  -20.7529  -13.4389 C   0  0  0  0  0  0  0  0  0  0  0  0
   27.5494  -20.3126  -14.7916 C   0  0  0  0  0  0  0  0  0  0  0  0
   27.6745  -21.3239  -15.8594 C   0  0  2  0  0  0  0  0  0  0  0  0
   28.7418  -22.2845  -15.7219 N   0  0  0  0  0  0  0  0  0  0  0  0
   27.9291  -20.5800  -17.1347 C   0  0  0  0  0  0  0  0  0  0  0  0
   29.0621  -20.1354  -17.3626 O   0  0  0  0  0  0  0  0  0  0  0  0
   25.6333  -21.0153   -8.9112 N   0  0  0  0  0  0  0  0  0  0  0  0
   26.8825  -20.4028  -18.0456 C   0  0  0  0  0  0  0  0  0  0  0  0
   27.0199  -19.6786  -19.2945 C   0  0  0  0  0  0  0  0  0  0  0  0
   25.7839  -19.6230  -20.0667 O   0  0  0  0  0  0  0  0  0  0  0  0
   24.7576  -20.2320  -19.6934 O   0  0  0  0  0  0  0  0  0  0  0  0
  2  1  1  6
  2  3  1  0
  4  2  1  0
  4  5  1  0
  5  6  1  6
  7  5  1  0
  7  8  2  0
 10  9  1  0
 11 10  2  0
 12 10  1  0
 13 14  1  0
 13 12  1  0
 14 15  1  0
 16 15  1  1
 16 17  1  0
 17  7  1  0
 18 16  1  0
 19 18  2  0
 20 18  1  0
 21 20  1  0
 22 24  1  0
 22 21  1  0
 23 22  2  0
M  END
$$$$
