LRG.pdb
     RDKit          3D

 24 23  0  0  1  0  0  0  0  0999 V2000
   22.5623  -17.8487  -16.7502 C   0  0  0  0  0  0  0  0  0  0  0  0
   23.8121  -18.6170  -16.9996 C   0  0  1  0  0  0  0  0  0  0  0  0
   24.9464  -17.6600  -17.2841 C   0  0  0  0  0  0  0  0  0  0  0  0
   24.1752  -19.6403  -15.9841 C   0  0  0  0  0  0  0  0  0  0  0  0
   25.5479  -20.2226  -16.0855 C   0  0  2  0  0  0  0  0  0  0  0  0
   25.6006  -21.2801  -17.0842 N   0  0  0  0  0  0  0  0  0  0  0  0
   25.7950  -20.8987  -14.7566 C   0  0  0  0  0  0  0  0  0  0  0  0
   25.1864  -21.9617  -14.4542 O   0  0  0  0  0  0  0  0  0  0  0  0
   32.9480  -21.6008   -9.9931 N   0  0  0  0  0  0  0  0  0  0  0  0
   32.2944  -22.3550  -10.9963 C   0  0  0  0  0  0  0  0  0  0  0  0
   33.0261  -23.1317  -11.7329 N   0  0  0  0  0  0  0  0  0  0  0  0
   30.8843  -22.2734  -11.1985 N   0  0  0  0  0  0  0  0  0  0  0  0
   30.0503  -21.4829  -10.3068 C   0  0  0  0  0  0  0  0  0  0  0  0
   28.6118  -21.5243  -10.6980 C   0  0  0  0  0  0  0  0  0  0  0  0
   28.3119  -20.8537  -11.9916 C   0  0  0  0  0  0  0  0  0  0  0  0
   26.9660  -21.0127  -12.5763 C   0  0  2  0  0  0  0  0  0  0  0  0
   26.7191  -20.3419  -13.8291 N   0  0  0  0  0  0  0  0  0  0  0  0
   25.9932  -20.4461  -11.5877 C   0  0  0  0  0  0  0  0  0  0  0  0
   25.8366  -19.2194  -11.5247 O   0  0  0  0  0  0  0  0  0  0  0  0
   32.6144  -23.7095  -12.4698 N   0  0  0  0  0  0  0  0  0  0  0  0
   25.2781  -21.3134  -10.7553 C   0  0  0  0  0  0  0  0  0  0  0  0
   24.2723  -20.8700   -9.8093 C   0  0  0  0  0  0  0  0  0  0  0  0
   22.9289  -20.8265  -10.3755 O   0  0  0  0  0  0  0  0  0  0  0  0
   22.7273  -21.0626  -11.5867 O   0  0  0  0  0  0  0  0  0  0  0  0
  2  1  1  1
  2  3  1  0
  4  2  1  0
  4  5  1  0
  5  6  1  6
  7  5  1  0
  7  8  2  0
 10  9  1  0
 11 10  2  0
 12 10  1  0
 13 14  1  0
 13 12  1  0
 14 15  1  0
 16 15  1  1
 16 17  1  0
 17  7  1  0
 18 16  1  0
 19 18  2  0
 20 18  1  0
 21 20  1  0
 22 24  1  0
 22 21  1  0
 23 22  2  0
M  END
$$$$
