LRG.pdb
     RDKit          3D

 24 23  0  0  1  0  0  0  0  0999 V2000
   19.3606  -20.8060  -10.3671 C   0  0  0  0  0  0  0  0  0  0  0  0
   19.6838  -20.9215  -11.8151 C   0  0  1  0  0  0  0  0  0  0  0  0
   18.4142  -20.8133  -12.6274 C   0  0  0  0  0  0  0  0  0  0  0  0
   20.7612  -20.0342  -12.3268 C   0  0  0  0  0  0  0  0  0  0  0  0
   21.0187  -20.0782  -13.7984 C   0  0  2  0  0  0  0  0  0  0  0  0
   20.8276  -21.4204  -14.3281 N   0  0  0  0  0  0  0  0  0  0  0  0
   22.4918  -19.7794  -13.9561 C   0  0  0  0  0  0  0  0  0  0  0  0
   22.9806  -18.7060  -13.5079 O   0  0  0  0  0  0  0  0  0  0  0  0
   27.0790  -20.1937   -9.0411 N   0  0  0  0  0  0  0  0  0  0  0  0
   25.8011  -20.7137   -9.3554 C   0  0  0  0  0  0  0  0  0  0  0  0
   24.8314  -20.4545   -8.5347 N   0  0  0  0  0  0  0  0  0  0  0  0
   25.5754  -21.4940  -10.5285 N   0  0  0  0  0  0  0  0  0  0  0  0
   25.7555  -20.9164  -11.8512 C   0  0  0  0  0  0  0  0  0  0  0  0
   25.5561  -21.9207  -12.9355 C   0  0  0  0  0  0  0  0  0  0  0  0
   25.7202  -21.3754  -14.3098 C   0  0  0  0  0  0  0  0  0  0  0  0
   24.7398  -20.3877  -14.8015 C   0  0  2  0  0  0  0  0  0  0  0  0
   23.3459  -20.7078  -14.6140 N   0  0  0  0  0  0  0  0  0  0  0  0
   24.9552  -20.2599  -16.2786 C   0  0  0  0  0  0  0  0  0  0  0  0
   24.6436  -21.2004  -17.0213 O   0  0  0  0  0  0  0  0  0  0  0  0
   23.8844  -20.8033   -8.7022 N   0  0  0  0  0  0  0  0  0  0  0  0
   25.5028  -19.0795  -16.7919 C   0  0  0  0  0  0  0  0  0  0  0  0
   25.8064  -18.8803  -18.1959 C   0  0  0  0  0  0  0  0  0  0  0  0
   26.3104  -17.5440  -18.4920 O   0  0  0  0  0  0  0  0  0  0  0  0
   26.7452  -17.2514  -19.6272 O   0  0  0  0  0  0  0  0  0  0  0  0
  2  1  1  1
  2  3  1  0
  4  2  1  0
  4  5  1  0
  5  6  1  1
  7  5  1  0
  7  8  2  0
 10  9  1  0
 11 10  2  0
 12 10  1  0
 13 14  1  0
 13 12  1  0
 14 15  1  0
 16 15  1  6
 16 17  1  0
 17  7  1  0
 18 16  1  0
 19 18  2  0
 20 18  1  0
 21 20  1  0
 22 24  1  0
 22 21  1  0
 23 22  2  0
M  END
$$$$
