LRG.pdb
     RDKit          3D

 24 23  0  0  1  0  0  0  0  0999 V2000
   27.5743  -14.1752  -22.2933 C   0  0  0  0  0  0  0  0  0  0  0  0
   26.7407  -13.7394  -21.1402 C   0  0  1  0  0  0  0  0  0  0  0  0
   25.6434  -12.8217  -21.6269 C   0  0  0  0  0  0  0  0  0  0  0  0
   26.2278  -14.8135  -20.2495 C   0  0  0  0  0  0  0  0  0  0  0  0
   25.2876  -14.3902  -19.1674 C   0  0  2  0  0  0  0  0  0  0  0  0
   25.9314  -13.4750  -18.2367 N   0  0  0  0  0  0  0  0  0  0  0  0
   24.9968  -15.6447  -18.3765 C   0  0  0  0  0  0  0  0  0  0  0  0
   24.5136  -16.6632  -18.9430 O   0  0  0  0  0  0  0  0  0  0  0  0
   28.6053  -20.6642  -12.0767 N   0  0  0  0  0  0  0  0  0  0  0  0
   27.2109  -20.7922  -11.8728 C   0  0  0  0  0  0  0  0  0  0  0  0
   26.8149  -21.5879  -10.9288 N   0  0  0  0  0  0  0  0  0  0  0  0
   26.2666  -20.0771  -12.6684 N   0  0  0  0  0  0  0  0  0  0  0  0
   26.7065  -19.0518  -13.6016 C   0  0  0  0  0  0  0  0  0  0  0  0
   25.5620  -18.2971  -14.1885 C   0  0  0  0  0  0  0  0  0  0  0  0
   25.9570  -17.2752  -15.1949 C   0  0  0  0  0  0  0  0  0  0  0  0
   24.9842  -16.8953  -16.2378 C   0  0  2  0  0  0  0  0  0  0  0  0
   25.2653  -15.6909  -16.9801 N   0  0  0  0  0  0  0  0  0  0  0  0
   23.6716  -16.6777  -15.5490 C   0  0  0  0  0  0  0  0  0  0  0  0
   23.4301  -15.5768  -15.0362 O   0  0  0  0  0  0  0  0  0  0  0  0
   25.8239  -21.6846  -10.6946 N   0  0  0  0  0  0  0  0  0  0  0  0
   22.7421  -17.7217  -15.4994 C   0  0  0  0  0  0  0  0  0  0  0  0
   21.4326  -17.6016  -14.8879 C   0  0  0  0  0  0  0  0  0  0  0  0
   20.6312  -18.8151  -15.0002 O   0  0  0  0  0  0  0  0  0  0  0  0
   21.0689  -19.8298  -15.5852 O   0  0  0  0  0  0  0  0  0  0  0  0
  2  1  1  6
  2  3  1  0
  4  2  1  0
  4  5  1  0
  5  6  1  1
  7  5  1  0
  7  8  2  0
 10  9  1  0
 11 10  2  0
 12 10  1  0
 13 14  1  0
 13 12  1  0
 14 15  1  0
 16 15  1  1
 16 17  1  0
 17  7  1  0
 18 16  1  0
 19 18  2  0
 20 18  1  0
 21 20  1  0
 22 24  1  0
 22 21  1  0
 23 22  2  0
M  END
$$$$
