LRG.pdb
     RDKit          3D

 24 23  0  0  1  0  0  0  0  0999 V2000
   29.6380  -19.1302   -5.4332 C   0  0  0  0  0  0  0  0  0  0  0  0
   28.2786  -19.7100   -5.6078 C   0  0  1  0  0  0  0  0  0  0  0  0
   27.3733  -19.2198   -4.5017 C   0  0  0  0  0  0  0  0  0  0  0  0
   27.6621  -19.5614   -6.9524 C   0  0  0  0  0  0  0  0  0  0  0  0
   26.2868  -20.1216   -7.1210 C   0  0  2  0  0  0  0  0  0  0  0  0
   26.2954  -21.5750   -7.0432 N   0  0  0  0  0  0  0  0  0  0  0  0
   25.8899  -19.7878   -8.5406 C   0  0  0  0  0  0  0  0  0  0  0  0
   26.0049  -18.6105   -8.9793 O   0  0  0  0  0  0  0  0  0  0  0  0
   28.4243  -21.5224  -13.6456 N   0  0  0  0  0  0  0  0  0  0  0  0
   27.8940  -21.1856  -14.9135 C   0  0  0  0  0  0  0  0  0  0  0  0
   28.7268  -20.7864  -15.8235 N   0  0  0  0  0  0  0  0  0  0  0  0
   26.4977  -21.2786  -15.1925 N   0  0  0  0  0  0  0  0  0  0  0  0
   25.5932  -21.9212  -14.2520 C   0  0  0  0  0  0  0  0  0  0  0  0
   25.0746  -20.9676  -13.2294 C   0  0  0  0  0  0  0  0  0  0  0  0
   25.4833  -21.2866  -11.8350 C   0  0  0  0  0  0  0  0  0  0  0  0
   24.9541  -20.4572  -10.7347 C   0  0  2  0  0  0  0  0  0  0  0  0
   25.3803  -20.8005   -9.4002 N   0  0  0  0  0  0  0  0  0  0  0  0
   23.4632  -20.6028  -10.7593 C   0  0  0  0  0  0  0  0  0  0  0  0
   22.9366  -21.5583  -10.1737 O   0  0  0  0  0  0  0  0  0  0  0  0
   28.4055  -20.5061  -16.7534 N   0  0  0  0  0  0  0  0  0  0  0  0
   22.6931  -19.6554  -11.4418 C   0  0  0  0  0  0  0  0  0  0  0  0
   21.2429  -19.6500  -11.4422 C   0  0  0  0  0  0  0  0  0  0  0  0
   20.6634  -20.7298  -12.2331 O   0  0  0  0  0  0  0  0  0  0  0  0
   21.2386  -21.1677  -13.2534 O   0  0  0  0  0  0  0  0  0  0  0  0
  2  1  1  6
  2  3  1  0
  4  2  1  0
  4  5  1  0
  5  6  1  6
  7  5  1  0
  7  8  2  0
 10  9  1  0
 11 10  2  0
 12 10  1  0
 13 14  1  0
 13 12  1  0
 14 15  1  0
 16 15  1  6
 16 17  1  0
 17  7  1  0
 18 16  1  0
 19 18  2  0
 20 18  1  0
 21 20  1  0
 22 24  1  0
 22 21  1  0
 23 22  2  0
M  END
$$$$
