LRG.pdb
     RDKit          3D

 24 23  0  0  1  0  0  0  0  0999 V2000
   29.5533  -19.6398   -5.0131 C   0  0  0  0  0  0  0  0  0  0  0  0
   28.1447  -19.9353   -5.3915 C   0  0  1  0  0  0  0  0  0  0  0  0
   27.2065  -19.2483   -4.4265 C   0  0  0  0  0  0  0  0  0  0  0  0
   27.7747  -19.6933   -6.8109 C   0  0  0  0  0  0  0  0  0  0  0  0
   26.3460  -19.9342   -7.1780 C   0  0  2  0  0  0  0  0  0  0  0  0
   25.9814  -21.3309   -6.9925 N   0  0  0  0  0  0  0  0  0  0  0  0
   26.2672  -19.6822   -8.6661 C   0  0  0  0  0  0  0  0  0  0  0  0
   26.4477  -18.5235   -9.1314 O   0  0  0  0  0  0  0  0  0  0  0  0
   31.5337  -20.7858  -10.8721 N   0  0  0  0  0  0  0  0  0  0  0  0
   31.2436  -21.8620  -11.7438 C   0  0  0  0  0  0  0  0  0  0  0  0
   32.0338  -22.8895  -11.7094 N   0  0  0  0  0  0  0  0  0  0  0  0
   30.1264  -21.8301  -12.6308 N   0  0  0  0  0  0  0  0  0  0  0  0
   29.3145  -20.6303  -12.7604 C   0  0  0  0  0  0  0  0  0  0  0  0
   28.3970  -20.4439  -11.5996 C   0  0  0  0  0  0  0  0  0  0  0  0
   27.0390  -21.0184  -11.7969 C   0  0  0  0  0  0  0  0  0  0  0  0
   25.9249  -20.4993  -10.9798 C   0  0  2  0  0  0  0  0  0  0  0  0
   25.9875  -20.7522   -9.5611 N   0  0  0  0  0  0  0  0  0  0  0  0
   24.6760  -21.1600  -11.4782 C   0  0  0  0  0  0  0  0  0  0  0  0
   24.1550  -22.0596  -10.8055 O   0  0  0  0  0  0  0  0  0  0  0  0
   31.8687  -23.7082  -12.3000 N   0  0  0  0  0  0  0  0  0  0  0  0
   24.1202  -20.7471  -12.6936 C   0  0  0  0  0  0  0  0  0  0  0  0
   22.7119  -20.4508  -12.8722 C   0  0  0  0  0  0  0  0  0  0  0  0
   22.3918  -19.9596  -14.2077 O   0  0  0  0  0  0  0  0  0  0  0  0
   23.2776  -19.4938  -14.9573 O   0  0  0  0  0  0  0  0  0  0  0  0
  2  1  1  6
  2  3  1  0
  4  2  1  0
  4  5  1  0
  5  6  1  6
  7  5  1  0
  7  8  2  0
 10  9  1  0
 11 10  2  0
 12 10  1  0
 13 14  1  0
 13 12  1  0
 14 15  1  0
 16 15  1  6
 16 17  1  0
 17  7  1  0
 18 16  1  0
 19 18  2  0
 20 18  1  0
 21 20  1  0
 22 24  1  0
 22 21  1  0
 23 22  2  0
M  END
$$$$
