LRG.pdb
     RDKit          3D

 24 23  0  0  1  0  0  0  0  0999 V2000
   25.4126  -20.9979   -7.8083 C   0  0  0  0  0  0  0  0  0  0  0  0
   24.9707  -21.0818   -9.2268 C   0  0  1  0  0  0  0  0  0  0  0  0
   23.5642  -20.5436   -9.3515 C   0  0  0  0  0  0  0  0  0  0  0  0
   25.8902  -20.5056  -10.2429 C   0  0  0  0  0  0  0  0  0  0  0  0
   25.3778  -20.4408  -11.6455 C   0  0  2  0  0  0  0  0  0  0  0  0
   24.9864  -21.7577  -12.1260 N   0  0  0  0  0  0  0  0  0  0  0  0
   26.5648  -20.0316  -12.4867 C   0  0  0  0  0  0  0  0  0  0  0  0
   27.2188  -18.9888  -12.2099 O   0  0  0  0  0  0  0  0  0  0  0  0
   31.7824  -20.8720  -11.2005 N   0  0  0  0  0  0  0  0  0  0  0  0
   32.2597  -22.1559  -11.5554 C   0  0  0  0  0  0  0  0  0  0  0  0
   33.0715  -22.7413  -10.7312 N   0  0  0  0  0  0  0  0  0  0  0  0
   31.8689  -22.7931  -12.7709 N   0  0  0  0  0  0  0  0  0  0  0  0
   31.2293  -22.0352  -13.8349 C   0  0  0  0  0  0  0  0  0  0  0  0
   29.7420  -22.1250  -13.7738 C   0  0  0  0  0  0  0  0  0  0  0  0
   29.0406  -21.3677  -14.8450 C   0  0  0  0  0  0  0  0  0  0  0  0
   28.0287  -20.3656  -14.4574 C   0  0  2  0  0  0  0  0  0  0  0  0
   26.9587  -20.8201  -13.6035 N   0  0  0  0  0  0  0  0  0  0  0  0
   27.3904  -19.8807  -15.7231 C   0  0  0  0  0  0  0  0  0  0  0  0
   27.0472  -20.7022  -16.5836 O   0  0  0  0  0  0  0  0  0  0  0  0
   33.5008  -23.6421  -10.9561 N   0  0  0  0  0  0  0  0  0  0  0  0
   27.1920  -18.5085  -15.9089 C   0  0  0  0  0  0  0  0  0  0  0  0
   26.7007  -17.9290  -17.1441 C   0  0  0  0  0  0  0  0  0  0  0  0
   25.2549  -18.0434  -17.2986 O   0  0  0  0  0  0  0  0  0  0  0  0
   24.5762  -18.7667  -16.5372 O   0  0  0  0  0  0  0  0  0  0  0  0
  2  1  1  1
  2  3  1  0
  4  2  1  0
  4  5  1  0
  5  6  1  6
  7  5  1  0
  7  8  2  0
 10  9  1  0
 11 10  2  0
 12 10  1  0
 13 14  1  0
 13 12  1  0
 14 15  1  0
 16 15  1  6
 16 17  1  0
 17  7  1  0
 18 16  1  0
 19 18  2  0
 20 18  1  0
 21 20  1  0
 22 24  1  0
 22 21  1  0
 23 22  2  0
M  END
$$$$
