LRG.pdb
     RDKit          3D

 24 23  0  0  1  0  0  0  0  0999 V2000
   29.6484  -19.9062   -4.4830 C   0  0  0  0  0  0  0  0  0  0  0  0
   28.2317  -20.0418   -4.9181 C   0  0  1  0  0  0  0  0  0  0  0  0
   27.3384  -19.2572   -3.9854 C   0  0  0  0  0  0  0  0  0  0  0  0
   27.9473  -19.7561   -6.3490 C   0  0  0  0  0  0  0  0  0  0  0  0
   26.5225  -19.8797   -6.7833 C   0  0  2  0  0  0  0  0  0  0  0  0
   26.0088  -21.2185   -6.5345 N   0  0  0  0  0  0  0  0  0  0  0  0
   26.5470  -19.7208   -8.2861 C   0  0  0  0  0  0  0  0  0  0  0  0
   27.0032  -18.6692   -8.8131 O   0  0  0  0  0  0  0  0  0  0  0  0
   31.8922  -22.7312   -9.4446 N   0  0  0  0  0  0  0  0  0  0  0  0
   31.5393  -22.4580  -10.7874 C   0  0  0  0  0  0  0  0  0  0  0  0
   32.1971  -23.0781  -11.7168 N   0  0  0  0  0  0  0  0  0  0  0  0
   30.5002  -21.5380  -11.1188 N   0  0  0  0  0  0  0  0  0  0  0  0
   29.1270  -21.7896  -10.7105 C   0  0  0  0  0  0  0  0  0  0  0  0
   28.1442  -21.3542  -11.7442 C   0  0  0  0  0  0  0  0  0  0  0  0
   26.7230  -21.5864  -11.3709 C   0  0  0  0  0  0  0  0  0  0  0  0
   26.0298  -20.5702  -10.5553 C   0  0  2  0  0  0  0  0  0  0  0  0
   26.0540  -20.7584   -9.1254 N   0  0  0  0  0  0  0  0  0  0  0  0
   24.5892  -20.5920  -10.9661 C   0  0  0  0  0  0  0  0  0  0  0  0
   23.7642  -21.1823  -10.2561 O   0  0  0  0  0  0  0  0  0  0  0  0
   32.0131  -22.9019  -12.7075 N   0  0  0  0  0  0  0  0  0  0  0  0
   24.2022  -19.9436  -12.1435 C   0  0  0  0  0  0  0  0  0  0  0  0
   22.8283  -19.8631  -12.6006 C   0  0  0  0  0  0  0  0  0  0  0  0
   22.3305  -21.1184  -13.1519 O   0  0  0  0  0  0  0  0  0  0  0  0
   23.0851  -22.1032  -13.3076 O   0  0  0  0  0  0  0  0  0  0  0  0
  2  1  1  1
  2  3  1  0
  4  2  1  0
  4  5  1  0
  5  6  1  6
  7  5  1  0
  7  8  2  0
 10  9  1  0
 11 10  2  0
 12 10  1  0
 13 14  1  0
 13 12  1  0
 14 15  1  0
 16 15  1  6
 16 17  1  0
 17  7  1  0
 18 16  1  0
 19 18  2  0
 20 18  1  0
 21 20  1  0
 22 24  1  0
 22 21  1  0
 23 22  2  0
M  END
$$$$
