TTL.pdb
     RDKit          3D

 23 22  0  0  1  0  0  0  0  0999 V2000
    7.6444  -12.4331   18.5417 C   0  0  0  0  0  0  0  0  0  0  0  0
    8.1200  -13.8333   18.2412 C   0  0  1  0  0  0  0  0  0  0  0  0
    8.7313  -13.8201   16.9907 O   0  0  0  0  0  0  0  0  0  0  0  0
    9.0951  -14.2562   19.3245 C   0  0  2  0  0  0  0  0  0  0  0  0
    9.9084  -15.3074   18.7971 N   0  0  0  0  0  0  0  0  0  0  0  0
    8.3746  -14.6591   20.5652 C   0  0  0  0  0  0  0  0  0  0  0  0
    7.4581  -13.9697   21.0839 O   0  0  0  0  0  0  0  0  0  0  0  0
    7.1641  -18.3068   21.2756 C   0  0  0  0  0  0  0  0  0  0  0  0
    7.9738  -17.8390   22.4885 C   0  0  1  0  0  0  0  0  0  0  0  0
    9.1668  -18.4868   22.4649 O   0  0  0  0  0  0  0  0  0  0  0  0
    8.0360  -16.3453   22.4167 C   0  0  2  0  0  0  0  0  0  0  0  0
    8.7103  -15.8738   21.2232 N   0  0  0  0  0  0  0  0  0  0  0  0
    8.5636  -15.7098   23.6450 C   0  0  0  0  0  0  0  0  0  0  0  0
    9.7836  -15.3990   23.6399 O   0  0  0  0  0  0  0  0  0  0  0  0
    7.9751  -11.8435   25.5699 C   0  0  0  0  0  0  0  0  0  0  0  0
    7.3865  -12.5797   26.7078 C   0  0  1  0  0  0  0  0  0  0  0  0
    6.0699  -11.9487   27.1761 C   0  0  0  0  0  0  0  0  0  0  0  0
    7.2743  -14.0312   26.5641 C   0  0  0  0  0  0  0  0  0  0  0  0
    8.3902  -14.8639   26.0438 C   0  0  2  0  0  0  0  0  0  0  0  0
    7.8143  -15.4374   24.7856 N   0  0  0  0  0  0  0  0  0  0  0  0
    8.8115  -15.9523   26.9153 C   0  0  0  0  0  0  0  0  0  0  0  0
    9.5608  -15.8561   27.9091 O   0  0  0  0  0  0  0  0  0  0  0  0
    8.3686  -17.2826   26.6764 O   0  0  0  0  0  0  0  0  0  0  0  0
  2  1  1  1
  2  4  1  0
  3  2  1  0
  4  5  1  6
  6  4  1  0
  7  6  2  0
  9  8  1  6
  9 11  1  0
 10  9  1  0
 11 13  1  0
 11 12  1  6
 12  6  1  0
 13 20  1  0
 14 13  2  0
 16 15  1  6
 16 17  1  0
 18 16  1  0
 19 18  1  1
 19 21  1  0
 20 19  1  0
 21 22  2  0
 21 23  1  0
M  END
$$$$
