TTL.pdb
     RDKit          3D

 23 22  0  0  1  0  0  0  0  0999 V2000
    8.7547  -12.3907   19.6899 C   0  0  0  0  0  0  0  0  0  0  0  0
    8.2697  -13.2179   18.5249 C   0  0  1  0  0  0  0  0  0  0  0  0
    8.8325  -12.6958   17.3637 O   0  0  0  0  0  0  0  0  0  0  0  0
    8.6967  -14.6579   18.7425 C   0  0  2  0  0  0  0  0  0  0  0  0
    8.4140  -15.3854   17.5444 N   0  0  0  0  0  0  0  0  0  0  0  0
    8.0231  -15.2408   19.9372 C   0  0  0  0  0  0  0  0  0  0  0  0
    6.7791  -15.4197   20.0075 O   0  0  0  0  0  0  0  0  0  0  0  0
    7.5124  -18.1884   21.0138 C   0  0  0  0  0  0  0  0  0  0  0  0
    8.2840  -17.7148   22.2492 C   0  0  1  0  0  0  0  0  0  0  0  0
    9.5313  -18.2475   22.1878 O   0  0  0  0  0  0  0  0  0  0  0  0
    8.2080  -16.2199   22.2595 C   0  0  2  0  0  0  0  0  0  0  0  0
    8.7886  -15.6257   21.0715 N   0  0  0  0  0  0  0  0  0  0  0  0
    8.7244  -15.6043   23.5024 C   0  0  0  0  0  0  0  0  0  0  0  0
    9.9264  -15.2298   23.4891 O   0  0  0  0  0  0  0  0  0  0  0  0
    7.5670  -11.9326   25.7023 C   0  0  0  0  0  0  0  0  0  0  0  0
    7.2172  -12.8256   26.8263 C   0  0  1  0  0  0  0  0  0  0  0  0
    5.8544  -12.4720   27.4334 C   0  0  0  0  0  0  0  0  0  0  0  0
    7.3523  -14.2630   26.5904 C   0  0  0  0  0  0  0  0  0  0  0  0
    8.5489  -14.8482   25.9309 C   0  0  2  0  0  0  0  0  0  0  0  0
    7.9833  -15.4147   24.6648 N   0  0  0  0  0  0  0  0  0  0  0  0
    9.2109  -15.9108   26.6753 C   0  0  0  0  0  0  0  0  0  0  0  0
    8.9426  -17.1288   26.6221 O   0  0  0  0  0  0  0  0  0  0  0  0
   10.2755  -15.6119   27.5698 O   0  0  0  0  0  0  0  0  0  0  0  0
  2  1  1  1
  2  4  1  0
  3  2  1  0
  4  5  1  6
  6  4  1  0
  7  6  2  0
  9  8  1  6
  9 11  1  0
 10  9  1  0
 11 13  1  0
 11 12  1  6
 12  6  1  0
 13 20  1  0
 14 13  2  0
 16 15  1  6
 16 17  1  0
 18 16  1  0
 19 18  1  1
 19 21  1  0
 20 19  1  0
 21 22  2  0
 21 23  1  0
M  END
$$$$
