TTL.pdb
     RDKit          3D

 23 22  0  0  1  0  0  0  0  0999 V2000
   10.1844  -19.9301   19.0497 C   0  0  0  0  0  0  0  0  0  0  0  0
   10.1567  -18.8783   20.1314 C   0  0  1  0  0  0  0  0  0  0  0  0
   11.2165  -19.1265   20.9989 O   0  0  0  0  0  0  0  0  0  0  0  0
   10.2867  -17.5127   19.4821 C   0  0  2  0  0  0  0  0  0  0  0  0
   11.5134  -17.4908   18.7477 N   0  0  0  0  0  0  0  0  0  0  0  0
   10.2108  -16.4270   20.5001 C   0  0  0  0  0  0  0  0  0  0  0  0
   11.2258  -15.8393   20.9569 O   0  0  0  0  0  0  0  0  0  0  0  0
    7.0999  -13.8013   20.9927 C   0  0  0  0  0  0  0  0  0  0  0  0
    7.4059  -14.5872   22.2712 C   0  0  1  0  0  0  0  0  0  0  0  0
    6.4320  -15.5204   22.4268 O   0  0  0  0  0  0  0  0  0  0  0  0
    8.8013  -15.1109   22.1331 C   0  0  2  0  0  0  0  0  0  0  0  0
    8.9493  -16.0073   21.0036 N   0  0  0  0  0  0  0  0  0  0  0  0
    9.3485  -15.6886   23.3811 C   0  0  0  0  0  0  0  0  0  0  0  0
   10.5636  -16.0179   23.3648 O   0  0  0  0  0  0  0  0  0  0  0  0
   10.9946  -14.0440   27.9986 C   0  0  0  0  0  0  0  0  0  0  0  0
    9.5587  -14.3514   27.8344 C   0  0  1  0  0  0  0  0  0  0  0  0
    8.6690  -13.2922   28.4958 C   0  0  0  0  0  0  0  0  0  0  0  0
    9.1063  -14.6753   26.4814 C   0  0  0  0  0  0  0  0  0  0  0  0
    9.2471  -16.0379   25.9046 C   0  0  2  0  0  0  0  0  0  0  0  0
    8.6224  -15.8889   24.5513 N   0  0  0  0  0  0  0  0  0  0  0  0
    8.5597  -17.0950   26.6337 C   0  0  0  0  0  0  0  0  0  0  0  0
    9.0068  -17.7308   27.6105 O   0  0  0  0  0  0  0  0  0  0  0  0
    7.2491  -17.4989   26.2569 O   0  0  0  0  0  0  0  0  0  0  0  0
  2  1  1  6
  2  4  1  0
  3  2  1  0
  4  5  1  1
  6  4  1  0
  7  6  2  0
  9  8  1  6
  9 11  1  0
 10  9  1  0
 11 13  1  0
 11 12  1  6
 12  6  1  0
 13 20  1  0
 14 13  2  0
 16 15  1  6
 16 17  1  0
 18 16  1  0
 19 18  1  1
 19 21  1  0
 20 19  1  0
 21 22  2  0
 21 23  1  0
M  END
$$$$
