TTL.pdb
     RDKit          3D

 23 22  0  0  1  0  0  0  0  0999 V2000
    8.6856  -12.4684   19.8617 C   0  0  0  0  0  0  0  0  0  0  0  0
    8.2634  -13.2984   18.6744 C   0  0  1  0  0  0  0  0  0  0  0  0
    8.9296  -12.8134   17.5526 O   0  0  0  0  0  0  0  0  0  0  0  0
    8.6248  -14.7476   18.9437 C   0  0  2  0  0  0  0  0  0  0  0  0
    8.2870  -15.5077   17.7807 N   0  0  0  0  0  0  0  0  0  0  0  0
    7.9451  -15.2492   20.1714 C   0  0  0  0  0  0  0  0  0  0  0  0
    6.7011  -15.4257   20.2463 O   0  0  0  0  0  0  0  0  0  0  0  0
    7.2966  -18.0461   21.4359 C   0  0  0  0  0  0  0  0  0  0  0  0
    8.1149  -17.5480   22.6308 C   0  0  1  0  0  0  0  0  0  0  0  0
    9.3320  -18.1476   22.5782 O   0  0  0  0  0  0  0  0  0  0  0  0
    8.1158  -16.0528   22.5611 C   0  0  2  0  0  0  0  0  0  0  0  0
    8.7045  -15.5540   21.3339 N   0  0  0  0  0  0  0  0  0  0  0  0
    8.6857  -15.3994   23.7606 C   0  0  0  0  0  0  0  0  0  0  0  0
    9.8880  -15.0332   23.6859 O   0  0  0  0  0  0  0  0  0  0  0  0
    5.5796  -12.1333   26.5622 C   0  0  0  0  0  0  0  0  0  0  0  0
    6.8091  -12.6978   25.9680 C   0  0  1  0  0  0  0  0  0  0  0  0
    7.7856  -11.6008   25.5275 C   0  0  0  0  0  0  0  0  0  0  0  0
    7.4809  -13.7531   26.7262 C   0  0  0  0  0  0  0  0  0  0  0  0
    8.6072  -14.5405   26.1599 C   0  0  2  0  0  0  0  0  0  0  0  0
    7.9936  -15.1665   24.9453 N   0  0  0  0  0  0  0  0  0  0  0  0
    9.1288  -15.5893   27.0256 C   0  0  0  0  0  0  0  0  0  0  0  0
    9.8448  -15.4268   28.0352 O   0  0  0  0  0  0  0  0  0  0  0  0
    8.8383  -16.9562   26.7610 O   0  0  0  0  0  0  0  0  0  0  0  0
  2  1  1  1
  2  4  1  0
  3  2  1  0
  4  5  1  6
  6  4  1  0
  7  6  2  0
  9  8  1  6
  9 11  1  0
 10  9  1  0
 11 13  1  0
 11 12  1  6
 12  6  1  0
 13 20  1  0
 14 13  2  0
 16 15  1  1
 16 17  1  0
 18 16  1  0
 19 18  1  1
 19 21  1  0
 20 19  1  0
 21 22  2  0
 21 23  1  0
M  END
$$$$
