TTL.pdb
     RDKit          3D

 23 22  0  0  1  0  0  0  0  0999 V2000
   11.4330  -14.3779   17.5261 C   0  0  0  0  0  0  0  0  0  0  0  0
   10.6542  -14.4847   18.8142 C   0  0  1  0  0  0  0  0  0  0  0  0
   11.0181  -13.4141   19.6259 O   0  0  0  0  0  0  0  0  0  0  0  0
    9.1724  -14.4479   18.4884 C   0  0  2  0  0  0  0  0  0  0  0  0
    8.9028  -13.2190   17.8088 N   0  0  0  0  0  0  0  0  0  0  0  0
    8.3496  -14.6120   19.7200 C   0  0  0  0  0  0  0  0  0  0  0  0
    7.6299  -13.6948   20.1946 O   0  0  0  0  0  0  0  0  0  0  0  0
    6.4140  -17.9528   20.4126 C   0  0  0  0  0  0  0  0  0  0  0  0
    7.1527  -17.5636   21.6966 C   0  0  1  0  0  0  0  0  0  0  0  0
    8.1940  -18.4210   21.8515 O   0  0  0  0  0  0  0  0  0  0  0  0
    7.5080  -16.1152   21.5687 C   0  0  2  0  0  0  0  0  0  0  0  0
    8.3517  -15.8491   20.4203 N   0  0  0  0  0  0  0  0  0  0  0  0
    8.0510  -15.5216   22.8111 C   0  0  0  0  0  0  0  0  0  0  0  0
    9.3033  -15.4141   22.8844 O   0  0  0  0  0  0  0  0  0  0  0  0
    7.7479  -11.7049   26.6989 C   0  0  0  0  0  0  0  0  0  0  0  0
    6.8245  -12.8485   26.8500 C   0  0  1  0  0  0  0  0  0  0  0  0
    5.4582  -12.4111   27.3911 C   0  0  0  0  0  0  0  0  0  0  0  0
    6.6942  -13.7444   25.7010 C   0  0  0  0  0  0  0  0  0  0  0  0
    7.8582  -14.4667   25.1242 C   0  0  2  0  0  0  0  0  0  0  0  0
    7.2833  -15.0818   23.8853 N   0  0  0  0  0  0  0  0  0  0  0  0
    8.4154  -15.5178   25.9645 C   0  0  0  0  0  0  0  0  0  0  0  0
    7.9417  -16.6608   26.1305 O   0  0  0  0  0  0  0  0  0  0  0  0
    9.6132  -15.2975   26.6991 O   0  0  0  0  0  0  0  0  0  0  0  0
  2  1  1  6
  2  4  1  0
  3  2  1  0
  4  5  1  1
  6  4  1  0
  7  6  2  0
  9  8  1  6
  9 11  1  0
 10  9  1  0
 11 13  1  0
 11 12  1  6
 12  6  1  0
 13 20  1  0
 14 13  2  0
 16 15  1  6
 16 17  1  0
 18 16  1  0
 19 18  1  1
 19 21  1  0
 20 19  1  0
 21 22  2  0
 21 23  1  0
M  END
$$$$
