TTL.pdb
     RDKit          3D

 23 22  0  0  1  0  0  0  0  0999 V2000
    9.1621  -12.4935   19.4571 C   0  0  0  0  0  0  0  0  0  0  0  0
    8.4564  -13.1871   18.3180 C   0  0  1  0  0  0  0  0  0  0  0  0
    8.9317  -12.6476   17.1262 O   0  0  0  0  0  0  0  0  0  0  0  0
    8.7473  -14.6743   18.4021 C   0  0  2  0  0  0  0  0  0  0  0  0
    8.2173  -15.2924   17.2267 N   0  0  0  0  0  0  0  0  0  0  0  0
    8.1908  -15.2582   19.6551 C   0  0  0  0  0  0  0  0  0  0  0  0
    6.9586  -15.2952   19.9095 O   0  0  0  0  0  0  0  0  0  0  0  0
    8.4627  -18.5756   20.8332 C   0  0  0  0  0  0  0  0  0  0  0  0
    9.0121  -17.8140   22.0432 C   0  0  1  0  0  0  0  0  0  0  0  0
   10.3492  -18.0418   22.1038 O   0  0  0  0  0  0  0  0  0  0  0  0
    8.5959  -16.3855   21.8801 C   0  0  2  0  0  0  0  0  0  0  0  0
    9.0617  -15.8096   20.6340 N   0  0  0  0  0  0  0  0  0  0  0  0
    8.9192  -15.5326   23.0457 C   0  0  0  0  0  0  0  0  0  0  0  0
   10.0108  -14.9069   23.0013 O   0  0  0  0  0  0  0  0  0  0  0  0
    7.8523  -11.7250   26.7433 C   0  0  0  0  0  0  0  0  0  0  0  0
    7.0333  -12.9531   26.8095 C   0  0  1  0  0  0  0  0  0  0  0  0
    5.5643  -12.6432   27.1211 C   0  0  0  0  0  0  0  0  0  0  0  0
    7.1678  -13.8936   25.6971 C   0  0  0  0  0  0  0  0  0  0  0  0
    8.4689  -14.5175   25.3407 C   0  0  2  0  0  0  0  0  0  0  0  0
    8.1113  -15.3784   24.1683 N   0  0  0  0  0  0  0  0  0  0  0  0
    9.0644  -15.3480   26.3787 C   0  0  0  0  0  0  0  0  0  0  0  0
    9.8951  -14.9795   27.2345 O   0  0  0  0  0  0  0  0  0  0  0  0
    8.7164  -16.7222   26.4933 O   0  0  0  0  0  0  0  0  0  0  0  0
  2  1  1  1
  2  4  1  0
  3  2  1  0
  4  5  1  6
  6  4  1  0
  7  6  2  0
  9  8  1  6
  9 11  1  0
 10  9  1  0
 11 13  1  0
 11 12  1  6
 12  6  1  0
 13 20  1  0
 14 13  2  0
 16 15  1  6
 16 17  1  0
 18 16  1  0
 19 18  1  1
 19 21  1  0
 20 19  1  0
 21 22  2  0
 21 23  1  0
M  END
$$$$
