TTL.pdb
     RDKit          3D

 23 22  0  0  1  0  0  0  0  0999 V2000
    9.6633  -15.8078   17.8490 C   0  0  0  0  0  0  0  0  0  0  0  0
    9.0693  -17.1581   18.1663 C   0  0  1  0  0  0  0  0  0  0  0  0
    9.4787  -18.0500   17.1793 O   0  0  0  0  0  0  0  0  0  0  0  0
    9.5582  -17.5923   19.5358 C   0  0  2  0  0  0  0  0  0  0  0  0
    9.4818  -19.0189   19.5973 N   0  0  0  0  0  0  0  0  0  0  0  0
    8.7752  -16.9312   20.6178 C   0  0  0  0  0  0  0  0  0  0  0  0
    8.5001  -15.7029   20.6166 O   0  0  0  0  0  0  0  0  0  0  0  0
    5.5660  -18.4874   22.1484 C   0  0  0  0  0  0  0  0  0  0  0  0
    6.4852  -18.1114   23.3143 C   0  0  1  0  0  0  0  0  0  0  0  0
    6.9949  -19.2605   23.8272 O   0  0  0  0  0  0  0  0  0  0  0  0
    7.4825  -17.1315   22.7798 C   0  0  2  0  0  0  0  0  0  0  0  0
    8.2989  -17.6912   21.7207 N   0  0  0  0  0  0  0  0  0  0  0  0
    8.2975  -16.4771   23.8278 C   0  0  0  0  0  0  0  0  0  0  0  0
    9.5380  -16.6892   23.7921 O   0  0  0  0  0  0  0  0  0  0  0  0
    6.3142  -11.9991   26.2774 C   0  0  0  0  0  0  0  0  0  0  0  0
    7.3246  -12.8986   25.6830 C   0  0  1  0  0  0  0  0  0  0  0  0
    8.5130  -12.1200   25.1065 C   0  0  0  0  0  0  0  0  0  0  0  0
    7.7599  -14.0303   26.5014 C   0  0  0  0  0  0  0  0  0  0  0  0
    8.6187  -15.1155   25.9592 C   0  0  2  0  0  0  0  0  0  0  0  0
    7.7932  -15.6572   24.8328 N   0  0  0  0  0  0  0  0  0  0  0  0
    8.9201  -16.1933   26.8915 C   0  0  0  0  0  0  0  0  0  0  0  0
    8.2748  -17.2528   27.0303 O   0  0  0  0  0  0  0  0  0  0  0  0
   10.0418  -16.1043   27.7614 O   0  0  0  0  0  0  0  0  0  0  0  0
  2  1  1  6
  2  4  1  0
  3  2  1  0
  4  5  1  6
  6  4  1  0
  7  6  2  0
  9  8  1  6
  9 11  1  0
 10  9  1  0
 11 13  1  0
 11 12  1  6
 12  6  1  0
 13 20  1  0
 14 13  2  0
 16 15  1  1
 16 17  1  0
 18 16  1  0
 19 18  1  1
 19 21  1  0
 20 19  1  0
 21 22  2  0
 21 23  1  0
M  END
$$$$
