TTL.pdb
     RDKit          3D

 23 22  0  0  1  0  0  0  0  0999 V2000
   11.0252  -14.0388   17.2681 C   0  0  0  0  0  0  0  0  0  0  0  0
   10.3753  -14.2631   18.6113 C   0  0  1  0  0  0  0  0  0  0  0  0
   10.8157  -13.2633   19.4738 O   0  0  0  0  0  0  0  0  0  0  0  0
    8.8688  -14.2116   18.4349 C   0  0  2  0  0  0  0  0  0  0  0  0
    8.5371  -12.9449   17.8604 N   0  0  0  0  0  0  0  0  0  0  0  0
    8.1700  -14.4526   19.7289 C   0  0  0  0  0  0  0  0  0  0  0  0
    7.5415  -13.5558   20.3494 O   0  0  0  0  0  0  0  0  0  0  0  0
    6.5019  -17.9880   20.3516 C   0  0  0  0  0  0  0  0  0  0  0  0
    7.1960  -17.5510   21.6450 C   0  0  1  0  0  0  0  0  0  0  0  0
    8.2918  -18.3350   21.8124 O   0  0  0  0  0  0  0  0  0  0  0  0
    7.4525  -16.0814   21.5227 C   0  0  2  0  0  0  0  0  0  0  0  0
    8.1919  -15.7442   20.3223 N   0  0  0  0  0  0  0  0  0  0  0  0
    8.0481  -15.4762   22.7350 C   0  0  0  0  0  0  0  0  0  0  0  0
    9.2793  -15.2167   22.6892 O   0  0  0  0  0  0  0  0  0  0  0  0
    8.0666  -11.6970   26.6209 C   0  0  0  0  0  0  0  0  0  0  0  0
    7.0128  -12.7287   26.7125 C   0  0  1  0  0  0  0  0  0  0  0  0
    5.6709  -12.1357   27.1583 C   0  0  0  0  0  0  0  0  0  0  0  0
    6.8602  -13.6165   25.5599 C   0  0  0  0  0  0  0  0  0  0  0  0
    7.9609  -14.4965   25.0872 C   0  0  2  0  0  0  0  0  0  0  0  0
    7.3506  -15.1797   23.9021 N   0  0  0  0  0  0  0  0  0  0  0  0
    8.4050  -15.5029   26.0420 C   0  0  0  0  0  0  0  0  0  0  0  0
    9.3116  -15.3688   26.8896 O   0  0  0  0  0  0  0  0  0  0  0  0
    7.7960  -16.7877   26.0739 O   0  0  0  0  0  0  0  0  0  0  0  0
  2  1  1  6
  2  4  1  0
  3  2  1  0
  4  5  1  1
  6  4  1  0
  7  6  2  0
  9  8  1  6
  9 11  1  0
 10  9  1  0
 11 13  1  0
 11 12  1  6
 12  6  1  0
 13 20  1  0
 14 13  2  0
 16 15  1  6
 16 17  1  0
 18 16  1  0
 19 18  1  1
 19 21  1  0
 20 19  1  0
 21 22  2  0
 21 23  1  0
M  END
$$$$
