TTL.pdb
     RDKit          3D

 23 22  0  0  1  0  0  0  0  0999 V2000
   12.2739  -19.5829   19.4008 C   0  0  0  0  0  0  0  0  0  0  0  0
   11.8800  -18.4222   20.2808 C   0  0  1  0  0  0  0  0  0  0  0  0
   13.0165  -17.6519   20.5100 O   0  0  0  0  0  0  0  0  0  0  0  0
   10.8062  -17.6186   19.5704 C   0  0  2  0  0  0  0  0  0  0  0  0
   11.3557  -17.1444   18.3384 N   0  0  0  0  0  0  0  0  0  0  0  0
   10.3050  -16.5134   20.4353 C   0  0  0  0  0  0  0  0  0  0  0  0
   10.7866  -15.3506   20.4149 O   0  0  0  0  0  0  0  0  0  0  0  0
    6.8599  -15.2025   20.6211 C   0  0  0  0  0  0  0  0  0  0  0  0
    7.1687  -15.6355   22.0574 C   0  0  1  0  0  0  0  0  0  0  0  0
    6.4946  -16.7896   22.2961 O   0  0  0  0  0  0  0  0  0  0  0  0
    8.6590  -15.7088   22.1758 C   0  0  2  0  0  0  0  0  0  0  0  0
    9.2328  -16.7447   21.3396 N   0  0  0  0  0  0  0  0  0  0  0  0
    9.1441  -15.7846   23.5721 C   0  0  0  0  0  0  0  0  0  0  0  0
    9.8374  -16.7911   23.8745 O   0  0  0  0  0  0  0  0  0  0  0  0
    9.0747  -11.6992   28.0828 C   0  0  0  0  0  0  0  0  0  0  0  0
    9.6557  -12.9590   27.5742 C   0  0  1  0  0  0  0  0  0  0  0  0
   10.1425  -13.8634   28.7126 C   0  0  0  0  0  0  0  0  0  0  0  0
    8.8637  -13.6984   26.5913 C   0  0  0  0  0  0  0  0  0  0  0  0
    9.3444  -14.9639   25.9776 C   0  0  2  0  0  0  0  0  0  0  0  0
    8.8897  -14.8342   24.5563 N   0  0  0  0  0  0  0  0  0  0  0  0
    8.7858  -16.1821   26.5482 C   0  0  0  0  0  0  0  0  0  0  0  0
    7.6263  -16.6130   26.3806 O   0  0  0  0  0  0  0  0  0  0  0  0
    9.5753  -17.0151   27.3882 O   0  0  0  0  0  0  0  0  0  0  0  0
  2  1  1  6
  2  4  1  0
  3  2  1  0
  4  5  1  6
  6  4  1  0
  7  6  2  0
  9  8  1  6
  9 11  1  0
 10  9  1  0
 11 13  1  0
 11 12  1  6
 12  6  1  0
 13 20  1  0
 14 13  2  0
 16 15  1  1
 16 17  1  0
 18 16  1  0
 19 18  1  1
 19 21  1  0
 20 19  1  0
 21 22  2  0
 21 23  1  0
M  END
$$$$
