TTL.pdb
     RDKit          3D

 23 22  0  0  1  0  0  0  0  0999 V2000
   11.1388  -14.0655   17.6084 C   0  0  0  0  0  0  0  0  0  0  0  0
   10.3670  -14.3352   18.8767 C   0  0  1  0  0  0  0  0  0  0  0  0
   10.6712  -13.3271   19.7870 O   0  0  0  0  0  0  0  0  0  0  0  0
    8.8854  -14.3495   18.5480 C   0  0  2  0  0  0  0  0  0  0  0  0
    8.5673  -13.1144   17.9015 N   0  0  0  0  0  0  0  0  0  0  0  0
    8.0681  -14.5804   19.7726 C   0  0  0  0  0  0  0  0  0  0  0  0
    7.3751  -13.6819   20.3174 O   0  0  0  0  0  0  0  0  0  0  0  0
    6.2024  -18.0133   20.5242 C   0  0  0  0  0  0  0  0  0  0  0  0
    7.0058  -17.6035   21.7621 C   0  0  1  0  0  0  0  0  0  0  0  0
    8.0712  -18.4393   21.8600 O   0  0  0  0  0  0  0  0  0  0  0  0
    7.3241  -16.1489   21.6088 C   0  0  2  0  0  0  0  0  0  0  0  0
    8.0444  -15.8637   20.3835 N   0  0  0  0  0  0  0  0  0  0  0  0
    7.9794  -15.5528   22.7945 C   0  0  0  0  0  0  0  0  0  0  0  0
    9.2112  -15.3118   22.6965 O   0  0  0  0  0  0  0  0  0  0  0  0
    8.2409  -11.7718   26.6554 C   0  0  0  0  0  0  0  0  0  0  0  0
    7.1653  -12.7749   26.7977 C   0  0  1  0  0  0  0  0  0  0  0  0
    5.8574  -12.1434   27.2891 C   0  0  0  0  0  0  0  0  0  0  0  0
    6.9455  -13.6687   25.6606 C   0  0  0  0  0  0  0  0  0  0  0  0
    8.0070  -14.5744   25.1486 C   0  0  2  0  0  0  0  0  0  0  0  0
    7.3363  -15.2460   23.9898 N   0  0  0  0  0  0  0  0  0  0  0  0
    8.4646  -15.5886   26.0886 C   0  0  0  0  0  0  0  0  0  0  0  0
    9.4513  -15.5012   26.8483 O   0  0  0  0  0  0  0  0  0  0  0  0
    7.7731  -16.8253   26.2111 O   0  0  0  0  0  0  0  0  0  0  0  0
  2  1  1  6
  2  4  1  0
  3  2  1  0
  4  5  1  1
  6  4  1  0
  7  6  2  0
  9  8  1  6
  9 11  1  0
 10  9  1  0
 11 13  1  0
 11 12  1  6
 12  6  1  0
 13 20  1  0
 14 13  2  0
 16 15  1  6
 16 17  1  0
 18 16  1  0
 19 18  1  1
 19 21  1  0
 20 19  1  0
 21 22  2  0
 21 23  1  0
M  END
$$$$
