TTL.pdb
     RDKit          3D

 23 22  0  0  1  0  0  0  0  0999 V2000
   11.4409  -14.2108   18.0443 C   0  0  0  0  0  0  0  0  0  0  0  0
   10.6517  -14.3673   19.3209 C   0  0  1  0  0  0  0  0  0  0  0  0
   11.0665  -13.3768   20.2064 O   0  0  0  0  0  0  0  0  0  0  0  0
    9.1752  -14.2310   18.9971 C   0  0  2  0  0  0  0  0  0  0  0  0
    8.9820  -12.9695   18.3521 N   0  0  0  0  0  0  0  0  0  0  0  0
    8.3426  -14.3787   20.2241 C   0  0  0  0  0  0  0  0  0  0  0  0
    7.7351  -13.4175   20.7639 O   0  0  0  0  0  0  0  0  0  0  0  0
    5.8388  -17.2933   20.8533 C   0  0  0  0  0  0  0  0  0  0  0  0
    6.7754  -17.2250   22.0632 C   0  0  1  0  0  0  0  0  0  0  0  0
    7.6214  -18.2846   21.9924 O   0  0  0  0  0  0  0  0  0  0  0  0
    7.4144  -15.8717   22.0394 C   0  0  2  0  0  0  0  0  0  0  0  0
    8.2036  -15.6506   20.8436 N   0  0  0  0  0  0  0  0  0  0  0  0
    8.1639  -15.5434   23.2728 C   0  0  0  0  0  0  0  0  0  0  0  0
    9.4202  -15.5656   23.1921 O   0  0  0  0  0  0  0  0  0  0  0  0
    5.7187  -12.3041   26.9156 C   0  0  0  0  0  0  0  0  0  0  0  0
    6.8047  -12.8722   26.0901 C   0  0  1  0  0  0  0  0  0  0  0  0
    7.8810  -11.8292   25.7668 C   0  0  0  0  0  0  0  0  0  0  0  0
    7.3878  -14.1330   26.5485 C   0  0  0  0  0  0  0  0  0  0  0  0
    8.3663  -14.8964   25.7305 C   0  0  2  0  0  0  0  0  0  0  0  0
    7.5831  -15.2173   24.4946 N   0  0  0  0  0  0  0  0  0  0  0  0
    8.8428  -16.1360   26.3289 C   0  0  0  0  0  0  0  0  0  0  0  0
    8.3865  -17.2796   26.1232 O   0  0  0  0  0  0  0  0  0  0  0  0
    9.9295  -16.1249   27.2464 O   0  0  0  0  0  0  0  0  0  0  0  0
  2  1  1  6
  2  4  1  0
  3  2  1  0
  4  5  1  1
  6  4  1  0
  7  6  2  0
  9  8  1  6
  9 11  1  0
 10  9  1  0
 11 13  1  0
 11 12  1  6
 12  6  1  0
 13 20  1  0
 14 13  2  0
 16 15  1  1
 16 17  1  0
 18 16  1  0
 19 18  1  1
 19 21  1  0
 20 19  1  0
 21 22  2  0
 21 23  1  0
M  END
$$$$
