TTL.pdb
     RDKit          3D

 23 22  0  0  1  0  0  0  0  0999 V2000
   11.0460  -14.0063   20.3357 C   0  0  0  0  0  0  0  0  0  0  0  0
   10.2417  -13.3705   19.2286 C   0  0  1  0  0  0  0  0  0  0  0  0
   11.0899  -13.1675   18.1437 O   0  0  0  0  0  0  0  0  0  0  0  0
    9.0986  -14.3003   18.8653 C   0  0  2  0  0  0  0  0  0  0  0  0
    8.3764  -13.7063   17.7836 N   0  0  0  0  0  0  0  0  0  0  0  0
    8.2339  -14.5726   20.0482 C   0  0  0  0  0  0  0  0  0  0  0  0
    7.1967  -13.9094   20.3101 O   0  0  0  0  0  0  0  0  0  0  0  0
    6.4196  -17.5456   20.8624 C   0  0  0  0  0  0  0  0  0  0  0  0
    7.3008  -17.3764   22.1036 C   0  0  1  0  0  0  0  0  0  0  0  0
    8.2736  -18.3221   22.0531 O   0  0  0  0  0  0  0  0  0  0  0  0
    7.7673  -15.9541   22.1119 C   0  0  2  0  0  0  0  0  0  0  0  0
    8.5638  -15.6236   20.9467 N   0  0  0  0  0  0  0  0  0  0  0  0
    8.4270  -15.5494   23.3735 C   0  0  0  0  0  0  0  0  0  0  0  0
    9.6785  -15.4159   23.3379 O   0  0  0  0  0  0  0  0  0  0  0  0
    5.6346  -12.5531   26.9407 C   0  0  0  0  0  0  0  0  0  0  0  0
    6.8224  -13.0256   26.1997 C   0  0  1  0  0  0  0  0  0  0  0  0
    7.8781  -11.9237   26.0512 C   0  0  0  0  0  0  0  0  0  0  0  0
    7.4123  -14.2896   26.6406 C   0  0  0  0  0  0  0  0  0  0  0  0
    8.4682  -14.9855   25.8596 C   0  0  2  0  0  0  0  0  0  0  0  0
    7.7682  -15.3106   24.5758 N   0  0  0  0  0  0  0  0  0  0  0  0
    8.9708  -16.2166   26.4542 C   0  0  0  0  0  0  0  0  0  0  0  0
    8.5950  -17.3758   26.1832 O   0  0  0  0  0  0  0  0  0  0  0  0
    9.9885  -16.1771   27.4469 O   0  0  0  0  0  0  0  0  0  0  0  0
  2  1  1  1
  2  4  1  0
  3  2  1  0
  4  5  1  6
  6  4  1  0
  7  6  2  0
  9  8  1  6
  9 11  1  0
 10  9  1  0
 11 13  1  0
 11 12  1  6
 12  6  1  0
 13 20  1  0
 14 13  2  0
 16 15  1  1
 16 17  1  0
 18 16  1  0
 19 18  1  1
 19 21  1  0
 20 19  1  0
 21 22  2  0
 21 23  1  0
M  END
$$$$
