TTL.pdb
     RDKit          3D

 23 22  0  0  1  0  0  0  0  0999 V2000
    9.1314  -12.3741   19.7609 C   0  0  0  0  0  0  0  0  0  0  0  0
    8.6058  -13.1094   18.5527 C   0  0  1  0  0  0  0  0  0  0  0  0
    9.3070  -12.6596   17.4376 O   0  0  0  0  0  0  0  0  0  0  0  0
    8.8095  -14.5982   18.7656 C   0  0  2  0  0  0  0  0  0  0  0  0
    8.4307  -15.2698   17.5613 N   0  0  0  0  0  0  0  0  0  0  0  0
    8.0458  -15.0784   19.9518 C   0  0  0  0  0  0  0  0  0  0  0  0
    6.7883  -15.0812   20.0062 O   0  0  0  0  0  0  0  0  0  0  0  0
    7.1786  -17.9674   21.0637 C   0  0  0  0  0  0  0  0  0  0  0  0
    7.9691  -17.5514   22.3079 C   0  0  1  0  0  0  0  0  0  0  0  0
    9.1493  -18.2225   22.2924 O   0  0  0  0  0  0  0  0  0  0  0  0
    8.0625  -16.0577   22.2813 C   0  0  2  0  0  0  0  0  0  0  0  0
    8.7356  -15.5640   21.0961 N   0  0  0  0  0  0  0  0  0  0  0  0
    8.6148  -15.4717   23.5231 C   0  0  0  0  0  0  0  0  0  0  0  0
    9.8226  -15.1178   23.4912 O   0  0  0  0  0  0  0  0  0  0  0  0
    5.4281  -12.5456   26.6791 C   0  0  0  0  0  0  0  0  0  0  0  0
    6.6899  -12.9765   26.0424 C   0  0  1  0  0  0  0  0  0  0  0  0
    7.6412  -11.7976   25.8055 C   0  0  0  0  0  0  0  0  0  0  0  0
    7.3762  -14.1172   26.6489 C   0  0  0  0  0  0  0  0  0  0  0  0
    8.5133  -14.8033   25.9814 C   0  0  2  0  0  0  0  0  0  0  0  0
    7.9008  -15.2888   24.7035 N   0  0  0  0  0  0  0  0  0  0  0  0
    9.0659  -15.9388   26.7073 C   0  0  0  0  0  0  0  0  0  0  0  0
    8.8128  -17.1434   26.4995 O   0  0  0  0  0  0  0  0  0  0  0  0
    9.9902  -15.7374   27.7694 O   0  0  0  0  0  0  0  0  0  0  0  0
  2  1  1  1
  2  4  1  0
  3  2  1  0
  4  5  1  6
  6  4  1  0
  7  6  2  0
  9  8  1  6
  9 11  1  0
 10  9  1  0
 11 13  1  0
 11 12  1  6
 12  6  1  0
 13 20  1  0
 14 13  2  0
 16 15  1  1
 16 17  1  0
 18 16  1  0
 19 18  1  1
 19 21  1  0
 20 19  1  0
 21 22  2  0
 21 23  1  0
M  END
$$$$
