TTL.pdb
     RDKit          3D

 23 22  0  0  1  0  0  0  0  0999 V2000
   10.9831  -13.7743   20.3736 C   0  0  0  0  0  0  0  0  0  0  0  0
   10.0778  -13.1135   19.3633 C   0  0  1  0  0  0  0  0  0  0  0  0
   10.8641  -12.6842   18.2980 O   0  0  0  0  0  0  0  0  0  0  0  0
    9.0411  -14.1242   18.9082 C   0  0  2  0  0  0  0  0  0  0  0  0
    8.2254  -13.4990   17.9140 N   0  0  0  0  0  0  0  0  0  0  0  0
    8.2467  -14.6322   20.0622 C   0  0  0  0  0  0  0  0  0  0  0  0
    7.1728  -14.0998   20.4466 O   0  0  0  0  0  0  0  0  0  0  0  0
    7.0603  -18.2186   23.1199 C   0  0  0  0  0  0  0  0  0  0  0  0
    7.9035  -17.8020   21.9111 C   0  0  1  0  0  0  0  0  0  0  0  0
    7.3392  -18.3492   20.8040 O   0  0  0  0  0  0  0  0  0  0  0  0
    7.9858  -16.3076   21.9358 C   0  0  2  0  0  0  0  0  0  0  0  0
    8.6907  -15.7707   20.7885 N   0  0  0  0  0  0  0  0  0  0  0  0
    8.4954  -15.7587   23.2124 C   0  0  0  0  0  0  0  0  0  0  0  0
    9.7463  -15.7174   23.3493 O   0  0  0  0  0  0  0  0  0  0  0  0
    7.7105  -11.8027   25.4236 C   0  0  0  0  0  0  0  0  0  0  0  0
    7.0367  -12.6670   26.4148 C   0  0  1  0  0  0  0  0  0  0  0  0
    5.6234  -12.1687   26.7392 C   0  0  0  0  0  0  0  0  0  0  0  0
    7.0611  -14.1065   26.1560 C   0  0  0  0  0  0  0  0  0  0  0  0
    8.2398  -14.7829   25.5539 C   0  0  2  0  0  0  0  0  0  0  0  0
    7.6984  -15.2931   24.2538 N   0  0  0  0  0  0  0  0  0  0  0  0
    8.7729  -15.9009   26.3205 C   0  0  0  0  0  0  0  0  0  0  0  0
    8.3291  -17.0676   26.3326 O   0  0  0  0  0  0  0  0  0  0  0  0
    9.9075  -15.7261   27.1601 O   0  0  0  0  0  0  0  0  0  0  0  0
  2  1  1  1
  2  4  1  0
  3  2  1  0
  4  5  1  6
  6  4  1  0
  7  6  2  0
  9  8  1  1
  9 11  1  0
 10  9  1  0
 11 13  1  0
 11 12  1  6
 12  6  1  0
 13 20  1  0
 14 13  2  0
 16 15  1  6
 16 17  1  0
 18 16  1  0
 19 18  1  1
 19 21  1  0
 20 19  1  0
 21 22  2  0
 21 23  1  0
M  END
$$$$
