TTL.pdb
     RDKit          3D

 23 22  0  0  1  0  0  0  0  0999 V2000
   11.0189  -14.0350   17.8017 C   0  0  0  0  0  0  0  0  0  0  0  0
   10.4458  -14.3018   19.1718 C   0  0  1  0  0  0  0  0  0  0  0  0
   11.0010  -13.3814   20.0562 O   0  0  0  0  0  0  0  0  0  0  0  0
    8.9368  -14.1551   19.1024 C   0  0  2  0  0  0  0  0  0  0  0  0
    8.6455  -12.8478   18.6016 N   0  0  0  0  0  0  0  0  0  0  0  0
    8.3128  -14.4099   20.4315 C   0  0  0  0  0  0  0  0  0  0  0  0
    7.7001  -13.5259   21.0854 O   0  0  0  0  0  0  0  0  0  0  0  0
    6.4368  -17.7944   21.1146 C   0  0  0  0  0  0  0  0  0  0  0  0
    7.3571  -17.5130   22.3061 C   0  0  1  0  0  0  0  0  0  0  0  0
    8.3998  -18.3799   22.2379 O   0  0  0  0  0  0  0  0  0  0  0  0
    7.7071  -16.0589   22.2480 C   0  0  2  0  0  0  0  0  0  0  0  0
    8.3924  -15.7007   21.0218 N   0  0  0  0  0  0  0  0  0  0  0  0
    8.4173  -15.5671   23.4498 C   0  0  0  0  0  0  0  0  0  0  0  0
    9.6707  -15.4806   23.3683 O   0  0  0  0  0  0  0  0  0  0  0  0
    5.7419  -12.3160   26.9233 C   0  0  0  0  0  0  0  0  0  0  0  0
    6.8385  -12.8788   26.1085 C   0  0  1  0  0  0  0  0  0  0  0  0
    7.8249  -11.7966   25.6536 C   0  0  0  0  0  0  0  0  0  0  0  0
    7.5267  -14.0499   26.6516 C   0  0  0  0  0  0  0  0  0  0  0  0
    8.5520  -14.7960   25.8762 C   0  0  2  0  0  0  0  0  0  0  0  0
    7.8032  -15.2001   24.6434 N   0  0  0  0  0  0  0  0  0  0  0  0
    9.0775  -15.9881   26.5277 C   0  0  0  0  0  0  0  0  0  0  0  0
    9.9215  -16.0171   27.4470 O   0  0  0  0  0  0  0  0  0  0  0  0
    8.6353  -17.2814   26.1344 O   0  0  0  0  0  0  0  0  0  0  0  0
  2  1  1  6
  2  4  1  0
  3  2  1  0
  4  5  1  1
  6  4  1  0
  7  6  2  0
  9  8  1  6
  9 11  1  0
 10  9  1  0
 11 13  1  0
 11 12  1  6
 12  6  1  0
 13 20  1  0
 14 13  2  0
 16 15  1  1
 16 17  1  0
 18 16  1  0
 19 18  1  1
 19 21  1  0
 20 19  1  0
 21 22  2  0
 21 23  1  0
M  END
$$$$
