DDY.pdb
     RDKit          3D

 29 29  0  0  1  0  0  0  0  0999 V2000
   27.0036  -33.1521    2.3232 N   0  0  0  0  0  0  0  0  0  0  0  0
   26.2073  -33.5091    3.4737 C   0  0  1  0  0  0  0  0  0  0  0  0
   26.7373  -32.9537    4.7709 C   0  0  0  0  0  0  0  0  0  0  0  0
   28.1494  -33.3287    5.0005 C   0  0  0  0  0  0  0  0  0  0  0  0
   28.3936  -34.3593    5.6728 O   0  0  0  0  0  0  0  0  0  0  0  0
   24.8077  -33.0894    3.2280 C   0  0  0  0  0  0  0  0  0  0  0  0
   24.0241  -33.7105    2.4588 O   0  0  0  0  0  0  0  0  0  0  0  0
   29.2211  -32.6047    4.5137 O   0  0  0  0  0  0  0  0  0  0  0  0
   24.3179  -31.9333    3.8861 N   0  0  0  0  0  0  0  0  0  0  0  0
   22.9447  -31.8674    4.3188 C   0  0  1  0  0  0  0  0  0  0  0  0
   22.9525  -31.7836    5.8284 C   0  0  0  0  0  0  0  0  0  0  0  0
   21.5237  -31.6514    6.2487 C   0  0  0  0  0  0  0  0  0  0  0  0
   20.7898  -32.6617    6.1205 O   0  0  0  0  0  0  0  0  0  0  0  0
   22.3083  -30.6938    3.6915 C   0  0  0  0  0  0  0  0  0  0  0  0
   22.8338  -29.5386    3.8146 O   0  0  0  0  0  0  0  0  0  0  0  0
   20.9722  -30.4945    6.7647 O   0  0  0  0  0  0  0  0  0  0  0  0
   18.3569  -25.7327   -2.3806 O   0  0  0  0  0  0  0  0  0  0  0  0
   18.6188  -26.7561   -1.4646 C   0  0  0  0  0  0  0  0  0  0  0  0
   17.9166  -26.8661   -0.2848 C   0  0  0  0  0  0  0  0  0  0  0  0
   18.1866  -27.8812    0.6094 C   0  0  0  0  0  0  0  0  0  0  0  0
   19.1568  -28.8288    0.3820 C   0  0  0  0  0  0  0  0  0  0  0  0
   19.4847  -29.9215    1.3134 C   0  0  0  0  0  0  0  0  0  0  0  0
   20.5149  -29.5631    2.3618 C   0  0  2  0  0  0  0  0  0  0  0  0
   21.1163  -30.7490    2.9347 N   0  0  0  0  0  0  0  0  0  0  0  0
   19.8441  -28.8203    3.4415 C   0  0  0  0  0  0  0  0  0  0  0  0
   19.0527  -29.5563    4.3394 O   0  0  0  0  0  0  0  0  0  0  0  0
   19.8554  -28.7057   -0.8108 C   0  0  0  0  0  0  0  0  0  0  0  0
   19.5911  -27.6902   -1.7146 C   0  0  0  0  0  0  0  0  0  0  0  0
   19.9465  -27.5727    3.5952 O   0  0  0  0  0  0  0  0  0  0  0  0
  2  1  1  6
  2  3  1  0
  2  6  1  0
  3  4  1  0
  4  5  2  0
  4  8  1  0
  6  7  2  0
  9  6  1  0
  9 10  1  0
 10 11  1  1
 12 11  1  0
 13 12  2  0
 14 10  1  0
 14 15  2  0
 16 12  1  0
 18 19  2  0
 18 17  1  0
 20 19  1  0
 21 20  2  0
 22 21  1  0
 23 24  1  0
 23 22  1  6
 24 14  1  0
 25 23  1  0
 26 25  1  0
 27 21  1  0
 27 28  2  0
 28 18  1  0
 29 25  2  0
M  END
$$$$
