DDY.pdb
     RDKit          3D

 29 29  0  0  1  0  0  0  0  0999 V2000
   26.8403  -36.0691   -1.5980 N   0  0  0  0  0  0  0  0  0  0  0  0
   27.4793  -34.8664   -1.1180 C   0  0  1  0  0  0  0  0  0  0  0  0
   27.0325  -33.6178   -1.8347 C   0  0  0  0  0  0  0  0  0  0  0  0
   27.4276  -33.6234   -3.2599 C   0  0  0  0  0  0  0  0  0  0  0  0
   28.5773  -34.0248   -3.5610 O   0  0  0  0  0  0  0  0  0  0  0  0
   27.2619  -34.7674    0.3443 C   0  0  0  0  0  0  0  0  0  0  0  0
   26.1816  -35.0959    0.9070 O   0  0  0  0  0  0  0  0  0  0  0  0
   26.5976  -33.2097   -4.2845 O   0  0  0  0  0  0  0  0  0  0  0  0
   28.3155  -34.2799    1.1580 N   0  0  0  0  0  0  0  0  0  0  0  0
   28.1359  -34.1484    2.5820 C   0  0  1  0  0  0  0  0  0  0  0  0
   29.5087  -33.9931    3.1958 C   0  0  0  0  0  0  0  0  0  0  0  0
   30.0547  -35.3756    3.3581 C   0  0  0  0  0  0  0  0  0  0  0  0
   31.3014  -35.5124    3.3053 O   0  0  0  0  0  0  0  0  0  0  0  0
   27.2661  -32.9858    2.8423 C   0  0  0  0  0  0  0  0  0  0  0  0
   27.4768  -31.8814    2.2408 O   0  0  0  0  0  0  0  0  0  0  0  0
   29.2743  -36.4975    3.5611 O   0  0  0  0  0  0  0  0  0  0  0  0
   20.4694  -27.6883    4.9184 O   0  0  0  0  0  0  0  0  0  0  0  0
   21.3289  -28.7390    4.5830 C   0  0  0  0  0  0  0  0  0  0  0  0
   22.0806  -28.7164    3.4291 C   0  0  0  0  0  0  0  0  0  0  0  0
   22.9240  -29.7609    3.1114 C   0  0  0  0  0  0  0  0  0  0  0  0
   23.0631  -30.8695    3.9131 C   0  0  0  0  0  0  0  0  0  0  0  0
   23.9426  -32.0104    3.6068 C   0  0  0  0  0  0  0  0  0  0  0  0
   25.3878  -31.8127    4.0081 C   0  0  2  0  0  0  0  0  0  0  0  0
   26.1747  -32.9982    3.7397 N   0  0  0  0  0  0  0  0  0  0  0  0
   25.4388  -31.5448    5.4548 C   0  0  0  0  0  0  0  0  0  0  0  0
   25.7203  -32.6277    6.3047 O   0  0  0  0  0  0  0  0  0  0  0  0
   22.3001  -30.8779    5.0723 C   0  0  0  0  0  0  0  0  0  0  0  0
   21.4511  -29.8339    5.3995 C   0  0  0  0  0  0  0  0  0  0  0  0
   25.2450  -30.4048    5.9583 O   0  0  0  0  0  0  0  0  0  0  0  0
  2  1  1  6
  2  3  1  0
  2  6  1  0
  3  4  1  0
  4  5  2  0
  4  8  1  0
  6  7  2  0
  9  6  1  0
  9 10  1  0
 10 11  1  1
 12 11  1  0
 13 12  2  0
 14 10  1  0
 14 15  2  0
 16 12  1  0
 18 19  2  0
 18 17  1  0
 20 19  1  0
 21 20  2  0
 22 21  1  0
 23 24  1  0
 23 22  1  1
 24 14  1  0
 25 23  1  0
 26 25  1  0
 27 21  1  0
 27 28  2  0
 28 18  1  0
 29 25  2  0
M  END
$$$$
