DDY.pdb
     RDKit          3D

 29 29  0  0  1  0  0  0  0  0999 V2000
   18.0126  -12.7274  -16.0471 N   0  0  0  0  0  0  0  0  0  0  0  0
   17.0891  -11.6319  -15.8674 C   0  0  1  0  0  0  0  0  0  0  0  0
   15.7364  -12.0597  -15.3582 C   0  0  0  0  0  0  0  0  0  0  0  0
   15.0285  -12.9285  -16.3232 C   0  0  0  0  0  0  0  0  0  0  0  0
   14.9321  -12.5466  -17.5142 O   0  0  0  0  0  0  0  0  0  0  0  0
   17.7169  -10.6257  -14.9793 C   0  0  0  0  0  0  0  0  0  0  0  0
   18.1814  -10.9027  -13.8395 O   0  0  0  0  0  0  0  0  0  0  0  0
   14.4643  -14.1441  -15.9858 O   0  0  0  0  0  0  0  0  0  0  0  0
   17.8030   -9.2828  -15.4254 N   0  0  0  0  0  0  0  0  0  0  0  0
   18.3519   -8.2633  -14.5671 C   0  0  1  0  0  0  0  0  0  0  0  0
   18.9244   -7.1851  -15.4591 C   0  0  0  0  0  0  0  0  0  0  0  0
   19.5449   -6.1737  -14.5494 C   0  0  0  0  0  0  0  0  0  0  0  0
   19.3805   -4.9628  -14.8369 O   0  0  0  0  0  0  0  0  0  0  0  0
   17.2797   -7.7589  -13.6885 C   0  0  0  0  0  0  0  0  0  0  0  0
   16.1000   -7.5989  -14.1455 O   0  0  0  0  0  0  0  0  0  0  0  0
   20.2794   -6.4922  -13.4234 O   0  0  0  0  0  0  0  0  0  0  0  0
   12.1763   -5.5450   -6.7735 O   0  0  0  0  0  0  0  0  0  0  0  0
   13.1402   -6.0586   -7.6465 C   0  0  0  0  0  0  0  0  0  0  0  0
   12.8212   -6.4388   -8.9312 C   0  0  0  0  0  0  0  0  0  0  0  0
   13.7832   -6.9443   -9.7810 C   0  0  0  0  0  0  0  0  0  0  0  0
   15.0967   -7.0973   -9.4039 C   0  0  0  0  0  0  0  0  0  0  0  0
   16.1523   -7.6421  -10.2744 C   0  0  0  0  0  0  0  0  0  0  0  0
   16.4034   -6.8396  -11.5322 C   0  0  2  0  0  0  0  0  0  0  0  0
   17.4617   -7.4262  -12.3274 N   0  0  0  0  0  0  0  0  0  0  0  0
   16.8182   -5.4812  -11.1449 C   0  0  0  0  0  0  0  0  0  0  0  0
   15.8107   -4.5125  -11.0009 O   0  0  0  0  0  0  0  0  0  0  0  0
   15.4033   -6.7094   -8.1072 C   0  0  0  0  0  0  0  0  0  0  0  0
   14.4443   -6.2008   -7.2472 C   0  0  0  0  0  0  0  0  0  0  0  0
   18.0183   -5.1526  -10.9390 O   0  0  0  0  0  0  0  0  0  0  0  0
  2  1  1  1
  2  3  1  0
  2  6  1  0
  3  4  1  0
  4  5  2  0
  4  8  1  0
  6  7  2  0
  9  6  1  0
  9 10  1  0
 10 11  1  6
 12 11  1  0
 13 12  2  0
 14 10  1  0
 14 15  2  0
 16 12  1  0
 18 19  2  0
 18 17  1  0
 20 19  1  0
 21 20  2  0
 22 21  1  0
 23 24  1  0
 23 22  1  1
 24 14  1  0
 25 23  1  0
 26 25  1  0
 27 21  1  0
 27 28  2  0
 28 18  1  0
 29 25  2  0
M  END
$$$$
