DDY.pdb
     RDKit          3D

 29 29  0  0  1  0  0  0  0  0999 V2000
   21.1041  -18.9498  -17.0698 N   0  0  0  0  0  0  0  0  0  0  0  0
   22.4179  -18.4475  -16.7431 C   0  0  1  0  0  0  0  0  0  0  0  0
   22.3955  -17.2336  -15.8497 C   0  0  0  0  0  0  0  0  0  0  0  0
   21.6481  -16.1108  -16.4562 C   0  0  0  0  0  0  0  0  0  0  0  0
   22.0759  -15.6153  -17.5265 O   0  0  0  0  0  0  0  0  0  0  0  0
   23.2114  -19.5500  -16.1514 C   0  0  0  0  0  0  0  0  0  0  0  0
   22.6971  -20.5015  -15.5019 O   0  0  0  0  0  0  0  0  0  0  0  0
   20.4988  -15.5734  -15.9083 O   0  0  0  0  0  0  0  0  0  0  0  0
   24.6192  -19.5418  -16.3186 N   0  0  0  0  0  0  0  0  0  0  0  0
   25.4246  -20.6041  -15.7708 C   0  0  1  0  0  0  0  0  0  0  0  0
   26.5787  -20.8291  -16.7212 C   0  0  0  0  0  0  0  0  0  0  0  0
   27.3984  -21.9322  -16.1321 C   0  0  0  0  0  0  0  0  0  0  0  0
   26.9953  -22.4378  -15.0561 O   0  0  0  0  0  0  0  0  0  0  0  0
   25.8725  -20.2089  -14.4221 C   0  0  0  0  0  0  0  0  0  0  0  0
   26.5993  -19.1726  -14.2671 O   0  0  0  0  0  0  0  0  0  0  0  0
   28.5599  -22.4212  -16.6984 O   0  0  0  0  0  0  0  0  0  0  0  0
   19.8157  -21.2680  -10.5125 O   0  0  0  0  0  0  0  0  0  0  0  0
   21.1354  -20.8489  -10.7072 C   0  0  0  0  0  0  0  0  0  0  0  0
   21.6888  -20.7676  -11.9658 C   0  0  0  0  0  0  0  0  0  0  0  0
   22.9926  -20.3527  -12.1420 C   0  0  0  0  0  0  0  0  0  0  0  0
   23.8056  -20.0014  -11.0901 C   0  0  0  0  0  0  0  0  0  0  0  0
   25.2047  -19.5640  -11.2323 C   0  0  0  0  0  0  0  0  0  0  0  0
   26.0989  -20.5488  -11.9531 C   0  0  2  0  0  0  0  0  0  0  0  0
   25.5478  -20.9138  -13.2413 N   0  0  0  0  0  0  0  0  0  0  0  0
   26.2047  -21.7689  -11.1359 C   0  0  0  0  0  0  0  0  0  0  0  0
   26.7648  -21.6430   -9.8535 O   0  0  0  0  0  0  0  0  0  0  0  0
   23.2343  -20.0877   -9.8283 C   0  0  0  0  0  0  0  0  0  0  0  0
   21.9263  -20.5028   -9.6418 C   0  0  0  0  0  0  0  0  0  0  0  0
   25.8207  -22.9043  -11.5283 O   0  0  0  0  0  0  0  0  0  0  0  0
  2  1  1  1
  2  3  1  0
  2  6  1  0
  3  4  1  0
  4  5  2  0
  4  8  1  0
  6  7  2  0
  9  6  1  0
  9 10  1  0
 10 11  1  6
 12 11  1  0
 13 12  2  0
 14 10  1  0
 14 15  2  0
 16 12  1  0
 18 19  2  0
 18 17  1  0
 20 19  1  0
 21 20  2  0
 22 21  1  0
 23 24  1  0
 23 22  1  1
 24 14  1  0
 25 23  1  0
 26 25  1  0
 27 21  1  0
 27 28  2  0
 28 18  1  0
 29 25  2  0
M  END
$$$$
