DDY.pdb
     RDKit          3D

 29 29  0  0  1  0  0  0  0  0999 V2000
   20.9280  -11.7559  -18.1589 N   0  0  0  0  0  0  0  0  0  0  0  0
   20.0318  -10.8671  -17.4574 C   0  0  1  0  0  0  0  0  0  0  0  0
   19.8924  -11.1844  -15.9904 C   0  0  0  0  0  0  0  0  0  0  0  0
   19.0412  -12.3710  -15.7567 C   0  0  0  0  0  0  0  0  0  0  0  0
   18.3892  -12.8395  -16.7207 O   0  0  0  0  0  0  0  0  0  0  0  0
   20.4818   -9.4727  -17.6771 C   0  0  0  0  0  0  0  0  0  0  0  0
   21.6882   -9.1568  -17.8682 O   0  0  0  0  0  0  0  0  0  0  0  0
   18.9227  -12.9968  -14.5303 O   0  0  0  0  0  0  0  0  0  0  0  0
   19.5145   -8.4363  -17.6731 N   0  0  0  0  0  0  0  0  0  0  0  0
   19.9020   -7.0762  -17.9516 C   0  0  1  0  0  0  0  0  0  0  0  0
   18.8513   -6.4876  -18.8655 C   0  0  0  0  0  0  0  0  0  0  0  0
   19.3554   -5.1396  -19.2710 C   0  0  0  0  0  0  0  0  0  0  0  0
   20.0188   -4.4938  -18.4232 O   0  0  0  0  0  0  0  0  0  0  0  0
   20.0126   -6.3464  -16.6745 C   0  0  0  0  0  0  0  0  0  0  0  0
   19.1165   -6.4858  -15.7780 O   0  0  0  0  0  0  0  0  0  0  0  0
   19.1359   -4.5716  -20.5111 O   0  0  0  0  0  0  0  0  0  0  0  0
   24.2739  -10.6110  -14.6205 O   0  0  0  0  0  0  0  0  0  0  0  0
   23.8790   -9.2697  -14.6048 C   0  0  0  0  0  0  0  0  0  0  0  0
   24.3927   -8.3555  -15.4976 C   0  0  0  0  0  0  0  0  0  0  0  0
   23.9936   -7.0352  -15.4696 C   0  0  0  0  0  0  0  0  0  0  0  0
   23.0747   -6.5593  -14.5640 C   0  0  0  0  0  0  0  0  0  0  0  0
   22.6293   -5.1573  -14.4921 C   0  0  0  0  0  0  0  0  0  0  0  0
   21.2338   -4.9153  -15.0242 C   0  0  2  0  0  0  0  0  0  0  0  0
   21.0737   -5.4711  -16.3516 N   0  0  0  0  0  0  0  0  0  0  0  0
   21.0094   -3.4625  -15.1039 C   0  0  0  0  0  0  0  0  0  0  0  0
   20.8065   -2.9073  -16.3785 O   0  0  0  0  0  0  0  0  0  0  0  0
   22.5654   -7.4919  -13.6714 C   0  0  0  0  0  0  0  0  0  0  0  0
   22.9600   -8.8192  -13.6922 C   0  0  0  0  0  0  0  0  0  0  0  0
   20.9905   -2.7053  -14.0954 O   0  0  0  0  0  0  0  0  0  0  0  0
  2  1  1  1
  2  3  1  0
  2  6  1  0
  3  4  1  0
  4  5  2  0
  4  8  1  0
  6  7  2  0
  9  6  1  0
  9 10  1  0
 10 11  1  6
 12 11  1  0
 13 12  2  0
 14 10  1  0
 14 15  2  0
 16 12  1  0
 18 19  2  0
 18 17  1  0
 20 19  1  0
 21 20  2  0
 22 21  1  0
 23 24  1  0
 23 22  1  6
 24 14  1  0
 25 23  1  0
 26 25  1  0
 27 21  1  0
 27 28  2  0
 28 18  1  0
 29 25  2  0
M  END
$$$$
