DDY.pdb
     RDKit          3D

 29 29  0  0  1  0  0  0  0  0999 V2000
   24.5742  -21.1689  -19.6703 N   0  0  0  0  0  0  0  0  0  0  0  0
   24.7512  -20.2122  -18.6031 C   0  0  1  0  0  0  0  0  0  0  0  0
   23.4980  -19.4460  -18.2649 C   0  0  0  0  0  0  0  0  0  0  0  0
   23.0957  -18.5296  -19.3539 C   0  0  0  0  0  0  0  0  0  0  0  0
   23.9920  -18.0130  -20.0635 O   0  0  0  0  0  0  0  0  0  0  0  0
   25.2982  -20.9188  -17.4213 C   0  0  0  0  0  0  0  0  0  0  0  0
   24.6854  -21.8461  -16.8245 O   0  0  0  0  0  0  0  0  0  0  0  0
   21.7815  -18.2086  -19.6360 O   0  0  0  0  0  0  0  0  0  0  0  0
   26.5730  -20.5393  -16.9306 N   0  0  0  0  0  0  0  0  0  0  0  0
   27.0956  -21.1306  -15.7246 C   0  0  1  0  0  0  0  0  0  0  0  0
   28.5660  -20.7856  -15.6553 C   0  0  0  0  0  0  0  0  0  0  0  0
   29.2429  -21.6238  -16.6921 C   0  0  0  0  0  0  0  0  0  0  0  0
   29.2037  -22.8694  -16.5412 O   0  0  0  0  0  0  0  0  0  0  0  0
   26.3373  -20.6039  -14.5741 C   0  0  0  0  0  0  0  0  0  0  0  0
   26.1359  -19.3499  -14.4604 O   0  0  0  0  0  0  0  0  0  0  0  0
   29.9004  -21.1114  -17.7939 O   0  0  0  0  0  0  0  0  0  0  0  0
   20.2331  -19.3993   -8.3512 O   0  0  0  0  0  0  0  0  0  0  0  0
   21.0395  -19.8296   -9.4094 C   0  0  0  0  0  0  0  0  0  0  0  0
   20.9711  -19.2434  -10.6538 C   0  0  0  0  0  0  0  0  0  0  0  0
   21.7730  -19.6792  -11.6882 C   0  0  0  0  0  0  0  0  0  0  0  0
   22.6737  -20.7080  -11.5431 C   0  0  0  0  0  0  0  0  0  0  0  0
   23.5402  -21.2115  -12.6224 C   0  0  0  0  0  0  0  0  0  0  0  0
   25.0018  -20.8508  -12.4722 C   0  0  2  0  0  0  0  0  0  0  0  0
   25.7941  -21.4090  -13.5479 N   0  0  0  0  0  0  0  0  0  0  0  0
   25.4929  -21.4094  -11.2016 C   0  0  0  0  0  0  0  0  0  0  0  0
   25.9179  -22.7486  -11.2041 O   0  0  0  0  0  0  0  0  0  0  0  0
   22.7320  -21.2885  -10.2838 C   0  0  0  0  0  0  0  0  0  0  0  0
   21.9312  -20.8575   -9.2394 C   0  0  0  0  0  0  0  0  0  0  0  0
   25.5493  -20.7505  -10.1278 O   0  0  0  0  0  0  0  0  0  0  0  0
  2  1  1  6
  2  3  1  0
  2  6  1  0
  3  4  1  0
  4  5  2  0
  4  8  1  0
  6  7  2  0
  9  6  1  0
  9 10  1  0
 10 11  1  1
 12 11  1  0
 13 12  2  0
 14 10  1  0
 14 15  2  0
 16 12  1  0
 18 19  2  0
 18 17  1  0
 20 19  1  0
 21 20  2  0
 22 21  1  0
 23 24  1  0
 23 22  1  6
 24 14  1  0
 25 23  1  0
 26 25  1  0
 27 21  1  0
 27 28  2  0
 28 18  1  0
 29 25  2  0
M  END
$$$$
