DDY.pdb
     RDKit          3D

 29 29  0  0  1  0  0  0  0  0999 V2000
   17.4125   -2.2391  -14.3737 N   0  0  0  0  0  0  0  0  0  0  0  0
   18.5447   -3.0999  -14.6237 C   0  0  1  0  0  0  0  0  0  0  0  0
   19.8715   -2.4619  -14.3001 C   0  0  0  0  0  0  0  0  0  0  0  0
   20.1665   -1.3135  -15.1841 C   0  0  0  0  0  0  0  0  0  0  0  0
   20.8166   -0.3484  -14.7153 O   0  0  0  0  0  0  0  0  0  0  0  0
   18.3487   -4.3662  -13.8799 C   0  0  0  0  0  0  0  0  0  0  0  0
   19.2338   -5.2608  -13.7913 O   0  0  0  0  0  0  0  0  0  0  0  0
   19.7648   -1.2426  -16.5045 O   0  0  0  0  0  0  0  0  0  0  0  0
   17.1071   -4.5912  -13.2336 N   0  0  0  0  0  0  0  0  0  0  0  0
   16.8631   -5.8271  -12.5333 C   0  0  1  0  0  0  0  0  0  0  0  0
   15.5730   -5.6601  -11.7629 C   0  0  0  0  0  0  0  0  0  0  0  0
   15.9495   -5.0912  -10.4324 C   0  0  0  0  0  0  0  0  0  0  0  0
   17.1728   -5.0281  -10.1582 O   0  0  0  0  0  0  0  0  0  0  0  0
   16.7945   -6.9222  -13.5191 C   0  0  0  0  0  0  0  0  0  0  0  0
   16.1773   -6.7527  -14.6220 O   0  0  0  0  0  0  0  0  0  0  0  0
   15.0382   -4.6358   -9.4990 O   0  0  0  0  0  0  0  0  0  0  0  0
   18.5936  -13.9903  -18.5578 O   0  0  0  0  0  0  0  0  0  0  0  0
   18.5807  -12.9170  -17.6617 C   0  0  0  0  0  0  0  0  0  0  0  0
   17.6938  -11.8723  -17.7994 C   0  0  0  0  0  0  0  0  0  0  0  0
   17.6934  -10.8199  -16.9074 C   0  0  0  0  0  0  0  0  0  0  0  0
   18.5636  -10.7504  -15.8450 C   0  0  0  0  0  0  0  0  0  0  0  0
   18.6045   -9.6415  -14.8765 C   0  0  0  0  0  0  0  0  0  0  0  0
   17.2552   -9.2494  -14.3157 C   0  0  2  0  0  0  0  0  0  0  0  0
   17.3812   -8.1939  -13.3326 N   0  0  0  0  0  0  0  0  0  0  0  0
   16.6641  -10.4249  -13.6551 C   0  0  0  0  0  0  0  0  0  0  0  0
   15.7745  -11.2111  -14.4065 O   0  0  0  0  0  0  0  0  0  0  0  0
   19.4507  -11.8101  -15.7187 C   0  0  0  0  0  0  0  0  0  0  0  0
   19.4582  -12.8708  -16.6090 C   0  0  0  0  0  0  0  0  0  0  0  0
   16.9166  -10.7536  -12.4640 O   0  0  0  0  0  0  0  0  0  0  0  0
  2  1  1  1
  2  3  1  0
  2  6  1  0
  3  4  1  0
  4  5  2  0
  4  8  1  0
  6  7  2  0
  9  6  1  0
  9 10  1  0
 10 11  1  6
 12 11  1  0
 13 12  2  0
 14 10  1  0
 14 15  2  0
 16 12  1  0
 18 19  2  0
 18 17  1  0
 20 19  1  0
 21 20  2  0
 22 21  1  0
 23 24  1  0
 23 22  1  1
 24 14  1  0
 25 23  1  0
 26 25  1  0
 27 21  1  0
 27 28  2  0
 28 18  1  0
 29 25  2  0
M  END
$$$$
