DDY.pdb
     RDKit          3D

 29 29  0  0  1  0  0  0  0  0999 V2000
   16.8298  -13.0004  -16.2736 N   0  0  0  0  0  0  0  0  0  0  0  0
   18.1557  -13.4879  -16.5725 C   0  0  1  0  0  0  0  0  0  0  0  0
   18.1933  -14.4782  -17.7083 C   0  0  0  0  0  0  0  0  0  0  0  0
   17.4612  -15.7220  -17.3858 C   0  0  0  0  0  0  0  0  0  0  0  0
   16.2713  -15.8326  -17.7676 O   0  0  0  0  0  0  0  0  0  0  0  0
   19.0397  -12.3264  -16.8274 C   0  0  0  0  0  0  0  0  0  0  0  0
   20.2518  -12.4389  -17.1586 O   0  0  0  0  0  0  0  0  0  0  0  0
   18.0162  -16.7754  -16.6843 O   0  0  0  0  0  0  0  0  0  0  0  0
   18.5040  -11.0207  -16.6940 N   0  0  0  0  0  0  0  0  0  0  0  0
   19.3520   -9.8655  -16.8481 C   0  0  1  0  0  0  0  0  0  0  0  0
   18.7924   -9.0459  -17.9886 C   0  0  0  0  0  0  0  0  0  0  0  0
   19.7251   -7.8919  -18.1732 C   0  0  0  0  0  0  0  0  0  0  0  0
   19.3185   -6.7597  -17.8145 O   0  0  0  0  0  0  0  0  0  0  0  0
   19.3715   -9.1214  -15.5745 C   0  0  0  0  0  0  0  0  0  0  0  0
   18.2942   -8.9579  -14.9123 O   0  0  0  0  0  0  0  0  0  0  0  0
   20.9940   -7.9998  -18.7089 O   0  0  0  0  0  0  0  0  0  0  0  0
   21.5700   -5.9749   -7.6396 O   0  0  0  0  0  0  0  0  0  0  0  0
   21.5976   -6.5325   -8.9216 C   0  0  0  0  0  0  0  0  0  0  0  0
   22.1455   -5.8584   -9.9904 C   0  0  0  0  0  0  0  0  0  0  0  0
   22.1651   -6.4214  -11.2496 C   0  0  0  0  0  0  0  0  0  0  0  0
   21.6473   -7.6683  -11.5105 C   0  0  0  0  0  0  0  0  0  0  0  0
   21.6377   -8.3018  -12.8401 C   0  0  0  0  0  0  0  0  0  0  0  0
   20.5064   -7.8539  -13.7392 C   0  0  2  0  0  0  0  0  0  0  0  0
   20.5340   -8.5534  -15.0067 N   0  0  0  0  0  0  0  0  0  0  0  0
   20.6625   -6.4143  -14.0050 C   0  0  0  0  0  0  0  0  0  0  0  0
   19.9148   -5.5250  -13.2149 O   0  0  0  0  0  0  0  0  0  0  0  0
   21.0993   -8.3357  -10.4241 C   0  0  0  0  0  0  0  0  0  0  0  0
   21.0755   -7.7786   -9.1565 C   0  0  0  0  0  0  0  0  0  0  0  0
   21.4255   -5.9501  -14.8954 O   0  0  0  0  0  0  0  0  0  0  0  0
  2  1  1  6
  2  3  1  0
  2  6  1  0
  3  4  1  0
  4  5  2  0
  4  8  1  0
  6  7  2  0
  9  6  1  0
  9 10  1  0
 10 11  1  6
 12 11  1  0
 13 12  2  0
 14 10  1  0
 14 15  2  0
 16 12  1  0
 18 19  2  0
 18 17  1  0
 20 19  1  0
 21 20  2  0
 22 21  1  0
 23 24  1  0
 23 22  1  1
 24 14  1  0
 25 23  1  0
 26 25  1  0
 27 21  1  0
 27 28  2  0
 28 18  1  0
 29 25  2  0
M  END
$$$$
