DDY.pdb
     RDKit          3D

 29 29  0  0  1  0  0  0  0  0999 V2000
   25.4169  -22.2308  -16.9691 N   0  0  0  0  0  0  0  0  0  0  0  0
   26.2625  -21.2379  -16.3491 C   0  0  1  0  0  0  0  0  0  0  0  0
   26.8084  -20.2198  -17.3174 C   0  0  0  0  0  0  0  0  0  0  0  0
   27.7836  -19.3108  -16.6772 C   0  0  0  0  0  0  0  0  0  0  0  0
   28.6136  -19.7949  -15.8706 O   0  0  0  0  0  0  0  0  0  0  0  0
   25.5083  -20.5974  -15.2463 C   0  0  0  0  0  0  0  0  0  0  0  0
   25.0235  -19.4352  -15.3232 O   0  0  0  0  0  0  0  0  0  0  0  0
   27.8332  -17.9509  -16.9184 O   0  0  0  0  0  0  0  0  0  0  0  0
   25.3184  -21.3200  -14.0415 N   0  0  0  0  0  0  0  0  0  0  0  0
   24.5515  -20.7498  -12.9625 C   0  0  1  0  0  0  0  0  0  0  0  0
   23.1666  -21.3528  -13.0277 C   0  0  0  0  0  0  0  0  0  0  0  0
   22.3061  -20.5258  -12.1270 C   0  0  0  0  0  0  0  0  0  0  0  0
   22.1207  -19.3268  -12.4490 O   0  0  0  0  0  0  0  0  0  0  0  0
   25.2365  -21.0447  -11.6898 C   0  0  0  0  0  0  0  0  0  0  0  0
   25.4135  -22.2531  -11.3233 O   0  0  0  0  0  0  0  0  0  0  0  0
   21.7100  -21.0010  -10.9747 O   0  0  0  0  0  0  0  0  0  0  0  0
   29.2915  -20.1082   -3.7631 O   0  0  0  0  0  0  0  0  0  0  0  0
   28.7234  -19.8959   -5.0230 C   0  0  0  0  0  0  0  0  0  0  0  0
   29.1907  -20.5449   -6.1443 C   0  0  0  0  0  0  0  0  0  0  0  0
   28.6201  -20.3248   -7.3808 C   0  0  0  0  0  0  0  0  0  0  0  0
   27.5684  -19.4586   -7.5666 C   0  0  0  0  0  0  0  0  0  0  0  0
   26.9373  -19.1861   -8.8691 C   0  0  0  0  0  0  0  0  0  0  0  0
   26.2907  -20.3911   -9.5162 C   0  0  2  0  0  0  0  0  0  0  0  0
   25.7323  -20.0568  -10.8097 N   0  0  0  0  0  0  0  0  0  0  0  0
   25.1957  -20.8561   -8.6490 C   0  0  0  0  0  0  0  0  0  0  0  0
   25.4974  -21.8470   -7.6996 O   0  0  0  0  0  0  0  0  0  0  0  0
   27.1079  -18.8124   -6.4280 C   0  0  0  0  0  0  0  0  0  0  0  0
   27.6743  -19.0274   -5.1826 C   0  0  0  0  0  0  0  0  0  0  0  0
   24.0173  -20.4119   -8.7179 O   0  0  0  0  0  0  0  0  0  0  0  0
  2  1  1  6
  2  3  1  0
  2  6  1  0
  3  4  1  0
  4  5  2  0
  4  8  1  0
  6  7  2  0
  9  6  1  0
  9 10  1  0
 10 11  1  1
 12 11  1  0
 13 12  2  0
 14 10  1  0
 14 15  2  0
 16 12  1  0
 18 19  2  0
 18 17  1  0
 20 19  1  0
 21 20  2  0
 22 21  1  0
 23 24  1  0
 23 22  1  1
 24 14  1  0
 25 23  1  0
 26 25  1  0
 27 21  1  0
 27 28  2  0
 28 18  1  0
 29 25  2  0
M  END
$$$$
