DDY.pdb
     RDKit          3D

 29 29  0  0  1  0  0  0  0  0999 V2000
   20.3782   -9.8045  -16.5523 N   0  0  0  0  0  0  0  0  0  0  0  0
   20.3699   -8.9049  -17.6819 C   0  0  1  0  0  0  0  0  0  0  0  0
   20.2178   -9.6033  -19.0090 C   0  0  0  0  0  0  0  0  0  0  0  0
   21.4878  -10.2055  -19.4692 C   0  0  0  0  0  0  0  0  0  0  0  0
   22.4948  -10.1202  -18.7259 O   0  0  0  0  0  0  0  0  0  0  0  0
   19.3103   -7.8911  -17.4705 C   0  0  0  0  0  0  0  0  0  0  0  0
   19.0319   -6.9950  -18.3138 O   0  0  0  0  0  0  0  0  0  0  0  0
   21.6291  -10.8607  -20.6777 O   0  0  0  0  0  0  0  0  0  0  0  0
   18.5686   -7.9228  -16.2628 N   0  0  0  0  0  0  0  0  0  0  0  0
   17.4341   -7.0526  -16.0809 C   0  0  1  0  0  0  0  0  0  0  0  0
   16.6944   -7.5293  -14.8515 C   0  0  0  0  0  0  0  0  0  0  0  0
   16.0063   -8.7982  -15.2416 C   0  0  0  0  0  0  0  0  0  0  0  0
   16.3454   -9.8460  -14.6391 O   0  0  0  0  0  0  0  0  0  0  0  0
   17.9199   -5.6664  -15.9455 C   0  0  0  0  0  0  0  0  0  0  0  0
   19.0188   -5.4293  -15.3436 O   0  0  0  0  0  0  0  0  0  0  0  0
   15.0296   -8.8817  -16.2152 O   0  0  0  0  0  0  0  0  0  0  0  0
   19.3413    3.0041  -17.2811 O   0  0  0  0  0  0  0  0  0  0  0  0
   18.9934    1.6526  -17.3687 C   0  0  0  0  0  0  0  0  0  0  0  0
   19.9093    0.6943  -17.7425 C   0  0  0  0  0  0  0  0  0  0  0  0
   19.5511   -0.6353  -17.8248 C   0  0  0  0  0  0  0  0  0  0  0  0
   18.2797   -1.0777  -17.5440 C   0  0  0  0  0  0  0  0  0  0  0  0
   17.8523   -2.4845  -17.6295 C   0  0  0  0  0  0  0  0  0  0  0  0
   17.7608   -3.1937  -16.2962 C   0  0  2  0  0  0  0  0  0  0  0  0
   17.2390   -4.5356  -16.4493 N   0  0  0  0  0  0  0  0  0  0  0  0
   16.8421   -2.4393  -15.4277 C   0  0  0  0  0  0  0  0  0  0  0  0
   17.4062   -1.4970  -14.5514 O   0  0  0  0  0  0  0  0  0  0  0  0
   17.3681   -0.1011  -17.1682 C   0  0  0  0  0  0  0  0  0  0  0  0
   17.7187    1.2359  -17.0825 C   0  0  0  0  0  0  0  0  0  0  0  0
   15.5909   -2.5975  -15.4349 O   0  0  0  0  0  0  0  0  0  0  0  0
  2  1  1  1
  2  3  1  0
  2  6  1  0
  3  4  1  0
  4  5  2  0
  4  8  1  0
  6  7  2  0
  9  6  1  0
  9 10  1  0
 10 11  1  1
 12 11  1  0
 13 12  2  0
 14 10  1  0
 14 15  2  0
 16 12  1  0
 18 19  2  0
 18 17  1  0
 20 19  1  0
 21 20  2  0
 22 21  1  0
 23 24  1  0
 23 22  1  6
 24 14  1  0
 25 23  1  0
 26 25  1  0
 27 21  1  0
 27 28  2  0
 28 18  1  0
 29 25  2  0
M  END
$$$$
