DDY.pdb
     RDKit          3D

 29 29  0  0  1  0  0  0  0  0999 V2000
   18.0799   -9.4757  -17.9907 N   0  0  0  0  0  0  0  0  0  0  0  0
   19.1388   -9.4849  -17.0090 C   0  0  1  0  0  0  0  0  0  0  0  0
   19.8699  -10.8001  -16.9214 C   0  0  0  0  0  0  0  0  0  0  0  0
   19.0059  -11.8831  -16.4038 C   0  0  0  0  0  0  0  0  0  0  0  0
   17.8122  -11.6156  -16.1257 O   0  0  0  0  0  0  0  0  0  0  0  0
   20.0614   -8.3623  -17.2989 C   0  0  0  0  0  0  0  0  0  0  0  0
   21.1809   -8.2232  -16.7341 O   0  0  0  0  0  0  0  0  0  0  0  0
   19.4408  -13.1802  -16.2082 O   0  0  0  0  0  0  0  0  0  0  0  0
   19.6735   -7.3921  -18.2571 N   0  0  0  0  0  0  0  0  0  0  0  0
   20.5427   -6.2848  -18.5664 C   0  0  1  0  0  0  0  0  0  0  0  0
   20.0000   -5.6216  -19.8120 C   0  0  0  0  0  0  0  0  0  0  0  0
   20.2274   -6.5845  -20.9330 C   0  0  0  0  0  0  0  0  0  0  0  0
   19.2457   -6.8567  -21.6666 O   0  0  0  0  0  0  0  0  0  0  0  0
   20.5737   -5.3717  -17.4083 C   0  0  0  0  0  0  0  0  0  0  0  0
   19.4871   -4.9027  -16.9338 O   0  0  0  0  0  0  0  0  0  0  0  0
   21.4422   -7.1840  -21.2046 O   0  0  0  0  0  0  0  0  0  0  0  0
   19.6136   -9.1779  -12.1451 O   0  0  0  0  0  0  0  0  0  0  0  0
   20.3176   -8.1111  -12.7122 C   0  0  0  0  0  0  0  0  0  0  0  0
   21.4459   -8.3151  -13.4752 C   0  0  0  0  0  0  0  0  0  0  0  0
   22.1301   -7.2524  -14.0279 C   0  0  0  0  0  0  0  0  0  0  0  0
   21.7348   -5.9469  -13.8537 C   0  0  0  0  0  0  0  0  0  0  0  0
   22.4412   -4.7834  -14.4160 C   0  0  0  0  0  0  0  0  0  0  0  0
   21.7318   -4.1205  -15.5763 C   0  0  2  0  0  0  0  0  0  0  0  0
   21.7574   -4.9591  -16.7564 N   0  0  0  0  0  0  0  0  0  0  0  0
   22.4269   -2.8616  -15.8916 C   0  0  0  0  0  0  0  0  0  0  0  0
   23.0249   -2.7514  -17.1583 O   0  0  0  0  0  0  0  0  0  0  0  0
   20.5961   -5.7569  -13.0833 C   0  0  0  0  0  0  0  0  0  0  0  0
   19.9027   -6.8176  -12.5248 C   0  0  0  0  0  0  0  0  0  0  0  0
   22.5082   -1.8922  -15.0890 O   0  0  0  0  0  0  0  0  0  0  0  0
  2  1  1  6
  2  3  1  0
  2  6  1  0
  3  4  1  0
  4  5  2  0
  4  8  1  0
  6  7  2  0
  9  6  1  0
  9 10  1  0
 10 11  1  6
 12 11  1  0
 13 12  2  0
 14 10  1  0
 14 15  2  0
 16 12  1  0
 18 19  2  0
 18 17  1  0
 20 19  1  0
 21 20  2  0
 22 21  1  0
 23 24  1  0
 23 22  1  1
 24 14  1  0
 25 23  1  0
 26 25  1  0
 27 21  1  0
 27 28  2  0
 28 18  1  0
 29 25  2  0
M  END
$$$$
