DDY.pdb
     RDKit          3D

 29 29  0  0  1  0  0  0  0  0999 V2000
   20.7055  -13.4169  -16.4920 N   0  0  0  0  0  0  0  0  0  0  0  0
   19.3394  -13.0759  -16.8125 C   0  0  1  0  0  0  0  0  0  0  0  0
   18.3212  -13.9402  -16.1137 C   0  0  0  0  0  0  0  0  0  0  0  0
   18.5020  -15.3746  -16.4254 C   0  0  0  0  0  0  0  0  0  0  0  0
   19.4137  -15.7041  -17.2216 O   0  0  0  0  0  0  0  0  0  0  0  0
   19.1309  -11.6381  -16.5219 C   0  0  0  0  0  0  0  0  0  0  0  0
   18.0393  -11.0411  -16.7309 O   0  0  0  0  0  0  0  0  0  0  0  0
   17.7196  -16.3781  -15.8863 O   0  0  0  0  0  0  0  0  0  0  0  0
   20.2071  -10.8892  -15.9826 N   0  0  0  0  0  0  0  0  0  0  0  0
   20.0273   -9.5026  -15.6329 C   0  0  1  0  0  0  0  0  0  0  0  0
   20.3971   -9.3552  -14.1744 C   0  0  0  0  0  0  0  0  0  0  0  0
   20.1829   -7.9159  -13.8306 C   0  0  0  0  0  0  0  0  0  0  0  0
   19.1048   -7.6135  -13.2632 O   0  0  0  0  0  0  0  0  0  0  0  0
   20.8750   -8.6797  -16.5163 C   0  0  0  0  0  0  0  0  0  0  0  0
   22.0557   -9.0625  -16.8086 O   0  0  0  0  0  0  0  0  0  0  0  0
   21.0937   -6.9120  -14.0981 O   0  0  0  0  0  0  0  0  0  0  0  0
   15.4216   -4.8493  -19.9550 O   0  0  0  0  0  0  0  0  0  0  0  0
   16.7199   -5.3534  -19.8299 C   0  0  0  0  0  0  0  0  0  0  0  0
   16.9605   -6.7029  -19.6961 C   0  0  0  0  0  0  0  0  0  0  0  0
   18.2471   -7.1852  -19.5732 C   0  0  0  0  0  0  0  0  0  0  0  0
   19.3490   -6.3626  -19.5762 C   0  0  0  0  0  0  0  0  0  0  0  0
   20.7374   -6.8339  -19.4369 C   0  0  0  0  0  0  0  0  0  0  0  0
   21.2949   -6.7346  -18.0339 C   0  0  2  0  0  0  0  0  0  0  0  0
   20.4676   -7.4533  -17.0875 N   0  0  0  0  0  0  0  0  0  0  0  0
   21.3187   -5.3164  -17.6397 C   0  0  0  0  0  0  0  0  0  0  0  0
   20.5173   -4.9331  -16.5511 O   0  0  0  0  0  0  0  0  0  0  0  0
   19.0911   -5.0058  -19.7123 C   0  0  0  0  0  0  0  0  0  0  0  0
   17.8031   -4.5125  -19.8365 C   0  0  0  0  0  0  0  0  0  0  0  0
   22.0156   -4.4434  -18.2251 O   0  0  0  0  0  0  0  0  0  0  0  0
  2  1  1  1
  2  3  1  0
  2  6  1  0
  3  4  1  0
  4  5  2  0
  4  8  1  0
  6  7  2  0
  9  6  1  0
  9 10  1  0
 10 11  1  1
 12 11  1  0
 13 12  2  0
 14 10  1  0
 14 15  2  0
 16 12  1  0
 18 19  2  0
 18 17  1  0
 20 19  1  0
 21 20  2  0
 22 21  1  0
 23 24  1  0
 23 22  1  6
 24 14  1  0
 25 23  1  0
 26 25  1  0
 27 21  1  0
 27 28  2  0
 28 18  1  0
 29 25  2  0
M  END
$$$$
