DDY.pdb
     RDKit          3D

 29 29  0  0  1  0  0  0  0  0999 V2000
   16.8960  -14.3041  -15.0904 N   0  0  0  0  0  0  0  0  0  0  0  0
   16.8351  -13.0237  -15.7552 C   0  0  1  0  0  0  0  0  0  0  0  0
   15.4552  -12.6605  -16.2412 C   0  0  0  0  0  0  0  0  0  0  0  0
   14.4354  -13.6360  -15.7988 C   0  0  0  0  0  0  0  0  0  0  0  0
   14.3449  -13.8940  -14.5744 O   0  0  0  0  0  0  0  0  0  0  0  0
   17.3856  -11.9923  -14.8451 C   0  0  0  0  0  0  0  0  0  0  0  0
   18.0830  -12.2662  -13.8301 O   0  0  0  0  0  0  0  0  0  0  0  0
   13.5715  -14.2827  -16.6620 O   0  0  0  0  0  0  0  0  0  0  0  0
   17.1193  -10.6276  -15.1218 N   0  0  0  0  0  0  0  0  0  0  0  0
   17.7227   -9.5905  -14.3232 C   0  0  1  0  0  0  0  0  0  0  0  0
   18.2669   -8.5495  -15.2750 C   0  0  0  0  0  0  0  0  0  0  0  0
   18.9619   -7.5306  -14.4297 C   0  0  0  0  0  0  0  0  0  0  0  0
   18.3304   -6.4803  -14.1577 O   0  0  0  0  0  0  0  0  0  0  0  0
   16.7008   -9.0427  -13.4113 C   0  0  0  0  0  0  0  0  0  0  0  0
   15.4975   -8.9017  -13.8091 O   0  0  0  0  0  0  0  0  0  0  0  0
   20.2439   -7.6780  -13.9362 O   0  0  0  0  0  0  0  0  0  0  0  0
   12.1918   -6.3773   -6.2432 O   0  0  0  0  0  0  0  0  0  0  0  0
   13.1505   -6.9079   -7.1118 C   0  0  0  0  0  0  0  0  0  0  0  0
   14.4052   -6.3521   -7.2285 C   0  0  0  0  0  0  0  0  0  0  0  0
   15.3405   -6.8866   -8.0903 C   0  0  0  0  0  0  0  0  0  0  0  0
   15.0818   -7.9877   -8.8723 C   0  0  0  0  0  0  0  0  0  0  0  0
   16.0463   -8.5835   -9.8124 C   0  0  0  0  0  0  0  0  0  0  0  0
   15.9279   -8.0803  -11.2343 C   0  0  2  0  0  0  0  0  0  0  0  0
   16.9581   -8.6464  -12.0797 N   0  0  0  0  0  0  0  0  0  0  0  0
   16.0911   -6.6172  -11.2275 C   0  0  0  0  0  0  0  0  0  0  0  0
   17.3677   -6.1064  -11.5167 O   0  0  0  0  0  0  0  0  0  0  0  0
   13.8139   -8.5372   -8.7437 C   0  0  0  0  0  0  0  0  0  0  0  0
   12.8687   -8.0076   -7.8810 C   0  0  0  0  0  0  0  0  0  0  0  0
   15.1515   -5.8137  -10.9784 O   0  0  0  0  0  0  0  0  0  0  0  0
  2  1  1  1
  2  3  1  0
  2  6  1  0
  3  4  1  0
  4  5  2  0
  4  8  1  0
  6  7  2  0
  9  6  1  0
  9 10  1  0
 10 11  1  6
 12 11  1  0
 13 12  2  0
 14 10  1  0
 14 15  2  0
 16 12  1  0
 18 19  2  0
 18 17  1  0
 20 19  1  0
 21 20  2  0
 22 21  1  0
 23 24  1  0
 23 22  1  1
 24 14  1  0
 25 23  1  0
 26 25  1  0
 27 21  1  0
 27 28  2  0
 28 18  1  0
 29 25  2  0
M  END
$$$$
