TPG.pdb
     RDKit          3D

 19 19  0  0  1  0  0  0  0  0999 V2000
    7.8147  -11.9586   25.7331 C   0  0  0  0  0  0  0  0  0  0  0  0
    7.1244  -12.9218   26.7228 C   0  0  1  0  0  0  0  0  0  0  0  0
    6.2615  -12.0954   27.4453 O   0  0  0  0  0  0  0  0  0  0  0  0
    6.3808  -13.8881   25.8454 C   0  0  2  0  0  0  0  0  0  0  0  0
    5.5911  -14.7136   26.7821 N   0  0  0  0  0  0  0  0  0  0  0  0
    7.1890  -14.7752   25.0187 C   0  0  0  0  0  0  0  0  0  0  0  0
    7.6756  -15.8088   25.6154 O   0  0  0  0  0  0  0  0  0  0  0  0
    7.5123  -14.6622   23.6578 N   0  0  0  0  0  0  0  0  0  0  0  0
    7.0924  -13.5941   22.7789 C   0  0  0  0  0  0  0  0  0  0  0  0
    7.7789  -13.7915   21.4695 C   0  0  0  0  0  0  0  0  0  0  0  0
    8.1379  -15.2380   21.4502 C   0  0  0  0  0  0  0  0  0  0  0  0
    8.3306  -15.5944   22.9178 C   0  0  1  0  0  0  0  0  0  0  0  0
    9.7620  -15.4875   23.2659 C   0  0  0  0  0  0  0  0  0  0  0  0
   10.2143  -14.4893   23.8646 O   0  0  0  0  0  0  0  0  0  0  0  0
   10.6467  -16.5340   22.9173 N   0  0  0  0  0  0  0  0  0  0  0  0
   12.0245  -16.5864   23.3287 C   0  0  0  0  0  0  0  0  0  0  0  0
   12.6997  -17.8062   22.8212 C   0  0  0  0  0  0  0  0  0  0  0  0
   13.5383  -17.7202   21.8923 O   0  0  0  0  0  0  0  0  0  0  0  0
   12.4470  -19.0683   23.3316 O   0  0  0  0  0  0  0  0  0  0  0  0
  2  1  1  6
  2  3  1  0
  4  2  1  0
  4  5  1  1
  6  4  1  0
  7  6  2  0
  8  9  1  0
  8  6  1  0
 10 11  1  0
 10  9  1  0
 11 12  1  0
 12  8  1  0
 12 13  1  1
 13 15  1  0
 14 13  2  0
 15 16  1  0
 16 17  1  0
 17 19  1  0
 18 17  2  0
M  END
$$$$
