TPG.pdb
     RDKit          3D

 19 19  0  0  1  0  0  0  0  0999 V2000
    7.3575  -17.8321   17.9322 C   0  0  0  0  0  0  0  0  0  0  0  0
    8.5330  -17.7157   16.9378 C   0  0  1  0  0  0  0  0  0  0  0  0
    8.0522  -18.3302   15.7800 O   0  0  0  0  0  0  0  0  0  0  0  0
    8.7233  -16.2367   16.7569 C   0  0  2  0  0  0  0  0  0  0  0  0
    9.6426  -16.1149   15.6068 N   0  0  0  0  0  0  0  0  0  0  0  0
    9.2949  -15.5088   17.8825 C   0  0  0  0  0  0  0  0  0  0  0  0
   10.4743  -15.8783   18.2482 O   0  0  0  0  0  0  0  0  0  0  0  0
    8.7397  -14.4565   18.6266 N   0  0  0  0  0  0  0  0  0  0  0  0
    7.4358  -13.8706   18.4121 C   0  0  0  0  0  0  0  0  0  0  0  0
    7.1944  -12.8929   19.5125 C   0  0  0  0  0  0  0  0  0  0  0  0
    8.5560  -12.5459   20.0095 C   0  0  0  0  0  0  0  0  0  0  0  0
    9.3818  -13.7961   19.7391 C   0  0  1  0  0  0  0  0  0  0  0  0
    9.4121  -14.6374   20.9528 C   0  0  0  0  0  0  0  0  0  0  0  0
    8.4845  -15.4295   21.2200 O   0  0  0  0  0  0  0  0  0  0  0  0
   10.5121  -14.5501   21.8371 N   0  0  0  0  0  0  0  0  0  0  0  0
   10.6584  -15.3653   23.0137 C   0  0  0  0  0  0  0  0  0  0  0  0
   11.5151  -16.5487   22.7548 C   0  0  0  0  0  0  0  0  0  0  0  0
   12.5981  -16.4174   22.1357 O   0  0  0  0  0  0  0  0  0  0  0  0
   11.1740  -17.8245   23.1711 O   0  0  0  0  0  0  0  0  0  0  0  0
  2  1  1  1
  2  3  1  0
  4  2  1  0
  4  5  1  6
  6  4  1  0
  7  6  2  0
  8  9  1  0
  8  6  1  0
 10 11  1  0
 10  9  1  0
 11 12  1  0
 12  8  1  0
 12 13  1  1
 13 15  1  0
 14 13  2  0
 15 16  1  0
 16 17  1  0
 17 19  1  0
 18 17  2  0
M  END
$$$$
