TPG.pdb
     RDKit          3D

 19 19  0  0  1  0  0  0  0  0999 V2000
    7.3198  -13.2605   19.7802 C   0  0  0  0  0  0  0  0  0  0  0  0
    7.1327  -13.9828   21.1320 C   0  0  1  0  0  0  0  0  0  0  0  0
    7.1377  -15.3365   20.7901 O   0  0  0  0  0  0  0  0  0  0  0  0
    8.3439  -13.5962   21.9321 C   0  0  2  0  0  0  0  0  0  0  0  0
    9.4883  -14.1101   21.1518 N   0  0  0  0  0  0  0  0  0  0  0  0
    8.4316  -14.1311   23.2848 C   0  0  0  0  0  0  0  0  0  0  0  0
    9.3507  -15.0133   23.4802 O   0  0  0  0  0  0  0  0  0  0  0  0
    7.6531  -13.8184   24.4097 N   0  0  0  0  0  0  0  0  0  0  0  0
    6.6948  -12.7396   24.4965 C   0  0  0  0  0  0  0  0  0  0  0  0
    5.9950  -12.8626   25.8079 C   0  0  0  0  0  0  0  0  0  0  0  0
    6.9272  -13.6589   26.6556 C   0  0  0  0  0  0  0  0  0  0  0  0
    7.6774  -14.5362   25.6628 C   0  0  1  0  0  0  0  0  0  0  0  0
    7.0143  -15.8528   25.5711 C   0  0  0  0  0  0  0  0  0  0  0  0
    5.8464  -15.9659   25.1436 O   0  0  0  0  0  0  0  0  0  0  0  0
    7.7100  -17.0160   25.9741 N   0  0  0  0  0  0  0  0  0  0  0  0
    8.0443  -17.3140   27.3414 C   0  0  0  0  0  0  0  0  0  0  0  0
    8.8513  -18.5545   27.4481 C   0  0  0  0  0  0  0  0  0  0  0  0
    8.4433  -19.5116   28.1488 O   0  0  0  0  0  0  0  0  0  0  0  0
   10.0632  -18.7166   26.7982 O   0  0  0  0  0  0  0  0  0  0  0  0
  2  1  1  6
  2  3  1  0
  4  2  1  0
  4  5  1  6
  6  4  1  0
  7  6  2  0
  8  9  1  0
  8  6  1  0
 10 11  1  0
 10  9  1  0
 11 12  1  0
 12  8  1  0
 12 13  1  6
 13 15  1  0
 14 13  2  0
 15 16  1  0
 16 17  1  0
 17 19  1  0
 18 17  2  0
M  END
$$$$
