TPG.pdb
     RDKit          3D

 19 19  0  0  1  0  0  0  0  0999 V2000
    9.9211  -13.6398   28.6836 C   0  0  0  0  0  0  0  0  0  0  0  0
   10.0479  -15.1760   28.5945 C   0  0  1  0  0  0  0  0  0  0  0  0
   10.5339  -15.5438   29.8507 O   0  0  0  0  0  0  0  0  0  0  0  0
    8.6417  -15.6537   28.3690 C   0  0  2  0  0  0  0  0  0  0  0  0
    8.6972  -17.1100   28.6112 N   0  0  0  0  0  0  0  0  0  0  0  0
    8.0796  -15.4284   27.0436 C   0  0  0  0  0  0  0  0  0  0  0  0
    8.2477  -16.3828   26.1938 O   0  0  0  0  0  0  0  0  0  0  0  0
    7.3769  -14.3138   26.5607 N   0  0  0  0  0  0  0  0  0  0  0  0
    7.0620  -13.1242   27.3192 C   0  0  0  0  0  0  0  0  0  0  0  0
    6.4421  -12.1431   26.3822 C   0  0  0  0  0  0  0  0  0  0  0  0
    5.9250  -12.9748   25.2586 C   0  0  0  0  0  0  0  0  0  0  0  0
    6.8641  -14.1725   25.2179 C   0  0  1  0  0  0  0  0  0  0  0  0
    7.9333  -13.9256   24.2293 C   0  0  0  0  0  0  0  0  0  0  0  0
    9.0865  -13.6031   24.5835 O   0  0  0  0  0  0  0  0  0  0  0  0
    7.6536  -14.0551   22.8492 N   0  0  0  0  0  0  0  0  0  0  0  0
    7.7597  -15.2937   22.1248 C   0  0  0  0  0  0  0  0  0  0  0  0
    9.1689  -15.6058   21.7810 C   0  0  0  0  0  0  0  0  0  0  0  0
    9.5853  -15.4260   20.6114 O   0  0  0  0  0  0  0  0  0  0  0  0
   10.0733  -16.0981   22.7067 O   0  0  0  0  0  0  0  0  0  0  0  0
  2  1  1  1
  2  3  1  0
  4  2  1  0
  4  5  1  6
  6  4  1  0
  7  6  2  0
  8  9  1  0
  8  6  1  0
 10 11  1  0
 10  9  1  0
 11 12  1  0
 12  8  1  0
 12 13  1  6
 13 15  1  0
 14 13  2  0
 15 16  1  0
 16 17  1  0
 17 19  1  0
 18 17  2  0
M  END
$$$$
