TPG.pdb
     RDKit          3D

 19 19  0  0  1  0  0  0  0  0999 V2000
    8.8704  -13.3046   17.0610 C   0  0  0  0  0  0  0  0  0  0  0  0
    8.8660  -14.1666   18.3420 C   0  0  1  0  0  0  0  0  0  0  0  0
    9.4347  -15.3744   17.9329 O   0  0  0  0  0  0  0  0  0  0  0  0
    9.7511  -13.4187   19.2978 C   0  0  2  0  0  0  0  0  0  0  0  0
   11.0478  -13.3071   18.5987 N   0  0  0  0  0  0  0  0  0  0  0  0
    9.9802  -14.0377   20.5970 C   0  0  0  0  0  0  0  0  0  0  0  0
   11.1448  -14.5619   20.7707 O   0  0  0  0  0  0  0  0  0  0  0  0
    9.1074  -14.1426   21.6908 N   0  0  0  0  0  0  0  0  0  0  0  0
    7.7686  -13.6012   21.7541 C   0  0  0  0  0  0  0  0  0  0  0  0
    7.1528  -14.0692   23.0295 C   0  0  0  0  0  0  0  0  0  0  0  0
    8.3127  -14.4039   23.9037 C   0  0  0  0  0  0  0  0  0  0  0  0
    9.4055  -14.8226   22.9298 C   0  0  1  0  0  0  0  0  0  0  0  0
    9.3963  -16.2922   22.7825 C   0  0  0  0  0  0  0  0  0  0  0  0
    8.6433  -16.8605   21.9644 O   0  0  0  0  0  0  0  0  0  0  0  0
   10.2561  -17.0807   23.5817 N   0  0  0  0  0  0  0  0  0  0  0  0
   10.4972  -18.4809   23.3552 C   0  0  0  0  0  0  0  0  0  0  0  0
   11.4457  -19.0394   24.3500 C   0  0  0  0  0  0  0  0  0  0  0  0
   12.5934  -18.5475   24.4695 O   0  0  0  0  0  0  0  0  0  0  0  0
   11.1233  -20.1031   25.1759 O   0  0  0  0  0  0  0  0  0  0  0  0
  2  1  1  6
  2  3  1  0
  4  2  1  0
  4  5  1  6
  6  4  1  0
  7  6  2  0
  8  9  1  0
  8  6  1  0
 10 11  1  0
 10  9  1  0
 11 12  1  0
 12  8  1  0
 12 13  1  6
 13 15  1  0
 14 13  2  0
 15 16  1  0
 16 17  1  0
 17 19  1  0
 18 17  2  0
M  END
$$$$
