TPG.pdb
     RDKit          3D

 19 19  0  0  1  0  0  0  0  0999 V2000
    7.8587  -14.3668   18.3092 C   0  0  0  0  0  0  0  0  0  0  0  0
    9.3660  -14.4175   17.9782 C   0  0  1  0  0  0  0  0  0  0  0  0
    9.4511  -13.8195   16.7194 O   0  0  0  0  0  0  0  0  0  0  0  0
   10.0108  -13.5819   19.0470 C   0  0  2  0  0  0  0  0  0  0  0  0
   11.3770  -13.3237   18.5477 N   0  0  0  0  0  0  0  0  0  0  0  0
   10.1102  -14.1793   20.3724 C   0  0  0  0  0  0  0  0  0  0  0  0
   11.2017  -14.8191   20.6185 O   0  0  0  0  0  0  0  0  0  0  0  0
    9.1808  -14.1546   21.4236 N   0  0  0  0  0  0  0  0  0  0  0  0
    7.9172  -13.4526   21.4134 C   0  0  0  0  0  0  0  0  0  0  0  0
    7.1895  -13.8160   22.6637 C   0  0  0  0  0  0  0  0  0  0  0  0
    8.2572  -14.2720   23.5984 C   0  0  0  0  0  0  0  0  0  0  0  0
    9.3347  -14.8406   22.6853 C   0  0  1  0  0  0  0  0  0  0  0  0
    9.1519  -16.3008   22.5590 C   0  0  0  0  0  0  0  0  0  0  0  0
    8.5013  -16.7969   21.6156 O   0  0  0  0  0  0  0  0  0  0  0  0
    9.7229  -17.1633   23.5232 N   0  0  0  0  0  0  0  0  0  0  0  0
   11.0734  -17.0419   24.0042 C   0  0  0  0  0  0  0  0  0  0  0  0
   11.3971  -18.0983   24.9946 C   0  0  0  0  0  0  0  0  0  0  0  0
   12.1485  -19.0506   24.6752 O   0  0  0  0  0  0  0  0  0  0  0  0
   10.9008  -18.0890   26.2873 O   0  0  0  0  0  0  0  0  0  0  0  0
  2  1  1  1
  2  3  1  0
  4  2  1  0
  4  5  1  6
  6  4  1  0
  7  6  2  0
  8  9  1  0
  8  6  1  0
 10 11  1  0
 10  9  1  0
 11 12  1  0
 12  8  1  0
 12 13  1  6
 13 15  1  0
 14 13  2  0
 15 16  1  0
 16 17  1  0
 17 19  1  0
 18 17  2  0
M  END
$$$$
