TPG.pdb
     RDKit          3D

 19 19  0  0  1  0  0  0  0  0999 V2000
    9.5945  -16.0241   17.1739 C   0  0  0  0  0  0  0  0  0  0  0  0
   11.1146  -15.8398   17.3728 C   0  0  1  0  0  0  0  0  0  0  0  0
   11.6132  -15.7558   16.0713 O   0  0  0  0  0  0  0  0  0  0  0  0
   11.2387  -14.5382   18.1121 C   0  0  2  0  0  0  0  0  0  0  0  0
   12.6825  -14.2262   18.0821 N   0  0  0  0  0  0  0  0  0  0  0  0
   10.7946  -14.5299   19.5000 C   0  0  0  0  0  0  0  0  0  0  0  0
   11.6302  -15.0047   20.3588 O   0  0  0  0  0  0  0  0  0  0  0  0
    9.5799  -14.0746   20.0353 N   0  0  0  0  0  0  0  0  0  0  0  0
    8.5083  -13.4585   19.2858 C   0  0  0  0  0  0  0  0  0  0  0  0
    7.3586  -13.2679   20.2168 C   0  0  0  0  0  0  0  0  0  0  0  0
    7.9728  -13.2725   21.5748 C   0  0  0  0  0  0  0  0  0  0  0  0
    9.2006  -14.1605   21.4263 C   0  0  1  0  0  0  0  0  0  0  0  0
    8.8625  -15.5392   21.8341 C   0  0  0  0  0  0  0  0  0  0  0  0
    8.4326  -16.3751   21.0121 O   0  0  0  0  0  0  0  0  0  0  0  0
    9.0263  -15.9296   23.1834 N   0  0  0  0  0  0  0  0  0  0  0  0
   10.1656  -15.5724   23.9862 C   0  0  0  0  0  0  0  0  0  0  0  0
   11.1753  -16.6592   24.0150 C   0  0  0  0  0  0  0  0  0  0  0  0
   12.2327  -16.5176   24.6748 O   0  0  0  0  0  0  0  0  0  0  0  0
   11.0084  -17.8535   23.3344 O   0  0  0  0  0  0  0  0  0  0  0  0
  2  1  1  6
  2  3  1  0
  4  2  1  0
  4  5  1  1
  6  4  1  0
  7  6  2  0
  8  9  1  0
  8  6  1  0
 10 11  1  0
 10  9  1  0
 11 12  1  0
 12  8  1  0
 12 13  1  6
 13 15  1  0
 14 13  2  0
 15 16  1  0
 16 17  1  0
 17 19  1  0
 18 17  2  0
M  END
$$$$
