TPG.pdb
     RDKit          3D

 19 19  0  0  1  0  0  0  0  0999 V2000
    6.7097  -18.9189   25.7816 C   0  0  0  0  0  0  0  0  0  0  0  0
    6.8391  -19.2373   24.2763 C   0  0  1  0  0  0  0  0  0  0  0  0
    5.8505  -20.1975   24.0526 O   0  0  0  0  0  0  0  0  0  0  0  0
    6.5303  -17.9363   23.5921 C   0  0  2  0  0  0  0  0  0  0  0  0
    6.4186  -18.2830   22.1603 N   0  0  0  0  0  0  0  0  0  0  0  0
    7.5174  -16.8735   23.7328 C   0  0  0  0  0  0  0  0  0  0  0  0
    8.6206  -17.0442   23.0885 O   0  0  0  0  0  0  0  0  0  0  0  0
    7.4347  -15.6846   24.4737 N   0  0  0  0  0  0  0  0  0  0  0  0
    6.3437  -15.3102   25.3451 C   0  0  0  0  0  0  0  0  0  0  0  0
    6.7337  -14.0490   26.0394 C   0  0  0  0  0  0  0  0  0  0  0  0
    7.7789  -13.4479   25.1631 C   0  0  0  0  0  0  0  0  0  0  0  0
    8.4378  -14.6456   24.4925 C   0  0  1  0  0  0  0  0  0  0  0  0
    9.6401  -15.0367   25.2560 C   0  0  0  0  0  0  0  0  0  0  0  0
   10.6248  -14.2753   25.3563 O   0  0  0  0  0  0  0  0  0  0  0  0
    9.6855  -16.2996   25.8907 N   0  0  0  0  0  0  0  0  0  0  0  0
   10.8037  -16.7636   26.6683 C   0  0  0  0  0  0  0  0  0  0  0  0
   10.5544  -18.1136   27.2310 C   0  0  0  0  0  0  0  0  0  0  0  0
   10.6040  -18.2969   28.4710 O   0  0  0  0  0  0  0  0  0  0  0  0
   10.2621  -19.2116   26.4396 O   0  0  0  0  0  0  0  0  0  0  0  0
  2  1  1  1
  2  3  1  0
  4  2  1  0
  4  5  1  6
  6  4  1  0
  7  6  2  0
  8  9  1  0
  8  6  1  0
 10 11  1  0
 10  9  1  0
 11 12  1  0
 12  8  1  0
 12 13  1  1
 13 15  1  0
 14 13  2  0
 15 16  1  0
 16 17  1  0
 17 19  1  0
 18 17  2  0
M  END
$$$$
