TPG.pdb
     RDKit          3D

 19 19  0  0  1  0  0  0  0  0999 V2000
    8.5813  -16.7486   18.5901 C   0  0  0  0  0  0  0  0  0  0  0  0
    9.5317  -15.6877   17.9939 C   0  0  1  0  0  0  0  0  0  0  0  0
    9.2759  -15.7443   16.6224 O   0  0  0  0  0  0  0  0  0  0  0  0
    9.0739  -14.3930   18.6024 C   0  0  2  0  0  0  0  0  0  0  0  0
    9.8147  -13.3493   17.8645 N   0  0  0  0  0  0  0  0  0  0  0  0
    9.3248  -14.2157   20.0269 C   0  0  0  0  0  0  0  0  0  0  0  0
   10.5637  -14.1251   20.3709 O   0  0  0  0  0  0  0  0  0  0  0  0
    8.4029  -14.1281   21.0813 N   0  0  0  0  0  0  0  0  0  0  0  0
    6.9649  -14.1922   20.9493 C   0  0  0  0  0  0  0  0  0  0  0  0
    6.3861  -14.2072   22.3240 C   0  0  0  0  0  0  0  0  0  0  0  0
    7.4481  -13.6106   23.1830 C   0  0  0  0  0  0  0  0  0  0  0  0
    8.7470  -13.9712   22.4753 C   0  0  1  0  0  0  0  0  0  0  0  0
    9.2995  -15.2089   23.0622 C   0  0  0  0  0  0  0  0  0  0  0  0
    9.4913  -15.3182   24.2913 O   0  0  0  0  0  0  0  0  0  0  0  0
    9.6211  -16.2991   22.2209 N   0  0  0  0  0  0  0  0  0  0  0  0
   10.0291  -17.5904   22.7068 C   0  0  0  0  0  0  0  0  0  0  0  0
   11.4206  -17.5655   23.2210 C   0  0  0  0  0  0  0  0  0  0  0  0
   11.9476  -18.6157   23.6601 O   0  0  0  0  0  0  0  0  0  0  0  0
   12.1895  -16.4140   23.2428 O   0  0  0  0  0  0  0  0  0  0  0  0
  2  1  1  1
  2  3  1  0
  4  2  1  0
  4  5  1  6
  6  4  1  0
  7  6  2  0
  8  9  1  0
  8  6  1  0
 10 11  1  0
 10  9  1  0
 11 12  1  0
 12  8  1  0
 12 13  1  1
 13 15  1  0
 14 13  2  0
 15 16  1  0
 16 17  1  0
 17 19  1  0
 18 17  2  0
M  END
$$$$
