TPG.pdb
     RDKit          3D

 19 19  0  0  1  0  0  0  0  0999 V2000
    5.8833  -15.3863   22.0893 C   0  0  0  0  0  0  0  0  0  0  0  0
    7.3096  -15.5874   21.5330 C   0  0  1  0  0  0  0  0  0  0  0  0
    7.1436  -15.4966   20.1496 O   0  0  0  0  0  0  0  0  0  0  0  0
    8.0922  -14.4310   22.0866 C   0  0  2  0  0  0  0  0  0  0  0  0
    9.3325  -14.3995   21.2846 N   0  0  0  0  0  0  0  0  0  0  0  0
    8.4567  -14.5034   23.4957 C   0  0  0  0  0  0  0  0  0  0  0  0
    9.4885  -15.2248   23.7714 O   0  0  0  0  0  0  0  0  0  0  0  0
    7.8399  -13.8943   24.5993 N   0  0  0  0  0  0  0  0  0  0  0  0
    6.6905  -13.0193   24.5441 C   0  0  0  0  0  0  0  0  0  0  0  0
    6.2822  -12.7224   25.9477 C   0  0  0  0  0  0  0  0  0  0  0  0
    7.5078  -12.9803   26.7558 C   0  0  0  0  0  0  0  0  0  0  0  0
    8.2507  -14.0553   25.9746 C   0  0  1  0  0  0  0  0  0  0  0  0
    7.9023  -15.3851   26.5148 C   0  0  0  0  0  0  0  0  0  0  0  0
    7.0655  -16.1195   25.9492 O   0  0  0  0  0  0  0  0  0  0  0  0
    8.5252  -15.8445   27.6982 N   0  0  0  0  0  0  0  0  0  0  0  0
    9.9401  -16.0762   27.8186 C   0  0  0  0  0  0  0  0  0  0  0  0
   10.3090  -17.4433   27.3754 C   0  0  0  0  0  0  0  0  0  0  0  0
    9.6272  -18.4293   27.7448 O   0  0  0  0  0  0  0  0  0  0  0  0
   11.3946  -17.6959   26.5539 O   0  0  0  0  0  0  0  0  0  0  0  0
  2  1  1  1
  2  3  1  0
  4  2  1  0
  4  5  1  6
  6  4  1  0
  7  6  2  0
  8  9  1  0
  8  6  1  0
 10 11  1  0
 10  9  1  0
 11 12  1  0
 12  8  1  0
 12 13  1  1
 13 15  1  0
 14 13  2  0
 15 16  1  0
 16 17  1  0
 17 19  1  0
 18 17  2  0
M  END
$$$$
