TPG.pdb
     RDKit          3D

 19 19  0  0  1  0  0  0  0  0999 V2000
    6.0194  -18.5971   17.0931 C   0  0  0  0  0  0  0  0  0  0  0  0
    6.6551  -17.8970   18.3137 C   0  0  1  0  0  0  0  0  0  0  0  0
    7.3491  -18.9210   18.9613 O   0  0  0  0  0  0  0  0  0  0  0  0
    7.5802  -16.8749   17.7173 C   0  0  2  0  0  0  0  0  0  0  0  0
    8.4217  -17.6371   16.7721 N   0  0  0  0  0  0  0  0  0  0  0  0
    8.4541  -16.1654   18.6428 C   0  0  0  0  0  0  0  0  0  0  0  0
    9.6322  -16.6653   18.7963 O   0  0  0  0  0  0  0  0  0  0  0  0
    8.1924  -15.0086   19.3929 N   0  0  0  0  0  0  0  0  0  0  0  0
    6.9650  -14.2456   19.3623 C   0  0  0  0  0  0  0  0  0  0  0  0
    7.0624  -13.1925   20.4141 C   0  0  0  0  0  0  0  0  0  0  0  0
    8.5258  -13.0294   20.6451 C   0  0  0  0  0  0  0  0  0  0  0  0
    9.1087  -14.3999   20.3288 C   0  0  1  0  0  0  0  0  0  0  0  0
    9.2394  -15.1787   21.5770 C   0  0  0  0  0  0  0  0  0  0  0  0
    8.2436  -15.6801   22.1396 O   0  0  0  0  0  0  0  0  0  0  0  0
   10.5166  -15.3654   22.1546 N   0  0  0  0  0  0  0  0  0  0  0  0
   10.7583  -16.1850   23.3122 C   0  0  0  0  0  0  0  0  0  0  0  0
   12.1925  -16.1837   23.6920 C   0  0  0  0  0  0  0  0  0  0  0  0
   12.5642  -16.7526   24.7464 O   0  0  0  0  0  0  0  0  0  0  0  0
   13.1691  -15.5718   22.9243 O   0  0  0  0  0  0  0  0  0  0  0  0
  2  1  1  6
  2  3  1  0
  4  2  1  0
  4  5  1  6
  6  4  1  0
  7  6  2  0
  8  9  1  0
  8  6  1  0
 10 11  1  0
 10  9  1  0
 11 12  1  0
 12  8  1  0
 12 13  1  1
 13 15  1  0
 14 13  2  0
 15 16  1  0
 16 17  1  0
 17 19  1  0
 18 17  2  0
M  END
$$$$
