TPG.pdb
     RDKit          3D

 19 19  0  0  1  0  0  0  0  0999 V2000
    6.1387  -15.3441   20.5357 C   0  0  0  0  0  0  0  0  0  0  0  0
    7.4031  -14.7666   19.8635 C   0  0  1  0  0  0  0  0  0  0  0  0
    6.9661  -14.4033   18.5882 O   0  0  0  0  0  0  0  0  0  0  0  0
    7.7587  -13.5722   20.7021 C   0  0  2  0  0  0  0  0  0  0  0  0
    8.7198  -12.8093   19.8794 N   0  0  0  0  0  0  0  0  0  0  0  0
    8.3724  -13.8416   21.9961 C   0  0  0  0  0  0  0  0  0  0  0  0
    9.5658  -14.3273   21.9603 O   0  0  0  0  0  0  0  0  0  0  0  0
    7.8447  -13.6445   23.2814 N   0  0  0  0  0  0  0  0  0  0  0  0
    6.5836  -13.0065   23.5846 C   0  0  0  0  0  0  0  0  0  0  0  0
    6.3507  -13.1424   25.0516 C   0  0  0  0  0  0  0  0  0  0  0  0
    7.7079  -13.3640   25.6264 C   0  0  0  0  0  0  0  0  0  0  0  0
    8.4761  -14.0611   24.5119 C   0  0  1  0  0  0  0  0  0  0  0  0
    8.4127  -15.5232   24.7110 C   0  0  0  0  0  0  0  0  0  0  0  0
    7.4531  -16.1982   24.2834 O   0  0  0  0  0  0  0  0  0  0  0  0
    9.4577  -16.1813   25.3999 N   0  0  0  0  0  0  0  0  0  0  0  0
    9.8795  -17.5271   25.1153 C   0  0  0  0  0  0  0  0  0  0  0  0
   11.0261  -17.9311   25.9658 C   0  0  0  0  0  0  0  0  0  0  0  0
   12.1975  -17.6468   25.6183 O   0  0  0  0  0  0  0  0  0  0  0  0
   10.8684  -18.6237   27.1544 O   0  0  0  0  0  0  0  0  0  0  0  0
  2  1  1  1
  2  3  1  0
  4  2  1  0
  4  5  1  6
  6  4  1  0
  7  6  2  0
  8  9  1  0
  8  6  1  0
 10 11  1  0
 10  9  1  0
 11 12  1  0
 12  8  1  0
 12 13  1  1
 13 15  1  0
 14 13  2  0
 15 16  1  0
 16 17  1  0
 17 19  1  0
 18 17  2  0
M  END
$$$$
