TPG.pdb
     RDKit          3D

 19 19  0  0  1  0  0  0  0  0999 V2000
    6.5561  -13.8437   20.2045 C   0  0  0  0  0  0  0  0  0  0  0  0
    6.8291  -14.3105   21.6508 C   0  0  1  0  0  0  0  0  0  0  0  0
    7.4065  -15.5716   21.4906 O   0  0  0  0  0  0  0  0  0  0  0  0
    7.8061  -13.3045   22.1891 C   0  0  2  0  0  0  0  0  0  0  0  0
    8.9706  -13.3913   21.2840 N   0  0  0  0  0  0  0  0  0  0  0  0
    8.2688  -13.5094   23.5557 C   0  0  0  0  0  0  0  0  0  0  0  0
    9.4477  -14.0157   23.6784 O   0  0  0  0  0  0  0  0  0  0  0  0
    7.6086  -13.2305   24.7622 N   0  0  0  0  0  0  0  0  0  0  0  0
    6.3056  -12.6170   24.8861 C   0  0  0  0  0  0  0  0  0  0  0  0
    5.9297  -12.6446   26.3293 C   0  0  0  0  0  0  0  0  0  0  0  0
    7.2277  -12.7701   27.0511 C   0  0  0  0  0  0  0  0  0  0  0  0
    8.1240  -13.5247   26.0789 C   0  0  1  0  0  0  0  0  0  0  0  0
    8.0827  -14.9678   26.3909 C   0  0  0  0  0  0  0  0  0  0  0  0
    8.4649  -15.4070   27.4956 O   0  0  0  0  0  0  0  0  0  0  0  0
    7.6010  -15.8792   25.4229 N   0  0  0  0  0  0  0  0  0  0  0  0
    7.5484  -17.3032   25.6221 C   0  0  0  0  0  0  0  0  0  0  0  0
    8.6813  -17.7803   26.4529 C   0  0  0  0  0  0  0  0  0  0  0  0
    9.8587  -17.6666   26.0355 O   0  0  0  0  0  0  0  0  0  0  0  0
    8.5037  -18.3600   27.6979 O   0  0  0  0  0  0  0  0  0  0  0  0
  2  1  1  6
  2  3  1  0
  4  2  1  0
  4  5  1  6
  6  4  1  0
  7  6  2  0
  8  9  1  0
  8  6  1  0
 10 11  1  0
 10  9  1  0
 11 12  1  0
 12  8  1  0
 12 13  1  1
 13 15  1  0
 14 13  2  0
 15 16  1  0
 16 17  1  0
 17 19  1  0
 18 17  2  0
M  END
$$$$
