TPG.pdb
     RDKit          3D

 19 19  0  0  1  0  0  0  0  0999 V2000
    7.7703  -16.3269   18.3555 C   0  0  0  0  0  0  0  0  0  0  0  0
    8.6571  -15.1713   17.8434 C   0  0  1  0  0  0  0  0  0  0  0  0
    8.1078  -14.8559   16.5991 O   0  0  0  0  0  0  0  0  0  0  0  0
    8.4541  -14.0725   18.8472 C   0  0  2  0  0  0  0  0  0  0  0  0
    9.0755  -12.8823   18.2309 N   0  0  0  0  0  0  0  0  0  0  0  0
    9.0470  -14.2720   20.1634 C   0  0  0  0  0  0  0  0  0  0  0  0
   10.3091  -14.5333   20.1760 O   0  0  0  0  0  0  0  0  0  0  0  0
    8.4343  -14.2182   21.4247 N   0  0  0  0  0  0  0  0  0  0  0  0
    7.0566  -13.8602   21.6765 C   0  0  0  0  0  0  0  0  0  0  0  0
    6.7928  -14.0761   23.1286 C   0  0  0  0  0  0  0  0  0  0  0  0
    8.1400  -14.0279   23.7643 C   0  0  0  0  0  0  0  0  0  0  0  0
    9.0835  -14.5255   22.6778 C   0  0  1  0  0  0  0  0  0  0  0  0
    9.3145  -15.9738   22.8527 C   0  0  0  0  0  0  0  0  0  0  0  0
    8.8127  -16.8123   22.0752 O   0  0  0  0  0  0  0  0  0  0  0  0
   10.1203  -16.4296   23.9215 N   0  0  0  0  0  0  0  0  0  0  0  0
   11.5432  -16.2279   23.9923 C   0  0  0  0  0  0  0  0  0  0  0  0
   12.2855  -17.3556   23.3769 C   0  0  0  0  0  0  0  0  0  0  0  0
   12.1107  -18.5256   23.7941 O   0  0  0  0  0  0  0  0  0  0  0  0
   13.1850  -17.1811   22.3387 O   0  0  0  0  0  0  0  0  0  0  0  0
  2  1  1  1
  2  3  1  0
  4  2  1  0
  4  5  1  6
  6  4  1  0
  7  6  2  0
  8  9  1  0
  8  6  1  0
 10 11  1  0
 10  9  1  0
 11 12  1  0
 12  8  1  0
 12 13  1  1
 13 15  1  0
 14 13  2  0
 15 16  1  0
 16 17  1  0
 17 19  1  0
 18 17  2  0
M  END
$$$$
