TPG.pdb
     RDKit          3D

 19 19  0  0  1  0  0  0  0  0999 V2000
    7.2006  -16.2209   18.2458 C   0  0  0  0  0  0  0  0  0  0  0  0
    8.2384  -15.2516   17.6398 C   0  0  1  0  0  0  0  0  0  0  0  0
    7.7023  -14.9270   16.3920 O   0  0  0  0  0  0  0  0  0  0  0  0
    8.2437  -14.0775   18.5767 C   0  0  2  0  0  0  0  0  0  0  0  0
    8.9277  -13.0033   17.8278 N   0  0  0  0  0  0  0  0  0  0  0  0
    8.9295  -14.2603   19.8494 C   0  0  0  0  0  0  0  0  0  0  0  0
   10.2137  -14.3509   19.7863 O   0  0  0  0  0  0  0  0  0  0  0  0
    8.3858  -14.3507   21.1400 N   0  0  0  0  0  0  0  0  0  0  0  0
    6.9856  -14.2196   21.4744 C   0  0  0  0  0  0  0  0  0  0  0  0
    6.8377  -14.5298   22.9258 C   0  0  0  0  0  0  0  0  0  0  0  0
    8.1948  -14.2989   23.4974 C   0  0  0  0  0  0  0  0  0  0  0  0
    9.1419  -14.6024   22.3446 C   0  0  1  0  0  0  0  0  0  0  0  0
    9.5998  -16.0033   22.4403 C   0  0  0  0  0  0  0  0  0  0  0  0
    9.0762  -16.9082   21.7572 O   0  0  0  0  0  0  0  0  0  0  0  0
   10.6538  -16.3361   23.3223 N   0  0  0  0  0  0  0  0  0  0  0  0
   11.3633  -17.5872   23.2839 C   0  0  0  0  0  0  0  0  0  0  0  0
   12.8132  -17.3852   23.0422 C   0  0  0  0  0  0  0  0  0  0  0  0
   13.6573  -18.0455   23.6941 O   0  0  0  0  0  0  0  0  0  0  0  0
   13.2976  -16.4827   22.1104 O   0  0  0  0  0  0  0  0  0  0  0  0
  2  1  1  1
  2  3  1  0
  4  2  1  0
  4  5  1  6
  6  4  1  0
  7  6  2  0
  8  9  1  0
  8  6  1  0
 10 11  1  0
 10  9  1  0
 11 12  1  0
 12  8  1  0
 12 13  1  6
 13 15  1  0
 14 13  2  0
 15 16  1  0
 16 17  1  0
 17 19  1  0
 18 17  2  0
M  END
$$$$
