VAT.pdb
     RDKit          3D

 20 19  0  0  1  0  0  0  0  0999 V2000
   15.5037  -13.9660  -16.1338 C   0  0  0  0  0  0  0  0  0  0  0  0
   16.5967  -14.2120  -17.1370 C   0  0  1  0  0  0  0  0  0  0  0  0
   16.1385  -13.6097  -18.4551 C   0  0  0  0  0  0  0  0  0  0  0  0
   17.8497  -13.5031  -16.7316 C   0  0  2  0  0  0  0  0  0  0  0  0
   18.3818  -14.2090  -15.5371 N   0  0  0  0  0  0  0  0  0  0  0  0
   17.7297  -12.0977  -16.3854 C   0  0  0  0  0  0  0  0  0  0  0  0
   17.5404  -11.2619  -17.3381 O   0  0  0  0  0  0  0  0  0  0  0  0
   17.3909   -9.7746  -13.4230 C   0  0  0  0  0  0  0  0  0  0  0  0
   17.6961  -10.0944  -14.8553 C   0  0  2  0  0  0  0  0  0  0  0  0
   17.7935  -11.5159  -15.1095 N   0  0  0  0  0  0  0  0  0  0  0  0
   18.9103   -9.3703  -15.3385 C   0  0  0  0  0  0  0  0  0  0  0  0
   20.0382   -9.9277  -15.3615 O   0  0  0  0  0  0  0  0  0  0  0  0
   20.6514   -5.4825  -17.7674 C   0  0  0  0  0  0  0  0  0  0  0  0
   19.4488   -6.2572  -17.2460 C   0  0  1  0  0  0  0  0  0  0  0  0
   18.8705   -6.9409  -18.3154 O   0  0  0  0  0  0  0  0  0  0  0  0
   19.9481   -7.3144  -16.2755 C   0  0  2  0  0  0  0  0  0  0  0  0
   18.7908   -8.0371  -15.7773 N   0  0  0  0  0  0  0  0  0  0  0  0
   20.6474   -6.6604  -15.1385 C   0  0  0  0  0  0  0  0  0  0  0  0
   20.0000   -6.2170  -14.1649 O   0  0  0  0  0  0  0  0  0  0  0  0
   22.0293   -6.5360  -15.1481 O   0  0  0  0  0  0  0  0  0  0  0  0
  2  1  1  1
  2  4  1  0
  3  2  1  0
  4  5  1  1
  6  4  1  0
  7  6  2  0
  9 10  1  0
  9  8  1  1
 10  6  1  0
 11  9  1  0
 12 11  2  0
 14 13  1  6
 14 15  1  0
 16 14  1  0
 16 17  1  1
 17 11  1  0
 18 20  1  0
 18 16  1  0
 19 18  2  0
M  END
$$$$
