VAT.pdb
     RDKit          3D

 20 19  0  0  1  0  0  0  0  0999 V2000
   36.8114  -30.7008  -18.1657 C   0  0  0  0  0  0  0  0  0  0  0  0
   36.2162  -29.3743  -17.7815 C   0  0  1  0  0  0  0  0  0  0  0  0
   36.2652  -28.4875  -19.0150 C   0  0  0  0  0  0  0  0  0  0  0  0
   34.7785  -29.5349  -17.4016 C   0  0  2  0  0  0  0  0  0  0  0  0
   34.3020  -28.2080  -16.9319 N   0  0  0  0  0  0  0  0  0  0  0  0
   34.4761  -30.4975  -16.3570 C   0  0  0  0  0  0  0  0  0  0  0  0
   34.6148  -30.1215  -15.1399 O   0  0  0  0  0  0  0  0  0  0  0  0
   32.7452  -33.7939  -15.8128 C   0  0  0  0  0  0  0  0  0  0  0  0
   33.6767  -32.6918  -15.4072 C   0  0  2  0  0  0  0  0  0  0  0  0
   34.0380  -31.8227  -16.5068 N   0  0  0  0  0  0  0  0  0  0  0  0
   34.8880  -33.2183  -14.7087 C   0  0  0  0  0  0  0  0  0  0  0  0
   36.0066  -33.2624  -15.2831 O   0  0  0  0  0  0  0  0  0  0  0  0
   36.9430  -34.4534  -10.4407 C   0  0  0  0  0  0  0  0  0  0  0  0
   35.7146  -33.9563  -11.1904 C   0  0  1  0  0  0  0  0  0  0  0  0
   35.6240  -32.5753  -11.0167 O   0  0  0  0  0  0  0  0  0  0  0  0
   35.9352  -34.1925  -12.6751 C   0  0  2  0  0  0  0  0  0  0  0  0
   34.7761  -33.6745  -13.3808 N   0  0  0  0  0  0  0  0  0  0  0  0
   36.0608  -35.6502  -12.9372 C   0  0  0  0  0  0  0  0  0  0  0  0
   35.0968  -36.2975  -13.4015 O   0  0  0  0  0  0  0  0  0  0  0  0
   37.2528  -36.3072  -12.6679 O   0  0  0  0  0  0  0  0  0  0  0  0
  2  1  1  6
  2  4  1  0
  3  2  1  0
  4  5  1  1
  6  4  1  0
  7  6  2  0
  9 10  1  0
  9  8  1  6
 10  6  1  0
 11  9  1  0
 12 11  2  0
 14 13  1  1
 14 15  1  0
 16 14  1  0
 16 17  1  6
 17 11  1  0
 18 20  1  0
 18 16  1  0
 19 18  2  0
M  END
$$$$
