VAT.pdb
     RDKit          3D

 20 19  0  0  1  0  0  0  0  0999 V2000
   17.9969  -12.3807  -18.5640 C   0  0  0  0  0  0  0  0  0  0  0  0
   18.2148  -11.4897  -17.3722 C   0  0  1  0  0  0  0  0  0  0  0  0
   18.5792  -12.3885  -16.2019 C   0  0  0  0  0  0  0  0  0  0  0  0
   19.3709  -10.5708  -17.6088 C   0  0  2  0  0  0  0  0  0  0  0  0
   20.4805  -11.3982  -18.1495 N   0  0  0  0  0  0  0  0  0  0  0  0
   19.8886   -9.8524  -16.4576 C   0  0  0  0  0  0  0  0  0  0  0  0
   19.0901   -9.0670  -15.8350 O   0  0  0  0  0  0  0  0  0  0  0  0
   22.8685   -9.6714  -14.1457 C   0  0  0  0  0  0  0  0  0  0  0  0
   21.6301   -9.1223  -14.7873 C   0  0  2  0  0  0  0  0  0  0  0  0
   21.1839   -9.9062  -15.9192 N   0  0  0  0  0  0  0  0  0  0  0  0
   21.7860   -7.6814  -15.1504 C   0  0  0  0  0  0  0  0  0  0  0  0
   22.2741   -7.3351  -16.2572 O   0  0  0  0  0  0  0  0  0  0  0  0
   19.7207   -5.1235  -15.9916 C   0  0  0  0  0  0  0  0  0  0  0  0
   20.3402   -4.5801  -14.7113 C   0  0  1  0  0  0  0  0  0  0  0  0
   19.5153   -4.9300  -13.6423 O   0  0  0  0  0  0  0  0  0  0  0  0
   21.6653   -5.2887  -14.4857 C   0  0  2  0  0  0  0  0  0  0  0  0
   21.3785   -6.6905  -14.2358 N   0  0  0  0  0  0  0  0  0  0  0  0
   22.3491   -4.7070  -13.3011 C   0  0  0  0  0  0  0  0  0  0  0  0
   22.4371   -5.3563  -12.2360 O   0  0  0  0  0  0  0  0  0  0  0  0
   22.8974   -3.4341  -13.3674 O   0  0  0  0  0  0  0  0  0  0  0  0
  2  1  1  6
  2  4  1  0
  3  2  1  0
  4  5  1  1
  6  4  1  0
  7  6  2  0
  9 10  1  0
  9  8  1  6
 10  6  1  0
 11  9  1  0
 12 11  2  0
 14 13  1  6
 14 15  1  0
 16 14  1  0
 16 17  1  1
 17 11  1  0
 18 20  1  0
 18 16  1  0
 19 18  2  0
M  END
$$$$
