VAT.pdb
     RDKit          3D

 20 19  0  0  1  0  0  0  0  0999 V2000
   18.7417  -12.6841  -16.5114 C   0  0  0  0  0  0  0  0  0  0  0  0
   18.0378  -11.8167  -17.5182 C   0  0  1  0  0  0  0  0  0  0  0  0
   16.7158  -11.3941  -16.8985 C   0  0  0  0  0  0  0  0  0  0  0  0
   18.8268  -10.5739  -17.7825 C   0  0  2  0  0  0  0  0  0  0  0  0
   19.9529  -10.9551  -18.6740 N   0  0  0  0  0  0  0  0  0  0  0  0
   19.3970   -9.8975  -16.6307 C   0  0  0  0  0  0  0  0  0  0  0  0
   18.5965   -9.2782  -15.8449 O   0  0  0  0  0  0  0  0  0  0  0  0
   22.5193   -9.7116  -14.5534 C   0  0  0  0  0  0  0  0  0  0  0  0
   21.2297   -9.1484  -15.0699 C   0  0  2  0  0  0  0  0  0  0  0  0
   20.7470   -9.8309  -16.2515 N   0  0  0  0  0  0  0  0  0  0  0  0
   21.3178   -7.6734  -15.2909 C   0  0  0  0  0  0  0  0  0  0  0  0
   21.6496   -7.1982  -16.4077 O   0  0  0  0  0  0  0  0  0  0  0  0
   20.0755   -3.1939  -14.0101 C   0  0  0  0  0  0  0  0  0  0  0  0
   19.8752   -4.7032  -13.9923 C   0  0  1  0  0  0  0  0  0  0  0  0
   18.9520   -5.0346  -14.9840 O   0  0  0  0  0  0  0  0  0  0  0  0
   21.1871   -5.3620  -14.3844 C   0  0  2  0  0  0  0  0  0  0  0  0
   21.0235   -6.7968  -14.2282 N   0  0  0  0  0  0  0  0  0  0  0  0
   22.2730   -4.8893  -13.4862 C   0  0  0  0  0  0  0  0  0  0  0  0
   22.4655   -5.4378  -12.3790 O   0  0  0  0  0  0  0  0  0  0  0  0
   23.0851   -3.8320  -13.8703 O   0  0  0  0  0  0  0  0  0  0  0  0
  2  1  1  1
  2  4  1  0
  3  2  1  0
  4  5  1  6
  6  4  1  0
  7  6  2  0
  9 10  1  0
  9  8  1  6
 10  6  1  0
 11  9  1  0
 12 11  2  0
 14 13  1  6
 14 15  1  0
 16 14  1  0
 16 17  1  1
 17 11  1  0
 18 20  1  0
 18 16  1  0
 19 18  2  0
M  END
$$$$
