VAT.pdb
     RDKit          3D

 20 19  0  0  1  0  0  0  0  0999 V2000
   29.1632  -24.5890  -19.4162 C   0  0  0  0  0  0  0  0  0  0  0  0
   30.0614  -25.2330  -18.3964 C   0  0  1  0  0  0  0  0  0  0  0  0
   31.3159  -25.6844  -19.1263 C   0  0  0  0  0  0  0  0  0  0  0  0
   30.4786  -24.2370  -17.3616 C   0  0  2  0  0  0  0  0  0  0  0  0
   31.2407  -24.9803  -16.3248 N   0  0  0  0  0  0  0  0  0  0  0  0
   29.4209  -23.5095  -16.6823 C   0  0  0  0  0  0  0  0  0  0  0  0
   28.7350  -24.1376  -15.8008 O   0  0  0  0  0  0  0  0  0  0  0  0
   27.9000  -20.0546  -16.3569 C   0  0  0  0  0  0  0  0  0  0  0  0
   27.9122  -21.5461  -16.2085 C   0  0  2  0  0  0  0  0  0  0  0  0
   29.0396  -22.1712  -16.8665 N   0  0  0  0  0  0  0  0  0  0  0  0
   26.6203  -22.1573  -16.6437 C   0  0  0  0  0  0  0  0  0  0  0  0
   26.4006  -22.4309  -17.8521 O   0  0  0  0  0  0  0  0  0  0  0  0
   24.1411  -24.1021  -13.8610 C   0  0  0  0  0  0  0  0  0  0  0  0
   24.2529  -24.3722  -15.3553 C   0  0  1  0  0  0  0  0  0  0  0  0
   23.0612  -24.9551  -15.7858 O   0  0  0  0  0  0  0  0  0  0  0  0
   24.3662  -23.0376  -16.0730 C   0  0  2  0  0  0  0  0  0  0  0  0
   25.6280  -22.4331  -15.6827 N   0  0  0  0  0  0  0  0  0  0  0  0
   23.2468  -22.1507  -15.6611 C   0  0  0  0  0  0  0  0  0  0  0  0
   23.4536  -21.1760  -14.9055 O   0  0  0  0  0  0  0  0  0  0  0  0
   21.9585  -22.3979  -16.1131 O   0  0  0  0  0  0  0  0  0  0  0  0
  2  1  1  6
  2  4  1  0
  3  2  1  0
  4  5  1  1
  6  4  1  0
  7  6  2  0
  9 10  1  0
  9  8  1  6
 10  6  1  0
 11  9  1  0
 12 11  2  0
 14 13  1  1
 14 15  1  0
 16 14  1  0
 16 17  1  1
 17 11  1  0
 18 20  1  0
 18 16  1  0
 19 18  2  0
M  END
$$$$
