VAT.pdb
     RDKit          3D

 20 19  0  0  1  0  0  0  0  0999 V2000
   18.0503  -14.1424  -17.6210 C   0  0  0  0  0  0  0  0  0  0  0  0
   17.4672  -12.9155  -16.9758 C   0  0  1  0  0  0  0  0  0  0  0  0
   17.5975  -13.0955  -15.4722 C   0  0  0  0  0  0  0  0  0  0  0  0
   18.2545  -11.7008  -17.3519 C   0  0  2  0  0  0  0  0  0  0  0  0
   19.6887  -12.0316  -17.1473 N   0  0  0  0  0  0  0  0  0  0  0  0
   17.9817  -10.4823  -16.6100 C   0  0  0  0  0  0  0  0  0  0  0  0
   16.8263   -9.9455  -16.7473 O   0  0  0  0  0  0  0  0  0  0  0  0
   19.1677   -8.4647  -13.6966 C   0  0  0  0  0  0  0  0  0  0  0  0
   18.4799   -8.5882  -15.0226 C   0  0  2  0  0  0  0  0  0  0  0  0
   18.8389   -9.7952  -15.7362 N   0  0  0  0  0  0  0  0  0  0  0  0
   18.6847   -7.3741  -15.8689 C   0  0  0  0  0  0  0  0  0  0  0  0
   19.6596   -7.2849  -16.6594 O   0  0  0  0  0  0  0  0  0  0  0  0
   15.9416   -5.6688  -17.9264 C   0  0  0  0  0  0  0  0  0  0  0  0
   16.5566   -4.6316  -16.9967 C   0  0  1  0  0  0  0  0  0  0  0  0
   15.7951   -4.5830  -15.8291 O   0  0  0  0  0  0  0  0  0  0  0  0
   17.9391   -5.1153  -16.5922 C   0  0  2  0  0  0  0  0  0  0  0  0
   17.7687   -6.3076  -15.7803 N   0  0  0  0  0  0  0  0  0  0  0  0
   18.6218   -4.0665  -15.7900 C   0  0  0  0  0  0  0  0  0  0  0  0
   19.0029   -3.0035  -16.3271 O   0  0  0  0  0  0  0  0  0  0  0  0
   18.8427   -4.2591  -14.4338 O   0  0  0  0  0  0  0  0  0  0  0  0
  2  1  1  6
  2  4  1  0
  3  2  1  0
  4  5  1  1
  6  4  1  0
  7  6  2  0
  9 10  1  0
  9  8  1  1
 10  6  1  0
 11  9  1  0
 12 11  2  0
 14 13  1  6
 14 15  1  0
 16 14  1  0
 16 17  1  1
 17 11  1  0
 18 20  1  0
 18 16  1  0
 19 18  2  0
M  END
$$$$
