VAT.pdb
     RDKit          3D

 20 19  0  0  1  0  0  0  0  0999 V2000
   15.8456  -13.9444  -15.8468 C   0  0  0  0  0  0  0  0  0  0  0  0
   16.2659  -12.7166  -15.0869 C   0  0  1  0  0  0  0  0  0  0  0  0
   17.5203  -13.0792  -14.3089 C   0  0  0  0  0  0  0  0  0  0  0  0
   16.6267  -11.6138  -16.0306 C   0  0  2  0  0  0  0  0  0  0  0  0
   17.6498  -12.1558  -16.9621 N   0  0  0  0  0  0  0  0  0  0  0  0
   17.1717  -10.3998  -15.4487 C   0  0  0  0  0  0  0  0  0  0  0  0
   16.3937   -9.6820  -14.7267 O   0  0  0  0  0  0  0  0  0  0  0  0
   20.4250   -8.5962  -14.8305 C   0  0  0  0  0  0  0  0  0  0  0  0
   18.9338   -8.6620  -14.9682 C   0  0  2  0  0  0  0  0  0  0  0  0
   18.4752   -9.8939  -15.5739 N   0  0  0  0  0  0  0  0  0  0  0  0
   18.3897   -7.4682  -15.6831 C   0  0  0  0  0  0  0  0  0  0  0  0
   18.2417   -7.4656  -16.9327 O   0  0  0  0  0  0  0  0  0  0  0  0
   15.9992   -5.0079  -13.5694 C   0  0  0  0  0  0  0  0  0  0  0  0
   15.9640   -5.1195  -15.0874 C   0  0  1  0  0  0  0  0  0  0  0  0
   15.4197   -3.9425  -15.6011 O   0  0  0  0  0  0  0  0  0  0  0  0
   17.3952   -5.1913  -15.5926 C   0  0  2  0  0  0  0  0  0  0  0  0
   18.0352   -6.3226  -14.9442 N   0  0  0  0  0  0  0  0  0  0  0  0
   18.1172   -3.9433  -15.2314 C   0  0  0  0  0  0  0  0  0  0  0  0
   18.9819   -3.9484  -14.3280 O   0  0  0  0  0  0  0  0  0  0  0  0
   17.8367   -2.7580  -15.8959 O   0  0  0  0  0  0  0  0  0  0  0  0
  2  1  1  6
  2  4  1  0
  3  2  1  0
  4  5  1  6
  6  4  1  0
  7  6  2  0
  9 10  1  0
  9  8  1  6
 10  6  1  0
 11  9  1  0
 12 11  2  0
 14 13  1  1
 14 15  1  0
 16 14  1  0
 16 17  1  1
 17 11  1  0
 18 20  1  0
 18 16  1  0
 19 18  2  0
M  END
$$$$
