VAT.pdb
     RDKit          3D

 20 19  0  0  1  0  0  0  0  0999 V2000
   16.6134  -10.3302  -17.6297 C   0  0  0  0  0  0  0  0  0  0  0  0
   16.0030  -10.9683  -16.4123 C   0  0  1  0  0  0  0  0  0  0  0  0
   15.5572  -12.3645  -16.8147 C   0  0  0  0  0  0  0  0  0  0  0  0
   17.0250  -11.1181  -15.3307 C   0  0  2  0  0  0  0  0  0  0  0  0
   16.3153  -11.6305  -14.1298 N   0  0  0  0  0  0  0  0  0  0  0  0
   17.7424   -9.9203  -14.9307 C   0  0  0  0  0  0  0  0  0  0  0  0
   17.0726   -8.9815  -14.3722 O   0  0  0  0  0  0  0  0  0  0  0  0
   21.1915   -8.4779  -14.4888 C   0  0  0  0  0  0  0  0  0  0  0  0
   19.7245   -8.3701  -14.7771 C   0  0  2  0  0  0  0  0  0  0  0  0
   19.1113   -9.6464  -15.0770 N   0  0  0  0  0  0  0  0  0  0  0  0
   19.4418   -7.3656  -15.8463 C   0  0  0  0  0  0  0  0  0  0  0  0
   19.5437   -7.6616  -17.0650 O   0  0  0  0  0  0  0  0  0  0  0  0
   16.3410   -5.4945  -16.3207 C   0  0  0  0  0  0  0  0  0  0  0  0
   17.4223   -4.4351  -16.1567 C   0  0  1  0  0  0  0  0  0  0  0  0
   17.4847   -4.0771  -14.8101 O   0  0  0  0  0  0  0  0  0  0  0  0
   18.7618   -5.0652  -16.4998 C   0  0  2  0  0  0  0  0  0  0  0  0
   19.0535   -6.0610  -15.4834 N   0  0  0  0  0  0  0  0  0  0  0  0
   19.8226   -4.0241  -16.4882 C   0  0  0  0  0  0  0  0  0  0  0  0
   20.6605   -3.9812  -15.5610 O   0  0  0  0  0  0  0  0  0  0  0  0
   19.8922   -3.0878  -17.5099 O   0  0  0  0  0  0  0  0  0  0  0  0
  2  1  1  6
  2  4  1  0
  3  2  1  0
  4  5  1  1
  6  4  1  0
  7  6  2  0
  9 10  1  0
  9  8  1  6
 10  6  1  0
 11  9  1  0
 12 11  2  0
 14 13  1  1
 14 15  1  0
 16 14  1  0
 16 17  1  1
 17 11  1  0
 18 20  1  0
 18 16  1  0
 19 18  2  0
M  END
$$$$
