VAT.pdb
     RDKit          3D

 20 19  0  0  1  0  0  0  0  0999 V2000
   17.2919  -12.5260  -18.2779 C   0  0  0  0  0  0  0  0  0  0  0  0
   17.6219  -11.6872  -17.0741 C   0  0  1  0  0  0  0  0  0  0  0  0
   18.1757  -12.6246  -16.0135 C   0  0  0  0  0  0  0  0  0  0  0  0
   18.6946  -10.6980  -17.4025 C   0  0  2  0  0  0  0  0  0  0  0  0
   19.7295  -11.4224  -18.1851 N   0  0  0  0  0  0  0  0  0  0  0  0
   19.3665  -10.0586  -16.2848 C   0  0  0  0  0  0  0  0  0  0  0  0
   18.6602   -9.3346  -15.4982 O   0  0  0  0  0  0  0  0  0  0  0  0
   22.6694   -9.9301  -14.4507 C   0  0  0  0  0  0  0  0  0  0  0  0
   21.3340   -9.3856  -14.8593 C   0  0  2  0  0  0  0  0  0  0  0  0
   20.7254  -10.1312  -15.9403 N   0  0  0  0  0  0  0  0  0  0  0  0
   21.4029   -7.9269  -15.1753 C   0  0  0  0  0  0  0  0  0  0  0  0
   21.6434   -7.5212  -16.3419 O   0  0  0  0  0  0  0  0  0  0  0  0
   20.1146   -3.4174  -14.3093 C   0  0  0  0  0  0  0  0  0  0  0  0
   19.9659   -4.9257  -14.1639 C   0  0  1  0  0  0  0  0  0  0  0  0
   19.1241   -5.3830  -15.1778 O   0  0  0  0  0  0  0  0  0  0  0  0
   21.3234   -5.5635  -14.4077 C   0  0  2  0  0  0  0  0  0  0  0  0
   21.1948   -6.9867  -14.1473 N   0  0  0  0  0  0  0  0  0  0  0  0
   22.3250   -4.9809  -13.4767 C   0  0  0  0  0  0  0  0  0  0  0  0
   22.5126   -5.4860  -12.3483 O   0  0  0  0  0  0  0  0  0  0  0  0
   23.0627   -3.8678  -13.8534 O   0  0  0  0  0  0  0  0  0  0  0  0
  2  1  1  6
  2  4  1  0
  3  2  1  0
  4  5  1  1
  6  4  1  0
  7  6  2  0
  9 10  1  0
  9  8  1  6
 10  6  1  0
 11  9  1  0
 12 11  2  0
 14 13  1  6
 14 15  1  0
 16 14  1  0
 16 17  1  1
 17 11  1  0
 18 20  1  0
 18 16  1  0
 19 18  2  0
M  END
$$$$
