VAT.pdb
     RDKit          3D

 20 19  0  0  1  0  0  0  0  0999 V2000
   18.4057  -15.3694  -19.1051 C   0  0  0  0  0  0  0  0  0  0  0  0
   19.2437  -14.1272  -18.9776 C   0  0  1  0  0  0  0  0  0  0  0  0
   19.2389  -13.4427  -20.3347 C   0  0  0  0  0  0  0  0  0  0  0  0
   18.6311  -13.1800  -17.9956 C   0  0  2  0  0  0  0  0  0  0  0  0
   17.1802  -13.1071  -18.3086 N   0  0  0  0  0  0  0  0  0  0  0  0
   19.1401  -11.8197  -17.9857 C   0  0  0  0  0  0  0  0  0  0  0  0
   20.2874  -11.6152  -17.4529 O   0  0  0  0  0  0  0  0  0  0  0  0
   18.5706   -8.4499  -19.5589 C   0  0  0  0  0  0  0  0  0  0  0  0
   19.1332   -9.3522  -18.5024 C   0  0  2  0  0  0  0  0  0  0  0  0
   18.5261  -10.6661  -18.4982 N   0  0  0  0  0  0  0  0  0  0  0  0
   19.0782   -8.7226  -17.1486 C   0  0  0  0  0  0  0  0  0  0  0  0
   18.0328   -8.7655  -16.4495 O   0  0  0  0  0  0  0  0  0  0  0  0
   20.3254   -9.5280  -14.1707 C   0  0  0  0  0  0  0  0  0  0  0  0
   21.0033   -8.1807  -14.3793 C   0  0  1  0  0  0  0  0  0  0  0  0
   22.2396   -8.4013  -14.9865 O   0  0  0  0  0  0  0  0  0  0  0  0
   20.1730   -7.3780  -15.3668 C   0  0  2  0  0  0  0  0  0  0  0  0
   20.2189   -8.0678  -16.6442 N   0  0  0  0  0  0  0  0  0  0  0  0
   20.7533   -6.0182  -15.5201 C   0  0  0  0  0  0  0  0  0  0  0  0
   20.7420   -5.2112  -14.5649 O   0  0  0  0  0  0  0  0  0  0  0  0
   21.3144   -5.6315  -16.7288 O   0  0  0  0  0  0  0  0  0  0  0  0
  2  1  1  6
  2  4  1  0
  3  2  1  0
  4  5  1  6
  6  4  1  0
  7  6  2  0
  9 10  1  0
  9  8  1  6
 10  6  1  0
 11  9  1  0
 12 11  2  0
 14 13  1  6
 14 15  1  0
 16 14  1  0
 16 17  1  6
 17 11  1  0
 18 20  1  0
 18 16  1  0
 19 18  2  0
M  END
$$$$
