VAT.pdb
     RDKit          3D

 20 19  0  0  1  0  0  0  0  0999 V2000
   19.2137   -9.8087  -18.7964 C   0  0  0  0  0  0  0  0  0  0  0  0
   18.3653  -10.7973  -18.0451 C   0  0  1  0  0  0  0  0  0  0  0  0
   17.9370  -11.8654  -19.0380 C   0  0  0  0  0  0  0  0  0  0  0  0
   19.1672  -11.4724  -16.9783 C   0  0  2  0  0  0  0  0  0  0  0  0
   18.2629  -12.4363  -16.2989 N   0  0  0  0  0  0  0  0  0  0  0  0
   19.7449  -10.6237  -15.9510 C   0  0  0  0  0  0  0  0  0  0  0  0
   18.9451   -9.9262  -15.2329 O   0  0  0  0  0  0  0  0  0  0  0  0
   22.9423   -9.8997  -14.1013 C   0  0  0  0  0  0  0  0  0  0  0  0
   21.6016   -9.5181  -14.6526 C   0  0  2  0  0  0  0  0  0  0  0  0
   21.1017  -10.4621  -15.6292 N   0  0  0  0  0  0  0  0  0  0  0  0
   21.5999   -8.1246  -15.1916 C   0  0  0  0  0  0  0  0  0  0  0  0
   21.8938   -7.8875  -16.3919 O   0  0  0  0  0  0  0  0  0  0  0  0
   20.0724   -3.5773  -14.9914 C   0  0  0  0  0  0  0  0  0  0  0  0
   19.9733   -5.0505  -14.6197 C   0  0  1  0  0  0  0  0  0  0  0  0
   19.1196   -5.6755  -15.5287 O   0  0  0  0  0  0  0  0  0  0  0  0
   21.3427   -5.6818  -14.8073 C   0  0  2  0  0  0  0  0  0  0  0  0
   21.2628   -7.0547  -14.3397 N   0  0  0  0  0  0  0  0  0  0  0  0
   22.3492   -4.9441  -13.9997 C   0  0  0  0  0  0  0  0  0  0  0  0
   22.5062   -5.2059  -12.7870 O   0  0  0  0  0  0  0  0  0  0  0  0
   23.1257   -3.9554  -14.5868 O   0  0  0  0  0  0  0  0  0  0  0  0
  2  1  1  6
  2  4  1  0
  3  2  1  0
  4  5  1  1
  6  4  1  0
  7  6  2  0
  9 10  1  0
  9  8  1  6
 10  6  1  0
 11  9  1  0
 12 11  2  0
 14 13  1  6
 14 15  1  0
 16 14  1  0
 16 17  1  1
 17 11  1  0
 18 20  1  0
 18 16  1  0
 19 18  2  0
M  END
$$$$
