VAT.pdb
     RDKit          3D

 20 19  0  0  1  0  0  0  0  0999 V2000
   20.5422  -15.8636  -19.0451 C   0  0  0  0  0  0  0  0  0  0  0  0
   20.9806  -14.5645  -18.4273 C   0  0  1  0  0  0  0  0  0  0  0  0
   19.7225  -13.8163  -18.0179 C   0  0  0  0  0  0  0  0  0  0  0  0
   21.7765  -14.8162  -17.1862 C   0  0  2  0  0  0  0  0  0  0  0  0
   21.0258  -15.8167  -16.3838 N   0  0  0  0  0  0  0  0  0  0  0  0
   22.0330  -13.6755  -16.3247 C   0  0  0  0  0  0  0  0  0  0  0  0
   21.0621  -13.2321  -15.6157 O   0  0  0  0  0  0  0  0  0  0  0  0
   24.8156  -11.4596  -15.0388 C   0  0  0  0  0  0  0  0  0  0  0  0
   23.3852  -11.7865  -15.3454 C   0  0  2  0  0  0  0  0  0  0  0  0
   23.2379  -12.9745  -16.1589 N   0  0  0  0  0  0  0  0  0  0  0  0
   22.6669  -10.6225  -15.9464 C   0  0  0  0  0  0  0  0  0  0  0  0
   22.8000  -10.3291  -17.1628 O   0  0  0  0  0  0  0  0  0  0  0  0
   19.2409  -10.0074  -16.4157 C   0  0  0  0  0  0  0  0  0  0  0  0
   19.6677   -8.8551  -15.5166 C   0  0  1  0  0  0  0  0  0  0  0  0
   19.4526   -9.2307  -14.1906 O   0  0  0  0  0  0  0  0  0  0  0  0
   21.1663   -8.6590  -15.6735 C   0  0  2  0  0  0  0  0  0  0  0  0
   21.8236   -9.8375  -15.1359 N   0  0  0  0  0  0  0  0  0  0  0  0
   21.5978   -7.4612  -14.9063 C   0  0  0  0  0  0  0  0  0  0  0  0
   22.2621   -7.5861  -13.8542 O   0  0  0  0  0  0  0  0  0  0  0  0
   21.2659   -6.1901  -15.3527 O   0  0  0  0  0  0  0  0  0  0  0  0
  2  1  1  1
  2  4  1  0
  3  2  1  0
  4  5  1  1
  6  4  1  0
  7  6  2  0
  9 10  1  0
  9  8  1  6
 10  6  1  0
 11  9  1  0
 12 11  2  0
 14 13  1  6
 14 15  1  0
 16 14  1  0
 16 17  1  1
 17 11  1  0
 18 20  1  0
 18 16  1  0
 19 18  2  0
M  END
$$$$
