VAT.pdb
     RDKit          3D

 20 19  0  0  1  0  0  0  0  0999 V2000
   19.3185  -13.7895  -16.3370 C   0  0  0  0  0  0  0  0  0  0  0  0
   17.9362  -13.2527  -16.5874 C   0  0  1  0  0  0  0  0  0  0  0  0
   16.9550  -14.2414  -15.9792 C   0  0  0  0  0  0  0  0  0  0  0  0
   17.7467  -11.9447  -15.8871 C   0  0  2  0  0  0  0  0  0  0  0  0
   16.3507  -11.5087  -16.1504 N   0  0  0  0  0  0  0  0  0  0  0  0
   18.6217  -10.8539  -16.2794 C   0  0  0  0  0  0  0  0  0  0  0  0
   19.8210  -10.8583  -15.8282 O   0  0  0  0  0  0  0  0  0  0  0  0
   18.8868   -7.9098  -18.6215 C   0  0  0  0  0  0  0  0  0  0  0  0
   19.2203   -8.6598  -17.3672 C   0  0  2  0  0  0  0  0  0  0  0  0
   18.3209   -9.7647  -17.1122 N   0  0  0  0  0  0  0  0  0  0  0  0
   19.3142   -7.7503  -16.1856 C   0  0  0  0  0  0  0  0  0  0  0  0
   18.3535   -7.6189  -15.3836 O   0  0  0  0  0  0  0  0  0  0  0  0
   22.0876   -5.3421  -13.0321 C   0  0  0  0  0  0  0  0  0  0  0  0
   21.9493   -6.3315  -14.1811 C   0  0  1  0  0  0  0  0  0  0  0  0
   21.9074   -7.6197  -13.6477 O   0  0  0  0  0  0  0  0  0  0  0  0
   20.6064   -6.0969  -14.8521 C   0  0  2  0  0  0  0  0  0  0  0  0
   20.5014   -7.0251  -15.9644 N   0  0  0  0  0  0  0  0  0  0  0  0
   20.5395   -4.7035  -15.3653 C   0  0  0  0  0  0  0  0  0  0  0  0
   21.0333   -4.4114  -16.4764 O   0  0  0  0  0  0  0  0  0  0  0  0
   19.9263   -3.7119  -14.6131 O   0  0  0  0  0  0  0  0  0  0  0  0
  2  1  1  1
  2  4  1  0
  3  2  1  0
  4  5  1  6
  6  4  1  0
  7  6  2  0
  9 10  1  0
  9  8  1  6
 10  6  1  0
 11  9  1  0
 12 11  2  0
 14 13  1  1
 14 15  1  0
 16 14  1  0
 16 17  1  6
 17 11  1  0
 18 20  1  0
 18 16  1  0
 19 18  2  0
M  END
$$$$
