VAT.pdb
     RDKit          3D

 20 19  0  0  1  0  0  0  0  0999 V2000
   16.8353  -15.1740  -15.9606 C   0  0  0  0  0  0  0  0  0  0  0  0
   17.4505  -13.9342  -16.5487 C   0  0  1  0  0  0  0  0  0  0  0  0
   16.5452  -13.4794  -17.6818 C   0  0  0  0  0  0  0  0  0  0  0  0
   17.4864  -12.8351  -15.5349 C   0  0  2  0  0  0  0  0  0  0  0  0
   16.1867  -12.8649  -14.8150 N   0  0  0  0  0  0  0  0  0  0  0  0
   17.6736  -11.4839  -16.0335 C   0  0  0  0  0  0  0  0  0  0  0  0
   18.8233  -11.1765  -16.5084 O   0  0  0  0  0  0  0  0  0  0  0  0
   15.7901   -8.2825  -16.7666 C   0  0  0  0  0  0  0  0  0  0  0  0
   17.0245   -9.0984  -16.5268 C   0  0  2  0  0  0  0  0  0  0  0  0
   16.7357  -10.4401  -16.0672 N   0  0  0  0  0  0  0  0  0  0  0  0
   17.9797   -8.4032  -15.6122 C   0  0  0  0  0  0  0  0  0  0  0  0
   18.1250   -8.7697  -14.4173 O   0  0  0  0  0  0  0  0  0  0  0  0
   21.4168   -7.7253  -16.7039 C   0  0  0  0  0  0  0  0  0  0  0  0
   20.9709   -7.5382  -15.2601 C   0  0  1  0  0  0  0  0  0  0  0  0
   21.9587   -6.8206  -14.5857 O   0  0  0  0  0  0  0  0  0  0  0  0
   19.7248   -6.6686  -15.2558 C   0  0  2  0  0  0  0  0  0  0  0  0
   18.7328   -7.3159  -16.0966 N   0  0  0  0  0  0  0  0  0  0  0  0
   20.0465   -5.3295  -15.8152 C   0  0  0  0  0  0  0  0  0  0  0  0
   20.8165   -4.5549  -15.2061 O   0  0  0  0  0  0  0  0  0  0  0  0
   19.4932   -4.9265  -17.0220 O   0  0  0  0  0  0  0  0  0  0  0  0
  2  1  1  1
  2  4  1  0
  3  2  1  0
  4  5  1  6
  6  4  1  0
  7  6  2  0
  9 10  1  0
  9  8  1  1
 10  6  1  0
 11  9  1  0
 12 11  2  0
 14 13  1  6
 14 15  1  0
 16 14  1  0
 16 17  1  6
 17 11  1  0
 18 20  1  0
 18 16  1  0
 19 18  2  0
M  END
$$$$
