VAT.pdb
     RDKit          3D

 20 19  0  0  1  0  0  0  0  0999 V2000
   18.5099  -10.7791  -19.5520 C   0  0  0  0  0  0  0  0  0  0  0  0
   18.9025  -11.8249  -18.5451 C   0  0  1  0  0  0  0  0  0  0  0  0
   19.3576  -13.0480  -19.3243 C   0  0  0  0  0  0  0  0  0  0  0  0
   20.0641  -11.3561  -17.7279 C   0  0  2  0  0  0  0  0  0  0  0  0
   20.4266  -12.4672  -16.8100 N   0  0  0  0  0  0  0  0  0  0  0  0
   19.8617  -10.1709  -16.9132 C   0  0  0  0  0  0  0  0  0  0  0  0
   19.7357   -9.0467  -17.5152 O   0  0  0  0  0  0  0  0  0  0  0  0
   18.9058   -9.0747  -13.4549 C   0  0  0  0  0  0  0  0  0  0  0  0
   19.5765   -8.8608  -14.7783 C   0  0  2  0  0  0  0  0  0  0  0  0
   19.7816  -10.0902  -15.5141 N   0  0  0  0  0  0  0  0  0  0  0  0
   20.8497   -8.0919  -14.6369 C   0  0  0  0  0  0  0  0  0  0  0  0
   21.9561   -8.6772  -14.5082 O   0  0  0  0  0  0  0  0  0  0  0  0
   22.4174   -5.8661  -16.9183 C   0  0  0  0  0  0  0  0  0  0  0  0
   22.1609   -4.9980  -15.6940 C   0  0  1  0  0  0  0  0  0  0  0  0
   20.9269   -4.3678  -15.8542 O   0  0  0  0  0  0  0  0  0  0  0  0
   22.0286   -5.9082  -14.4845 C   0  0  2  0  0  0  0  0  0  0  0  0
   20.8114   -6.6839  -14.6478 N   0  0  0  0  0  0  0  0  0  0  0  0
   21.9281   -5.0880  -13.2490 C   0  0  0  0  0  0  0  0  0  0  0  0
   20.8275   -4.9365  -12.6749 O   0  0  0  0  0  0  0  0  0  0  0  0
   23.0586   -4.4816  -12.7205 O   0  0  0  0  0  0  0  0  0  0  0  0
  2  1  1  6
  2  4  1  0
  3  2  1  0
  4  5  1  1
  6  4  1  0
  7  6  2  0
  9 10  1  0
  9  8  1  1
 10  6  1  0
 11  9  1  0
 12 11  2  0
 14 13  1  6
 14 15  1  0
 16 14  1  0
 16 17  1  6
 17 11  1  0
 18 20  1  0
 18 16  1  0
 19 18  2  0
M  END
$$$$
