MFT.pdb
     RDKit          3D

 27 27  0  0  1  0  0  0  0  0999 V2000
    7.7517  -11.9997   18.2588 C   0  0  0  0  0  0  0  0  0  0  0  0
    7.8190  -13.4442   17.1864 S   0  0  0  0  0  0  0  0  0  0  0  0
    8.0603  -14.9507   18.1665 C   0  0  0  0  0  0  0  0  0  0  0  0
    8.5467  -14.5837   19.5524 C   0  0  0  0  0  0  0  0  0  0  0  0
    8.7496  -15.8487   20.3462 C   0  0  2  0  0  0  0  0  0  0  0  0
    7.5801  -16.6716   20.2003 N   0  0  0  0  0  0  0  0  0  0  0  0
    9.0929  -15.5815   21.7559 C   0  0  0  0  0  0  0  0  0  0  0  0
   10.2508  -15.2096   22.0727 O   0  0  0  0  0  0  0  0  0  0  0  0
    8.0640  -15.7619   22.7325 N   0  0  0  0  0  0  0  0  0  0  0  0
    8.2376  -15.3934   24.0901 C   0  0  1  0  0  0  0  0  0  0  0  0
    7.0464  -14.7247   24.7519 C   0  0  0  0  0  0  0  0  0  0  0  0
    7.3590  -14.1028   26.0461 C   0  0  0  0  0  0  0  0  0  0  0  0
    7.5090  -14.8438   27.1840 C   0  0  0  0  0  0  0  0  0  0  0  0
    7.7934  -14.2364   28.3956 C   0  0  0  0  0  0  0  0  0  0  0  0
    7.9322  -12.8873   28.4894 C   0  0  0  0  0  0  0  0  0  0  0  0
    7.7891  -12.0963   27.3622 C   0  0  0  0  0  0  0  0  0  0  0  0
    7.5086  -12.7140   26.1773 C   0  0  0  0  0  0  0  0  0  0  0  0
    8.8567  -16.4420   24.9053 C   0  0  0  0  0  0  0  0  0  0  0  0
    8.2726  -17.5494   25.0262 O   0  0  0  0  0  0  0  0  0  0  0  0
   12.7936  -18.8059   26.3711 C   0  0  0  0  0  0  0  0  0  0  0  0
   12.1219  -17.6612   25.6740 C   0  0  1  0  0  0  0  0  0  0  0  0
   12.1167  -17.8559   24.3131 O   0  0  0  0  0  0  0  0  0  0  0  0
   10.7347  -17.4266   26.2413 C   0  0  2  0  0  0  0  0  0  0  0  0
   10.1049  -16.2849   25.5845 N   0  0  0  0  0  0  0  0  0  0  0  0
   10.7996  -17.2125   27.7040 C   0  0  0  0  0  0  0  0  0  0  0  0
   10.9562  -15.9450   28.2139 O   0  0  0  0  0  0  0  0  0  0  0  0
   10.7105  -18.1940   28.4674 O   0  0  0  0  0  0  0  0  0  0  0  0
  2  1  1  0
  3  2  1  0
  4  3  1  0
  4  5  1  0
  5  6  1  1
  7  5  1  0
  7  8  2  0
  9  7  1  0
 10  9  1  0
 11 12  1  0
 10 11  1  1
 12 17  2  0
 13 12  1  0
 13 14  2  0
 14 15  1  0
 15 16  2  0
 17 16  1  0
 18 10  1  0
 19 18  2  0
 21 20  1  1
 22 21  1  0
 23 21  1  0
 23 24  1  6
 24 18  1  0
 25 23  1  0
 26 25  1  0
 27 25  2  0
M  END
$$$$
