MFT.pdb
     RDKit          3D

 27 27  0  0  1  0  0  0  0  0999 V2000
    8.4616  -11.3485   19.4412 C   0  0  0  0  0  0  0  0  0  0  0  0
    7.2987  -12.5029   18.6953 S   0  0  0  0  0  0  0  0  0  0  0  0
    7.5159  -14.1621   19.3942 C   0  0  0  0  0  0  0  0  0  0  0  0
    8.0742  -14.0541   20.7974 C   0  0  0  0  0  0  0  0  0  0  0  0
    8.2758  -15.4427   21.3474 C   0  0  2  0  0  0  0  0  0  0  0  0
    7.0224  -16.1437   21.2880 N   0  0  0  0  0  0  0  0  0  0  0  0
    8.8666  -15.4339   22.6993 C   0  0  0  0  0  0  0  0  0  0  0  0
   10.0471  -15.0423   22.8787 O   0  0  0  0  0  0  0  0  0  0  0  0
    8.0477  -15.8847   23.7815 N   0  0  0  0  0  0  0  0  0  0  0  0
    8.5505  -16.0342   25.0983 C   0  0  1  0  0  0  0  0  0  0  0  0
    7.5857  -15.6895   26.2182 C   0  0  0  0  0  0  0  0  0  0  0  0
    7.3246  -14.2497   26.3537 C   0  0  0  0  0  0  0  0  0  0  0  0
    6.1034  -13.7088   26.0671 C   0  0  0  0  0  0  0  0  0  0  0  0
    5.8818  -12.3474   26.1918 C   0  0  0  0  0  0  0  0  0  0  0  0
    6.8705  -11.5097   26.6027 C   0  0  0  0  0  0  0  0  0  0  0  0
    8.1242  -12.0135   26.9045 C   0  0  0  0  0  0  0  0  0  0  0  0
    8.3227  -13.3582   26.7750 C   0  0  0  0  0  0  0  0  0  0  0  0
    9.2762  -17.2901   25.3071 C   0  0  0  0  0  0  0  0  0  0  0  0
    8.6452  -18.3773   25.2634 O   0  0  0  0  0  0  0  0  0  0  0  0
   13.1193  -20.0444   24.5338 C   0  0  0  0  0  0  0  0  0  0  0  0
   12.3875  -18.7370   24.4825 C   0  0  1  0  0  0  0  0  0  0  0  0
   11.8441  -18.5322   23.2364 O   0  0  0  0  0  0  0  0  0  0  0  0
   11.3596  -18.6532   25.5949 C   0  0  2  0  0  0  0  0  0  0  0  0
   10.6812  -17.3608   25.5619 N   0  0  0  0  0  0  0  0  0  0  0  0
   11.9985  -18.8700   26.9118 C   0  0  0  0  0  0  0  0  0  0  0  0
   12.4765  -20.1128   27.2556 O   0  0  0  0  0  0  0  0  0  0  0  0
   12.0980  -17.9133   27.7049 O   0  0  0  0  0  0  0  0  0  0  0  0
  2  1  1  0
  3  2  1  0
  4  3  1  0
  4  5  1  0
  5  6  1  1
  7  5  1  0
  7  8  2  0
  9  7  1  0
 10  9  1  0
 11 12  1  0
 10 11  1  1
 12 17  2  0
 13 12  1  0
 13 14  2  0
 14 15  1  0
 15 16  2  0
 17 16  1  0
 18 10  1  0
 19 18  2  0
 21 20  1  6
 22 21  1  0
 23 21  1  0
 23 24  1  1
 24 18  1  0
 25 23  1  0
 26 25  1  0
 27 25  2  0
M  END
$$$$
