MFT.pdb
     RDKit          3D

 27 27  0  0  1  0  0  0  0  0999 V2000
    7.8576  -11.3861   19.9729 C   0  0  0  0  0  0  0  0  0  0  0  0
    8.0117  -12.6849   18.7356 S   0  0  0  0  0  0  0  0  0  0  0  0
    7.8246  -14.3172   19.5031 C   0  0  0  0  0  0  0  0  0  0  0  0
    8.4611  -14.3095   20.8769 C   0  0  0  0  0  0  0  0  0  0  0  0
    8.4171  -15.7068   21.4398 C   0  0  2  0  0  0  0  0  0  0  0  0
    7.0969  -16.2384   21.2389 N   0  0  0  0  0  0  0  0  0  0  0  0
    8.8513  -15.7616   22.8487 C   0  0  0  0  0  0  0  0  0  0  0  0
   10.0270  -15.4536   23.1680 O   0  0  0  0  0  0  0  0  0  0  0  0
    7.8882  -16.1750   23.8216 N   0  0  0  0  0  0  0  0  0  0  0  0
    8.1862  -16.2247   25.2065 C   0  0  1  0  0  0  0  0  0  0  0  0
    7.1247  -15.6595   26.1325 C   0  0  0  0  0  0  0  0  0  0  0  0
    7.0879  -14.1907   26.1657 C   0  0  0  0  0  0  0  0  0  0  0  0
    5.9561  -13.4913   25.8558 C   0  0  0  0  0  0  0  0  0  0  0  0
    5.9462  -12.1066   25.8834 C   0  0  0  0  0  0  0  0  0  0  0  0
    7.0597  -11.4029   26.2195 C   0  0  0  0  0  0  0  0  0  0  0  0
    8.2295  -12.0697   26.5415 C   0  0  0  0  0  0  0  0  0  0  0  0
    8.2190  -13.4347   26.5082 C   0  0  0  0  0  0  0  0  0  0  0  0
    8.7256  -17.5158   25.6416 C   0  0  0  0  0  0  0  0  0  0  0  0
    7.9426  -18.4892   25.7884 O   0  0  0  0  0  0  0  0  0  0  0  0
   10.9663  -19.7832   23.9754 C   0  0  0  0  0  0  0  0  0  0  0  0
   11.5893  -19.5983   25.3264 C   0  0  1  0  0  0  0  0  0  0  0  0
   12.7118  -18.8090   25.2406 O   0  0  0  0  0  0  0  0  0  0  0  0
   10.5715  -19.0699   26.3192 C   0  0  2  0  0  0  0  0  0  0  0  0
   10.1100  -17.7449   25.9153 N   0  0  0  0  0  0  0  0  0  0  0  0
   11.1472  -19.0254   27.6816 C   0  0  0  0  0  0  0  0  0  0  0  0
   11.5149  -20.1876   28.3183 O   0  0  0  0  0  0  0  0  0  0  0  0
   11.2947  -17.9228   28.2443 O   0  0  0  0  0  0  0  0  0  0  0  0
  2  1  1  0
  3  2  1  0
  4  3  1  0
  4  5  1  0
  5  6  1  1
  7  5  1  0
  7  8  2  0
  9  7  1  0
 10  9  1  0
 11 12  1  0
 10 11  1  1
 12 17  2  0
 13 12  1  0
 13 14  2  0
 14 15  1  0
 15 16  2  0
 17 16  1  0
 18 10  1  0
 19 18  2  0
 21 20  1  6
 22 21  1  0
 23 21  1  0
 23 24  1  6
 24 18  1  0
 25 23  1  0
 26 25  1  0
 27 25  2  0
M  END
$$$$
