MFT.pdb
     RDKit          3D

 27 27  0  0  1  0  0  0  0  0999 V2000
   10.1677  -19.7389   17.0135 C   0  0  0  0  0  0  0  0  0  0  0  0
   10.1401  -18.6292   18.4310 S   0  0  0  0  0  0  0  0  0  0  0  0
    9.6264  -16.9656   17.9238 C   0  0  0  0  0  0  0  0  0  0  0  0
    9.6806  -16.0314   19.1140 C   0  0  0  0  0  0  0  0  0  0  0  0
    9.2123  -16.7765   20.3374 C   0  0  2  0  0  0  0  0  0  0  0  0
    7.8628  -17.2181   20.1142 N   0  0  0  0  0  0  0  0  0  0  0  0
    9.3613  -15.9836   21.5726 C   0  0  0  0  0  0  0  0  0  0  0  0
   10.4822  -15.5233   21.9057 O   0  0  0  0  0  0  0  0  0  0  0  0
    8.1899  -15.7650   22.3631 N   0  0  0  0  0  0  0  0  0  0  0  0
    8.2351  -15.0974   23.6127 C   0  0  1  0  0  0  0  0  0  0  0  0
    7.0279  -14.2413   23.9497 C   0  0  0  0  0  0  0  0  0  0  0  0
    7.1321  -13.5527   25.2438 C   0  0  0  0  0  0  0  0  0  0  0  0
    7.8163  -12.3784   25.3821 C   0  0  0  0  0  0  0  0  0  0  0  0
    7.9107  -11.7513   26.6133 C   0  0  0  0  0  0  0  0  0  0  0  0
    7.3264  -12.2837   27.7192 C   0  0  0  0  0  0  0  0  0  0  0  0
    6.6224  -13.4722   27.6265 C   0  0  0  0  0  0  0  0  0  0  0  0
    6.5409  -14.0750   26.4041 C   0  0  0  0  0  0  0  0  0  0  0  0
    8.6815  -15.9526   24.7158 C   0  0  0  0  0  0  0  0  0  0  0  0
    7.9851  -16.9487   25.0396 O   0  0  0  0  0  0  0  0  0  0  0  0
   12.4939  -18.0455   26.8672 C   0  0  0  0  0  0  0  0  0  0  0  0
   11.8964  -17.0080   25.9648 C   0  0  1  0  0  0  0  0  0  0  0  0
   12.0932  -17.3394   24.6451 O   0  0  0  0  0  0  0  0  0  0  0  0
   10.4357  -16.7787   26.3037 C   0  0  2  0  0  0  0  0  0  0  0  0
    9.8796  -15.7237   25.4615 N   0  0  0  0  0  0  0  0  0  0  0  0
   10.2807  -16.4357   27.7347 C   0  0  0  0  0  0  0  0  0  0  0  0
    9.9736  -17.4119   28.6534 O   0  0  0  0  0  0  0  0  0  0  0  0
   10.4316  -15.2524   28.0968 O   0  0  0  0  0  0  0  0  0  0  0  0
  2  1  1  0
  3  2  1  0
  4  3  1  0
  4  5  1  0
  5  6  1  6
  7  5  1  0
  7  8  2  0
  9  7  1  0
 10  9  1  0
 11 12  1  0
 10 11  1  1
 12 17  2  0
 13 12  1  0
 13 14  2  0
 14 15  1  0
 15 16  2  0
 17 16  1  0
 18 10  1  0
 19 18  2  0
 21 20  1  1
 22 21  1  0
 23 21  1  0
 23 24  1  6
 24 18  1  0
 25 23  1  0
 26 25  1  0
 27 25  2  0
M  END
$$$$
