MFT.pdb
     RDKit          3D

 27 27  0  0  1  0  0  0  0  0999 V2000
    7.0455  -20.6854   20.4514 C   0  0  0  0  0  0  0  0  0  0  0  0
    8.4496  -20.5448   19.3333 S   0  0  0  0  0  0  0  0  0  0  0  0
    8.9819  -18.8165   19.1982 C   0  0  0  0  0  0  0  0  0  0  0  0
    9.0179  -18.1861   20.5743 C   0  0  0  0  0  0  0  0  0  0  0  0
    9.3898  -16.7325   20.4325 C   0  0  2  0  0  0  0  0  0  0  0  0
   10.5850  -16.6426   19.6390 N   0  0  0  0  0  0  0  0  0  0  0  0
    9.5117  -16.0514   21.7355 C   0  0  0  0  0  0  0  0  0  0  0  0
   10.6298  -15.9449   22.2993 O   0  0  0  0  0  0  0  0  0  0  0  0
    8.3177  -15.5251   22.3205 N   0  0  0  0  0  0  0  0  0  0  0  0
    8.3117  -14.8983   23.5919 C   0  0  1  0  0  0  0  0  0  0  0  0
    7.2599  -13.8229   23.7946 C   0  0  0  0  0  0  0  0  0  0  0  0
    7.2580  -13.2426   25.1448 C   0  0  0  0  0  0  0  0  0  0  0  0
    8.2366  -12.3855   25.5619 C   0  0  0  0  0  0  0  0  0  0  0  0
    8.2211  -11.8579   26.8423 C   0  0  0  0  0  0  0  0  0  0  0  0
    7.2338  -12.1759   27.7211 C   0  0  0  0  0  0  0  0  0  0  0  0
    6.2211  -13.0404   27.3419 C   0  0  0  0  0  0  0  0  0  0  0  0
    6.2542  -13.5499   26.0756 C   0  0  0  0  0  0  0  0  0  0  0  0
    8.4176  -15.8416   24.7083 C   0  0  0  0  0  0  0  0  0  0  0  0
    7.4257  -16.5570   25.0025 O   0  0  0  0  0  0  0  0  0  0  0  0
   10.1526  -18.8032   24.7433 C   0  0  0  0  0  0  0  0  0  0  0  0
   10.6573  -18.1495   25.9945 C   0  0  1  0  0  0  0  0  0  0  0  0
   11.9309  -17.6652   25.8107 O   0  0  0  0  0  0  0  0  0  0  0  0
    9.6864  -17.0875   26.4745 C   0  0  2  0  0  0  0  0  0  0  0  0
    9.5971  -16.0044   25.4995 N   0  0  0  0  0  0  0  0  0  0  0  0
   10.0988  -16.5634   27.7954 C   0  0  0  0  0  0  0  0  0  0  0  0
   10.1431  -17.3954   28.8895 O   0  0  0  0  0  0  0  0  0  0  0  0
   10.4053  -15.3599   27.9040 O   0  0  0  0  0  0  0  0  0  0  0  0
  2  1  1  0
  3  2  1  0
  4  3  1  0
  4  5  1  0
  5  6  1  1
  7  5  1  0
  7  8  2  0
  9  7  1  0
 10  9  1  0
 11 12  1  0
 10 11  1  1
 12 17  2  0
 13 12  1  0
 13 14  2  0
 14 15  1  0
 15 16  2  0
 17 16  1  0
 18 10  1  0
 19 18  2  0
 21 20  1  6
 22 21  1  0
 23 21  1  0
 23 24  1  6
 24 18  1  0
 25 23  1  0
 26 25  1  0
 27 25  2  0
M  END
$$$$
