MFT.pdb
     RDKit          3D

 27 27  0  0  1  0  0  0  0  0999 V2000
    6.3086  -19.8952   19.9278 C   0  0  0  0  0  0  0  0  0  0  0  0
    6.7797  -18.7340   18.6352 S   0  0  0  0  0  0  0  0  0  0  0  0
    6.7017  -17.0311   19.2535 C   0  0  0  0  0  0  0  0  0  0  0  0
    7.5549  -16.9018   20.4976 C   0  0  0  0  0  0  0  0  0  0  0  0
    7.4014  -15.5074   21.0484 C   0  0  2  0  0  0  0  0  0  0  0  0
    7.8924  -14.5742   20.0716 N   0  0  0  0  0  0  0  0  0  0  0  0
    8.0409  -15.3485   22.3684 C   0  0  0  0  0  0  0  0  0  0  0  0
    9.1855  -14.8392   22.4673 O   0  0  0  0  0  0  0  0  0  0  0  0
    7.3108  -15.7935   23.5146 N   0  0  0  0  0  0  0  0  0  0  0  0
    7.8450  -15.7222   24.8256 C   0  0  1  0  0  0  0  0  0  0  0  0
    6.8873  -15.2539   25.9059 C   0  0  0  0  0  0  0  0  0  0  0  0
    6.8346  -13.7932   26.0590 C   0  0  0  0  0  0  0  0  0  0  0  0
    5.7109  -13.0773   25.7573 C   0  0  0  0  0  0  0  0  0  0  0  0
    5.6861  -11.6999   25.8991 C   0  0  0  0  0  0  0  0  0  0  0  0
    6.7766  -11.0198   26.3422 C   0  0  0  0  0  0  0  0  0  0  0  0
    7.9374  -11.7039   26.6604 C   0  0  0  0  0  0  0  0  0  0  0  0
    7.9419  -13.0614   26.5137 C   0  0  0  0  0  0  0  0  0  0  0  0
    8.6309  -16.9008   25.2007 C   0  0  0  0  0  0  0  0  0  0  0  0
    8.0344  -17.9327   25.6026 O   0  0  0  0  0  0  0  0  0  0  0  0
   12.9290  -19.3775   25.4422 C   0  0  0  0  0  0  0  0  0  0  0  0
   12.1792  -18.1591   24.9939 C   0  0  1  0  0  0  0  0  0  0  0  0
   12.2125  -18.0439   23.6243 O   0  0  0  0  0  0  0  0  0  0  0  0
   10.7684  -18.1617   25.5511 C   0  0  2  0  0  0  0  0  0  0  0  0
   10.0581  -16.9547   25.1383 N   0  0  0  0  0  0  0  0  0  0  0  0
   10.7914  -18.2707   27.0266 C   0  0  0  0  0  0  0  0  0  0  0  0
   11.0241  -19.4846   27.6296 O   0  0  0  0  0  0  0  0  0  0  0  0
   10.5974  -17.2500   27.7154 O   0  0  0  0  0  0  0  0  0  0  0  0
  2  1  1  0
  3  2  1  0
  4  3  1  0
  4  5  1  0
  5  6  1  6
  7  5  1  0
  7  8  2  0
  9  7  1  0
 10  9  1  0
 11 12  1  0
 10 11  1  1
 12 17  2  0
 13 12  1  0
 13 14  2  0
 14 15  1  0
 15 16  2  0
 17 16  1  0
 18 10  1  0
 19 18  2  0
 21 20  1  6
 22 21  1  0
 23 21  1  0
 23 24  1  1
 24 18  1  0
 25 23  1  0
 26 25  1  0
 27 25  2  0
M  END
$$$$
