MFT.pdb
     RDKit          3D

 27 27  0  0  1  0  0  0  0  0999 V2000
    8.0487  -11.7574   20.3973 C   0  0  0  0  0  0  0  0  0  0  0  0
    7.4999  -12.7399   18.9920 S   0  0  0  0  0  0  0  0  0  0  0  0
    7.3113  -14.4792   19.4695 C   0  0  0  0  0  0  0  0  0  0  0  0
    8.6508  -15.1793   19.3810 C   0  0  0  0  0  0  0  0  0  0  0  0
    8.7003  -16.2655   20.4245 C   0  0  2  0  0  0  0  0  0  0  0  0
    7.4799  -17.0216   20.3547 N   0  0  0  0  0  0  0  0  0  0  0  0
    8.9742  -15.7386   21.7750 C   0  0  0  0  0  0  0  0  0  0  0  0
   10.0628  -15.1643   22.0288 O   0  0  0  0  0  0  0  0  0  0  0  0
    7.9601  -15.9079   22.7689 N   0  0  0  0  0  0  0  0  0  0  0  0
    8.1254  -15.4557   24.1021 C   0  0  1  0  0  0  0  0  0  0  0  0
    6.9376  -14.7295   24.7068 C   0  0  0  0  0  0  0  0  0  0  0  0
    7.2420  -14.0453   25.9713 C   0  0  0  0  0  0  0  0  0  0  0  0
    7.4938  -12.7036   26.0220 C   0  0  0  0  0  0  0  0  0  0  0  0
    7.7887  -12.0805   27.2232 C   0  0  0  0  0  0  0  0  0  0  0  0
    7.8362  -12.7834   28.3858 C   0  0  0  0  0  0  0  0  0  0  0  0
    7.5876  -14.1453   28.3825 C   0  0  0  0  0  0  0  0  0  0  0  0
    7.2989  -14.7411   27.1883 C   0  0  0  0  0  0  0  0  0  0  0  0
    8.7208  -16.4588   24.9892 C   0  0  0  0  0  0  0  0  0  0  0  0
    8.0442  -17.4678   25.3150 O   0  0  0  0  0  0  0  0  0  0  0  0
   11.6942  -18.4801   24.4155 C   0  0  0  0  0  0  0  0  0  0  0  0
   11.8891  -17.9414   25.8009 C   0  0  1  0  0  0  0  0  0  0  0  0
   12.8880  -16.9970   25.8196 O   0  0  0  0  0  0  0  0  0  0  0  0
   10.5791  -17.4253   26.3654 C   0  0  2  0  0  0  0  0  0  0  0  0
   10.0456  -16.3628   25.5180 N   0  0  0  0  0  0  0  0  0  0  0  0
   10.7642  -16.9399   27.7509 C   0  0  0  0  0  0  0  0  0  0  0  0
   11.1064  -17.8164   28.7539 O   0  0  0  0  0  0  0  0  0  0  0  0
   10.6064  -15.7281   27.9974 O   0  0  0  0  0  0  0  0  0  0  0  0
  2  1  1  0
  3  2  1  0
  4  3  1  0
  4  5  1  0
  5  6  1  1
  7  5  1  0
  7  8  2  0
  9  7  1  0
 10  9  1  0
 11 12  1  0
 10 11  1  1
 12 17  2  0
 13 12  1  0
 13 14  2  0
 14 15  1  0
 15 16  2  0
 17 16  1  0
 18 10  1  0
 19 18  2  0
 21 20  1  6
 22 21  1  0
 23 21  1  0
 23 24  1  6
 24 18  1  0
 25 23  1  0
 26 25  1  0
 27 25  2  0
M  END
$$$$
