MFT.pdb
     RDKit          3D

 27 27  0  0  1  0  0  0  0  0999 V2000
    6.8489  -12.3659   18.9523 C   0  0  0  0  0  0  0  0  0  0  0  0
    8.5164  -12.6373   18.3299 S   0  0  0  0  0  0  0  0  0  0  0  0
    9.3172  -13.9912   19.2322 C   0  0  0  0  0  0  0  0  0  0  0  0
    8.3969  -15.1929   19.2687 C   0  0  0  0  0  0  0  0  0  0  0  0
    9.0265  -16.2603   20.1263 C   0  0  2  0  0  0  0  0  0  0  0  0
    8.2124  -17.4428   20.0543 N   0  0  0  0  0  0  0  0  0  0  0  0
    9.2612  -15.8067   21.5104 C   0  0  0  0  0  0  0  0  0  0  0  0
   10.4159  -15.4908   21.8926 O   0  0  0  0  0  0  0  0  0  0  0  0
    8.1321  -15.7433   22.3857 N   0  0  0  0  0  0  0  0  0  0  0  0
    8.2079  -15.1616   23.6760 C   0  0  1  0  0  0  0  0  0  0  0  0
    7.1463  -14.1258   23.9984 C   0  0  0  0  0  0  0  0  0  0  0  0
    7.2508  -13.5723   25.3558 C   0  0  0  0  0  0  0  0  0  0  0  0
    6.3777  -13.9232   26.3461 C   0  0  0  0  0  0  0  0  0  0  0  0
    6.4881  -13.3816   27.6159 C   0  0  0  0  0  0  0  0  0  0  0  0
    7.4667  -12.4867   27.9151 C   0  0  0  0  0  0  0  0  0  0  0  0
    8.3743  -12.1021   26.9430 C   0  0  0  0  0  0  0  0  0  0  0  0
    8.2486  -12.6471   25.6974 C   0  0  0  0  0  0  0  0  0  0  0  0
    8.4256  -16.1396   24.7455 C   0  0  0  0  0  0  0  0  0  0  0  0
    7.5373  -16.9984   24.9809 O   0  0  0  0  0  0  0  0  0  0  0  0
   12.1989  -17.3310   25.2790 C   0  0  0  0  0  0  0  0  0  0  0  0
   11.0023  -18.1852   25.5723 C   0  0  1  0  0  0  0  0  0  0  0  0
   11.3720  -19.3261   26.2444 O   0  0  0  0  0  0  0  0  0  0  0  0
    9.9399  -17.3877   26.3045 C   0  0  2  0  0  0  0  0  0  0  0  0
    9.6042  -16.1814   25.5535 N   0  0  0  0  0  0  0  0  0  0  0  0
   10.3974  -17.0392   27.6678 C   0  0  0  0  0  0  0  0  0  0  0  0
   10.6798  -18.0291   28.5797 O   0  0  0  0  0  0  0  0  0  0  0  0
   10.5236  -15.8387   27.9792 O   0  0  0  0  0  0  0  0  0  0  0  0
  2  1  1  0
  3  2  1  0
  4  3  1  0
  4  5  1  0
  5  6  1  1
  7  5  1  0
  7  8  2  0
  9  7  1  0
 10  9  1  0
 11 12  1  0
 10 11  1  1
 12 17  2  0
 13 12  1  0
 13 14  2  0
 14 15  1  0
 15 16  2  0
 17 16  1  0
 18 10  1  0
 19 18  2  0
 21 20  1  1
 22 21  1  0
 23 21  1  0
 23 24  1  6
 24 18  1  0
 25 23  1  0
 26 25  1  0
 27 25  2  0
M  END
$$$$
