MFT.pdb
     RDKit          3D

 27 27  0  0  1  0  0  0  0  0999 V2000
    7.8325  -22.0865   22.0916 C   0  0  0  0  0  0  0  0  0  0  0  0
    8.1631  -21.6506   20.3764 S   0  0  0  0  0  0  0  0  0  0  0  0
    7.5621  -19.9772   20.0203 C   0  0  0  0  0  0  0  0  0  0  0  0
    8.3761  -18.9673   20.8012 C   0  0  0  0  0  0  0  0  0  0  0  0
    7.6712  -17.6360   20.7549 C   0  0  2  0  0  0  0  0  0  0  0  0
    7.7997  -17.0974   19.4284 N   0  0  0  0  0  0  0  0  0  0  0  0
    8.1454  -16.7095   21.8005 C   0  0  0  0  0  0  0  0  0  0  0  0
    9.2696  -16.1565   21.7028 O   0  0  0  0  0  0  0  0  0  0  0  0
    7.2812  -16.4720   22.9147 N   0  0  0  0  0  0  0  0  0  0  0  0
    7.6610  -15.6478   24.0036 C   0  0  1  0  0  0  0  0  0  0  0  0
    6.5309  -14.9197   24.7082 C   0  0  0  0  0  0  0  0  0  0  0  0
    6.9822  -14.0176   25.7770 C   0  0  0  0  0  0  0  0  0  0  0  0
    7.0582  -12.6659   25.5946 C   0  0  0  0  0  0  0  0  0  0  0  0
    7.4961  -11.8348   26.6122 C   0  0  0  0  0  0  0  0  0  0  0  0
    7.8624  -12.3375   27.8210 C   0  0  0  0  0  0  0  0  0  0  0  0
    7.8013  -13.7013   28.0512 C   0  0  0  0  0  0  0  0  0  0  0  0
    7.3672  -14.5038   27.0355 C   0  0  0  0  0  0  0  0  0  0  0  0
    8.6132  -16.2874   24.9156 C   0  0  0  0  0  0  0  0  0  0  0  0
    8.3637  -17.4401   25.3527 O   0  0  0  0  0  0  0  0  0  0  0  0
   13.3133  -17.0022   25.9008 C   0  0  0  0  0  0  0  0  0  0  0  0
   12.2072  -16.2305   25.2461 C   0  0  1  0  0  0  0  0  0  0  0  0
   12.1545  -16.5034   23.8996 O   0  0  0  0  0  0  0  0  0  0  0  0
   10.8875  -16.4815   25.9506 C   0  0  2  0  0  0  0  0  0  0  0  0
    9.8301  -15.6746   25.3485 N   0  0  0  0  0  0  0  0  0  0  0  0
   11.0047  -16.1877   27.3960 C   0  0  0  0  0  0  0  0  0  0  0  0
   11.7420  -17.0109   28.2145 O   0  0  0  0  0  0  0  0  0  0  0  0
   10.4274  -15.1859   27.8623 O   0  0  0  0  0  0  0  0  0  0  0  0
  2  1  1  0
  3  2  1  0
  4  3  1  0
  4  5  1  0
  5  6  1  6
  7  5  1  0
  7  8  2  0
  9  7  1  0
 10  9  1  0
 11 12  1  0
 10 11  1  1
 12 17  2  0
 13 12  1  0
 13 14  2  0
 14 15  1  0
 15 16  2  0
 17 16  1  0
 18 10  1  0
 19 18  2  0
 21 20  1  1
 22 21  1  0
 23 21  1  0
 23 24  1  6
 24 18  1  0
 25 23  1  0
 26 25  1  0
 27 25  2  0
M  END
$$$$
