MFT.pdb
     RDKit          3D

 27 27  0  0  1  0  0  0  0  0999 V2000
    8.3965  -12.2721   19.0579 C   0  0  0  0  0  0  0  0  0  0  0  0
    7.8140  -13.5621   17.9452 S   0  0  0  0  0  0  0  0  0  0  0  0
    8.7452  -15.0955   18.2096 C   0  0  0  0  0  0  0  0  0  0  0  0
    9.7328  -14.9025   19.3408 C   0  0  0  0  0  0  0  0  0  0  0  0
    9.6228  -16.0714   20.2857 C   0  0  2  0  0  0  0  0  0  0  0  0
    8.4494  -16.8272   19.9420 N   0  0  0  0  0  0  0  0  0  0  0  0
    9.6459  -15.6569   21.7014 C   0  0  0  0  0  0  0  0  0  0  0  0
   10.7270  -15.3370   22.2565 O   0  0  0  0  0  0  0  0  0  0  0  0
    8.4008  -15.6354   22.4044 N   0  0  0  0  0  0  0  0  0  0  0  0
    8.3014  -15.2102   23.7529 C   0  0  1  0  0  0  0  0  0  0  0  0
    7.1475  -14.2760   24.0689 C   0  0  0  0  0  0  0  0  0  0  0  0
    7.2000  -13.7057   25.4223 C   0  0  0  0  0  0  0  0  0  0  0  0
    6.2379  -13.9731   26.3546 C   0  0  0  0  0  0  0  0  0  0  0  0
    6.3013  -13.4167   27.6213 C   0  0  0  0  0  0  0  0  0  0  0  0
    7.3207  -12.5898   27.9749 C   0  0  0  0  0  0  0  0  0  0  0  0
    8.3184  -12.2909   27.0627 C   0  0  0  0  0  0  0  0  0  0  0  0
    8.2379  -12.8491   25.8192 C   0  0  0  0  0  0  0  0  0  0  0  0
    8.4659  -16.2974   24.7216 C   0  0  0  0  0  0  0  0  0  0  0  0
    7.5222  -17.1104   24.8967 O   0  0  0  0  0  0  0  0  0  0  0  0
   10.2201  -19.2163   24.5125 C   0  0  0  0  0  0  0  0  0  0  0  0
   10.7356  -18.6649   25.8078 C   0  0  1  0  0  0  0  0  0  0  0  0
   12.0052  -18.1611   25.6512 O   0  0  0  0  0  0  0  0  0  0  0  0
    9.7656  -17.6504   26.3833 C   0  0  2  0  0  0  0  0  0  0  0  0
    9.6516  -16.4975   25.4948 N   0  0  0  0  0  0  0  0  0  0  0  0
   10.1975  -17.2243   27.7329 C   0  0  0  0  0  0  0  0  0  0  0  0
   10.2035  -18.1211   28.7754 O   0  0  0  0  0  0  0  0  0  0  0  0
   10.5553  -16.0438   27.9130 O   0  0  0  0  0  0  0  0  0  0  0  0
  2  1  1  0
  3  2  1  0
  4  3  1  0
  4  5  1  0
  5  6  1  6
  7  5  1  0
  7  8  2  0
  9  7  1  0
 10  9  1  0
 11 12  1  0
 10 11  1  6
 12 17  2  0
 13 12  1  0
 13 14  2  0
 14 15  1  0
 15 16  2  0
 17 16  1  0
 18 10  1  0
 19 18  2  0
 21 20  1  6
 22 21  1  0
 23 21  1  0
 23 24  1  6
 24 18  1  0
 25 23  1  0
 26 25  1  0
 27 25  2  0
M  END
$$$$
