MFT.pdb
     RDKit          3D

 27 27  0  0  1  0  0  0  0  0999 V2000
    6.1705  -19.6404   19.7232 C   0  0  0  0  0  0  0  0  0  0  0  0
    7.7923  -20.2247   20.2426 S   0  0  0  0  0  0  0  0  0  0  0  0
    8.9186  -18.8263   20.4963 C   0  0  0  0  0  0  0  0  0  0  0  0
    8.3054  -17.5679   19.9195 C   0  0  0  0  0  0  0  0  0  0  0  0
    9.2455  -16.4151   20.1617 C   0  0  2  0  0  0  0  0  0  0  0  0
   10.5347  -16.7571   19.6259 N   0  0  0  0  0  0  0  0  0  0  0  0
    9.2993  -16.0195   21.5820 C   0  0  0  0  0  0  0  0  0  0  0  0
   10.2803  -16.3408   22.2986 O   0  0  0  0  0  0  0  0  0  0  0  0
    8.2007  -15.2646   22.1000 N   0  0  0  0  0  0  0  0  0  0  0  0
    8.1522  -14.8282   23.4477 C   0  0  1  0  0  0  0  0  0  0  0  0
    7.0651  -13.8221   23.7789 C   0  0  0  0  0  0  0  0  0  0  0  0
    7.1515  -13.2834   25.1435 C   0  0  0  0  0  0  0  0  0  0  0  0
    8.2548  -13.4763   25.9256 C   0  0  0  0  0  0  0  0  0  0  0  0
    8.3113  -12.9686   27.2129 C   0  0  0  0  0  0  0  0  0  0  0  0
    7.2730  -12.2641   27.7362 C   0  0  0  0  0  0  0  0  0  0  0  0
    6.1346  -12.0437   26.9798 C   0  0  0  0  0  0  0  0  0  0  0  0
    6.0982  -12.5524   25.7133 C   0  0  0  0  0  0  0  0  0  0  0  0
    8.2653  -15.9196   24.4192 C   0  0  0  0  0  0  0  0  0  0  0  0
    7.4352  -16.8638   24.3798 O   0  0  0  0  0  0  0  0  0  0  0  0
    9.0687  -18.6222   24.2318 C   0  0  0  0  0  0  0  0  0  0  0  0
   10.0008  -18.3145   25.3649 C   0  0  1  0  0  0  0  0  0  0  0  0
   11.2672  -18.0555   24.8966 O   0  0  0  0  0  0  0  0  0  0  0  0
    9.4492  -17.1928   26.2243 C   0  0  2  0  0  0  0  0  0  0  0  0
    9.2769  -15.9816   25.4275 N   0  0  0  0  0  0  0  0  0  0  0  0
   10.3403  -16.9330   27.3766 C   0  0  0  0  0  0  0  0  0  0  0  0
   10.4538  -17.8570   28.3889 O   0  0  0  0  0  0  0  0  0  0  0  0
   10.9863  -15.8676   27.4185 O   0  0  0  0  0  0  0  0  0  0  0  0
  2  1  1  0
  3  2  1  0
  4  3  1  0
  4  5  1  0
  5  6  1  1
  7  5  1  0
  7  8  2  0
  9  7  1  0
 10  9  1  0
 11 12  1  0
 10 11  1  6
 12 17  2  0
 13 12  1  0
 13 14  2  0
 14 15  1  0
 15 16  2  0
 17 16  1  0
 18 10  1  0
 19 18  2  0
 21 20  1  6
 22 21  1  0
 23 21  1  0
 23 24  1  6
 24 18  1  0
 25 23  1  0
 26 25  1  0
 27 25  2  0
M  END
$$$$
