MFT.pdb
     RDKit          3D

 27 27  0  0  1  0  0  0  0  0999 V2000
    5.1062  -19.8677   22.3980 C   0  0  0  0  0  0  0  0  0  0  0  0
    6.5335  -20.2963   21.3877 S   0  0  0  0  0  0  0  0  0  0  0  0
    7.6527  -18.8774   21.2371 C   0  0  0  0  0  0  0  0  0  0  0  0
    6.8467  -17.5967   21.1866 C   0  0  0  0  0  0  0  0  0  0  0  0
    7.7953  -16.4303   21.0810 C   0  0  2  0  0  0  0  0  0  0  0  0
    8.6402  -16.6315   19.9357 N   0  0  0  0  0  0  0  0  0  0  0  0
    8.5561  -16.2072   22.3251 C   0  0  0  0  0  0  0  0  0  0  0  0
    9.7641  -16.5442   22.4052 O   0  0  0  0  0  0  0  0  0  0  0  0
    7.8676  -15.5987   23.4209 N   0  0  0  0  0  0  0  0  0  0  0  0
    8.4905  -15.3747   24.6743 C   0  0  1  0  0  0  0  0  0  0  0  0
    7.8055  -14.3710   25.5838 C   0  0  0  0  0  0  0  0  0  0  0  0
    8.5460  -14.0911   26.8220 C   0  0  0  0  0  0  0  0  0  0  0  0
    9.5151  -13.1301   26.8803 C   0  0  0  0  0  0  0  0  0  0  0  0
   10.2080  -12.8896   28.0551 C   0  0  0  0  0  0  0  0  0  0  0  0
    9.9453  -13.6007   29.1835 C   0  0  0  0  0  0  0  0  0  0  0  0
    8.9712  -14.5843   29.1713 C   0  0  0  0  0  0  0  0  0  0  0  0
    8.2994  -14.8064   28.0036 C   0  0  0  0  0  0  0  0  0  0  0  0
    8.8971  -16.6083   25.3530 C   0  0  0  0  0  0  0  0  0  0  0  0
    8.0151  -17.4320   25.7076 O   0  0  0  0  0  0  0  0  0  0  0  0
   10.7155  -19.4220   24.1342 C   0  0  0  0  0  0  0  0  0  0  0  0
   11.4516  -19.0581   25.3885 C   0  0  1  0  0  0  0  0  0  0  0  0
   12.6547  -18.4629   25.0913 O   0  0  0  0  0  0  0  0  0  0  0  0
   10.5810  -18.2081   26.2944 C   0  0  2  0  0  0  0  0  0  0  0  0
   10.2565  -16.9422   25.6433 N   0  0  0  0  0  0  0  0  0  0  0  0
   11.2557  -17.9673   27.5890 C   0  0  0  0  0  0  0  0  0  0  0  0
   11.7189  -16.7123   27.9079 O   0  0  0  0  0  0  0  0  0  0  0  0
   11.3990  -18.9150   28.3862 O   0  0  0  0  0  0  0  0  0  0  0  0
  2  1  1  0
  3  2  1  0
  4  3  1  0
  4  5  1  0
  5  6  1  6
  7  5  1  0
  7  8  2  0
  9  7  1  0
 10  9  1  0
 11 12  1  0
 10 11  1  1
 12 17  2  0
 13 12  1  0
 13 14  2  0
 14 15  1  0
 15 16  2  0
 17 16  1  0
 18 10  1  0
 19 18  2  0
 21 20  1  6
 22 21  1  0
 23 21  1  0
 23 24  1  6
 24 18  1  0
 25 23  1  0
 26 25  1  0
 27 25  2  0
M  END
$$$$
