MFT.pdb
     RDKit          3D

 27 27  0  0  1  0  0  0  0  0999 V2000
    8.2659  -11.5564   19.8885 C   0  0  0  0  0  0  0  0  0  0  0  0
    7.5773  -12.8128   18.7982 S   0  0  0  0  0  0  0  0  0  0  0  0
    7.5473  -14.4249   19.6280 C   0  0  0  0  0  0  0  0  0  0  0  0
    8.9617  -14.9407   19.7891 C   0  0  0  0  0  0  0  0  0  0  0  0
    8.9414  -16.1325   20.7113 C   0  0  2  0  0  0  0  0  0  0  0  0
    7.6614  -16.7765   20.5968 N   0  0  0  0  0  0  0  0  0  0  0  0
    9.2840  -15.7764   22.1014 C   0  0  0  0  0  0  0  0  0  0  0  0
   10.4307  -15.3498   22.3881 O   0  0  0  0  0  0  0  0  0  0  0  0
    8.2675  -15.9361   23.0944 N   0  0  0  0  0  0  0  0  0  0  0  0
    8.4687  -15.5671   24.4481 C   0  0  1  0  0  0  0  0  0  0  0  0
    7.3060  -14.8609   25.1215 C   0  0  0  0  0  0  0  0  0  0  0  0
    7.6520  -14.2460   26.4106 C   0  0  0  0  0  0  0  0  0  0  0  0
    7.6717  -12.8906   26.5800 C   0  0  0  0  0  0  0  0  0  0  0  0
    8.0107  -12.3316   27.8009 C   0  0  0  0  0  0  0  0  0  0  0  0
    8.3332  -13.1129   28.8657 C   0  0  0  0  0  0  0  0  0  0  0  0
    8.3263  -14.4916   28.7404 C   0  0  0  0  0  0  0  0  0  0  0  0
    7.9895  -15.0233   27.5288 C   0  0  0  0  0  0  0  0  0  0  0  0
    9.0670  -16.6300   25.2603 C   0  0  0  0  0  0  0  0  0  0  0  0
    8.3747  -17.6372   25.5581 O   0  0  0  0  0  0  0  0  0  0  0  0
   11.8158  -18.8175   24.4981 C   0  0  0  0  0  0  0  0  0  0  0  0
   12.1609  -18.2977   25.8613 C   0  0  1  0  0  0  0  0  0  0  0  0
   13.2137  -17.4162   25.7936 O   0  0  0  0  0  0  0  0  0  0  0  0
   10.9380  -17.7049   26.5352 C   0  0  2  0  0  0  0  0  0  0  0  0
   10.4114  -16.5958   25.7451 N   0  0  0  0  0  0  0  0  0  0  0  0
   11.2654  -17.2553   27.9063 C   0  0  0  0  0  0  0  0  0  0  0  0
   11.5928  -18.1717   28.8781 O   0  0  0  0  0  0  0  0  0  0  0  0
   11.2410  -16.0369   28.1695 O   0  0  0  0  0  0  0  0  0  0  0  0
  2  1  1  0
  3  2  1  0
  4  3  1  0
  4  5  1  0
  5  6  1  1
  7  5  1  0
  7  8  2  0
  9  7  1  0
 10  9  1  0
 11 12  1  0
 10 11  1  1
 12 17  2  0
 13 12  1  0
 13 14  2  0
 14 15  1  0
 15 16  2  0
 17 16  1  0
 18 10  1  0
 19 18  2  0
 21 20  1  6
 22 21  1  0
 23 21  1  0
 23 24  1  6
 24 18  1  0
 25 23  1  0
 26 25  1  0
 27 25  2  0
M  END
$$$$
