AVN.pdb
     RDKit          3D

 21 20  0  0  1  0  0  0  0  0999 V2000
    9.0126  -17.6506   15.8385 C   0  0  0  0  0  0  0  0  0  0  0  0
    8.6276  -16.1987   15.6681 C   0  0  2  0  0  0  0  0  0  0  0  0
    9.2365  -15.7127   14.4456 N   0  0  0  0  0  0  0  0  0  0  0  0
    9.1842  -15.4689   16.8561 C   0  0  0  0  0  0  0  0  0  0  0  0
   10.4053  -15.2236   16.9076 O   0  0  0  0  0  0  0  0  0  0  0  0
    8.2688  -12.8263   20.9982 C   0  0  0  0  0  0  0  0  0  0  0  0
    7.7965  -13.5772   19.8031 C   0  0  1  0  0  0  0  0  0  0  0  0
    7.2100  -12.5911   18.7979 C   0  0  0  0  0  0  0  0  0  0  0  0
    8.8547  -14.3616   19.0976 C   0  0  2  0  0  0  0  0  0  0  0  0
    8.3725  -15.0429   17.9315 N   0  0  0  0  0  0  0  0  0  0  0  0
    9.6344  -15.2537   19.9979 C   0  0  0  0  0  0  0  0  0  0  0  0
    9.2042  -16.4008   20.2799 O   0  0  0  0  0  0  0  0  0  0  0  0
   14.2312  -13.8941   19.7588 N   0  0  0  0  0  0  0  0  0  0  0  0
   13.7733  -15.1834   20.1342 C   0  0  0  0  0  0  0  0  0  0  0  0
   13.9338  -16.1282   19.3240 O   0  0  0  0  0  0  0  0  0  0  0  0
   13.1305  -15.4287   21.4209 C   0  0  0  0  0  0  0  0  0  0  0  0
   11.6684  -15.8033   21.3351 C   0  0  2  0  0  0  0  0  0  0  0  0
   10.8766  -14.8799   20.5806 N   0  0  0  0  0  0  0  0  0  0  0  0
   11.1083  -15.8945   22.7008 C   0  0  0  0  0  0  0  0  0  0  0  0
   10.1776  -15.1291   23.0307 O   0  0  0  0  0  0  0  0  0  0  0  0
   11.5883  -16.8035   23.6179 O   0  0  0  0  0  0  0  0  0  0  0  0
  2  1  1  1
  2  4  1  0
  3  2  1  0
  4  5  2  0
  7  6  1  1
  7  8  1  0
  7  9  1  0
  9 11  1  0
 10  4  1  0
  9 10  1  6
 11 12  2  0
 11 18  1  0
 13 14  1  0
 14 15  2  0
 17 16  1  1
 16 14  1  0
 17 19  1  0
 18 17  1  0
 19 20  2  0
 19 21  1  0
M  END
$$$$
