AVN.pdb
     RDKit          3D

 21 20  0  0  1  0  0  0  0  0999 V2000
    6.6037  -16.2868   21.6544 C   0  0  0  0  0  0  0  0  0  0  0  0
    6.7888  -14.7873   21.7054 C   0  0  2  0  0  0  0  0  0  0  0  0
    7.5336  -14.3860   20.5282 N   0  0  0  0  0  0  0  0  0  0  0  0
    7.5792  -14.4984   22.9486 C   0  0  0  0  0  0  0  0  0  0  0  0
    8.8180  -14.6357   22.9328 O   0  0  0  0  0  0  0  0  0  0  0  0
    7.6347  -12.5679   27.5589 C   0  0  0  0  0  0  0  0  0  0  0  0
    6.8962  -12.9578   26.3269 C   0  0  1  0  0  0  0  0  0  0  0  0
    6.4702  -11.6957   25.5838 C   0  0  0  0  0  0  0  0  0  0  0  0
    7.6750  -13.8009   25.3700 C   0  0  2  0  0  0  0  0  0  0  0  0
    6.9707  -14.0720   24.1506 N   0  0  0  0  0  0  0  0  0  0  0  0
    8.2431  -15.0305   25.9861 C   0  0  0  0  0  0  0  0  0  0  0  0
    7.4917  -15.9917   26.2892 O   0  0  0  0  0  0  0  0  0  0  0  0
   12.4036  -16.4340   23.9886 N   0  0  0  0  0  0  0  0  0  0  0  0
   11.4919  -17.0796   24.8630 C   0  0  0  0  0  0  0  0  0  0  0  0
   10.6752  -17.8952   24.3704 O   0  0  0  0  0  0  0  0  0  0  0  0
   11.4846  -16.8189   26.2986 C   0  0  0  0  0  0  0  0  0  0  0  0
   10.1462  -16.3904   26.8558 C   0  0  2  0  0  0  0  0  0  0  0  0
    9.6280  -15.1943   26.2645 N   0  0  0  0  0  0  0  0  0  0  0  0
   10.2718  -16.1764   28.3137 C   0  0  0  0  0  0  0  0  0  0  0  0
   10.1502  -15.0209   28.7732 O   0  0  0  0  0  0  0  0  0  0  0  0
   10.5196  -17.2207   29.1773 O   0  0  0  0  0  0  0  0  0  0  0  0
  2  1  1  6
  2  4  1  0
  3  2  1  0
  4  5  2  0
  7  6  1  1
  7  8  1  0
  7  9  1  0
  9 11  1  0
 10  4  1  0
  9 10  1  6
 11 12  2  0
 11 18  1  0
 13 14  1  0
 14 15  2  0
 17 16  1  6
 16 14  1  0
 17 19  1  0
 18 17  1  0
 19 20  2  0
 19 21  1  0
M  END
$$$$
