AVN.pdb
     RDKit          3D

 21 20  0  0  1  0  0  0  0  0999 V2000
    7.5500  -18.7701   18.2817 C   0  0  0  0  0  0  0  0  0  0  0  0
    7.8942  -17.3734   17.8169 C   0  0  2  0  0  0  0  0  0  0  0  0
    8.9142  -17.4792   16.7923 N   0  0  0  0  0  0  0  0  0  0  0  0
    8.4302  -16.6462   19.0160 C   0  0  0  0  0  0  0  0  0  0  0  0
    9.5916  -16.8781   19.4046 O   0  0  0  0  0  0  0  0  0  0  0  0
    7.7531  -12.9321   22.3141 C   0  0  0  0  0  0  0  0  0  0  0  0
    7.2930  -13.7439   21.1545 C   0  0  1  0  0  0  0  0  0  0  0  0
    7.2607  -12.8596   19.9120 C   0  0  0  0  0  0  0  0  0  0  0  0
    8.1479  -14.9285   20.8404 C   0  0  2  0  0  0  0  0  0  0  0  0
    7.6644  -15.6983   19.7314 N   0  0  0  0  0  0  0  0  0  0  0  0
    8.4577  -15.7706   22.0275 C   0  0  0  0  0  0  0  0  0  0  0  0
    7.6027  -16.5787   22.4707 O   0  0  0  0  0  0  0  0  0  0  0  0
   12.7930  -17.0967   21.8959 N   0  0  0  0  0  0  0  0  0  0  0  0
   11.8291  -17.7019   22.7428 C   0  0  0  0  0  0  0  0  0  0  0  0
   11.3782  -18.8270   22.4181 O   0  0  0  0  0  0  0  0  0  0  0  0
   11.3595  -17.0536   23.9628 C   0  0  0  0  0  0  0  0  0  0  0  0
    9.9525  -16.5060   23.8855 C   0  0  2  0  0  0  0  0  0  0  0  0
    9.7003  -15.7185   22.7172 N   0  0  0  0  0  0  0  0  0  0  0  0
    9.6880  -15.6732   25.0786 C   0  0  0  0  0  0  0  0  0  0  0  0
    9.4659  -14.4524   24.9331 O   0  0  0  0  0  0  0  0  0  0  0  0
    9.6805  -16.2115   26.3466 O   0  0  0  0  0  0  0  0  0  0  0  0
  2  1  1  1
  2  4  1  0
  3  2  1  0
  4  5  2  0
  7  6  1  1
  7  8  1  0
  7  9  1  0
  9 11  1  0
 10  4  1  0
  9 10  1  6
 11 12  2  0
 11 18  1  0
 13 14  1  0
 14 15  2  0
 17 16  1  6
 16 14  1  0
 17 19  1  0
 18 17  1  0
 19 20  2  0
 19 21  1  0
M  END
$$$$
