AVN.pdb
     RDKit          3D

 21 20  0  0  1  0  0  0  0  0999 V2000
   10.0113  -16.5247   16.0716 C   0  0  0  0  0  0  0  0  0  0  0  0
    9.2062  -15.2750   16.3457 C   0  0  2  0  0  0  0  0  0  0  0  0
    9.6540  -14.2424   15.4322 N   0  0  0  0  0  0  0  0  0  0  0  0
    9.5003  -14.8822   17.7645 C   0  0  0  0  0  0  0  0  0  0  0  0
   10.5826  -14.3258   18.0344 O   0  0  0  0  0  0  0  0  0  0  0  0
    7.7078  -14.0638   22.3460 C   0  0  0  0  0  0  0  0  0  0  0  0
    7.5299  -14.5242   20.9419 C   0  0  1  0  0  0  0  0  0  0  0  0
    6.6998  -13.4934   20.1836 C   0  0  0  0  0  0  0  0  0  0  0  0
    8.8011  -14.7238   20.1821 C   0  0  2  0  0  0  0  0  0  0  0  0
    8.5910  -15.1193   18.8198 N   0  0  0  0  0  0  0  0  0  0  0  0
    9.7836  -15.5937   20.8837 C   0  0  0  0  0  0  0  0  0  0  0  0
    9.7025  -16.8446   20.7886 O   0  0  0  0  0  0  0  0  0  0  0  0
   14.6705  -15.7410   24.7182 N   0  0  0  0  0  0  0  0  0  0  0  0
   13.9961  -16.0595   23.5113 C   0  0  0  0  0  0  0  0  0  0  0  0
   14.3220  -17.1120   22.9106 O   0  0  0  0  0  0  0  0  0  0  0  0
   12.9493  -15.2029   22.9640 C   0  0  0  0  0  0  0  0  0  0  0  0
   11.8200  -15.9424   22.2832 C   0  0  2  0  0  0  0  0  0  0  0  0
   10.8443  -15.0846   21.6825 N   0  0  0  0  0  0  0  0  0  0  0  0
   11.1394  -16.8075   23.2709 C   0  0  0  0  0  0  0  0  0  0  0  0
   11.3350  -18.0410   23.2385 O   0  0  0  0  0  0  0  0  0  0  0  0
   10.2949  -16.2856   24.2260 O   0  0  0  0  0  0  0  0  0  0  0  0
  2  1  1  6
  2  4  1  0
  3  2  1  0
  4  5  2  0
  7  6  1  1
  7  8  1  0
  7  9  1  0
  9 11  1  0
 10  4  1  0
  9 10  1  6
 11 12  2  0
 11 18  1  0
 13 14  1  0
 14 15  2  0
 17 16  1  1
 16 14  1  0
 17 19  1  0
 18 17  1  0
 19 20  2  0
 19 21  1  0
M  END
$$$$
