AVN.pdb
     RDKit          3D

 21 20  0  0  1  0  0  0  0  0999 V2000
    6.8046  -16.5729   21.9462 C   0  0  0  0  0  0  0  0  0  0  0  0
    6.8317  -15.0615   21.9606 C   0  0  2  0  0  0  0  0  0  0  0  0
    7.5175  -14.6127   20.7649 N   0  0  0  0  0  0  0  0  0  0  0  0
    7.6008  -14.6616   23.1863 C   0  0  0  0  0  0  0  0  0  0  0  0
    8.8469  -14.6697   23.1576 O   0  0  0  0  0  0  0  0  0  0  0  0
    7.4924  -12.4371   27.6544 C   0  0  0  0  0  0  0  0  0  0  0  0
    6.7989  -12.9689   26.4497 C   0  0  1  0  0  0  0  0  0  0  0  0
    6.2932  -11.7989   25.6118 C   0  0  0  0  0  0  0  0  0  0  0  0
    7.6475  -13.8220   25.5637 C   0  0  2  0  0  0  0  0  0  0  0  0
    6.9639  -14.2715   24.3860 N   0  0  0  0  0  0  0  0  0  0  0  0
    8.3334  -14.9294   26.2829 C   0  0  0  0  0  0  0  0  0  0  0  0
    7.6704  -15.8977   26.7336 O   0  0  0  0  0  0  0  0  0  0  0  0
   10.8447  -17.5839   24.7217 N   0  0  0  0  0  0  0  0  0  0  0  0
   11.8244  -16.7507   25.3207 C   0  0  0  0  0  0  0  0  0  0  0  0
   12.7707  -16.3406   24.6058 O   0  0  0  0  0  0  0  0  0  0  0  0
   11.7550  -16.3677   26.7270 C   0  0  0  0  0  0  0  0  0  0  0  0
   10.3669  -16.0299   27.2216 C   0  0  2  0  0  0  0  0  0  0  0  0
    9.7381  -14.9645   26.5016 N   0  0  0  0  0  0  0  0  0  0  0  0
   10.4374  -15.6531   28.6499 C   0  0  0  0  0  0  0  0  0  0  0  0
   10.3751  -14.4459   28.9660 O   0  0  0  0  0  0  0  0  0  0  0  0
   10.5701  -16.6014   29.6403 O   0  0  0  0  0  0  0  0  0  0  0  0
  2  1  1  6
  2  4  1  0
  3  2  1  0
  4  5  2  0
  7  6  1  1
  7  8  1  0
  7  9  1  0
  9 11  1  0
 10  4  1  0
  9 10  1  6
 11 12  2  0
 11 18  1  0
 13 14  1  0
 14 15  2  0
 17 16  1  6
 16 14  1  0
 17 19  1  0
 18 17  1  0
 19 20  2  0
 19 21  1  0
M  END
$$$$
