AVN.pdb
     RDKit          3D

 21 20  0  0  1  0  0  0  0  0999 V2000
   10.2520  -19.0393   19.7761 C   0  0  0  0  0  0  0  0  0  0  0  0
   10.2628  -17.6691   19.1376 C   0  0  2  0  0  0  0  0  0  0  0  0
   11.5809  -17.4446   18.5775 N   0  0  0  0  0  0  0  0  0  0  0  0
    9.9869  -16.6852   20.2374 C   0  0  0  0  0  0  0  0  0  0  0  0
   10.8629  -16.4648   21.0964 O   0  0  0  0  0  0  0  0  0  0  0  0
    6.9421  -13.1468   22.0548 C   0  0  0  0  0  0  0  0  0  0  0  0
    7.3289  -14.1179   20.9954 C   0  0  1  0  0  0  0  0  0  0  0  0
    7.7588  -13.3484   19.7505 C   0  0  0  0  0  0  0  0  0  0  0  0
    8.4489  -15.0355   21.3651 C   0  0  2  0  0  0  0  0  0  0  0  0
    8.7612  -15.9899   20.3414 N   0  0  0  0  0  0  0  0  0  0  0  0
    8.2845  -15.6668   22.7025 C   0  0  0  0  0  0  0  0  0  0  0  0
    7.7926  -16.8194   22.8021 O   0  0  0  0  0  0  0  0  0  0  0  0
    8.5423  -12.2968   26.9825 N   0  0  0  0  0  0  0  0  0  0  0  0
    8.0081  -13.4658   26.3817 C   0  0  0  0  0  0  0  0  0  0  0  0
    6.8714  -13.3946   25.8550 O   0  0  0  0  0  0  0  0  0  0  0  0
    8.7412  -14.7273   26.3643 C   0  0  0  0  0  0  0  0  0  0  0  0
    8.4190  -15.6286   25.1940 C   0  0  2  0  0  0  0  0  0  0  0  0
    8.6597  -15.0289   23.9169 N   0  0  0  0  0  0  0  0  0  0  0  0
    6.9967  -16.0277   25.2642 C   0  0  0  0  0  0  0  0  0  0  0  0
    6.1688  -15.4691   24.5136 O   0  0  0  0  0  0  0  0  0  0  0  0
    6.5630  -17.0010   26.1373 O   0  0  0  0  0  0  0  0  0  0  0  0
  2  1  1  1
  2  4  1  0
  3  2  1  0
  4  5  2  0
  7  6  1  1
  7  8  1  0
  7  9  1  0
  9 11  1  0
 10  4  1  0
  9 10  1  6
 11 12  2  0
 11 18  1  0
 13 14  1  0
 14 15  2  0
 17 16  1  1
 16 14  1  0
 17 19  1  0
 18 17  1  0
 19 20  2  0
 19 21  1  0
M  END
$$$$
