AVN.pdb
     RDKit          3D

 21 20  0  0  1  0  0  0  0  0999 V2000
    6.8252  -18.4796   18.1140 C   0  0  0  0  0  0  0  0  0  0  0  0
    7.3011  -17.1401   17.5996 C   0  0  2  0  0  0  0  0  0  0  0  0
    8.0656  -17.3691   16.3894 N   0  0  0  0  0  0  0  0  0  0  0  0
    8.1784  -16.5603   18.6710 C   0  0  0  0  0  0  0  0  0  0  0  0
    9.3608  -16.9427   18.7684 O   0  0  0  0  0  0  0  0  0  0  0  0
    7.8198  -12.6729   19.8540 C   0  0  0  0  0  0  0  0  0  0  0  0
    8.0366  -13.6106   20.9893 C   0  0  1  0  0  0  0  0  0  0  0  0
    6.7213  -13.7927   21.7400 C   0  0  0  0  0  0  0  0  0  0  0  0
    8.5211  -14.9685   20.5966 C   0  0  2  0  0  0  0  0  0  0  0  0
    7.7148  -15.5874   19.5850 N   0  0  0  0  0  0  0  0  0  0  0  0
    8.7736  -15.8684   21.7545 C   0  0  0  0  0  0  0  0  0  0  0  0
    7.8205  -16.4796   22.3007 O   0  0  0  0  0  0  0  0  0  0  0  0
   13.7712  -17.2807   23.4227 N   0  0  0  0  0  0  0  0  0  0  0  0
   12.6411  -17.4295   22.5781 C   0  0  0  0  0  0  0  0  0  0  0  0
   12.7315  -17.0307   21.3917 O   0  0  0  0  0  0  0  0  0  0  0  0
   11.3973  -18.0267   23.0528 C   0  0  0  0  0  0  0  0  0  0  0  0
   10.2949  -17.0362   23.3512 C   0  0  2  0  0  0  0  0  0  0  0  0
   10.0672  -16.0888   22.3026 N   0  0  0  0  0  0  0  0  0  0  0  0
   10.6269  -16.2962   24.5878 C   0  0  0  0  0  0  0  0  0  0  0  0
   10.7933  -16.9298   25.6517 O   0  0  0  0  0  0  0  0  0  0  0  0
   10.7573  -14.9248   24.5947 O   0  0  0  0  0  0  0  0  0  0  0  0
  2  1  1  1
  2  4  1  0
  3  2  1  0
  4  5  2  0
  7  6  1  6
  7  8  1  0
  7  9  1  0
  9 11  1  0
 10  4  1  0
  9 10  1  6
 11 12  2  0
 11 18  1  0
 13 14  1  0
 14 15  2  0
 17 16  1  6
 16 14  1  0
 17 19  1  0
 18 17  1  0
 19 20  2  0
 19 21  1  0
M  END
$$$$
