AVN.pdb
     RDKit          3D

 21 20  0  0  1  0  0  0  0  0999 V2000
    7.6586  -18.9473   17.9302 C   0  0  0  0  0  0  0  0  0  0  0  0
    7.7687  -17.5343   17.4045 C   0  0  2  0  0  0  0  0  0  0  0  0
    8.5616  -17.5665   16.1913 N   0  0  0  0  0  0  0  0  0  0  0  0
    8.4699  -16.7386   18.4671 C   0  0  0  0  0  0  0  0  0  0  0  0
    9.7042  -16.8491   18.6011 O   0  0  0  0  0  0  0  0  0  0  0  0
    8.1439  -13.1434   21.9448 C   0  0  0  0  0  0  0  0  0  0  0  0
    7.5362  -13.9691   20.8659 C   0  0  1  0  0  0  0  0  0  0  0  0
    7.2131  -13.0706   19.6764 C   0  0  0  0  0  0  0  0  0  0  0  0
    8.3997  -15.0817   20.3667 C   0  0  2  0  0  0  0  0  0  0  0  0
    7.7813  -15.8588   19.3323 N   0  0  0  0  0  0  0  0  0  0  0  0
    8.9690  -15.9262   21.4516 C   0  0  0  0  0  0  0  0  0  0  0  0
    8.2878  -16.8561   21.9532 O   0  0  0  0  0  0  0  0  0  0  0  0
   13.4656  -16.2486   20.9263 N   0  0  0  0  0  0  0  0  0  0  0  0
   12.8809  -17.1283   21.8733 C   0  0  0  0  0  0  0  0  0  0  0  0
   12.8916  -18.3583   21.6249 O   0  0  0  0  0  0  0  0  0  0  0  0
   12.2778  -16.6402   23.1091 C   0  0  0  0  0  0  0  0  0  0  0  0
   10.7712  -16.5207   23.0721 C   0  0  2  0  0  0  0  0  0  0  0  0
   10.2780  -15.7430   21.9764 N   0  0  0  0  0  0  0  0  0  0  0  0
   10.3005  -15.9066   24.3324 C   0  0  0  0  0  0  0  0  0  0  0  0
    9.7196  -14.8012   24.2925 O   0  0  0  0  0  0  0  0  0  0  0  0
   10.4872  -16.5244   25.5495 O   0  0  0  0  0  0  0  0  0  0  0  0
  2  1  1  1
  2  4  1  0
  3  2  1  0
  4  5  2  0
  7  6  1  1
  7  8  1  0
  7  9  1  0
  9 11  1  0
 10  4  1  0
  9 10  1  6
 11 12  2  0
 11 18  1  0
 13 14  1  0
 14 15  2  0
 17 16  1  1
 16 14  1  0
 17 19  1  0
 18 17  1  0
 19 20  2  0
 19 21  1  0
M  END
$$$$
