AVN.pdb
     RDKit          3D

 21 20  0  0  1  0  0  0  0  0999 V2000
    7.7786  -18.7202   17.4613 C   0  0  0  0  0  0  0  0  0  0  0  0
    7.9182  -17.2913   16.9881 C   0  0  2  0  0  0  0  0  0  0  0  0
    8.7730  -17.2869   15.8173 N   0  0  0  0  0  0  0  0  0  0  0  0
    8.5646  -16.5327   18.1109 C   0  0  0  0  0  0  0  0  0  0  0  0
    9.8015  -16.5879   18.2554 O   0  0  0  0  0  0  0  0  0  0  0  0
    7.9806  -13.1532   21.7721 C   0  0  0  0  0  0  0  0  0  0  0  0
    7.4362  -13.9635   20.6487 C   0  0  1  0  0  0  0  0  0  0  0  0
    7.0125  -13.0269   19.5217 C   0  0  0  0  0  0  0  0  0  0  0  0
    8.3922  -14.9565   20.0717 C   0  0  2  0  0  0  0  0  0  0  0  0
    7.8211  -15.7492   19.0219 N   0  0  0  0  0  0  0  0  0  0  0  0
    9.0843  -15.7823   21.0980 C   0  0  0  0  0  0  0  0  0  0  0  0
    8.5314  -16.8129   21.5592 O   0  0  0  0  0  0  0  0  0  0  0  0
   13.5352  -18.3702   23.1981 N   0  0  0  0  0  0  0  0  0  0  0  0
   13.2929  -16.9952   23.4495 C   0  0  0  0  0  0  0  0  0  0  0  0
   13.7189  -16.5052   24.5234 O   0  0  0  0  0  0  0  0  0  0  0  0
   12.5708  -16.1537   22.5011 C   0  0  0  0  0  0  0  0  0  0  0  0
   11.0720  -16.3517   22.4951 C   0  0  2  0  0  0  0  0  0  0  0  0
   10.3743  -15.4705   21.6089 N   0  0  0  0  0  0  0  0  0  0  0  0
   10.5491  -16.1511   23.8638 C   0  0  0  0  0  0  0  0  0  0  0  0
   10.7934  -17.0061   24.7415 O   0  0  0  0  0  0  0  0  0  0  0  0
    9.7990  -15.0439   24.1942 O   0  0  0  0  0  0  0  0  0  0  0  0
  2  1  1  1
  2  4  1  0
  3  2  1  0
  4  5  2  0
  7  6  1  1
  7  8  1  0
  7  9  1  0
  9 11  1  0
 10  4  1  0
  9 10  1  6
 11 12  2  0
 11 18  1  0
 13 14  1  0
 14 15  2  0
 17 16  1  1
 16 14  1  0
 17 19  1  0
 18 17  1  0
 19 20  2  0
 19 21  1  0
M  END
$$$$
