AVN.pdb
     RDKit          3D

 21 20  0  0  1  0  0  0  0  0999 V2000
    7.1521  -18.8664   17.8902 C   0  0  0  0  0  0  0  0  0  0  0  0
    7.2853  -17.4544   17.3671 C   0  0  2  0  0  0  0  0  0  0  0  0
    7.9727  -17.5103   16.0920 N   0  0  0  0  0  0  0  0  0  0  0  0
    8.1091  -16.7040   18.3733 C   0  0  0  0  0  0  0  0  0  0  0  0
    9.3470  -16.8495   18.3826 O   0  0  0  0  0  0  0  0  0  0  0  0
    8.2327  -13.0749   21.8223 C   0  0  0  0  0  0  0  0  0  0  0  0
    7.5161  -13.8731   20.7906 C   0  0  1  0  0  0  0  0  0  0  0  0
    7.1929  -12.9721   19.6029 C   0  0  0  0  0  0  0  0  0  0  0  0
    8.2761  -15.0489   20.2685 C   0  0  2  0  0  0  0  0  0  0  0  0
    7.5333  -15.8290   19.3218 N   0  0  0  0  0  0  0  0  0  0  0  0
    8.8910  -15.8824   21.3369 C   0  0  0  0  0  0  0  0  0  0  0  0
    8.1765  -16.6482   22.0321 O   0  0  0  0  0  0  0  0  0  0  0  0
   13.6975  -18.6818   23.4958 N   0  0  0  0  0  0  0  0  0  0  0  0
   12.9593  -17.4939   23.7339 C   0  0  0  0  0  0  0  0  0  0  0  0
   12.8272  -17.1063   24.9201 O   0  0  0  0  0  0  0  0  0  0  0  0
   12.3609  -16.7271   22.6462 C   0  0  0  0  0  0  0  0  0  0  0  0
   10.8493  -16.7017   22.6488 C   0  0  2  0  0  0  0  0  0  0  0  0
   10.2818  -15.8678   21.6332 N   0  0  0  0  0  0  0  0  0  0  0  0
   10.3727  -16.2270   23.9658 C   0  0  0  0  0  0  0  0  0  0  0  0
    9.9440  -17.0576   24.7948 O   0  0  0  0  0  0  0  0  0  0  0  0
   10.3902  -14.8907   24.3003 O   0  0  0  0  0  0  0  0  0  0  0  0
  2  1  1  1
  2  4  1  0
  3  2  1  0
  4  5  2  0
  7  6  1  1
  7  8  1  0
  7  9  1  0
  9 11  1  0
 10  4  1  0
  9 10  1  1
 11 12  2  0
 11 18  1  0
 13 14  1  0
 14 15  2  0
 17 16  1  1
 16 14  1  0
 17 19  1  0
 18 17  1  0
 19 20  2  0
 19 21  1  0
M  END
$$$$
