AVN.pdb
     RDKit          3D

 21 20  0  0  1  0  0  0  0  0999 V2000
    7.8826  -18.8595   18.2216 C   0  0  0  0  0  0  0  0  0  0  0  0
    8.2692  -17.5110   17.6583 C   0  0  2  0  0  0  0  0  0  0  0  0
    9.3122  -17.7176   16.6730 N   0  0  0  0  0  0  0  0  0  0  0  0
    8.7904  -16.7024   18.8107 C   0  0  0  0  0  0  0  0  0  0  0  0
    9.9787  -16.8337   19.1637 O   0  0  0  0  0  0  0  0  0  0  0  0
    7.9029  -12.9862   22.0624 C   0  0  0  0  0  0  0  0  0  0  0  0
    7.5315  -13.7981   20.8716 C   0  0  1  0  0  0  0  0  0  0  0  0
    7.5323  -12.8994   19.6391 C   0  0  0  0  0  0  0  0  0  0  0  0
    8.4422  -14.9486   20.5889 C   0  0  2  0  0  0  0  0  0  0  0  0
    7.9811  -15.7872   19.5209 N   0  0  0  0  0  0  0  0  0  0  0  0
    8.8158  -15.7242   21.8026 C   0  0  0  0  0  0  0  0  0  0  0  0
    8.0417  -16.6064   22.2531 O   0  0  0  0  0  0  0  0  0  0  0  0
   13.5149  -17.3992   25.0891 N   0  0  0  0  0  0  0  0  0  0  0  0
   12.6029  -17.7985   24.0783 C   0  0  0  0  0  0  0  0  0  0  0  0
   12.2987  -19.0136   24.0013 O   0  0  0  0  0  0  0  0  0  0  0  0
   12.0217  -16.8415   23.1427 C   0  0  0  0  0  0  0  0  0  0  0  0
   10.5668  -16.5166   23.3943 C   0  0  2  0  0  0  0  0  0  0  0  0
   10.0329  -15.5252   22.5107 N   0  0  0  0  0  0  0  0  0  0  0  0
   10.4081  -16.0395   24.7851 C   0  0  0  0  0  0  0  0  0  0  0  0
   10.5372  -16.8506   25.7266 O   0  0  0  0  0  0  0  0  0  0  0  0
   10.1214  -14.7219   25.0673 O   0  0  0  0  0  0  0  0  0  0  0  0
  2  1  1  1
  2  4  1  0
  3  2  1  0
  4  5  2  0
  7  6  1  1
  7  8  1  0
  7  9  1  0
  9 11  1  0
 10  4  1  0
  9 10  1  6
 11 12  2  0
 11 18  1  0
 13 14  1  0
 14 15  2  0
 17 16  1  6
 16 14  1  0
 17 19  1  0
 18 17  1  0
 19 20  2  0
 19 21  1  0
M  END
$$$$
