AVN.pdb
     RDKit          3D

 21 20  0  0  1  0  0  0  0  0999 V2000
    8.1565  -18.7409   17.3849 C   0  0  0  0  0  0  0  0  0  0  0  0
    8.1081  -17.2820   16.9916 C   0  0  2  0  0  0  0  0  0  0  0  0
    8.9250  -17.1085   15.8067 N   0  0  0  0  0  0  0  0  0  0  0  0
    8.6861  -16.5117   18.1433 C   0  0  0  0  0  0  0  0  0  0  0  0
    9.9141  -16.5526   18.3531 O   0  0  0  0  0  0  0  0  0  0  0  0
    7.8921  -13.2904   21.9024 C   0  0  0  0  0  0  0  0  0  0  0  0
    7.4309  -14.0061   20.6817 C   0  0  1  0  0  0  0  0  0  0  0  0
    7.2213  -12.9920   19.5618 C   0  0  0  0  0  0  0  0  0  0  0  0
    8.3729  -15.0485   20.1731 C   0  0  2  0  0  0  0  0  0  0  0  0
    7.8871  -15.7326   19.0101 N   0  0  0  0  0  0  0  0  0  0  0  0
    8.8512  -15.9839   21.2269 C   0  0  0  0  0  0  0  0  0  0  0  0
    8.1180  -16.9286   21.6148 O   0  0  0  0  0  0  0  0  0  0  0  0
   11.9303  -19.4605   21.3889 N   0  0  0  0  0  0  0  0  0  0  0  0
   12.1931  -18.0673   21.4409 C   0  0  0  0  0  0  0  0  0  0  0  0
   12.6204  -17.5059   20.4031 O   0  0  0  0  0  0  0  0  0  0  0  0
   11.9802  -17.2876   22.6557 C   0  0  0  0  0  0  0  0  0  0  0  0
   10.5639  -16.7956   22.8501 C   0  0  2  0  0  0  0  0  0  0  0  0
   10.1270  -15.8745   21.8454 N   0  0  0  0  0  0  0  0  0  0  0  0
   10.4543  -16.1370   24.1697 C   0  0  0  0  0  0  0  0  0  0  0  0
   10.3395  -16.8414   25.1952 O   0  0  0  0  0  0  0  0  0  0  0  0
   10.4758  -14.7653   24.2952 O   0  0  0  0  0  0  0  0  0  0  0  0
  2  1  1  1
  2  4  1  0
  3  2  1  0
  4  5  2  0
  7  6  1  1
  7  8  1  0
  7  9  1  0
  9 11  1  0
 10  4  1  0
  9 10  1  6
 11 12  2  0
 11 18  1  0
 13 14  1  0
 14 15  2  0
 17 16  1  6
 16 14  1  0
 17 19  1  0
 18 17  1  0
 19 20  2  0
 19 21  1  0
M  END
$$$$
