RWV.pdb
     RDKit          3D

 33 34  0  0  1  0  0  0  0  0999 V2000
   14.9247  -13.8886   18.6081 N   0  0  0  0  0  0  0  0  0  0  0  0
   15.0419  -15.0559   17.7723 C   0  0  0  0  0  0  0  0  0  0  0  0
   15.7763  -15.0385   16.7191 N   0  0  0  0  0  0  0  0  0  0  0  0
   14.3358  -16.2365   18.1201 N   0  0  0  0  0  0  0  0  0  0  0  0
   13.2842  -16.1542   19.1217 C   0  0  0  0  0  0  0  0  0  0  0  0
   12.1141  -15.4384   18.4855 C   0  0  0  0  0  0  0  0  0  0  0  0
   10.9832  -15.1716   19.4200 C   0  0  0  0  0  0  0  0  0  0  0  0
   10.8847  -16.2298   20.4946 C   0  0  2  0  0  0  0  0  0  0  0  0
    9.9066  -17.2073   20.0611 N   0  0  0  0  0  0  0  0  0  0  0  0
   10.4669  -15.6431   21.7998 C   0  0  0  0  0  0  0  0  0  0  0  0
   11.0297  -14.5994   22.2599 O   0  0  0  0  0  0  0  0  0  0  0  0
   15.8982  -15.8471   16.0803 N   0  0  0  0  0  0  0  0  0  0  0  0
    9.4444  -16.2295   22.5486 C   0  0  1  0  0  0  0  0  0  0  0  0
    8.9834  -15.7754   23.8416 C   0  0  0  0  0  0  0  0  0  0  0  0
    7.6008  -16.3450   24.0641 C   0  0  0  0  0  0  0  0  0  0  0  0
    6.7951  -15.5359   24.9803 C   0  0  0  0  0  0  0  0  0  0  0  0
    5.6862  -15.9118   25.6993 N   0  0  0  0  0  0  0  0  0  0  0  0
    5.2531  -14.8419   26.4228 C   0  0  0  0  0  0  0  0  0  0  0  0
    6.0534  -13.7758   26.1936 C   0  0  0  0  0  0  0  0  0  0  0  0
    6.0853  -12.4730   26.6433 C   0  0  0  0  0  0  0  0  0  0  0  0
    7.0651  -11.6168   26.1991 C   0  0  0  0  0  0  0  0  0  0  0  0
    8.0162  -12.0442   25.3096 C   0  0  0  0  0  0  0  0  0  0  0  0
    7.9946  -13.3442   24.8525 C   0  0  0  0  0  0  0  0  0  0  0  0
    7.0245  -14.2138   25.2845 C   0  0  0  0  0  0  0  0  0  0  0  0
    9.9068  -16.1635   24.9316 O   0  0  0  0  0  0  0  0  0  0  0  0
   10.7215  -17.1004   24.7451 C   0  0  0  0  0  0  0  0  0  0  0  0
   11.0010  -13.3809   27.8083 C   0  0  2  0  0  0  0  0  0  0  0  0
   10.7990  -14.7707   28.3208 C   0  0  0  0  0  0  0  0  0  0  0  0
    9.5581  -14.8171   29.1660 C   0  0  2  0  0  0  0  0  0  0  0  0
   10.8044  -15.8297   27.2596 N   0  0  0  0  0  0  0  0  0  0  0  0
    9.8944  -15.5099   26.1709 C   0  0  0  0  0  0  0  0  0  0  0  0
   10.5704  -17.1944   27.7583 O   0  0  0  0  0  0  0  0  0  0  0  0
   11.5675  -17.9109   28.3772 O   0  0  0  0  0  0  0  0  0  0  0  0
  2  1  1  0
  2  4  1  0
  3  2  2  0
  5  4  1  0
  6  5  1  0
  7  6  1  0
  8  7  1  0
  8  9  1  6
 10  8  1  0
 10 12  1  0
 11 10  2  0
 13 12  1  0
 13 14  1  1
 15 14  1  0
 15 16  2  0
 17 16  1  0
 18 23  2  0
 18 17  1  0
 19 18  1  0
 20 19  2  0
 21 20  1  0
 21 22  2  0
 22 23  1  0
 23 15  1  0
 24 13  1  0
 25 24  2  0
 27 26  1  1
 27 28  1  0
 29 30  1  1
 29 27  1  0
 30 24  1  0
 31 29  1  0
 32 31  1  0
 33 31  2  0
M  END
$$$$
