RWV.pdb
     RDKit          3D

 33 34  0  0  1  0  0  0  0  0999 V2000
   15.2169  -17.2535   17.4194 N   0  0  0  0  0  0  0  0  0  0  0  0
   15.3764  -18.6657   17.6542 C   0  0  0  0  0  0  0  0  0  0  0  0
   16.5377  -19.2118   17.6095 N   0  0  0  0  0  0  0  0  0  0  0  0
   14.2345  -19.4589   17.9375 N   0  0  0  0  0  0  0  0  0  0  0  0
   12.9275  -18.8210   17.9631 C   0  0  0  0  0  0  0  0  0  0  0  0
   12.2347  -19.2693   19.2300 C   0  0  0  0  0  0  0  0  0  0  0  0
   11.9830  -18.1711   20.2068 C   0  0  0  0  0  0  0  0  0  0  0  0
   10.5983  -18.2623   20.8056 C   0  0  2  0  0  0  0  0  0  0  0  0
    9.6465  -18.2777   19.7128 N   0  0  0  0  0  0  0  0  0  0  0  0
   10.3162  -17.1063   21.7036 C   0  0  0  0  0  0  0  0  0  0  0  0
   10.6011  -15.9177   21.3518 O   0  0  0  0  0  0  0  0  0  0  0  0
   16.7118  -20.2238   17.7593 N   0  0  0  0  0  0  0  0  0  0  0  0
    9.7307  -17.3045   22.9558 C   0  0  1  0  0  0  0  0  0  0  0  0
    9.3244  -16.2591   23.8683 C   0  0  0  0  0  0  0  0  0  0  0  0
    7.8279  -16.3656   24.0543 C   0  0  0  0  0  0  0  0  0  0  0  0
    7.0788  -15.5326   23.1117 C   0  0  0  0  0  0  0  0  0  0  0  0
    5.7183  -15.3664   23.0158 N   0  0  0  0  0  0  0  0  0  0  0  0
    5.4561  -14.5007   21.9971 C   0  0  0  0  0  0  0  0  0  0  0  0
    6.6138  -14.0972   21.4255 C   0  0  0  0  0  0  0  0  0  0  0  0
    6.9387  -13.2515   20.3863 C   0  0  0  0  0  0  0  0  0  0  0  0
    8.2567  -13.0532   20.0486 C   0  0  0  0  0  0  0  0  0  0  0  0
    9.2575  -13.6892   20.7356 C   0  0  0  0  0  0  0  0  0  0  0  0
    8.9454  -14.5373   21.7761 C   0  0  0  0  0  0  0  0  0  0  0  0
    7.6355  -14.7479   22.1282 C   0  0  0  0  0  0  0  0  0  0  0  0
   10.0347  -16.3419   25.1643 O   0  0  0  0  0  0  0  0  0  0  0  0
   10.8610  -17.2674   25.3563 C   0  0  0  0  0  0  0  0  0  0  0  0
   10.5282  -13.0080   27.6387 C   0  0  2  0  0  0  0  0  0  0  0  0
   10.1499  -14.2792   28.3284 C   0  0  0  0  0  0  0  0  0  0  0  0
    8.7343  -14.1795   28.8210 C   0  0  2  0  0  0  0  0  0  0  0  0
   10.3839  -15.5181   27.5173 N   0  0  0  0  0  0  0  0  0  0  0  0
    9.8073  -15.4106   26.1862 C   0  0  0  0  0  0  0  0  0  0  0  0
    9.9638  -16.7661   28.1743 O   0  0  0  0  0  0  0  0  0  0  0  0
   10.7333  -17.3557   29.1494 O   0  0  0  0  0  0  0  0  0  0  0  0
  2  1  1  0
  2  4  1  0
  3  2  2  0
  5  4  1  0
  6  5  1  0
  7  6  1  0
  8  7  1  0
  8  9  1  6
 10  8  1  0
 10 12  1  0
 11 10  2  0
 13 12  1  0
 13 14  1  1
 15 14  1  0
 15 16  2  0
 17 16  1  0
 18 23  2  0
 18 17  1  0
 19 18  1  0
 20 19  2  0
 21 20  1  0
 21 22  2  0
 22 23  1  0
 23 15  1  0
 24 13  1  0
 25 24  2  0
 27 26  1  1
 27 28  1  0
 29 30  1  1
 29 27  1  0
 30 24  1  0
 31 29  1  0
 32 31  1  0
 33 31  2  0
M  END
$$$$
