RWV.pdb
     RDKit          3D

 33 34  0  0  1  0  0  0  0  0999 V2000
    7.1363  -15.2504   17.4742 N   0  0  0  0  0  0  0  0  0  0  0  0
    8.1208  -14.5334   16.7050 C   0  0  0  0  0  0  0  0  0  0  0  0
    7.9516  -13.2944   16.4134 N   0  0  0  0  0  0  0  0  0  0  0  0
    9.2895  -15.2079   16.2661 N   0  0  0  0  0  0  0  0  0  0  0  0
   10.0073  -16.0513   17.2092 C   0  0  0  0  0  0  0  0  0  0  0  0
   10.6817  -15.1358   18.2058 C   0  0  0  0  0  0  0  0  0  0  0  0
   11.5415  -15.8440   19.1971 C   0  0  0  0  0  0  0  0  0  0  0  0
   10.7199  -16.6673   20.1621 C   0  0  2  0  0  0  0  0  0  0  0  0
    9.5764  -17.1838   19.4370 N   0  0  0  0  0  0  0  0  0  0  0  0
   10.2559  -15.8486   21.3183 C   0  0  0  0  0  0  0  0  0  0  0  0
   10.2834  -14.5777   21.2751 O   0  0  0  0  0  0  0  0  0  0  0  0
    8.6177  -12.7321   15.8505 N   0  0  0  0  0  0  0  0  0  0  0  0
    9.7790  -16.4621   22.4786 C   0  0  1  0  0  0  0  0  0  0  0  0
    9.2816  -15.7742   23.6491 C   0  0  0  0  0  0  0  0  0  0  0  0
    7.7762  -15.9121   23.6597 C   0  0  0  0  0  0  0  0  0  0  0  0
    7.1530  -15.2347   24.7981 C   0  0  0  0  0  0  0  0  0  0  0  0
    6.3943  -15.7818   25.8046 N   0  0  0  0  0  0  0  0  0  0  0  0
    6.0170  -14.7871   26.6555 C   0  0  0  0  0  0  0  0  0  0  0  0
    6.5119  -13.6028   26.2285 C   0  0  0  0  0  0  0  0  0  0  0  0
    6.4479  -12.3038   26.6858 C   0  0  0  0  0  0  0  0  0  0  0  0
    7.0835  -11.2999   25.9941 C   0  0  0  0  0  0  0  0  0  0  0  0
    7.7841  -11.5754   24.8489 C   0  0  0  0  0  0  0  0  0  0  0  0
    7.8551  -12.8700   24.3814 C   0  0  0  0  0  0  0  0  0  0  0  0
    7.2272  -13.8857   25.0583 C   0  0  0  0  0  0  0  0  0  0  0  0
    9.8784  -16.2961   24.8992 O   0  0  0  0  0  0  0  0  0  0  0  0
   10.3433  -17.4621   24.9204 C   0  0  0  0  0  0  0  0  0  0  0  0
   11.0078  -15.3573   29.7020 C   0  0  2  0  0  0  0  0  0  0  0  0
   10.3493  -14.9791   28.4144 C   0  0  0  0  0  0  0  0  0  0  0  0
   10.8087  -13.6102   28.0003 C   0  0  1  0  0  0  0  0  0  0  0  0
   10.5076  -15.9883   27.3171 N   0  0  0  0  0  0  0  0  0  0  0  0
    9.9373  -15.5193   26.0638 C   0  0  0  0  0  0  0  0  0  0  0  0
   10.0140  -17.3341   27.6498 O   0  0  0  0  0  0  0  0  0  0  0  0
   10.8024  -18.2405   28.3186 O   0  0  0  0  0  0  0  0  0  0  0  0
  2  1  1  0
  2  4  1  0
  3  2  2  0
  5  4  1  0
  6  5  1  0
  7  6  1  0
  8  7  1  0
  8  9  1  6
 10  8  1  0
 10 12  1  0
 11 10  2  0
 13 12  1  0
 13 14  1  1
 15 14  1  0
 15 16  2  0
 17 16  1  0
 18 23  2  0
 18 17  1  0
 19 18  1  0
 20 19  2  0
 21 20  1  0
 21 22  2  0
 22 23  1  0
 23 15  1  0
 24 13  1  0
 25 24  2  0
 27 26  1  1
 27 28  1  0
 29 30  1  1
 29 27  1  0
 30 24  1  0
 31 29  1  0
 32 31  1  0
 33 31  2  0
M  END
$$$$
