RWV.pdb
     RDKit          3D

 33 34  0  0  1  0  0  0  0  0999 V2000
   10.2800  -14.0876   15.3119 N   0  0  0  0  0  0  0  0  0  0  0  0
    8.8457  -14.0182   15.1975 C   0  0  0  0  0  0  0  0  0  0  0  0
    8.2752  -14.0707   14.0483 N   0  0  0  0  0  0  0  0  0  0  0  0
    8.0579  -13.8898   16.3706 N   0  0  0  0  0  0  0  0  0  0  0  0
    7.8969  -15.0476   17.2363 C   0  0  0  0  0  0  0  0  0  0  0  0
    9.2246  -15.2844   17.9198 C   0  0  0  0  0  0  0  0  0  0  0  0
    9.3080  -14.7219   19.2982 C   0  0  0  0  0  0  0  0  0  0  0  0
    9.1939  -15.8012   20.3500 C   0  0  2  0  0  0  0  0  0  0  0  0
    7.9630  -16.5259   20.1051 N   0  0  0  0  0  0  0  0  0  0  0  0
    9.1736  -15.2227   21.7238 C   0  0  0  0  0  0  0  0  0  0  0  0
    9.0640  -13.9686   21.9058 O   0  0  0  0  0  0  0  0  0  0  0  0
    7.2471  -14.0861   13.9084 N   0  0  0  0  0  0  0  0  0  0  0  0
    9.2750  -16.0487   22.8451 C   0  0  1  0  0  0  0  0  0  0  0  0
    8.9367  -15.6721   24.1995 C   0  0  0  0  0  0  0  0  0  0  0  0
    7.6594  -16.3897   24.5721 C   0  0  0  0  0  0  0  0  0  0  0  0
    6.6324  -15.4856   25.0928 C   0  0  0  0  0  0  0  0  0  0  0  0
    5.3350  -15.7778   25.4381 N   0  0  0  0  0  0  0  0  0  0  0  0
    4.7335  -14.6367   25.8763 C   0  0  0  0  0  0  0  0  0  0  0  0
    5.6079  -13.6059   25.8258 C   0  0  0  0  0  0  0  0  0  0  0  0
    5.5446  -12.2647   26.1383 C   0  0  0  0  0  0  0  0  0  0  0  0
    6.6500  -11.4659   25.9643 C   0  0  0  0  0  0  0  0  0  0  0  0
    7.8211  -11.9889   25.4813 C   0  0  0  0  0  0  0  0  0  0  0  0
    7.8968  -13.3281   25.1649 C   0  0  0  0  0  0  0  0  0  0  0  0
    6.8039  -14.1416   25.3319 C   0  0  0  0  0  0  0  0  0  0  0  0
   10.0255  -15.9814   25.1536 O   0  0  0  0  0  0  0  0  0  0  0  0
   10.9194  -16.7993   24.8247 C   0  0  0  0  0  0  0  0  0  0  0  0
   10.8115  -13.3625   28.3340 C   0  0  2  0  0  0  0  0  0  0  0  0
   10.9813  -14.8191   28.6244 C   0  0  0  0  0  0  0  0  0  0  0  0
    9.8802  -15.2793   29.5367 C   0  0  2  0  0  0  0  0  0  0  0  0
   11.1091  -15.6834   27.4061 N   0  0  0  0  0  0  0  0  0  0  0  0
   10.0837  -15.3829   26.4191 C   0  0  0  0  0  0  0  0  0  0  0  0
   11.1647  -17.1272   27.6854 O   0  0  0  0  0  0  0  0  0  0  0  0
   12.2963  -17.7132   28.2018 O   0  0  0  0  0  0  0  0  0  0  0  0
  2  1  1  0
  2  4  1  0
  3  2  2  0
  5  4  1  0
  6  5  1  0
  7  6  1  0
  8  7  1  0
  8  9  1  6
 10  8  1  0
 10 12  1  0
 11 10  2  0
 13 12  1  0
 13 14  1  1
 15 14  1  0
 15 16  2  0
 17 16  1  0
 18 23  2  0
 18 17  1  0
 19 18  1  0
 20 19  2  0
 21 20  1  0
 21 22  2  0
 22 23  1  0
 23 15  1  0
 24 13  1  0
 25 24  2  0
 27 26  1  1
 27 28  1  0
 29 30  1  1
 29 27  1  0
 30 24  1  0
 31 29  1  0
 32 31  1  0
 33 31  2  0
M  END
$$$$
