RWV.pdb
     RDKit          3D

 33 34  0  0  1  0  0  0  0  0999 V2000
    7.6667  -12.0814   16.6151 N   0  0  0  0  0  0  0  0  0  0  0  0
    7.9085  -13.4191   16.1386 C   0  0  0  0  0  0  0  0  0  0  0  0
    8.2051  -13.6343   14.9080 N   0  0  0  0  0  0  0  0  0  0  0  0
    7.8166  -14.5088   17.0428 N   0  0  0  0  0  0  0  0  0  0  0  0
    7.4989  -14.2377   18.4363 C   0  0  0  0  0  0  0  0  0  0  0  0
    7.3222  -15.5728   19.1236 C   0  0  0  0  0  0  0  0  0  0  0  0
    6.9008  -15.4714   20.5503 C   0  0  0  0  0  0  0  0  0  0  0  0
    7.4838  -16.5876   21.3859 C   0  0  2  0  0  0  0  0  0  0  0  0
    6.3871  -17.2468   22.0663 N   0  0  0  0  0  0  0  0  0  0  0  0
    8.4580  -16.0668   22.3869 C   0  0  0  0  0  0  0  0  0  0  0  0
    9.1592  -15.0339   22.1438 O   0  0  0  0  0  0  0  0  0  0  0  0
    8.5547  -14.5405   14.5428 N   0  0  0  0  0  0  0  0  0  0  0  0
    8.6223  -16.7046   23.6183 C   0  0  1  0  0  0  0  0  0  0  0  0
    9.5287  -16.2892   24.6654 C   0  0  0  0  0  0  0  0  0  0  0  0
    8.7459  -16.2340   25.9575 C   0  0  0  0  0  0  0  0  0  0  0  0
    7.6327  -15.2845   25.9057 C   0  0  0  0  0  0  0  0  0  0  0  0
    6.2954  -15.5476   25.7315 N   0  0  0  0  0  0  0  0  0  0  0  0
    5.6139  -14.3681   25.7476 C   0  0  0  0  0  0  0  0  0  0  0  0
    6.4749  -13.3406   25.9286 C   0  0  0  0  0  0  0  0  0  0  0  0
    6.3442  -11.9715   26.0231 C   0  0  0  0  0  0  0  0  0  0  0  0
    7.4570  -11.1867   26.2136 C   0  0  0  0  0  0  0  0  0  0  0  0
    8.7020  -11.7514   26.3112 C   0  0  0  0  0  0  0  0  0  0  0  0
    8.8456  -13.1189   26.2179 C   0  0  0  0  0  0  0  0  0  0  0  0
    7.7465  -13.9189   26.0280 C   0  0  0  0  0  0  0  0  0  0  0  0
   10.6973  -17.1903   24.7825 O   0  0  0  0  0  0  0  0  0  0  0  0
   10.5154  -18.4047   25.0439 C   0  0  0  0  0  0  0  0  0  0  0  0
   15.5895  -17.7711   23.9203 C   0  0  2  0  0  0  0  0  0  0  0  0
   14.3508  -16.9346   23.9437 C   0  0  0  0  0  0  0  0  0  0  0  0
   14.0264  -16.4813   22.5488 C   0  0  1  0  0  0  0  0  0  0  0  0
   13.1786  -17.5811   24.6188 N   0  0  0  0  0  0  0  0  0  0  0  0
   12.0059  -16.7207   24.6089 C   0  0  0  0  0  0  0  0  0  0  0  0
   13.4547  -18.0802   25.9754 O   0  0  0  0  0  0  0  0  0  0  0  0
   13.9866  -19.3309   26.1834 O   0  0  0  0  0  0  0  0  0  0  0  0
  2  1  1  0
  2  4  1  0
  3  2  2  0
  5  4  1  0
  6  5  1  0
  7  6  1  0
  8  7  1  0
  8  9  1  1
 10  8  1  0
 10 12  1  0
 11 10  2  0
 13 12  1  0
 13 14  1  1
 15 14  1  0
 15 16  2  0
 17 16  1  0
 18 23  2  0
 18 17  1  0
 19 18  1  0
 20 19  2  0
 21 20  1  0
 21 22  2  0
 22 23  1  0
 23 15  1  0
 24 13  1  0
 25 24  2  0
 27 26  1  1
 27 28  1  0
 29 30  1  1
 29 27  1  0
 30 24  1  0
 31 29  1  0
 32 31  1  0
 33 31  2  0
M  END
$$$$
