RWV.pdb
     RDKit          3D

 33 34  0  0  1  0  0  0  0  0999 V2000
    7.2703  -12.2630   17.9982 N   0  0  0  0  0  0  0  0  0  0  0  0
    8.3298  -13.1759   18.3432 C   0  0  0  0  0  0  0  0  0  0  0  0
    9.3381  -12.7812   19.0333 N   0  0  0  0  0  0  0  0  0  0  0  0
    8.2545  -14.5261   17.9133 N   0  0  0  0  0  0  0  0  0  0  0  0
    9.3144  -15.4443   18.3000 C   0  0  0  0  0  0  0  0  0  0  0  0
    8.8124  -16.2334   19.4881 C   0  0  0  0  0  0  0  0  0  0  0  0
    9.4527  -15.8586   20.7816 C   0  0  0  0  0  0  0  0  0  0  0  0
    9.7355  -17.0718   21.6373 C   0  0  2  0  0  0  0  0  0  0  0  0
    8.5664  -17.9270   21.5884 N   0  0  0  0  0  0  0  0  0  0  0  0
   10.0204  -16.6877   23.0493 C   0  0  0  0  0  0  0  0  0  0  0  0
   10.9812  -15.9048   23.3349 O   0  0  0  0  0  0  0  0  0  0  0  0
   10.1264  -13.3939   19.3161 N   0  0  0  0  0  0  0  0  0  0  0  0
    9.2352  -17.1816   24.0932 C   0  0  1  0  0  0  0  0  0  0  0  0
    9.3797  -16.8354   25.4896 C   0  0  0  0  0  0  0  0  0  0  0  0
    7.9938  -16.6441   26.0627 C   0  0  0  0  0  0  0  0  0  0  0  0
    7.2726  -15.5313   25.4426 C   0  0  0  0  0  0  0  0  0  0  0  0
    6.3612  -15.5730   24.4151 N   0  0  0  0  0  0  0  0  0  0  0  0
    5.9388  -14.3040   24.1559 C   0  0  0  0  0  0  0  0  0  0  0  0
    6.5528  -13.4343   24.9903 C   0  0  0  0  0  0  0  0  0  0  0  0
    6.5083  -12.0682   25.1707 C   0  0  0  0  0  0  0  0  0  0  0  0
    7.2846  -11.4777   26.1398 C   0  0  0  0  0  0  0  0  0  0  0  0
    8.1071  -12.2340   26.9334 C   0  0  0  0  0  0  0  0  0  0  0  0
    8.1606  -13.6005   26.7624 C   0  0  0  0  0  0  0  0  0  0  0  0
    7.3930  -14.2082   25.8004 C   0  0  0  0  0  0  0  0  0  0  0  0
   10.1369  -17.8598   26.2435 O   0  0  0  0  0  0  0  0  0  0  0  0
   10.0265  -19.0685   25.9222 C   0  0  0  0  0  0  0  0  0  0  0  0
   13.9575  -18.9072   29.2035 C   0  0  2  0  0  0  0  0  0  0  0  0
   13.1402  -17.9952   28.3462 C   0  0  0  0  0  0  0  0  0  0  0  0
   13.8927  -17.6879   27.0829 C   0  0  1  0  0  0  0  0  0  0  0  0
   11.7482  -18.4812   28.0750 N   0  0  0  0  0  0  0  0  0  0  0  0
   10.9763  -17.5138   27.3106 C   0  0  0  0  0  0  0  0  0  0  0  0
   11.0102  -18.9172   29.2712 O   0  0  0  0  0  0  0  0  0  0  0  0
   11.3702  -20.0512   29.9604 O   0  0  0  0  0  0  0  0  0  0  0  0
  2  1  1  0
  2  4  1  0
  3  2  2  0
  5  4  1  0
  6  5  1  0
  7  6  1  0
  8  7  1  0
  8  9  1  1
 10  8  1  0
 10 12  1  0
 11 10  2  0
 13 12  1  0
 13 14  1  1
 15 14  1  0
 15 16  2  0
 17 16  1  0
 18 23  2  0
 18 17  1  0
 19 18  1  0
 20 19  2  0
 21 20  1  0
 21 22  2  0
 22 23  1  0
 23 15  1  0
 24 13  1  0
 25 24  2  0
 27 26  1  1
 27 28  1  0
 29 30  1  1
 29 27  1  0
 30 24  1  0
 31 29  1  0
 32 31  1  0
 33 31  2  0
M  END
$$$$
