RWV.pdb
     RDKit          3D

 33 34  0  0  1  0  0  0  0  0999 V2000
   10.9796  -20.9284   17.6417 N   0  0  0  0  0  0  0  0  0  0  0  0
   11.3696  -19.9948   16.6165 C   0  0  0  0  0  0  0  0  0  0  0  0
   12.4137  -20.2053   15.8992 N   0  0  0  0  0  0  0  0  0  0  0  0
   10.5886  -18.8300   16.4002 N   0  0  0  0  0  0  0  0  0  0  0  0
   10.0416  -18.1297   17.5518 C   0  0  0  0  0  0  0  0  0  0  0  0
   11.1847  -17.3934   18.2132 C   0  0  0  0  0  0  0  0  0  0  0  0
   10.7652  -16.4889   19.3219 C   0  0  0  0  0  0  0  0  0  0  0  0
   11.0304  -17.1049   20.6762 C   0  0  2  0  0  0  0  0  0  0  0  0
   10.3642  -18.3914   20.7126 N   0  0  0  0  0  0  0  0  0  0  0  0
   10.5178  -16.2404   21.7773 C   0  0  0  0  0  0  0  0  0  0  0  0
   10.8843  -15.0271   21.8834 O   0  0  0  0  0  0  0  0  0  0  0  0
   12.7602  -19.5541   15.1694 N   0  0  0  0  0  0  0  0  0  0  0  0
    9.6204  -16.7465   22.7201 C   0  0  1  0  0  0  0  0  0  0  0  0
    9.0890  -16.0176   23.8501 C   0  0  0  0  0  0  0  0  0  0  0  0
    7.5903  -16.2157   23.8627 C   0  0  0  0  0  0  0  0  0  0  0  0
    6.9093  -15.3292   24.8080 C   0  0  0  0  0  0  0  0  0  0  0  0
    6.1612  -15.6700   25.9090 N   0  0  0  0  0  0  0  0  0  0  0  0
    5.7145  -14.5280   26.5024 C   0  0  0  0  0  0  0  0  0  0  0  0
    6.1538  -13.4490   25.8151 C   0  0  0  0  0  0  0  0  0  0  0  0
    6.0114  -12.0851   25.9572 C   0  0  0  0  0  0  0  0  0  0  0  0
    6.6060  -11.2347   25.0552 C   0  0  0  0  0  0  0  0  0  0  0  0
    7.3429  -11.7282   24.0103 C   0  0  0  0  0  0  0  0  0  0  0  0
    7.4922  -13.0898   23.8574 C   0  0  0  0  0  0  0  0  0  0  0  0
    6.9062  -13.9546   24.7477 C   0  0  0  0  0  0  0  0  0  0  0  0
    9.6991  -16.4471   25.1286 O   0  0  0  0  0  0  0  0  0  0  0  0
   10.2319  -17.5812   25.2071 C   0  0  0  0  0  0  0  0  0  0  0  0
   10.4667  -13.4393   27.9633 C   0  0  2  0  0  0  0  0  0  0  0  0
   10.2846  -14.8241   28.4963 C   0  0  0  0  0  0  0  0  0  0  0  0
    8.9729  -14.9122   29.2231 C   0  0  2  0  0  0  0  0  0  0  0  0
   10.4416  -15.9081   27.4727 N   0  0  0  0  0  0  0  0  0  0  0  0
    9.6968  -15.6174   26.2576 C   0  0  0  0  0  0  0  0  0  0  0  0
   10.1386  -17.2612   27.9656 O   0  0  0  0  0  0  0  0  0  0  0  0
   11.0417  -17.9644   28.7274 O   0  0  0  0  0  0  0  0  0  0  0  0
  2  1  1  0
  2  4  1  0
  3  2  2  0
  5  4  1  0
  6  5  1  0
  7  6  1  0
  8  7  1  0
  8  9  1  6
 10  8  1  0
 10 12  1  0
 11 10  2  0
 13 12  1  0
 13 14  1  1
 15 14  1  0
 15 16  2  0
 17 16  1  0
 18 23  2  0
 18 17  1  0
 19 18  1  0
 20 19  2  0
 21 20  1  0
 21 22  2  0
 22 23  1  0
 23 15  1  0
 24 13  1  0
 25 24  2  0
 27 26  1  1
 27 28  1  0
 29 30  1  1
 29 27  1  0
 30 24  1  0
 31 29  1  0
 32 31  1  0
 33 31  2  0
M  END
$$$$
