RWV.pdb
     RDKit          3D

 33 34  0  0  1  0  0  0  0  0999 V2000
   11.6817  -20.8227   22.2666 N   0  0  0  0  0  0  0  0  0  0  0  0
   13.0756  -20.9694   22.5994 C   0  0  0  0  0  0  0  0  0  0  0  0
   13.4423  -21.7174   23.5765 N   0  0  0  0  0  0  0  0  0  0  0  0
   14.0513  -20.2774   21.8362 N   0  0  0  0  0  0  0  0  0  0  0  0
   13.6135  -19.4608   20.7148 C   0  0  0  0  0  0  0  0  0  0  0  0
   12.8572  -18.2829   21.2863 C   0  0  0  0  0  0  0  0  0  0  0  0
   11.4395  -18.1926   20.8331 C   0  0  0  0  0  0  0  0  0  0  0  0
   11.0241  -16.7618   20.5792 C   0  0  2  0  0  0  0  0  0  0  0  0
   12.1354  -16.0882   19.9376 N   0  0  0  0  0  0  0  0  0  0  0  0
   10.6756  -16.0625   21.8488 C   0  0  0  0  0  0  0  0  0  0  0  0
   11.4632  -15.2067   22.3636 O   0  0  0  0  0  0  0  0  0  0  0  0
   14.4241  -21.8167   23.8976 N   0  0  0  0  0  0  0  0  0  0  0  0
    9.4720  -16.3333   22.5029 C   0  0  2  0  0  0  0  0  0  0  0  0
    8.9778  -15.6426   23.6731 C   0  0  0  0  0  0  0  0  0  0  0  0
    7.4780  -15.8272   23.7181 C   0  0  0  0  0  0  0  0  0  0  0  0
    6.8497  -15.0963   24.8202 C   0  0  0  0  0  0  0  0  0  0  0  0
    6.2458  -15.6040   25.9451 N   0  0  0  0  0  0  0  0  0  0  0  0
    5.7970  -14.5659   26.7045 C   0  0  0  0  0  0  0  0  0  0  0  0
    6.0939  -13.3918   26.1021 C   0  0  0  0  0  0  0  0  0  0  0  0
    5.8852  -12.0642   26.4098 C   0  0  0  0  0  0  0  0  0  0  0  0
    6.3272  -11.0830   25.5540 C   0  0  0  0  0  0  0  0  0  0  0  0
    6.9765  -11.4096   24.3921 C   0  0  0  0  0  0  0  0  0  0  0  0
    7.1907  -12.7332   24.0732 C   0  0  0  0  0  0  0  0  0  0  0  0
    6.7570  -13.7269   24.9150 C   0  0  0  0  0  0  0  0  0  0  0  0
    9.6168  -16.1254   24.9180 O   0  0  0  0  0  0  0  0  0  0  0  0
   10.1183  -17.2760   24.9473 C   0  0  0  0  0  0  0  0  0  0  0  0
   10.6789  -15.1419   29.7254 C   0  0  2  0  0  0  0  0  0  0  0  0
   10.0011  -14.8039   28.4366 C   0  0  0  0  0  0  0  0  0  0  0  0
   10.3127  -13.3822   28.0649 C   0  0  1  0  0  0  0  0  0  0  0  0
   10.2855  -15.7598   27.3172 N   0  0  0  0  0  0  0  0  0  0  0  0
    9.6759  -15.3284   26.0689 C   0  0  0  0  0  0  0  0  0  0  0  0
    9.9485  -17.1617   27.6114 O   0  0  0  0  0  0  0  0  0  0  0  0
   10.8881  -18.0348   28.1069 O   0  0  0  0  0  0  0  0  0  0  0  0
  2  1  1  0
  2  4  1  0
  3  2  2  0
  5  4  1  0
  6  5  1  0
  7  6  1  0
  8  7  1  0
  8  9  1  1
 10  8  1  0
 10 12  1  0
 11 10  2  0
 13 12  1  0
 13 14  1  6
 15 14  1  0
 15 16  2  0
 17 16  1  0
 18 23  2  0
 18 17  1  0
 19 18  1  0
 20 19  2  0
 21 20  1  0
 21 22  2  0
 22 23  1  0
 23 15  1  0
 24 13  1  0
 25 24  2  0
 27 26  1  1
 27 28  1  0
 29 30  1  1
 29 27  1  0
 30 24  1  0
 31 29  1  0
 32 31  1  0
 33 31  2  0
M  END
$$$$
