RWV.pdb
     RDKit          3D

 33 34  0  0  1  0  0  0  0  0999 V2000
    9.1801  -12.8543   18.5403 N   0  0  0  0  0  0  0  0  0  0  0  0
    8.3744  -13.5154   17.5459 C   0  0  0  0  0  0  0  0  0  0  0  0
    8.5939  -13.3313   16.2943 N   0  0  0  0  0  0  0  0  0  0  0  0
    7.3268  -14.3790   17.9586 N   0  0  0  0  0  0  0  0  0  0  0  0
    7.3285  -14.8791   19.3246 C   0  0  0  0  0  0  0  0  0  0  0  0
    7.3349  -16.3892   19.2491 C   0  0  0  0  0  0  0  0  0  0  0  0
    8.0015  -17.0532   20.4058 C   0  0  0  0  0  0  0  0  0  0  0  0
    7.1472  -16.9961   21.6512 C   0  0  2  0  0  0  0  0  0  0  0  0
    5.9946  -16.1685   21.3567 N   0  0  0  0  0  0  0  0  0  0  0  0
    7.9001  -16.4207   22.8021 C   0  0  0  0  0  0  0  0  0  0  0  0
    8.2774  -15.2061   22.7976 O   0  0  0  0  0  0  0  0  0  0  0  0
    8.0334  -13.7625   15.5348 N   0  0  0  0  0  0  0  0  0  0  0  0
    8.2088  -17.2064   23.9145 C   0  0  1  0  0  0  0  0  0  0  0  0
    9.1081  -16.8331   24.9834 C   0  0  0  0  0  0  0  0  0  0  0  0
    8.2902  -16.6978   26.2477 C   0  0  0  0  0  0  0  0  0  0  0  0
    7.2555  -15.6672   26.1458 C   0  0  0  0  0  0  0  0  0  0  0  0
    5.9274  -15.8209   25.8288 N   0  0  0  0  0  0  0  0  0  0  0  0
    5.3302  -14.5967   25.8495 C   0  0  0  0  0  0  0  0  0  0  0  0
    6.2372  -13.6467   26.1730 C   0  0  0  0  0  0  0  0  0  0  0  0
    6.1919  -12.2785   26.3357 C   0  0  0  0  0  0  0  0  0  0  0  0
    7.3313  -11.5894   26.6784 C   0  0  0  0  0  0  0  0  0  0  0  0
    8.5186  -12.2490   26.8612 C   0  0  0  0  0  0  0  0  0  0  0  0
    8.5767  -13.6167   26.7011 C   0  0  0  0  0  0  0  0  0  0  0  0
    7.4498  -14.3220   26.3594 C   0  0  0  0  0  0  0  0  0  0  0  0
   10.2069  -17.8099   25.1556 O   0  0  0  0  0  0  0  0  0  0  0  0
    9.9537  -19.0384   25.1011 C   0  0  0  0  0  0  0  0  0  0  0  0
   15.1300  -18.5521   25.0777 C   0  0  2  0  0  0  0  0  0  0  0  0
   13.9094  -17.7046   24.9139 C   0  0  0  0  0  0  0  0  0  0  0  0
   13.7658  -17.3068   23.4725 C   0  0  1  0  0  0  0  0  0  0  0  0
   12.6541  -18.3125   25.4639 N   0  0  0  0  0  0  0  0  0  0  0  0
   11.5270  -17.3970   25.3790 C   0  0  0  0  0  0  0  0  0  0  0  0
   12.7864  -18.8610   26.8230 O   0  0  0  0  0  0  0  0  0  0  0  0
   13.4275  -20.0553   27.0536 O   0  0  0  0  0  0  0  0  0  0  0  0
  2  1  1  0
  2  4  1  0
  3  2  2  0
  5  4  1  0
  6  5  1  0
  7  6  1  0
  8  7  1  0
  8  9  1  6
 10  8  1  0
 10 12  1  0
 11 10  2  0
 13 12  1  0
 13 14  1  1
 15 14  1  0
 15 16  2  0
 17 16  1  0
 18 23  2  0
 18 17  1  0
 19 18  1  0
 20 19  2  0
 21 20  1  0
 21 22  2  0
 22 23  1  0
 23 15  1  0
 24 13  1  0
 25 24  2  0
 27 26  1  1
 27 28  1  0
 29 30  1  1
 29 27  1  0
 30 24  1  0
 31 29  1  0
 32 31  1  0
 33 31  2  0
M  END
$$$$
