RWV.pdb
     RDKit          3D

 33 34  0  0  1  0  0  0  0  0999 V2000
   13.4160  -18.4610   16.2682 N   0  0  0  0  0  0  0  0  0  0  0  0
   12.6306  -19.6077   16.6467 C   0  0  0  0  0  0  0  0  0  0  0  0
   12.5753  -20.6443   15.8910 N   0  0  0  0  0  0  0  0  0  0  0  0
   11.9108  -19.5872   17.8694 N   0  0  0  0  0  0  0  0  0  0  0  0
   12.1598  -18.5065   18.8106 C   0  0  0  0  0  0  0  0  0  0  0  0
   10.8138  -17.9899   19.2662 C   0  0  0  0  0  0  0  0  0  0  0  0
   10.3602  -16.7619   18.5524 C   0  0  0  0  0  0  0  0  0  0  0  0
    9.0325  -16.2677   19.0789 C   0  0  2  0  0  0  0  0  0  0  0  0
    8.5690  -15.2208   18.1905 N   0  0  0  0  0  0  0  0  0  0  0  0
    9.1613  -15.7328   20.4644 C   0  0  0  0  0  0  0  0  0  0  0  0
    9.9588  -14.7775   20.7272 O   0  0  0  0  0  0  0  0  0  0  0  0
   12.1214  -21.5379   16.1599 N   0  0  0  0  0  0  0  0  0  0  0  0
    8.4058  -16.2716   21.5081 C   0  0  2  0  0  0  0  0  0  0  0  0
    8.4458  -15.8358   22.8862 C   0  0  0  0  0  0  0  0  0  0  0  0
    7.0248  -15.5645   23.3251 C   0  0  0  0  0  0  0  0  0  0  0  0
    6.9339  -15.1475   24.7255 C   0  0  0  0  0  0  0  0  0  0  0  0
    6.6586  -15.9191   25.8286 N   0  0  0  0  0  0  0  0  0  0  0  0
    6.6738  -15.1213   26.9328 C   0  0  0  0  0  0  0  0  0  0  0  0
    6.9531  -13.8466   26.5768 C   0  0  0  0  0  0  0  0  0  0  0  0
    7.0915  -12.6573   27.2602 C   0  0  0  0  0  0  0  0  0  0  0  0
    7.3879  -11.5022   26.5759 C   0  0  0  0  0  0  0  0  0  0  0  0
    7.5485  -11.5179   25.2149 C   0  0  0  0  0  0  0  0  0  0  0  0
    7.4122  -12.7005   24.5204 C   0  0  0  0  0  0  0  0  0  0  0  0
    7.1166  -13.8640   25.1861 C   0  0  0  0  0  0  0  0  0  0  0  0
    9.1005  -16.8290   23.7672 O   0  0  0  0  0  0  0  0  0  0  0  0
    8.7238  -18.0261   23.7332 C   0  0  0  0  0  0  0  0  0  0  0  0
   13.1225  -18.0490   26.3664 C   0  0  2  0  0  0  0  0  0  0  0  0
   12.3295  -17.1394   25.4840 C   0  0  0  0  0  0  0  0  0  0  0  0
   12.9197  -17.1423   24.1026 C   0  0  1  0  0  0  0  0  0  0  0  0
   10.8559  -17.4151   25.4736 N   0  0  0  0  0  0  0  0  0  0  0  0
   10.1334  -16.4657   24.6414 C   0  0  0  0  0  0  0  0  0  0  0  0
   10.2449  -17.5176   26.8084 O   0  0  0  0  0  0  0  0  0  0  0  0
   10.5508  -18.5546   27.6578 O   0  0  0  0  0  0  0  0  0  0  0  0
  2  1  1  0
  2  4  1  0
  3  2  2  0
  5  4  1  0
  6  5  1  0
  7  6  1  0
  8  7  1  0
  8  9  1  6
 10  8  1  0
 10 12  1  0
 11 10  2  0
 13 12  1  0
 13 14  1  1
 15 14  1  0
 15 16  2  0
 17 16  1  0
 18 23  2  0
 18 17  1  0
 19 18  1  0
 20 19  2  0
 21 20  1  0
 21 22  2  0
 22 23  1  0
 23 15  1  0
 24 13  1  0
 25 24  2  0
 27 26  1  1
 27 28  1  0
 29 30  1  1
 29 27  1  0
 30 24  1  0
 31 29  1  0
 32 31  1  0
 33 31  2  0
M  END
$$$$
