RWV.pdb
     RDKit          3D

 33 34  0  0  1  0  0  0  0  0999 V2000
    6.8901  -18.1571   16.5934 N   0  0  0  0  0  0  0  0  0  0  0  0
    6.7959  -18.9707   17.7784 C   0  0  0  0  0  0  0  0  0  0  0  0
    5.7948  -19.7542   17.9593 N   0  0  0  0  0  0  0  0  0  0  0  0
    7.8232  -18.9023   18.7548 N   0  0  0  0  0  0  0  0  0  0  0  0
    8.9393  -17.9956   18.5348 C   0  0  0  0  0  0  0  0  0  0  0  0
    8.3850  -16.5890   18.5556 C   0  0  0  0  0  0  0  0  0  0  0  0
    9.0375  -15.6929   19.5529 C   0  0  0  0  0  0  0  0  0  0  0  0
    8.0554  -15.2061   20.5935 C   0  0  2  0  0  0  0  0  0  0  0  0
    7.5737  -13.9065   20.1700 N   0  0  0  0  0  0  0  0  0  0  0  0
    8.6949  -15.0940   21.9354 C   0  0  0  0  0  0  0  0  0  0  0  0
    9.4827  -14.1335   22.2083 O   0  0  0  0  0  0  0  0  0  0  0  0
    5.6843  -20.3782   18.7810 N   0  0  0  0  0  0  0  0  0  0  0  0
    8.4417  -16.0454   22.9258 C   0  0  2  0  0  0  0  0  0  0  0  0
    9.0223  -16.0546   24.2500 C   0  0  0  0  0  0  0  0  0  0  0  0
    7.8972  -16.2246   25.2453 C   0  0  0  0  0  0  0  0  0  0  0  0
    7.0434  -15.0394   25.3436 C   0  0  0  0  0  0  0  0  0  0  0  0
    5.7117  -14.9195   25.0271 N   0  0  0  0  0  0  0  0  0  0  0  0
    5.3195  -13.6381   25.2724 C   0  0  0  0  0  0  0  0  0  0  0  0
    6.3639  -12.9182   25.7422 C   0  0  0  0  0  0  0  0  0  0  0  0
    6.5379  -11.6107   26.1433 C   0  0  0  0  0  0  0  0  0  0  0  0
    7.7694  -11.1849   26.5821 C   0  0  0  0  0  0  0  0  0  0  0  0
    8.8326  -12.0486   26.6262 C   0  0  0  0  0  0  0  0  0  0  0  0
    8.6713  -13.3580   26.2276 C   0  0  0  0  0  0  0  0  0  0  0  0
    7.4495  -13.8017   25.7865 C   0  0  0  0  0  0  0  0  0  0  0  0
   10.0426  -17.1159   24.4051 O   0  0  0  0  0  0  0  0  0  0  0  0
    9.8951  -18.2058   23.7997 C   0  0  0  0  0  0  0  0  0  0  0  0
   14.6543  -18.4137   25.5323 C   0  0  2  0  0  0  0  0  0  0  0  0
   13.5688  -17.4277   25.2420 C   0  0  0  0  0  0  0  0  0  0  0  0
   13.7741  -16.8460   23.8724 C   0  0  1  0  0  0  0  0  0  0  0  0
   12.1803  -17.9605   25.4314 N   0  0  0  0  0  0  0  0  0  0  0  0
   11.1724  -16.9346   25.2136 C   0  0  0  0  0  0  0  0  0  0  0  0
   11.9612  -18.6511   26.7123 O   0  0  0  0  0  0  0  0  0  0  0  0
   12.3784  -19.9465   26.9075 O   0  0  0  0  0  0  0  0  0  0  0  0
  2  1  1  0
  2  4  1  0
  3  2  2  0
  5  4  1  0
  6  5  1  0
  7  6  1  0
  8  7  1  0
  8  9  1  6
 10  8  1  0
 10 12  1  0
 11 10  2  0
 13 12  1  0
 13 14  1  6
 15 14  1  0
 15 16  2  0
 17 16  1  0
 18 23  2  0
 18 17  1  0
 19 18  1  0
 20 19  2  0
 21 20  1  0
 21 22  2  0
 22 23  1  0
 23 15  1  0
 24 13  1  0
 25 24  2  0
 27 26  1  1
 27 28  1  0
 29 30  1  1
 29 27  1  0
 30 24  1  0
 31 29  1  0
 32 31  1  0
 33 31  2  0
M  END
$$$$
