RWV.pdb
     RDKit          3D

 33 34  0  0  1  0  0  0  0  0999 V2000
    8.9671  -15.3514   14.9295 N   0  0  0  0  0  0  0  0  0  0  0  0
    8.5017  -13.9904   15.0065 C   0  0  0  0  0  0  0  0  0  0  0  0
    8.5125  -13.2330   13.9696 N   0  0  0  0  0  0  0  0  0  0  0  0
    8.0270  -13.4846   16.2443 N   0  0  0  0  0  0  0  0  0  0  0  0
    7.7241  -14.4225   17.3142 C   0  0  0  0  0  0  0  0  0  0  0  0
    9.0422  -14.9504   17.8341 C   0  0  0  0  0  0  0  0  0  0  0  0
    9.4021  -14.4549   19.1936 C   0  0  0  0  0  0  0  0  0  0  0  0
    9.8627  -15.5780   20.0939 C   0  0  2  0  0  0  0  0  0  0  0  0
    9.0006  -16.7176   19.8520 N   0  0  0  0  0  0  0  0  0  0  0  0
    9.7914  -15.1880   21.5309 C   0  0  0  0  0  0  0  0  0  0  0  0
   10.5089  -14.2438   21.9906 O   0  0  0  0  0  0  0  0  0  0  0  0
    8.1801  -12.2500   13.9627 N   0  0  0  0  0  0  0  0  0  0  0  0
    8.9318  -15.8540   22.4070 C   0  0  1  0  0  0  0  0  0  0  0  0
    8.6639  -15.4704   23.7751 C   0  0  0  0  0  0  0  0  0  0  0  0
    7.3385  -16.0787   24.1733 C   0  0  0  0  0  0  0  0  0  0  0  0
    6.5444  -15.1964   25.0302 C   0  0  0  0  0  0  0  0  0  0  0  0
    5.3470  -15.4613   25.6498 N   0  0  0  0  0  0  0  0  0  0  0  0
    4.9647  -14.3564   26.3490 C   0  0  0  0  0  0  0  0  0  0  0  0
    5.8847  -13.3759   26.2010 C   0  0  0  0  0  0  0  0  0  0  0  0
    6.0098  -12.0852   26.6689 C   0  0  0  0  0  0  0  0  0  0  0  0
    7.1046  -11.3307   26.3188 C   0  0  0  0  0  0  0  0  0  0  0  0
    8.0789  -11.8482   25.5057 C   0  0  0  0  0  0  0  0  0  0  0  0
    7.9650  -13.1372   25.0312 C   0  0  0  0  0  0  0  0  0  0  0  0
    6.8794  -13.9059   25.3699 C   0  0  0  0  0  0  0  0  0  0  0  0
    9.7458  -15.8891   24.6946 O   0  0  0  0  0  0  0  0  0  0  0  0
   10.5683  -16.7614   24.3219 C   0  0  0  0  0  0  0  0  0  0  0  0
    9.7190  -14.6702   28.8604 C   0  0  2  0  0  0  0  0  0  0  0  0
   10.9892  -14.7662   28.0780 C   0  0  0  0  0  0  0  0  0  0  0  0
   12.1259  -15.0866   29.0063 C   0  0  1  0  0  0  0  0  0  0  0  0
   10.9282  -15.7030   26.9091 N   0  0  0  0  0  0  0  0  0  0  0  0
    9.8756  -15.3352   25.9750 C   0  0  0  0  0  0  0  0  0  0  0  0
   10.8372  -17.1263   27.2719 O   0  0  0  0  0  0  0  0  0  0  0  0
   11.9647  -17.8903   27.4600 O   0  0  0  0  0  0  0  0  0  0  0  0
  2  1  1  0
  2  4  1  0
  3  2  2  0
  5  4  1  0
  6  5  1  0
  7  6  1  0
  8  7  1  0
  8  9  1  1
 10  8  1  0
 10 12  1  0
 11 10  2  0
 13 12  1  0
 13 14  1  1
 15 14  1  0
 15 16  2  0
 17 16  1  0
 18 23  2  0
 18 17  1  0
 19 18  1  0
 20 19  2  0
 21 20  1  0
 21 22  2  0
 22 23  1  0
 23 15  1  0
 24 13  1  0
 25 24  2  0
 27 26  1  1
 27 28  1  0
 29 30  1  6
 29 27  1  0
 30 24  1  0
 31 29  1  0
 32 31  1  0
 33 31  2  0
M  END
$$$$
