FHH.pdb
     RDKit          3D

 32 34  0  0  1  0  0  0  0  0999 V2000
   24.8332  -22.0560  -14.3342 N   0  0  0  0  0  0  0  0  0  0  0  0
   23.6691  -21.3894  -13.8073 C   0  0  1  0  0  0  0  0  0  0  0  0
   24.0752  -20.1155  -13.0843 C   0  0  0  0  0  0  0  0  0  0  0  0
   24.3917  -20.3455  -11.6759 C   0  0  0  0  0  0  0  0  0  0  0  0
   25.7028  -20.4333  -11.2773 C   0  0  0  0  0  0  0  0  0  0  0  0
   26.0607  -20.6486   -9.9511 C   0  0  0  0  0  0  0  0  0  0  0  0
   25.0520  -20.7730   -9.0372 C   0  0  0  0  0  0  0  0  0  0  0  0
   23.7245  -20.6923   -9.3877 C   0  0  0  0  0  0  0  0  0  0  0  0
   23.4065  -20.4763  -10.7226 C   0  0  0  0  0  0  0  0  0  0  0  0
   22.6946  -21.0020  -14.8572 C   0  0  0  0  0  0  0  0  0  0  0  0
   23.0194  -20.7483  -16.0458 O   0  0  0  0  0  0  0  0  0  0  0  0
   21.2868  -20.8970  -14.5581 N   0  0  0  0  0  0  0  0  0  0  0  0
   20.3031  -20.7396  -15.6039 C   0  0  1  0  0  0  0  0  0  0  0  0
   19.3279  -21.9107  -15.6094 C   0  0  0  0  0  0  0  0  0  0  0  0
   19.9208  -23.1139  -16.2106 C   0  0  0  0  0  0  0  0  0  0  0  0
   21.1423  -23.1961  -16.8261 C   0  0  0  0  0  0  0  0  0  0  0  0
   21.3688  -24.4523  -17.2621 N   0  0  0  0  0  0  0  0  0  0  0  0
   20.2710  -25.1542  -16.9105 C   0  0  0  0  0  0  0  0  0  0  0  0
   19.3973  -24.3527  -16.2777 N   0  0  0  0  0  0  0  0  0  0  0  0
   19.5784  -19.4536  -15.4033 C   0  0  0  0  0  0  0  0  0  0  0  0
   19.3924  -19.0263  -14.2420 O   0  0  0  0  0  0  0  0  0  0  0  0
   19.0849  -18.6851  -16.4847 N   0  0  0  0  0  0  0  0  0  0  0  0
   18.3147  -17.4575  -16.3667 C   0  0  1  0  0  0  0  0  0  0  0  0
   18.8966  -16.3475  -17.1579 C   0  0  0  0  0  0  0  0  0  0  0  0
   20.1874  -15.9067  -16.6127 C   0  0  0  0  0  0  0  0  0  0  0  0
   20.5005  -15.1977  -15.4925 C   0  0  0  0  0  0  0  0  0  0  0  0
   21.8291  -14.9988  -15.4097 N   0  0  0  0  0  0  0  0  0  0  0  0
   22.3720  -15.5823  -16.4812 C   0  0  0  0  0  0  0  0  0  0  0  0
   21.3884  -16.1383  -17.2217 N   0  0  0  0  0  0  0  0  0  0  0  0
   16.8544  -17.6666  -16.5059 C   0  0  0  0  0  0  0  0  0  0  0  0
   16.4072  -18.7309  -16.9944 O   0  0  0  0  0  0  0  0  0  0  0  0
   15.9184  -16.7187  -16.1111 O   0  0  0  0  0  0  0  0  0  0  0  0
  2  1  1  6
  3  4  1  0
  3  2  1  0
  4  5  2  0
  5  6  1  0
  7  6  2  0
  8  7  1  0
  9  4  1  0
  9  8  2  0
 10 11  2  0
 10  2  1  0
 12 10  1  0
 13 12  1  0
 13 14  1  1
 14 15  1  0
 15 16  2  0
 15 19  1  0
 16 17  1  0
 17 18  1  0
 19 18  2  0
 20 13  1  0
 21 20  2  0
 22 20  1  0
 23 22  1  0
 24 25  1  0
 23 24  1  6
 25 29  1  0
 26 27  1  0
 26 25  2  0
 27 28  1  0
 28 29  2  0
 30 23  1  0
 30 32  1  0
 31 30  2  0
M  END
$$$$
