FHH.pdb
     RDKit          3D

 32 34  0  0  1  0  0  0  0  0999 V2000
   26.7481  -11.7366  -17.1254 N   0  0  0  0  0  0  0  0  0  0  0  0
   25.7004  -11.3599  -18.0405 C   0  0  1  0  0  0  0  0  0  0  0  0
   24.6739  -12.4752  -18.1522 C   0  0  0  0  0  0  0  0  0  0  0  0
   25.2111  -13.6702  -18.8006 C   0  0  0  0  0  0  0  0  0  0  0  0
   25.2574  -14.8572  -18.1118 C   0  0  0  0  0  0  0  0  0  0  0  0
   25.7558  -16.0241  -18.6802 C   0  0  0  0  0  0  0  0  0  0  0  0
   26.2072  -15.9560  -19.9685 C   0  0  0  0  0  0  0  0  0  0  0  0
   26.1815  -14.7909  -20.6989 C   0  0  0  0  0  0  0  0  0  0  0  0
   25.6761  -13.6457  -20.0966 C   0  0  0  0  0  0  0  0  0  0  0  0
   24.9710  -10.1379  -17.6197 C   0  0  0  0  0  0  0  0  0  0  0  0
   24.8165   -9.8015  -16.4174 O   0  0  0  0  0  0  0  0  0  0  0  0
   24.3894   -9.2495  -18.5968 N   0  0  0  0  0  0  0  0  0  0  0  0
   23.6960   -8.0452  -18.2033 C   0  0  1  0  0  0  0  0  0  0  0  0
   23.5779   -7.0812  -19.3777 C   0  0  0  0  0  0  0  0  0  0  0  0
   22.8909   -5.8382  -18.9986 C   0  0  0  0  0  0  0  0  0  0  0  0
   23.4843   -4.6861  -18.5533 C   0  0  0  0  0  0  0  0  0  0  0  0
   22.5543   -3.7432  -18.2978 N   0  0  0  0  0  0  0  0  0  0  0  0
   21.3708   -4.3226  -18.5895 C   0  0  0  0  0  0  0  0  0  0  0  0
   21.5688   -5.5830  -19.0114 N   0  0  0  0  0  0  0  0  0  0  0  0
   22.3478   -8.4059  -17.6822 C   0  0  0  0  0  0  0  0  0  0  0  0
   21.7365   -9.3790  -18.1771 O   0  0  0  0  0  0  0  0  0  0  0  0
   21.7212   -7.6847  -16.6378 N   0  0  0  0  0  0  0  0  0  0  0  0
   20.4109   -7.9751  -16.0784 C   0  0  1  0  0  0  0  0  0  0  0  0
   20.2716   -9.3940  -15.6733 C   0  0  0  0  0  0  0  0  0  0  0  0
   18.9185   -9.6920  -15.1853 C   0  0  0  0  0  0  0  0  0  0  0  0
   17.8434   -8.8879  -14.9550 C   0  0  0  0  0  0  0  0  0  0  0  0
   16.8081   -9.6016  -14.4750 N   0  0  0  0  0  0  0  0  0  0  0  0
   17.2197  -10.8695  -14.3965 C   0  0  0  0  0  0  0  0  0  0  0  0
   18.4991  -10.9413  -14.8242 N   0  0  0  0  0  0  0  0  0  0  0  0
   19.9573   -6.9648  -15.0940 C   0  0  0  0  0  0  0  0  0  0  0  0
   20.7742   -6.4303  -14.3076 O   0  0  0  0  0  0  0  0  0  0  0  0
   18.6325   -6.5595  -14.9891 O   0  0  0  0  0  0  0  0  0  0  0  0
  2  1  1  1
  3  4  1  0
  3  2  1  0
  4  5  2  0
  5  6  1  0
  7  6  2  0
  8  7  1  0
  9  4  1  0
  9  8  2  0
 10 11  2  0
 10  2  1  0
 12 10  1  0
 13 12  1  0
 13 14  1  6
 14 15  1  0
 15 16  2  0
 15 19  1  0
 16 17  1  0
 17 18  1  0
 19 18  2  0
 20 13  1  0
 21 20  2  0
 22 20  1  0
 23 22  1  0
 24 25  1  0
 23 24  1  1
 25 29  1  0
 26 27  1  0
 26 25  2  0
 27 28  1  0
 28 29  2  0
 30 23  1  0
 30 32  1  0
 31 30  2  0
M  END
$$$$
