FHH.pdb
     RDKit          3D

 32 34  0  0  1  0  0  0  0  0999 V2000
   21.0520  -12.9706  -16.6654 N   0  0  0  0  0  0  0  0  0  0  0  0
   21.0763  -11.7524  -17.4351 C   0  0  1  0  0  0  0  0  0  0  0  0
   19.7062  -11.4825  -18.0352 C   0  0  0  0  0  0  0  0  0  0  0  0
   19.3146  -12.4915  -19.0178 C   0  0  0  0  0  0  0  0  0  0  0  0
   19.9285  -12.5217  -20.2457 C   0  0  0  0  0  0  0  0  0  0  0  0
   19.5969  -13.4605  -21.2163 C   0  0  0  0  0  0  0  0  0  0  0  0
   18.6242  -14.3700  -20.9088 C   0  0  0  0  0  0  0  0  0  0  0  0
   17.9808  -14.3799  -19.6931 C   0  0  0  0  0  0  0  0  0  0  0  0
   18.3397  -13.4263  -18.7490 C   0  0  0  0  0  0  0  0  0  0  0  0
   21.4405  -10.5610  -16.6287 C   0  0  0  0  0  0  0  0  0  0  0  0
   21.1276  -10.4204  -15.4184 O   0  0  0  0  0  0  0  0  0  0  0  0
   22.1947   -9.4765  -17.2093 N   0  0  0  0  0  0  0  0  0  0  0  0
   22.4809   -8.2728  -16.4640 C   0  0  1  0  0  0  0  0  0  0  0  0
   23.9616   -7.9231  -16.5498 C   0  0  0  0  0  0  0  0  0  0  0  0
   24.8029   -8.9421  -15.9058 C   0  0  0  0  0  0  0  0  0  0  0  0
   24.3622  -10.0432  -15.2195 C   0  0  0  0  0  0  0  0  0  0  0  0
   25.4060  -10.7642  -14.7614 N   0  0  0  0  0  0  0  0  0  0  0  0
   26.5058  -10.0978  -15.1712 C   0  0  0  0  0  0  0  0  0  0  0  0
   26.1474   -9.0009  -15.8599 N   0  0  0  0  0  0  0  0  0  0  0  0
   21.6465   -7.1591  -16.9957 C   0  0  0  0  0  0  0  0  0  0  0  0
   21.4502   -7.0710  -18.2283 O   0  0  0  0  0  0  0  0  0  0  0  0
   21.0593   -6.1838  -16.1546 N   0  0  0  0  0  0  0  0  0  0  0  0
   20.2141   -5.0859  -16.5958 C   0  0  1  0  0  0  0  0  0  0  0  0
   19.1039   -4.8136  -15.6525 C   0  0  0  0  0  0  0  0  0  0  0  0
   18.0873   -5.8733  -15.6854 C   0  0  0  0  0  0  0  0  0  0  0  0
   18.0002   -7.0197  -16.4160 C   0  0  0  0  0  0  0  0  0  0  0  0
   16.8619   -7.6801  -16.1336 N   0  0  0  0  0  0  0  0  0  0  0  0
   16.2147   -6.9549  -15.2179 C   0  0  0  0  0  0  0  0  0  0  0  0
   16.9457   -5.8546  -14.9349 N   0  0  0  0  0  0  0  0  0  0  0  0
   20.9813   -3.9076  -17.0632 C   0  0  0  0  0  0  0  0  0  0  0  0
   22.2096   -3.8141  -16.8307 O   0  0  0  0  0  0  0  0  0  0  0  0
   20.3983   -2.8636  -17.7708 O   0  0  0  0  0  0  0  0  0  0  0  0
  2  1  1  1
  3  4  1  0
  3  2  1  0
  4  5  2  0
  5  6  1  0
  7  6  2  0
  8  7  1  0
  9  4  1  0
  9  8  2  0
 10 11  2  0
 10  2  1  0
 12 10  1  0
 13 12  1  0
 13 14  1  6
 14 15  1  0
 15 16  2  0
 15 19  1  0
 16 17  1  0
 17 18  1  0
 19 18  2  0
 20 13  1  0
 21 20  2  0
 22 20  1  0
 23 22  1  0
 24 25  1  0
 23 24  1  1
 25 29  1  0
 26 27  1  0
 26 25  2  0
 27 28  1  0
 28 29  2  0
 30 23  1  0
 30 32  1  0
 31 30  2  0
M  END
$$$$
