FHH.pdb
     RDKit          3D

 32 34  0  0  1  0  0  0  0  0999 V2000
   15.8519  -15.8650    5.3365 N   0  0  0  0  0  0  0  0  0  0  0  0
   17.0431  -16.6758    5.3094 C   0  0  1  0  0  0  0  0  0  0  0  0
   18.2266  -15.8890    5.8481 C   0  0  0  0  0  0  0  0  0  0  0  0
   18.6767  -14.8487    4.9250 C   0  0  0  0  0  0  0  0  0  0  0  0
   18.9479  -13.5883    5.3980 C   0  0  0  0  0  0  0  0  0  0  0  0
   19.3807  -12.5624    4.5653 C   0  0  0  0  0  0  0  0  0  0  0  0
   19.5318  -12.8482    3.2373 C   0  0  0  0  0  0  0  0  0  0  0  0
   19.2728  -14.0946    2.7166 C   0  0  0  0  0  0  0  0  0  0  0  0
   18.8421  -15.0939    3.5801 C   0  0  0  0  0  0  0  0  0  0  0  0
   16.9288  -17.9066    6.1306 C   0  0  0  0  0  0  0  0  0  0  0  0
   16.1876  -17.9989    7.1429 O   0  0  0  0  0  0  0  0  0  0  0  0
   17.6815  -19.0916    5.7970 N   0  0  0  0  0  0  0  0  0  0  0  0
   17.6181  -20.2806    6.6146 C   0  0  1  0  0  0  0  0  0  0  0  0
   17.3635  -21.5138    5.7563 C   0  0  0  0  0  0  0  0  0  0  0  0
   15.9770  -21.5661    5.2709 C   0  0  0  0  0  0  0  0  0  0  0  0
   14.9919  -20.6489    5.5278 C   0  0  0  0  0  0  0  0  0  0  0  0
   13.8408  -21.0093    4.9240 N   0  0  0  0  0  0  0  0  0  0  0  0
   14.1205  -22.1653    4.2862 C   0  0  0  0  0  0  0  0  0  0  0  0
   15.4046  -22.5039    4.4923 N   0  0  0  0  0  0  0  0  0  0  0  0
   18.8936  -20.4216    7.3713 C   0  0  0  0  0  0  0  0  0  0  0  0
   19.9835  -20.3003    6.7689 O   0  0  0  0  0  0  0  0  0  0  0  0
   18.9247  -20.6907    8.7606 N   0  0  0  0  0  0  0  0  0  0  0  0
   20.1259  -20.8787    9.5581 C   0  0  1  0  0  0  0  0  0  0  0  0
   20.3459  -19.7706   10.5174 C   0  0  0  0  0  0  0  0  0  0  0  0
   20.8980  -18.5795    9.8584 C   0  0  0  0  0  0  0  0  0  0  0  0
   21.9701  -18.4183    9.0337 C   0  0  0  0  0  0  0  0  0  0  0  0
   22.1179  -17.1252    8.6907 N   0  0  0  0  0  0  0  0  0  0  0  0
   21.1367  -16.4527    9.2976 C   0  0  0  0  0  0  0  0  0  0  0  0
   20.3871  -17.3215   10.0106 N   0  0  0  0  0  0  0  0  0  0  0  0
   20.2604  -22.2513   10.0998 C   0  0  0  0  0  0  0  0  0  0  0  0
   19.2628  -23.0064   10.1763 O   0  0  0  0  0  0  0  0  0  0  0  0
   21.4713  -22.7693   10.5423 O   0  0  0  0  0  0  0  0  0  0  0  0
  2  1  1  1
  3  4  1  0
  3  2  1  0
  4  5  2  0
  5  6  1  0
  7  6  2  0
  8  7  1  0
  9  4  1  0
  9  8  2  0
 10 11  2  0
 10  2  1  0
 12 10  1  0
 13 12  1  0
 13 14  1  6
 14 15  1  0
 15 16  2  0
 15 19  1  0
 16 17  1  0
 17 18  1  0
 19 18  2  0
 20 13  1  0
 21 20  2  0
 22 20  1  0
 23 22  1  0
 24 25  1  0
 23 24  1  1
 25 29  1  0
 26 27  1  0
 26 25  2  0
 27 28  1  0
 28 29  2  0
 30 23  1  0
 30 32  1  0
 31 30  2  0
M  END
$$$$
