FHH.pdb
     RDKit          3D

 32 34  0  0  1  0  0  0  0  0999 V2000
   27.6250  -22.6054  -18.4407 N   0  0  0  0  0  0  0  0  0  0  0  0
   26.8297  -22.3664  -17.2628 C   0  0  1  0  0  0  0  0  0  0  0  0
   26.4678  -20.8936  -17.1630 C   0  0  0  0  0  0  0  0  0  0  0  0
   27.5877  -20.0160  -17.4982 C   0  0  0  0  0  0  0  0  0  0  0  0
   28.7470  -20.0795  -16.7649 C   0  0  0  0  0  0  0  0  0  0  0  0
   29.8433  -19.2702  -17.0413 C   0  0  0  0  0  0  0  0  0  0  0  0
   29.7333  -18.3925  -18.0833 C   0  0  0  0  0  0  0  0  0  0  0  0
   28.5936  -18.2922  -18.8466 C   0  0  0  0  0  0  0  0  0  0  0  0
   27.5193  -19.1176  -18.5397 C   0  0  0  0  0  0  0  0  0  0  0  0
   25.5565  -23.1288  -17.2550 C   0  0  0  0  0  0  0  0  0  0  0  0
   24.8138  -23.2494  -18.2632 O   0  0  0  0  0  0  0  0  0  0  0  0
   25.0968  -23.7897  -16.0575 N   0  0  0  0  0  0  0  0  0  0  0  0
   23.9535  -24.6723  -16.0745 C   0  0  1  0  0  0  0  0  0  0  0  0
   24.2623  -25.9708  -15.3389 C   0  0  0  0  0  0  0  0  0  0  0  0
   25.1624  -26.8377  -16.1128 C   0  0  0  0  0  0  0  0  0  0  0  0
   26.4523  -27.1657  -15.7868 C   0  0  0  0  0  0  0  0  0  0  0  0
   26.9832  -27.9819  -16.7203 N   0  0  0  0  0  0  0  0  0  0  0  0
   26.0066  -28.1591  -17.6348 C   0  0  0  0  0  0  0  0  0  0  0  0
   24.9095  -27.4724  -17.2732 N   0  0  0  0  0  0  0  0  0  0  0  0
   22.7917  -23.9789  -15.4511 C   0  0  0  0  0  0  0  0  0  0  0  0
   22.8944  -23.5302  -14.2876 O   0  0  0  0  0  0  0  0  0  0  0  0
   21.5610  -23.8044  -16.1281 N   0  0  0  0  0  0  0  0  0  0  0  0
   20.4069  -23.0865  -15.6113 C   0  0  1  0  0  0  0  0  0  0  0  0
   19.8588  -22.1188  -16.5909 C   0  0  0  0  0  0  0  0  0  0  0  0
   18.6728  -21.4266  -16.0694 C   0  0  0  0  0  0  0  0  0  0  0  0
   18.4759  -20.1340  -15.6874 C   0  0  0  0  0  0  0  0  0  0  0  0
   17.2191  -19.9548  -15.2402 N   0  0  0  0  0  0  0  0  0  0  0  0
   16.6058  -21.1373  -15.3351 C   0  0  0  0  0  0  0  0  0  0  0  0
   17.4750  -22.0416  -15.8369 N   0  0  0  0  0  0  0  0  0  0  0  0
   19.4230  -23.9665  -14.9382 C   0  0  0  0  0  0  0  0  0  0  0  0
   19.1095  -25.0718  -15.4397 O   0  0  0  0  0  0  0  0  0  0  0  0
   18.8068  -23.6268  -13.7402 O   0  0  0  0  0  0  0  0  0  0  0  0
  2  1  1  6
  3  4  1  0
  3  2  1  0
  4  5  2  0
  5  6  1  0
  7  6  2  0
  8  7  1  0
  9  4  1  0
  9  8  2  0
 10 11  2  0
 10  2  1  0
 12 10  1  0
 13 12  1  0
 13 14  1  1
 14 15  1  0
 15 16  2  0
 15 19  1  0
 16 17  1  0
 17 18  1  0
 19 18  2  0
 20 13  1  0
 21 20  2  0
 22 20  1  0
 23 22  1  0
 24 25  1  0
 23 24  1  6
 25 29  1  0
 26 27  1  0
 26 25  2  0
 27 28  1  0
 28 29  2  0
 30 23  1  0
 30 32  1  0
 31 30  2  0
M  END
$$$$
