FHH.pdb
     RDKit          3D

 32 34  0  0  1  0  0  0  0  0999 V2000
   28.8423  -20.8388   -9.0904 N   0  0  0  0  0  0  0  0  0  0  0  0
   27.4105  -20.7892   -8.9330 C   0  0  1  0  0  0  0  0  0  0  0  0
   27.0408  -19.8847   -7.7689 C   0  0  0  0  0  0  0  0  0  0  0  0
   27.9391  -20.0436   -6.6267 C   0  0  0  0  0  0  0  0  0  0  0  0
   27.7869  -19.2411   -5.5228 C   0  0  0  0  0  0  0  0  0  0  0  0
   28.6111  -19.3507   -4.4084 C   0  0  0  0  0  0  0  0  0  0  0  0
   29.5962  -20.2975   -4.4424 C   0  0  0  0  0  0  0  0  0  0  0  0
   29.7880  -21.1244   -5.5246 C   0  0  0  0  0  0  0  0  0  0  0  0
   28.9443  -20.9848   -6.6193 C   0  0  0  0  0  0  0  0  0  0  0  0
   26.7107  -20.2639  -10.1316 C   0  0  0  0  0  0  0  0  0  0  0  0
   27.2268  -19.4415  -10.9316 O   0  0  0  0  0  0  0  0  0  0  0  0
   25.3672  -20.6846  -10.4480 N   0  0  0  0  0  0  0  0  0  0  0  0
   24.9650  -20.9660  -11.8065 C   0  0  1  0  0  0  0  0  0  0  0  0
   25.7879  -22.1092  -12.3880 C   0  0  0  0  0  0  0  0  0  0  0  0
   25.3610  -22.4523  -13.7521 C   0  0  0  0  0  0  0  0  0  0  0  0
   24.3620  -21.8449  -14.4670 C   0  0  0  0  0  0  0  0  0  0  0  0
   24.2394  -22.4122  -15.6845 N   0  0  0  0  0  0  0  0  0  0  0  0
   25.1759  -23.3834  -15.7204 C   0  0  0  0  0  0  0  0  0  0  0  0
   25.8528  -23.4109  -14.5598 N   0  0  0  0  0  0  0  0  0  0  0  0
   23.5134  -21.3002  -11.8269 C   0  0  0  0  0  0  0  0  0  0  0  0
   23.1370  -22.4325  -11.4501 O   0  0  0  0  0  0  0  0  0  0  0  0
   22.5298  -20.3793  -12.2604 N   0  0  0  0  0  0  0  0  0  0  0  0
   21.0919  -20.5843  -12.1916 C   0  0  1  0  0  0  0  0  0  0  0  0
   20.3599  -19.3412  -11.8519 C   0  0  0  0  0  0  0  0  0  0  0  0
   20.4334  -18.3512  -12.9347 C   0  0  0  0  0  0  0  0  0  0  0  0
   21.0585  -18.3802  -14.1447 C   0  0  0  0  0  0  0  0  0  0  0  0
   20.8754  -17.2212  -14.8041 N   0  0  0  0  0  0  0  0  0  0  0  0
   20.1297  -16.4442  -14.0145 C   0  0  0  0  0  0  0  0  0  0  0  0
   19.8528  -17.1158  -12.8755 N   0  0  0  0  0  0  0  0  0  0  0  0
   20.5573  -21.3701  -13.3284 C   0  0  0  0  0  0  0  0  0  0  0  0
   21.2428  -21.5387  -14.3643 O   0  0  0  0  0  0  0  0  0  0  0  0
   19.2963  -21.9531  -13.3120 O   0  0  0  0  0  0  0  0  0  0  0  0
  2  1  1  6
  3  4  1  0
  3  2  1  0
  4  5  2  0
  5  6  1  0
  7  6  2  0
  8  7  1  0
  9  4  1  0
  9  8  2  0
 10 11  2  0
 10  2  1  0
 12 10  1  0
 13 12  1  0
 13 14  1  1
 14 15  1  0
 15 16  2  0
 15 19  1  0
 16 17  1  0
 17 18  1  0
 19 18  2  0
 20 13  1  0
 21 20  2  0
 22 20  1  0
 23 22  1  0
 24 25  1  0
 23 24  1  6
 25 29  1  0
 26 27  1  0
 26 25  2  0
 27 28  1  0
 28 29  2  0
 30 23  1  0
 30 32  1  0
 31 30  2  0
M  END
$$$$
