FHH.pdb
     RDKit          3D

 32 34  0  0  1  0  0  0  0  0999 V2000
   28.1501  -21.0239  -10.2388 N   0  0  0  0  0  0  0  0  0  0  0  0
   26.7591  -21.3024   -9.9846 C   0  0  1  0  0  0  0  0  0  0  0  0
   26.3509  -20.7465   -8.6302 C   0  0  0  0  0  0  0  0  0  0  0  0
   27.4960  -20.5002   -7.7557 C   0  0  0  0  0  0  0  0  0  0  0  0
   27.6122  -19.2951   -7.1077 C   0  0  0  0  0  0  0  0  0  0  0  0
   28.6788  -19.0084   -6.2631 C   0  0  0  0  0  0  0  0  0  0  0  0
   29.6271  -19.9777   -6.0923 C   0  0  0  0  0  0  0  0  0  0  0  0
   29.5546  -21.1998   -6.7193 C   0  0  0  0  0  0  0  0  0  0  0  0
   28.4738  -21.4491   -7.5555 C   0  0  0  0  0  0  0  0  0  0  0  0
   25.8511  -20.7017  -10.9931 C   0  0  0  0  0  0  0  0  0  0  0  0
   25.6985  -19.4614  -11.1380 O   0  0  0  0  0  0  0  0  0  0  0  0
   25.0791  -21.5345  -11.8834 N   0  0  0  0  0  0  0  0  0  0  0  0
   24.2341  -20.9644  -12.9067 C   0  0  1  0  0  0  0  0  0  0  0  0
   24.8935  -21.0758  -14.2761 C   0  0  0  0  0  0  0  0  0  0  0  0
   26.1089  -20.2540  -14.3668 C   0  0  0  0  0  0  0  0  0  0  0  0
   26.1594  -18.8958  -14.5417 C   0  0  0  0  0  0  0  0  0  0  0  0
   27.4390  -18.4710  -14.5795 N   0  0  0  0  0  0  0  0  0  0  0  0
   28.1878  -19.5833  -14.4261 C   0  0  0  0  0  0  0  0  0  0  0  0
   27.3916  -20.6582  -14.2979 N   0  0  0  0  0  0  0  0  0  0  0  0
   22.9184  -21.6630  -12.8990 C   0  0  0  0  0  0  0  0  0  0  0  0
   22.8775  -22.9009  -13.0766 O   0  0  0  0  0  0  0  0  0  0  0  0
   21.6971  -20.9766  -12.6969 N   0  0  0  0  0  0  0  0  0  0  0  0
   20.3731  -21.5756  -12.7461 C   0  0  1  0  0  0  0  0  0  0  0  0
   19.5032  -21.1146  -11.6384 C   0  0  0  0  0  0  0  0  0  0  0  0
   19.7207  -21.8945  -10.4127 C   0  0  0  0  0  0  0  0  0  0  0  0
   19.7293  -23.2376  -10.1857 C   0  0  0  0  0  0  0  0  0  0  0  0
   19.9437  -23.4999   -8.8831 N   0  0  0  0  0  0  0  0  0  0  0  0
   20.0733  -22.3204   -8.2704 C   0  0  0  0  0  0  0  0  0  0  0  0
   19.9405  -21.3355   -9.1854 N   0  0  0  0  0  0  0  0  0  0  0  0
   19.7732  -21.5598  -14.1009 C   0  0  0  0  0  0  0  0  0  0  0  0
   19.0173  -22.4878  -14.4736 O   0  0  0  0  0  0  0  0  0  0  0  0
   20.0066  -20.5392  -15.0143 O   0  0  0  0  0  0  0  0  0  0  0  0
  2  1  1  6
  3  4  1  0
  3  2  1  0
  4  5  2  0
  5  6  1  0
  7  6  2  0
  8  7  1  0
  9  4  1  0
  9  8  2  0
 10 11  2  0
 10  2  1  0
 12 10  1  0
 13 12  1  0
 13 14  1  6
 14 15  1  0
 15 16  2  0
 15 19  1  0
 16 17  1  0
 17 18  1  0
 19 18  2  0
 20 13  1  0
 21 20  2  0
 22 20  1  0
 23 22  1  0
 24 25  1  0
 23 24  1  1
 25 29  1  0
 26 27  1  0
 26 25  2  0
 27 28  1  0
 28 29  2  0
 30 23  1  0
 30 32  1  0
 31 30  2  0
M  END
$$$$
