FHH.pdb
     RDKit          3D

 32 34  0  0  1  0  0  0  0  0999 V2000
   17.1667  -11.8234    7.1305 N   0  0  0  0  0  0  0  0  0  0  0  0
   17.2913  -13.1877    6.6832 C   0  0  1  0  0  0  0  0  0  0  0  0
   18.6924  -13.4403    6.1508 C   0  0  0  0  0  0  0  0  0  0  0  0
   18.6940  -13.8600    4.7506 C   0  0  0  0  0  0  0  0  0  0  0  0
   19.0514  -12.9661    3.7714 C   0  0  0  0  0  0  0  0  0  0  0  0
   19.0727  -13.3121    2.4249 C   0  0  0  0  0  0  0  0  0  0  0  0
   18.7211  -14.5914    2.0962 C   0  0  0  0  0  0  0  0  0  0  0  0
   18.3559  -15.5222    3.0406 C   0  0  0  0  0  0  0  0  0  0  0  0
   18.3469  -15.1388    4.3758 C   0  0  0  0  0  0  0  0  0  0  0  0
   17.0504  -14.1785    7.7614 C   0  0  0  0  0  0  0  0  0  0  0  0
   17.2792  -13.9503    8.9773 O   0  0  0  0  0  0  0  0  0  0  0  0
   16.5248  -15.4880    7.4595 N   0  0  0  0  0  0  0  0  0  0  0  0
   16.3284  -16.4786    8.4922 C   0  0  1  0  0  0  0  0  0  0  0  0
   14.8458  -16.7769    8.6801 C   0  0  0  0  0  0  0  0  0  0  0  0
   14.6150  -17.7437    9.7630 C   0  0  0  0  0  0  0  0  0  0  0  0
   14.5426  -17.4610   11.1019 C   0  0  0  0  0  0  0  0  0  0  0  0
   14.3196  -18.5862   11.8116 N   0  0  0  0  0  0  0  0  0  0  0  0
   14.2539  -19.5765   10.8970 C   0  0  0  0  0  0  0  0  0  0  0  0
   14.4311  -19.0740    9.6633 N   0  0  0  0  0  0  0  0  0  0  0  0
   17.0714  -17.7175    8.1283 C   0  0  0  0  0  0  0  0  0  0  0  0
   17.1734  -18.0431    6.9245 O   0  0  0  0  0  0  0  0  0  0  0  0
   17.6741  -18.5525    9.0994 N   0  0  0  0  0  0  0  0  0  0  0  0
   18.3951  -19.7848    8.8238 C   0  0  1  0  0  0  0  0  0  0  0  0
   17.5739  -20.7636    8.0727 C   0  0  0  0  0  0  0  0  0  0  0  0
   18.2985  -22.0201    7.8408 C   0  0  0  0  0  0  0  0  0  0  0  0
   18.8302  -22.5611    6.7094 C   0  0  0  0  0  0  0  0  0  0  0  0
   19.3834  -23.7605    6.9685 N   0  0  0  0  0  0  0  0  0  0  0  0
   19.2063  -23.9912    8.2719 C   0  0  0  0  0  0  0  0  0  0  0  0
   18.5491  -22.9438    8.8160 N   0  0  0  0  0  0  0  0  0  0  0  0
   19.7699  -19.5587    8.3195 C   0  0  0  0  0  0  0  0  0  0  0  0
   20.0491  -18.5206    7.6746 O   0  0  0  0  0  0  0  0  0  0  0  0
   20.8051  -20.4615    8.5286 O   0  0  0  0  0  0  0  0  0  0  0  0
  2  1  1  1
  3  4  1  0
  3  2  1  0
  4  5  2  0
  5  6  1  0
  7  6  2  0
  8  7  1  0
  9  4  1  0
  9  8  2  0
 10 11  2  0
 10  2  1  0
 12 10  1  0
 13 12  1  0
 13 14  1  6
 14 15  1  0
 15 16  2  0
 15 19  1  0
 16 17  1  0
 17 18  1  0
 19 18  2  0
 20 13  1  0
 21 20  2  0
 22 20  1  0
 23 22  1  0
 24 25  1  0
 23 24  1  6
 25 29  1  0
 26 27  1  0
 26 25  2  0
 27 28  1  0
 28 29  2  0
 30 23  1  0
 30 32  1  0
 31 30  2  0
M  END
$$$$
