FHH.pdb
     RDKit          3D

 32 34  0  0  1  0  0  0  0  0999 V2000
   25.7049  -30.5010    5.4865 N   0  0  0  0  0  0  0  0  0  0  0  0
   25.7603  -31.0448    6.8200 C   0  0  1  0  0  0  0  0  0  0  0  0
   24.4382  -31.7061    7.1732 C   0  0  0  0  0  0  0  0  0  0  0  0
   23.3542  -30.7400    7.3420 C   0  0  0  0  0  0  0  0  0  0  0  0
   23.3171  -29.9456    8.4615 C   0  0  0  0  0  0  0  0  0  0  0  0
   22.3111  -29.0091    8.6717 C   0  0  0  0  0  0  0  0  0  0  0  0
   21.3413  -28.8987    7.7150 C   0  0  0  0  0  0  0  0  0  0  0  0
   21.3355  -29.6716    6.5773 C   0  0  0  0  0  0  0  0  0  0  0  0
   22.3574  -30.5962    6.4027 C   0  0  0  0  0  0  0  0  0  0  0  0
   26.8187  -32.0716    6.9869 C   0  0  0  0  0  0  0  0  0  0  0  0
   27.0676  -32.9573    6.1288 O   0  0  0  0  0  0  0  0  0  0  0  0
   27.6386  -32.1034    8.1738 N   0  0  0  0  0  0  0  0  0  0  0  0
   28.7356  -33.0335    8.3083 C   0  0  1  0  0  0  0  0  0  0  0  0
   29.8610  -32.4258    9.1369 C   0  0  0  0  0  0  0  0  0  0  0  0
   30.7472  -31.5828    8.3216 C   0  0  0  0  0  0  0  0  0  0  0  0
   31.4132  -31.9651    7.1866 C   0  0  0  0  0  0  0  0  0  0  0  0
   32.1364  -30.9386    6.6941 N   0  0  0  0  0  0  0  0  0  0  0  0
   31.9131  -29.9090    7.5377 C   0  0  0  0  0  0  0  0  0  0  0  0
   31.0780  -30.2923    8.5182 N   0  0  0  0  0  0  0  0  0  0  0  0
   28.2377  -34.2881    8.9386 C   0  0  0  0  0  0  0  0  0  0  0  0
   27.0746  -34.3268    9.3981 O   0  0  0  0  0  0  0  0  0  0  0  0
   29.0354  -35.4529    9.0410 N   0  0  0  0  0  0  0  0  0  0  0  0
   28.6178  -36.7134    9.6335 C   0  0  1  0  0  0  0  0  0  0  0  0
   27.3190  -37.1860    9.0984 C   0  0  0  0  0  0  0  0  0  0  0  0
   26.9299  -38.4803    9.6740 C   0  0  0  0  0  0  0  0  0  0  0  0
   27.6225  -39.6420    9.8363 C   0  0  0  0  0  0  0  0  0  0  0  0
   26.8429  -40.5887   10.3909 N   0  0  0  0  0  0  0  0  0  0  0  0
   25.6443  -40.0330   10.5858 C   0  0  0  0  0  0  0  0  0  0  0  0
   25.6807  -38.7528   10.1557 N   0  0  0  0  0  0  0  0  0  0  0  0
   29.7047  -37.7184    9.6986 C   0  0  0  0  0  0  0  0  0  0  0  0
   30.3507  -38.0255    8.6692 O   0  0  0  0  0  0  0  0  0  0  0  0
   30.0635  -38.3621   10.8765 O   0  0  0  0  0  0  0  0  0  0  0  0
  2  1  1  6
  3  4  1  0
  3  2  1  0
  4  5  2  0
  5  6  1  0
  7  6  2  0
  8  7  1  0
  9  4  1  0
  9  8  2  0
 10 11  2  0
 10  2  1  0
 12 10  1  0
 13 12  1  0
 13 14  1  1
 14 15  1  0
 15 16  2  0
 15 19  1  0
 16 17  1  0
 17 18  1  0
 19 18  2  0
 20 13  1  0
 21 20  2  0
 22 20  1  0
 23 22  1  0
 24 25  1  0
 23 24  1  6
 25 29  1  0
 26 27  1  0
 26 25  2  0
 27 28  1  0
 28 29  2  0
 30 23  1  0
 30 32  1  0
 31 30  2  0
M  END
$$$$
