FHH.pdb
     RDKit          3D

 32 34  0  0  1  0  0  0  0  0999 V2000
   19.2060  -13.8834  -15.7591 N   0  0  0  0  0  0  0  0  0  0  0  0
   19.0193  -12.6436  -16.4698 C   0  0  1  0  0  0  0  0  0  0  0  0
   17.5984  -12.5515  -17.0016 C   0  0  0  0  0  0  0  0  0  0  0  0
   17.2726  -13.6371  -17.9247 C   0  0  0  0  0  0  0  0  0  0  0  0
   17.8403  -13.6626  -19.1748 C   0  0  0  0  0  0  0  0  0  0  0  0
   17.5677  -14.6719  -20.0913 C   0  0  0  0  0  0  0  0  0  0  0  0
   16.7022  -15.6573  -19.7065 C   0  0  0  0  0  0  0  0  0  0  0  0
   16.1088  -15.6752  -18.4659 C   0  0  0  0  0  0  0  0  0  0  0  0
   16.4061  -14.6495  -17.5775 C   0  0  0  0  0  0  0  0  0  0  0  0
   19.2451  -11.4466  -15.6222 C   0  0  0  0  0  0  0  0  0  0  0  0
   18.8460  -11.3534  -14.4328 O   0  0  0  0  0  0  0  0  0  0  0  0
   19.9556  -10.3000  -16.1346 N   0  0  0  0  0  0  0  0  0  0  0  0
   20.1707   -9.1225  -15.3262 C   0  0  1  0  0  0  0  0  0  0  0  0
   21.6554   -8.9226  -15.0467 C   0  0  0  0  0  0  0  0  0  0  0  0
   22.4694   -9.1028  -16.2574 C   0  0  0  0  0  0  0  0  0  0  0  0
   22.0052   -9.4129  -17.5089 C   0  0  0  0  0  0  0  0  0  0  0  0
   23.0277   -9.5012  -18.3842 N   0  0  0  0  0  0  0  0  0  0  0  0
   24.1378   -9.2421  -17.6617 C   0  0  0  0  0  0  0  0  0  0  0  0
   23.8064   -9.0019  -16.3817 N   0  0  0  0  0  0  0  0  0  0  0  0
   19.6043   -7.9373  -16.0288 C   0  0  0  0  0  0  0  0  0  0  0  0
   19.5177   -7.9448  -17.2771 O   0  0  0  0  0  0  0  0  0  0  0  0
   19.1545   -6.7885  -15.3351 N   0  0  0  0  0  0  0  0  0  0  0  0
   18.5872   -5.5988  -15.9492 C   0  0  1  0  0  0  0  0  0  0  0  0
   17.1366   -5.4607  -15.6788 C   0  0  0  0  0  0  0  0  0  0  0  0
   16.5823   -4.2419  -16.2830 C   0  0  0  0  0  0  0  0  0  0  0  0
   16.3053   -3.9204  -17.5774 C   0  0  0  0  0  0  0  0  0  0  0  0
   15.8295   -2.6644  -17.6657 N   0  0  0  0  0  0  0  0  0  0  0  0
   15.8008   -2.1768  -16.4228 C   0  0  0  0  0  0  0  0  0  0  0  0
   16.2547   -3.1224  -15.5715 N   0  0  0  0  0  0  0  0  0  0  0  0
   19.4109   -4.3843  -15.7439 C   0  0  0  0  0  0  0  0  0  0  0  0
   20.2237   -4.3195  -14.7917 O   0  0  0  0  0  0  0  0  0  0  0  0
   19.3333   -3.2741  -16.5757 O   0  0  0  0  0  0  0  0  0  0  0  0
  2  1  1  1
  3  4  1  0
  3  2  1  0
  4  5  2  0
  5  6  1  0
  7  6  2  0
  8  7  1  0
  9  4  1  0
  9  8  2  0
 10 11  2  0
 10  2  1  0
 12 10  1  0
 13 12  1  0
 13 14  1  6
 14 15  1  0
 15 16  2  0
 15 19  1  0
 16 17  1  0
 17 18  1  0
 19 18  2  0
 20 13  1  0
 21 20  2  0
 22 20  1  0
 23 22  1  0
 24 25  1  0
 23 24  1  1
 25 29  1  0
 26 27  1  0
 26 25  2  0
 27 28  1  0
 28 29  2  0
 30 23  1  0
 30 32  1  0
 31 30  2  0
M  END
$$$$
