FHH.pdb
     RDKit          3D

 32 34  0  0  1  0  0  0  0  0999 V2000
   28.7942  -12.2610  -20.5576 N   0  0  0  0  0  0  0  0  0  0  0  0
   28.3091  -12.9277  -19.3756 C   0  0  1  0  0  0  0  0  0  0  0  0
   27.6456  -11.9276  -18.4430 C   0  0  0  0  0  0  0  0  0  0  0  0
   28.5344  -10.8267  -18.0758 C   0  0  0  0  0  0  0  0  0  0  0  0
   29.7151  -11.0912  -17.4265 C   0  0  0  0  0  0  0  0  0  0  0  0
   30.5983  -10.0832  -17.0561 C   0  0  0  0  0  0  0  0  0  0  0  0
   30.2523   -8.7968  -17.3619 C   0  0  0  0  0  0  0  0  0  0  0  0
   29.0812   -8.4819  -18.0109 C   0  0  0  0  0  0  0  0  0  0  0  0
   28.2244   -9.5164  -18.3649 C   0  0  0  0  0  0  0  0  0  0  0  0
   27.3050  -13.9798  -19.6709 C   0  0  0  0  0  0  0  0  0  0  0  0
   26.4278  -13.8700  -20.5659 O   0  0  0  0  0  0  0  0  0  0  0  0
   27.2870  -15.2158  -18.9265 N   0  0  0  0  0  0  0  0  0  0  0  0
   26.3307  -16.2583  -19.2181 C   0  0  1  0  0  0  0  0  0  0  0  0
   26.8617  -17.6173  -18.7781 C   0  0  0  0  0  0  0  0  0  0  0  0
   25.9114  -18.6986  -19.0754 C   0  0  0  0  0  0  0  0  0  0  0  0
   25.2647  -19.4858  -18.1588 C   0  0  0  0  0  0  0  0  0  0  0  0
   24.4656  -20.3768  -18.7807 N   0  0  0  0  0  0  0  0  0  0  0  0
   24.6222  -20.1356  -20.0993 C   0  0  0  0  0  0  0  0  0  0  0  0
   25.4912  -19.1267  -20.2810 N   0  0  0  0  0  0  0  0  0  0  0  0
   25.0459  -15.9487  -18.5307 C   0  0  0  0  0  0  0  0  0  0  0  0
   25.0659  -15.4074  -17.4027 O   0  0  0  0  0  0  0  0  0  0  0  0
   23.7875  -16.2452  -19.1069 N   0  0  0  0  0  0  0  0  0  0  0  0
   22.4969  -16.0411  -18.4690 C   0  0  1  0  0  0  0  0  0  0  0  0
   21.7090  -14.9675  -19.1195 C   0  0  0  0  0  0  0  0  0  0  0  0
   20.4272  -14.7420  -18.4383 C   0  0  0  0  0  0  0  0  0  0  0  0
   19.9014  -15.2777  -17.3016 C   0  0  0  0  0  0  0  0  0  0  0  0
   18.6676  -14.7914  -17.0714 N   0  0  0  0  0  0  0  0  0  0  0  0
   18.3995  -13.9397  -18.0644 C   0  0  0  0  0  0  0  0  0  0  0  0
   19.4580  -13.8983  -18.9028 N   0  0  0  0  0  0  0  0  0  0  0  0
   21.7762  -17.3048  -18.1879 C   0  0  0  0  0  0  0  0  0  0  0  0
   21.8049  -18.2508  -19.0100 O   0  0  0  0  0  0  0  0  0  0  0  0
   21.0456  -17.5105  -17.0241 O   0  0  0  0  0  0  0  0  0  0  0  0
  2  1  1  6
  3  4  1  0
  3  2  1  0
  4  5  2  0
  5  6  1  0
  7  6  2  0
  8  7  1  0
  9  4  1  0
  9  8  2  0
 10 11  2  0
 10  2  1  0
 12 10  1  0
 13 12  1  0
 13 14  1  1
 14 15  1  0
 15 16  2  0
 15 19  1  0
 16 17  1  0
 17 18  1  0
 19 18  2  0
 20 13  1  0
 21 20  2  0
 22 20  1  0
 23 22  1  0
 24 25  1  0
 23 24  1  6
 25 29  1  0
 26 27  1  0
 26 25  2  0
 27 28  1  0
 28 29  2  0
 30 23  1  0
 30 32  1  0
 31 30  2  0
M  END
$$$$
