FHH.pdb
     RDKit          3D

 32 34  0  0  1  0  0  0  0  0999 V2000
   20.3956  -14.9389  -17.9160 N   0  0  0  0  0  0  0  0  0  0  0  0
   20.1164  -14.0200  -16.8414 C   0  0  1  0  0  0  0  0  0  0  0  0
   21.0541  -14.2770  -15.6732 C   0  0  0  0  0  0  0  0  0  0  0  0
   20.8641  -15.5998  -15.0809 C   0  0  0  0  0  0  0  0  0  0  0  0
   19.7657  -15.8428  -14.2933 C   0  0  0  0  0  0  0  0  0  0  0  0
   19.5345  -17.0822  -13.7072 C   0  0  0  0  0  0  0  0  0  0  0  0
   20.4483  -18.0714  -13.9408 C   0  0  0  0  0  0  0  0  0  0  0  0
   21.5634  -17.8766  -14.7220 C   0  0  0  0  0  0  0  0  0  0  0  0
   21.7600  -16.6245  -15.2906 C   0  0  0  0  0  0  0  0  0  0  0  0
   20.2869  -12.5984  -17.2316 C   0  0  0  0  0  0  0  0  0  0  0  0
   21.2840  -12.1679  -17.8666 O   0  0  0  0  0  0  0  0  0  0  0  0
   19.2879  -11.6133  -16.8944 N   0  0  0  0  0  0  0  0  0  0  0  0
   19.3935  -10.2459  -17.3477 C   0  0  1  0  0  0  0  0  0  0  0  0
   18.0674   -9.7633  -17.9230 C   0  0  0  0  0  0  0  0  0  0  0  0
   18.1469   -8.3713  -18.3885 C   0  0  0  0  0  0  0  0  0  0  0  0
   18.7112   -7.9380  -19.5597 C   0  0  0  0  0  0  0  0  0  0  0  0
   18.6076   -6.5974  -19.6671 N   0  0  0  0  0  0  0  0  0  0  0  0
   17.9707   -6.1989  -18.5459 C   0  0  0  0  0  0  0  0  0  0  0  0
   17.6918   -7.2629  -17.7740 N   0  0  0  0  0  0  0  0  0  0  0  0
   19.8161   -9.3847  -16.2081 C   0  0  0  0  0  0  0  0  0  0  0  0
   19.3503   -9.6010  -15.0670 O   0  0  0  0  0  0  0  0  0  0  0  0
   20.7337   -8.3183  -16.3637 N   0  0  0  0  0  0  0  0  0  0  0  0
   21.1748   -7.4222  -15.3069 C   0  0  1  0  0  0  0  0  0  0  0  0
   22.6210   -7.5624  -15.0147 C   0  0  0  0  0  0  0  0  0  0  0  0
   23.4517   -7.0852  -16.1283 C   0  0  0  0  0  0  0  0  0  0  0  0
   24.0065   -7.7392  -17.1867 C   0  0  0  0  0  0  0  0  0  0  0  0
   24.7230   -6.8919  -17.9485 N   0  0  0  0  0  0  0  0  0  0  0  0
   24.6283   -5.6886  -17.3773 C   0  0  0  0  0  0  0  0  0  0  0  0
   23.8596   -5.7890  -16.2709 N   0  0  0  0  0  0  0  0  0  0  0  0
   20.6687   -6.0384  -15.4632 C   0  0  0  0  0  0  0  0  0  0  0  0
   20.5855   -5.2749  -14.4724 O   0  0  0  0  0  0  0  0  0  0  0  0
   20.2682   -5.5185  -16.6879 O   0  0  0  0  0  0  0  0  0  0  0  0
  2  1  1  6
  3  4  1  0
  3  2  1  0
  4  5  2  0
  5  6  1  0
  7  6  2  0
  8  7  1  0
  9  4  1  0
  9  8  2  0
 10 11  2  0
 10  2  1  0
 12 10  1  0
 13 12  1  0
 13 14  1  1
 14 15  1  0
 15 16  2  0
 15 19  1  0
 16 17  1  0
 17 18  1  0
 19 18  2  0
 20 13  1  0
 21 20  2  0
 22 20  1  0
 23 22  1  0
 24 25  1  0
 23 24  1  6
 25 29  1  0
 26 27  1  0
 26 25  2  0
 27 28  1  0
 28 29  2  0
 30 23  1  0
 30 32  1  0
 31 30  2  0
M  END
$$$$
