CQE.pdb
     RDKit          3D

 25 24  0  0  1  0  0  0  0  0999 V2000
   28.4331  -19.7348  -17.2757 N   0  0  0  0  0  0  0  0  0  0  0  0
   27.6249  -19.1415  -16.2568 C   0  0  1  0  0  0  0  0  0  0  0  0
   27.1298  -17.7629  -16.6356 C   0  0  0  0  0  0  0  0  0  0  0  0
   28.5286  -16.6182  -16.6048 S   0  0  0  0  0  0  0  0  0  0  0  0
   26.4960  -20.0518  -15.9457 C   0  0  0  0  0  0  0  0  0  0  0  0
   25.9268  -20.7358  -16.8387 O   0  0  0  0  0  0  0  0  0  0  0  0
   24.9539  -24.1116  -13.3787 N   0  0  0  0  0  0  0  0  0  0  0  0
   23.9006  -23.4930  -12.6598 C   0  0  0  0  0  0  0  0  0  0  0  0
   22.8065  -24.0882  -12.4927 O   0  0  0  0  0  0  0  0  0  0  0  0
   24.0977  -22.1381  -12.1067 C   0  0  0  0  0  0  0  0  0  0  0  0
   25.1415  -21.3721  -12.8202 C   0  0  0  0  0  0  0  0  0  0  0  0
   24.8629  -20.9921  -14.2413 C   0  0  2  0  0  0  0  0  0  0  0  0
   26.0303  -20.1742  -14.6364 N   0  0  0  0  0  0  0  0  0  0  0  0
   23.6653  -20.1411  -14.4204 C   0  0  0  0  0  0  0  0  0  0  0  0
   23.6082  -19.0452  -13.7993 O   0  0  0  0  0  0  0  0  0  0  0  0
   22.5570  -20.4444  -15.2390 N   0  0  0  0  0  0  0  0  0  0  0  0
   21.3976  -19.5451  -15.3606 C   0  0  1  0  0  0  0  0  0  0  0  0
   21.1030  -19.2240  -16.7766 C   0  0  0  0  0  0  0  0  0  0  0  0
   22.0348  -18.3628  -17.5234 C   0  0  0  0  0  0  0  0  0  0  0  0
   22.3396  -18.6553  -18.9107 C   0  0  0  0  0  0  0  0  0  0  0  0
   21.4955  -18.8700  -19.7791 O   0  0  0  0  0  0  0  0  0  0  0  0
   20.2886  -19.9419  -14.4937 C   0  0  0  0  0  0  0  0  0  0  0  0
   19.2357  -19.2574  -14.4211 O   0  0  0  0  0  0  0  0  0  0  0  0
   23.6832  -18.6968  -19.2906 O   0  0  0  0  0  0  0  0  0  0  0  0
   20.3192  -21.0983  -13.6990 O   0  0  0  0  0  0  0  0  0  0  0  0
  2  1  1  6
  3  4  1  0
  3  2  1  0
  5  2  1  0
  5  6  2  0
  7  8  1  0
  8 10  1  0
  8  9  2  0
 10 11  1  0
 12 11  1  1
 12 13  1  0
 12 14  1  0
 13  5  1  0
 14 15  2  0
 14 16  1  0
 16 17  1  0
 17 22  1  0
 17 18  1  6
 19 18  1  0
 20 19  1  0
 20 21  2  0
 22 23  2  0
 22 25  1  0
 24 20  1  0
M  END
$$$$
