CQE.pdb
     RDKit          3D

 25 24  0  0  1  0  0  0  0  0999 V2000
   27.9404  -21.2387  -10.4234 N   0  0  0  0  0  0  0  0  0  0  0  0
   26.5303  -21.0042  -10.4198 C   0  0  1  0  0  0  0  0  0  0  0  0
   26.1394  -19.8200   -9.5632 C   0  0  0  0  0  0  0  0  0  0  0  0
   26.2499  -20.3031   -7.8247 S   0  0  0  0  0  0  0  0  0  0  0  0
   26.0664  -20.8331  -11.8181 C   0  0  0  0  0  0  0  0  0  0  0  0
   26.5948  -19.9944  -12.5970 O   0  0  0  0  0  0  0  0  0  0  0  0
   24.3958  -25.7185  -14.7285 N   0  0  0  0  0  0  0  0  0  0  0  0
   23.9015  -24.8157  -15.7028 C   0  0  0  0  0  0  0  0  0  0  0  0
   23.4252  -25.2424  -16.7847 O   0  0  0  0  0  0  0  0  0  0  0  0
   23.9507  -23.3639  -15.4378 C   0  0  0  0  0  0  0  0  0  0  0  0
   24.4798  -23.0421  -14.0954 C   0  0  0  0  0  0  0  0  0  0  0  0
   24.5632  -21.5953  -13.7196 C   0  0  2  0  0  0  0  0  0  0  0  0
   25.0176  -21.6091  -12.3120 N   0  0  0  0  0  0  0  0  0  0  0  0
   23.2651  -20.8846  -13.7421 C   0  0  0  0  0  0  0  0  0  0  0  0
   22.5194  -20.9626  -12.7283 O   0  0  0  0  0  0  0  0  0  0  0  0
   22.7714  -20.1095  -14.8126 N   0  0  0  0  0  0  0  0  0  0  0  0
   21.4462  -19.4690  -14.7762 C   0  0  1  0  0  0  0  0  0  0  0  0
   21.3920  -18.2783  -15.6559 C   0  0  0  0  0  0  0  0  0  0  0  0
   20.1256  -17.5374  -15.7794 C   0  0  0  0  0  0  0  0  0  0  0  0
   20.0435  -16.3810  -16.6507 C   0  0  0  0  0  0  0  0  0  0  0  0
   20.8343  -16.1368  -17.5605 O   0  0  0  0  0  0  0  0  0  0  0  0
   20.3541  -20.4386  -14.8526 C   0  0  0  0  0  0  0  0  0  0  0  0
   20.3985  -21.4154  -15.6439 O   0  0  0  0  0  0  0  0  0  0  0  0
   18.9957  -15.4804  -16.4454 O   0  0  0  0  0  0  0  0  0  0  0  0
   19.2009  -20.3511  -14.0574 O   0  0  0  0  0  0  0  0  0  0  0  0
  2  1  1  6
  3  4  1  0
  3  2  1  0
  5  2  1  0
  5  6  2  0
  7  8  1  0
  8 10  1  0
  8  9  2  0
 10 11  1  0
 12 11  1  1
 12 13  1  0
 12 14  1  0
 13  5  1  0
 14 15  2  0
 14 16  1  0
 16 17  1  0
 17 22  1  0
 17 18  1  6
 19 18  1  0
 20 19  1  0
 20 21  2  0
 22 23  2  0
 22 25  1  0
 24 20  1  0
M  END
$$$$
