CQE.pdb
     RDKit          3D

 25 24  0  0  1  0  0  0  0  0999 V2000
   26.2458  -12.9118  -17.4392 N   0  0  0  0  0  0  0  0  0  0  0  0
   26.0323  -11.8362  -16.5223 C   0  0  1  0  0  0  0  0  0  0  0  0
   27.2802  -11.0127  -16.2904 C   0  0  0  0  0  0  0  0  0  0  0  0
   28.4798  -12.0225  -15.3909 S   0  0  0  0  0  0  0  0  0  0  0  0
   24.9165  -10.9942  -17.0180 C   0  0  0  0  0  0  0  0  0  0  0  0
   24.7731  -10.7327  -18.2429 O   0  0  0  0  0  0  0  0  0  0  0  0
   19.4748  -11.9096  -15.2842 N   0  0  0  0  0  0  0  0  0  0  0  0
   19.2109  -10.5742  -15.6793 C   0  0  0  0  0  0  0  0  0  0  0  0
   18.0410  -10.1168  -15.6407 O   0  0  0  0  0  0  0  0  0  0  0  0
   20.3243   -9.7204  -16.1396 C   0  0  0  0  0  0  0  0  0  0  0  0
   21.6361  -10.3982  -16.0681 C   0  0  0  0  0  0  0  0  0  0  0  0
   22.8336   -9.6248  -16.5256 C   0  0  2  0  0  0  0  0  0  0  0  0
   23.9847  -10.4634  -16.1258 N   0  0  0  0  0  0  0  0  0  0  0  0
   23.0057   -8.3163  -15.8555 C   0  0  0  0  0  0  0  0  0  0  0  0
   23.5325   -8.2922  -14.7101 O   0  0  0  0  0  0  0  0  0  0  0  0
   22.6300   -7.0650  -16.3879 N   0  0  0  0  0  0  0  0  0  0  0  0
   22.8978   -5.7981  -15.6874 C   0  0  1  0  0  0  0  0  0  0  0  0
   23.1243   -4.6860  -16.6396 C   0  0  0  0  0  0  0  0  0  0  0  0
   23.2816   -3.3183  -16.1176 C   0  0  0  0  0  0  0  0  0  0  0  0
   23.4635   -2.2086  -17.0334 C   0  0  0  0  0  0  0  0  0  0  0  0
   23.5353   -1.0290  -16.6928 O   0  0  0  0  0  0  0  0  0  0  0  0
   21.9868   -5.5761  -14.5651 C   0  0  0  0  0  0  0  0  0  0  0  0
   22.3601   -4.9714  -13.5271 O   0  0  0  0  0  0  0  0  0  0  0  0
   23.5645   -2.4954  -18.3967 O   0  0  0  0  0  0  0  0  0  0  0  0
   20.6523   -6.0107  -14.5699 O   0  0  0  0  0  0  0  0  0  0  0  0
  2  1  1  6
  3  4  1  0
  3  2  1  0
  5  2  1  0
  5  6  2  0
  7  8  1  0
  8 10  1  0
  8  9  2  0
 10 11  1  0
 12 11  1  1
 12 13  1  0
 12 14  1  0
 13  5  1  0
 14 15  2  0
 14 16  1  0
 16 17  1  0
 17 22  1  0
 17 18  1  6
 19 18  1  0
 20 19  1  0
 20 21  2  0
 22 23  2  0
 22 25  1  0
 24 20  1  0
M  END
$$$$
