CQE.pdb
     RDKit          3D

 25 24  0  0  1  0  0  0  0  0999 V2000
   27.3444  -21.4707   -9.5564 N   0  0  0  0  0  0  0  0  0  0  0  0
   26.0657  -21.0591  -10.0453 C   0  0  1  0  0  0  0  0  0  0  0  0
   25.4238  -19.9998   -9.1764 C   0  0  0  0  0  0  0  0  0  0  0  0
   25.2016  -20.6733   -7.5136 S   0  0  0  0  0  0  0  0  0  0  0  0
   26.2126  -20.5906  -11.4448 C   0  0  0  0  0  0  0  0  0  0  0  0
   27.3206  -20.2027  -11.9042 O   0  0  0  0  0  0  0  0  0  0  0  0
   26.7721  -21.4229  -16.9788 N   0  0  0  0  0  0  0  0  0  0  0  0
   25.8764  -22.4072  -16.4912 C   0  0  0  0  0  0  0  0  0  0  0  0
   25.4375  -23.3044  -17.2540 O   0  0  0  0  0  0  0  0  0  0  0  0
   25.4596  -22.3711  -15.0751 C   0  0  0  0  0  0  0  0  0  0  0  0
   26.0877  -21.2670  -14.3189 C   0  0  0  0  0  0  0  0  0  0  0  0
   25.1784  -20.2294  -13.7375 C   0  0  2  0  0  0  0  0  0  0  0  0
   25.1101  -20.5681  -12.2992 N   0  0  0  0  0  0  0  0  0  0  0  0
   23.7920  -20.2767  -14.2535 C   0  0  0  0  0  0  0  0  0  0  0  0
   23.0017  -21.1353  -13.7757 O   0  0  0  0  0  0  0  0  0  0  0  0
   23.2571  -19.4333  -15.2500 N   0  0  0  0  0  0  0  0  0  0  0  0
   21.8076  -19.2637  -15.4440 C   0  0  1  0  0  0  0  0  0  0  0  0
   21.4997  -18.0265  -16.1986 C   0  0  0  0  0  0  0  0  0  0  0  0
   20.0926  -17.6416  -16.3975 C   0  0  0  0  0  0  0  0  0  0  0  0
   19.7552  -16.5788  -17.3248 C   0  0  0  0  0  0  0  0  0  0  0  0
   18.6075  -16.2572  -17.6280 O   0  0  0  0  0  0  0  0  0  0  0  0
   21.1482  -20.5050  -15.8478 C   0  0  0  0  0  0  0  0  0  0  0  0
   21.7043  -21.3188  -16.6294 O   0  0  0  0  0  0  0  0  0  0  0  0
   20.8032  -15.8695  -17.9161 O   0  0  0  0  0  0  0  0  0  0  0  0
   19.8714  -20.8715  -15.3945 O   0  0  0  0  0  0  0  0  0  0  0  0
  2  1  1  1
  3  4  1  0
  3  2  1  0
  5  2  1  0
  5  6  2  0
  7  8  1  0
  8 10  1  0
  8  9  2  0
 10 11  1  0
 12 11  1  6
 12 13  1  0
 12 14  1  0
 13  5  1  0
 14 15  2  0
 14 16  1  0
 16 17  1  0
 17 22  1  0
 17 18  1  6
 19 18  1  0
 20 19  1  0
 20 21  2  0
 22 23  2  0
 22 25  1  0
 24 20  1  0
M  END
$$$$
