CQE.pdb
     RDKit          3D

 25 24  0  0  1  0  0  0  0  0999 V2000
   24.7339  -13.1927  -17.9758 N   0  0  0  0  0  0  0  0  0  0  0  0
   24.6641  -12.3126  -16.8516 C   0  0  1  0  0  0  0  0  0  0  0  0
   26.0054  -11.7052  -16.5037 C   0  0  0  0  0  0  0  0  0  0  0  0
   27.1045  -13.0213  -15.9313 S   0  0  0  0  0  0  0  0  0  0  0  0
   23.6523  -11.2627  -17.1233 C   0  0  0  0  0  0  0  0  0  0  0  0
   23.5429  -10.7209  -18.2563 O   0  0  0  0  0  0  0  0  0  0  0  0
   18.2904  -11.7828  -14.6522 N   0  0  0  0  0  0  0  0  0  0  0  0
   18.5895  -12.0859  -16.0041 C   0  0  0  0  0  0  0  0  0  0  0  0
   17.9132  -12.9394  -16.6313 O   0  0  0  0  0  0  0  0  0  0  0  0
   19.7064  -11.3897  -16.6737 C   0  0  0  0  0  0  0  0  0  0  0  0
   20.4829  -10.5314  -15.7540 C   0  0  0  0  0  0  0  0  0  0  0  0
   21.6993   -9.8568  -16.3077 C   0  0  2  0  0  0  0  0  0  0  0  0
   22.7841  -10.8437  -16.1150 N   0  0  0  0  0  0  0  0  0  0  0  0
   22.1014   -8.6328  -15.5793 C   0  0  0  0  0  0  0  0  0  0  0  0
   22.6556   -8.7579  -14.4535 O   0  0  0  0  0  0  0  0  0  0  0  0
   21.9216   -7.3095  -16.0343 N   0  0  0  0  0  0  0  0  0  0  0  0
   22.2993   -6.1395  -15.2244 C   0  0  1  0  0  0  0  0  0  0  0  0
   22.2400   -4.8876  -16.0144 C   0  0  0  0  0  0  0  0  0  0  0  0
   22.5084   -3.6050  -15.3431 C   0  0  0  0  0  0  0  0  0  0  0  0
   22.3314   -2.3584  -16.0627 C   0  0  0  0  0  0  0  0  0  0  0  0
   21.2995   -1.6892  -16.0535 O   0  0  0  0  0  0  0  0  0  0  0  0
   21.6815   -6.1537  -13.8990 C   0  0  0  0  0  0  0  0  0  0  0  0
   20.4783   -6.4845  -13.7398 O   0  0  0  0  0  0  0  0  0  0  0  0
   23.4045   -1.8819  -16.8194 O   0  0  0  0  0  0  0  0  0  0  0  0
   22.3782   -5.8096  -12.7302 O   0  0  0  0  0  0  0  0  0  0  0  0
  2  1  1  6
  3  4  1  0
  3  2  1  0
  5  2  1  0
  5  6  2  0
  7  8  1  0
  8 10  1  0
  8  9  2  0
 10 11  1  0
 12 11  1  1
 12 13  1  0
 12 14  1  0
 13  5  1  0
 14 15  2  0
 14 16  1  0
 16 17  1  0
 17 22  1  0
 17 18  1  6
 19 18  1  0
 20 19  1  0
 20 21  2  0
 22 23  2  0
 22 25  1  0
 24 20  1  0
M  END
$$$$
