CQE.pdb
     RDKit          3D

 25 24  0  0  1  0  0  0  0  0999 V2000
   13.9596  -11.3522  -10.1456 N   0  0  0  0  0  0  0  0  0  0  0  0
   15.2431  -10.7331  -10.2586 C   0  0  1  0  0  0  0  0  0  0  0  0
   16.0996  -11.3616  -11.3359 C   0  0  0  0  0  0  0  0  0  0  0  0
   16.4904  -13.0575  -10.8470 S   0  0  0  0  0  0  0  0  0  0  0  0
   15.0586   -9.2809  -10.4970 C   0  0  0  0  0  0  0  0  0  0  0  0
   14.1810   -8.8424  -11.2886 O   0  0  0  0  0  0  0  0  0  0  0  0
   14.7631   -5.5155   -6.1731 N   0  0  0  0  0  0  0  0  0  0  0  0
   13.6818   -5.7609   -7.0560 C   0  0  0  0  0  0  0  0  0  0  0  0
   12.4959   -5.5974   -6.6733 O   0  0  0  0  0  0  0  0  0  0  0  0
   13.9587   -6.2127   -8.4342 C   0  0  0  0  0  0  0  0  0  0  0  0
   15.4040   -6.3380   -8.7187 C   0  0  0  0  0  0  0  0  0  0  0  0
   15.7949   -6.8896  -10.0544 C   0  0  2  0  0  0  0  0  0  0  0  0
   15.8650   -8.3515   -9.8398 N   0  0  0  0  0  0  0  0  0  0  0  0
   17.1327   -6.4622  -10.5218 C   0  0  0  0  0  0  0  0  0  0  0  0
   18.1500   -6.9369   -9.9476 O   0  0  0  0  0  0  0  0  0  0  0  0
   17.3847   -5.5554  -11.5728 N   0  0  0  0  0  0  0  0  0  0  0  0
   18.7019   -5.4473  -12.2215 C   0  0  1  0  0  0  0  0  0  0  0  0
   19.2572   -6.7801  -12.5532 C   0  0  0  0  0  0  0  0  0  0  0  0
   20.5560   -6.8626  -13.2417 C   0  0  0  0  0  0  0  0  0  0  0  0
   21.1073   -8.1557  -13.5984 C   0  0  0  0  0  0  0  0  0  0  0  0
   21.9528   -8.7584  -12.9392 O   0  0  0  0  0  0  0  0  0  0  0  0
   18.7362   -4.4062  -13.2480 C   0  0  0  0  0  0  0  0  0  0  0  0
   19.8244   -3.9740  -13.7076 O   0  0  0  0  0  0  0  0  0  0  0  0
   20.6488   -8.7614  -14.7706 O   0  0  0  0  0  0  0  0  0  0  0  0
   17.5756   -3.8297  -13.7871 O   0  0  0  0  0  0  0  0  0  0  0  0
  2  1  1  6
  3  4  1  0
  3  2  1  0
  5  2  1  0
  5  6  2  0
  7  8  1  0
  8 10  1  0
  8  9  2  0
 10 11  1  0
 12 11  1  1
 12 13  1  0
 12 14  1  0
 13  5  1  0
 14 15  2  0
 14 16  1  0
 16 17  1  0
 17 22  1  0
 17 18  1  6
 19 18  1  0
 20 19  1  0
 20 21  2  0
 22 23  2  0
 22 25  1  0
 24 20  1  0
M  END
$$$$
