CQE.pdb
     RDKit          3D

 25 24  0  0  1  0  0  0  0  0999 V2000
   29.1235  -34.3032   -7.3863 N   0  0  0  0  0  0  0  0  0  0  0  0
   27.9977  -34.7833   -6.6478 C   0  0  1  0  0  0  0  0  0  0  0  0
   28.2817  -34.9036   -5.1666 C   0  0  0  0  0  0  0  0  0  0  0  0
   28.5722  -33.2494   -4.4979 S   0  0  0  0  0  0  0  0  0  0  0  0
   26.8388  -33.8937   -6.9029 C   0  0  0  0  0  0  0  0  0  0  0  0
   26.9302  -32.8767   -7.6422 O   0  0  0  0  0  0  0  0  0  0  0  0
   21.5086  -34.0921   -9.0225 N   0  0  0  0  0  0  0  0  0  0  0  0
   22.2802  -33.0079   -9.5104 C   0  0  0  0  0  0  0  0  0  0  0  0
   21.7843  -32.1856  -10.3210 O   0  0  0  0  0  0  0  0  0  0  0  0
   23.6773  -32.8507   -9.0587 C   0  0  0  0  0  0  0  0  0  0  0  0
   24.0955  -33.9015   -8.1068 C   0  0  0  0  0  0  0  0  0  0  0  0
   24.3400  -33.4854   -6.6896 C   0  0  2  0  0  0  0  0  0  0  0  0
   25.6004  -34.1661   -6.3211 N   0  0  0  0  0  0  0  0  0  0  0  0
   23.3097  -33.9479   -5.7328 C   0  0  0  0  0  0  0  0  0  0  0  0
   23.1525  -35.1886   -5.5719 O   0  0  0  0  0  0  0  0  0  0  0  0
   22.4686  -33.1151   -4.9651 N   0  0  0  0  0  0  0  0  0  0  0  0
   21.4448  -33.6537   -4.0544 C   0  0  1  0  0  0  0  0  0  0  0  0
   20.9925  -32.6346   -3.0789 C   0  0  0  0  0  0  0  0  0  0  0  0
   20.0623  -33.0318   -2.0090 C   0  0  0  0  0  0  0  0  0  0  0  0
   19.6476  -32.0641   -1.0117 C   0  0  0  0  0  0  0  0  0  0  0  0
   19.9737  -30.8782   -1.0140 O   0  0  0  0  0  0  0  0  0  0  0  0
   20.4313  -34.4413   -4.7553 C   0  0  0  0  0  0  0  0  0  0  0  0
   19.9327  -34.0504   -5.8420 O   0  0  0  0  0  0  0  0  0  0  0  0
   18.8209  -32.5055    0.0241 O   0  0  0  0  0  0  0  0  0  0  0  0
   19.9557  -35.6712   -4.2746 O   0  0  0  0  0  0  0  0  0  0  0  0
  2  1  1  6
  3  4  1  0
  3  2  1  0
  5  2  1  0
  5  6  2  0
  7  8  1  0
  8 10  1  0
  8  9  2  0
 10 11  1  0
 12 11  1  6
 12 13  1  0
 12 14  1  0
 13  5  1  0
 14 15  2  0
 14 16  1  0
 16 17  1  0
 17 22  1  0
 17 18  1  6
 19 18  1  0
 20 19  1  0
 20 21  2  0
 22 23  2  0
 22 25  1  0
 24 20  1  0
M  END
$$$$
