CQE.pdb
     RDKit          3D

 25 24  0  0  1  0  0  0  0  0999 V2000
   20.6376  -14.4629  -16.3968 N   0  0  0  0  0  0  0  0  0  0  0  0
   20.9099  -13.2669  -17.1308 C   0  0  1  0  0  0  0  0  0  0  0  0
   19.7058  -12.7688  -17.8994 C   0  0  0  0  0  0  0  0  0  0  0  0
   19.1887  -14.0548  -19.0598 S   0  0  0  0  0  0  0  0  0  0  0  0
   21.4172  -12.2328  -16.1964 C   0  0  0  0  0  0  0  0  0  0  0  0
   20.8597  -12.0051  -15.0889 O   0  0  0  0  0  0  0  0  0  0  0  0
   27.2517  -10.9111  -16.5442 N   0  0  0  0  0  0  0  0  0  0  0  0
   26.7316  -11.7516  -15.5284 C   0  0  0  0  0  0  0  0  0  0  0  0
   27.4753  -12.5757  -14.9393 O   0  0  0  0  0  0  0  0  0  0  0  0
   25.3036  -11.6529  -15.1656 C   0  0  0  0  0  0  0  0  0  0  0  0
   24.6048  -10.5595  -15.8738 C   0  0  0  0  0  0  0  0  0  0  0  0
   23.1289  -10.4343  -15.6561 C   0  0  2  0  0  0  0  0  0  0  0  0
   22.5414  -11.4757  -16.5268 N   0  0  0  0  0  0  0  0  0  0  0  0
   22.5567   -9.1408  -16.0920 C   0  0  0  0  0  0  0  0  0  0  0  0
   22.6770   -8.8077  -17.3023 O   0  0  0  0  0  0  0  0  0  0  0  0
   21.8729   -8.2246  -15.2653 N   0  0  0  0  0  0  0  0  0  0  0  0
   21.3719   -6.9337  -15.7655 C   0  0  1  0  0  0  0  0  0  0  0  0
   19.9193   -6.9868  -16.0518 C   0  0  0  0  0  0  0  0  0  0  0  0
   19.4707   -7.3061  -17.4173 C   0  0  0  0  0  0  0  0  0  0  0  0
   18.0542   -7.4131  -17.7092 C   0  0  0  0  0  0  0  0  0  0  0  0
   17.4544   -6.7069  -18.5181 O   0  0  0  0  0  0  0  0  0  0  0  0
   21.8874   -5.7992  -15.0002 C   0  0  0  0  0  0  0  0  0  0  0  0
   22.3971   -5.9541  -13.8607 O   0  0  0  0  0  0  0  0  0  0  0  0
   17.3171   -8.3838  -17.0268 O   0  0  0  0  0  0  0  0  0  0  0  0
   21.8546   -4.4800  -15.4784 O   0  0  0  0  0  0  0  0  0  0  0  0
  2  1  1  1
  3  4  1  0
  3  2  1  0
  5  2  1  0
  5  6  2  0
  7  8  1  0
  8 10  1  0
  8  9  2  0
 10 11  1  0
 12 11  1  6
 12 13  1  0
 12 14  1  0
 13  5  1  0
 14 15  2  0
 14 16  1  0
 16 17  1  0
 17 22  1  0
 17 18  1  1
 19 18  1  0
 20 19  1  0
 20 21  2  0
 22 23  2  0
 22 25  1  0
 24 20  1  0
M  END
$$$$
