CQE.pdb
     RDKit          3D

 25 24  0  0  1  0  0  0  0  0999 V2000
   25.8450  -11.7161  -17.0580 N   0  0  0  0  0  0  0  0  0  0  0  0
   25.2815  -10.6556  -16.2827 C   0  0  1  0  0  0  0  0  0  0  0  0
   26.1357   -9.4070  -16.2966 C   0  0  0  0  0  0  0  0  0  0  0  0
   27.6794   -9.7534  -15.4220 S   0  0  0  0  0  0  0  0  0  0  0  0
   23.9105  -10.3750  -16.7740 C   0  0  0  0  0  0  0  0  0  0  0  0
   23.6672  -10.1846  -17.9962 O   0  0  0  0  0  0  0  0  0  0  0  0
   19.2797  -13.5320  -15.5912 N   0  0  0  0  0  0  0  0  0  0  0  0
   18.5090  -12.3708  -15.8491 C   0  0  0  0  0  0  0  0  0  0  0  0
   17.2537  -12.4286  -15.8643 O   0  0  0  0  0  0  0  0  0  0  0  0
   19.1936  -11.0870  -16.1016 C   0  0  0  0  0  0  0  0  0  0  0  0
   20.6654  -11.1934  -16.0141 C   0  0  0  0  0  0  0  0  0  0  0  0
   21.4590   -9.9479  -16.2600 C   0  0  2  0  0  0  0  0  0  0  0  0
   22.8409  -10.3143  -15.8804 N   0  0  0  0  0  0  0  0  0  0  0  0
   21.0721   -8.8013  -15.4078 C   0  0  0  0  0  0  0  0  0  0  0  0
   21.6874   -8.6252  -14.3213 O   0  0  0  0  0  0  0  0  0  0  0  0
   20.0592   -7.8642  -15.7017 N   0  0  0  0  0  0  0  0  0  0  0  0
   20.0587   -6.5027  -15.1415 C   0  0  1  0  0  0  0  0  0  0  0  0
   21.4167   -5.9107  -15.1465 C   0  0  0  0  0  0  0  0  0  0  0  0
   21.5953   -4.5265  -14.6774 C   0  0  0  0  0  0  0  0  0  0  0  0
   22.9192   -3.9353  -14.6484 C   0  0  0  0  0  0  0  0  0  0  0  0
   23.8699   -4.3868  -14.0119 O   0  0  0  0  0  0  0  0  0  0  0  0
   18.9470   -5.6934  -15.6395 C   0  0  0  0  0  0  0  0  0  0  0  0
   18.3401   -4.8828  -14.8932 O   0  0  0  0  0  0  0  0  0  0  0  0
   23.1332   -2.7733  -15.3934 O   0  0  0  0  0  0  0  0  0  0  0  0
   18.4906   -5.7597  -16.9651 O   0  0  0  0  0  0  0  0  0  0  0  0
  2  1  1  6
  3  4  1  0
  3  2  1  0
  5  2  1  0
  5  6  2  0
  7  8  1  0
  8 10  1  0
  8  9  2  0
 10 11  1  0
 12 11  1  1
 12 13  1  0
 12 14  1  0
 13  5  1  0
 14 15  2  0
 14 16  1  0
 16 17  1  0
 17 22  1  0
 17 18  1  6
 19 18  1  0
 20 19  1  0
 20 21  2  0
 22 23  2  0
 22 25  1  0
 24 20  1  0
M  END
$$$$
