CQE.pdb
     RDKit          3D

 25 24  0  0  1  0  0  0  0  0999 V2000
   19.1745  -13.1432  -16.0666 N   0  0  0  0  0  0  0  0  0  0  0  0
   19.5642  -12.0342  -16.8800 C   0  0  1  0  0  0  0  0  0  0  0  0
   18.3882  -11.3729  -17.5646 C   0  0  0  0  0  0  0  0  0  0  0  0
   17.6880  -12.5341  -18.7601 S   0  0  0  0  0  0  0  0  0  0  0  0
   20.3158  -11.0650  -16.0460 C   0  0  0  0  0  0  0  0  0  0  0  0
   19.9269  -10.7372  -14.8925 O   0  0  0  0  0  0  0  0  0  0  0  0
   26.2153  -11.3394  -16.3776 N   0  0  0  0  0  0  0  0  0  0  0  0
   26.1574  -10.2794  -15.4385 C   0  0  0  0  0  0  0  0  0  0  0  0
   27.1926   -9.9086  -14.8302 O   0  0  0  0  0  0  0  0  0  0  0  0
   24.8667   -9.6111  -15.1776 C   0  0  0  0  0  0  0  0  0  0  0  0
   23.7492  -10.1991  -15.9461 C   0  0  0  0  0  0  0  0  0  0  0  0
   22.3846   -9.6264  -15.7195 C   0  0  2  0  0  0  0  0  0  0  0  0
   21.4897  -10.4843  -16.5264 N   0  0  0  0  0  0  0  0  0  0  0  0
   22.2142   -8.2434  -16.2186 C   0  0  0  0  0  0  0  0  0  0  0  0
   22.0478   -8.0671  -17.4560 O   0  0  0  0  0  0  0  0  0  0  0  0
   22.2187   -7.0772  -15.4247 N   0  0  0  0  0  0  0  0  0  0  0  0
   21.6772   -5.7950  -15.9047 C   0  0  1  0  0  0  0  0  0  0  0  0
   20.4173   -5.9843  -16.6607 C   0  0  0  0  0  0  0  0  0  0  0  0
   20.3482   -5.5320  -18.0602 C   0  0  0  0  0  0  0  0  0  0  0  0
   19.0895   -5.5853  -18.7786 C   0  0  0  0  0  0  0  0  0  0  0  0
   18.9475   -5.2712  -19.9592 O   0  0  0  0  0  0  0  0  0  0  0  0
   21.7227   -4.7506  -14.8820 C   0  0  0  0  0  0  0  0  0  0  0  0
   21.6708   -5.0300  -13.6566 O   0  0  0  0  0  0  0  0  0  0  0  0
   17.9586   -6.0230  -18.0853 O   0  0  0  0  0  0  0  0  0  0  0  0
   21.8310   -3.3859  -15.1914 O   0  0  0  0  0  0  0  0  0  0  0  0
  2  1  1  1
  3  4  1  0
  3  2  1  0
  5  2  1  0
  5  6  2  0
  7  8  1  0
  8 10  1  0
  8  9  2  0
 10 11  1  0
 12 11  1  6
 12 13  1  0
 12 14  1  0
 13  5  1  0
 14 15  2  0
 14 16  1  0
 16 17  1  0
 17 22  1  0
 17 18  1  1
 19 18  1  0
 20 19  1  0
 20 21  2  0
 22 23  2  0
 22 25  1  0
 24 20  1  0
M  END
$$$$
