CQE.pdb
     RDKit          3D

 25 24  0  0  1  0  0  0  0  0999 V2000
   24.8969  -20.9779  -15.1366 N   0  0  0  0  0  0  0  0  0  0  0  0
   23.9193  -21.9431  -14.7416 C   0  0  1  0  0  0  0  0  0  0  0  0
   24.5327  -23.1505  -14.0672 C   0  0  0  0  0  0  0  0  0  0  0  0
   25.7339  -23.8941  -15.1951 S   0  0  0  0  0  0  0  0  0  0  0  0
   22.9204  -21.2862  -13.8639 C   0  0  0  0  0  0  0  0  0  0  0  0
   23.1445  -20.1725  -13.3174 O   0  0  0  0  0  0  0  0  0  0  0  0
   20.0025  -17.8253  -13.3869 N   0  0  0  0  0  0  0  0  0  0  0  0
   18.7620  -18.4316  -13.0666 C   0  0  0  0  0  0  0  0  0  0  0  0
   17.8403  -17.7591  -12.5397 O   0  0  0  0  0  0  0  0  0  0  0  0
   18.5589  -19.8652  -13.3564 C   0  0  0  0  0  0  0  0  0  0  0  0
   19.7864  -20.5340  -13.8373 C   0  0  0  0  0  0  0  0  0  0  0  0
   20.6003  -21.2823  -12.8279 C   0  0  2  0  0  0  0  0  0  0  0  0
   21.6896  -21.8954  -13.6187 N   0  0  0  0  0  0  0  0  0  0  0  0
   19.8782  -22.3911  -12.1646 C   0  0  0  0  0  0  0  0  0  0  0  0
   19.5592  -23.3979  -12.8536 O   0  0  0  0  0  0  0  0  0  0  0  0
   19.5054  -22.4314  -10.8045 N   0  0  0  0  0  0  0  0  0  0  0  0
   18.7994  -23.5809  -10.2147 C   0  0  1  0  0  0  0  0  0  0  0  0
   18.8175  -23.5304   -8.7342 C   0  0  0  0  0  0  0  0  0  0  0  0
   18.2495  -24.6557   -7.9733 C   0  0  0  0  0  0  0  0  0  0  0  0
   18.3805  -24.6949   -6.5295 C   0  0  0  0  0  0  0  0  0  0  0  0
   19.4475  -24.8160   -5.9300 O   0  0  0  0  0  0  0  0  0  0  0  0
   17.5296  -23.8610  -10.8840 C   0  0  0  0  0  0  0  0  0  0  0  0
   17.2200  -25.0265  -11.2418 O   0  0  0  0  0  0  0  0  0  0  0  0
   17.2171  -24.5879   -5.7639 O   0  0  0  0  0  0  0  0  0  0  0  0
   16.5808  -22.8655  -11.1647 O   0  0  0  0  0  0  0  0  0  0  0  0
  2  1  1  1
  3  4  1  0
  3  2  1  0
  5  2  1  0
  5  6  2  0
  7  8  1  0
  8 10  1  0
  8  9  2  0
 10 11  1  0
 12 11  1  6
 12 13  1  0
 12 14  1  0
 13  5  1  0
 14 15  2  0
 14 16  1  0
 16 17  1  0
 17 22  1  0
 17 18  1  1
 19 18  1  0
 20 19  1  0
 20 21  2  0
 22 23  2  0
 22 25  1  0
 24 20  1  0
M  END
$$$$
