CQE.pdb
     RDKit          3D

 25 24  0  0  1  0  0  0  0  0999 V2000
   14.9483  -11.2388  -10.7984 N   0  0  0  0  0  0  0  0  0  0  0  0
   16.0518  -10.3978  -10.4544 C   0  0  1  0  0  0  0  0  0  0  0  0
   17.3045  -10.7334  -11.2335 C   0  0  0  0  0  0  0  0  0  0  0  0
   17.7323  -12.4621  -10.9228 S   0  0  0  0  0  0  0  0  0  0  0  0
   15.6586   -8.9814  -10.6521 C   0  0  0  0  0  0  0  0  0  0  0  0
   15.0100   -8.6059  -11.6658 O   0  0  0  0  0  0  0  0  0  0  0  0
   14.3148   -5.0942   -6.0705 N   0  0  0  0  0  0  0  0  0  0  0  0
   13.3793   -5.8771   -6.7922 C   0  0  0  0  0  0  0  0  0  0  0  0
   12.2294   -6.0847   -6.3295 O   0  0  0  0  0  0  0  0  0  0  0  0
   13.7664   -6.4505   -8.0967 C   0  0  0  0  0  0  0  0  0  0  0  0
   15.1890   -6.2204   -8.4265 C   0  0  0  0  0  0  0  0  0  0  0  0
   15.6412   -6.5856   -9.8062 C   0  0  2  0  0  0  0  0  0  0  0  0
   16.0028   -8.0163   -9.7055 N   0  0  0  0  0  0  0  0  0  0  0  0
   16.8548   -5.8693  -10.2586 C   0  0  0  0  0  0  0  0  0  0  0  0
   17.9334   -6.0603   -9.6339 O   0  0  0  0  0  0  0  0  0  0  0  0
   16.9228   -4.9745  -11.3472 N   0  0  0  0  0  0  0  0  0  0  0  0
   18.2025   -4.4893  -11.8898 C   0  0  1  0  0  0  0  0  0  0  0  0
   19.1546   -5.6013  -12.1175 C   0  0  0  0  0  0  0  0  0  0  0  0
   20.4391   -5.3188  -12.7794 C   0  0  0  0  0  0  0  0  0  0  0  0
   21.4061   -6.3825  -12.9708 C   0  0  0  0  0  0  0  0  0  0  0  0
   22.5123   -6.2336  -13.4873 O   0  0  0  0  0  0  0  0  0  0  0  0
   18.0209   -3.5024  -12.9536 C   0  0  0  0  0  0  0  0  0  0  0  0
   18.9661   -2.7629  -13.3305 O   0  0  0  0  0  0  0  0  0  0  0  0
   21.0608   -7.6657  -12.5402 O   0  0  0  0  0  0  0  0  0  0  0  0
   16.8002   -3.3182  -13.6213 O   0  0  0  0  0  0  0  0  0  0  0  0
  2  1  1  6
  3  4  1  0
  3  2  1  0
  5  2  1  0
  5  6  2  0
  7  8  1  0
  8 10  1  0
  8  9  2  0
 10 11  1  0
 12 11  1  1
 12 13  1  0
 12 14  1  0
 13  5  1  0
 14 15  2  0
 14 16  1  0
 16 17  1  0
 17 22  1  0
 17 18  1  6
 19 18  1  0
 20 19  1  0
 20 21  2  0
 22 23  2  0
 22 25  1  0
 24 20  1  0
M  END
$$$$
