CQE.pdb
     RDKit          3D

 25 24  0  0  1  0  0  0  0  0999 V2000
   27.3524  -20.9529  -10.7923 N   0  0  0  0  0  0  0  0  0  0  0  0
   25.9276  -20.9805  -10.6804 C   0  0  1  0  0  0  0  0  0  0  0  0
   25.3992  -19.9404   -9.7171 C   0  0  0  0  0  0  0  0  0  0  0  0
   26.0138  -20.3219   -8.0605 S   0  0  0  0  0  0  0  0  0  0  0  0
   25.3347  -20.8148  -12.0297 C   0  0  0  0  0  0  0  0  0  0  0  0
   25.3763  -19.7151  -12.6447 O   0  0  0  0  0  0  0  0  0  0  0  0
   25.6454  -25.3627  -15.8556 N   0  0  0  0  0  0  0  0  0  0  0  0
   24.6435  -24.6648  -16.5753 C   0  0  0  0  0  0  0  0  0  0  0  0
   24.2537  -25.0827  -17.6945 O   0  0  0  0  0  0  0  0  0  0  0  0
   24.0585  -23.4373  -15.9993 C   0  0  0  0  0  0  0  0  0  0  0  0
   24.6038  -23.1123  -14.6642 C   0  0  0  0  0  0  0  0  0  0  0  0
   24.1425  -21.8390  -14.0261 C   0  0  2  0  0  0  0  0  0  0  0  0
   24.7070  -21.8895  -12.6599 N   0  0  0  0  0  0  0  0  0  0  0  0
   22.6739  -21.7297  -13.8774 C   0  0  0  0  0  0  0  0  0  0  0  0
   22.1117  -22.3894  -12.9616 O   0  0  0  0  0  0  0  0  0  0  0  0
   21.8236  -20.9393  -14.6790 N   0  0  0  0  0  0  0  0  0  0  0  0
   20.3727  -20.8552  -14.4439 C   0  0  1  0  0  0  0  0  0  0  0  0
   19.9150  -19.4488  -14.3578 C   0  0  0  0  0  0  0  0  0  0  0  0
   18.4867  -19.1743  -14.1286 C   0  0  0  0  0  0  0  0  0  0  0  0
   18.0019  -17.8075  -14.1265 C   0  0  0  0  0  0  0  0  0  0  0  0
   18.2533  -16.9779  -14.9989 O   0  0  0  0  0  0  0  0  0  0  0  0
   19.6151  -21.7813  -15.2849 C   0  0  0  0  0  0  0  0  0  0  0  0
   20.0366  -22.1343  -16.4163 O   0  0  0  0  0  0  0  0  0  0  0  0
   17.1933  -17.4019  -13.0621 O   0  0  0  0  0  0  0  0  0  0  0  0
   18.3871  -22.3359  -14.8923 O   0  0  0  0  0  0  0  0  0  0  0  0
  2  1  1  6
  3  4  1  0
  3  2  1  0
  5  2  1  0
  5  6  2  0
  7  8  1  0
  8 10  1  0
  8  9  2  0
 10 11  1  0
 12 11  1  6
 12 13  1  0
 12 14  1  0
 13  5  1  0
 14 15  2  0
 14 16  1  0
 16 17  1  0
 17 22  1  0
 17 18  1  6
 19 18  1  0
 20 19  1  0
 20 21  2  0
 22 23  2  0
 22 25  1  0
 24 20  1  0
M  END
$$$$
