CQE.pdb
     RDKit          3D

 25 24  0  0  1  0  0  0  0  0999 V2000
   25.2958  -10.7798  -17.5562 N   0  0  0  0  0  0  0  0  0  0  0  0
   24.8896   -9.7403  -16.6629 C   0  0  1  0  0  0  0  0  0  0  0  0
   25.7634   -8.5096  -16.7662 C   0  0  0  0  0  0  0  0  0  0  0  0
   27.3282   -8.8399  -15.9234 S   0  0  0  0  0  0  0  0  0  0  0  0
   23.4661   -9.4125  -16.9202 C   0  0  0  0  0  0  0  0  0  0  0  0
   22.9671   -9.4745  -18.0761 O   0  0  0  0  0  0  0  0  0  0  0  0
   18.8252  -11.6405  -15.7250 N   0  0  0  0  0  0  0  0  0  0  0  0
   18.1936  -10.4241  -15.3638 C   0  0  0  0  0  0  0  0  0  0  0  0
   16.9417  -10.3200  -15.4000 O   0  0  0  0  0  0  0  0  0  0  0  0
   19.0197   -9.2746  -14.9437 C   0  0  0  0  0  0  0  0  0  0  0  0
   20.4689   -9.5197  -15.1019 C   0  0  0  0  0  0  0  0  0  0  0  0
   21.2183   -8.6225  -16.0373 C   0  0  2  0  0  0  0  0  0  0  0  0
   22.6329   -9.0218  -15.8717 N   0  0  0  0  0  0  0  0  0  0  0  0
   21.1381   -7.1844  -15.6966 C   0  0  0  0  0  0  0  0  0  0  0  0
   22.0886   -6.6658  -15.0503 O   0  0  0  0  0  0  0  0  0  0  0  0
   20.0771   -6.3180  -16.0344 N   0  0  0  0  0  0  0  0  0  0  0  0
   20.1821   -4.8553  -15.9040 C   0  0  1  0  0  0  0  0  0  0  0  0
   21.4807   -4.3546  -16.4118 C   0  0  0  0  0  0  0  0  0  0  0  0
   21.7332   -2.9041  -16.4222 C   0  0  0  0  0  0  0  0  0  0  0  0
   22.9953   -2.3909  -16.9192 C   0  0  0  0  0  0  0  0  0  0  0  0
   23.1271   -1.3222  -17.5135 O   0  0  0  0  0  0  0  0  0  0  0  0
   18.9614   -4.1673  -16.3226 C   0  0  0  0  0  0  0  0  0  0  0  0
   18.3403   -4.5079  -17.3621 O   0  0  0  0  0  0  0  0  0  0  0  0
   24.1421   -3.1605  -16.7104 O   0  0  0  0  0  0  0  0  0  0  0  0
   18.4038   -3.0995  -15.6024 O   0  0  0  0  0  0  0  0  0  0  0  0
  2  1  1  6
  3  4  1  0
  3  2  1  0
  5  2  1  0
  5  6  2  0
  7  8  1  0
  8 10  1  0
  8  9  2  0
 10 11  1  0
 12 11  1  1
 12 13  1  0
 12 14  1  0
 13  5  1  0
 14 15  2  0
 14 16  1  0
 16 17  1  0
 17 22  1  0
 17 18  1  6
 19 18  1  0
 20 19  1  0
 20 21  2  0
 22 23  2  0
 22 25  1  0
 24 20  1  0
M  END
$$$$
