CQE.pdb
     RDKit          3D

 25 24  0  0  1  0  0  0  0  0999 V2000
   17.1090  -11.3712  -14.5159 N   0  0  0  0  0  0  0  0  0  0  0  0
   17.3083   -9.9948  -14.8461 C   0  0  1  0  0  0  0  0  0  0  0  0
   16.6886   -9.0576  -13.8329 C   0  0  0  0  0  0  0  0  0  0  0  0
   17.5006   -9.3123  -12.2380 S   0  0  0  0  0  0  0  0  0  0  0  0
   18.7618   -9.7404  -14.9958 C   0  0  0  0  0  0  0  0  0  0  0  0
   19.6272  -10.5429  -14.5528 O   0  0  0  0  0  0  0  0  0  0  0  0
   22.9218  -10.4324  -14.7637 N   0  0  0  0  0  0  0  0  0  0  0  0
   23.4604  -10.0008  -16.0017 C   0  0  0  0  0  0  0  0  0  0  0  0
   24.7001  -10.0346  -16.2046 O   0  0  0  0  0  0  0  0  0  0  0  0
   22.5514   -9.5083  -17.0561 C   0  0  0  0  0  0  0  0  0  0  0  0
   21.1337   -9.5044  -16.6372 C   0  0  0  0  0  0  0  0  0  0  0  0
   20.6348   -8.2909  -15.9160 C   0  0  2  0  0  0  0  0  0  0  0  0
   19.2123   -8.5884  -15.6409 N   0  0  0  0  0  0  0  0  0  0  0  0
   20.6631   -7.0494  -16.7215 C   0  0  0  0  0  0  0  0  0  0  0  0
   19.6168   -6.7081  -17.3368 O   0  0  0  0  0  0  0  0  0  0  0  0
   21.7730   -6.1910  -16.8690 N   0  0  0  0  0  0  0  0  0  0  0  0
   21.6481   -4.8274  -17.4098 C   0  0  1  0  0  0  0  0  0  0  0  0
   20.6144   -4.0480  -16.6896 C   0  0  0  0  0  0  0  0  0  0  0  0
   20.3864   -2.6430  -17.0662 C   0  0  0  0  0  0  0  0  0  0  0  0
   19.3363   -1.8797  -16.4197 C   0  0  0  0  0  0  0  0  0  0  0  0
   18.3626   -1.4036  -17.0009 O   0  0  0  0  0  0  0  0  0  0  0  0
   22.9470   -4.2004  -17.6515 C   0  0  0  0  0  0  0  0  0  0  0  0
   23.9927   -4.6218  -17.0934 O   0  0  0  0  0  0  0  0  0  0  0  0
   19.4341   -1.6689  -15.0423 O   0  0  0  0  0  0  0  0  0  0  0  0
   23.1156   -3.1055  -18.5132 O   0  0  0  0  0  0  0  0  0  0  0  0
  2  1  1  1
  3  4  1  0
  3  2  1  0
  5  2  1  0
  5  6  2  0
  7  8  1  0
  8 10  1  0
  8  9  2  0
 10 11  1  0
 12 11  1  6
 12 13  1  0
 12 14  1  0
 13  5  1  0
 14 15  2  0
 14 16  1  0
 16 17  1  0
 17 22  1  0
 17 18  1  1
 19 18  1  0
 20 19  1  0
 20 21  2  0
 22 23  2  0
 22 25  1  0
 24 20  1  0
M  END
$$$$
