AWK.pdb
     RDKit          3D

 29 30  0  0  1  0  0  0  0  0999 V2000
   17.9282  -11.1075  -19.1984 C   0  0  0  0  0  0  0  0  0  0  0  0
   19.2530  -11.2658  -18.4697 C   0  0  2  0  0  0  0  0  0  0  0  0
   19.3399  -12.6335  -18.0381 N   0  0  0  0  0  0  0  0  0  0  0  0
   19.2177  -10.3665  -17.3081 C   0  0  0  0  0  0  0  0  0  0  0  0
   18.4834  -10.5521  -16.3058 O   0  0  0  0  0  0  0  0  0  0  0  0
   20.0543   -9.2089  -17.2898 N   0  0  0  0  0  0  0  0  0  0  0  0
   20.0720   -8.2940  -16.1733 C   0  0  1  0  0  0  0  0  0  0  0  0
   21.5034   -7.8840  -15.9103 C   0  0  0  0  0  0  0  0  0  0  0  0
   22.1800   -8.9064  -15.0401 C   0  0  0  0  0  0  0  0  0  0  0  0
   23.1200   -9.8504  -15.3951 C   0  0  0  0  0  0  0  0  0  0  0  0
   23.4755  -10.5765  -14.3138 N   0  0  0  0  0  0  0  0  0  0  0  0
   22.7765  -10.1165  -13.2531 C   0  0  0  0  0  0  0  0  0  0  0  0
   22.7878  -10.5280  -11.9363 C   0  0  0  0  0  0  0  0  0  0  0  0
   21.9503   -9.8557  -11.0608 C   0  0  0  0  0  0  0  0  0  0  0  0
   21.1380   -8.8190  -11.4818 C   0  0  0  0  0  0  0  0  0  0  0  0
   21.1410   -8.4224  -12.8027 C   0  0  0  0  0  0  0  0  0  0  0  0
   21.9682   -9.0797  -13.6895 C   0  0  0  0  0  0  0  0  0  0  0  0
   19.2160   -7.1284  -16.4977 C   0  0  0  0  0  0  0  0  0  0  0  0
   19.3126   -6.5283  -17.6228 O   0  0  0  0  0  0  0  0  0  0  0  0
   18.2490   -6.6140  -15.5905 N   0  0  0  0  0  0  0  0  0  0  0  0
   17.4867   -5.3887  -15.8730 C   0  0  1  0  0  0  0  0  0  0  0  0
   16.0481   -5.5632  -15.5175 C   0  0  0  0  0  0  0  0  0  0  0  0
   15.2025   -4.3576  -15.7901 C   0  0  0  0  0  0  0  0  0  0  0  0
   13.7339   -4.6341  -15.4811 C   0  0  0  0  0  0  0  0  0  0  0  0
   12.8656   -3.4748  -15.9076 C   0  0  0  0  0  0  0  0  0  0  0  0
   11.4558   -3.7807  -15.7974 N   0  0  0  0  0  0  0  0  0  0  0  0
   18.1474   -4.2143  -15.2930 C   0  0  0  0  0  0  0  0  0  0  0  0
   18.6859   -4.1276  -14.1720 O   0  0  0  0  0  0  0  0  0  0  0  0
   18.1919   -3.0427  -16.0678 O   0  0  0  0  0  0  0  0  0  0  0  0
  2  3  1  0
  2  1  1  1
  4  2  1  0
  5  4  2  0
  6  4  1  0
  7  6  1  0
  7  8  1  6
  9  8  1  0
 10  9  2  0
 11 10  1  0
 12 11  1  0
 12 17  2  0
 13 12  1  0
 14 13  2  0
 14 15  1  0
 15 16  2  0
 16 17  1  0
 17  9  1  0
 18  7  1  0
 18 19  2  0
 20 18  1  0
 21 20  1  0
 22 23  1  0
 21 22  1  1
 24 25  1  0
 24 23  1  0
 25 26  1  0
 27 29  1  0
 27 21  1  0
 28 27  2  0
M  END
$$$$
