AWK.pdb
     RDKit          3D

 29 30  0  0  1  0  0  0  0  0999 V2000
   27.5946  -20.4185  -17.1999 C   0  0  0  0  0  0  0  0  0  0  0  0
   28.3705  -21.2739  -16.2114 C   0  0  2  0  0  0  0  0  0  0  0  0
   28.6731  -22.5149  -16.8692 N   0  0  0  0  0  0  0  0  0  0  0  0
   27.4894  -21.5100  -15.0592 C   0  0  0  0  0  0  0  0  0  0  0  0
   26.5736  -22.3699  -15.0475 O   0  0  0  0  0  0  0  0  0  0  0  0
   27.6608  -20.7335  -13.8727 N   0  0  0  0  0  0  0  0  0  0  0  0
   26.9731  -21.0504  -12.6437 C   0  0  1  0  0  0  0  0  0  0  0  0
   27.6569  -20.3224  -11.5086 C   0  0  0  0  0  0  0  0  0  0  0  0
   26.8446  -20.4526  -10.2502 C   0  0  0  0  0  0  0  0  0  0  0  0
   25.5296  -20.8429  -10.1125 C   0  0  0  0  0  0  0  0  0  0  0  0
   25.1782  -20.8281   -8.8090 N   0  0  0  0  0  0  0  0  0  0  0  0
   26.2517  -20.4313   -8.0911 C   0  0  0  0  0  0  0  0  0  0  0  0
   26.3954  -20.2600   -6.7297 C   0  0  0  0  0  0  0  0  0  0  0  0
   27.6351  -19.8380   -6.2769 C   0  0  0  0  0  0  0  0  0  0  0  0
   28.6841  -19.5978   -7.1452 C   0  0  0  0  0  0  0  0  0  0  0  0
   28.5205  -19.7749   -8.5032 C   0  0  0  0  0  0  0  0  0  0  0  0
   27.2934  -20.1947   -8.9730 C   0  0  0  0  0  0  0  0  0  0  0  0
   25.5515  -20.6526  -12.7759 C   0  0  0  0  0  0  0  0  0  0  0  0
   25.2254  -19.4900  -13.1972 O   0  0  0  0  0  0  0  0  0  0  0  0
   24.4791  -21.5271  -12.4471 N   0  0  0  0  0  0  0  0  0  0  0  0
   23.1030  -21.2816  -12.9031 C   0  0  1  0  0  0  0  0  0  0  0  0
   22.4356  -22.5582  -13.2922 C   0  0  0  0  0  0  0  0  0  0  0  0
   21.0236  -22.3892  -13.7618 C   0  0  0  0  0  0  0  0  0  0  0  0
   20.4680  -23.6973  -14.3174 C   0  0  0  0  0  0  0  0  0  0  0  0
   19.0495  -23.5177  -14.8025 C   0  0  0  0  0  0  0  0  0  0  0  0
   18.9920  -23.2036  -16.2136 N   0  0  0  0  0  0  0  0  0  0  0  0
   22.3722  -20.4492  -11.9412 C   0  0  0  0  0  0  0  0  0  0  0  0
   22.3037  -20.6055  -10.7063 O   0  0  0  0  0  0  0  0  0  0  0  0
   21.6615  -19.3453  -12.4426 O   0  0  0  0  0  0  0  0  0  0  0  0
  2  3  1  0
  2  1  1  6
  4  2  1  0
  5  4  2  0
  6  4  1  0
  7  6  1  0
  7  8  1  1
  9  8  1  0
 10  9  2  0
 11 10  1  0
 12 11  1  0
 12 17  2  0
 13 12  1  0
 14 13  2  0
 14 15  1  0
 15 16  2  0
 16 17  1  0
 17  9  1  0
 18  7  1  0
 18 19  2  0
 20 18  1  0
 21 20  1  0
 22 23  1  0
 21 22  1  1
 24 25  1  0
 24 23  1  0
 25 26  1  0
 27 29  1  0
 27 21  1  0
 28 27  2  0
M  END
$$$$
