AWK.pdb
     RDKit          3D

 29 30  0  0  1  0  0  0  0  0999 V2000
   27.5075  -20.6360  -19.1135 C   0  0  0  0  0  0  0  0  0  0  0  0
   28.6280  -20.4999  -18.0952 C   0  0  2  0  0  0  0  0  0  0  0  0
   29.7261  -21.3004  -18.5619 N   0  0  0  0  0  0  0  0  0  0  0  0
   28.1201  -21.0258  -16.8205 C   0  0  0  0  0  0  0  0  0  0  0  0
   28.1076  -22.2472  -16.5266 O   0  0  0  0  0  0  0  0  0  0  0  0
   27.6061  -20.1213  -15.8418 N   0  0  0  0  0  0  0  0  0  0  0  0
   27.2017  -20.5625  -14.5282 C   0  0  1  0  0  0  0  0  0  0  0  0
   27.4335  -19.4338  -13.5493 C   0  0  0  0  0  0  0  0  0  0  0  0
   27.0901  -19.8822  -12.1560 C   0  0  0  0  0  0  0  0  0  0  0  0
   25.8731  -19.8269  -11.5107 C   0  0  0  0  0  0  0  0  0  0  0  0
   25.9883  -20.3336  -10.2646 N   0  0  0  0  0  0  0  0  0  0  0  0
   27.2706  -20.7205  -10.0877 C   0  0  0  0  0  0  0  0  0  0  0  0
   27.8819  -21.2939   -8.9916 C   0  0  0  0  0  0  0  0  0  0  0  0
   29.2313  -21.5864   -9.1064 C   0  0  0  0  0  0  0  0  0  0  0  0
   29.9385  -21.3182  -10.2640 C   0  0  0  0  0  0  0  0  0  0  0  0
   29.3093  -20.7446  -11.3490 C   0  0  0  0  0  0  0  0  0  0  0  0
   27.9660  -20.4461  -11.2538 C   0  0  0  0  0  0  0  0  0  0  0  0
   25.7760  -20.9645  -14.5776 C   0  0  0  0  0  0  0  0  0  0  0  0
   24.9076  -20.2521  -15.1891 O   0  0  0  0  0  0  0  0  0  0  0  0
   25.2939  -22.1500  -13.9570 N   0  0  0  0  0  0  0  0  0  0  0  0
   23.8947  -22.5840  -14.0824 C   0  0  1  0  0  0  0  0  0  0  0  0
   23.8132  -24.0539  -14.3257 C   0  0  0  0  0  0  0  0  0  0  0  0
   24.4635  -24.4977  -15.5997 C   0  0  0  0  0  0  0  0  0  0  0  0
   24.2696  -25.9944  -15.8244 C   0  0  0  0  0  0  0  0  0  0  0  0
   25.0010  -26.4530  -17.0631 C   0  0  0  0  0  0  0  0  0  0  0  0
   24.8394  -27.8716  -17.2973 N   0  0  0  0  0  0  0  0  0  0  0  0
   23.0865  -22.0780  -12.9676 C   0  0  0  0  0  0  0  0  0  0  0  0
   23.4952  -21.5152  -11.9330 O   0  0  0  0  0  0  0  0  0  0  0  0
   21.6921  -22.2326  -13.0508 O   0  0  0  0  0  0  0  0  0  0  0  0
  2  3  1  0
  2  1  1  6
  4  2  1  0
  5  4  2  0
  6  4  1  0
  7  6  1  0
  7  8  1  1
  9  8  1  0
 10  9  2  0
 11 10  1  0
 12 11  1  0
 12 17  2  0
 13 12  1  0
 14 13  2  0
 14 15  1  0
 15 16  2  0
 16 17  1  0
 17  9  1  0
 18  7  1  0
 18 19  2  0
 20 18  1  0
 21 20  1  0
 22 23  1  0
 21 22  1  1
 24 25  1  0
 24 23  1  0
 25 26  1  0
 27 29  1  0
 27 21  1  0
 28 27  2  0
M  END
$$$$
