AWK.pdb
     RDKit          3D

 29 30  0  0  1  0  0  0  0  0999 V2000
   27.9292  -19.8238  -16.2260 C   0  0  0  0  0  0  0  0  0  0  0  0
   28.5771  -20.9679  -15.4629 C   0  0  2  0  0  0  0  0  0  0  0  0
   28.6210  -22.0984  -16.3485 N   0  0  0  0  0  0  0  0  0  0  0  0
   27.7168  -21.2591  -14.3077 C   0  0  0  0  0  0  0  0  0  0  0  0
   26.6104  -21.8478  -14.3942 O   0  0  0  0  0  0  0  0  0  0  0  0
   28.1365  -20.8626  -13.0012 N   0  0  0  0  0  0  0  0  0  0  0  0
   27.3459  -21.1396  -11.8256 C   0  0  1  0  0  0  0  0  0  0  0  0
   28.1601  -20.7810  -10.6031 C   0  0  0  0  0  0  0  0  0  0  0  0
   27.2734  -20.7329   -9.3900 C   0  0  0  0  0  0  0  0  0  0  0  0
   25.9351  -21.0489   -9.2905 C   0  0  0  0  0  0  0  0  0  0  0  0
   25.5126  -20.8714   -8.0206 N   0  0  0  0  0  0  0  0  0  0  0  0
   26.5625  -20.4417   -7.2869 C   0  0  0  0  0  0  0  0  0  0  0  0
   26.6380  -20.1232   -5.9465 C   0  0  0  0  0  0  0  0  0  0  0  0
   27.8697  -19.7056   -5.4685 C   0  0  0  0  0  0  0  0  0  0  0  0
   28.9761  -19.6102   -6.2924 C   0  0  0  0  0  0  0  0  0  0  0  0
   28.8801  -19.9331   -7.6298 C   0  0  0  0  0  0  0  0  0  0  0  0
   27.6621  -20.3511   -8.1242 C   0  0  0  0  0  0  0  0  0  0  0  0
   26.0897  -20.3565  -11.8997 C   0  0  0  0  0  0  0  0  0  0  0  0
   26.0977  -19.0811  -11.8065 O   0  0  0  0  0  0  0  0  0  0  0  0
   24.8175  -20.9672  -12.0767 N   0  0  0  0  0  0  0  0  0  0  0  0
   23.5919  -20.1778  -12.2687 C   0  0  1  0  0  0  0  0  0  0  0  0
   23.3202  -19.9615  -13.7199 C   0  0  0  0  0  0  0  0  0  0  0  0
   22.1130  -19.1190  -13.9949 C   0  0  0  0  0  0  0  0  0  0  0  0
   21.8083  -19.0649  -15.4891 C   0  0  0  0  0  0  0  0  0  0  0  0
   20.7239  -18.0559  -15.7821 C   0  0  0  0  0  0  0  0  0  0  0  0
   20.4657  -17.9301  -17.2001 N   0  0  0  0  0  0  0  0  0  0  0  0
   22.4810  -20.7357  -11.4898 C   0  0  0  0  0  0  0  0  0  0  0  0
   22.2265  -21.9401  -11.2932 O   0  0  0  0  0  0  0  0  0  0  0  0
   21.5892  -19.8320  -10.8871 O   0  0  0  0  0  0  0  0  0  0  0  0
  2  3  1  0
  2  1  1  6
  4  2  1  0
  5  4  2  0
  6  4  1  0
  7  6  1  0
  7  8  1  1
  9  8  1  0
 10  9  2  0
 11 10  1  0
 12 11  1  0
 12 17  2  0
 13 12  1  0
 14 13  2  0
 14 15  1  0
 15 16  2  0
 16 17  1  0
 17  9  1  0
 18  7  1  0
 18 19  2  0
 20 18  1  0
 21 20  1  0
 22 23  1  0
 21 22  1  6
 24 25  1  0
 24 23  1  0
 25 26  1  0
 27 29  1  0
 27 21  1  0
 28 27  2  0
M  END
$$$$
