AWK.pdb
     RDKit          3D

 29 30  0  0  1  0  0  0  0  0999 V2000
   27.8462  -19.9967  -15.4886 C   0  0  0  0  0  0  0  0  0  0  0  0
   28.6207  -20.9927  -14.6405 C   0  0  2  0  0  0  0  0  0  0  0  0
   28.8041  -22.1755  -15.4353 N   0  0  0  0  0  0  0  0  0  0  0  0
   27.7939  -21.2933  -13.4634 C   0  0  0  0  0  0  0  0  0  0  0  0
   26.8170  -22.0829  -13.4819 O   0  0  0  0  0  0  0  0  0  0  0  0
   28.0946  -20.6677  -12.2151 N   0  0  0  0  0  0  0  0  0  0  0  0
   27.3557  -20.9656  -11.0112 C   0  0  1  0  0  0  0  0  0  0  0  0
   28.1249  -20.4227   -9.8282 C   0  0  0  0  0  0  0  0  0  0  0  0
   27.3047  -20.5571   -8.5754 C   0  0  0  0  0  0  0  0  0  0  0  0
   26.0250  -21.0502   -8.4347 C   0  0  0  0  0  0  0  0  0  0  0  0
   25.6510  -20.9989   -7.1384 N   0  0  0  0  0  0  0  0  0  0  0  0
   26.6747  -20.4763   -6.4284 C   0  0  0  0  0  0  0  0  0  0  0  0
   26.7797  -20.2242   -5.0759 C   0  0  0  0  0  0  0  0  0  0  0  0
   27.9714  -19.6759   -4.6298 C   0  0  0  0  0  0  0  0  0  0  0  0
   29.0114  -19.3920   -5.4956 C   0  0  0  0  0  0  0  0  0  0  0  0
   28.8869  -19.6513   -6.8445 C   0  0  0  0  0  0  0  0  0  0  0  0
   27.7079  -20.1973   -7.3077 C   0  0  0  0  0  0  0  0  0  0  0  0
   26.0073  -20.3596  -11.1165 C   0  0  0  0  0  0  0  0  0  0  0  0
   25.8539  -19.0914  -11.1768 O   0  0  0  0  0  0  0  0  0  0  0  0
   24.8192  -21.1404  -11.1563 N   0  0  0  0  0  0  0  0  0  0  0  0
   23.5064  -20.5505  -11.4577 C   0  0  1  0  0  0  0  0  0  0  0  0
   22.8934  -21.1993  -12.6534 C   0  0  0  0  0  0  0  0  0  0  0  0
   22.6573  -20.2650  -13.7998 C   0  0  0  0  0  0  0  0  0  0  0  0
   23.8066  -20.3220  -14.8020 C   0  0  0  0  0  0  0  0  0  0  0  0
   23.5684  -19.3709  -15.9502 C   0  0  0  0  0  0  0  0  0  0  0  0
   24.7155  -19.2772  -16.8269 N   0  0  0  0  0  0  0  0  0  0  0  0
   22.6642  -20.5038  -10.2574 C   0  0  0  0  0  0  0  0  0  0  0  0
   22.7725  -21.2033   -9.2313 O   0  0  0  0  0  0  0  0  0  0  0  0
   21.6100  -19.5746  -10.2369 O   0  0  0  0  0  0  0  0  0  0  0  0
  2  3  1  0
  2  1  1  6
  4  2  1  0
  5  4  2  0
  6  4  1  0
  7  6  1  0
  7  8  1  1
  9  8  1  0
 10  9  2  0
 11 10  1  0
 12 11  1  0
 12 17  2  0
 13 12  1  0
 14 13  2  0
 14 15  1  0
 15 16  2  0
 16 17  1  0
 17  9  1  0
 18  7  1  0
 18 19  2  0
 20 18  1  0
 21 20  1  0
 22 23  1  0
 21 22  1  6
 24 25  1  0
 24 23  1  0
 25 26  1  0
 27 29  1  0
 27 21  1  0
 28 27  2  0
M  END
$$$$
