AWK.pdb
     RDKit          3D

 29 30  0  0  1  0  0  0  0  0999 V2000
    9.9611  -20.9573   -5.2733 C   0  0  0  0  0  0  0  0  0  0  0  0
   11.3529  -21.5534   -5.4102 C   0  0  2  0  0  0  0  0  0  0  0  0
   11.2852  -22.5607   -6.4325 N   0  0  0  0  0  0  0  0  0  0  0  0
   11.6915  -22.1628   -4.1166 C   0  0  0  0  0  0  0  0  0  0  0  0
   10.9739  -23.0182   -3.5407 O   0  0  0  0  0  0  0  0  0  0  0  0
   12.8976  -21.7805   -3.4538 N   0  0  0  0  0  0  0  0  0  0  0  0
   13.3317  -22.4102   -2.2295 C   0  0  1  0  0  0  0  0  0  0  0  0
   14.8262  -22.2235   -2.0964 C   0  0  0  0  0  0  0  0  0  0  0  0
   15.3566  -23.0906   -0.9887 C   0  0  0  0  0  0  0  0  0  0  0  0
   15.5804  -24.4510   -0.9942 C   0  0  0  0  0  0  0  0  0  0  0  0
   16.0642  -24.8436    0.2035 N   0  0  0  0  0  0  0  0  0  0  0  0
   16.1594  -23.7521    0.9941 C   0  0  0  0  0  0  0  0  0  0  0  0
   16.5963  -23.6353    2.2976 C   0  0  0  0  0  0  0  0  0  0  0  0
   16.5810  -22.3664    2.8539 C   0  0  0  0  0  0  0  0  0  0  0  0
   16.1485  -21.2638    2.1403 C   0  0  0  0  0  0  0  0  0  0  0  0
   15.7154  -21.4013    0.8381 C   0  0  0  0  0  0  0  0  0  0  0  0
   15.7234  -22.6568    0.2669 C   0  0  0  0  0  0  0  0  0  0  0  0
   12.5975  -21.8030   -1.0941 C   0  0  0  0  0  0  0  0  0  0  0  0
   12.4844  -20.5342   -0.9810 O   0  0  0  0  0  0  0  0  0  0  0  0
   11.9831  -22.5834   -0.0761 N   0  0  0  0  0  0  0  0  0  0  0  0
   11.2710  -21.9708    1.0551 C   0  0  1  0  0  0  0  0  0  0  0  0
   10.2083  -22.8822    1.5714 C   0  0  0  0  0  0  0  0  0  0  0  0
    9.3774  -22.2900    2.6676 C   0  0  0  0  0  0  0  0  0  0  0  0
    8.2862  -23.2581    3.1154 C   0  0  0  0  0  0  0  0  0  0  0  0
    7.4508  -22.6558    4.2196 C   0  0  0  0  0  0  0  0  0  0  0  0
    6.4878  -23.5968    4.7492 N   0  0  0  0  0  0  0  0  0  0  0  0
   12.2153  -21.4631    2.0565 C   0  0  0  0  0  0  0  0  0  0  0  0
   13.2648  -22.0088    2.4497 O   0  0  0  0  0  0  0  0  0  0  0  0
   11.9274  -20.2243    2.6546 O   0  0  0  0  0  0  0  0  0  0  0  0
  2  3  1  0
  2  1  1  1
  4  2  1  0
  5  4  2  0
  6  4  1  0
  7  6  1  0
  7  8  1  1
  9  8  1  0
 10  9  2  0
 11 10  1  0
 12 11  1  0
 12 17  2  0
 13 12  1  0
 14 13  2  0
 14 15  1  0
 15 16  2  0
 16 17  1  0
 17  9  1  0
 18  7  1  0
 18 19  2  0
 20 18  1  0
 21 20  1  0
 22 23  1  0
 21 22  1  1
 24 25  1  0
 24 23  1  0
 25 26  1  0
 27 29  1  0
 27 21  1  0
 28 27  2  0
M  END
$$$$
