AWK.pdb
     RDKit          3D

 29 30  0  0  1  0  0  0  0  0999 V2000
   27.9240  -19.4860  -14.8746 C   0  0  0  0  0  0  0  0  0  0  0  0
   28.4563  -20.7908  -14.3043 C   0  0  2  0  0  0  0  0  0  0  0  0
   28.3197  -21.7892  -15.3284 N   0  0  0  0  0  0  0  0  0  0  0  0
   27.6175  -21.1307  -13.1466 C   0  0  0  0  0  0  0  0  0  0  0  0
   26.5181  -21.7319  -13.2357 O   0  0  0  0  0  0  0  0  0  0  0  0
   28.0513  -20.7700  -11.8344 N   0  0  0  0  0  0  0  0  0  0  0  0
   27.2736  -21.0797  -10.6583 C   0  0  1  0  0  0  0  0  0  0  0  0
   28.1051  -20.7647   -9.4354 C   0  0  0  0  0  0  0  0  0  0  0  0
   27.2315  -20.7372   -8.2121 C   0  0  0  0  0  0  0  0  0  0  0  0
   25.9395  -21.1962   -8.0681 C   0  0  0  0  0  0  0  0  0  0  0  0
   25.5127  -20.9839   -6.8049 N   0  0  0  0  0  0  0  0  0  0  0  0
   26.5140  -20.3894   -6.1198 C   0  0  0  0  0  0  0  0  0  0  0  0
   26.5666  -19.9759   -4.8046 C   0  0  0  0  0  0  0  0  0  0  0  0
   27.7471  -19.3898   -4.3770 C   0  0  0  0  0  0  0  0  0  0  0  0
   28.8265  -19.2241   -5.2252 C   0  0  0  0  0  0  0  0  0  0  0  0
   28.7542  -19.6442   -6.5369 C   0  0  0  0  0  0  0  0  0  0  0  0
   27.5871  -20.2302   -6.9810 C   0  0  0  0  0  0  0  0  0  0  0  0
   26.0214  -20.2875  -10.6918 C   0  0  0  0  0  0  0  0  0  0  0  0
   26.0461  -19.0139  -10.8046 O   0  0  0  0  0  0  0  0  0  0  0  0
   24.7348  -20.8870  -10.6020 N   0  0  0  0  0  0  0  0  0  0  0  0
   23.5395  -20.2630  -11.1883 C   0  0  1  0  0  0  0  0  0  0  0  0
   23.6718  -20.1481  -12.6701 C   0  0  0  0  0  0  0  0  0  0  0  0
   22.5418  -19.4179  -13.3280 C   0  0  0  0  0  0  0  0  0  0  0  0
   22.7305  -19.3604  -14.8412 C   0  0  0  0  0  0  0  0  0  0  0  0
   22.2038  -18.0609  -15.4013 C   0  0  0  0  0  0  0  0  0  0  0  0
   22.4903  -17.9202  -16.8125 N   0  0  0  0  0  0  0  0  0  0  0  0
   22.3172  -20.9165  -10.7076 C   0  0  0  0  0  0  0  0  0  0  0  0
   22.0858  -22.1403  -10.6551 O   0  0  0  0  0  0  0  0  0  0  0  0
   21.2749  -20.0926  -10.2492 O   0  0  0  0  0  0  0  0  0  0  0  0
  2  3  1  0
  2  1  1  6
  4  2  1  0
  5  4  2  0
  6  4  1  0
  7  6  1  0
  7  8  1  1
  9  8  1  0
 10  9  2  0
 11 10  1  0
 12 11  1  0
 12 17  2  0
 13 12  1  0
 14 13  2  0
 14 15  1  0
 15 16  2  0
 16 17  1  0
 17  9  1  0
 18  7  1  0
 18 19  2  0
 20 18  1  0
 21 20  1  0
 22 23  1  0
 21 22  1  6
 24 25  1  0
 24 23  1  0
 25 26  1  0
 27 29  1  0
 27 21  1  0
 28 27  2  0
M  END
$$$$
