AWK.pdb
     RDKit          3D

 29 30  0  0  1  0  0  0  0  0999 V2000
   26.9453  -19.9755  -15.3703 C   0  0  0  0  0  0  0  0  0  0  0  0
   27.8957  -20.6877  -14.4213 C   0  0  2  0  0  0  0  0  0  0  0  0
   28.3407  -21.8829  -15.0831 N   0  0  0  0  0  0  0  0  0  0  0  0
   27.1279  -21.0289  -13.2157 C   0  0  0  0  0  0  0  0  0  0  0  0
   26.3233  -21.9915  -13.1518 O   0  0  0  0  0  0  0  0  0  0  0  0
   27.2849  -20.2396  -12.0357 N   0  0  0  0  0  0  0  0  0  0  0  0
   26.6235  -20.5738  -10.7968 C   0  0  1  0  0  0  0  0  0  0  0  0
   27.3292  -19.8587   -9.6669 C   0  0  0  0  0  0  0  0  0  0  0  0
   26.7898  -20.3279   -8.3444 C   0  0  0  0  0  0  0  0  0  0  0  0
   25.6855  -21.1154   -8.0970 C   0  0  0  0  0  0  0  0  0  0  0  0
   25.5447  -21.3080   -6.7682 N   0  0  0  0  0  0  0  0  0  0  0  0
   26.5473  -20.6534   -6.1424 C   0  0  0  0  0  0  0  0  0  0  0  0
   26.8358  -20.5487   -4.7972 C   0  0  0  0  0  0  0  0  0  0  0  0
   27.9479  -19.7988   -4.4498 C   0  0  0  0  0  0  0  0  0  0  0  0
   28.7364  -19.1812   -5.4031 C   0  0  0  0  0  0  0  0  0  0  0  0
   28.4313  -19.2979   -6.7431 C   0  0  0  0  0  0  0  0  0  0  0  0
   27.3279  -20.0405   -7.1087 C   0  0  0  0  0  0  0  0  0  0  0  0
   25.1986  -20.1777  -10.8946 C   0  0  0  0  0  0  0  0  0  0  0  0
   24.8628  -18.9821  -11.1996 O   0  0  0  0  0  0  0  0  0  0  0  0
   24.1336  -21.0903  -10.6585 N   0  0  0  0  0  0  0  0  0  0  0  0
   22.7449  -20.7839  -11.0325 C   0  0  1  0  0  0  0  0  0  0  0  0
   22.2511  -21.7353  -12.0705 C   0  0  0  0  0  0  0  0  0  0  0  0
   22.5673  -21.3226  -13.4750 C   0  0  0  0  0  0  0  0  0  0  0  0
   23.1081  -22.4970  -14.2853 C   0  0  0  0  0  0  0  0  0  0  0  0
   23.4430  -22.0711  -15.6947 C   0  0  0  0  0  0  0  0  0  0  0  0
   22.3310  -21.4101  -16.3427 N   0  0  0  0  0  0  0  0  0  0  0  0
   21.8991  -20.6464   -9.8418 C   0  0  0  0  0  0  0  0  0  0  0  0
   21.9444  -21.3299   -8.8002 O   0  0  0  0  0  0  0  0  0  0  0  0
   20.9199  -19.6382   -9.8509 O   0  0  0  0  0  0  0  0  0  0  0  0
  2  3  1  0
  2  1  1  6
  4  2  1  0
  5  4  2  0
  6  4  1  0
  7  6  1  0
  7  8  1  1
  9  8  1  0
 10  9  2  0
 11 10  1  0
 12 11  1  0
 12 17  2  0
 13 12  1  0
 14 13  2  0
 14 15  1  0
 15 16  2  0
 16 17  1  0
 17  9  1  0
 18  7  1  0
 18 19  2  0
 20 18  1  0
 21 20  1  0
 22 23  1  0
 21 22  1  6
 24 25  1  0
 24 23  1  0
 25 26  1  0
 27 29  1  0
 27 21  1  0
 28 27  2  0
M  END
$$$$
