AWK.pdb
     RDKit          3D

 29 30  0  0  1  0  0  0  0  0999 V2000
   14.2938  -19.9266    5.1260 C   0  0  0  0  0  0  0  0  0  0  0  0
   15.2854  -19.4065    4.0978 C   0  0  2  0  0  0  0  0  0  0  0  0
   15.6057  -20.5014    3.2244 N   0  0  0  0  0  0  0  0  0  0  0  0
   16.4825  -18.9737    4.8320 C   0  0  0  0  0  0  0  0  0  0  0  0
   17.3869  -19.7577    5.2133 O   0  0  0  0  0  0  0  0  0  0  0  0
   16.6541  -17.5902    5.1432 N   0  0  0  0  0  0  0  0  0  0  0  0
   17.8122  -17.1028    5.8539 C   0  0  1  0  0  0  0  0  0  0  0  0
   18.1254  -15.7074    5.3633 C   0  0  0  0  0  0  0  0  0  0  0  0
   19.3657  -15.1908    6.0380 C   0  0  0  0  0  0  0  0  0  0  0  0
   20.3332  -15.8998    6.7176 C   0  0  0  0  0  0  0  0  0  0  0  0
   21.2860  -15.0591    7.1738 N   0  0  0  0  0  0  0  0  0  0  0  0
   20.9511  -13.8050    6.7991 C   0  0  0  0  0  0  0  0  0  0  0  0
   21.6003  -12.6083    7.0228 C   0  0  0  0  0  0  0  0  0  0  0  0
   21.0080  -11.4664    6.5080 C   0  0  0  0  0  0  0  0  0  0  0  0
   19.8204  -11.5176    5.8015 C   0  0  0  0  0  0  0  0  0  0  0  0
   19.1867  -12.7239    5.5884 C   0  0  0  0  0  0  0  0  0  0  0  0
   19.7612  -13.8719    6.0933 C   0  0  0  0  0  0  0  0  0  0  0  0
   17.5239  -17.1238    7.3076 C   0  0  0  0  0  0  0  0  0  0  0  0
   16.3836  -16.7652    7.7620 O   0  0  0  0  0  0  0  0  0  0  0  0
   18.4841  -17.5381    8.2715 N   0  0  0  0  0  0  0  0  0  0  0  0
   18.1976  -17.5287    9.7137 C   0  0  1  0  0  0  0  0  0  0  0  0
   18.6019  -18.8189   10.3449 C   0  0  0  0  0  0  0  0  0  0  0  0
   17.4533  -19.6370   10.8491 C   0  0  0  0  0  0  0  0  0  0  0  0
   17.9435  -20.8973   11.5561 C   0  0  0  0  0  0  0  0  0  0  0  0
   16.7823  -21.7102   12.0761 C   0  0  0  0  0  0  0  0  0  0  0  0
   17.2188  -22.9090   12.7585 N   0  0  0  0  0  0  0  0  0  0  0  0
   18.7294  -16.3167   10.3464 C   0  0  0  0  0  0  0  0  0  0  0  0
   19.5973  -15.5461    9.8915 O   0  0  0  0  0  0  0  0  0  0  0  0
   18.2198  -15.9626   11.6074 O   0  0  0  0  0  0  0  0  0  0  0  0
  2  3  1  0
  2  1  1  1
  4  2  1  0
  5  4  2  0
  6  4  1  0
  7  6  1  0
  7  8  1  6
  9  8  1  0
 10  9  2  0
 11 10  1  0
 12 11  1  0
 12 17  2  0
 13 12  1  0
 14 13  2  0
 14 15  1  0
 15 16  2  0
 16 17  1  0
 17  9  1  0
 18  7  1  0
 18 19  2  0
 20 18  1  0
 21 20  1  0
 22 23  1  0
 21 22  1  1
 24 25  1  0
 24 23  1  0
 25 26  1  0
 27 29  1  0
 27 21  1  0
 28 27  2  0
M  END
$$$$
