EWQ.pdb
     RDKit          3D

 33 34  0  0  1  0  0  0  0  0999 V2000
   28.2735  -21.4286  -15.0945 N   0  0  0  0  0  0  0  0  0  0  0  0
   27.7225  -20.3522  -14.2777 C   0  0  1  0  0  0  0  0  0  0  0  0
   27.2355  -19.2245  -15.1203 C   0  0  0  0  0  0  0  0  0  0  0  0
   28.2313  -18.6426  -16.0658 C   0  0  0  0  0  0  0  0  0  0  0  0
   27.5812  -18.6065  -17.4158 C   0  0  0  0  0  0  0  0  0  0  0  0
   26.4256  -19.0540  -17.5254 O   0  0  0  0  0  0  0  0  0  0  0  0
   26.7236  -20.9357  -13.3761 C   0  0  0  0  0  0  0  0  0  0  0  0
   25.9975  -21.9144  -13.7241 O   0  0  0  0  0  0  0  0  0  0  0  0
   28.2025  -18.1037  -18.5296 O   0  0  0  0  0  0  0  0  0  0  0  0
   26.4887  -20.4569  -12.0490 N   0  0  0  0  0  0  0  0  0  0  0  0
   25.3708  -20.8746  -11.2400 C   0  0  1  0  0  0  0  0  0  0  0  0
   25.6538  -20.3804   -9.8198 C   0  0  0  0  0  0  0  0  0  0  0  0
   27.0332  -20.7485   -9.4031 C   0  0  0  0  0  0  0  0  0  0  0  0
   27.9748  -21.4664  -10.1199 C   0  0  0  0  0  0  0  0  0  0  0  0
   29.1045  -21.5867   -9.3844 N   0  0  0  0  0  0  0  0  0  0  0  0
   28.9382  -20.9684   -8.2001 C   0  0  0  0  0  0  0  0  0  0  0  0
   29.7864  -20.8148   -7.1228 C   0  0  0  0  0  0  0  0  0  0  0  0
   29.3044  -20.1150   -6.0412 C   0  0  0  0  0  0  0  0  0  0  0  0
   28.0166  -19.5835   -6.0312 C   0  0  0  0  0  0  0  0  0  0  0  0
   27.1890  -19.7480   -7.1137 C   0  0  0  0  0  0  0  0  0  0  0  0
   27.6481  -20.4432   -8.2052 C   0  0  0  0  0  0  0  0  0  0  0  0
   24.1040  -20.2676  -11.7323 C   0  0  0  0  0  0  0  0  0  0  0  0
   24.1560  -19.2528  -12.4727 O   0  0  0  0  0  0  0  0  0  0  0  0
   22.1196  -24.1645  -14.6040 N   0  0  0  0  0  0  0  0  0  0  0  0
   21.1221  -23.2732  -15.0883 C   0  0  0  0  0  0  0  0  0  0  0  0
   20.3046  -23.6955  -15.9293 O   0  0  0  0  0  0  0  0  0  0  0  0
   21.1474  -21.8971  -14.5373 C   0  0  0  0  0  0  0  0  0  0  0  0
   22.1749  -21.6761  -13.4821 C   0  0  0  0  0  0  0  0  0  0  0  0
   21.7393  -20.7794  -12.3502 C   0  0  2  0  0  0  0  0  0  0  0  0
   22.8516  -20.8037  -11.3878 N   0  0  0  0  0  0  0  0  0  0  0  0
   20.5369  -21.2826  -11.6494 C   0  0  0  0  0  0  0  0  0  0  0  0
   19.3987  -20.8629  -11.9527 O   0  0  0  0  0  0  0  0  0  0  0  0
   20.6426  -22.2263  -10.6450 O   0  0  0  0  0  0  0  0  0  0  0  0
  2  1  1  6
  2  3  1  0
  3  4  1  0
  4  5  1  0
  5  6  2  0
  7  8  2  0
  7  2  1  0
  9  5  1  0
 10  7  1  0
 11 10  1  0
 11 12  1  1
 12 13  1  0
 13 14  2  0
 13 21  1  0
 14 15  1  0
 15 16  1  0
 16 17  2  0
 18 17  1  0
 19 18  2  0
 20 21  2  0
 20 19  1  0
 21 16  1  0
 22 11  1  0
 23 22  2  0
 24 25  1  0
 25 26  2  0
 25 27  1  0
 27 28  1  0
 29 28  1  6
 29 30  1  0
 30 22  1  0
 31 33  1  0
 31 29  1  0
 32 31  2  0
M  END
$$$$
