EWQ.pdb
     RDKit          3D

 33 34  0  0  1  0  0  0  0  0999 V2000
   26.1776  -25.3340  -15.9099 N   0  0  0  0  0  0  0  0  0  0  0  0
   26.0197  -23.8849  -15.9795 C   0  0  1  0  0  0  0  0  0  0  0  0
   25.1786  -23.4845  -17.1419 C   0  0  0  0  0  0  0  0  0  0  0  0
   23.8516  -24.1570  -17.2460 C   0  0  0  0  0  0  0  0  0  0  0  0
   22.8187  -23.1474  -16.8458 C   0  0  0  0  0  0  0  0  0  0  0  0
   21.8645  -23.5272  -16.1438 O   0  0  0  0  0  0  0  0  0  0  0  0
   25.5426  -23.4196  -14.6729 C   0  0  0  0  0  0  0  0  0  0  0  0
   25.1041  -24.2219  -13.7952 O   0  0  0  0  0  0  0  0  0  0  0  0
   22.8801  -21.8295  -17.2185 O   0  0  0  0  0  0  0  0  0  0  0  0
   25.5326  -22.0429  -14.2853 N   0  0  0  0  0  0  0  0  0  0  0  0
   25.1189  -21.5877  -12.9814 C   0  0  1  0  0  0  0  0  0  0  0  0
   25.8962  -20.2992  -12.7043 C   0  0  0  0  0  0  0  0  0  0  0  0
   27.0649  -20.5721  -11.8259 C   0  0  0  0  0  0  0  0  0  0  0  0
   28.3218  -21.0173  -12.1971 C   0  0  0  0  0  0  0  0  0  0  0  0
   29.0986  -21.1414  -11.0958 N   0  0  0  0  0  0  0  0  0  0  0  0
   28.3919  -20.7909  -10.0049 C   0  0  0  0  0  0  0  0  0  0  0  0
   28.7345  -20.7492   -8.6691 C   0  0  0  0  0  0  0  0  0  0  0  0
   27.7635  -20.3373   -7.7862 C   0  0  0  0  0  0  0  0  0  0  0  0
   26.4890  -19.9775   -8.2191 C   0  0  0  0  0  0  0  0  0  0  0  0
   26.1692  -20.0263   -9.5529 C   0  0  0  0  0  0  0  0  0  0  0  0
   27.1221  -20.4345  -10.4533 C   0  0  0  0  0  0  0  0  0  0  0  0
   23.6587  -21.2995  -12.9592 C   0  0  0  0  0  0  0  0  0  0  0  0
   23.1157  -20.7984  -13.9764 O   0  0  0  0  0  0  0  0  0  0  0  0
   19.9639  -23.5970   -8.5109 N   0  0  0  0  0  0  0  0  0  0  0  0
   18.9575  -23.0975   -9.3838 C   0  0  0  0  0  0  0  0  0  0  0  0
   17.7625  -23.2880   -9.0847 O   0  0  0  0  0  0  0  0  0  0  0  0
   19.4323  -22.3828  -10.5927 C   0  0  0  0  0  0  0  0  0  0  0  0
   20.9114  -22.2292  -10.6750 C   0  0  0  0  0  0  0  0  0  0  0  0
   21.4065  -21.5007  -11.8994 C   0  0  2  0  0  0  0  0  0  0  0  0
   22.8739  -21.5752  -11.8266 N   0  0  0  0  0  0  0  0  0  0  0  0
   21.0361  -20.0679  -11.9037 C   0  0  0  0  0  0  0  0  0  0  0  0
   20.0958  -19.6537  -12.6167 O   0  0  0  0  0  0  0  0  0  0  0  0
   21.7188  -19.1549  -11.1220 O   0  0  0  0  0  0  0  0  0  0  0  0
  2  1  1  1
  2  3  1  0
  3  4  1  0
  4  5  1  0
  5  6  2  0
  7  8  2  0
  7  2  1  0
  9  5  1  0
 10  7  1  0
 11 10  1  0
 11 12  1  6
 12 13  1  0
 13 14  2  0
 13 21  1  0
 14 15  1  0
 15 16  1  0
 16 17  2  0
 18 17  1  0
 19 18  2  0
 20 21  2  0
 20 19  1  0
 21 16  1  0
 22 11  1  0
 23 22  2  0
 24 25  1  0
 25 26  2  0
 25 27  1  0
 27 28  1  0
 29 28  1  1
 29 30  1  0
 30 22  1  0
 31 33  1  0
 31 29  1  0
 32 31  2  0
M  END
$$$$
