EWQ.pdb
     RDKit          3D

 33 34  0  0  1  0  0  0  0  0999 V2000
   26.8025  -20.3797  -16.5731 N   0  0  0  0  0  0  0  0  0  0  0  0
   26.5352  -21.8093  -16.4538 C   0  0  1  0  0  0  0  0  0  0  0  0
   27.5179  -22.6134  -17.2327 C   0  0  0  0  0  0  0  0  0  0  0  0
   28.4589  -23.4455  -16.4289 C   0  0  0  0  0  0  0  0  0  0  0  0
   29.7851  -23.4000  -17.1258 C   0  0  0  0  0  0  0  0  0  0  0  0
   30.4286  -24.4588  -17.2374 O   0  0  0  0  0  0  0  0  0  0  0  0
   26.4522  -22.1354  -15.0263 C   0  0  0  0  0  0  0  0  0  0  0  0
   26.0987  -23.2829  -14.6206 O   0  0  0  0  0  0  0  0  0  0  0  0
   30.3168  -22.2470  -17.6428 O   0  0  0  0  0  0  0  0  0  0  0  0
   26.7588  -21.2007  -13.9881 N   0  0  0  0  0  0  0  0  0  0  0  0
   26.2473  -21.3096  -12.6445 C   0  0  1  0  0  0  0  0  0  0  0  0
   27.3639  -20.8307  -11.7145 C   0  0  0  0  0  0  0  0  0  0  0  0
   26.8389  -20.6010  -10.3420 C   0  0  0  0  0  0  0  0  0  0  0  0
   25.5197  -20.4542   -9.9500 C   0  0  0  0  0  0  0  0  0  0  0  0
   25.4669  -20.2599   -8.6116 N   0  0  0  0  0  0  0  0  0  0  0  0
   26.7143  -20.2739   -8.1055 C   0  0  0  0  0  0  0  0  0  0  0  0
   27.1782  -20.1220   -6.8151 C   0  0  0  0  0  0  0  0  0  0  0  0
   28.5391  -20.1893   -6.6269 C   0  0  0  0  0  0  0  0  0  0  0  0
   29.4131  -20.4014   -7.6910 C   0  0  0  0  0  0  0  0  0  0  0  0
   28.9303  -20.5499   -8.9672 C   0  0  0  0  0  0  0  0  0  0  0  0
   27.5752  -20.4864   -9.1797 C   0  0  0  0  0  0  0  0  0  0  0  0
   25.0476  -20.4475  -12.4626 C   0  0  0  0  0  0  0  0  0  0  0  0
   25.1162  -19.2280  -12.7607 O   0  0  0  0  0  0  0  0  0  0  0  0
   22.2524  -18.2792  -15.3215 N   0  0  0  0  0  0  0  0  0  0  0  0
   21.0502  -18.9888  -15.0472 C   0  0  0  0  0  0  0  0  0  0  0  0
   19.9620  -18.4109  -15.2359 O   0  0  0  0  0  0  0  0  0  0  0  0
   21.2056  -20.3776  -14.5523 C   0  0  0  0  0  0  0  0  0  0  0  0
   22.5170  -20.6560  -13.9034 C   0  0  0  0  0  0  0  0  0  0  0  0
   22.5510  -20.4186  -12.4143 C   0  0  2  0  0  0  0  0  0  0  0  0
   23.8402  -20.9665  -11.9649 N   0  0  0  0  0  0  0  0  0  0  0  0
   21.4847  -21.1478  -11.6922 C   0  0  0  0  0  0  0  0  0  0  0  0
   20.3793  -20.6069  -11.4701 O   0  0  0  0  0  0  0  0  0  0  0  0
   21.6843  -22.4410  -11.2469 O   0  0  0  0  0  0  0  0  0  0  0  0
  2  1  1  1
  2  3  1  0
  3  4  1  0
  4  5  1  0
  5  6  2  0
  7  8  2  0
  7  2  1  0
  9  5  1  0
 10  7  1  0
 11 10  1  0
 11 12  1  1
 12 13  1  0
 13 14  2  0
 13 21  1  0
 14 15  1  0
 15 16  1  0
 16 17  2  0
 18 17  1  0
 19 18  2  0
 20 21  2  0
 20 19  1  0
 21 16  1  0
 22 11  1  0
 23 22  2  0
 24 25  1  0
 25 26  2  0
 25 27  1  0
 27 28  1  0
 29 28  1  6
 29 30  1  0
 30 22  1  0
 31 33  1  0
 31 29  1  0
 32 31  2  0
M  END
$$$$
