EWQ.pdb
     RDKit          3D

 33 34  0  0  1  0  0  0  0  0999 V2000
   28.4359  -21.9536  -15.3780 N   0  0  0  0  0  0  0  0  0  0  0  0
   28.1008  -20.7440  -14.6337 C   0  0  1  0  0  0  0  0  0  0  0  0
   27.2773  -19.8115  -15.4531 C   0  0  0  0  0  0  0  0  0  0  0  0
   27.9287  -19.2811  -16.6853 C   0  0  0  0  0  0  0  0  0  0  0  0
   28.8892  -18.2173  -16.2471 C   0  0  0  0  0  0  0  0  0  0  0  0
   28.4851  -17.3497  -15.4524 O   0  0  0  0  0  0  0  0  0  0  0  0
   27.5021  -21.1504  -13.3580 C   0  0  0  0  0  0  0  0  0  0  0  0
   26.6452  -22.0815  -13.2864 O   0  0  0  0  0  0  0  0  0  0  0  0
   30.1879  -18.1597  -16.6825 O   0  0  0  0  0  0  0  0  0  0  0  0
   27.8299  -20.5399  -12.1068 N   0  0  0  0  0  0  0  0  0  0  0  0
   27.1190  -20.8080  -10.8815 C   0  0  1  0  0  0  0  0  0  0  0  0
   27.8321  -20.0162   -9.7834 C   0  0  0  0  0  0  0  0  0  0  0  0
   27.1459  -20.1998   -8.4767 C   0  0  0  0  0  0  0  0  0  0  0  0
   25.8507  -20.6321   -8.2499 C   0  0  0  0  0  0  0  0  0  0  0  0
   25.6124  -20.6600   -6.9180 N   0  0  0  0  0  0  0  0  0  0  0  0
   26.7134  -20.2583   -6.2554 C   0  0  0  0  0  0  0  0  0  0  0  0
   26.9673  -20.1177   -4.9067 C   0  0  0  0  0  0  0  0  0  0  0  0
   28.2199  -19.6768   -4.5480 C   0  0  0  0  0  0  0  0  0  0  0  0
   29.1915  -19.3842   -5.5027 C   0  0  0  0  0  0  0  0  0  0  0  0
   28.9177  -19.5311   -6.8396 C   0  0  0  0  0  0  0  0  0  0  0  0
   27.6740  -19.9698   -7.2220 C   0  0  0  0  0  0  0  0  0  0  0  0
   25.7045  -20.3551  -10.9794 C   0  0  0  0  0  0  0  0  0  0  0  0
   25.4615  -19.1602  -11.2860 O   0  0  0  0  0  0  0  0  0  0  0  0
   23.4835  -24.4198  -13.6503 N   0  0  0  0  0  0  0  0  0  0  0  0
   23.0274  -23.2737  -14.3592 C   0  0  0  0  0  0  0  0  0  0  0  0
   22.8870  -23.3555  -15.5951 O   0  0  0  0  0  0  0  0  0  0  0  0
   22.7562  -22.0637  -13.5466 C   0  0  0  0  0  0  0  0  0  0  0  0
   22.9710  -22.2444  -12.0840 C   0  0  0  0  0  0  0  0  0  0  0  0
   23.3132  -20.9824  -11.3323 C   0  0  2  0  0  0  0  0  0  0  0  0
   24.6348  -21.2335  -10.7367 N   0  0  0  0  0  0  0  0  0  0  0  0
   22.3743  -20.7025  -10.2231 C   0  0  0  0  0  0  0  0  0  0  0  0
   22.6148  -21.1090   -9.0652 O   0  0  0  0  0  0  0  0  0  0  0  0
   21.2117  -19.9869  -10.4396 O   0  0  0  0  0  0  0  0  0  0  0  0
  2  1  1  6
  2  3  1  0
  3  4  1  0
  4  5  1  0
  5  6  2  0
  7  8  2  0
  7  2  1  0
  9  5  1  0
 10  7  1  0
 11 10  1  0
 11 12  1  1
 12 13  1  0
 13 14  2  0
 13 21  1  0
 14 15  1  0
 15 16  1  0
 16 17  2  0
 18 17  1  0
 19 18  2  0
 20 21  2  0
 20 19  1  0
 21 16  1  0
 22 11  1  0
 23 22  2  0
 24 25  1  0
 25 26  2  0
 25 27  1  0
 27 28  1  0
 29 28  1  1
 29 30  1  0
 30 22  1  0
 31 33  1  0
 31 29  1  0
 32 31  2  0
M  END
$$$$
