EWQ.pdb
     RDKit          3D

 33 34  0  0  1  0  0  0  0  0999 V2000
   22.0120  -19.8341  -10.5106 N   0  0  0  0  0  0  0  0  0  0  0  0
   22.8806  -20.8397  -11.1136 C   0  0  1  0  0  0  0  0  0  0  0  0
   22.4108  -21.2185  -12.4755 C   0  0  0  0  0  0  0  0  0  0  0  0
   21.0226  -21.7574  -12.5573 C   0  0  0  0  0  0  0  0  0  0  0  0
   21.0614  -23.1481  -11.9998 C   0  0  0  0  0  0  0  0  0  0  0  0
   20.5046  -23.3608  -10.9078 O   0  0  0  0  0  0  0  0  0  0  0  0
   24.2598  -20.3458  -11.0431 C   0  0  0  0  0  0  0  0  0  0  0  0
   24.5823  -19.1961  -11.4680 O   0  0  0  0  0  0  0  0  0  0  0  0
   21.6813  -24.1908  -12.6385 O   0  0  0  0  0  0  0  0  0  0  0  0
   25.3400  -21.1078  -10.4970 N   0  0  0  0  0  0  0  0  0  0  0  0
   26.7251  -20.7305  -10.6296 C   0  0  1  0  0  0  0  0  0  0  0  0
   27.4499  -21.3031   -9.4097 C   0  0  0  0  0  0  0  0  0  0  0  0
   27.2537  -20.4253   -8.2252 C   0  0  0  0  0  0  0  0  0  0  0  0
   26.3600  -19.3782   -8.0817 C   0  0  0  0  0  0  0  0  0  0  0  0
   26.4991  -18.8334   -6.8506 N   0  0  0  0  0  0  0  0  0  0  0  0
   27.4600  -19.4901   -6.1740 C   0  0  0  0  0  0  0  0  0  0  0  0
   27.9632  -19.3152   -4.9013 C   0  0  0  0  0  0  0  0  0  0  0  0
   28.9632  -20.1702   -4.5003 C   0  0  0  0  0  0  0  0  0  0  0  0
   29.4488  -21.1699   -5.3405 C   0  0  0  0  0  0  0  0  0  0  0  0
   28.9340  -21.3265   -6.6032 C   0  0  0  0  0  0  0  0  0  0  0  0
   27.9350  -20.4847   -7.0258 C   0  0  0  0  0  0  0  0  0  0  0  0
   27.3144  -21.3044  -11.8701 C   0  0  0  0  0  0  0  0  0  0  0  0
   27.6276  -22.5218  -11.8955 O   0  0  0  0  0  0  0  0  0  0  0  0
   25.4998  -24.4101  -14.5649 N   0  0  0  0  0  0  0  0  0  0  0  0
   25.6139  -23.8056  -15.8477 C   0  0  0  0  0  0  0  0  0  0  0  0
   25.4206  -24.5110  -16.8571 O   0  0  0  0  0  0  0  0  0  0  0  0
   25.9593  -22.3640  -15.8661 C   0  0  0  0  0  0  0  0  0  0  0  0
   26.2062  -21.7737  -14.5212 C   0  0  0  0  0  0  0  0  0  0  0  0
   27.5598  -21.1309  -14.3492 C   0  0  2  0  0  0  0  0  0  0  0  0
   27.5285  -20.5156  -13.0132 N   0  0  0  0  0  0  0  0  0  0  0  0
   27.8104  -20.0498  -15.3282 C   0  0  0  0  0  0  0  0  0  0  0  0
   27.5377  -18.8613  -15.0506 O   0  0  0  0  0  0  0  0  0  0  0  0
   28.3503  -20.3267  -16.5701 O   0  0  0  0  0  0  0  0  0  0  0  0
  2  1  1  6
  2  3  1  0
  3  4  1  0
  4  5  1  0
  5  6  2  0
  7  8  2  0
  7  2  1  0
  9  5  1  0
 10  7  1  0
 11 10  1  0
 11 12  1  1
 12 13  1  0
 13 14  2  0
 13 21  1  0
 14 15  1  0
 15 16  1  0
 16 17  2  0
 18 17  1  0
 19 18  2  0
 20 21  2  0
 20 19  1  0
 21 16  1  0
 22 11  1  0
 23 22  2  0
 24 25  1  0
 25 26  2  0
 25 27  1  0
 27 28  1  0
 29 28  1  6
 29 30  1  0
 30 22  1  0
 31 33  1  0
 31 29  1  0
 32 31  2  0
M  END
$$$$
