EWQ.pdb
     RDKit          3D

 33 34  0  0  1  0  0  0  0  0999 V2000
   28.3479  -21.5957  -14.3811 N   0  0  0  0  0  0  0  0  0  0  0  0
   27.0278  -21.1744  -14.8385 C   0  0  1  0  0  0  0  0  0  0  0  0
   26.7044  -21.7521  -16.1730 C   0  0  0  0  0  0  0  0  0  0  0  0
   27.6427  -21.4008  -17.2777 C   0  0  0  0  0  0  0  0  0  0  0  0
   27.6098  -19.9091  -17.4197 C   0  0  0  0  0  0  0  0  0  0  0  0
   28.6616  -19.2751  -17.2217 O   0  0  0  0  0  0  0  0  0  0  0  0
   26.0637  -21.4778  -13.7757 C   0  0  0  0  0  0  0  0  0  0  0  0
   25.1919  -22.3891  -13.9021 O   0  0  0  0  0  0  0  0  0  0  0  0
   26.4755  -19.2168  -17.7568 O   0  0  0  0  0  0  0  0  0  0  0  0
   26.0270  -20.7821  -12.5266 N   0  0  0  0  0  0  0  0  0  0  0  0
   24.9911  -20.9714  -11.5419 C   0  0  1  0  0  0  0  0  0  0  0  0
   25.4530  -20.2405  -10.2795 C   0  0  0  0  0  0  0  0  0  0  0  0
   26.7721  -20.7586   -9.8284 C   0  0  0  0  0  0  0  0  0  0  0  0
   27.5785  -21.6924  -10.4557 C   0  0  0  0  0  0  0  0  0  0  0  0
   28.6954  -21.8907   -9.7176 N   0  0  0  0  0  0  0  0  0  0  0  0
   28.6521  -21.1145   -8.6185 C   0  0  0  0  0  0  0  0  0  0  0  0
   29.5398  -20.9600   -7.5737 C   0  0  0  0  0  0  0  0  0  0  0  0
   29.1940  -20.0687   -6.5848 C   0  0  0  0  0  0  0  0  0  0  0  0
   28.0003  -19.3520   -6.6335 C   0  0  0  0  0  0  0  0  0  0  0  0
   27.1312  -19.5209   -7.6822 C   0  0  0  0  0  0  0  0  0  0  0  0
   27.4547  -20.4054   -8.6814 C   0  0  0  0  0  0  0  0  0  0  0  0
   23.7034  -20.3885  -12.0084 C   0  0  0  0  0  0  0  0  0  0  0  0
   23.7218  -19.4209  -12.8110 O   0  0  0  0  0  0  0  0  0  0  0  0
   21.8849  -22.8522  -15.9613 N   0  0  0  0  0  0  0  0  0  0  0  0
   20.5876  -22.2850  -15.8218 C   0  0  0  0  0  0  0  0  0  0  0  0
   19.7450  -22.5006  -16.7148 O   0  0  0  0  0  0  0  0  0  0  0  0
   20.3530  -21.4737  -14.6034 C   0  0  0  0  0  0  0  0  0  0  0  0
   21.5218  -21.3930  -13.6839 C   0  0  0  0  0  0  0  0  0  0  0  0
   21.2522  -20.6938  -12.3749 C   0  0  2  0  0  0  0  0  0  0  0  0
   22.4679  -20.8957  -11.5714 N   0  0  0  0  0  0  0  0  0  0  0  0
   20.1235  -21.2911  -11.6270 C   0  0  0  0  0  0  0  0  0  0  0  0
   18.9415  -21.0654  -11.9674 O   0  0  0  0  0  0  0  0  0  0  0  0
   20.3477  -22.1107  -10.5368 O   0  0  0  0  0  0  0  0  0  0  0  0
  2  1  1  1
  2  3  1  0
  3  4  1  0
  4  5  1  0
  5  6  2  0
  7  8  2  0
  7  2  1  0
  9  5  1  0
 10  7  1  0
 11 10  1  0
 11 12  1  1
 12 13  1  0
 13 14  2  0
 13 21  1  0
 14 15  1  0
 15 16  1  0
 16 17  2  0
 18 17  1  0
 19 18  2  0
 20 21  2  0
 20 19  1  0
 21 16  1  0
 22 11  1  0
 23 22  2  0
 24 25  1  0
 25 26  2  0
 25 27  1  0
 27 28  1  0
 29 28  1  6
 29 30  1  0
 30 22  1  0
 31 33  1  0
 31 29  1  0
 32 31  2  0
M  END
$$$$
