EWQ.pdb
     RDKit          3D

 33 34  0  0  1  0  0  0  0  0999 V2000
   26.9056  -34.1960  -15.8889 N   0  0  0  0  0  0  0  0  0  0  0  0
   26.1140  -33.3734  -14.9799 C   0  0  1  0  0  0  0  0  0  0  0  0
   24.7005  -33.2633  -15.4369 C   0  0  0  0  0  0  0  0  0  0  0  0
   24.3026  -34.1792  -16.5445 C   0  0  0  0  0  0  0  0  0  0  0  0
   23.9594  -33.3168  -17.7212 C   0  0  0  0  0  0  0  0  0  0  0  0
   23.3689  -33.8401  -18.6830 O   0  0  0  0  0  0  0  0  0  0  0  0
   26.2931  -33.9000  -13.6228 C   0  0  0  0  0  0  0  0  0  0  0  0
   26.6159  -35.1069  -13.4096 O   0  0  0  0  0  0  0  0  0  0  0  0
   24.2670  -31.9822  -17.7828 O   0  0  0  0  0  0  0  0  0  0  0  0
   26.1215  -33.1081  -12.4441 N   0  0  0  0  0  0  0  0  0  0  0  0
   26.2577  -33.6324  -11.1080 C   0  0  1  0  0  0  0  0  0  0  0  0
   26.1331  -32.4392  -10.1584 C   0  0  0  0  0  0  0  0  0  0  0  0
   26.2366  -32.8842   -8.7430 C   0  0  0  0  0  0  0  0  0  0  0  0
   27.2731  -33.5786   -8.1438 C   0  0  0  0  0  0  0  0  0  0  0  0
   26.9776  -33.7918   -6.8404 N   0  0  0  0  0  0  0  0  0  0  0  0
   25.7742  -33.2580   -6.5587 C   0  0  0  0  0  0  0  0  0  0  0  0
   25.0458  -33.2140   -5.3879 C   0  0  0  0  0  0  0  0  0  0  0  0
   23.8258  -32.5804   -5.4328 C   0  0  0  0  0  0  0  0  0  0  0  0
   23.3441  -32.0074   -6.6078 C   0  0  0  0  0  0  0  0  0  0  0  0
   24.0851  -32.0626   -7.7618 C   0  0  0  0  0  0  0  0  0  0  0  0
   25.3063  -32.6900   -7.7415 C   0  0  0  0  0  0  0  0  0  0  0  0
   25.1798  -34.6154  -10.8119 C   0  0  0  0  0  0  0  0  0  0  0  0
   24.0013  -34.3611  -11.1684 O   0  0  0  0  0  0  0  0  0  0  0  0
   25.0005  -37.9227  -13.6850 N   0  0  0  0  0  0  0  0  0  0  0  0
   25.7399  -38.6776  -12.7324 C   0  0  0  0  0  0  0  0  0  0  0  0
   26.7125  -39.3483  -13.1302 O   0  0  0  0  0  0  0  0  0  0  0  0
   25.2763  -38.5957  -11.3267 C   0  0  0  0  0  0  0  0  0  0  0  0
   24.2000  -37.5934  -11.0916 C   0  0  0  0  0  0  0  0  0  0  0  0
   24.3649  -36.7668   -9.8408 C   0  0  2  0  0  0  0  0  0  0  0  0
   25.4505  -35.8211  -10.1428 N   0  0  0  0  0  0  0  0  0  0  0  0
   24.7906  -37.5708   -8.6735 C   0  0  0  0  0  0  0  0  0  0  0  0
   24.0089  -38.3906   -8.1437 O   0  0  0  0  0  0  0  0  0  0  0  0
   26.0593  -37.4354   -8.1419 O   0  0  0  0  0  0  0  0  0  0  0  0
  2  1  1  6
  2  3  1  0
  3  4  1  0
  4  5  1  0
  5  6  2  0
  7  8  2  0
  7  2  1  0
  9  5  1  0
 10  7  1  0
 11 10  1  0
 11 12  1  1
 12 13  1  0
 13 14  2  0
 13 21  1  0
 14 15  1  0
 15 16  1  0
 16 17  2  0
 18 17  1  0
 19 18  2  0
 20 21  2  0
 20 19  1  0
 21 16  1  0
 22 11  1  0
 23 22  2  0
 24 25  1  0
 25 26  2  0
 25 27  1  0
 27 28  1  0
 29 28  1  6
 29 30  1  0
 30 22  1  0
 31 33  1  0
 31 29  1  0
 32 31  2  0
M  END
$$$$
