EWQ.pdb
     RDKit          3D

 33 34  0  0  1  0  0  0  0  0999 V2000
   29.3215  -21.2567  -15.0381 N   0  0  0  0  0  0  0  0  0  0  0  0
   28.2193  -20.3953  -14.6230 C   0  0  1  0  0  0  0  0  0  0  0  0
   27.7072  -19.5808  -15.7602 C   0  0  0  0  0  0  0  0  0  0  0  0
   28.3258  -18.2338  -15.9251 C   0  0  0  0  0  0  0  0  0  0  0  0
   27.2123  -17.2766  -16.2253 C   0  0  0  0  0  0  0  0  0  0  0  0
   27.0689  -16.2883  -15.4834 O   0  0  0  0  0  0  0  0  0  0  0  0
   27.2187  -21.2334  -13.9539 C   0  0  0  0  0  0  0  0  0  0  0  0
   26.5735  -22.1307  -14.5741 O   0  0  0  0  0  0  0  0  0  0  0  0
   26.3491  -17.4427  -17.2773 O   0  0  0  0  0  0  0  0  0  0  0  0
   26.8923  -21.1106  -12.5668 N   0  0  0  0  0  0  0  0  0  0  0  0
   25.8040  -21.8195  -11.9410 C   0  0  1  0  0  0  0  0  0  0  0  0
   26.2985  -22.2385  -10.5550 C   0  0  0  0  0  0  0  0  0  0  0  0
   26.4535  -21.0504   -9.6739 C   0  0  0  0  0  0  0  0  0  0  0  0
   25.6120  -19.9569   -9.5653 C   0  0  0  0  0  0  0  0  0  0  0  0
   26.1122  -19.0932   -8.6512 N   0  0  0  0  0  0  0  0  0  0  0  0
   27.2617  -19.5836   -8.1507 C   0  0  0  0  0  0  0  0  0  0  0  0
   28.1341  -19.0827   -7.2065 C   0  0  0  0  0  0  0  0  0  0  0  0
   29.2411  -19.8436   -6.9107 C   0  0  0  0  0  0  0  0  0  0  0  0
   29.4738  -21.0668   -7.5357 C   0  0  0  0  0  0  0  0  0  0  0  0
   28.5929  -21.5467   -8.4724 C   0  0  0  0  0  0  0  0  0  0  0  0
   27.4805  -20.8047   -8.7844 C   0  0  0  0  0  0  0  0  0  0  0  0
   24.6119  -20.9399  -11.7964 C   0  0  0  0  0  0  0  0  0  0  0  0
   24.7722  -19.7367  -11.4686 O   0  0  0  0  0  0  0  0  0  0  0  0
   23.8291  -18.4751  -15.0245 N   0  0  0  0  0  0  0  0  0  0  0  0
   23.1025  -19.6304  -15.4265 C   0  0  0  0  0  0  0  0  0  0  0  0
   23.2687  -20.0651  -16.5830 O   0  0  0  0  0  0  0  0  0  0  0  0
   22.1967  -20.2222  -14.4132 C   0  0  0  0  0  0  0  0  0  0  0  0
   22.2700  -19.5784  -13.0722 C   0  0  0  0  0  0  0  0  0  0  0  0
   22.1515  -20.5270  -11.9056 C   0  0  2  0  0  0  0  0  0  0  0  0
   23.3117  -21.4246  -12.0180 N   0  0  0  0  0  0  0  0  0  0  0  0
   20.9347  -21.3669  -11.9700 C   0  0  0  0  0  0  0  0  0  0  0  0
   21.0006  -22.5587  -12.3428 O   0  0  0  0  0  0  0  0  0  0  0  0
   19.6990  -20.8556  -11.6206 O   0  0  0  0  0  0  0  0  0  0  0  0
  2  1  1  6
  2  3  1  0
  3  4  1  0
  4  5  1  0
  5  6  2  0
  7  8  2  0
  7  2  1  0
  9  5  1  0
 10  7  1  0
 11 10  1  0
 11 12  1  1
 12 13  1  0
 13 14  2  0
 13 21  1  0
 14 15  1  0
 15 16  1  0
 16 17  2  0
 18 17  1  0
 19 18  2  0
 20 21  2  0
 20 19  1  0
 21 16  1  0
 22 11  1  0
 23 22  2  0
 24 25  1  0
 25 26  2  0
 25 27  1  0
 27 28  1  0
 29 28  1  6
 29 30  1  0
 30 22  1  0
 31 33  1  0
 31 29  1  0
 32 31  2  0
M  END
$$$$
