EWQ.pdb
     RDKit          3D

 33 34  0  0  1  0  0  0  0  0999 V2000
   28.9331  -23.0084  -17.1269 N   0  0  0  0  0  0  0  0  0  0  0  0
   28.2097  -21.7758  -16.8325 C   0  0  1  0  0  0  0  0  0  0  0  0
   27.3175  -21.3860  -17.9599 C   0  0  0  0  0  0  0  0  0  0  0  0
   27.9761  -20.6764  -19.0943 C   0  0  0  0  0  0  0  0  0  0  0  0
   28.2170  -19.2667  -18.6456 C   0  0  0  0  0  0  0  0  0  0  0  0
   29.3657  -18.9504  -18.2881 O   0  0  0  0  0  0  0  0  0  0  0  0
   27.5432  -21.9420  -15.5366 C   0  0  0  0  0  0  0  0  0  0  0  0
   26.8899  -22.9892  -15.2487 O   0  0  0  0  0  0  0  0  0  0  0  0
   27.2302  -18.3156  -18.6125 O   0  0  0  0  0  0  0  0  0  0  0  0
   27.5743  -20.9521  -14.5048 N   0  0  0  0  0  0  0  0  0  0  0  0
   26.9071  -21.1058  -13.2360 C   0  0  1  0  0  0  0  0  0  0  0  0
   27.5141  -20.0615  -12.2967 C   0  0  0  0  0  0  0  0  0  0  0  0
   26.8375  -20.0930  -10.9726 C   0  0  0  0  0  0  0  0  0  0  0  0
   25.4940  -19.9026  -10.6997 C   0  0  0  0  0  0  0  0  0  0  0  0
   25.2861  -20.0094   -9.3666 N   0  0  0  0  0  0  0  0  0  0  0  0
   26.4542  -20.2654   -8.7482 C   0  0  0  0  0  0  0  0  0  0  0  0
   26.7602  -20.4559   -7.4165 C   0  0  0  0  0  0  0  0  0  0  0  0
   28.0770  -20.7038   -7.1058 C   0  0  0  0  0  0  0  0  0  0  0  0
   29.0607  -20.7606   -8.0907 C   0  0  0  0  0  0  0  0  0  0  0  0
   28.7345  -20.5681   -9.4099 C   0  0  0  0  0  0  0  0  0  0  0  0
   27.4263  -20.3189   -9.7445 C   0  0  0  0  0  0  0  0  0  0  0  0
   25.4455  -20.8589  -13.3724 C   0  0  0  0  0  0  0  0  0  0  0  0
   25.0482  -19.7547  -13.8237 O   0  0  0  0  0  0  0  0  0  0  0  0
   23.5498  -25.5469  -14.3104 N   0  0  0  0  0  0  0  0  0  0  0  0
   23.2097  -24.7573  -15.4440 C   0  0  0  0  0  0  0  0  0  0  0  0
   23.3778  -25.2433  -16.5796 O   0  0  0  0  0  0  0  0  0  0  0  0
   22.6767  -23.4024  -15.1648 C   0  0  0  0  0  0  0  0  0  0  0  0
   22.6024  -23.0571  -13.7179 C   0  0  0  0  0  0  0  0  0  0  0  0
   23.0839  -21.6704  -13.3711 C   0  0  2  0  0  0  0  0  0  0  0  0
   24.5002  -21.8327  -13.0079 N   0  0  0  0  0  0  0  0  0  0  0  0
   22.3888  -21.0986  -12.1964 C   0  0  0  0  0  0  0  0  0  0  0  0
   22.9363  -21.0907  -11.0721 O   0  0  0  0  0  0  0  0  0  0  0  0
   21.1208  -20.5608  -12.3130 O   0  0  0  0  0  0  0  0  0  0  0  0
  2  1  1  6
  2  3  1  0
  3  4  1  0
  4  5  1  0
  5  6  2  0
  7  8  2  0
  7  2  1  0
  9  5  1  0
 10  7  1  0
 11 10  1  0
 11 12  1  1
 12 13  1  0
 13 14  2  0
 13 21  1  0
 14 15  1  0
 15 16  1  0
 16 17  2  0
 18 17  1  0
 19 18  2  0
 20 21  2  0
 20 19  1  0
 21 16  1  0
 22 11  1  0
 23 22  2  0
 24 25  1  0
 25 26  2  0
 25 27  1  0
 27 28  1  0
 29 28  1  1
 29 30  1  0
 30 22  1  0
 31 33  1  0
 31 29  1  0
 32 31  2  0
M  END
$$$$
