EWQ.pdb
     RDKit          3D

 33 34  0  0  1  0  0  0  0  0999 V2000
   29.0801  -22.7453  -16.4394 N   0  0  0  0  0  0  0  0  0  0  0  0
   28.2031  -21.5897  -16.2819 C   0  0  1  0  0  0  0  0  0  0  0  0
   27.4161  -21.3312  -17.5199 C   0  0  0  0  0  0  0  0  0  0  0  0
   28.1898  -20.8154  -18.6859 C   0  0  0  0  0  0  0  0  0  0  0  0
   29.0646  -21.9366  -19.1589 C   0  0  0  0  0  0  0  0  0  0  0  0
   30.2930  -21.8371  -18.9896 O   0  0  0  0  0  0  0  0  0  0  0  0
   27.4078  -21.7889  -15.0657 C   0  0  0  0  0  0  0  0  0  0  0  0
   26.4919  -22.6623  -14.9998 O   0  0  0  0  0  0  0  0  0  0  0  0
   28.5714  -23.0619  -19.7672 O   0  0  0  0  0  0  0  0  0  0  0  0
   27.5964  -21.0264  -13.8705 N   0  0  0  0  0  0  0  0  0  0  0  0
   26.7977  -21.2004  -12.6828 C   0  0  1  0  0  0  0  0  0  0  0  0
   27.4369  -20.3308  -11.5982 C   0  0  0  0  0  0  0  0  0  0  0  0
   26.6270  -20.3705  -10.3514 C   0  0  0  0  0  0  0  0  0  0  0  0
   25.2485  -20.4104  -10.2340 C   0  0  0  0  0  0  0  0  0  0  0  0
   24.9090  -20.4357   -8.9241 N   0  0  0  0  0  0  0  0  0  0  0  0
   26.0240  -20.4137   -8.1698 C   0  0  0  0  0  0  0  0  0  0  0  0
   26.2017  -20.4252   -6.8018 C   0  0  0  0  0  0  0  0  0  0  0  0
   27.4963  -20.3949   -6.3382 C   0  0  0  0  0  0  0  0  0  0  0  0
   28.5825  -20.3543   -7.2098 C   0  0  0  0  0  0  0  0  0  0  0  0
   28.3832  -20.3435   -8.5677 C   0  0  0  0  0  0  0  0  0  0  0  0
   27.0995  -20.3731   -9.0541 C   0  0  0  0  0  0  0  0  0  0  0  0
   25.3974  -20.7523  -12.9154 C   0  0  0  0  0  0  0  0  0  0  0  0
   25.1777  -19.5495  -13.2080 O   0  0  0  0  0  0  0  0  0  0  0  0
   19.9236  -23.9848  -13.0468 N   0  0  0  0  0  0  0  0  0  0  0  0
   19.8922  -23.1175  -14.1741 C   0  0  0  0  0  0  0  0  0  0  0  0
   18.8698  -23.1056  -14.8873 O   0  0  0  0  0  0  0  0  0  0  0  0
   21.1023  -22.2918  -14.4015 C   0  0  0  0  0  0  0  0  0  0  0  0
   22.1506  -22.4355  -13.3534 C   0  0  0  0  0  0  0  0  0  0  0  0
   22.9427  -21.1831  -13.0723 C   0  0  2  0  0  0  0  0  0  0  0  0
   24.3159  -21.6439  -12.8150 N   0  0  0  0  0  0  0  0  0  0  0  0
   22.4804  -20.4716  -11.8599 C   0  0  0  0  0  0  0  0  0  0  0  0
   22.9100  -20.7907  -10.7296 O   0  0  0  0  0  0  0  0  0  0  0  0
   21.5648  -19.4397  -11.9470 O   0  0  0  0  0  0  0  0  0  0  0  0
  2  1  1  6
  2  3  1  0
  3  4  1  0
  4  5  1  0
  5  6  2  0
  7  8  2  0
  7  2  1  0
  9  5  1  0
 10  7  1  0
 11 10  1  0
 11 12  1  1
 12 13  1  0
 13 14  2  0
 13 21  1  0
 14 15  1  0
 15 16  1  0
 16 17  2  0
 18 17  1  0
 19 18  2  0
 20 21  2  0
 20 19  1  0
 21 16  1  0
 22 11  1  0
 23 22  2  0
 24 25  1  0
 25 26  2  0
 25 27  1  0
 27 28  1  0
 29 28  1  1
 29 30  1  0
 30 22  1  0
 31 33  1  0
 31 29  1  0
 32 31  2  0
M  END
$$$$
