EWQ.pdb
     RDKit          3D

 33 34  0  0  1  0  0  0  0  0999 V2000
   27.6874  -19.4779  -14.6175 N   0  0  0  0  0  0  0  0  0  0  0  0
   26.8479  -20.5550  -15.1320 C   0  0  1  0  0  0  0  0  0  0  0  0
   27.6418  -21.5285  -15.9327 C   0  0  0  0  0  0  0  0  0  0  0  0
   29.1148  -21.2972  -15.9622 C   0  0  0  0  0  0  0  0  0  0  0  0
   29.7681  -22.6460  -15.9480 C   0  0  0  0  0  0  0  0  0  0  0  0
   30.5096  -22.9315  -14.9908 O   0  0  0  0  0  0  0  0  0  0  0  0
   26.1087  -21.1297  -14.0031 C   0  0  0  0  0  0  0  0  0  0  0  0
   25.5965  -22.2876  -14.0575 O   0  0  0  0  0  0  0  0  0  0  0  0
   29.5845  -23.5742  -16.9401 O   0  0  0  0  0  0  0  0  0  0  0  0
   25.9073  -20.4425  -12.7649 N   0  0  0  0  0  0  0  0  0  0  0  0
   25.0168  -20.9108  -11.7322 C   0  0  1  0  0  0  0  0  0  0  0  0
   25.4145  -20.1766  -10.4500 C   0  0  0  0  0  0  0  0  0  0  0  0
   26.7555  -20.6226   -9.9865 C   0  0  0  0  0  0  0  0  0  0  0  0
   27.7083  -21.3317  -10.6973 C   0  0  0  0  0  0  0  0  0  0  0  0
   28.7916  -21.5402   -9.9134 N   0  0  0  0  0  0  0  0  0  0  0  0
   28.5837  -20.9891   -8.7028 C   0  0  0  0  0  0  0  0  0  0  0  0
   29.3774  -20.9344   -7.5756 C   0  0  0  0  0  0  0  0  0  0  0  0
   28.8630  -20.2834   -6.4786 C   0  0  0  0  0  0  0  0  0  0  0  0
   27.5962  -19.7039   -6.5018 C   0  0  0  0  0  0  0  0  0  0  0  0
   26.8229  -19.7700   -7.6338 C   0  0  0  0  0  0  0  0  0  0  0  0
   27.3153  -20.4148   -8.7416 C   0  0  0  0  0  0  0  0  0  0  0  0
   23.6022  -20.5913  -12.0672 C   0  0  0  0  0  0  0  0  0  0  0  0
   23.2552  -19.3887  -12.1858 O   0  0  0  0  0  0  0  0  0  0  0  0
   19.4893  -24.8544  -14.0154 N   0  0  0  0  0  0  0  0  0  0  0  0
   18.5807  -23.7874  -13.7705 C   0  0  0  0  0  0  0  0  0  0  0  0
   17.3625  -23.9935  -13.9363 O   0  0  0  0  0  0  0  0  0  0  0  0
   19.1783  -22.5034  -13.3323 C   0  0  0  0  0  0  0  0  0  0  0  0
   20.6450  -22.5619  -13.0806 C   0  0  0  0  0  0  0  0  0  0  0  0
   21.2618  -21.2652  -12.6188 C   0  0  2  0  0  0  0  0  0  0  0  0
   22.6460  -21.6041  -12.2538 N   0  0  0  0  0  0  0  0  0  0  0  0
   20.6073  -20.7167  -11.4102 C   0  0  0  0  0  0  0  0  0  0  0  0
   19.7174  -19.8434  -11.5068 O   0  0  0  0  0  0  0  0  0  0  0  0
   20.9628  -21.1551  -10.1485 O   0  0  0  0  0  0  0  0  0  0  0  0
  2  1  1  1
  2  3  1  0
  3  4  1  0
  4  5  1  0
  5  6  2  0
  7  8  2  0
  7  2  1  0
  9  5  1  0
 10  7  1  0
 11 10  1  0
 11 12  1  1
 12 13  1  0
 13 14  2  0
 13 21  1  0
 14 15  1  0
 15 16  1  0
 16 17  2  0
 18 17  1  0
 19 18  2  0
 20 21  2  0
 20 19  1  0
 21 16  1  0
 22 11  1  0
 23 22  2  0
 24 25  1  0
 25 26  2  0
 25 27  1  0
 27 28  1  0
 29 28  1  1
 29 30  1  0
 30 22  1  0
 31 33  1  0
 31 29  1  0
 32 31  2  0
M  END
$$$$
