EWQ.pdb
     RDKit          3D

 33 34  0  0  1  0  0  0  0  0999 V2000
   28.5911  -23.4064  -16.5760 N   0  0  0  0  0  0  0  0  0  0  0  0
   28.6439  -22.0705  -15.9911 C   0  0  1  0  0  0  0  0  0  0  0  0
   28.4056  -21.0174  -17.0173 C   0  0  0  0  0  0  0  0  0  0  0  0
   27.0403  -20.9915  -17.6168 C   0  0  0  0  0  0  0  0  0  0  0  0
   26.2852  -19.8916  -16.9339 C   0  0  0  0  0  0  0  0  0  0  0  0
   25.1558  -20.1466  -16.4791 O   0  0  0  0  0  0  0  0  0  0  0  0
   27.7304  -22.0436  -14.8439 C   0  0  0  0  0  0  0  0  0  0  0  0
   26.7007  -22.7805  -14.7900 O   0  0  0  0  0  0  0  0  0  0  0  0
   26.7835  -18.6226  -16.7898 O   0  0  0  0  0  0  0  0  0  0  0  0
   27.9220  -21.1970  -13.7072 N   0  0  0  0  0  0  0  0  0  0  0  0
   27.0518  -21.2014  -12.5577 C   0  0  1  0  0  0  0  0  0  0  0  0
   27.7554  -20.3778  -11.4771 C   0  0  0  0  0  0  0  0  0  0  0  0
   26.9166  -20.2976  -10.2515 C   0  0  0  0  0  0  0  0  0  0  0  0
   25.5498  -20.0959  -10.1685 C   0  0  0  0  0  0  0  0  0  0  0  0
   25.1746  -20.0856   -8.8682 N   0  0  0  0  0  0  0  0  0  0  0  0
   26.2545  -20.2750   -8.0868 C   0  0  0  0  0  0  0  0  0  0  0  0
   26.3890  -20.3435   -6.7155 C   0  0  0  0  0  0  0  0  0  0  0  0
   27.6553  -20.5510   -6.2201 C   0  0  0  0  0  0  0  0  0  0  0  0
   28.7557  -20.6861   -7.0639 C   0  0  0  0  0  0  0  0  0  0  0  0
   28.5995  -20.6146   -8.4256 C   0  0  0  0  0  0  0  0  0  0  0  0
   27.3447  -20.4081   -8.9436 C   0  0  0  0  0  0  0  0  0  0  0  0
   25.7411  -20.5752  -12.8826 C   0  0  0  0  0  0  0  0  0  0  0  0
   25.7172  -19.5147  -13.5576 O   0  0  0  0  0  0  0  0  0  0  0  0
   22.1873  -23.1313  -16.1960 N   0  0  0  0  0  0  0  0  0  0  0  0
   21.5718  -23.4560  -14.9552 C   0  0  0  0  0  0  0  0  0  0  0  0
   20.8402  -24.4638  -14.8997 O   0  0  0  0  0  0  0  0  0  0  0  0
   21.8627  -22.5478  -13.8201 C   0  0  0  0  0  0  0  0  0  0  0  0
   22.8835  -21.5039  -14.1140 C   0  0  0  0  0  0  0  0  0  0  0  0
   23.2452  -20.6230  -12.9442 C   0  0  2  0  0  0  0  0  0  0  0  0
   24.5301  -21.1430  -12.4516 N   0  0  0  0  0  0  0  0  0  0  0  0
   22.2737  -20.7185  -11.8319 C   0  0  0  0  0  0  0  0  0  0  0  0
   22.5605  -21.3402  -10.7855 O   0  0  0  0  0  0  0  0  0  0  0  0
   21.0289  -20.1245  -11.9225 O   0  0  0  0  0  0  0  0  0  0  0  0
  2  1  1  6
  2  3  1  0
  3  4  1  0
  4  5  1  0
  5  6  2  0
  7  8  2  0
  7  2  1  0
  9  5  1  0
 10  7  1  0
 11 10  1  0
 11 12  1  1
 12 13  1  0
 13 14  2  0
 13 21  1  0
 14 15  1  0
 15 16  1  0
 16 17  2  0
 18 17  1  0
 19 18  2  0
 20 21  2  0
 20 19  1  0
 21 16  1  0
 22 11  1  0
 23 22  2  0
 24 25  1  0
 25 26  2  0
 25 27  1  0
 27 28  1  0
 29 28  1  6
 29 30  1  0
 30 22  1  0
 31 33  1  0
 31 29  1  0
 32 31  2  0
M  END
$$$$
