LLP.pdb
     RDKit          3D

 24 24  0  0  1  0  0  0  0  0999 V2000
   20.0134  -23.6102  -14.1996 C   0  0  0  0  0  0  0  0  0  0  0  0
   19.8783  -22.3328  -15.0236 C   0  0  2  0  0  0  0  0  0  0  0  0
   19.7721  -22.6762  -16.5015 C   0  0  0  0  0  0  0  0  0  0  0  0
   21.1146  -21.4794  -14.8005 C   0  0  0  0  0  0  0  0  0  0  0  0
   21.2782  -21.2068  -13.3246 C   0  0  2  0  0  0  0  0  0  0  0  0
   20.2303  -20.3342  -12.8335 N   0  0  0  0  0  0  0  0  0  0  0  0
   22.6287  -20.5795  -13.1154 C   0  0  0  0  0  0  0  0  0  0  0  0
   22.7559  -19.3560  -13.4094 O   0  0  0  0  0  0  0  0  0  0  0  0
   26.0432  -21.3218   -8.9072 C   0  0  0  0  0  0  0  0  0  0  0  0
   25.1532  -20.7609  -10.0447 C   0  0  1  0  0  0  0  0  0  0  0  0
   25.2015  -19.2523   -9.8249 C   0  0  0  0  0  0  0  0  0  0  0  0
   25.7348  -21.1352  -11.3599 C   0  0  0  0  0  0  0  0  0  0  0  0
   25.0872  -20.6710  -12.5997 C   0  0  2  0  0  0  0  0  0  0  0  0
   23.7181  -21.2983  -12.6167 N   0  0  0  0  0  0  0  0  0  0  0  0
   25.7068  -20.8580  -13.8993 C   0  0  0  0  0  0  0  0  0  0  0  0
   25.2344  -21.8345  -14.6066 O   0  0  0  0  0  0  0  0  0  0  0  0
   26.7509  -20.0667  -14.4530 N   0  0  0  0  0  0  0  0  0  0  0  0
   27.3602  -18.9044  -13.8381 C   0  0  0  0  0  0  0  0  0  0  0  0
   27.2731  -17.9619  -15.0713 C   0  0  0  0  0  0  0  0  0  0  0  0
   27.9526  -18.8452  -16.0926 C   0  0  0  0  0  0  0  0  0  0  0  0
   27.3307  -20.2160  -15.7650 C   0  0  1  0  0  0  0  0  0  0  0  0
   28.3802  -21.2093  -15.9086 C   0  0  0  0  0  0  0  0  0  0  0  0
   28.9190  -21.7426  -14.9218 O   0  0  0  0  0  0  0  0  0  0  0  0
   28.8088  -21.5877  -17.2013 O   0  0  0  0  0  0  0  0  0  0  0  0
  2  1  1  1
  2  3  1  0
  4  2  1  0
  5  4  1  0
  5  6  1  6
  7  8  2  0
  7  5  1  0
 10  9  1  1
 11 10  1  0
 12 10  1  0
 13 12  1  1
 13 14  1  0
 14  7  1  0
 15 13  1  0
 16 15  2  0
 17 15  1  0
 18 17  1  0
 19 18  1  0
 19 20  1  0
 20 21  1  0
 21 17  1  0
 21 22  1  1
 23 22  2  0
 24 22  1  0
M  END
$$$$
