LLP.pdb
     RDKit          3D

 24 24  0  0  1  0  0  0  0  0999 V2000
   28.4406  -17.9020  -17.4237 C   0  0  0  0  0  0  0  0  0  0  0  0
   27.7212  -18.9976  -18.2055 C   0  0  2  0  0  0  0  0  0  0  0  0
   26.9437  -18.3866  -19.3612 C   0  0  0  0  0  0  0  0  0  0  0  0
   26.7513  -19.7014  -17.2725 C   0  0  0  0  0  0  0  0  0  0  0  0
   27.5234  -20.4165  -16.1901 C   0  0  2  0  0  0  0  0  0  0  0  0
   28.3708  -21.4518  -16.7477 N   0  0  0  0  0  0  0  0  0  0  0  0
   26.5322  -21.0078  -15.2264 C   0  0  0  0  0  0  0  0  0  0  0  0
   26.0394  -22.1363  -15.5147 O   0  0  0  0  0  0  0  0  0  0  0  0
   25.6595  -20.9312   -9.2795 C   0  0  0  0  0  0  0  0  0  0  0  0
   24.8668  -21.1998  -10.5834 C   0  0  1  0  0  0  0  0  0  0  0  0
   23.6171  -20.3398  -10.4250 C   0  0  0  0  0  0  0  0  0  0  0  0
   25.6757  -20.7691  -11.7532 C   0  0  0  0  0  0  0  0  0  0  0  0
   25.1670  -21.0071  -13.1158 C   0  0  2  0  0  0  0  0  0  0  0  0
   26.1528  -20.3563  -14.0500 N   0  0  0  0  0  0  0  0  0  0  0  0
   23.8230  -20.6202  -13.5058 C   0  0  0  0  0  0  0  0  0  0  0  0
   23.6735  -19.3757  -13.8308 O   0  0  0  0  0  0  0  0  0  0  0  0
   22.6899  -21.4771  -13.5757 N   0  0  0  0  0  0  0  0  0  0  0  0
   22.6870  -22.9095  -13.3555 C   0  0  0  0  0  0  0  0  0  0  0  0
   21.8811  -23.3015  -14.6258 C   0  0  0  0  0  0  0  0  0  0  0  0
   20.6813  -22.4030  -14.4315 C   0  0  0  0  0  0  0  0  0  0  0  0
   21.3557  -21.0972  -13.9699 C   0  0  1  0  0  0  0  0  0  0  0  0
   20.5094  -20.5162  -12.9428 C   0  0  0  0  0  0  0  0  0  0  0  0
   20.8144  -20.5620  -11.7372 O   0  0  0  0  0  0  0  0  0  0  0  0
   19.3033  -19.8786  -13.3127 O   0  0  0  0  0  0  0  0  0  0  0  0
  2  1  1  1
  2  3  1  0
  4  2  1  0
  5  4  1  0
  5  6  1  6
  7  8  2  0
  7  5  1  0
 10  9  1  1
 11 10  1  0
 12 10  1  0
 13 12  1  1
 13 14  1  0
 14  7  1  0
 15 13  1  0
 16 15  2  0
 17 15  1  0
 18 17  1  0
 19 18  1  0
 19 20  1  0
 20 21  1  0
 21 17  1  0
 21 22  1  1
 23 22  2  0
 24 22  1  0
M  END
$$$$
