LLP.pdb
     RDKit          3D

 24 24  0  0  1  0  0  0  0  0999 V2000
   24.2669  -25.1826  -18.5405 C   0  0  0  0  0  0  0  0  0  0  0  0
   24.6916  -26.0975  -17.3953 C   0  0  2  0  0  0  0  0  0  0  0  0
   23.5548  -27.0415  -17.0350 C   0  0  0  0  0  0  0  0  0  0  0  0
   25.0249  -25.2391  -16.1875 C   0  0  0  0  0  0  0  0  0  0  0  0
   26.2553  -24.4147  -16.4802 C   0  0  2  0  0  0  0  0  0  0  0  0
   27.4467  -25.2400  -16.4998 N   0  0  0  0  0  0  0  0  0  0  0  0
   26.3656  -23.3534  -15.4207 C   0  0  0  0  0  0  0  0  0  0  0  0
   26.8983  -23.6795  -14.3210 O   0  0  0  0  0  0  0  0  0  0  0  0
   27.5649  -18.1075  -16.4438 C   0  0  0  0  0  0  0  0  0  0  0  0
   27.5472  -19.5258  -15.8202 C   0  0  1  0  0  0  0  0  0  0  0  0
   28.7109  -19.4970  -14.8347 C   0  0  0  0  0  0  0  0  0  0  0  0
   26.2531  -19.7451  -15.1236 C   0  0  0  0  0  0  0  0  0  0  0  0
   25.9784  -21.0491  -14.4942 C   0  0  2  0  0  0  0  0  0  0  0  0
   25.9052  -22.0490  -15.6179 N   0  0  0  0  0  0  0  0  0  0  0  0
   24.8404  -21.2459  -13.6142 C   0  0  0  0  0  0  0  0  0  0  0  0
   23.8414  -21.8882  -14.1303 O   0  0  0  0  0  0  0  0  0  0  0  0
   24.7415  -20.8179  -12.2615 N   0  0  0  0  0  0  0  0  0  0  0  0
   25.8394  -20.3875  -11.4190 C   0  0  0  0  0  0  0  0  0  0  0  0
   25.4891  -21.2588  -10.1801 C   0  0  0  0  0  0  0  0  0  0  0  0
   24.0499  -20.8364   -9.9931 C   0  0  0  0  0  0  0  0  0  0  0  0
   23.5494  -20.8224  -11.4499 C   0  0  1  0  0  0  0  0  0  0  0  0
   22.6588  -19.6837  -11.5874 C   0  0  0  0  0  0  0  0  0  0  0  0
   22.9968  -18.6562  -12.2025 O   0  0  0  0  0  0  0  0  0  0  0  0
   21.3696  -19.7342  -11.0100 O   0  0  0  0  0  0  0  0  0  0  0  0
  2  1  1  6
  2  3  1  0
  4  2  1  0
  5  4  1  0
  5  6  1  1
  7  8  2  0
  7  5  1  0
 10  9  1  1
 11 10  1  0
 12 10  1  0
 13 12  1  6
 13 14  1  0
 14  7  1  0
 15 13  1  0
 16 15  2  0
 17 15  1  0
 18 17  1  0
 19 18  1  0
 19 20  1  0
 20 21  1  0
 21 17  1  0
 21 22  1  1
 23 22  2  0
 24 22  1  0
M  END
$$$$
