LLP.pdb
     RDKit          3D

 24 24  0  0  1  0  0  0  0  0999 V2000
   35.7467  -27.3496  -22.5154 C   0  0  0  0  0  0  0  0  0  0  0  0
   36.0586  -28.7736  -22.0637 C   0  0  2  0  0  0  0  0  0  0  0  0
   36.1330  -29.6971  -23.2699 C   0  0  0  0  0  0  0  0  0  0  0  0
   34.9446  -29.2457  -21.1457 C   0  0  0  0  0  0  0  0  0  0  0  0
   34.9149  -28.3842  -19.9063 C   0  0  2  0  0  0  0  0  0  0  0  0
   36.0906  -28.6033  -19.0874 N   0  0  0  0  0  0  0  0  0  0  0  0
   33.6666  -28.7195  -19.1379 C   0  0  0  0  0  0  0  0  0  0  0  0
   33.6961  -29.7414  -18.3934 O   0  0  0  0  0  0  0  0  0  0  0  0
   29.3047  -27.7255  -15.9784 C   0  0  0  0  0  0  0  0  0  0  0  0
   29.2544  -27.2009  -17.4354 C   0  0  1  0  0  0  0  0  0  0  0  0
   28.6585  -25.8042  -17.2916 C   0  0  0  0  0  0  0  0  0  0  0  0
   30.6316  -27.1474  -17.9909 C   0  0  0  0  0  0  0  0  0  0  0  0
   31.2598  -28.3809  -18.4966 C   0  0  2  0  0  0  0  0  0  0  0  0
   32.5048  -27.9481  -19.2251 N   0  0  0  0  0  0  0  0  0  0  0  0
   30.5309  -29.3217  -19.3283 C   0  0  0  0  0  0  0  0  0  0  0  0
   30.5701  -29.0868  -20.6012 O   0  0  0  0  0  0  0  0  0  0  0  0
   29.8104  -30.4606  -18.8738 N   0  0  0  0  0  0  0  0  0  0  0  0
   29.8180  -30.9949  -17.5267 C   0  0  0  0  0  0  0  0  0  0  0  0
   30.0709  -32.4810  -17.9066 C   0  0  0  0  0  0  0  0  0  0  0  0
   28.9430  -32.6677  -18.8953 C   0  0  0  0  0  0  0  0  0  0  0  0
   29.0160  -31.3482  -19.6868 C   0  0  1  0  0  0  0  0  0  0  0  0
   27.6511  -30.9373  -19.9641 C   0  0  0  0  0  0  0  0  0  0  0  0
   26.9065  -31.5956  -20.7130 O   0  0  0  0  0  0  0  0  0  0  0  0
   27.1448  -29.7581  -19.3717 O   0  0  0  0  0  0  0  0  0  0  0  0
  2  1  1  6
  2  3  1  0
  4  2  1  0
  5  4  1  0
  5  6  1  1
  7  8  2  0
  7  5  1  0
 10  9  1  1
 11 10  1  0
 12 10  1  0
 13 12  1  6
 13 14  1  0
 14  7  1  0
 15 13  1  0
 16 15  2  0
 17 15  1  0
 18 17  1  0
 19 18  1  0
 19 20  1  0
 20 21  1  0
 21 17  1  0
 21 22  1  1
 23 22  2  0
 24 22  1  0
M  END
$$$$
