LLP.pdb
     RDKit          3D

 24 24  0  0  1  0  0  0  0  0999 V2000
   21.5711  -21.4681  -12.3289 C   0  0  0  0  0  0  0  0  0  0  0  0
   22.9977  -21.6383  -12.8436 C   0  0  2  0  0  0  0  0  0  0  0  0
   23.1502  -22.9952  -13.5137 C   0  0  0  0  0  0  0  0  0  0  0  0
   23.9511  -21.5578  -11.6642 C   0  0  0  0  0  0  0  0  0  0  0  0
   23.8982  -20.1718  -11.0681 C   0  0  2  0  0  0  0  0  0  0  0  0
   23.5255  -19.1868  -12.0641 N   0  0  0  0  0  0  0  0  0  0  0  0
   25.2543  -19.8594  -10.4986 C   0  0  0  0  0  0  0  0  0  0  0  0
   26.1281  -19.4005  -11.2895 O   0  0  0  0  0  0  0  0  0  0  0  0
   27.9924  -18.1428   -5.4827 C   0  0  0  0  0  0  0  0  0  0  0  0
   28.1046  -19.3671   -6.4256 C   0  0  1  0  0  0  0  0  0  0  0  0
   28.2367  -20.5456   -5.4663 C   0  0  0  0  0  0  0  0  0  0  0  0
   26.8717  -19.4742   -7.2482 C   0  0  0  0  0  0  0  0  0  0  0  0
   26.9757  -19.8597   -8.6668 C   0  0  2  0  0  0  0  0  0  0  0  0
   25.5636  -20.0593   -9.1507 N   0  0  0  0  0  0  0  0  0  0  0  0
   27.7831  -20.9888   -9.0925 C   0  0  0  0  0  0  0  0  0  0  0  0
   27.1884  -22.1389   -9.0709 O   0  0  0  0  0  0  0  0  0  0  0  0
   29.1332  -20.9352   -9.5366 N   0  0  0  0  0  0  0  0  0  0  0  0
   29.9284  -19.7362   -9.7113 C   0  0  0  0  0  0  0  0  0  0  0  0
   30.4642  -20.0618  -11.1338 C   0  0  0  0  0  0  0  0  0  0  0  0
   31.0343  -21.4353  -10.8633 C   0  0  0  0  0  0  0  0  0  0  0  0
   29.9293  -22.0513   -9.9844 C   0  0  1  0  0  0  0  0  0  0  0  0
   30.5866  -22.8410   -8.9582 C   0  0  0  0  0  0  0  0  0  0  0  0
   30.5911  -22.4924   -7.7637 O   0  0  0  0  0  0  0  0  0  0  0  0
   31.2423  -24.0409   -9.3162 O   0  0  0  0  0  0  0  0  0  0  0  0
  2  1  1  1
  2  3  1  0
  4  2  1  0
  5  4  1  0
  5  6  1  6
  7  8  2  0
  7  5  1  0
 10  9  1  1
 11 10  1  0
 12 10  1  0
 13 12  1  1
 13 14  1  0
 14  7  1  0
 15 13  1  0
 16 15  2  0
 17 15  1  0
 18 17  1  0
 19 18  1  0
 19 20  1  0
 20 21  1  0
 21 17  1  0
 21 22  1  1
 23 22  2  0
 24 22  1  0
M  END
$$$$
