LLP.pdb
     RDKit          3D

 24 24  0  0  1  0  0  0  0  0999 V2000
   27.2813  -15.2108  -14.9449 C   0  0  0  0  0  0  0  0  0  0  0  0
   26.8388  -15.7428  -16.3051 C   0  0  2  0  0  0  0  0  0  0  0  0
   25.8983  -14.7499  -16.9707 C   0  0  0  0  0  0  0  0  0  0  0  0
   26.1059  -17.0566  -16.0964 C   0  0  0  0  0  0  0  0  0  0  0  0
   26.9792  -17.9996  -15.3044 C   0  0  2  0  0  0  0  0  0  0  0  0
   28.0808  -18.4927  -16.1072 N   0  0  0  0  0  0  0  0  0  0  0  0
   26.1206  -19.1391  -14.8298 C   0  0  0  0  0  0  0  0  0  0  0  0
   26.0099  -20.1431  -15.5908 O   0  0  0  0  0  0  0  0  0  0  0  0
   25.8590  -20.3994   -9.5143 C   0  0  0  0  0  0  0  0  0  0  0  0
   26.0094  -20.5753  -11.0463 C   0  0  1  0  0  0  0  0  0  0  0  0
   26.4543  -22.0264  -11.1971 C   0  0  0  0  0  0  0  0  0  0  0  0
   24.6977  -20.3400  -11.7037 C   0  0  0  0  0  0  0  0  0  0  0  0
   24.6202  -20.2915  -13.1746 C   0  0  2  0  0  0  0  0  0  0  0  0
   25.4592  -19.1151  -13.5992 N   0  0  0  0  0  0  0  0  0  0  0  0
   23.3464  -20.2362  -13.8692 C   0  0  0  0  0  0  0  0  0  0  0  0
   22.9327  -19.0494  -14.1810 O   0  0  0  0  0  0  0  0  0  0  0  0
   22.5445  -21.3502  -14.2417 N   0  0  0  0  0  0  0  0  0  0  0  0
   22.9639  -22.7374  -14.2590 C   0  0  0  0  0  0  0  0  0  0  0  0
   22.4370  -23.0838  -15.6799 C   0  0  0  0  0  0  0  0  0  0  0  0
   21.0060  -22.6241  -15.5202 C   0  0  0  0  0  0  0  0  0  0  0  0
   21.1996  -21.2984  -14.7598 C   0  0  1  0  0  0  0  0  0  0  0  0
   20.1259  -21.2002  -13.7870 C   0  0  0  0  0  0  0  0  0  0  0  0
   20.3243  -21.3712  -12.5705 O   0  0  0  0  0  0  0  0  0  0  0  0
   18.8151  -20.9023  -14.2243 O   0  0  0  0  0  0  0  0  0  0  0  0
  2  1  1  1
  2  3  1  0
  4  2  1  0
  5  4  1  0
  5  6  1  6
  7  8  2  0
  7  5  1  0
 10  9  1  1
 11 10  1  0
 12 10  1  0
 13 12  1  1
 13 14  1  0
 14  7  1  0
 15 13  1  0
 16 15  2  0
 17 15  1  0
 18 17  1  0
 19 18  1  0
 19 20  1  0
 20 21  1  0
 21 17  1  0
 21 22  1  1
 23 22  2  0
 24 22  1  0
M  END
$$$$
