LLP.pdb
     RDKit          3D

 24 24  0  0  1  0  0  0  0  0999 V2000
   23.8132  -21.1642  -12.6041 C   0  0  0  0  0  0  0  0  0  0  0  0
   23.9148  -19.7122  -12.1454 C   0  0  2  0  0  0  0  0  0  0  0  0
   23.9483  -18.7869  -13.3520 C   0  0  0  0  0  0  0  0  0  0  0  0
   25.2004  -19.5428  -11.3547 C   0  0  0  0  0  0  0  0  0  0  0  0
   25.2268  -20.5362  -10.2182 C   0  0  2  0  0  0  0  0  0  0  0  0
   23.9961  -20.4908   -9.4538 N   0  0  0  0  0  0  0  0  0  0  0  0
   26.4044  -20.2083   -9.3426 C   0  0  0  0  0  0  0  0  0  0  0  0
   27.5333  -20.0939   -9.9011 O   0  0  0  0  0  0  0  0  0  0  0  0
   26.6957  -16.3628   -5.3761 C   0  0  0  0  0  0  0  0  0  0  0  0
   27.1615  -17.2446   -6.5618 C   0  0  1  0  0  0  0  0  0  0  0  0
   28.6047  -16.8058   -6.7877 C   0  0  0  0  0  0  0  0  0  0  0  0
   27.0856  -18.6772   -6.1743 C   0  0  0  0  0  0  0  0  0  0  0  0
   27.5021  -19.7133   -7.1361 C   0  0  2  0  0  0  0  0  0  0  0  0
   26.2835  -20.0318   -7.9618 N   0  0  0  0  0  0  0  0  0  0  0  0
   28.1133  -20.9561   -6.7003 C   0  0  0  0  0  0  0  0  0  0  0  0
   27.2935  -21.9358   -6.4878 O   0  0  0  0  0  0  0  0  0  0  0  0
   29.5038  -21.1858   -6.5092 N   0  0  0  0  0  0  0  0  0  0  0  0
   30.5816  -20.3292   -6.9621 C   0  0  0  0  0  0  0  0  0  0  0  0
   31.4506  -21.4382   -7.6190 C   0  0  0  0  0  0  0  0  0  0  0  0
   31.5469  -22.3884   -6.4474 C   0  0  0  0  0  0  0  0  0  0  0  0
   30.1018  -22.3559   -5.9150 C   0  0  1  0  0  0  0  0  0  0  0  0
   30.1771  -22.3888   -4.4651 C   0  0  0  0  0  0  0  0  0  0  0  0
   29.8854  -21.3989   -3.7699 O   0  0  0  0  0  0  0  0  0  0  0  0
   30.5923  -23.5739   -3.8161 O   0  0  0  0  0  0  0  0  0  0  0  0
  2  1  1  6
  2  3  1  0
  4  2  1  0
  5  4  1  0
  5  6  1  1
  7  8  2  0
  7  5  1  0
 10  9  1  1
 11 10  1  0
 12 10  1  0
 13 12  1  1
 13 14  1  0
 14  7  1  0
 15 13  1  0
 16 15  2  0
 17 15  1  0
 18 17  1  0
 19 18  1  0
 19 20  1  0
 20 21  1  0
 21 17  1  0
 21 22  1  1
 23 22  2  0
 24 22  1  0
M  END
$$$$
