LLP.pdb
     RDKit          3D

 24 24  0  0  1  0  0  0  0  0999 V2000
   20.1424  -23.1934  -15.3207 C   0  0  0  0  0  0  0  0  0  0  0  0
   19.7380  -21.7728  -15.7043 C   0  0  2  0  0  0  0  0  0  0  0  0
   19.5817  -21.6663  -17.2135 C   0  0  0  0  0  0  0  0  0  0  0  0
   20.8292  -20.8190  -15.2503 C   0  0  0  0  0  0  0  0  0  0  0  0
   21.1650  -21.0907  -13.8037 C   0  0  2  0  0  0  0  0  0  0  0  0
   20.1808  -20.5016  -12.9176 N   0  0  0  0  0  0  0  0  0  0  0  0
   22.5297  -20.5220  -13.5294 C   0  0  0  0  0  0  0  0  0  0  0  0
   22.6427  -19.2626  -13.5025 O   0  0  0  0  0  0  0  0  0  0  0  0
   25.6192  -21.7443   -9.4521 C   0  0  0  0  0  0  0  0  0  0  0  0
   24.8837  -20.9926  -10.5899 C   0  0  1  0  0  0  0  0  0  0  0  0
   25.0247  -19.5253  -10.1979 C   0  0  0  0  0  0  0  0  0  0  0  0
   25.5554  -21.2738  -11.8852 C   0  0  0  0  0  0  0  0  0  0  0  0
   25.0044  -20.7050  -13.1282 C   0  0  2  0  0  0  0  0  0  0  0  0
   23.6470  -21.3317  -13.3093 N   0  0  0  0  0  0  0  0  0  0  0  0
   25.7275  -20.7769  -14.3852 C   0  0  0  0  0  0  0  0  0  0  0  0
   25.2939  -21.6594  -15.2278 O   0  0  0  0  0  0  0  0  0  0  0  0
   26.8332  -19.9670  -14.7649 N   0  0  0  0  0  0  0  0  0  0  0  0
   27.3723  -18.8505  -14.0144 C   0  0  0  0  0  0  0  0  0  0  0  0
   27.4349  -17.8357  -15.1903 C   0  0  0  0  0  0  0  0  0  0  0  0
   28.2246  -18.6651  -16.1768 C   0  0  0  0  0  0  0  0  0  0  0  0
   27.5617  -20.0453  -16.0071 C   0  0  1  0  0  0  0  0  0  0  0  0
   28.6157  -21.0410  -16.0870 C   0  0  0  0  0  0  0  0  0  0  0  0
   29.0165  -21.6551  -15.0817 O   0  0  0  0  0  0  0  0  0  0  0  0
   29.2094  -21.3279  -17.3373 O   0  0  0  0  0  0  0  0  0  0  0  0
  2  1  1  6
  2  3  1  0
  4  2  1  0
  5  4  1  0
  5  6  1  1
  7  8  2  0
  7  5  1  0
 10  9  1  1
 11 10  1  0
 12 10  1  0
 13 12  1  1
 13 14  1  0
 14  7  1  0
 15 13  1  0
 16 15  2  0
 17 15  1  0
 18 17  1  0
 19 18  1  0
 19 20  1  0
 20 21  1  0
 21 17  1  0
 21 22  1  1
 23 22  2  0
 24 22  1  0
M  END
$$$$
