LLP.pdb
     RDKit          3D

 24 24  0  0  1  0  0  0  0  0999 V2000
   15.1713  -11.3812  -18.6233 C   0  0  0  0  0  0  0  0  0  0  0  0
   16.6658  -11.3736  -18.3144 C   0  0  2  0  0  0  0  0  0  0  0  0
   17.4527  -11.8062  -19.5420 C   0  0  0  0  0  0  0  0  0  0  0  0
   16.9320  -12.3528  -17.1844 C   0  0  0  0  0  0  0  0  0  0  0  0
   18.4209  -12.4817  -16.9706 C   0  0  2  0  0  0  0  0  0  0  0  0
   18.7402  -13.6757  -16.2134 N   0  0  0  0  0  0  0  0  0  0  0  0
   18.8935  -11.2534  -16.2433 C   0  0  0  0  0  0  0  0  0  0  0  0
   18.2577  -10.9085  -15.2058 O   0  0  0  0  0  0  0  0  0  0  0  0
   23.6221  -10.5407  -14.1395 C   0  0  0  0  0  0  0  0  0  0  0  0
   22.0922  -10.3487  -14.2911 C   0  0  1  0  0  0  0  0  0  0  0  0
   21.6958   -9.6171  -13.0128 C   0  0  0  0  0  0  0  0  0  0  0  0
   21.8127   -9.5244  -15.4955 C   0  0  0  0  0  0  0  0  0  0  0  0
   20.4172   -9.2833  -15.9034 C   0  0  2  0  0  0  0  0  0  0  0  0
   19.9903  -10.5037  -16.6758 N   0  0  0  0  0  0  0  0  0  0  0  0
   20.0351   -8.0972  -16.6485 C   0  0  0  0  0  0  0  0  0  0  0  0
   20.0775   -8.2113  -17.9377 O   0  0  0  0  0  0  0  0  0  0  0  0
   19.6120   -6.8577  -16.0939 N   0  0  0  0  0  0  0  0  0  0  0  0
   19.3325   -6.5982  -14.6957 C   0  0  0  0  0  0  0  0  0  0  0  0
   17.9594   -5.8975  -14.8971 C   0  0  0  0  0  0  0  0  0  0  0  0
   18.3762   -4.8432  -15.8969 C   0  0  0  0  0  0  0  0  0  0  0  0
   19.2924   -5.6587  -16.8288 C   0  0  1  0  0  0  0  0  0  0  0  0
   20.4040   -4.8002  -17.1976 C   0  0  0  0  0  0  0  0  0  0  0  0
   21.5532   -4.9892  -16.7593 O   0  0  0  0  0  0  0  0  0  0  0  0
   20.1847   -3.7168  -18.0786 O   0  0  0  0  0  0  0  0  0  0  0  0
  2  1  1  6
  2  3  1  0
  4  2  1  0
  5  4  1  0
  5  6  1  1
  7  8  2  0
  7  5  1  0
 10  9  1  1
 11 10  1  0
 12 10  1  0
 13 12  1  6
 13 14  1  0
 14  7  1  0
 15 13  1  0
 16 15  2  0
 17 15  1  0
 18 17  1  0
 19 18  1  0
 19 20  1  0
 20 21  1  0
 21 17  1  0
 21 22  1  1
 23 22  2  0
 24 22  1  0
M  END
$$$$
