LLP.pdb
     RDKit          3D

 24 24  0  0  1  0  0  0  0  0999 V2000
   24.1465  -21.5242  -12.5105 C   0  0  0  0  0  0  0  0  0  0  0  0
   24.0840  -20.0469  -12.1328 C   0  0  2  0  0  0  0  0  0  0  0  0
   24.0677  -19.1894  -13.3889 C   0  0  0  0  0  0  0  0  0  0  0  0
   25.3162  -19.7036  -11.3140 C   0  0  0  0  0  0  0  0  0  0  0  0
   25.3749  -20.5935  -10.0959 C   0  0  2  0  0  0  0  0  0  0  0  0
   24.2119  -20.4040   -9.2519 N   0  0  0  0  0  0  0  0  0  0  0  0
   26.6336  -20.2653   -9.3416 C   0  0  0  0  0  0  0  0  0  0  0  0
   27.7231  -20.2939   -9.9834 O   0  0  0  0  0  0  0  0  0  0  0  0
   27.9215  -17.2090   -4.2816 C   0  0  0  0  0  0  0  0  0  0  0  0
   28.6093  -18.1261   -5.3239 C   0  0  1  0  0  0  0  0  0  0  0  0
   29.0178  -19.3490   -4.5090 C   0  0  0  0  0  0  0  0  0  0  0  0
   27.6358  -18.4850   -6.3877 C   0  0  0  0  0  0  0  0  0  0  0  0
   27.9222  -19.6210   -7.2818 C   0  0  2  0  0  0  0  0  0  0  0  0
   26.6278  -19.9380   -7.9833 N   0  0  0  0  0  0  0  0  0  0  0  0
   28.5022  -20.8554   -6.7838 C   0  0  0  0  0  0  0  0  0  0  0  0
   27.6532  -21.7627   -6.4193 O   0  0  0  0  0  0  0  0  0  0  0  0
   29.8900  -21.1496   -6.6822 N   0  0  0  0  0  0  0  0  0  0  0  0
   30.9736  -20.3579   -7.2294 C   0  0  0  0  0  0  0  0  0  0  0  0
   31.7406  -21.5232   -7.9154 C   0  0  0  0  0  0  0  0  0  0  0  0
   31.8723  -22.4506   -6.7291 C   0  0  0  0  0  0  0  0  0  0  0  0
   30.4708  -22.3344   -6.1002 C   0  0  1  0  0  0  0  0  0  0  0  0
   30.6450  -22.3386   -4.6586 C   0  0  0  0  0  0  0  0  0  0  0  0
   31.0263  -23.3525   -4.0462 O   0  0  0  0  0  0  0  0  0  0  0  0
   30.3765  -21.1628   -3.9213 O   0  0  0  0  0  0  0  0  0  0  0  0
  2  1  1  6
  2  3  1  0
  4  2  1  0
  5  4  1  0
  5  6  1  1
  7  8  2  0
  7  5  1  0
 10  9  1  1
 11 10  1  0
 12 10  1  0
 13 12  1  1
 13 14  1  0
 14  7  1  0
 15 13  1  0
 16 15  2  0
 17 15  1  0
 18 17  1  0
 19 18  1  0
 19 20  1  0
 20 21  1  0
 21 17  1  0
 21 22  1  1
 23 22  2  0
 24 22  1  0
M  END
$$$$
