LLP.pdb
     RDKit          3D

 24 24  0  0  1  0  0  0  0  0999 V2000
   27.7462  -18.5783  -19.2400 C   0  0  0  0  0  0  0  0  0  0  0  0
   27.7832  -18.1392  -17.7789 C   0  0  2  0  0  0  0  0  0  0  0  0
   29.2242  -18.0403  -17.3021 C   0  0  0  0  0  0  0  0  0  0  0  0
   27.0543  -19.1764  -16.9426 C   0  0  0  0  0  0  0  0  0  0  0  0
   26.0803  -18.4845  -16.0197 C   0  0  2  0  0  0  0  0  0  0  0  0
   26.7716  -17.6387  -15.0669 N   0  0  0  0  0  0  0  0  0  0  0  0
   25.2852  -19.5427  -15.3063 C   0  0  0  0  0  0  0  0  0  0  0  0
   25.0410  -20.6126  -15.9350 O   0  0  0  0  0  0  0  0  0  0  0  0
   25.8026  -20.5499   -9.9644 C   0  0  0  0  0  0  0  0  0  0  0  0
   25.7008  -20.6737  -11.5054 C   0  0  1  0  0  0  0  0  0  0  0  0
   26.1260  -22.1132  -11.7768 C   0  0  0  0  0  0  0  0  0  0  0  0
   24.2972  -20.4345  -11.9306 C   0  0  0  0  0  0  0  0  0  0  0  0
   23.9618  -20.4378  -13.3657 C   0  0  2  0  0  0  0  0  0  0  0  0
   24.8218  -19.3758  -13.9988 N   0  0  0  0  0  0  0  0  0  0  0  0
   22.5956  -20.2753  -13.8294 C   0  0  0  0  0  0  0  0  0  0  0  0
   22.2158  -19.0532  -14.0271 O   0  0  0  0  0  0  0  0  0  0  0  0
   21.6692  -21.3214  -14.0945 N   0  0  0  0  0  0  0  0  0  0  0  0
   21.9667  -22.7396  -14.1225 C   0  0  0  0  0  0  0  0  0  0  0  0
   21.2708  -23.0592  -15.4753 C   0  0  0  0  0  0  0  0  0  0  0  0
   19.9071  -22.4762  -15.1835 C   0  0  0  0  0  0  0  0  0  0  0  0
   20.2877  -21.1616  -14.4763 C   0  0  1  0  0  0  0  0  0  0  0  0
   19.3306  -20.9580  -13.4034 C   0  0  0  0  0  0  0  0  0  0  0  0
   19.6347  -21.1350  -12.2098 O   0  0  0  0  0  0  0  0  0  0  0  0
   18.0140  -20.5472  -13.7133 O   0  0  0  0  0  0  0  0  0  0  0  0
  2  1  1  6
  2  3  1  0
  4  2  1  0
  5  4  1  0
  5  6  1  1
  7  8  2  0
  7  5  1  0
 10  9  1  1
 11 10  1  0
 12 10  1  0
 13 12  1  1
 13 14  1  0
 14  7  1  0
 15 13  1  0
 16 15  2  0
 17 15  1  0
 18 17  1  0
 19 18  1  0
 19 20  1  0
 20 21  1  0
 21 17  1  0
 21 22  1  1
 23 22  2  0
 24 22  1  0
M  END
$$$$
