MGL.pdb
     RDKit          3D

 21 20  0  0  1  0  0  0  0  0999 V2000
    6.4105  -11.6385   18.2780 C   0  0  0  0  0  0  0  0  0  0  0  0
    7.8065  -12.6906   18.6406 S   0  0  0  0  0  0  0  0  0  0  0  0
    7.3510  -14.1821   19.4893 C   0  0  0  0  0  0  0  0  0  0  0  0
    8.4973  -15.0081   19.9515 C   0  0  0  0  0  0  0  0  0  0  0  0
    8.1721  -16.2484   20.7071 C   0  0  2  0  0  0  0  0  0  0  0  0
    7.0668  -16.0897   21.6178 N   0  0  0  0  0  0  0  0  0  0  0  0
    9.3664  -16.7304   21.4943 C   0  0  0  0  0  0  0  0  0  0  0  0
   10.2133  -17.4374   20.8682 O   0  0  0  0  0  0  0  0  0  0  0  0
    9.4867  -16.3829   22.8578 N   0  0  0  0  0  0  0  0  0  0  0  0
   10.7818  -16.0569   23.3913 C   0  0  0  0  0  0  0  0  0  0  0  0
   10.6419  -15.6993   24.8219 C   0  0  0  0  0  0  0  0  0  0  0  0
   11.6681  -15.3357   25.4499 O   0  0  0  0  0  0  0  0  0  0  0  0
    8.6712  -12.4040   26.6619 C   0  0  0  0  0  0  0  0  0  0  0  0
    7.7315  -13.4944   26.1323 C   0  0  2  0  0  0  0  0  0  0  0  0
    6.3057  -12.9625   26.2904 C   0  0  0  0  0  0  0  0  0  0  0  0
    7.8964  -14.6777   27.0130 C   0  0  0  0  0  0  0  0  0  0  0  0
    9.2155  -15.3813   26.8895 C   0  0  2  0  0  0  0  0  0  0  0  0
    9.3864  -15.7551   25.5019 N   0  0  0  0  0  0  0  0  0  0  0  0
    9.4242  -16.4851   27.8162 C   0  0  0  0  0  0  0  0  0  0  0  0
    9.4399  -16.2893   29.0445 O   0  0  0  0  0  0  0  0  0  0  0  0
    9.6076  -17.7642   27.3443 O   0  0  0  0  0  0  0  0  0  0  0  0
  2  1  1  0
  3  2  1  0
  4  5  1  0
  4  3  1  0
  5  6  1  1
  7  5  1  0
  7  8  2  0
  9  7  1  0
 10  9  1  0
 10 11  1  0
 11 18  1  0
 12 11  2  0
 14 13  1  1
 14 15  1  0
 16 14  1  0
 17 16  1  6
 17 19  1  0
 18 17  1  0
 19 21  1  0
 20 19  2  0
M  END
$$$$
