MGL.pdb
     RDKit          3D

 21 20  0  0  1  0  0  0  0  0999 V2000
    9.3185  -12.3200   19.5005 C   0  0  0  0  0  0  0  0  0  0  0  0
    8.4421  -12.7377   18.0023 S   0  0  0  0  0  0  0  0  0  0  0  0
    8.1829  -14.4838   17.8122 C   0  0  0  0  0  0  0  0  0  0  0  0
    7.5521  -15.1489   18.9826 C   0  0  0  0  0  0  0  0  0  0  0  0
    8.4673  -15.6822   20.0280 C   0  0  2  0  0  0  0  0  0  0  0  0
    9.1340  -16.8986   19.6376 N   0  0  0  0  0  0  0  0  0  0  0  0
    7.7233  -15.9444   21.3149 C   0  0  0  0  0  0  0  0  0  0  0  0
    7.1449  -14.9506   21.8507 O   0  0  0  0  0  0  0  0  0  0  0  0
    7.7034  -17.2499   21.8531 N   0  0  0  0  0  0  0  0  0  0  0  0
    7.0672  -17.4804   23.1220 C   0  0  0  0  0  0  0  0  0  0  0  0
    7.7461  -16.6706   24.1600 C   0  0  0  0  0  0  0  0  0  0  0  0
    9.0016  -16.6979   24.2126 O   0  0  0  0  0  0  0  0  0  0  0  0
    5.8840  -11.8512   27.4586 C   0  0  0  0  0  0  0  0  0  0  0  0
    7.1024  -12.7134   27.1056 C   0  0  2  0  0  0  0  0  0  0  0  0
    8.0058  -11.8568   26.2163 C   0  0  0  0  0  0  0  0  0  0  0  0
    6.6066  -13.8638   26.3097 C   0  0  0  0  0  0  0  0  0  0  0  0
    7.6481  -14.8813   25.9488 C   0  0  2  0  0  0  0  0  0  0  0  0
    7.0223  -15.8673   25.0940 N   0  0  0  0  0  0  0  0  0  0  0  0
    8.3689  -15.4634   27.0723 C   0  0  0  0  0  0  0  0  0  0  0  0
    9.3170  -14.8569   27.6019 O   0  0  0  0  0  0  0  0  0  0  0  0
    8.0101  -16.6966   27.5651 O   0  0  0  0  0  0  0  0  0  0  0  0
  2  1  1  0
  3  2  1  0
  4  5  1  0
  4  3  1  0
  5  6  1  6
  7  5  1  0
  7  8  2  0
  9  7  1  0
 10  9  1  0
 10 11  1  0
 11 18  1  0
 12 11  2  0
 14 13  1  6
 14 15  1  0
 16 14  1  0
 17 16  1  1
 17 19  1  0
 18 17  1  0
 19 21  1  0
 20 19  2  0
M  END
$$$$
