MGL.pdb
     RDKit          3D

 21 20  0  0  1  0  0  0  0  0999 V2000
    9.0815  -12.0537   19.9010 C   0  0  0  0  0  0  0  0  0  0  0  0
    7.8156  -12.4622   18.7103 S   0  0  0  0  0  0  0  0  0  0  0  0
    7.2187  -14.1263   18.8735 C   0  0  0  0  0  0  0  0  0  0  0  0
    8.1922  -15.0796   19.4679 C   0  0  0  0  0  0  0  0  0  0  0  0
    7.7121  -16.4666   19.7138 C   0  0  2  0  0  0  0  0  0  0  0  0
    6.4592  -16.7612   19.0658 N   0  0  0  0  0  0  0  0  0  0  0  0
    7.5520  -16.7292   21.1915 C   0  0  0  0  0  0  0  0  0  0  0  0
    6.4773  -16.3226   21.7288 O   0  0  0  0  0  0  0  0  0  0  0  0
    8.5783  -17.3983   21.8941 N   0  0  0  0  0  0  0  0  0  0  0  0
    8.3909  -17.7152   23.2843 C   0  0  0  0  0  0  0  0  0  0  0  0
    8.7511  -16.5354   24.1043 C   0  0  0  0  0  0  0  0  0  0  0  0
    9.9690  -16.2749   24.2736 O   0  0  0  0  0  0  0  0  0  0  0  0
    5.5723  -12.1247   27.0389 C   0  0  0  0  0  0  0  0  0  0  0  0
    6.9626  -12.7511   26.8730 C   0  0  2  0  0  0  0  0  0  0  0  0
    7.8656  -11.6686   26.2785 C   0  0  0  0  0  0  0  0  0  0  0  0
    6.8298  -13.8522   25.8867 C   0  0  0  0  0  0  0  0  0  0  0  0
    8.0787  -14.6502   25.6550 C   0  0  2  0  0  0  0  0  0  0  0  0
    7.7639  -15.6932   24.7024 N   0  0  0  0  0  0  0  0  0  0  0  0
    8.7373  -15.1433   26.8566 C   0  0  0  0  0  0  0  0  0  0  0  0
    8.3635  -16.1988   27.3985 O   0  0  0  0  0  0  0  0  0  0  0  0
    9.7854  -14.4461   27.4112 O   0  0  0  0  0  0  0  0  0  0  0  0
  2  1  1  0
  3  2  1  0
  4  5  1  0
  4  3  1  0
  5  6  1  6
  7  5  1  0
  7  8  2  0
  9  7  1  0
 10  9  1  0
 10 11  1  0
 11 18  1  0
 12 11  2  0
 14 13  1  6
 14 15  1  0
 16 14  1  0
 17 16  1  1
 17 19  1  0
 18 17  1  0
 19 21  1  0
 20 19  2  0
M  END
$$$$
