MGL.pdb
     RDKit          3D

 21 20  0  0  1  0  0  0  0  0999 V2000
    3.3424  -21.2034   18.7128 C   0  0  0  0  0  0  0  0  0  0  0  0
    2.8761  -20.7739   20.3817 S   0  0  0  0  0  0  0  0  0  0  0  0
    3.2107  -19.0769   20.7822 C   0  0  0  0  0  0  0  0  0  0  0  0
    4.6543  -18.7305   20.8605 C   0  0  0  0  0  0  0  0  0  0  0  0
    5.1289  -18.1044   22.1244 C   0  0  2  0  0  0  0  0  0  0  0  0
    4.2341  -17.0965   22.6343 N   0  0  0  0  0  0  0  0  0  0  0  0
    6.4893  -17.4772   21.9392 C   0  0  0  0  0  0  0  0  0  0  0  0
    7.4541  -18.2678   21.7089 O   0  0  0  0  0  0  0  0  0  0  0  0
    6.6262  -16.0744   22.0280 N   0  0  0  0  0  0  0  0  0  0  0  0
    7.9278  -15.4816   21.8780 C   0  0  0  0  0  0  0  0  0  0  0  0
    8.4815  -15.1798   23.2183 C   0  0  0  0  0  0  0  0  0  0  0  0
    9.7008  -14.8883   23.3091 O   0  0  0  0  0  0  0  0  0  0  0  0
    8.4291  -11.9503   26.2724 C   0  0  0  0  0  0  0  0  0  0  0  0
    7.1365  -12.6786   25.8835 C   0  0  2  0  0  0  0  0  0  0  0  0
    5.9906  -11.9490   26.5872 C   0  0  0  0  0  0  0  0  0  0  0  0
    7.2297  -14.0549   26.4312 C   0  0  0  0  0  0  0  0  0  0  0  0
    8.2000  -14.9545   25.7244 C   0  0  2  0  0  0  0  0  0  0  0  0
    7.6776  -15.2101   24.3992 N   0  0  0  0  0  0  0  0  0  0  0  0
    8.5684  -16.1653   26.4448 C   0  0  0  0  0  0  0  0  0  0  0  0
    7.9629  -17.2332   26.2440 O   0  0  0  0  0  0  0  0  0  0  0  0
    9.5945  -16.1447   27.3606 O   0  0  0  0  0  0  0  0  0  0  0  0
  2  1  1  0
  3  2  1  0
  4  5  1  0
  4  3  1  0
  5  6  1  6
  7  5  1  0
  7  8  2  0
  9  7  1  0
 10  9  1  0
 10 11  1  0
 11 18  1  0
 12 11  2  0
 14 13  1  1
 14 15  1  0
 16 14  1  0
 17 16  1  1
 17 19  1  0
 18 17  1  0
 19 21  1  0
 20 19  2  0
M  END
$$$$
