MGL.pdb
     RDKit          3D

 21 20  0  0  1  0  0  0  0  0999 V2000
    6.5071  -11.2620   24.8680 C   0  0  0  0  0  0  0  0  0  0  0  0
    6.4457  -12.7889   25.7910 S   0  0  0  0  0  0  0  0  0  0  0  0
    6.7519  -14.2209   24.7871 C   0  0  0  0  0  0  0  0  0  0  0  0
    7.2137  -13.9235   23.4057 C   0  0  0  0  0  0  0  0  0  0  0  0
    7.5340  -15.0889   22.5372 C   0  0  2  0  0  0  0  0  0  0  0  0
    6.8391  -16.2928   22.9169 N   0  0  0  0  0  0  0  0  0  0  0  0
    9.0155  -15.3771   22.5443 C   0  0  0  0  0  0  0  0  0  0  0  0
    9.7864  -14.4028   22.2880 O   0  0  0  0  0  0  0  0  0  0  0  0
    9.4682  -16.6843   22.8284 N   0  0  0  0  0  0  0  0  0  0  0  0
   10.8813  -16.9421   22.8986 C   0  0  0  0  0  0  0  0  0  0  0  0
   11.3285  -16.8177   24.3052 C   0  0  0  0  0  0  0  0  0  0  0  0
   12.5415  -17.0187   24.5664 O   0  0  0  0  0  0  0  0  0  0  0  0
    9.0949  -14.2228   29.3806 C   0  0  0  0  0  0  0  0  0  0  0  0
   10.1876  -15.1645   28.8592 C   0  0  2  0  0  0  0  0  0  0  0  0
   11.5091  -14.3988   28.9490 C   0  0  0  0  0  0  0  0  0  0  0  0
    9.8892  -15.4293   27.4296 C   0  0  0  0  0  0  0  0  0  0  0  0
   10.8351  -16.3737   26.7486 C   0  0  2  0  0  0  0  0  0  0  0  0
   10.4299  -16.4793   25.3633 N   0  0  0  0  0  0  0  0  0  0  0  0
   11.0077  -17.6641   27.4011 C   0  0  0  0  0  0  0  0  0  0  0  0
   10.2171  -18.5987   27.1801 O   0  0  0  0  0  0  0  0  0  0  0  0
   12.0510  -17.8680   28.2741 O   0  0  0  0  0  0  0  0  0  0  0  0
  2  1  1  0
  3  2  1  0
  4  5  1  0
  4  3  1  0
  5  6  1  1
  7  5  1  0
  7  8  2  0
  9  7  1  0
 10  9  1  0
 10 11  1  0
 11 18  1  0
 12 11  2  0
 14 13  1  6
 14 15  1  0
 16 14  1  0
 17 16  1  1
 17 19  1  0
 18 17  1  0
 19 21  1  0
 20 19  2  0
M  END
$$$$
