MGL.pdb
     RDKit          3D

 21 20  0  0  1  0  0  0  0  0999 V2000
    5.4266  -12.3494   26.4234 C   0  0  0  0  0  0  0  0  0  0  0  0
    6.7938  -12.7794   25.3590 S   0  0  0  0  0  0  0  0  0  0  0  0
    6.2781  -13.3106   23.7453 C   0  0  0  0  0  0  0  0  0  0  0  0
    7.3898  -13.6571   22.8210 C   0  0  0  0  0  0  0  0  0  0  0  0
    7.7352  -15.0991   22.6940 C   0  0  2  0  0  0  0  0  0  0  0  0
    7.1793  -15.9147   23.7438 N   0  0  0  0  0  0  0  0  0  0  0  0
    9.2314  -15.2976   22.6845 C   0  0  0  0  0  0  0  0  0  0  0  0
    9.8513  -14.9049   21.6498 O   0  0  0  0  0  0  0  0  0  0  0  0
    9.8605  -15.8961   23.7983 N   0  0  0  0  0  0  0  0  0  0  0  0
   11.2488  -16.2614   23.7125 C   0  0  0  0  0  0  0  0  0  0  0  0
   11.7070  -16.7431   25.0362 C   0  0  0  0  0  0  0  0  0  0  0  0
   12.8350  -17.2920   25.1144 O   0  0  0  0  0  0  0  0  0  0  0  0
   11.5886  -13.4427   28.7827 C   0  0  0  0  0  0  0  0  0  0  0  0
   11.2634  -14.5161   27.7364 C   0  0  2  0  0  0  0  0  0  0  0  0
    9.8331  -14.2507   27.2626 C   0  0  0  0  0  0  0  0  0  0  0  0
   11.2972  -15.8270   28.4315 C   0  0  0  0  0  0  0  0  0  0  0  0
   11.3534  -17.0229   27.5277 C   0  0  2  0  0  0  0  0  0  0  0  0
   10.9117  -16.6033   26.2150 N   0  0  0  0  0  0  0  0  0  0  0  0
   10.6661  -18.2095   28.0177 C   0  0  0  0  0  0  0  0  0  0  0  0
   10.9352  -18.6834   29.1359 O   0  0  0  0  0  0  0  0  0  0  0  0
    9.7065  -18.8252   27.2480 O   0  0  0  0  0  0  0  0  0  0  0  0
  2  1  1  0
  3  2  1  0
  4  5  1  0
  4  3  1  0
  5  6  1  1
  7  5  1  0
  7  8  2  0
  9  7  1  0
 10  9  1  0
 10 11  1  0
 11 18  1  0
 12 11  2  0
 14 13  1  1
 14 15  1  0
 16 14  1  0
 17 16  1  1
 17 19  1  0
 18 17  1  0
 19 21  1  0
 20 19  2  0
M  END
$$$$
