MGL.pdb
     RDKit          3D

 21 20  0  0  1  0  0  0  0  0999 V2000
    8.1178  -11.7261   19.7907 C   0  0  0  0  0  0  0  0  0  0  0  0
    6.5784  -12.6288   19.8388 S   0  0  0  0  0  0  0  0  0  0  0  0
    6.7641  -14.2881   20.4425 C   0  0  0  0  0  0  0  0  0  0  0  0
    8.1589  -14.8023   20.4263 C   0  0  0  0  0  0  0  0  0  0  0  0
    8.3760  -16.1769   20.9535 C   0  0  2  0  0  0  0  0  0  0  0  0
    7.3270  -16.6234   21.8349 N   0  0  0  0  0  0  0  0  0  0  0  0
    9.6871  -16.2703   21.6954 C   0  0  0  0  0  0  0  0  0  0  0  0
   10.7317  -15.9579   21.0470 O   0  0  0  0  0  0  0  0  0  0  0  0
    9.6948  -16.6904   23.0437 N   0  0  0  0  0  0  0  0  0  0  0  0
   10.9403  -16.7376   23.7610 C   0  0  0  0  0  0  0  0  0  0  0  0
   10.7697  -16.0752   25.0748 C   0  0  0  0  0  0  0  0  0  0  0  0
   11.7931  -15.8562   25.7708 O   0  0  0  0  0  0  0  0  0  0  0  0
    8.6915  -12.1749   26.2395 C   0  0  0  0  0  0  0  0  0  0  0  0
    7.7691  -13.3307   25.8321 C   0  0  2  0  0  0  0  0  0  0  0  0
    6.3361  -12.8017   25.9163 C   0  0  0  0  0  0  0  0  0  0  0  0
    7.9393  -14.4022   26.8450 C   0  0  0  0  0  0  0  0  0  0  0  0
    9.2902  -15.0541   26.8579 C   0  0  2  0  0  0  0  0  0  0  0  0
    9.4880  -15.6818   25.5690 N   0  0  0  0  0  0  0  0  0  0  0  0
    9.5430  -15.9461   27.9809 C   0  0  0  0  0  0  0  0  0  0  0  0
    9.8183  -15.4902   29.1051 O   0  0  0  0  0  0  0  0  0  0  0  0
    9.4809  -17.3101   27.8134 O   0  0  0  0  0  0  0  0  0  0  0  0
  2  1  1  0
  3  2  1  0
  4  5  1  0
  4  3  1  0
  5  6  1  1
  7  5  1  0
  7  8  2  0
  9  7  1  0
 10  9  1  0
 10 11  1  0
 11 18  1  0
 12 11  2  0
 14 13  1  1
 14 15  1  0
 16 14  1  0
 17 16  1  6
 17 19  1  0
 18 17  1  0
 19 21  1  0
 20 19  2  0
M  END
$$$$
