MGL.pdb
     RDKit          3D

 21 20  0  0  1  0  0  0  0  0999 V2000
    8.0138  -11.4901   20.0857 C   0  0  0  0  0  0  0  0  0  0  0  0
    6.7772  -12.4512   19.2289 S   0  0  0  0  0  0  0  0  0  0  0  0
    7.0473  -14.2016   19.3540 C   0  0  0  0  0  0  0  0  0  0  0  0
    8.3820  -14.5876   19.8828 C   0  0  0  0  0  0  0  0  0  0  0  0
    8.6486  -16.0432   20.0403 C   0  0  2  0  0  0  0  0  0  0  0  0
    7.4887  -16.7963   20.4451 N   0  0  0  0  0  0  0  0  0  0  0  0
    9.7444  -16.2859   21.0496 C   0  0  0  0  0  0  0  0  0  0  0  0
   10.8402  -15.6763   20.8578 O   0  0  0  0  0  0  0  0  0  0  0  0
    9.5091  -17.1578   22.1353 N   0  0  0  0  0  0  0  0  0  0  0  0
   10.5426  -17.3599   23.1147 C   0  0  0  0  0  0  0  0  0  0  0  0
   10.2193  -16.5778   24.3304 C   0  0  0  0  0  0  0  0  0  0  0  0
   11.0241  -16.6135   25.2952 O   0  0  0  0  0  0  0  0  0  0  0  0
    6.0365  -12.4263   26.0876 C   0  0  0  0  0  0  0  0  0  0  0  0
    7.0898  -13.4238   26.5860 C   0  0  2  0  0  0  0  0  0  0  0  0
    8.2236  -12.5986   27.1977 C   0  0  0  0  0  0  0  0  0  0  0  0
    7.6124  -14.1378   25.3944 C   0  0  0  0  0  0  0  0  0  0  0  0
    8.5120  -15.2998   25.6952 C   0  0  2  0  0  0  0  0  0  0  0  0
    9.0310  -15.7916   24.4369 N   0  0  0  0  0  0  0  0  0  0  0  0
    7.9289  -16.3425   26.5279 C   0  0  0  0  0  0  0  0  0  0  0  0
    6.9543  -17.0042   26.1282 O   0  0  0  0  0  0  0  0  0  0  0  0
    8.4494  -16.6110   27.7726 O   0  0  0  0  0  0  0  0  0  0  0  0
  2  1  1  0
  3  2  1  0
  4  5  1  0
  4  3  1  0
  5  6  1  1
  7  5  1  0
  7  8  2  0
  9  7  1  0
 10  9  1  0
 10 11  1  0
 11 18  1  0
 12 11  2  0
 14 13  1  6
 14 15  1  0
 16 14  1  0
 17 16  1  6
 17 19  1  0
 18 17  1  0
 19 21  1  0
 20 19  2  0
M  END
$$$$
