MGL.pdb
     RDKit          3D

 21 20  0  0  1  0  0  0  0  0999 V2000
    7.0035  -12.0487   24.1697 C   0  0  0  0  0  0  0  0  0  0  0  0
    6.2212  -13.2457   25.2386 S   0  0  0  0  0  0  0  0  0  0  0  0
    6.7346  -14.9129   24.9085 C   0  0  0  0  0  0  0  0  0  0  0  0
    6.3976  -15.4085   23.5481 C   0  0  0  0  0  0  0  0  0  0  0  0
    6.7182  -16.8312   23.2512 C   0  0  2  0  0  0  0  0  0  0  0  0
    6.1151  -17.7579   24.1753 N   0  0  0  0  0  0  0  0  0  0  0  0
    8.2098  -17.0618   23.2578 C   0  0  0  0  0  0  0  0  0  0  0  0
    8.6023  -18.2420   23.5073 O   0  0  0  0  0  0  0  0  0  0  0  0
    9.0815  -15.9826   22.9932 N   0  0  0  0  0  0  0  0  0  0  0  0
   10.4916  -16.2311   22.8589 C   0  0  0  0  0  0  0  0  0  0  0  0
   11.1068  -16.2789   24.2054 C   0  0  0  0  0  0  0  0  0  0  0  0
   12.3086  -16.6343   24.3008 O   0  0  0  0  0  0  0  0  0  0  0  0
    9.5201  -14.1457   29.7535 C   0  0  0  0  0  0  0  0  0  0  0  0
   10.5619  -14.9849   29.0031 C   0  0  2  0  0  0  0  0  0  0  0  0
   11.8690  -14.1902   29.0279 C   0  0  0  0  0  0  0  0  0  0  0  0
   10.1012  -15.0962   27.5966 C   0  0  0  0  0  0  0  0  0  0  0  0
   10.9656  -15.9441   26.7112 C   0  0  2  0  0  0  0  0  0  0  0  0
   10.3808  -15.9360   25.3874 N   0  0  0  0  0  0  0  0  0  0  0  0
   11.2489  -17.2824   27.2105 C   0  0  0  0  0  0  0  0  0  0  0  0
   10.4078  -18.1924   27.1020 O   0  0  0  0  0  0  0  0  0  0  0  0
   12.4548  -17.5597   27.8115 O   0  0  0  0  0  0  0  0  0  0  0  0
  2  1  1  0
  3  2  1  0
  4  5  1  0
  4  3  1  0
  5  6  1  1
  7  5  1  0
  7  8  2  0
  9  7  1  0
 10  9  1  0
 10 11  1  0
 11 18  1  0
 12 11  2  0
 14 13  1  1
 14 15  1  0
 16 14  1  0
 17 16  1  1
 17 19  1  0
 18 17  1  0
 19 21  1  0
 20 19  2  0
M  END
$$$$
