MGL.pdb
     RDKit          3D

 21 20  0  0  1  0  0  0  0  0999 V2000
    5.9586  -12.6771   25.1611 C   0  0  0  0  0  0  0  0  0  0  0  0
    6.5919  -13.9992   26.1799 S   0  0  0  0  0  0  0  0  0  0  0  0
    6.4320  -15.5975   25.4235 C   0  0  0  0  0  0  0  0  0  0  0  0
    6.2330  -15.5702   23.9505 C   0  0  0  0  0  0  0  0  0  0  0  0
    7.0533  -16.5131   23.1426 C   0  0  2  0  0  0  0  0  0  0  0  0
    7.0815  -17.8503   23.6789 N   0  0  0  0  0  0  0  0  0  0  0  0
    8.4759  -16.0238   23.0205 C   0  0  0  0  0  0  0  0  0  0  0  0
    8.6368  -14.8451   22.5800 O   0  0  0  0  0  0  0  0  0  0  0  0
    9.5388  -16.8763   23.3919 N   0  0  0  0  0  0  0  0  0  0  0  0
   10.8903  -16.3896   23.3245 C   0  0  0  0  0  0  0  0  0  0  0  0
   11.4314  -16.2666   24.6979 C   0  0  0  0  0  0  0  0  0  0  0  0
   12.6770  -16.1838   24.8441 O   0  0  0  0  0  0  0  0  0  0  0  0
   11.5872  -13.5329   28.1494 C   0  0  0  0  0  0  0  0  0  0  0  0
   10.1994  -14.0731   27.7819 C   0  0  2  0  0  0  0  0  0  0  0  0
    9.1975  -13.3804   28.7077 C   0  0  0  0  0  0  0  0  0  0  0  0
   10.2019  -15.5255   28.0875 C   0  0  0  0  0  0  0  0  0  0  0  0
   11.0832  -16.3581   27.2042 C   0  0  2  0  0  0  0  0  0  0  0  0
   10.5866  -16.2396   25.8500 N   0  0  0  0  0  0  0  0  0  0  0  0
   11.2734  -17.7369   27.6322 C   0  0  0  0  0  0  0  0  0  0  0  0
   11.8874  -17.9973   28.6823 O   0  0  0  0  0  0  0  0  0  0  0  0
   10.7752  -18.7742   26.8786 O   0  0  0  0  0  0  0  0  0  0  0  0
  2  1  1  0
  3  2  1  0
  4  5  1  0
  4  3  1  0
  5  6  1  1
  7  5  1  0
  7  8  2  0
  9  7  1  0
 10  9  1  0
 10 11  1  0
 11 18  1  0
 12 11  2  0
 14 13  1  1
 14 15  1  0
 16 14  1  0
 17 16  1  1
 17 19  1  0
 18 17  1  0
 19 21  1  0
 20 19  2  0
M  END
$$$$
