MGL.pdb
     RDKit          3D

 21 20  0  0  1  0  0  0  0  0999 V2000
    6.4353  -11.6826   19.8188 C   0  0  0  0  0  0  0  0  0  0  0  0
    7.7145  -12.7050   19.1080 S   0  0  0  0  0  0  0  0  0  0  0  0
    8.1194  -14.1113   20.1133 C   0  0  0  0  0  0  0  0  0  0  0  0
    7.5022  -15.3893   19.6706 C   0  0  0  0  0  0  0  0  0  0  0  0
    7.7628  -16.5895   20.5110 C   0  0  2  0  0  0  0  0  0  0  0  0
    6.8084  -16.7589   21.5773 N   0  0  0  0  0  0  0  0  0  0  0  0
    9.1436  -16.5348   21.1182 C   0  0  0  0  0  0  0  0  0  0  0  0
   10.1207  -16.7003   20.3263 O   0  0  0  0  0  0  0  0  0  0  0  0
    9.2850  -16.3077   22.5048 N   0  0  0  0  0  0  0  0  0  0  0  0
   10.5958  -16.0863   23.0535 C   0  0  0  0  0  0  0  0  0  0  0  0
   10.4780  -15.8428   24.5098 C   0  0  0  0  0  0  0  0  0  0  0  0
   11.5317  -15.6822   25.1758 O   0  0  0  0  0  0  0  0  0  0  0  0
    8.7661  -12.4776   26.4791 C   0  0  0  0  0  0  0  0  0  0  0  0
    7.7482  -13.4817   25.9238 C   0  0  2  0  0  0  0  0  0  0  0  0
    6.3655  -12.8512   26.1007 C   0  0  0  0  0  0  0  0  0  0  0  0
    7.8272  -14.6971   26.7720 C   0  0  0  0  0  0  0  0  0  0  0  0
    9.0681  -15.5195   26.5880 C   0  0  2  0  0  0  0  0  0  0  0  0
    9.2136  -15.7857   25.1729 N   0  0  0  0  0  0  0  0  0  0  0  0
    9.1531  -16.7160   27.4137 C   0  0  0  0  0  0  0  0  0  0  0  0
    9.0189  -17.8459   26.9109 O   0  0  0  0  0  0  0  0  0  0  0  0
    9.3836  -16.6130   28.7659 O   0  0  0  0  0  0  0  0  0  0  0  0
  2  1  1  0
  3  2  1  0
  4  5  1  0
  4  3  1  0
  5  6  1  1
  7  5  1  0
  7  8  2  0
  9  7  1  0
 10  9  1  0
 10 11  1  0
 11 18  1  0
 12 11  2  0
 14 13  1  1
 14 15  1  0
 16 14  1  0
 17 16  1  6
 17 19  1  0
 18 17  1  0
 19 21  1  0
 20 19  2  0
M  END
$$$$
