MGL.pdb
     RDKit          3D

 21 20  0  0  1  0  0  0  0  0999 V2000
    7.4727  -12.5201   20.0211 C   0  0  0  0  0  0  0  0  0  0  0  0
    8.6158  -12.6920   18.6606 S   0  0  0  0  0  0  0  0  0  0  0  0
    8.9282  -14.3845   18.2246 C   0  0  0  0  0  0  0  0  0  0  0  0
    7.8173  -15.3215   18.5376 C   0  0  0  0  0  0  0  0  0  0  0  0
    8.1944  -16.6588   19.0706 C   0  0  2  0  0  0  0  0  0  0  0  0
    7.8302  -17.7457   18.1973 N   0  0  0  0  0  0  0  0  0  0  0  0
    7.5586  -16.9027   20.4176 C   0  0  0  0  0  0  0  0  0  0  0  0
    6.2947  -16.8109   20.4756 O   0  0  0  0  0  0  0  0  0  0  0  0
    8.3761  -17.2143   21.5262 N   0  0  0  0  0  0  0  0  0  0  0  0
    7.7976  -17.2465   22.8425 C   0  0  0  0  0  0  0  0  0  0  0  0
    8.2114  -16.0332   23.5847 C   0  0  0  0  0  0  0  0  0  0  0  0
    9.3199  -15.5109   23.3051 O   0  0  0  0  0  0  0  0  0  0  0  0
    5.6024  -12.0140   27.4321 C   0  0  0  0  0  0  0  0  0  0  0  0
    6.9493  -12.6006   26.9909 C   0  0  2  0  0  0  0  0  0  0  0  0
    7.6922  -11.4885   26.2479 C   0  0  0  0  0  0  0  0  0  0  0  0
    6.6552  -13.6961   26.0336 C   0  0  0  0  0  0  0  0  0  0  0  0
    7.8607  -14.4068   25.4933 C   0  0  2  0  0  0  0  0  0  0  0  0
    7.3950  -15.4453   24.5993 N   0  0  0  0  0  0  0  0  0  0  0  0
    8.8050  -14.8848   26.4935 C   0  0  0  0  0  0  0  0  0  0  0  0
    9.6569  -14.1199   26.9799 O   0  0  0  0  0  0  0  0  0  0  0  0
    8.7679  -16.1935   26.9157 O   0  0  0  0  0  0  0  0  0  0  0  0
  2  1  1  0
  3  2  1  0
  4  5  1  0
  4  3  1  0
  5  6  1  6
  7  5  1  0
  7  8  2  0
  9  7  1  0
 10  9  1  0
 10 11  1  0
 11 18  1  0
 12 11  2  0
 14 13  1  6
 14 15  1  0
 16 14  1  0
 17 16  1  1
 17 19  1  0
 18 17  1  0
 19 21  1  0
 20 19  2  0
M  END
$$$$
