MGL.pdb
     RDKit          3D

 21 20  0  0  1  0  0  0  0  0999 V2000
    2.1402  -19.8411   19.3389 C   0  0  0  0  0  0  0  0  0  0  0  0
    1.6152  -19.4436   20.9983 S   0  0  0  0  0  0  0  0  0  0  0  0
    2.9484  -19.4546   22.1707 C   0  0  0  0  0  0  0  0  0  0  0  0
    4.1888  -18.7794   21.7067 C   0  0  0  0  0  0  0  0  0  0  0  0
    5.3344  -18.7489   22.6562 C   0  0  2  0  0  0  0  0  0  0  0  0
    4.9696  -18.3066   23.9782 N   0  0  0  0  0  0  0  0  0  0  0  0
    6.4356  -17.8517   22.1458 C   0  0  0  0  0  0  0  0  0  0  0  0
    7.1632  -18.3158   21.2161 O   0  0  0  0  0  0  0  0  0  0  0  0
    6.6044  -16.5681   22.7100 N   0  0  0  0  0  0  0  0  0  0  0  0
    7.6600  -15.7187   22.2280 C   0  0  0  0  0  0  0  0  0  0  0  0
    8.5289  -15.3316   23.3635 C   0  0  0  0  0  0  0  0  0  0  0  0
    9.7090  -14.9752   23.1183 O   0  0  0  0  0  0  0  0  0  0  0  0
    7.4140  -11.7457   26.7308 C   0  0  0  0  0  0  0  0  0  0  0  0
    7.4276  -13.0495   25.9230 C   0  0  2  0  0  0  0  0  0  0  0  0
    5.9839  -13.5533   25.8749 C   0  0  0  0  0  0  0  0  0  0  0  0
    8.2455  -14.0259   26.6849 C   0  0  0  0  0  0  0  0  0  0  0  0
    8.9223  -15.0735   25.8514 C   0  0  2  0  0  0  0  0  0  0  0  0
    8.0688  -15.3515   24.7161 N   0  0  0  0  0  0  0  0  0  0  0  0
    9.3389  -16.2703   26.5690 C   0  0  0  0  0  0  0  0  0  0  0  0
   10.1310  -16.1945   27.5251 O   0  0  0  0  0  0  0  0  0  0  0  0
    8.8608  -17.5056   26.1979 O   0  0  0  0  0  0  0  0  0  0  0  0
  2  1  1  0
  3  2  1  0
  4  5  1  0
  4  3  1  0
  5  6  1  1
  7  5  1  0
  7  8  2  0
  9  7  1  0
 10  9  1  0
 10 11  1  0
 11 18  1  0
 12 11  2  0
 14 13  1  1
 14 15  1  0
 16 14  1  0
 17 16  1  1
 17 19  1  0
 18 17  1  0
 19 21  1  0
 20 19  2  0
M  END
$$$$
