MGL.pdb
     RDKit          3D

 21 20  0  0  1  0  0  0  0  0999 V2000
    8.5167  -12.1778   17.7994 C   0  0  0  0  0  0  0  0  0  0  0  0
    8.3536  -13.3129   19.1676 S   0  0  0  0  0  0  0  0  0  0  0  0
    6.7033  -13.9394   19.3582 C   0  0  0  0  0  0  0  0  0  0  0  0
    6.5162  -14.8541   20.5150 C   0  0  0  0  0  0  0  0  0  0  0  0
    7.7479  -15.3902   21.1556 C   0  0  2  0  0  0  0  0  0  0  0  0
    8.3712  -16.4474   20.4005 N   0  0  0  0  0  0  0  0  0  0  0  0
    7.4535  -15.9107   22.5415 C   0  0  0  0  0  0  0  0  0  0  0  0
    6.9325  -15.0920   23.3584 O   0  0  0  0  0  0  0  0  0  0  0  0
    7.7625  -17.2512   22.8610 N   0  0  0  0  0  0  0  0  0  0  0  0
    7.5157  -17.7340   24.1930 C   0  0  0  0  0  0  0  0  0  0  0  0
    8.4332  -17.0519   25.1348 C   0  0  0  0  0  0  0  0  0  0  0  0
    9.6527  -17.3547   25.1056 O   0  0  0  0  0  0  0  0  0  0  0  0
    7.9354  -12.5779   25.9513 C   0  0  0  0  0  0  0  0  0  0  0  0
    7.0903  -13.5186   26.8194 C   0  0  2  0  0  0  0  0  0  0  0  0
    6.2421  -12.6320   27.7333 C   0  0  0  0  0  0  0  0  0  0  0  0
    8.0317  -14.3012   27.6585 C   0  0  0  0  0  0  0  0  0  0  0  0
    8.8644  -15.3018   26.9130 C   0  0  2  0  0  0  0  0  0  0  0  0
    7.9765  -16.0693   26.0662 N   0  0  0  0  0  0  0  0  0  0  0  0
    9.7357  -16.1277   27.7372 C   0  0  0  0  0  0  0  0  0  0  0  0
   10.8898  -15.7548   28.0137 O   0  0  0  0  0  0  0  0  0  0  0  0
    9.2931  -17.3362   28.2229 O   0  0  0  0  0  0  0  0  0  0  0  0
  2  1  1  0
  3  2  1  0
  4  5  1  0
  4  3  1  0
  5  6  1  6
  7  5  1  0
  7  8  2  0
  9  7  1  0
 10  9  1  0
 10 11  1  0
 11 18  1  0
 12 11  2  0
 14 13  1  6
 14 15  1  0
 16 14  1  0
 17 16  1  1
 17 19  1  0
 18 17  1  0
 19 21  1  0
 20 19  2  0
M  END
$$$$
