FQA.pdb
     RDKit          3D

 26 26  0  0  1  0  0  0  0  0999 V2000
   11.6673  -16.8192   21.0015 N   0  0  0  0  0  0  0  0  0  0  0  0
   10.6885  -15.8601   21.4054 C   0  0  1  0  0  0  0  0  0  0  0  0
    9.3605  -16.0339   20.7151 C   0  0  0  0  0  0  0  0  0  0  0  0
    8.4052  -14.9614   21.0025 C   0  0  0  0  0  0  0  0  0  0  0  0
    8.6704  -13.7063   20.4922 C   0  0  0  0  0  0  0  0  0  0  0  0
    7.8251  -12.6349   20.7124 C   0  0  0  0  0  0  0  0  0  0  0  0
    6.6840  -12.7973   21.4559 C   0  0  0  0  0  0  0  0  0  0  0  0
    6.4037  -14.0291   21.9690 C   0  0  0  0  0  0  0  0  0  0  0  0
    7.2544  -15.1108   21.7483 C   0  0  0  0  0  0  0  0  0  0  0  0
   10.4171  -15.9359   22.8861 C   0  0  0  0  0  0  0  0  0  0  0  0
   10.8876  -16.8733   23.5786 O   0  0  0  0  0  0  0  0  0  0  0  0
    6.9964  -11.7032   26.1998 N   0  0  0  0  0  0  0  0  0  0  0  0
    6.4781  -13.0160   26.1064 C   0  0  0  0  0  0  0  0  0  0  0  0
    5.2379  -13.1471   26.3614 O   0  0  0  0  0  0  0  0  0  0  0  0
    7.3274  -14.1773   25.7329 C   0  0  0  0  0  0  0  0  0  0  0  0
    8.6938  -13.6681   25.4141 C   0  0  0  0  0  0  0  0  0  0  0  0
    9.6475  -14.7620   24.9884 C   0  0  2  0  0  0  0  0  0  0  0  0
    9.6288  -14.9645   23.5532 N   0  0  0  0  0  0  0  0  0  0  0  0
    9.3309  -16.0468   25.6828 C   0  0  0  0  0  0  0  0  0  0  0  0
    9.2988  -16.0884   26.9449 O   0  0  0  0  0  0  0  0  0  0  0  0
    8.1324  -19.4373   24.6766 C   0  0  0  0  0  0  0  0  0  0  0  0
    8.8602  -18.5105   25.6028 C   0  0  2  0  0  0  0  0  0  0  0  0
    9.0601  -17.2429   24.9645 N   0  0  0  0  0  0  0  0  0  0  0  0
   10.1338  -19.0988   26.1022 C   0  0  0  0  0  0  0  0  0  0  0  0
   11.3625  -18.4723   25.9456 O   0  0  0  0  0  0  0  0  0  0  0  0
   10.1231  -20.2081   26.6937 O   0  0  0  0  0  0  0  0  0  0  0  0
  2  1  1  6
  2 10  1  0
  3  2  1  0
  3  4  1  0
  4  5  2  0
  4  9  1  0
  5  6  1  0
  6  7  2  0
  8  7  1  0
  9  8  2  0
 10 11  2  0
 13 12  1  0
 13 15  1  0
 14 13  2  0
 16 15  1  0
 17 16  1  6
 17 19  1  0
 18 17  1  0
 18 10  1  0
 19 20  2  0
 22 21  1  6
 22 24  1  0
 23 22  1  0
 23 19  1  0
 24 26  2  0
 24 25  1  0
M  END
$$$$
