FQA.pdb
     RDKit          3D

 26 26  0  0  1  0  0  0  0  0999 V2000
    5.6851  -16.9038   24.7867 N   0  0  0  0  0  0  0  0  0  0  0  0
    6.9062  -16.1642   24.7335 C   0  0  1  0  0  0  0  0  0  0  0  0
    7.2639  -15.5054   26.0405 C   0  0  0  0  0  0  0  0  0  0  0  0
    6.9576  -14.0736   26.0788 C   0  0  0  0  0  0  0  0  0  0  0  0
    7.9250  -13.1940   25.6360 C   0  0  0  0  0  0  0  0  0  0  0  0
    7.7236  -11.8263   25.6357 C   0  0  0  0  0  0  0  0  0  0  0  0
    6.5373  -11.3032   26.0832 C   0  0  0  0  0  0  0  0  0  0  0  0
    5.5685  -12.1550   26.5249 C   0  0  0  0  0  0  0  0  0  0  0  0
    5.7693  -13.5341   26.5261 C   0  0  0  0  0  0  0  0  0  0  0  0
    8.0715  -17.0454   24.3626 C   0  0  0  0  0  0  0  0  0  0  0  0
    8.1477  -18.2244   24.7913 O   0  0  0  0  0  0  0  0  0  0  0  0
   12.3680  -17.6364   19.7274 N   0  0  0  0  0  0  0  0  0  0  0  0
   10.9796  -17.4304   19.5527 C   0  0  0  0  0  0  0  0  0  0  0  0
   10.5097  -17.7276   18.4076 O   0  0  0  0  0  0  0  0  0  0  0  0
   10.1157  -16.8983   20.6392 C   0  0  0  0  0  0  0  0  0  0  0  0
   10.9304  -16.8324   21.8881 C   0  0  0  0  0  0  0  0  0  0  0  0
   10.2217  -17.4210   23.0874 C   0  0  2  0  0  0  0  0  0  0  0  0
    9.1191  -16.5874   23.5242 N   0  0  0  0  0  0  0  0  0  0  0  0
   11.1734  -17.6320   24.2200 C   0  0  0  0  0  0  0  0  0  0  0  0
   11.8591  -16.6639   24.6540 O   0  0  0  0  0  0  0  0  0  0  0  0
   11.9772  -20.4052   26.5950 C   0  0  0  0  0  0  0  0  0  0  0  0
   12.3328  -19.1627   25.8358 C   0  0  2  0  0  0  0  0  0  0  0  0
   11.3386  -18.9016   24.8370 N   0  0  0  0  0  0  0  0  0  0  0  0
   13.7060  -19.2261   25.2631 C   0  0  0  0  0  0  0  0  0  0  0  0
   14.8466  -18.9982   26.0205 O   0  0  0  0  0  0  0  0  0  0  0  0
   13.8662  -19.4955   24.0456 O   0  0  0  0  0  0  0  0  0  0  0  0
  2  1  1  1
  2 10  1  0
  3  2  1  0
  3  4  1  0
  4  5  2  0
  4  9  1  0
  5  6  1  0
  6  7  2  0
  8  7  1  0
  9  8  2  0
 10 11  2  0
 13 12  1  0
 13 15  1  0
 14 13  2  0
 16 15  1  0
 17 16  1  6
 17 19  1  0
 18 17  1  0
 18 10  1  0
 19 20  2  0
 22 21  1  6
 22 24  1  0
 23 22  1  0
 23 19  1  0
 24 26  2  0
 24 25  1  0
M  END
$$$$
