FQA.pdb
     RDKit          3D

 26 26  0  0  1  0  0  0  0  0999 V2000
    5.3433  -17.2855   24.9779 N   0  0  0  0  0  0  0  0  0  0  0  0
    6.2615  -16.1912   24.9924 C   0  0  1  0  0  0  0  0  0  0  0  0
    6.7704  -15.8555   26.3703 C   0  0  0  0  0  0  0  0  0  0  0  0
    6.9743  -14.4213   26.5871 C   0  0  0  0  0  0  0  0  0  0  0  0
    5.9093  -13.6819   27.0614 C   0  0  0  0  0  0  0  0  0  0  0  0
    6.0102  -12.3232   27.2955 C   0  0  0  0  0  0  0  0  0  0  0  0
    7.1912  -11.6675   27.0575 C   0  0  0  0  0  0  0  0  0  0  0  0
    8.2553  -12.3797   26.5888 C   0  0  0  0  0  0  0  0  0  0  0  0
    8.1560  -13.7495   26.3521 C   0  0  0  0  0  0  0  0  0  0  0  0
    7.4740  -16.4745   24.1430 C   0  0  0  0  0  0  0  0  0  0  0  0
    8.0649  -17.5815   24.2153 O   0  0  0  0  0  0  0  0  0  0  0  0
    6.8918  -15.7981   19.0647 N   0  0  0  0  0  0  0  0  0  0  0  0
    7.7509  -14.7224   19.3896 C   0  0  0  0  0  0  0  0  0  0  0  0
    8.3750  -14.1912   18.4156 O   0  0  0  0  0  0  0  0  0  0  0  0
    7.9186  -14.2372   20.7846 C   0  0  0  0  0  0  0  0  0  0  0  0
    9.2424  -14.7126   21.2842 C   0  0  0  0  0  0  0  0  0  0  0  0
    9.1232  -15.7655   22.3632 C   0  0  2  0  0  0  0  0  0  0  0  0
    7.9938  -15.5159   23.2369 N   0  0  0  0  0  0  0  0  0  0  0  0
   10.3775  -15.8464   23.1715 C   0  0  0  0  0  0  0  0  0  0  0  0
   10.7532  -14.8501   23.8511 O   0  0  0  0  0  0  0  0  0  0  0  0
   12.3349  -18.3053   24.8685 C   0  0  0  0  0  0  0  0  0  0  0  0
   12.3938  -17.1189   23.9545 C   0  0  2  0  0  0  0  0  0  0  0  0
   11.1762  -17.0215   23.2047 N   0  0  0  0  0  0  0  0  0  0  0  0
   13.5971  -17.1428   23.0774 C   0  0  0  0  0  0  0  0  0  0  0  0
   14.8886  -17.0215   23.5712 O   0  0  0  0  0  0  0  0  0  0  0  0
   13.4649  -17.2773   21.8344 O   0  0  0  0  0  0  0  0  0  0  0  0
  2  1  1  1
  2 10  1  0
  3  2  1  0
  3  4  1  0
  4  5  2  0
  4  9  1  0
  5  6  1  0
  6  7  2  0
  8  7  1  0
  9  8  2  0
 10 11  2  0
 13 12  1  0
 13 15  1  0
 14 13  2  0
 16 15  1  0
 17 16  1  6
 17 19  1  0
 18 17  1  0
 18 10  1  0
 19 20  2  0
 22 21  1  6
 22 24  1  0
 23 22  1  0
 23 19  1  0
 24 26  2  0
 24 25  1  0
M  END
$$$$
