FQA.pdb
     RDKit          3D

 26 26  0  0  1  0  0  0  0  0999 V2000
    5.8144  -16.7467   24.8714 N   0  0  0  0  0  0  0  0  0  0  0  0
    6.7353  -15.7676   24.3875 C   0  0  1  0  0  0  0  0  0  0  0  0
    7.4907  -15.0633   25.4845 C   0  0  0  0  0  0  0  0  0  0  0  0
    6.9244  -13.7612   25.8443 C   0  0  0  0  0  0  0  0  0  0  0  0
    7.5480  -12.6292   25.3590 C   0  0  0  0  0  0  0  0  0  0  0  0
    7.0837  -11.3594   25.6468 C   0  0  0  0  0  0  0  0  0  0  0  0
    5.9735  -11.1924   26.4348 C   0  0  0  0  0  0  0  0  0  0  0  0
    5.3428  -12.2978   26.9243 C   0  0  0  0  0  0  0  0  0  0  0  0
    5.8091  -13.5790   26.6354 C   0  0  0  0  0  0  0  0  0  0  0  0
    7.7691  -16.3813   23.4784 C   0  0  0  0  0  0  0  0  0  0  0  0
    8.0915  -17.5904   23.5957 O   0  0  0  0  0  0  0  0  0  0  0  0
    8.2702  -12.8660   19.8489 N   0  0  0  0  0  0  0  0  0  0  0  0
    7.6650  -14.0984   19.5089 C   0  0  0  0  0  0  0  0  0  0  0  0
    6.4049  -14.0722   19.3303 O   0  0  0  0  0  0  0  0  0  0  0  0
    8.4497  -15.3529   19.3673 C   0  0  0  0  0  0  0  0  0  0  0  0
    9.5857  -15.3001   20.3340 C   0  0  0  0  0  0  0  0  0  0  0  0
    9.3785  -16.1910   21.5383 C   0  0  2  0  0  0  0  0  0  0  0  0
    8.4144  -15.6299   22.4640 N   0  0  0  0  0  0  0  0  0  0  0  0
   10.6705  -16.4412   22.2464 C   0  0  0  0  0  0  0  0  0  0  0  0
   11.6885  -16.7993   21.5898 O   0  0  0  0  0  0  0  0  0  0  0  0
   12.1000  -15.6137   25.5535 C   0  0  0  0  0  0  0  0  0  0  0  0
   12.0277  -16.5122   24.3561 C   0  0  2  0  0  0  0  0  0  0  0  0
   10.7986  -16.2888   23.6536 N   0  0  0  0  0  0  0  0  0  0  0  0
   12.2214  -17.9447   24.7143 C   0  0  0  0  0  0  0  0  0  0  0  0
   11.2665  -18.9187   24.4570 O   0  0  0  0  0  0  0  0  0  0  0  0
   13.2853  -18.3132   25.2737 O   0  0  0  0  0  0  0  0  0  0  0  0
  2  1  1  1
  2 10  1  0
  3  2  1  0
  3  4  1  0
  4  5  2  0
  4  9  1  0
  5  6  1  0
  6  7  2  0
  8  7  1  0
  9  8  2  0
 10 11  2  0
 13 12  1  0
 13 15  1  0
 14 13  2  0
 16 15  1  0
 17 16  1  6
 17 19  1  0
 18 17  1  0
 18 10  1  0
 19 20  2  0
 22 21  1  1
 22 24  1  0
 23 22  1  0
 23 19  1  0
 24 26  2  0
 24 25  1  0
M  END
$$$$
