FQA.pdb
     RDKit          3D

 26 26  0  0  1  0  0  0  0  0999 V2000
    6.1757  -16.2682   25.6988 N   0  0  0  0  0  0  0  0  0  0  0  0
    7.1096  -15.7234   24.7651 C   0  0  1  0  0  0  0  0  0  0  0  0
    7.9682  -14.6302   25.3466 C   0  0  0  0  0  0  0  0  0  0  0  0
    7.2181  -13.4253   25.7087 C   0  0  0  0  0  0  0  0  0  0  0  0
    6.2654  -12.9664   24.8213 C   0  0  0  0  0  0  0  0  0  0  0  0
    5.5102  -11.8377   25.0796 C   0  0  0  0  0  0  0  0  0  0  0  0
    5.6934  -11.1360   26.2438 C   0  0  0  0  0  0  0  0  0  0  0  0
    6.6296  -11.5727   27.1338 C   0  0  0  0  0  0  0  0  0  0  0  0
    7.3922  -12.7103   26.8756 C   0  0  0  0  0  0  0  0  0  0  0  0
    8.0511  -16.7787   24.2438 C   0  0  0  0  0  0  0  0  0  0  0  0
    8.1936  -17.8696   24.8515 O   0  0  0  0  0  0  0  0  0  0  0  0
   11.9036  -18.4788   18.1569 N   0  0  0  0  0  0  0  0  0  0  0  0
   10.7426  -18.2743   18.9385 C   0  0  0  0  0  0  0  0  0  0  0  0
    9.7024  -17.8997   18.3076 O   0  0  0  0  0  0  0  0  0  0  0  0
   10.7326  -18.4831   20.4102 C   0  0  0  0  0  0  0  0  0  0  0  0
    9.9183  -17.3947   21.0267 C   0  0  0  0  0  0  0  0  0  0  0  0
    9.7078  -17.5836   22.5124 C   0  0  2  0  0  0  0  0  0  0  0  0
    8.8072  -16.5883   23.0597 N   0  0  0  0  0  0  0  0  0  0  0  0
   11.0092  -17.5432   23.2457 C   0  0  0  0  0  0  0  0  0  0  0  0
   11.7363  -16.5123   23.1805 O   0  0  0  0  0  0  0  0  0  0  0  0
   12.5972  -19.4360   25.9876 C   0  0  0  0  0  0  0  0  0  0  0  0
   12.7165  -18.6320   24.7283 C   0  0  2  0  0  0  0  0  0  0  0  0
   11.4669  -18.6392   24.0263 N   0  0  0  0  0  0  0  0  0  0  0  0
   13.8473  -19.0884   23.8736 C   0  0  0  0  0  0  0  0  0  0  0  0
   13.6652  -19.5885   22.5916 O   0  0  0  0  0  0  0  0  0  0  0  0
   15.0257  -19.0288   24.3076 O   0  0  0  0  0  0  0  0  0  0  0  0
  2  1  1  1
  2 10  1  0
  3  2  1  0
  3  4  1  0
  4  5  2  0
  4  9  1  0
  5  6  1  0
  6  7  2  0
  8  7  1  0
  9  8  2  0
 10 11  2  0
 13 12  1  0
 13 15  1  0
 14 13  2  0
 16 15  1  0
 17 16  1  6
 17 19  1  0
 18 17  1  0
 18 10  1  0
 19 20  2  0
 22 21  1  1
 22 24  1  0
 23 22  1  0
 23 19  1  0
 24 26  2  0
 24 25  1  0
M  END
$$$$
