FQA.pdb
     RDKit          3D

 26 26  0  0  1  0  0  0  0  0999 V2000
    6.4224  -16.3099   24.2236 N   0  0  0  0  0  0  0  0  0  0  0  0
    7.7542  -15.7951   24.1756 C   0  0  1  0  0  0  0  0  0  0  0  0
    8.2212  -15.2209   25.4880 C   0  0  0  0  0  0  0  0  0  0  0  0
    7.5143  -13.9989   25.8785 C   0  0  0  0  0  0  0  0  0  0  0  0
    7.9245  -12.8073   25.3148 C   0  0  0  0  0  0  0  0  0  0  0  0
    7.3159  -11.6053   25.6243 C   0  0  0  0  0  0  0  0  0  0  0  0
    6.2725  -11.5687   26.5139 C   0  0  0  0  0  0  0  0  0  0  0  0
    5.8520  -12.7348   27.0818 C   0  0  0  0  0  0  0  0  0  0  0  0
    6.4640  -13.9478   26.7714 C   0  0  0  0  0  0  0  0  0  0  0  0
    8.7473  -16.8632   23.7953 C   0  0  0  0  0  0  0  0  0  0  0  0
    8.5397  -18.0675   24.0887 O   0  0  0  0  0  0  0  0  0  0  0  0
   12.1795  -19.2331   19.7709 N   0  0  0  0  0  0  0  0  0  0  0  0
   11.0796  -18.3438   19.7697 C   0  0  0  0  0  0  0  0  0  0  0  0
   10.0056  -18.7833   19.2463 O   0  0  0  0  0  0  0  0  0  0  0  0
   11.1674  -16.9758   20.3446 C   0  0  0  0  0  0  0  0  0  0  0  0
   11.8646  -17.0706   21.6609 C   0  0  0  0  0  0  0  0  0  0  0  0
   10.9590  -17.5422   22.7765 C   0  0  2  0  0  0  0  0  0  0  0  0
    9.9440  -16.5587   23.0986 N   0  0  0  0  0  0  0  0  0  0  0  0
   11.7481  -17.8719   24.0020 C   0  0  0  0  0  0  0  0  0  0  0  0
   12.6281  -17.0672   24.4188 O   0  0  0  0  0  0  0  0  0  0  0  0
   11.6789  -20.5889   26.5858 C   0  0  0  0  0  0  0  0  0  0  0  0
   12.3339  -19.4516   25.8619 C   0  0  2  0  0  0  0  0  0  0  0  0
   11.5421  -19.0764   24.7276 N   0  0  0  0  0  0  0  0  0  0  0  0
   13.7433  -19.7573   25.4908 C   0  0  0  0  0  0  0  0  0  0  0  0
   14.0957  -20.2992   24.2625 O   0  0  0  0  0  0  0  0  0  0  0  0
   14.6715  -19.5241   26.3061 O   0  0  0  0  0  0  0  0  0  0  0  0
  2  1  1  1
  2 10  1  0
  3  2  1  0
  3  4  1  0
  4  5  2  0
  4  9  1  0
  5  6  1  0
  6  7  2  0
  8  7  1  0
  9  8  2  0
 10 11  2  0
 13 12  1  0
 13 15  1  0
 14 13  2  0
 16 15  1  0
 17 16  1  6
 17 19  1  0
 18 17  1  0
 18 10  1  0
 19 20  2  0
 22 21  1  6
 22 24  1  0
 23 22  1  0
 23 19  1  0
 24 26  2  0
 24 25  1  0
M  END
$$$$
