FQA.pdb
     RDKit          3D

 26 26  0  0  1  0  0  0  0  0999 V2000
    6.5344  -16.5233   25.7255 N   0  0  0  0  0  0  0  0  0  0  0  0
    6.7474  -15.6022   24.6545 C   0  0  1  0  0  0  0  0  0  0  0  0
    7.7340  -14.5137   24.9890 C   0  0  0  0  0  0  0  0  0  0  0  0
    7.2627  -13.5934   26.0265 C   0  0  0  0  0  0  0  0  0  0  0  0
    8.0908  -13.3578   27.1057 C   0  0  0  0  0  0  0  0  0  0  0  0
    7.7288  -12.5047   28.1315 C   0  0  0  0  0  0  0  0  0  0  0  0
    6.5176  -11.8618   28.0997 C   0  0  0  0  0  0  0  0  0  0  0  0
    5.6849  -12.0808   27.0425 C   0  0  0  0  0  0  0  0  0  0  0  0
    6.0477  -12.9404   26.0072 C   0  0  0  0  0  0  0  0  0  0  0  0
    7.2726  -16.2958   23.4237 C   0  0  0  0  0  0  0  0  0  0  0  0
    7.5771  -17.5149   23.4537 O   0  0  0  0  0  0  0  0  0  0  0  0
    9.2724  -12.3411   18.8256 N   0  0  0  0  0  0  0  0  0  0  0  0
    8.3250  -13.3884   18.7472 C   0  0  0  0  0  0  0  0  0  0  0  0
    8.0490  -13.8066   17.5769 O   0  0  0  0  0  0  0  0  0  0  0  0
    7.6863  -13.9700   19.9569 C   0  0  0  0  0  0  0  0  0  0  0  0
    7.5565  -15.4424   19.7495 C   0  0  0  0  0  0  0  0  0  0  0  0
    7.9151  -16.2462   20.9793 C   0  0  2  0  0  0  0  0  0  0  0  0
    7.4438  -15.6111   22.1941 N   0  0  0  0  0  0  0  0  0  0  0  0
    9.3912  -16.4631   21.0641 C   0  0  0  0  0  0  0  0  0  0  0  0
    9.9765  -17.1570   20.1858 O   0  0  0  0  0  0  0  0  0  0  0  0
   12.3394  -14.9685   22.5433 C   0  0  0  0  0  0  0  0  0  0  0  0
   11.5578  -16.2257   22.3081 C   0  0  2  0  0  0  0  0  0  0  0  0
   10.1737  -15.9088   22.1131 N   0  0  0  0  0  0  0  0  0  0  0  0
   11.7611  -17.2264   23.3920 C   0  0  0  0  0  0  0  0  0  0  0  0
   10.7071  -17.8272   24.0665 O   0  0  0  0  0  0  0  0  0  0  0  0
   12.9258  -17.5582   23.7293 O   0  0  0  0  0  0  0  0  0  0  0  0
  2  1  1  1
  2 10  1  0
  3  2  1  0
  3  4  1  0
  4  5  2  0
  4  9  1  0
  5  6  1  0
  6  7  2  0
  8  7  1  0
  9  8  2  0
 10 11  2  0
 13 12  1  0
 13 15  1  0
 14 13  2  0
 16 15  1  0
 17 16  1  6
 17 19  1  0
 18 17  1  0
 18 10  1  0
 19 20  2  0
 22 21  1  1
 22 24  1  0
 23 22  1  0
 23 19  1  0
 24 26  2  0
 24 25  1  0
M  END
$$$$
