FQA.pdb
     RDKit          3D

 26 26  0  0  1  0  0  0  0  0999 V2000
    5.8589  -16.7889   21.0693 N   0  0  0  0  0  0  0  0  0  0  0  0
    6.8117  -16.0945   21.8760 C   0  0  1  0  0  0  0  0  0  0  0  0
    6.7336  -14.5961   21.7375 C   0  0  0  0  0  0  0  0  0  0  0  0
    7.3293  -14.0896   20.4990 C   0  0  0  0  0  0  0  0  0  0  0  0
    7.2159  -12.7398   20.2326 C   0  0  0  0  0  0  0  0  0  0  0  0
    7.7472  -12.1740   19.0886 C   0  0  0  0  0  0  0  0  0  0  0  0
    8.4107  -12.9545   18.1765 C   0  0  0  0  0  0  0  0  0  0  0  0
    8.5337  -14.2903   18.4209 C   0  0  0  0  0  0  0  0  0  0  0  0
    7.9989  -14.8629   19.5735 C   0  0  0  0  0  0  0  0  0  0  0  0
    6.6265  -16.4017   23.3399 C   0  0  0  0  0  0  0  0  0  0  0  0
    5.6047  -17.0119   23.7442 O   0  0  0  0  0  0  0  0  0  0  0  0
    9.3887  -20.2137   26.4594 N   0  0  0  0  0  0  0  0  0  0  0  0
    8.0299  -20.0967   26.8346 C   0  0  0  0  0  0  0  0  0  0  0  0
    7.6111  -20.9414   27.6899 O   0  0  0  0  0  0  0  0  0  0  0  0
    7.1394  -19.0508   26.2666 C   0  0  0  0  0  0  0  0  0  0  0  0
    7.9376  -18.2360   25.3039 C   0  0  0  0  0  0  0  0  0  0  0  0
    7.8138  -16.7481   25.5446 C   0  0  2  0  0  0  0  0  0  0  0  0
    7.5854  -16.0202   24.3120 N   0  0  0  0  0  0  0  0  0  0  0  0
    9.0313  -16.2141   26.2269 C   0  0  0  0  0  0  0  0  0  0  0  0
   10.1740  -16.4270   25.7322 O   0  0  0  0  0  0  0  0  0  0  0  0
    9.8201  -13.5345   28.5629 C   0  0  0  0  0  0  0  0  0  0  0  0
   10.1008  -14.9324   28.1008 C   0  0  2  0  0  0  0  0  0  0  0  0
    8.9503  -15.4637   27.4311 N   0  0  0  0  0  0  0  0  0  0  0  0
   10.5639  -15.8103   29.2110 C   0  0  0  0  0  0  0  0  0  0  0  0
    9.9358  -17.0049   29.5354 O   0  0  0  0  0  0  0  0  0  0  0  0
   11.5629  -15.4785   29.8983 O   0  0  0  0  0  0  0  0  0  0  0  0
  2  1  1  6
  2 10  1  0
  3  2  1  0
  3  4  1  0
  4  5  2  0
  4  9  1  0
  5  6  1  0
  6  7  2  0
  8  7  1  0
  9  8  2  0
 10 11  2  0
 13 12  1  0
 13 15  1  0
 14 13  2  0
 16 15  1  0
 17 16  1  6
 17 19  1  0
 18 17  1  0
 18 10  1  0
 19 20  2  0
 22 21  1  1
 22 24  1  0
 23 22  1  0
 23 19  1  0
 24 26  2  0
 24 25  1  0
M  END
$$$$
