FQA.pdb
     RDKit          3D

 26 26  0  0  1  0  0  0  0  0999 V2000
    5.9423  -16.4234   25.2768 N   0  0  0  0  0  0  0  0  0  0  0  0
    7.0967  -15.8660   24.6464 C   0  0  1  0  0  0  0  0  0  0  0  0
    7.8118  -14.8500   25.4988 C   0  0  0  0  0  0  0  0  0  0  0  0
    7.1471  -13.5453   25.5383 C   0  0  0  0  0  0  0  0  0  0  0  0
    7.5701  -12.5778   24.6491 C   0  0  0  0  0  0  0  0  0  0  0  0
    7.0008  -11.3185   24.6146 C   0  0  0  0  0  0  0  0  0  0  0  0
    5.9851  -10.9963   25.4783 C   0  0  0  0  0  0  0  0  0  0  0  0
    5.5526  -11.9379   26.3646 C   0  0  0  0  0  0  0  0  0  0  0  0
    6.1250  -13.2080   26.4011 C   0  0  0  0  0  0  0  0  0  0  0  0
    8.1086  -16.9294   24.3042 C   0  0  0  0  0  0  0  0  0  0  0  0
    8.3449  -17.8719   25.1014 O   0  0  0  0  0  0  0  0  0  0  0  0
   10.7613  -18.2526   19.0368 N   0  0  0  0  0  0  0  0  0  0  0  0
   11.8337  -18.6077   19.8879 C   0  0  0  0  0  0  0  0  0  0  0  0
   12.7073  -19.3888   19.3907 O   0  0  0  0  0  0  0  0  0  0  0  0
   11.9390  -18.1015   21.2815 C   0  0  0  0  0  0  0  0  0  0  0  0
   10.7236  -17.2847   21.5705 C   0  0  0  0  0  0  0  0  0  0  0  0
   10.0167  -17.7062   22.8393 C   0  0  2  0  0  0  0  0  0  0  0  0
    8.8285  -16.9124   23.0830 N   0  0  0  0  0  0  0  0  0  0  0  0
   10.9329  -17.6164   24.0164 C   0  0  0  0  0  0  0  0  0  0  0  0
   11.6274  -16.5764   24.1950 O   0  0  0  0  0  0  0  0  0  0  0  0
   11.3652  -19.0353   27.3096 C   0  0  0  0  0  0  0  0  0  0  0  0
   12.0244  -18.6760   26.0123 C   0  0  2  0  0  0  0  0  0  0  0  0
   11.0540  -18.6744   24.9575 N   0  0  0  0  0  0  0  0  0  0  0  0
   13.1873  -19.5554   25.7089 C   0  0  0  0  0  0  0  0  0  0  0  0
   13.2436  -20.3635   24.5818 O   0  0  0  0  0  0  0  0  0  0  0  0
   14.1719  -19.5854   26.4901 O   0  0  0  0  0  0  0  0  0  0  0  0
  2  1  1  1
  2 10  1  0
  3  2  1  0
  3  4  1  0
  4  5  2  0
  4  9  1  0
  5  6  1  0
  6  7  2  0
  8  7  1  0
  9  8  2  0
 10 11  2  0
 13 12  1  0
 13 15  1  0
 14 13  2  0
 16 15  1  0
 17 16  1  6
 17 19  1  0
 18 17  1  0
 18 10  1  0
 19 20  2  0
 22 21  1  1
 22 24  1  0
 23 22  1  0
 23 19  1  0
 24 26  2  0
 24 25  1  0
M  END
$$$$
