FQA.pdb
     RDKit          3D

 26 26  0  0  1  0  0  0  0  0999 V2000
    8.8297  -17.0422   19.8500 N   0  0  0  0  0  0  0  0  0  0  0  0
    9.0317  -16.8072   21.2446 C   0  0  1  0  0  0  0  0  0  0  0  0
    8.0170  -15.8697   21.8462 C   0  0  0  0  0  0  0  0  0  0  0  0
    7.8714  -14.6119   21.1099 C   0  0  0  0  0  0  0  0  0  0  0  0
    8.8138  -13.6259   21.3229 C   0  0  0  0  0  0  0  0  0  0  0  0
    8.7562  -12.4077   20.6720 C   0  0  0  0  0  0  0  0  0  0  0  0
    7.7438  -12.1465   19.7843 C   0  0  0  0  0  0  0  0  0  0  0  0
    6.8027  -13.1073   19.5597 C   0  0  0  0  0  0  0  0  0  0  0  0
    6.8587  -14.3362   20.2147 C   0  0  0  0  0  0  0  0  0  0  0  0
    8.9592  -18.0867   22.0380 C   0  0  0  0  0  0  0  0  0  0  0  0
    7.8644  -18.4941   22.5018 O   0  0  0  0  0  0  0  0  0  0  0  0
   11.5322  -22.5475   20.3704 N   0  0  0  0  0  0  0  0  0  0  0  0
   10.7206  -21.5600   19.7646 C   0  0  0  0  0  0  0  0  0  0  0  0
   10.9162  -21.3599   18.5228 O   0  0  0  0  0  0  0  0  0  0  0  0
    9.6983  -20.7980   20.5287 C   0  0  0  0  0  0  0  0  0  0  0  0
    9.7275  -21.2740   21.9431 C   0  0  0  0  0  0  0  0  0  0  0  0
   10.0659  -20.1777   22.9284 C   0  0  2  0  0  0  0  0  0  0  0  0
   10.1092  -18.8760   22.2921 N   0  0  0  0  0  0  0  0  0  0  0  0
   11.3699  -20.4515   23.6049 C   0  0  0  0  0  0  0  0  0  0  0  0
   11.5521  -21.5519   24.1979 O   0  0  0  0  0  0  0  0  0  0  0  0
   14.5270  -18.4888   24.1798 C   0  0  0  0  0  0  0  0  0  0  0  0
   13.6207  -19.6643   24.3877 C   0  0  2  0  0  0  0  0  0  0  0  0
   12.4299  -19.5047   23.6061 N   0  0  0  0  0  0  0  0  0  0  0  0
   13.3239  -19.8989   25.8280 C   0  0  0  0  0  0  0  0  0  0  0  0
   14.2897  -20.3101   26.7362 O   0  0  0  0  0  0  0  0  0  0  0  0
   12.1581  -19.7244   26.2650 O   0  0  0  0  0  0  0  0  0  0  0  0
  2  1  1  6
  2 10  1  0
  3  2  1  0
  3  4  1  0
  4  5  2  0
  4  9  1  0
  5  6  1  0
  6  7  2  0
  8  7  1  0
  9  8  2  0
 10 11  2  0
 13 12  1  0
 13 15  1  0
 14 13  2  0
 16 15  1  0
 17 16  1  6
 17 19  1  0
 18 17  1  0
 18 10  1  0
 19 20  2  0
 22 21  1  1
 22 24  1  0
 23 22  1  0
 23 19  1  0
 24 26  2  0
 24 25  1  0
M  END
$$$$
