FQA.pdb
     RDKit          3D

 26 26  0  0  1  0  0  0  0  0999 V2000
    6.8886  -18.2201   20.7059 N   0  0  0  0  0  0  0  0  0  0  0  0
    7.3999  -16.9678   21.1653 C   0  0  1  0  0  0  0  0  0  0  0  0
    6.4013  -15.8434   21.0717 C   0  0  0  0  0  0  0  0  0  0  0  0
    6.9454  -14.5414   21.4646 C   0  0  0  0  0  0  0  0  0  0  0  0
    7.5859  -13.7910   20.4991 C   0  0  0  0  0  0  0  0  0  0  0  0
    8.1297  -12.5512   20.7791 C   0  0  0  0  0  0  0  0  0  0  0  0
    8.0436  -12.0296   22.0447 C   0  0  0  0  0  0  0  0  0  0  0  0
    7.4148  -12.7550   23.0131 C   0  0  0  0  0  0  0  0  0  0  0  0
    6.8659  -14.0050   22.7331 C   0  0  0  0  0  0  0  0  0  0  0  0
    7.8312  -17.0414   22.6077 C   0  0  0  0  0  0  0  0  0  0  0  0
    7.0080  -17.3368   23.5104 O   0  0  0  0  0  0  0  0  0  0  0  0
   13.0000  -18.5697   22.7601 N   0  0  0  0  0  0  0  0  0  0  0  0
   11.8966  -19.4479   22.8698 C   0  0  0  0  0  0  0  0  0  0  0  0
   11.9332  -20.4865   22.1348 O   0  0  0  0  0  0  0  0  0  0  0  0
   10.7590  -19.1784   23.7879 C   0  0  0  0  0  0  0  0  0  0  0  0
   10.9375  -17.8102   24.3572 C   0  0  0  0  0  0  0  0  0  0  0  0
    9.6631  -16.9961   24.3491 C   0  0  2  0  0  0  0  0  0  0  0  0
    9.1680  -16.7837   23.0034 N   0  0  0  0  0  0  0  0  0  0  0  0
    9.8663  -15.6789   25.0250 C   0  0  0  0  0  0  0  0  0  0  0  0
   10.7991  -14.9154   24.6474 O   0  0  0  0  0  0  0  0  0  0  0  0
    8.2054  -13.3483   27.3056 C   0  0  0  0  0  0  0  0  0  0  0  0
    9.4037  -14.1929   26.9937 C   0  0  2  0  0  0  0  0  0  0  0  0
    9.0358  -15.2462   26.0941 N   0  0  0  0  0  0  0  0  0  0  0  0
   10.0664  -14.7066   28.2244 C   0  0  0  0  0  0  0  0  0  0  0  0
   10.2969  -16.0576   28.4448 O   0  0  0  0  0  0  0  0  0  0  0  0
   10.4424  -13.9042   29.1162 O   0  0  0  0  0  0  0  0  0  0  0  0
  2  1  1  1
  2 10  1  0
  3  2  1  0
  3  4  1  0
  4  5  2  0
  4  9  1  0
  5  6  1  0
  6  7  2  0
  8  7  1  0
  9  8  2  0
 10 11  2  0
 13 12  1  0
 13 15  1  0
 14 13  2  0
 16 15  1  0
 17 16  1  6
 17 19  1  0
 18 17  1  0
 18 10  1  0
 19 20  2  0
 22 21  1  1
 22 24  1  0
 23 22  1  0
 23 19  1  0
 24 26  2  0
 24 25  1  0
M  END
$$$$
