TDG.pdb
     RDKit          3D

 20 19  0  0  1  0  0  0  0  0999 V2000
    7.7052  -13.6493   17.2083 C   0  0  0  0  0  0  0  0  0  0  0  0
    8.6377  -14.1323   18.2728 C   0  0  1  0  0  0  0  0  0  0  0  0
    9.9178  -13.6802   18.0248 O   0  0  0  0  0  0  0  0  0  0  0  0
    8.2038  -13.7119   19.6625 C   0  0  2  0  0  0  0  0  0  0  0  0
    8.0481  -12.2461   19.6479 N   0  0  0  0  0  0  0  0  0  0  0  0
    9.1770  -14.1089   20.7129 C   0  0  0  0  0  0  0  0  0  0  0  0
    9.9020  -13.2378   21.2105 O   0  0  0  0  0  0  0  0  0  0  0  0
    9.2974  -15.4440   21.1577 N   0  0  0  0  0  0  0  0  0  0  0  0
   10.1732  -15.8389   22.2219 C   0  0  1  0  0  0  0  0  0  0  0  0
    9.7750  -17.1066   22.8964 C   0  0  0  0  0  0  0  0  0  0  0  0
   10.6455  -17.4901   24.0271 C   0  0  0  0  0  0  0  0  0  0  0  0
   11.1921  -16.6269   24.7510 O   0  0  0  0  0  0  0  0  0  0  0  0
   11.5663  -15.9499   21.7321 C   0  0  0  0  0  0  0  0  0  0  0  0
   12.5134  -16.2309   22.5050 O   0  0  0  0  0  0  0  0  0  0  0  0
   10.9056  -18.8223   24.3496 O   0  0  0  0  0  0  0  0  0  0  0  0
   11.8716  -15.7410   20.3668 N   0  0  0  0  0  0  0  0  0  0  0  0
   13.1585  -16.0033   19.7954 C   0  0  0  0  0  0  0  0  0  0  0  0
   14.1368  -14.9418   20.1522 C   0  0  0  0  0  0  0  0  0  0  0  0
   14.3311  -14.5100   21.4483 O   0  0  0  0  0  0  0  0  0  0  0  0
   14.8092  -14.4235   19.2264 O   0  0  0  0  0  0  0  0  0  0  0  0
  2  1  1  6
  3  2  1  0
  4  5  1  6
  4  2  1  0
  6  4  1  0
  7  6  2  0
  8  6  1  0
  9 10  1  6
  9  8  1  0
 10 11  1  0
 11 12  2  0
 13 16  1  0
 13  9  1  0
 14 13  2  0
 15 11  1  0
 17 16  1  0
 18 17  1  0
 19 18  1  0
 20 18  2  0
M  END
$$$$
