TDG.pdb
     RDKit          3D

 20 19  0  0  1  0  0  0  0  0999 V2000
    9.8036  -13.5770   18.1920 C   0  0  0  0  0  0  0  0  0  0  0  0
    8.4267  -13.3150   18.7130 C   0  0  1  0  0  0  0  0  0  0  0  0
    7.5592  -13.0773   17.6662 O   0  0  0  0  0  0  0  0  0  0  0  0
    7.9015  -14.4499   19.5689 C   0  0  2  0  0  0  0  0  0  0  0  0
    6.5127  -14.1166   19.9339 N   0  0  0  0  0  0  0  0  0  0  0  0
    8.7111  -14.6663   20.7959 C   0  0  0  0  0  0  0  0  0  0  0  0
    8.5257  -13.9234   21.7684 O   0  0  0  0  0  0  0  0  0  0  0  0
    9.6804  -15.6898   20.8841 N   0  0  0  0  0  0  0  0  0  0  0  0
   10.4254  -15.9621   22.0784 C   0  0  1  0  0  0  0  0  0  0  0  0
   10.2558  -17.3491   22.5961 C   0  0  0  0  0  0  0  0  0  0  0  0
   10.4395  -18.4026   21.5764 C   0  0  0  0  0  0  0  0  0  0  0  0
   10.8761  -18.1349   20.4337 O   0  0  0  0  0  0  0  0  0  0  0  0
   11.8637  -15.6799   21.8674 C   0  0  0  0  0  0  0  0  0  0  0  0
   12.6873  -15.7268   22.8123 O   0  0  0  0  0  0  0  0  0  0  0  0
   10.1404  -19.7422   21.8259 O   0  0  0  0  0  0  0  0  0  0  0  0
   12.3545  -15.3472   20.5831 N   0  0  0  0  0  0  0  0  0  0  0  0
   13.7437  -15.1529   20.2938 C   0  0  0  0  0  0  0  0  0  0  0  0
   13.9514  -14.7489   18.8779 C   0  0  0  0  0  0  0  0  0  0  0  0
   14.6251  -13.5991   18.5203 O   0  0  0  0  0  0  0  0  0  0  0  0
   13.4896  -15.4935   17.9778 O   0  0  0  0  0  0  0  0  0  0  0  0
  2  1  1  6
  3  2  1  0
  4  5  1  1
  4  2  1  0
  6  4  1  0
  7  6  2  0
  8  6  1  0
  9 10  1  6
  9  8  1  0
 10 11  1  0
 11 12  2  0
 13 16  1  0
 13  9  1  0
 14 13  2  0
 15 11  1  0
 17 16  1  0
 18 17  1  0
 19 18  1  0
 20 18  2  0
M  END
$$$$
