TDG.pdb
     RDKit          3D

 20 19  0  0  1  0  0  0  0  0999 V2000
   14.2092  -15.5447   15.4248 C   0  0  0  0  0  0  0  0  0  0  0  0
   12.9754  -14.7957   15.8157 C   0  0  1  0  0  0  0  0  0  0  0  0
   12.0543  -14.8272   14.7884 O   0  0  0  0  0  0  0  0  0  0  0  0
   12.3470  -15.3303   17.0868 C   0  0  2  0  0  0  0  0  0  0  0  0
   11.0599  -14.6341   17.2652 N   0  0  0  0  0  0  0  0  0  0  0  0
   13.2054  -15.1253   18.2823 C   0  0  0  0  0  0  0  0  0  0  0  0
   13.0150  -14.1246   18.9854 O   0  0  0  0  0  0  0  0  0  0  0  0
   14.2260  -16.0346   18.6375 N   0  0  0  0  0  0  0  0  0  0  0  0
   15.0906  -15.8402   19.7645 C   0  0  1  0  0  0  0  0  0  0  0  0
   15.4154  -17.0930   20.5031 C   0  0  0  0  0  0  0  0  0  0  0  0
   14.2387  -17.7841   21.0698 C   0  0  0  0  0  0  0  0  0  0  0  0
   13.3539  -17.1576   21.6965 O   0  0  0  0  0  0  0  0  0  0  0  0
   16.3421  -15.1674   19.3474 C   0  0  0  0  0  0  0  0  0  0  0  0
   17.1802  -14.7608   20.1874 O   0  0  0  0  0  0  0  0  0  0  0  0
   14.0479  -19.1600   20.9404 O   0  0  0  0  0  0  0  0  0  0  0  0
   16.6313  -14.9628   17.9779 N   0  0  0  0  0  0  0  0  0  0  0  0
   17.8223  -14.3202   17.5089 C   0  0  0  0  0  0  0  0  0  0  0  0
   17.5080  -13.0703   16.7673 C   0  0  0  0  0  0  0  0  0  0  0  0
   18.4783  -12.2921   16.1699 O   0  0  0  0  0  0  0  0  0  0  0  0
   16.3050  -12.7179   16.6876 O   0  0  0  0  0  0  0  0  0  0  0  0
  2  1  1  6
  3  2  1  0
  4  5  1  1
  4  2  1  0
  6  4  1  0
  7  6  2  0
  8  6  1  0
  9 10  1  6
  9  8  1  0
 10 11  1  0
 11 12  2  0
 13 16  1  0
 13  9  1  0
 14 13  2  0
 15 11  1  0
 17 16  1  0
 18 17  1  0
 19 18  1  0
 20 18  2  0
M  END
$$$$
