TDG.pdb
     RDKit          3D

 20 19  0  0  1  0  0  0  0  0999 V2000
    7.8343  -12.3868   18.0715 C   0  0  0  0  0  0  0  0  0  0  0  0
    8.3934  -13.2853   19.1280 C   0  0  1  0  0  0  0  0  0  0  0  0
    8.4938  -12.6065   20.3254 O   0  0  0  0  0  0  0  0  0  0  0  0
    7.5713  -14.5441   19.3176 C   0  0  2  0  0  0  0  0  0  0  0  0
    6.2664  -14.1360   19.8689 N   0  0  0  0  0  0  0  0  0  0  0  0
    8.2221  -15.5240   20.2256 C   0  0  0  0  0  0  0  0  0  0  0  0
    7.8233  -15.6065   21.3943 O   0  0  0  0  0  0  0  0  0  0  0  0
    9.2765  -16.3595   19.7954 N   0  0  0  0  0  0  0  0  0  0  0  0
    9.8508  -17.3827   20.6193 C   0  0  1  0  0  0  0  0  0  0  0  0
   10.5785  -18.4371   19.8581 C   0  0  0  0  0  0  0  0  0  0  0  0
    9.7142  -19.2607   18.9875 C   0  0  0  0  0  0  0  0  0  0  0  0
    8.5560  -19.5840   19.3367 O   0  0  0  0  0  0  0  0  0  0  0  0
   10.7511  -16.7870   21.6330 C   0  0  0  0  0  0  0  0  0  0  0  0
   11.4865  -15.8074   21.3630 O   0  0  0  0  0  0  0  0  0  0  0  0
   10.1348  -19.7207   17.7393 O   0  0  0  0  0  0  0  0  0  0  0  0
   10.8077  -17.3097   22.9462 N   0  0  0  0  0  0  0  0  0  0  0  0
   11.5138  -16.6764   24.0193 C   0  0  0  0  0  0  0  0  0  0  0  0
   12.7909  -17.3776   24.3165 C   0  0  0  0  0  0  0  0  0  0  0  0
   13.6121  -17.0209   25.3664 O   0  0  0  0  0  0  0  0  0  0  0  0
   13.1262  -18.3335   23.5738 O   0  0  0  0  0  0  0  0  0  0  0  0
  2  1  1  6
  3  2  1  0
  4  5  1  1
  4  2  1  0
  6  4  1  0
  7  6  2  0
  8  6  1  0
  9 10  1  6
  9  8  1  0
 10 11  1  0
 11 12  2  0
 13 16  1  0
 13  9  1  0
 14 13  2  0
 15 11  1  0
 17 16  1  0
 18 17  1  0
 19 18  1  0
 20 18  2  0
M  END
$$$$
