TDG.pdb
     RDKit          3D

 20 19  0  0  1  0  0  0  0  0999 V2000
    8.6591  -12.8261   19.6315 C   0  0  0  0  0  0  0  0  0  0  0  0
    7.8186  -13.4914   18.5889 C   0  0  1  0  0  0  0  0  0  0  0  0
    7.3664  -12.5597   17.6767 O   0  0  0  0  0  0  0  0  0  0  0  0
    8.5552  -14.6021   17.8677 C   0  0  2  0  0  0  0  0  0  0  0  0
    7.6081  -15.2089   16.9149 N   0  0  0  0  0  0  0  0  0  0  0  0
    9.0791  -15.6396   18.7935 C   0  0  0  0  0  0  0  0  0  0  0  0
    8.2777  -16.4131   19.3333 O   0  0  0  0  0  0  0  0  0  0  0  0
   10.4576  -15.7680   19.0733 N   0  0  0  0  0  0  0  0  0  0  0  0
   10.9816  -16.7211   20.0074 C   0  0  1  0  0  0  0  0  0  0  0  0
   12.3436  -17.2199   19.6654 C   0  0  0  0  0  0  0  0  0  0  0  0
   12.4458  -17.8295   18.3233 C   0  0  0  0  0  0  0  0  0  0  0  0
   11.7427  -18.8136   17.9991 O   0  0  0  0  0  0  0  0  0  0  0  0
   10.9854  -16.1565   21.3764 C   0  0  0  0  0  0  0  0  0  0  0  0
   11.5747  -15.0814   21.6413 O   0  0  0  0  0  0  0  0  0  0  0  0
   13.3225  -17.3484   17.3505 O   0  0  0  0  0  0  0  0  0  0  0  0
   10.3185  -16.8187   22.4335 N   0  0  0  0  0  0  0  0  0  0  0  0
   10.0930  -16.2283   23.7188 C   0  0  0  0  0  0  0  0  0  0  0  0
   11.1702  -16.5898   24.6781 C   0  0  0  0  0  0  0  0  0  0  0  0
   11.1937  -16.1354   25.9808 O   0  0  0  0  0  0  0  0  0  0  0  0
   12.0924  -17.3410   24.2744 O   0  0  0  0  0  0  0  0  0  0  0  0
  2  1  1  1
  3  2  1  0
  4  5  1  6
  4  2  1  0
  6  4  1  0
  7  6  2  0
  8  6  1  0
  9 10  1  6
  9  8  1  0
 10 11  1  0
 11 12  2  0
 13 16  1  0
 13  9  1  0
 14 13  2  0
 15 11  1  0
 17 16  1  0
 18 17  1  0
 19 18  1  0
 20 18  2  0
M  END
$$$$
