TDG.pdb
     RDKit          3D

 20 19  0  0  1  0  0  0  0  0999 V2000
    9.5036  -15.7960   19.8806 C   0  0  0  0  0  0  0  0  0  0  0  0
    8.9457  -14.4143   19.7547 C   0  0  1  0  0  0  0  0  0  0  0  0
    8.9387  -14.0229   18.4312 O   0  0  0  0  0  0  0  0  0  0  0  0
    7.5508  -14.2938   20.3343 C   0  0  2  0  0  0  0  0  0  0  0  0
    7.0754  -12.9274   20.0509 N   0  0  0  0  0  0  0  0  0  0  0  0
    7.5122  -14.5517   21.7972 C   0  0  0  0  0  0  0  0  0  0  0  0
    7.6039  -13.5910   22.5722 O   0  0  0  0  0  0  0  0  0  0  0  0
    7.3743  -15.8542   22.3256 N   0  0  0  0  0  0  0  0  0  0  0  0
    7.4692  -16.1451   23.7263 C   0  0  1  0  0  0  0  0  0  0  0  0
    6.9476  -17.4892   24.1034 C   0  0  0  0  0  0  0  0  0  0  0  0
    7.0042  -17.7760   25.5517 C   0  0  0  0  0  0  0  0  0  0  0  0
    6.6249  -16.9348   26.3983 O   0  0  0  0  0  0  0  0  0  0  0  0
    8.8681  -16.0037   24.1911 C   0  0  0  0  0  0  0  0  0  0  0  0
    9.1556  -15.9860   25.4119 O   0  0  0  0  0  0  0  0  0  0  0  0
    7.4785  -18.9881   26.0540 O   0  0  0  0  0  0  0  0  0  0  0  0
    9.9296  -15.8840   23.2638 N   0  0  0  0  0  0  0  0  0  0  0  0
   11.2911  -15.6567   23.6458 C   0  0  0  0  0  0  0  0  0  0  0  0
   12.2018  -16.6573   23.0289 C   0  0  0  0  0  0  0  0  0  0  0  0
   13.5691  -16.6367   23.2134 O   0  0  0  0  0  0  0  0  0  0  0  0
   11.6937  -17.5545   22.3114 O   0  0  0  0  0  0  0  0  0  0  0  0
  2  1  1  6
  3  2  1  0
  4  5  1  1
  4  2  1  0
  6  4  1  0
  7  6  2  0
  8  6  1  0
  9 10  1  6
  9  8  1  0
 10 11  1  0
 11 12  2  0
 13 16  1  0
 13  9  1  0
 14 13  2  0
 15 11  1  0
 17 16  1  0
 18 17  1  0
 19 18  1  0
 20 18  2  0
M  END
$$$$
