TDG.pdb
     RDKit          3D

 20 19  0  0  1  0  0  0  0  0999 V2000
    8.6049  -12.2576   19.1024 C   0  0  0  0  0  0  0  0  0  0  0  0
    7.5484  -13.2958   18.8974 C   0  0  1  0  0  0  0  0  0  0  0  0
    6.8589  -13.0483   17.7277 O   0  0  0  0  0  0  0  0  0  0  0  0
    8.1103  -14.7030   18.8754 C   0  0  2  0  0  0  0  0  0  0  0  0
    6.9818  -15.6215   18.6391 N   0  0  0  0  0  0  0  0  0  0  0  0
    8.8035  -15.0646   20.1390 C   0  0  0  0  0  0  0  0  0  0  0  0
    8.1241  -15.4447   21.1012 O   0  0  0  0  0  0  0  0  0  0  0  0
   10.2075  -14.9879   20.2727 N   0  0  0  0  0  0  0  0  0  0  0  0
   10.9253  -15.5950   21.3551 C   0  0  1  0  0  0  0  0  0  0  0  0
   10.5775  -17.0253   21.5869 C   0  0  0  0  0  0  0  0  0  0  0  0
   11.3233  -17.6580   22.6945 C   0  0  0  0  0  0  0  0  0  0  0  0
   11.4754  -17.0773   23.7935 O   0  0  0  0  0  0  0  0  0  0  0  0
   12.3855  -15.4634   21.1466 C   0  0  0  0  0  0  0  0  0  0  0  0
   13.2068  -15.7666   22.0450 O   0  0  0  0  0  0  0  0  0  0  0  0
   11.8949  -18.9255   22.5806 O   0  0  0  0  0  0  0  0  0  0  0  0
   12.9007  -14.9885   19.9178 N   0  0  0  0  0  0  0  0  0  0  0  0
   14.0492  -14.1388   19.8177 C   0  0  0  0  0  0  0  0  0  0  0  0
   15.2893  -14.9275   19.5914 C   0  0  0  0  0  0  0  0  0  0  0  0
   16.2808  -14.5267   18.7195 O   0  0  0  0  0  0  0  0  0  0  0  0
   15.4293  -16.0023   20.2262 O   0  0  0  0  0  0  0  0  0  0  0  0
  2  1  1  6
  3  2  1  0
  4  5  1  1
  4  2  1  0
  6  4  1  0
  7  6  2  0
  8  6  1  0
  9 10  1  6
  9  8  1  0
 10 11  1  0
 11 12  2  0
 13 16  1  0
 13  9  1  0
 14 13  2  0
 15 11  1  0
 17 16  1  0
 18 17  1  0
 19 18  1  0
 20 18  2  0
M  END
$$$$
