TDG.pdb
     RDKit          3D

 20 19  0  0  1  0  0  0  0  0999 V2000
    7.5177  -12.3715   19.9343 C   0  0  0  0  0  0  0  0  0  0  0  0
    8.3170  -13.4868   20.5286 C   0  0  1  0  0  0  0  0  0  0  0  0
    7.5838  -14.1296   21.5053 O   0  0  0  0  0  0  0  0  0  0  0  0
    8.7813  -14.4887   19.4908 C   0  0  2  0  0  0  0  0  0  0  0  0
    7.5764  -15.0404   18.8451 N   0  0  0  0  0  0  0  0  0  0  0  0
    9.5924  -15.5878   20.0759 C   0  0  0  0  0  0  0  0  0  0  0  0
    9.0670  -16.6983   20.2262 O   0  0  0  0  0  0  0  0  0  0  0  0
   10.9381  -15.4027   20.4626 N   0  0  0  0  0  0  0  0  0  0  0  0
   11.6989  -16.4024   21.1535 C   0  0  1  0  0  0  0  0  0  0  0  0
   13.1592  -16.3645   20.8590 C   0  0  0  0  0  0  0  0  0  0  0  0
   13.5196  -16.8685   19.5176 C   0  0  0  0  0  0  0  0  0  0  0  0
   13.1175  -17.9821   19.1099 O   0  0  0  0  0  0  0  0  0  0  0  0
   11.4811  -16.3011   22.6148 C   0  0  0  0  0  0  0  0  0  0  0  0
   11.8558  -15.2968   23.2662 O   0  0  0  0  0  0  0  0  0  0  0  0
   14.3202  -16.1400   18.6374 O   0  0  0  0  0  0  0  0  0  0  0  0
   10.8384  -17.3427   23.3240 N   0  0  0  0  0  0  0  0  0  0  0  0
   10.4014  -17.2215   24.6825 C   0  0  0  0  0  0  0  0  0  0  0  0
   11.2865  -17.9791   25.6065 C   0  0  0  0  0  0  0  0  0  0  0  0
   11.0938  -18.0043   26.9726 O   0  0  0  0  0  0  0  0  0  0  0  0
   12.2471  -18.6193   25.1113 O   0  0  0  0  0  0  0  0  0  0  0  0
  2  1  1  6
  3  2  1  0
  4  5  1  1
  4  2  1  0
  6  4  1  0
  7  6  2  0
  8  6  1  0
  9 10  1  1
  9  8  1  0
 10 11  1  0
 11 12  2  0
 13 16  1  0
 13  9  1  0
 14 13  2  0
 15 11  1  0
 17 16  1  0
 18 17  1  0
 19 18  1  0
 20 18  2  0
M  END
$$$$
