TDG.pdb
     RDKit          3D

 20 19  0  0  1  0  0  0  0  0999 V2000
   10.1938  -13.3027   18.0089 C   0  0  0  0  0  0  0  0  0  0  0  0
    8.7839  -12.9683   18.3778 C   0  0  1  0  0  0  0  0  0  0  0  0
    8.1105  -12.4702   17.2809 O   0  0  0  0  0  0  0  0  0  0  0  0
    8.0330  -14.1551   18.9471 C   0  0  2  0  0  0  0  0  0  0  0  0
    6.7177  -13.6657   19.3982 N   0  0  0  0  0  0  0  0  0  0  0  0
    8.7501  -14.7999   20.0777 C   0  0  0  0  0  0  0  0  0  0  0  0
    8.6044  -14.3352   21.2156 O   0  0  0  0  0  0  0  0  0  0  0  0
    9.5879  -15.9217   19.8922 N   0  0  0  0  0  0  0  0  0  0  0  0
   10.3236  -16.5346   20.9593 C   0  0  1  0  0  0  0  0  0  0  0  0
   10.5080  -18.0050   20.8026 C   0  0  0  0  0  0  0  0  0  0  0  0
    9.2455  -18.7662   20.7022 C   0  0  0  0  0  0  0  0  0  0  0  0
    8.4214  -18.7892   21.6447 O   0  0  0  0  0  0  0  0  0  0  0  0
   11.6420  -15.8803   21.1222 C   0  0  0  0  0  0  0  0  0  0  0  0
   12.2968  -15.4685   20.1348 O   0  0  0  0  0  0  0  0  0  0  0  0
    8.9029  -19.4954   19.5633 O   0  0  0  0  0  0  0  0  0  0  0  0
   12.2054  -15.6987   22.4069 N   0  0  0  0  0  0  0  0  0  0  0  0
   13.4594  -15.0455   22.6350 C   0  0  0  0  0  0  0  0  0  0  0  0
   14.5984  -15.9885   22.4785 C   0  0  0  0  0  0  0  0  0  0  0  0
   15.9116  -15.6127   22.6743 O   0  0  0  0  0  0  0  0  0  0  0  0
   14.3424  -17.1746   22.1540 O   0  0  0  0  0  0  0  0  0  0  0  0
  2  1  1  6
  3  2  1  0
  4  5  1  1
  4  2  1  0
  6  4  1  0
  7  6  2  0
  8  6  1  0
  9 10  1  6
  9  8  1  0
 10 11  1  0
 11 12  2  0
 13 16  1  0
 13  9  1  0
 14 13  2  0
 15 11  1  0
 17 16  1  0
 18 17  1  0
 19 18  1  0
 20 18  2  0
M  END
$$$$
