TDG.pdb
     RDKit          3D

 20 19  0  0  1  0  0  0  0  0999 V2000
    8.9759  -12.3077   19.7782 C   0  0  0  0  0  0  0  0  0  0  0  0
    7.9524  -13.0057   18.9408 C   0  0  1  0  0  0  0  0  0  0  0  0
    7.2391  -12.0873   18.1976 O   0  0  0  0  0  0  0  0  0  0  0  0
    8.5612  -14.0477   18.0242 C   0  0  2  0  0  0  0  0  0  0  0  0
    7.4610  -14.6380   17.2406 N   0  0  0  0  0  0  0  0  0  0  0  0
    9.2850  -15.1127   18.7659 C   0  0  0  0  0  0  0  0  0  0  0  0
    8.6270  -16.0028   19.3195 O   0  0  0  0  0  0  0  0  0  0  0  0
   10.6943  -15.1384   18.8562 N   0  0  0  0  0  0  0  0  0  0  0  0
   11.4173  -16.1824   19.5217 C   0  0  1  0  0  0  0  0  0  0  0  0
   12.6974  -16.5537   18.8552 C   0  0  0  0  0  0  0  0  0  0  0  0
   13.3349  -17.7689   19.4030 C   0  0  0  0  0  0  0  0  0  0  0  0
   12.6774  -18.6135   20.0530 O   0  0  0  0  0  0  0  0  0  0  0  0
   11.6769  -15.8146   20.9325 C   0  0  0  0  0  0  0  0  0  0  0  0
   12.2933  -14.7647   21.2344 O   0  0  0  0  0  0  0  0  0  0  0  0
   14.6919  -18.0423   19.2292 O   0  0  0  0  0  0  0  0  0  0  0  0
   11.2330  -16.6436   21.9893 N   0  0  0  0  0  0  0  0  0  0  0  0
   11.3122  -16.2737   23.3707 C   0  0  0  0  0  0  0  0  0  0  0  0
   12.5792  -16.7484   23.9875 C   0  0  0  0  0  0  0  0  0  0  0  0
   12.8947  -16.5252   25.3121 O   0  0  0  0  0  0  0  0  0  0  0  0
   13.3889  -17.3781   23.2625 O   0  0  0  0  0  0  0  0  0  0  0  0
  2  1  1  6
  3  2  1  0
  4  5  1  1
  4  2  1  0
  6  4  1  0
  7  6  2  0
  8  6  1  0
  9 10  1  6
  9  8  1  0
 10 11  1  0
 11 12  2  0
 13 16  1  0
 13  9  1  0
 14 13  2  0
 15 11  1  0
 17 16  1  0
 18 17  1  0
 19 18  1  0
 20 18  2  0
M  END
$$$$
