TDG.pdb
     RDKit          3D

 20 19  0  0  1  0  0  0  0  0999 V2000
    9.2587  -12.4920   19.0862 C   0  0  0  0  0  0  0  0  0  0  0  0
    8.2992  -13.3398   18.3138 C   0  0  1  0  0  0  0  0  0  0  0  0
    8.1332  -12.8317   17.0414 O   0  0  0  0  0  0  0  0  0  0  0  0
    8.7339  -14.7894   18.2363 C   0  0  2  0  0  0  0  0  0  0  0  0
    7.7232  -15.5076   17.4390 N   0  0  0  0  0  0  0  0  0  0  0  0
    8.8680  -15.4213   19.5745 C   0  0  0  0  0  0  0  0  0  0  0  0
    7.8731  -15.4736   20.3089 O   0  0  0  0  0  0  0  0  0  0  0  0
   10.0911  -15.9614   20.0296 N   0  0  0  0  0  0  0  0  0  0  0  0
   10.2451  -16.5772   21.3152 C   0  0  1  0  0  0  0  0  0  0  0  0
   10.3240  -18.0646   21.2696 C   0  0  0  0  0  0  0  0  0  0  0  0
    9.2035  -18.7087   20.5535 C   0  0  0  0  0  0  0  0  0  0  0  0
    8.0187  -18.5642   20.9322 O   0  0  0  0  0  0  0  0  0  0  0  0
   11.4348  -16.0348   22.0103 C   0  0  0  0  0  0  0  0  0  0  0  0
   11.7526  -16.4161   23.1622 O   0  0  0  0  0  0  0  0  0  0  0  0
    9.3993  -19.5067   19.4260 O   0  0  0  0  0  0  0  0  0  0  0  0
   12.2545  -15.0633   21.3897 N   0  0  0  0  0  0  0  0  0  0  0  0
   13.3914  -14.4664   22.0241 C   0  0  0  0  0  0  0  0  0  0  0  0
   14.6190  -15.2784   21.8125 C   0  0  0  0  0  0  0  0  0  0  0  0
   15.8582  -14.8959   22.2837 O   0  0  0  0  0  0  0  0  0  0  0  0
   14.5114  -16.3563   21.1764 O   0  0  0  0  0  0  0  0  0  0  0  0
  2  1  1  6
  3  2  1  0
  4  5  1  6
  4  2  1  0
  6  4  1  0
  7  6  2  0
  8  6  1  0
  9 10  1  6
  9  8  1  0
 10 11  1  0
 11 12  2  0
 13 16  1  0
 13  9  1  0
 14 13  2  0
 15 11  1  0
 17 16  1  0
 18 17  1  0
 19 18  1  0
 20 18  2  0
M  END
$$$$
