FGK.pdb
     RDKit          3D

 25 25  0  0  1  0  0  0  0  0999 V2000
   25.9317  -21.6232   -7.9483 N   0  0  0  0  0  0  0  0  0  0  0  0
   26.4375  -20.3980   -8.5406 C   0  0  1  0  0  0  0  0  0  0  0  0
   27.8758  -20.2363   -8.1309 C   0  0  0  0  0  0  0  0  0  0  0  0
   28.0773  -20.0090   -6.6919 C   0  0  0  0  0  0  0  0  0  0  0  0
   27.6620  -18.8455   -6.0525 C   0  0  0  0  0  0  0  0  0  0  0  0
   27.8546  -18.6595   -4.7024 C   0  0  0  0  0  0  0  0  0  0  0  0
   28.4592  -19.6018   -3.9282 C   0  0  0  0  0  0  0  0  0  0  0  0
   28.8789  -20.7618   -4.5377 C   0  0  0  0  0  0  0  0  0  0  0  0
   28.6913  -20.9628   -5.8968 C   0  0  0  0  0  0  0  0  0  0  0  0
   26.3302  -20.4585  -10.0046 C   0  0  0  0  0  0  0  0  0  0  0  0
   26.2458  -19.4418  -10.7359 O   0  0  0  0  0  0  0  0  0  0  0  0
   26.3153  -21.7307  -10.7093 N   0  0  0  0  0  0  0  0  0  0  0  0
   26.2385  -21.7631  -12.1213 C   0  0  0  0  0  0  0  0  0  0  0  0
   24.8559  -21.8689  -12.6023 C   0  0  0  0  0  0  0  0  0  0  0  0
   24.4094  -23.0086  -13.0111 O   0  0  0  0  0  0  0  0  0  0  0  0
   23.9469  -20.8149  -12.6611 N   0  0  0  0  0  0  0  0  0  0  0  0
   22.5435  -21.0755  -13.0249 C   0  0  1  0  0  0  0  0  0  0  0  0
   21.7211  -21.0457  -11.7891 C   0  0  0  0  0  0  0  0  0  0  0  0
   21.1761  -22.3255  -11.2961 C   0  0  0  0  0  0  0  0  0  0  0  0
   20.2951  -22.2177  -10.0901 C   0  0  0  0  0  0  0  0  0  0  0  0
   19.7063  -23.5670   -9.7362 C   0  0  0  0  0  0  0  0  0  0  0  0
   18.9151  -23.3839   -8.5248 N   0  0  0  0  0  0  0  0  0  0  0  0
   22.1428  -19.9598  -13.9133 C   0  0  0  0  0  0  0  0  0  0  0  0
   20.9831  -19.9904  -14.6351 O   0  0  0  0  0  0  0  0  0  0  0  0
   22.8863  -18.9660  -14.0035 O   0  0  0  0  0  0  0  0  0  0  0  0
  2 10  1  0
  2  1  1  1
  3  2  1  0
  4  3  1  0
  5  4  2  0
  6  5  1  0
  7  8  1  0
  7  6  2  0
  8  9  2  0
  9  4  1  0
 10 12  1  0
 11 10  2  0
 12 13  1  0
 14 13  1  0
 14 15  2  0
 16 14  1  0
 17 16  1  0
 17 23  1  0
 17 18  1  1
 19 20  1  0
 19 18  1  0
 21 20  1  0
 22 21  1  0
 23 25  2  0
 23 24  1  0
M  END
$$$$
