FGK.pdb
     RDKit          3D

 25 25  0  0  1  0  0  0  0  0999 V2000
   25.2970  -21.2004   -7.5412 N   0  0  0  0  0  0  0  0  0  0  0  0
   25.9434  -20.2542   -8.4327 C   0  0  1  0  0  0  0  0  0  0  0  0
   27.4259  -20.3113   -8.1844 C   0  0  0  0  0  0  0  0  0  0  0  0
   27.8278  -19.9600   -6.8140 C   0  0  0  0  0  0  0  0  0  0  0  0
   28.3765  -20.8870   -5.9339 C   0  0  0  0  0  0  0  0  0  0  0  0
   28.7524  -20.5319   -4.6583 C   0  0  0  0  0  0  0  0  0  0  0  0
   28.6064  -19.2600   -4.1960 C   0  0  0  0  0  0  0  0  0  0  0  0
   28.0659  -18.3246   -5.0480 C   0  0  0  0  0  0  0  0  0  0  0  0
   27.6829  -18.6680   -6.3357 C   0  0  0  0  0  0  0  0  0  0  0  0
   25.6496  -20.5913   -9.8322 C   0  0  0  0  0  0  0  0  0  0  0  0
   25.2157  -21.7105  -10.1991 O   0  0  0  0  0  0  0  0  0  0  0  0
   25.8491  -19.6244  -10.9002 N   0  0  0  0  0  0  0  0  0  0  0  0
   24.8131  -19.3607  -11.8263 C   0  0  0  0  0  0  0  0  0  0  0  0
   25.2046  -19.6746  -13.2056 C   0  0  0  0  0  0  0  0  0  0  0  0
   25.4169  -18.7145  -14.0414 O   0  0  0  0  0  0  0  0  0  0  0  0
   25.3748  -20.9597  -13.7155 N   0  0  0  0  0  0  0  0  0  0  0  0
   25.2630  -21.1947  -15.1653 C   0  0  1  0  0  0  0  0  0  0  0  0
   26.1556  -22.3232  -15.5318 C   0  0  0  0  0  0  0  0  0  0  0  0
   27.6122  -22.1031  -15.4436 C   0  0  0  0  0  0  0  0  0  0  0  0
   28.4567  -23.2482  -15.9103 C   0  0  0  0  0  0  0  0  0  0  0  0
   29.9272  -22.8979  -15.8234 C   0  0  0  0  0  0  0  0  0  0  0  0
   30.6738  -24.0832  -16.2289 N   0  0  0  0  0  0  0  0  0  0  0  0
   23.8530  -21.5810  -15.4044 C   0  0  0  0  0  0  0  0  0  0  0  0
   23.2675  -21.4585  -16.6328 O   0  0  0  0  0  0  0  0  0  0  0  0
   23.1835  -22.0302  -14.4564 O   0  0  0  0  0  0  0  0  0  0  0  0
  2 10  1  0
  2  1  1  1
  3  2  1  0
  4  3  1  0
  5  4  2  0
  6  5  1  0
  7  8  1  0
  7  6  2  0
  8  9  2  0
  9  4  1  0
 10 12  1  0
 11 10  2  0
 12 13  1  0
 14 13  1  0
 14 15  2  0
 16 14  1  0
 17 16  1  0
 17 23  1  0
 17 18  1  1
 19 20  1  0
 19 18  1  0
 21 20  1  0
 22 21  1  0
 23 25  2  0
 23 24  1  0
M  END
$$$$
