FGK.pdb
     RDKit          3D

 25 25  0  0  1  0  0  0  0  0999 V2000
   25.8591  -19.2961   -8.4767 N   0  0  0  0  0  0  0  0  0  0  0  0
   27.1214  -19.8919   -8.8761 C   0  0  1  0  0  0  0  0  0  0  0  0
   27.5137  -20.9047   -7.8354 C   0  0  0  0  0  0  0  0  0  0  0  0
   27.9257  -20.3262   -6.5476 C   0  0  0  0  0  0  0  0  0  0  0  0
   28.9477  -19.3886   -6.4408 C   0  0  0  0  0  0  0  0  0  0  0  0
   29.3098  -18.8555   -5.2246 C   0  0  0  0  0  0  0  0  0  0  0  0
   28.6876  -19.2180   -4.0694 C   0  0  0  0  0  0  0  0  0  0  0  0
   27.6731  -20.1441   -4.1491 C   0  0  0  0  0  0  0  0  0  0  0  0
   27.2977  -20.6894   -5.3674 C   0  0  0  0  0  0  0  0  0  0  0  0
   26.9863  -20.5385  -10.1884 C   0  0  0  0  0  0  0  0  0  0  0  0
   27.5365  -21.6271  -10.4846 O   0  0  0  0  0  0  0  0  0  0  0  0
   26.1878  -19.9406  -11.2468 N   0  0  0  0  0  0  0  0  0  0  0  0
   26.1940  -20.4982  -12.5467 C   0  0  0  0  0  0  0  0  0  0  0  0
   24.8588  -20.9333  -12.9734 C   0  0  0  0  0  0  0  0  0  0  0  0
   24.6919  -21.4007  -14.1646 O   0  0  0  0  0  0  0  0  0  0  0  0
   23.7125  -20.8872  -12.1833 N   0  0  0  0  0  0  0  0  0  0  0  0
   22.4292  -21.3684  -12.7231 C   0  0  1  0  0  0  0  0  0  0  0  0
   21.4984  -21.6044  -11.5907 C   0  0  0  0  0  0  0  0  0  0  0  0
   20.1258  -22.0426  -11.9101 C   0  0  0  0  0  0  0  0  0  0  0  0
   19.2483  -22.2968  -10.7236 C   0  0  0  0  0  0  0  0  0  0  0  0
   17.8702  -22.7433  -11.1641 C   0  0  0  0  0  0  0  0  0  0  0  0
   17.1124  -23.0468   -9.9556 N   0  0  0  0  0  0  0  0  0  0  0  0
   21.9098  -20.2697  -13.5702 C   0  0  0  0  0  0  0  0  0  0  0  0
   21.2160  -20.5103  -14.7224 O   0  0  0  0  0  0  0  0  0  0  0  0
   22.1128  -19.0929  -13.2200 O   0  0  0  0  0  0  0  0  0  0  0  0
  2 10  1  0
  2  1  1  1
  3  2  1  0
  4  3  1  0
  5  4  2  0
  6  5  1  0
  7  8  1  0
  7  6  2  0
  8  9  2  0
  9  4  1  0
 10 12  1  0
 11 10  2  0
 12 13  1  0
 14 13  1  0
 14 15  2  0
 16 14  1  0
 17 16  1  0
 17 23  1  0
 17 18  1  1
 19 20  1  0
 19 18  1  0
 21 20  1  0
 22 21  1  0
 23 25  2  0
 23 24  1  0
M  END
$$$$
