FGK.pdb
     RDKit          3D

 25 25  0  0  1  0  0  0  0  0999 V2000
   28.5203  -22.5686  -12.4264 N   0  0  0  0  0  0  0  0  0  0  0  0
   27.8924  -21.6726  -11.4721 C   0  0  1  0  0  0  0  0  0  0  0  0
   28.9145  -20.6588  -11.0358 C   0  0  0  0  0  0  0  0  0  0  0  0
   30.0227  -21.2133  -10.2438 C   0  0  0  0  0  0  0  0  0  0  0  0
   31.2060  -21.6605  -10.8225 C   0  0  0  0  0  0  0  0  0  0  0  0
   32.2325  -22.1683  -10.0589 C   0  0  0  0  0  0  0  0  0  0  0  0
   32.1410  -22.2579   -8.7037 C   0  0  0  0  0  0  0  0  0  0  0  0
   30.9801  -21.8217   -8.1076 C   0  0  0  0  0  0  0  0  0  0  0  0
   29.9380  -21.3078   -8.8643 C   0  0  0  0  0  0  0  0  0  0  0  0
   26.7405  -20.9998  -12.0875 C   0  0  0  0  0  0  0  0  0  0  0  0
   26.7197  -20.6146  -13.2820 O   0  0  0  0  0  0  0  0  0  0  0  0
   25.5274  -20.7342  -11.3305 N   0  0  0  0  0  0  0  0  0  0  0  0
   24.3954  -20.1766  -11.9696 C   0  0  0  0  0  0  0  0  0  0  0  0
   23.2314  -21.0692  -11.9211 C   0  0  0  0  0  0  0  0  0  0  0  0
   23.4084  -22.3390  -11.7739 O   0  0  0  0  0  0  0  0  0  0  0  0
   21.9042  -20.6585  -12.0228 N   0  0  0  0  0  0  0  0  0  0  0  0
   20.8185  -21.6458  -11.8945 C   0  0  1  0  0  0  0  0  0  0  0  0
   19.7036  -21.0267  -11.1343 C   0  0  0  0  0  0  0  0  0  0  0  0
   18.5995  -21.9037  -10.6984 C   0  0  0  0  0  0  0  0  0  0  0  0
   18.9713  -22.9313   -9.6747 C   0  0  0  0  0  0  0  0  0  0  0  0
   17.7919  -23.8291   -9.3661 C   0  0  0  0  0  0  0  0  0  0  0  0
   18.2566  -24.8347   -8.4175 N   0  0  0  0  0  0  0  0  0  0  0  0
   20.3729  -21.9382  -13.2768 C   0  0  0  0  0  0  0  0  0  0  0  0
   20.6526  -21.1008  -14.3196 O   0  0  0  0  0  0  0  0  0  0  0  0
   19.7246  -22.9783  -13.4922 O   0  0  0  0  0  0  0  0  0  0  0  0
  2 10  1  0
  2  1  1  6
  3  2  1  0
  4  3  1  0
  5  4  2  0
  6  5  1  0
  7  8  1  0
  7  6  2  0
  8  9  2  0
  9  4  1  0
 10 12  1  0
 11 10  2  0
 12 13  1  0
 14 13  1  0
 14 15  2  0
 16 14  1  0
 17 16  1  0
 17 23  1  0
 17 18  1  1
 19 20  1  0
 19 18  1  0
 21 20  1  0
 22 21  1  0
 23 25  2  0
 23 24  1  0
M  END
$$$$
