FGK.pdb
     RDKit          3D

 25 25  0  0  1  0  0  0  0  0999 V2000
   25.8310  -21.6740   -9.6420 N   0  0  0  0  0  0  0  0  0  0  0  0
   26.8636  -20.6845   -9.8917 C   0  0  1  0  0  0  0  0  0  0  0  0
   28.0344  -20.9904   -8.9982 C   0  0  0  0  0  0  0  0  0  0  0  0
   27.9146  -20.4562   -7.6332 C   0  0  0  0  0  0  0  0  0  0  0  0
   28.9400  -20.5543   -6.6983 C   0  0  0  0  0  0  0  0  0  0  0  0
   28.8069  -20.0391   -5.4289 C   0  0  0  0  0  0  0  0  0  0  0  0
   27.6688  -19.4098   -5.0265 C   0  0  0  0  0  0  0  0  0  0  0  0
   26.6401  -19.3001   -5.9336 C   0  0  0  0  0  0  0  0  0  0  0  0
   26.7602  -19.8143   -7.2157 C   0  0  0  0  0  0  0  0  0  0  0  0
   27.2764  -20.7244  -11.3011 C   0  0  0  0  0  0  0  0  0  0  0  0
   27.8072  -19.7546  -11.8955 O   0  0  0  0  0  0  0  0  0  0  0  0
   27.0897  -21.9187  -12.1097 N   0  0  0  0  0  0  0  0  0  0  0  0
   26.9931  -21.8193  -13.5174 C   0  0  0  0  0  0  0  0  0  0  0  0
   25.6022  -21.8549  -13.9848 C   0  0  0  0  0  0  0  0  0  0  0  0
   24.7372  -22.5764  -13.3553 O   0  0  0  0  0  0  0  0  0  0  0  0
   25.1106  -21.1566  -15.0854 N   0  0  0  0  0  0  0  0  0  0  0  0
   23.6566  -21.0400  -15.2908 C   0  0  1  0  0  0  0  0  0  0  0  0
   23.2309  -19.6740  -14.8942 C   0  0  0  0  0  0  0  0  0  0  0  0
   22.0277  -19.5481  -14.0490 C   0  0  0  0  0  0  0  0  0  0  0  0
   22.0551  -20.3466  -12.7825 C   0  0  0  0  0  0  0  0  0  0  0  0
   20.7239  -20.2587  -12.0665 C   0  0  0  0  0  0  0  0  0  0  0  0
   20.8452  -21.0395  -10.8408 N   0  0  0  0  0  0  0  0  0  0  0  0
   23.4379  -21.2242  -16.7443 C   0  0  0  0  0  0  0  0  0  0  0  0
   22.5258  -22.1173  -17.2314 O   0  0  0  0  0  0  0  0  0  0  0  0
   24.1063  -20.5441  -17.5440 O   0  0  0  0  0  0  0  0  0  0  0  0
  2 10  1  0
  2  1  1  6
  3  2  1  0
  4  3  1  0
  5  4  2  0
  6  5  1  0
  7  8  1  0
  7  6  2  0
  8  9  2  0
  9  4  1  0
 10 12  1  0
 11 10  2  0
 12 13  1  0
 14 13  1  0
 14 15  2  0
 16 14  1  0
 17 16  1  0
 17 23  1  0
 17 18  1  6
 19 20  1  0
 19 18  1  0
 21 20  1  0
 22 21  1  0
 23 25  2  0
 23 24  1  0
M  END
$$$$
