FGK.pdb
     RDKit          3D

 25 25  0  0  1  0  0  0  0  0999 V2000
   25.8780  -22.3296  -12.8642 N   0  0  0  0  0  0  0  0  0  0  0  0
   25.2220  -21.1180  -12.4067 C   0  0  1  0  0  0  0  0  0  0  0  0
   26.2768  -20.0711  -12.1738 C   0  0  0  0  0  0  0  0  0  0  0  0
   27.2823  -20.4340  -11.1638 C   0  0  0  0  0  0  0  0  0  0  0  0
   27.0536  -20.3003   -9.7981 C   0  0  0  0  0  0  0  0  0  0  0  0
   28.0079  -20.6545   -8.8716 C   0  0  0  0  0  0  0  0  0  0  0  0
   29.2191  -21.1517   -9.2444 C   0  0  0  0  0  0  0  0  0  0  0  0
   29.4691  -21.2934  -10.5900 C   0  0  0  0  0  0  0  0  0  0  0  0
   28.5171  -20.9408  -11.5345 C   0  0  0  0  0  0  0  0  0  0  0  0
   24.2566  -20.6516  -13.4112 C   0  0  0  0  0  0  0  0  0  0  0  0
   24.4015  -20.8272  -14.6456 O   0  0  0  0  0  0  0  0  0  0  0  0
   23.0474  -19.9418  -13.0248 N   0  0  0  0  0  0  0  0  0  0  0  0
   21.9833  -19.7924  -13.9446 C   0  0  0  0  0  0  0  0  0  0  0  0
   20.9636  -20.8369  -13.7922 C   0  0  0  0  0  0  0  0  0  0  0  0
   19.8198  -20.6998  -14.3737 O   0  0  0  0  0  0  0  0  0  0  0  0
   21.1210  -22.0059  -13.0511 N   0  0  0  0  0  0  0  0  0  0  0  0
   20.0488  -23.0157  -13.0366 C   0  0  1  0  0  0  0  0  0  0  0  0
   20.6191  -24.3045  -12.5695 C   0  0  0  0  0  0  0  0  0  0  0  0
   19.6851  -25.4216  -12.3289 C   0  0  0  0  0  0  0  0  0  0  0  0
   20.3081  -26.6586  -11.7597 C   0  0  0  0  0  0  0  0  0  0  0  0
   19.2513  -27.7019  -11.4647 C   0  0  0  0  0  0  0  0  0  0  0  0
   19.9444  -28.8822  -10.9611 N   0  0  0  0  0  0  0  0  0  0  0  0
   19.0507  -22.5313  -12.0550 C   0  0  0  0  0  0  0  0  0  0  0  0
   17.7169  -22.7959  -12.1885 O   0  0  0  0  0  0  0  0  0  0  0  0
   19.4411  -21.8633  -11.0802 O   0  0  0  0  0  0  0  0  0  0  0  0
  2 10  1  0
  2  1  1  6
  3  2  1  0
  4  3  1  0
  5  4  2  0
  6  5  1  0
  7  8  1  0
  7  6  2  0
  8  9  2  0
  9  4  1  0
 10 12  1  0
 11 10  2  0
 12 13  1  0
 14 13  1  0
 14 15  2  0
 16 14  1  0
 17 16  1  0
 17 23  1  0
 17 18  1  1
 19 20  1  0
 19 18  1  0
 21 20  1  0
 22 21  1  0
 23 25  2  0
 23 24  1  0
M  END
$$$$
