FGK.pdb
     RDKit          3D

 25 25  0  0  1  0  0  0  0  0999 V2000
   25.3264  -20.7995   -7.6025 N   0  0  0  0  0  0  0  0  0  0  0  0
   26.3816  -20.2902   -8.4597 C   0  0  1  0  0  0  0  0  0  0  0  0
   27.7035  -20.7194   -7.8842 C   0  0  0  0  0  0  0  0  0  0  0  0
   28.0528  -20.0708   -6.6113 C   0  0  0  0  0  0  0  0  0  0  0  0
   27.9737  -20.7300   -5.3889 C   0  0  0  0  0  0  0  0  0  0  0  0
   28.3140  -20.1038   -4.2113 C   0  0  0  0  0  0  0  0  0  0  0  0
   28.7434  -18.8123   -4.1844 C   0  0  0  0  0  0  0  0  0  0  0  0
   28.8301  -18.1389   -5.3812 C   0  0  0  0  0  0  0  0  0  0  0  0
   28.4908  -18.7571   -6.5750 C   0  0  0  0  0  0  0  0  0  0  0  0
   26.2271  -20.8148   -9.8234 C   0  0  0  0  0  0  0  0  0  0  0  0
   25.7745  -21.9572  -10.0793 O   0  0  0  0  0  0  0  0  0  0  0  0
   26.5987  -20.0219  -10.9846 N   0  0  0  0  0  0  0  0  0  0  0  0
   26.5077  -20.5736  -12.2838 C   0  0  0  0  0  0  0  0  0  0  0  0
   25.1985  -20.3322  -12.9019 C   0  0  0  0  0  0  0  0  0  0  0  0
   24.9493  -19.1851  -13.4379 O   0  0  0  0  0  0  0  0  0  0  0  0
   24.1615  -21.2601  -12.9662 N   0  0  0  0  0  0  0  0  0  0  0  0
   22.9545  -20.9583  -13.7548 C   0  0  1  0  0  0  0  0  0  0  0  0
   22.3775  -22.2358  -14.2441 C   0  0  0  0  0  0  0  0  0  0  0  0
   21.0682  -22.1823  -14.9229 C   0  0  0  0  0  0  0  0  0  0  0  0
   20.5235  -23.5079  -15.3569 C   0  0  0  0  0  0  0  0  0  0  0  0
   19.2037  -23.3331  -16.0781 C   0  0  0  0  0  0  0  0  0  0  0  0
   18.7325  -24.6659  -16.4365 N   0  0  0  0  0  0  0  0  0  0  0  0
   22.0077  -20.3154  -12.8141 C   0  0  0  0  0  0  0  0  0  0  0  0
   21.0813  -19.4019  -13.2313 O   0  0  0  0  0  0  0  0  0  0  0  0
   22.0595  -20.6181  -11.6081 O   0  0  0  0  0  0  0  0  0  0  0  0
  2 10  1  0
  2  1  1  1
  3  2  1  0
  4  3  1  0
  5  4  2  0
  6  5  1  0
  7  8  1  0
  7  6  2  0
  8  9  2  0
  9  4  1  0
 10 12  1  0
 11 10  2  0
 12 13  1  0
 14 13  1  0
 14 15  2  0
 16 14  1  0
 17 16  1  0
 17 23  1  0
 17 18  1  1
 19 20  1  0
 19 18  1  0
 21 20  1  0
 22 21  1  0
 23 25  2  0
 23 24  1  0
M  END
$$$$
