FGK.pdb
     RDKit          3D

 25 25  0  0  1  0  0  0  0  0999 V2000
   25.7329  -20.6397   -7.7514 N   0  0  0  0  0  0  0  0  0  0  0  0
   26.9746  -20.4212   -8.4713 C   0  0  1  0  0  0  0  0  0  0  0  0
   28.1143  -20.8279   -7.5778 C   0  0  0  0  0  0  0  0  0  0  0  0
   28.2042  -20.0683   -6.3216 C   0  0  0  0  0  0  0  0  0  0  0  0
   27.8973  -20.6272   -5.0853 C   0  0  0  0  0  0  0  0  0  0  0  0
   27.9970  -19.8979   -3.9222 C   0  0  0  0  0  0  0  0  0  0  0  0
   28.3996  -18.5976   -3.9239 C   0  0  0  0  0  0  0  0  0  0  0  0
   28.7089  -18.0222   -5.1349 C   0  0  0  0  0  0  0  0  0  0  0  0
   28.6132  -18.7449   -6.3144 C   0  0  0  0  0  0  0  0  0  0  0  0
   26.9917  -21.2134   -9.7085 C   0  0  0  0  0  0  0  0  0  0  0  0
   27.8928  -22.0408   -9.9892 O   0  0  0  0  0  0  0  0  0  0  0  0
   25.9400  -21.0820  -10.7046 N   0  0  0  0  0  0  0  0  0  0  0  0
   25.7649  -19.8631  -11.4004 C   0  0  0  0  0  0  0  0  0  0  0  0
   24.6809  -19.9351  -12.3873 C   0  0  0  0  0  0  0  0  0  0  0  0
   24.3588  -18.8803  -13.0574 O   0  0  0  0  0  0  0  0  0  0  0  0
   23.9399  -21.0780  -12.6791 N   0  0  0  0  0  0  0  0  0  0  0  0
   22.6889  -20.9650  -13.4484 C   0  0  1  0  0  0  0  0  0  0  0  0
   22.1862  -22.3318  -13.7375 C   0  0  0  0  0  0  0  0  0  0  0  0
   20.8503  -22.4564  -14.3520 C   0  0  0  0  0  0  0  0  0  0  0  0
   20.4104  -23.8593  -14.6360 C   0  0  0  0  0  0  0  0  0  0  0  0
   19.0542  -23.8681  -15.3092 C   0  0  0  0  0  0  0  0  0  0  0  0
   18.7808  -25.2458  -15.7021 N   0  0  0  0  0  0  0  0  0  0  0  0
   21.7317  -20.2626  -12.5624 C   0  0  0  0  0  0  0  0  0  0  0  0
   20.8098  -19.3792  -13.0488 O   0  0  0  0  0  0  0  0  0  0  0  0
   21.7703  -20.4853  -11.3386 O   0  0  0  0  0  0  0  0  0  0  0  0
  2 10  1  0
  2  1  1  1
  3  2  1  0
  4  3  1  0
  5  4  2  0
  6  5  1  0
  7  8  1  0
  7  6  2  0
  8  9  2  0
  9  4  1  0
 10 12  1  0
 11 10  2  0
 12 13  1  0
 14 13  1  0
 14 15  2  0
 16 14  1  0
 17 16  1  0
 17 23  1  0
 17 18  1  1
 19 20  1  0
 19 18  1  0
 21 20  1  0
 22 21  1  0
 23 25  2  0
 23 24  1  0
M  END
$$$$
