FGK.pdb
     RDKit          3D

 25 25  0  0  1  0  0  0  0  0999 V2000
   24.5804  -17.2159  -17.6602 N   0  0  0  0  0  0  0  0  0  0  0  0
   23.1367  -17.0864  -17.7414 C   0  0  1  0  0  0  0  0  0  0  0  0
   22.7037  -17.5037  -19.1202 C   0  0  0  0  0  0  0  0  0  0  0  0
   23.5051  -16.9275  -20.2105 C   0  0  0  0  0  0  0  0  0  0  0  0
   24.6903  -17.5049  -20.6543 C   0  0  0  0  0  0  0  0  0  0  0  0
   25.4187  -16.9509  -21.6824 C   0  0  0  0  0  0  0  0  0  0  0  0
   25.0168  -15.8140  -22.3141 C   0  0  0  0  0  0  0  0  0  0  0  0
   23.8472  -15.2241  -21.8931 C   0  0  0  0  0  0  0  0  0  0  0  0
   23.1032  -15.7711  -20.8588 C   0  0  0  0  0  0  0  0  0  0  0  0
   22.4920  -17.9334  -16.7287 C   0  0  0  0  0  0  0  0  0  0  0  0
   22.9656  -19.0279  -16.3371 O   0  0  0  0  0  0  0  0  0  0  0  0
   21.2370  -17.5438  -16.1054 N   0  0  0  0  0  0  0  0  0  0  0  0
   20.0778  -18.3351  -16.2805 C   0  0  0  0  0  0  0  0  0  0  0  0
   20.0301  -19.4683  -15.3489 C   0  0  0  0  0  0  0  0  0  0  0  0
   18.9085  -20.0693  -15.1343 O   0  0  0  0  0  0  0  0  0  0  0  0
   21.1229  -19.9743  -14.6489 N   0  0  0  0  0  0  0  0  0  0  0  0
   20.9606  -21.1630  -13.7942 C   0  0  1  0  0  0  0  0  0  0  0  0
   22.2737  -21.8465  -13.6802 C   0  0  0  0  0  0  0  0  0  0  0  0
   22.7621  -22.5954  -14.8544 C   0  0  0  0  0  0  0  0  0  0  0  0
   24.0886  -23.2660  -14.6727 C   0  0  0  0  0  0  0  0  0  0  0  0
   24.5933  -23.8175  -15.9894 C   0  0  0  0  0  0  0  0  0  0  0  0
   25.9402  -24.3243  -15.7526 N   0  0  0  0  0  0  0  0  0  0  0  0
   20.5513  -20.6522  -12.4653 C   0  0  0  0  0  0  0  0  0  0  0  0
   19.5725  -21.2564  -11.7279 O   0  0  0  0  0  0  0  0  0  0  0  0
   21.1173  -19.6423  -12.0088 O   0  0  0  0  0  0  0  0  0  0  0  0
  2 10  1  0
  2  1  1  6
  3  2  1  0
  4  3  1  0
  5  4  2  0
  6  5  1  0
  7  8  1  0
  7  6  2  0
  8  9  2  0
  9  4  1  0
 10 12  1  0
 11 10  2  0
 12 13  1  0
 14 13  1  0
 14 15  2  0
 16 14  1  0
 17 16  1  0
 17 23  1  0
 17 18  1  1
 19 20  1  0
 19 18  1  0
 21 20  1  0
 22 21  1  0
 23 25  2  0
 23 24  1  0
M  END
$$$$
