FGK.pdb
     RDKit          3D

 25 25  0  0  1  0  0  0  0  0999 V2000
   25.7097  -20.5019   -7.7796 N   0  0  0  0  0  0  0  0  0  0  0  0
   27.0026  -20.0573   -8.2680 C   0  0  1  0  0  0  0  0  0  0  0  0
   28.0659  -20.6237   -7.3672 C   0  0  0  0  0  0  0  0  0  0  0  0
   28.2262  -19.9104   -6.0911 C   0  0  0  0  0  0  0  0  0  0  0  0
   28.2168  -18.5221   -6.0033 C   0  0  0  0  0  0  0  0  0  0  0  0
   28.3608  -17.8774   -4.7957 C   0  0  0  0  0  0  0  0  0  0  0  0
   28.5190  -18.5641   -3.6310 C   0  0  0  0  0  0  0  0  0  0  0  0
   28.5315  -19.9386   -3.6920 C   0  0  0  0  0  0  0  0  0  0  0  0
   28.3875  -20.6014   -4.9014 C   0  0  0  0  0  0  0  0  0  0  0  0
   27.2100  -20.5151   -9.6486 C   0  0  0  0  0  0  0  0  0  0  0  0
   28.3344  -20.8185  -10.1166 O   0  0  0  0  0  0  0  0  0  0  0  0
   26.0976  -20.6467  -10.5762 N   0  0  0  0  0  0  0  0  0  0  0  0
   26.2015  -20.1369  -11.8915 C   0  0  0  0  0  0  0  0  0  0  0  0
   24.9622  -20.3138  -12.6577 C   0  0  0  0  0  0  0  0  0  0  0  0
   24.8481  -19.7641  -13.8197 O   0  0  0  0  0  0  0  0  0  0  0  0
   23.8567  -21.0467  -12.2320 N   0  0  0  0  0  0  0  0  0  0  0  0
   22.6600  -21.1329  -13.0865 C   0  0  1  0  0  0  0  0  0  0  0  0
   22.5407  -22.5229  -13.5947 C   0  0  0  0  0  0  0  0  0  0  0  0
   23.5639  -22.9958  -14.5472 C   0  0  0  0  0  0  0  0  0  0  0  0
   23.3227  -24.3616  -15.1117 C   0  0  0  0  0  0  0  0  0  0  0  0
   24.3951  -24.7207  -16.1185 C   0  0  0  0  0  0  0  0  0  0  0  0
   24.1028  -26.0687  -16.5921 N   0  0  0  0  0  0  0  0  0  0  0  0
   21.5103  -20.8282  -12.2034 C   0  0  0  0  0  0  0  0  0  0  0  0
   20.2312  -20.7587  -12.6788 O   0  0  0  0  0  0  0  0  0  0  0  0
   21.7181  -20.6300  -10.9925 O   0  0  0  0  0  0  0  0  0  0  0  0
  2 10  1  0
  2  1  1  1
  3  2  1  0
  4  3  1  0
  5  4  2  0
  6  5  1  0
  7  8  1  0
  7  6  2  0
  8  9  2  0
  9  4  1  0
 10 12  1  0
 11 10  2  0
 12 13  1  0
 14 13  1  0
 14 15  2  0
 16 14  1  0
 17 16  1  0
 17 23  1  0
 17 18  1  1
 19 20  1  0
 19 18  1  0
 21 20  1  0
 22 21  1  0
 23 25  2  0
 23 24  1  0
M  END
$$$$
