FGK.pdb
     RDKit          3D

 25 25  0  0  1  0  0  0  0  0999 V2000
   20.2546  -22.6093  -13.2058 N   0  0  0  0  0  0  0  0  0  0  0  0
   19.1666  -22.7861  -12.2611 C   0  0  1  0  0  0  0  0  0  0  0  0
   18.0908  -23.5981  -12.9290 C   0  0  0  0  0  0  0  0  0  0  0  0
   17.5040  -22.9679  -14.1213 C   0  0  0  0  0  0  0  0  0  0  0  0
   18.0126  -23.1677  -15.4005 C   0  0  0  0  0  0  0  0  0  0  0  0
   17.4408  -22.5729  -16.5023 C   0  0  0  0  0  0  0  0  0  0  0  0
   16.3526  -21.7622  -16.3952 C   0  0  0  0  0  0  0  0  0  0  0  0
   15.8309  -21.5491  -15.1400 C   0  0  0  0  0  0  0  0  0  0  0  0
   16.3965  -22.1418  -14.0213 C   0  0  0  0  0  0  0  0  0  0  0  0
   19.6467  -23.4738  -11.0548 C   0  0  0  0  0  0  0  0  0  0  0  0
   20.5544  -24.3407  -11.0662 O   0  0  0  0  0  0  0  0  0  0  0  0
   19.0848  -23.1834   -9.7452 N   0  0  0  0  0  0  0  0  0  0  0  0
   19.5802  -23.8405   -8.5947 C   0  0  0  0  0  0  0  0  0  0  0  0
   18.5470  -24.6315   -7.9159 C   0  0  0  0  0  0  0  0  0  0  0  0
   17.4777  -24.9658   -8.5563 O   0  0  0  0  0  0  0  0  0  0  0  0
   18.6153  -25.0714   -6.5959 N   0  0  0  0  0  0  0  0  0  0  0  0
   17.5082  -25.8585   -6.0264 C   0  0  1  0  0  0  0  0  0  0  0  0
   17.9759  -26.4900   -4.7666 C   0  0  0  0  0  0  0  0  0  0  0  0
   17.0063  -27.2995   -4.0033 C   0  0  0  0  0  0  0  0  0  0  0  0
   17.5225  -27.8592   -2.7139 C   0  0  0  0  0  0  0  0  0  0  0  0
   16.4431  -28.6487   -2.0039 C   0  0  0  0  0  0  0  0  0  0  0  0
   17.0484  -29.2192   -0.8060 N   0  0  0  0  0  0  0  0  0  0  0  0
   16.4343  -24.8843   -5.7228 C   0  0  0  0  0  0  0  0  0  0  0  0
   15.1167  -25.2448   -5.6961 O   0  0  0  0  0  0  0  0  0  0  0  0
   16.7439  -23.7026   -5.4853 O   0  0  0  0  0  0  0  0  0  0  0  0
  2 10  1  0
  2  1  1  6
  3  2  1  0
  4  3  1  0
  5  4  2  0
  6  5  1  0
  7  8  1  0
  7  6  2  0
  8  9  2  0
  9  4  1  0
 10 12  1  0
 11 10  2  0
 12 13  1  0
 14 13  1  0
 14 15  2  0
 16 14  1  0
 17 16  1  0
 17 23  1  0
 17 18  1  1
 19 20  1  0
 19 18  1  0
 21 20  1  0
 22 21  1  0
 23 25  2  0
 23 24  1  0
M  END
$$$$
