FGK.pdb
     RDKit          3D

 25 25  0  0  1  0  0  0  0  0999 V2000
   28.6868  -22.2037   -8.0194 N   0  0  0  0  0  0  0  0  0  0  0  0
   27.8685  -21.0414   -8.3146 C   0  0  1  0  0  0  0  0  0  0  0  0
   28.6209  -19.8137   -7.8793 C   0  0  0  0  0  0  0  0  0  0  0  0
   28.8233  -19.7068   -6.4265 C   0  0  0  0  0  0  0  0  0  0  0  0
   29.9480  -20.2186   -5.7878 C   0  0  0  0  0  0  0  0  0  0  0  0
   30.1187  -20.0989   -4.4272 C   0  0  0  0  0  0  0  0  0  0  0  0
   29.1983  -19.4757   -3.6415 C   0  0  0  0  0  0  0  0  0  0  0  0
   28.0769  -18.9608   -4.2502 C   0  0  0  0  0  0  0  0  0  0  0  0
   27.8918  -19.0739   -5.6198 C   0  0  0  0  0  0  0  0  0  0  0  0
   27.5783  -20.9755   -9.7534 C   0  0  0  0  0  0  0  0  0  0  0  0
   28.3947  -21.3219  -10.6416 O   0  0  0  0  0  0  0  0  0  0  0  0
   26.2970  -20.4934  -10.2444 N   0  0  0  0  0  0  0  0  0  0  0  0
   25.7061  -21.0778  -11.3890 C   0  0  0  0  0  0  0  0  0  0  0  0
   24.3905  -20.5025  -11.6928 C   0  0  0  0  0  0  0  0  0  0  0  0
   23.7129  -19.9321  -10.7542 O   0  0  0  0  0  0  0  0  0  0  0  0
   23.7824  -20.5151  -12.9460 N   0  0  0  0  0  0  0  0  0  0  0  0
   22.4233  -19.9707  -13.1078 C   0  0  1  0  0  0  0  0  0  0  0  0
   22.1074  -19.9105  -14.5573 C   0  0  0  0  0  0  0  0  0  0  0  0
   20.8113  -19.3267  -14.9538 C   0  0  0  0  0  0  0  0  0  0  0  0
   20.5351  -19.3346  -16.4256 C   0  0  0  0  0  0  0  0  0  0  0  0
   19.2469  -18.6002  -16.7314 C   0  0  0  0  0  0  0  0  0  0  0  0
   19.0831  -18.6094  -18.1806 N   0  0  0  0  0  0  0  0  0  0  0  0
   21.5190  -20.9381  -12.4438 C   0  0  0  0  0  0  0  0  0  0  0  0
   20.3857  -20.5398  -11.7927 O   0  0  0  0  0  0  0  0  0  0  0  0
   21.8019  -22.1494  -12.4814 O   0  0  0  0  0  0  0  0  0  0  0  0
  2 10  1  0
  2  1  1  6
  3  2  1  0
  4  3  1  0
  5  4  2  0
  6  5  1  0
  7  8  1  0
  7  6  2  0
  8  9  2  0
  9  4  1  0
 10 12  1  0
 11 10  2  0
 12 13  1  0
 14 13  1  0
 14 15  2  0
 16 14  1  0
 17 16  1  0
 17 23  1  0
 17 18  1  6
 19 20  1  0
 19 18  1  0
 21 20  1  0
 22 21  1  0
 23 25  2  0
 23 24  1  0
M  END
$$$$
