FGK.pdb
     RDKit          3D

 25 25  0  0  1  0  0  0  0  0999 V2000
   25.8451  -20.7938   -7.4596 N   0  0  0  0  0  0  0  0  0  0  0  0
   26.7895  -20.0553   -8.2784 C   0  0  1  0  0  0  0  0  0  0  0  0
   28.1806  -20.4538   -7.8674 C   0  0  0  0  0  0  0  0  0  0  0  0
   28.5815  -19.9783   -6.5347 C   0  0  0  0  0  0  0  0  0  0  0  0
   28.2851  -18.6989   -6.0759 C   0  0  0  0  0  0  0  0  0  0  0  0
   28.6642  -18.2797   -4.8209 C   0  0  0  0  0  0  0  0  0  0  0  0
   29.3459  -19.0935   -3.9689 C   0  0  0  0  0  0  0  0  0  0  0  0
   29.6507  -20.3642   -4.3998 C   0  0  0  0  0  0  0  0  0  0  0  0
   29.2750  -20.8001   -5.6614 C   0  0  0  0  0  0  0  0  0  0  0  0
   26.5744  -20.3562   -9.7003 C   0  0  0  0  0  0  0  0  0  0  0  0
   27.2926  -19.8979  -10.6220 O   0  0  0  0  0  0  0  0  0  0  0  0
   25.4904  -21.2238  -10.1335 N   0  0  0  0  0  0  0  0  0  0  0  0
   25.2375  -21.4153  -11.5119 C   0  0  0  0  0  0  0  0  0  0  0  0
   24.0075  -20.7461  -11.9516 C   0  0  0  0  0  0  0  0  0  0  0  0
   23.1826  -20.2877  -11.0714 O   0  0  0  0  0  0  0  0  0  0  0  0
   23.6335  -20.5524  -13.2793 N   0  0  0  0  0  0  0  0  0  0  0  0
   22.3293  -19.9438  -13.5932 C   0  0  1  0  0  0  0  0  0  0  0  0
   22.3620  -19.4510  -14.9934 C   0  0  0  0  0  0  0  0  0  0  0  0
   21.1359  -18.8307  -15.5317 C   0  0  0  0  0  0  0  0  0  0  0  0
   21.2328  -18.3592  -16.9497 C   0  0  0  0  0  0  0  0  0  0  0  0
   19.9098  -17.7884  -17.4146 C   0  0  0  0  0  0  0  0  0  0  0  0
   20.0888  -17.3671  -18.7993 N   0  0  0  0  0  0  0  0  0  0  0  0
   21.3352  -21.0358  -13.4758 C   0  0  0  0  0  0  0  0  0  0  0  0
   20.0643  -20.8122  -13.0267 O   0  0  0  0  0  0  0  0  0  0  0  0
   21.6699  -22.1908  -13.7963 O   0  0  0  0  0  0  0  0  0  0  0  0
  2 10  1  0
  2  1  1  1
  3  2  1  0
  4  3  1  0
  5  4  2  0
  6  5  1  0
  7  8  1  0
  7  6  2  0
  8  9  2  0
  9  4  1  0
 10 12  1  0
 11 10  2  0
 12 13  1  0
 14 13  1  0
 14 15  2  0
 16 14  1  0
 17 16  1  0
 17 23  1  0
 17 18  1  6
 19 20  1  0
 19 18  1  0
 21 20  1  0
 22 21  1  0
 23 25  2  0
 23 24  1  0
M  END
$$$$
