FGK.pdb
     RDKit          3D

 25 25  0  0  1  0  0  0  0  0999 V2000
   24.9634  -20.4376   -8.3359 N   0  0  0  0  0  0  0  0  0  0  0  0
   26.2488  -20.2437   -8.9822 C   0  0  1  0  0  0  0  0  0  0  0  0
   27.2969  -20.9497   -8.1662 C   0  0  0  0  0  0  0  0  0  0  0  0
   27.5621  -20.3380   -6.8552 C   0  0  0  0  0  0  0  0  0  0  0  0
   28.4236  -19.2578   -6.6937 C   0  0  0  0  0  0  0  0  0  0  0  0
   28.6494  -18.6973   -5.4570 C   0  0  0  0  0  0  0  0  0  0  0  0
   28.0429  -19.1707   -4.3340 C   0  0  0  0  0  0  0  0  0  0  0  0
   27.1860  -20.2388   -4.4680 C   0  0  0  0  0  0  0  0  0  0  0  0
   26.9490  -20.8134   -5.7076 C   0  0  0  0  0  0  0  0  0  0  0  0
   26.2187  -20.7850  -10.3477 C   0  0  0  0  0  0  0  0  0  0  0  0
   25.8211  -21.9426  -10.6257 O   0  0  0  0  0  0  0  0  0  0  0  0
   26.6585  -19.9920  -11.4848 N   0  0  0  0  0  0  0  0  0  0  0  0
   26.5229  -20.4944  -12.8000 C   0  0  0  0  0  0  0  0  0  0  0  0
   25.2626  -20.0805  -13.4280 C   0  0  0  0  0  0  0  0  0  0  0  0
   24.3166  -19.5943  -12.6972 O   0  0  0  0  0  0  0  0  0  0  0  0
   24.9817  -20.1667  -14.7897 N   0  0  0  0  0  0  0  0  0  0  0  0
   23.9219  -21.0728  -15.2646 C   0  0  1  0  0  0  0  0  0  0  0  0
   24.3899  -22.4728  -15.1050 C   0  0  0  0  0  0  0  0  0  0  0  0
   25.4752  -22.9390  -15.9896 C   0  0  0  0  0  0  0  0  0  0  0  0
   25.9153  -24.3524  -15.7639 C   0  0  0  0  0  0  0  0  0  0  0  0
   26.9292  -24.7696  -16.8081 C   0  0  0  0  0  0  0  0  0  0  0  0
   27.3057  -26.1471  -16.5122 N   0  0  0  0  0  0  0  0  0  0  0  0
   22.7596  -20.8350  -14.3775 C   0  0  0  0  0  0  0  0  0  0  0  0
   22.6646  -21.4072  -13.1404 O   0  0  0  0  0  0  0  0  0  0  0  0
   21.8434  -20.0915  -14.7729 O   0  0  0  0  0  0  0  0  0  0  0  0
  2 10  1  0
  2  1  1  1
  3  2  1  0
  4  3  1  0
  5  4  2  0
  6  5  1  0
  7  8  1  0
  7  6  2  0
  8  9  2  0
  9  4  1  0
 10 12  1  0
 11 10  2  0
 12 13  1  0
 14 13  1  0
 14 15  2  0
 16 14  1  0
 17 16  1  0
 17 23  1  0
 17 18  1  1
 19 20  1  0
 19 18  1  0
 21 20  1  0
 22 21  1  0
 23 25  2  0
 23 24  1  0
M  END
$$$$
