FGK.pdb
     RDKit          3D

 25 25  0  0  1  0  0  0  0  0999 V2000
   25.4897  -20.3963   -7.1438 N   0  0  0  0  0  0  0  0  0  0  0  0
   26.5674  -20.2009   -8.0967 C   0  0  1  0  0  0  0  0  0  0  0  0
   27.8454  -20.6839   -7.4672 C   0  0  0  0  0  0  0  0  0  0  0  0
   28.2698  -19.9176   -6.2859 C   0  0  0  0  0  0  0  0  0  0  0  0
   28.3701  -18.5302   -6.2900 C   0  0  0  0  0  0  0  0  0  0  0  0
   28.7620  -17.8346   -5.1687 C   0  0  0  0  0  0  0  0  0  0  0  0
   29.0700  -18.4678   -4.0038 C   0  0  0  0  0  0  0  0  0  0  0  0
   28.9783  -19.8404   -3.9746 C   0  0  0  0  0  0  0  0  0  0  0  0
   28.5847  -20.5540   -5.0965 C   0  0  0  0  0  0  0  0  0  0  0  0
   26.2959  -20.9481   -9.3323 C   0  0  0  0  0  0  0  0  0  0  0  0
   25.6324  -22.0130   -9.3666 O   0  0  0  0  0  0  0  0  0  0  0  0
   26.7921  -20.4864  -10.6191 N   0  0  0  0  0  0  0  0  0  0  0  0
   26.4666  -21.1888  -11.8029 C   0  0  0  0  0  0  0  0  0  0  0  0
   25.2539  -20.6679  -12.4449 C   0  0  0  0  0  0  0  0  0  0  0  0
   24.6010  -19.7052  -11.8862 O   0  0  0  0  0  0  0  0  0  0  0  0
   24.7222  -21.1329  -13.6456 N   0  0  0  0  0  0  0  0  0  0  0  0
   23.6093  -20.4097  -14.2844 C   0  0  1  0  0  0  0  0  0  0  0  0
   23.8806  -20.3154  -15.7410 C   0  0  0  0  0  0  0  0  0  0  0  0
   24.3024  -21.5437  -16.4418 C   0  0  0  0  0  0  0  0  0  0  0  0
   25.7781  -21.6756  -16.6594 C   0  0  0  0  0  0  0  0  0  0  0  0
   26.0869  -22.8936  -17.5042 C   0  0  0  0  0  0  0  0  0  0  0  0
   27.5391  -23.0033  -17.5817 N   0  0  0  0  0  0  0  0  0  0  0  0
   22.4044  -21.2412  -14.0581 C   0  0  0  0  0  0  0  0  0  0  0  0
   22.4873  -22.5260  -13.6005 O   0  0  0  0  0  0  0  0  0  0  0  0
   21.2840  -20.7529  -14.2924 O   0  0  0  0  0  0  0  0  0  0  0  0
  2 10  1  0
  2  1  1  1
  3  2  1  0
  4  3  1  0
  5  4  2  0
  6  5  1  0
  7  8  1  0
  7  6  2  0
  8  9  2  0
  9  4  1  0
 10 12  1  0
 11 10  2  0
 12 13  1  0
 14 13  1  0
 14 15  2  0
 16 14  1  0
 17 16  1  0
 17 23  1  0
 17 18  1  6
 19 20  1  0
 19 18  1  0
 21 20  1  0
 22 21  1  0
 23 25  2  0
 23 24  1  0
M  END
$$$$
