GCM.pdb
     RDKit          3D

 19 18  0  0  1  0  0  0  0  0999 V2000
    8.1237  -12.3417   18.5700 N   0  0  0  0  0  0  0  0  0  0  0  0
    8.9057  -13.5226   18.8737 C   0  0  0  0  0  0  0  0  0  0  0  0
    8.2662  -14.2189   20.0136 C   0  0  0  0  0  0  0  0  0  0  0  0
    7.3814  -13.6286   20.6953 O   0  0  0  0  0  0  0  0  0  0  0  0
    8.5935  -15.5414   20.3977 N   0  0  0  0  0  0  0  0  0  0  0  0
    7.9831  -16.2092   21.5633 C   0  0  1  0  0  0  0  0  0  0  0  0
    8.1683  -17.6944   21.4323 C   0  0  0  0  0  0  0  0  0  0  0  0
    7.6623  -18.6278   22.8784 S   0  0  0  0  0  0  0  0  0  0  0  0
    8.6012  -15.7085   22.8005 C   0  0  0  0  0  0  0  0  0  0  0  0
    9.8587  -15.4962   22.8657 O   0  0  0  0  0  0  0  0  0  0  0  0
    5.8712  -11.0669   25.9257 C   0  0  0  0  0  0  0  0  0  0  0  0
    6.2715  -12.1305   27.3637 S   0  0  0  0  0  0  0  0  0  0  0  0
    7.7256  -13.1526   26.9070 C   0  0  0  0  0  0  0  0  0  0  0  0
    7.3468  -13.9025   25.6733 C   0  0  0  0  0  0  0  0  0  0  0  0
    8.4332  -14.8107   25.1390 C   0  0  2  0  0  0  0  0  0  0  0  0
    7.8453  -15.4415   23.9464 N   0  0  0  0  0  0  0  0  0  0  0  0
    8.7880  -15.9027   26.0739 C   0  0  0  0  0  0  0  0  0  0  0  0
    9.7472  -15.7913   27.0727 O   0  0  0  0  0  0  0  0  0  0  0  0
    8.2209  -17.0412   26.0187 O   0  0  0  0  0  0  0  0  0  0  0  0
  2  3  1  0
  2  1  1  0
  3  5  1  0
  4  3  2  0
  6  5  1  0
  6  9  1  0
  6  7  1  6
  7  8  1  0
  9 16  1  0
  9 10  2  0
 11 12  1  0
 13 12  1  0
 13 14  1  0
 15 14  1  1
 15 17  1  0
 16 15  1  0
 17 19  2  0
 17 18  1  0
M  END
$$$$
