GCM.pdb
     RDKit          3D

 19 18  0  0  1  0  0  0  0  0999 V2000
    5.3390  -20.1798   22.6703 N   0  0  0  0  0  0  0  0  0  0  0  0
    5.3206  -18.8703   23.2892 C   0  0  0  0  0  0  0  0  0  0  0  0
    6.6281  -18.2222   23.0368 C   0  0  0  0  0  0  0  0  0  0  0  0
    7.5546  -18.8722   22.4756 O   0  0  0  0  0  0  0  0  0  0  0  0
    6.9125  -16.8826   23.3951 N   0  0  0  0  0  0  0  0  0  0  0  0
    8.2412  -16.2697   23.2059 C   0  0  1  0  0  0  0  0  0  0  0  0
    8.0769  -14.9367   22.5326 C   0  0  0  0  0  0  0  0  0  0  0  0
    7.2396  -13.7063   23.5345 S   0  0  0  0  0  0  0  0  0  0  0  0
    8.9088  -16.1231   24.5083 C   0  0  0  0  0  0  0  0  0  0  0  0
    8.2302  -15.9708   25.5794 O   0  0  0  0  0  0  0  0  0  0  0  0
    9.4397  -12.1547   27.9153 C   0  0  0  0  0  0  0  0  0  0  0  0
    9.3976  -13.6974   28.9039 S   0  0  0  0  0  0  0  0  0  0  0  0
   10.5776  -14.8763   28.1386 C   0  0  0  0  0  0  0  0  0  0  0  0
   10.1351  -15.0625   26.7252 C   0  0  0  0  0  0  0  0  0  0  0  0
   10.9730  -16.0444   25.9352 C   0  0  2  0  0  0  0  0  0  0  0  0
   10.3018  -16.1486   24.6297 N   0  0  0  0  0  0  0  0  0  0  0  0
   10.9838  -17.4028   26.5242 C   0  0  0  0  0  0  0  0  0  0  0  0
   12.0828  -17.9668   27.1602 O   0  0  0  0  0  0  0  0  0  0  0  0
    9.9596  -18.1580   26.4830 O   0  0  0  0  0  0  0  0  0  0  0  0
  2  3  1  0
  2  1  1  0
  3  5  1  0
  4  3  2  0
  6  5  1  0
  6  9  1  0
  6  7  1  1
  7  8  1  0
  9 16  1  0
  9 10  2  0
 11 12  1  0
 13 12  1  0
 13 14  1  0
 15 14  1  1
 15 17  1  0
 16 15  1  0
 17 19  2  0
 17 18  1  0
M  END
$$$$
