GCM.pdb
     RDKit          3D

 19 18  0  0  1  0  0  0  0  0999 V2000
    7.7224  -12.5068   18.5253 N   0  0  0  0  0  0  0  0  0  0  0  0
    8.8443  -13.2742   19.0260 C   0  0  0  0  0  0  0  0  0  0  0  0
    8.3749  -14.0817   20.1752 C   0  0  0  0  0  0  0  0  0  0  0  0
    7.4987  -13.6147   20.9563 O   0  0  0  0  0  0  0  0  0  0  0  0
    8.8601  -15.3804   20.4611 N   0  0  0  0  0  0  0  0  0  0  0  0
    8.4096  -16.1628   21.6282 C   0  0  1  0  0  0  0  0  0  0  0  0
    8.7429  -17.6112   21.4080 C   0  0  0  0  0  0  0  0  0  0  0  0
    7.7358  -18.4147   20.1596 S   0  0  0  0  0  0  0  0  0  0  0  0
    9.0575  -15.6526   22.8461 C   0  0  0  0  0  0  0  0  0  0  0  0
   10.2848  -15.2997   22.8372 O   0  0  0  0  0  0  0  0  0  0  0  0
    5.5938  -12.3552   26.2051 C   0  0  0  0  0  0  0  0  0  0  0  0
    6.9553  -12.0701   27.3986 S   0  0  0  0  0  0  0  0  0  0  0  0
    8.2461  -13.3341   27.0763 C   0  0  0  0  0  0  0  0  0  0  0  0
    7.9394  -13.9228   25.7393 C   0  0  0  0  0  0  0  0  0  0  0  0
    8.9717  -14.9122   25.2435 C   0  0  2  0  0  0  0  0  0  0  0  0
    8.3631  -15.5285   24.0537 N   0  0  0  0  0  0  0  0  0  0  0  0
    9.2373  -16.0048   26.2069 C   0  0  0  0  0  0  0  0  0  0  0  0
   10.0953  -15.8926   27.2939 O   0  0  0  0  0  0  0  0  0  0  0  0
    8.6812  -17.1446   26.0956 O   0  0  0  0  0  0  0  0  0  0  0  0
  2  3  1  0
  2  1  1  0
  3  5  1  0
  4  3  2  0
  6  5  1  0
  6  9  1  0
  6  7  1  6
  7  8  1  0
  9 16  1  0
  9 10  2  0
 11 12  1  0
 13 12  1  0
 13 14  1  0
 15 14  1  1
 15 17  1  0
 16 15  1  0
 17 19  2  0
 17 18  1  0
M  END
$$$$
