GCM.pdb
     RDKit          3D

 19 18  0  0  1  0  0  0  0  0999 V2000
    8.1323  -17.1011   16.8679 N   0  0  0  0  0  0  0  0  0  0  0  0
    9.1098  -17.2126   17.9311 C   0  0  0  0  0  0  0  0  0  0  0  0
    8.3969  -17.1141   19.2254 C   0  0  0  0  0  0  0  0  0  0  0  0
    7.1698  -16.8147   19.2467 O   0  0  0  0  0  0  0  0  0  0  0  0
    9.0220  -17.3410   20.4750 N   0  0  0  0  0  0  0  0  0  0  0  0
    8.2748  -17.3811   21.7467 C   0  0  1  0  0  0  0  0  0  0  0  0
    8.4415  -18.7368   22.3727 C   0  0  0  0  0  0  0  0  0  0  0  0
   10.1498  -19.2330   22.6053 S   0  0  0  0  0  0  0  0  0  0  0  0
    8.7657  -16.3233   22.6429 C   0  0  0  0  0  0  0  0  0  0  0  0
    9.9551  -15.8715   22.5342 O   0  0  0  0  0  0  0  0  0  0  0  0
    6.1328  -10.7583   27.5377 C   0  0  0  0  0  0  0  0  0  0  0  0
    5.8358  -12.1840   26.4250 S   0  0  0  0  0  0  0  0  0  0  0  0
    7.4704  -12.8983   25.9940 C   0  0  0  0  0  0  0  0  0  0  0  0
    7.2120  -13.9792   24.9975 C   0  0  0  0  0  0  0  0  0  0  0  0
    8.4514  -14.7260   24.5542 C   0  0  2  0  0  0  0  0  0  0  0  0
    7.9574  -15.7683   23.6403 N   0  0  0  0  0  0  0  0  0  0  0  0
    9.1399  -15.4190   25.6669 C   0  0  0  0  0  0  0  0  0  0  0  0
   10.1332  -14.8414   26.4479 O   0  0  0  0  0  0  0  0  0  0  0  0
    8.8567  -16.6188   25.9850 O   0  0  0  0  0  0  0  0  0  0  0  0
  2  3  1  0
  2  1  1  0
  3  5  1  0
  4  3  2  0
  6  5  1  0
  6  9  1  0
  6  7  1  1
  7  8  1  0
  9 16  1  0
  9 10  2  0
 11 12  1  0
 13 12  1  0
 13 14  1  0
 15 14  1  1
 15 17  1  0
 16 15  1  0
 17 19  2  0
 17 18  1  0
M  END
$$$$
