GCM.pdb
     RDKit          3D

 19 18  0  0  1  0  0  0  0  0999 V2000
    8.0169  -13.0722   17.3392 N   0  0  0  0  0  0  0  0  0  0  0  0
    9.0631  -13.5623   18.2130 C   0  0  0  0  0  0  0  0  0  0  0  0
    8.4253  -14.2987   19.3284 C   0  0  0  0  0  0  0  0  0  0  0  0
    7.1692  -14.2753   19.4611 O   0  0  0  0  0  0  0  0  0  0  0  0
    9.1556  -15.0480   20.2818 N   0  0  0  0  0  0  0  0  0  0  0  0
    8.5054  -15.8511   21.3350 C   0  0  1  0  0  0  0  0  0  0  0  0
    8.8494  -17.2996   21.1323 C   0  0  0  0  0  0  0  0  0  0  0  0
   10.0033  -17.5994   19.7918 S   0  0  0  0  0  0  0  0  0  0  0  0
    8.9486  -15.3848   22.6577 C   0  0  0  0  0  0  0  0  0  0  0  0
   10.1393  -14.9601   22.8381 O   0  0  0  0  0  0  0  0  0  0  0  0
    5.7326  -11.5317   26.6245 C   0  0  0  0  0  0  0  0  0  0  0  0
    7.3822  -12.0935   27.1923 S   0  0  0  0  0  0  0  0  0  0  0  0
    7.3914  -13.9277   27.1337 C   0  0  0  0  0  0  0  0  0  0  0  0
    7.2518  -14.3072   25.6968 C   0  0  0  0  0  0  0  0  0  0  0  0
    8.5139  -14.8650   25.0752 C   0  0  2  0  0  0  0  0  0  0  0  0
    8.0921  -15.3817   23.7633 N   0  0  0  0  0  0  0  0  0  0  0  0
    9.0749  -16.0092   25.8291 C   0  0  0  0  0  0  0  0  0  0  0  0
   10.0866  -15.8973   26.7749 O   0  0  0  0  0  0  0  0  0  0  0  0
    8.6538  -17.1976   25.6526 O   0  0  0  0  0  0  0  0  0  0  0  0
  2  3  1  0
  2  1  1  0
  3  5  1  0
  4  3  2  0
  6  5  1  0
  6  9  1  0
  6  7  1  6
  7  8  1  0
  9 16  1  0
  9 10  2  0
 11 12  1  0
 13 12  1  0
 13 14  1  0
 15 14  1  1
 15 17  1  0
 16 15  1  0
 17 19  2  0
 17 18  1  0
M  END
$$$$
