GCM.pdb
     RDKit          3D

 19 18  0  0  1  0  0  0  0  0999 V2000
    6.8914  -16.9540   19.7782 N   0  0  0  0  0  0  0  0  0  0  0  0
    6.3184  -16.6095   21.0632 C   0  0  0  0  0  0  0  0  0  0  0  0
    7.3277  -15.8411   21.8274 C   0  0  0  0  0  0  0  0  0  0  0  0
    8.4923  -15.6938   21.3606 O   0  0  0  0  0  0  0  0  0  0  0  0
    7.0615  -15.2447   23.0833 N   0  0  0  0  0  0  0  0  0  0  0  0
    8.0627  -14.4476   23.8175 C   0  0  1  0  0  0  0  0  0  0  0  0
    7.3701  -13.3152   24.5214 C   0  0  0  0  0  0  0  0  0  0  0  0
    6.4888  -13.8028   26.0060 S   0  0  0  0  0  0  0  0  0  0  0  0
    8.7737  -15.3072   24.7761 C   0  0  0  0  0  0  0  0  0  0  0  0
    8.1314  -16.0346   25.6062 O   0  0  0  0  0  0  0  0  0  0  0  0
    9.4569  -12.8998   28.7658 C   0  0  0  0  0  0  0  0  0  0  0  0
   10.2410  -14.2678   29.7002 S   0  0  0  0  0  0  0  0  0  0  0  0
   10.9353  -15.4458   28.4764 C   0  0  0  0  0  0  0  0  0  0  0  0
   10.4565  -14.9967   27.1358 C   0  0  0  0  0  0  0  0  0  0  0  0
   10.8949  -15.8826   25.9897 C   0  0  2  0  0  0  0  0  0  0  0  0
   10.1703  -15.3683   24.8165 N   0  0  0  0  0  0  0  0  0  0  0  0
   10.4893  -17.2962   26.1614 C   0  0  0  0  0  0  0  0  0  0  0  0
   11.2780  -18.2637   26.7716 O   0  0  0  0  0  0  0  0  0  0  0  0
    9.3630  -17.7237   25.7497 O   0  0  0  0  0  0  0  0  0  0  0  0
  2  3  1  0
  2  1  1  0
  3  5  1  0
  4  3  2  0
  6  5  1  0
  6  9  1  0
  6  7  1  1
  7  8  1  0
  9 16  1  0
  9 10  2  0
 11 12  1  0
 13 12  1  0
 13 14  1  0
 15 14  1  1
 15 17  1  0
 16 15  1  0
 17 19  2  0
 17 18  1  0
M  END
$$$$
