GCM.pdb
     RDKit          3D

 19 18  0  0  1  0  0  0  0  0999 V2000
    7.0476  -19.2184   19.9311 N   0  0  0  0  0  0  0  0  0  0  0  0
    6.5497  -17.9073   20.2935 C   0  0  0  0  0  0  0  0  0  0  0  0
    7.6996  -16.9756   20.3469 C   0  0  0  0  0  0  0  0  0  0  0  0
    8.8758  -17.4312   20.4162 O   0  0  0  0  0  0  0  0  0  0  0  0
    7.5591  -15.5672   20.3246 N   0  0  0  0  0  0  0  0  0  0  0  0
    8.7093  -14.6479   20.4195 C   0  0  1  0  0  0  0  0  0  0  0  0
    8.3647  -13.3563   19.7337 C   0  0  0  0  0  0  0  0  0  0  0  0
    7.4225  -13.5572   18.2203 S   0  0  0  0  0  0  0  0  0  0  0  0
    9.0456  -14.4201   21.8332 C   0  0  0  0  0  0  0  0  0  0  0  0
   10.0742  -13.7379   22.1607 O   0  0  0  0  0  0  0  0  0  0  0  0
    6.7744  -11.6986   28.2894 C   0  0  0  0  0  0  0  0  0  0  0  0
    6.3777  -12.3109   26.6080 S   0  0  0  0  0  0  0  0  0  0  0  0
    7.3494  -13.8434   26.3347 C   0  0  0  0  0  0  0  0  0  0  0  0
    7.2822  -14.1335   24.8720 C   0  0  0  0  0  0  0  0  0  0  0  0
    8.5686  -14.6731   24.2850 C   0  0  2  0  0  0  0  0  0  0  0  0
    8.2585  -14.9317   22.8698 N   0  0  0  0  0  0  0  0  0  0  0  0
    8.9800  -15.9653   24.8794 C   0  0  0  0  0  0  0  0  0  0  0  0
    9.1296  -17.1422   24.1564 O   0  0  0  0  0  0  0  0  0  0  0  0
    9.2287  -16.0807   26.1227 O   0  0  0  0  0  0  0  0  0  0  0  0
  2  3  1  0
  2  1  1  0
  3  5  1  0
  4  3  2  0
  6  5  1  0
  6  9  1  0
  6  7  1  1
  7  8  1  0
  9 16  1  0
  9 10  2  0
 11 12  1  0
 13 12  1  0
 13 14  1  0
 15 14  1  1
 15 17  1  0
 16 15  1  0
 17 19  2  0
 17 18  1  0
M  END
$$$$
