GCM.pdb
     RDKit          3D

 19 18  0  0  1  0  0  0  0  0999 V2000
   10.5325  -17.8379   18.1664 N   0  0  0  0  0  0  0  0  0  0  0  0
   11.1156  -18.0025   19.4822 C   0  0  0  0  0  0  0  0  0  0  0  0
   10.0666  -17.7240   20.4898 C   0  0  0  0  0  0  0  0  0  0  0  0
    8.9461  -17.2704   20.1228 O   0  0  0  0  0  0  0  0  0  0  0  0
   10.2461  -17.9403   21.8772 N   0  0  0  0  0  0  0  0  0  0  0  0
    9.1704  -17.7286   22.8646 C   0  0  1  0  0  0  0  0  0  0  0  0
    8.7803  -19.0523   23.4588 C   0  0  0  0  0  0  0  0  0  0  0  0
   10.1479  -19.9685   24.1721 S   0  0  0  0  0  0  0  0  0  0  0  0
    9.6312  -16.7988   23.9070 C   0  0  0  0  0  0  0  0  0  0  0  0
   10.8723  -16.6912   24.1874 O   0  0  0  0  0  0  0  0  0  0  0  0
    5.6117  -12.4819   25.7343 C   0  0  0  0  0  0  0  0  0  0  0  0
    7.0438  -11.6969   26.5662 S   0  0  0  0  0  0  0  0  0  0  0  0
    8.3146  -12.9960   26.8213 C   0  0  0  0  0  0  0  0  0  0  0  0
    8.1170  -14.0021   25.7366 C   0  0  0  0  0  0  0  0  0  0  0  0
    9.1961  -15.0608   25.6657 C   0  0  2  0  0  0  0  0  0  0  0  0
    8.7392  -15.9966   24.6259 N   0  0  0  0  0  0  0  0  0  0  0  0
    9.3283  -15.8390   26.9184 C   0  0  0  0  0  0  0  0  0  0  0  0
   10.1104  -15.4488   27.9983 O   0  0  0  0  0  0  0  0  0  0  0  0
    8.7172  -16.9430   27.0876 O   0  0  0  0  0  0  0  0  0  0  0  0
  2  3  1  0
  2  1  1  0
  3  5  1  0
  4  3  2  0
  6  5  1  0
  6  9  1  0
  6  7  1  1
  7  8  1  0
  9 16  1  0
  9 10  2  0
 11 12  1  0
 13 12  1  0
 13 14  1  0
 15 14  1  1
 15 17  1  0
 16 15  1  0
 17 19  2  0
 17 18  1  0
M  END
$$$$
