GCM.pdb
     RDKit          3D

 19 18  0  0  1  0  0  0  0  0999 V2000
    9.3715  -17.5283   18.2681 N   0  0  0  0  0  0  0  0  0  0  0  0
    9.6559  -18.3112   19.4532 C   0  0  0  0  0  0  0  0  0  0  0  0
    8.8429  -17.7729   20.5678 C   0  0  0  0  0  0  0  0  0  0  0  0
    8.3754  -16.6015   20.4972 O   0  0  0  0  0  0  0  0  0  0  0  0
    8.5486  -18.5097   21.7402 N   0  0  0  0  0  0  0  0  0  0  0  0
    7.6987  -17.9807   22.8241 C   0  0  1  0  0  0  0  0  0  0  0  0
    7.0799  -19.1292   23.5693 C   0  0  0  0  0  0  0  0  0  0  0  0
    6.2400  -18.6556   25.0822 S   0  0  0  0  0  0  0  0  0  0  0  0
    8.5074  -17.1439   23.7236 C   0  0  0  0  0  0  0  0  0  0  0  0
    9.7006  -17.4774   24.0332 O   0  0  0  0  0  0  0  0  0  0  0  0
    5.7044  -12.0709   26.0540 C   0  0  0  0  0  0  0  0  0  0  0  0
    7.3675  -11.5963   26.6605 S   0  0  0  0  0  0  0  0  0  0  0  0
    8.4067  -13.1088   26.6640 C   0  0  0  0  0  0  0  0  0  0  0  0
    7.8999  -13.9747   25.5588 C   0  0  0  0  0  0  0  0  0  0  0  0
    8.7703  -15.1763   25.2608 C   0  0  2  0  0  0  0  0  0  0  0  0
    8.0113  -15.9558   24.2698 N   0  0  0  0  0  0  0  0  0  0  0  0
    8.9710  -16.0530   26.4370 C   0  0  0  0  0  0  0  0  0  0  0  0
   10.1278  -16.0708   27.2062 O   0  0  0  0  0  0  0  0  0  0  0  0
    8.0721  -16.8661   26.8264 O   0  0  0  0  0  0  0  0  0  0  0  0
  2  3  1  0
  2  1  1  0
  3  5  1  0
  4  3  2  0
  6  5  1  0
  6  9  1  0
  6  7  1  1
  7  8  1  0
  9 16  1  0
  9 10  2  0
 11 12  1  0
 13 12  1  0
 13 14  1  0
 15 14  1  1
 15 17  1  0
 16 15  1  0
 17 19  2  0
 17 18  1  0
M  END
$$$$
