GCM.pdb
     RDKit          3D

 19 18  0  0  1  0  0  0  0  0999 V2000
    6.7566  -18.2248   18.7788 N   0  0  0  0  0  0  0  0  0  0  0  0
    7.0286  -19.1055   19.8963 C   0  0  0  0  0  0  0  0  0  0  0  0
    6.6072  -18.4183   21.1386 C   0  0  0  0  0  0  0  0  0  0  0  0
    5.6303  -17.6177   21.1144 O   0  0  0  0  0  0  0  0  0  0  0  0
    7.2486  -18.6077   22.3862 N   0  0  0  0  0  0  0  0  0  0  0  0
    6.7050  -18.0802   23.6524 C   0  0  1  0  0  0  0  0  0  0  0  0
    6.3316  -19.2300   24.5445 C   0  0  0  0  0  0  0  0  0  0  0  0
    7.6201  -20.4647   24.7290 S   0  0  0  0  0  0  0  0  0  0  0  0
    7.7044  -17.2156   24.2981 C   0  0  0  0  0  0  0  0  0  0  0  0
    8.9525  -17.3870   24.0893 O   0  0  0  0  0  0  0  0  0  0  0  0
    5.4745  -11.6758   26.9007 C   0  0  0  0  0  0  0  0  0  0  0  0
    6.9421  -11.8011   25.8100 S   0  0  0  0  0  0  0  0  0  0  0  0
    8.1357  -12.9367   26.6182 C   0  0  0  0  0  0  0  0  0  0  0  0
    7.5198  -14.2959   26.5822 C   0  0  0  0  0  0  0  0  0  0  0  0
    8.3318  -15.3272   25.8289 C   0  0  2  0  0  0  0  0  0  0  0  0
    7.3346  -16.1753   25.1566 N   0  0  0  0  0  0  0  0  0  0  0  0
    9.1182  -16.2100   26.7203 C   0  0  0  0  0  0  0  0  0  0  0  0
   10.4511  -15.9963   27.0491 O   0  0  0  0  0  0  0  0  0  0  0  0
    8.6080  -17.2469   27.2546 O   0  0  0  0  0  0  0  0  0  0  0  0
  2  3  1  0
  2  1  1  0
  3  5  1  0
  4  3  2  0
  6  5  1  0
  6  9  1  0
  6  7  1  1
  7  8  1  0
  9 16  1  0
  9 10  2  0
 11 12  1  0
 13 12  1  0
 13 14  1  0
 15 14  1  1
 15 17  1  0
 16 15  1  0
 17 19  2  0
 17 18  1  0
M  END
$$$$
