GCM.pdb
     RDKit          3D

 19 18  0  0  1  0  0  0  0  0999 V2000
   10.0976  -16.1463   19.0096 N   0  0  0  0  0  0  0  0  0  0  0  0
    9.0306  -16.5878   19.8841 C   0  0  0  0  0  0  0  0  0  0  0  0
    9.1511  -15.8550   21.1654 C   0  0  0  0  0  0  0  0  0  0  0  0
   10.2368  -15.2816   21.4626 O   0  0  0  0  0  0  0  0  0  0  0  0
    8.0964  -15.7542   22.1040 N   0  0  0  0  0  0  0  0  0  0  0  0
    8.2209  -15.0040   23.3685 C   0  0  1  0  0  0  0  0  0  0  0  0
    6.8490  -14.6442   23.8643 C   0  0  0  0  0  0  0  0  0  0  0  0
    6.8380  -13.8069   25.4509 S   0  0  0  0  0  0  0  0  0  0  0  0
    8.9418  -15.8186   24.3584 C   0  0  0  0  0  0  0  0  0  0  0  0
    8.8164  -17.0892   24.3783 O   0  0  0  0  0  0  0  0  0  0  0  0
   10.5258  -12.9379   29.3146 C   0  0  0  0  0  0  0  0  0  0  0  0
   11.4026  -14.4076   29.9707 S   0  0  0  0  0  0  0  0  0  0  0  0
   11.3074  -15.7230   28.6946 C   0  0  0  0  0  0  0  0  0  0  0  0
   10.7467  -15.0843   27.4675 C   0  0  0  0  0  0  0  0  0  0  0  0
   10.4754  -16.0483   26.3329 C   0  0  2  0  0  0  0  0  0  0  0  0
    9.7914  -15.2429   25.3086 N   0  0  0  0  0  0  0  0  0  0  0  0
    9.5513  -17.1421   26.7096 C   0  0  0  0  0  0  0  0  0  0  0  0
    9.9611  -18.4264   27.0455 O   0  0  0  0  0  0  0  0  0  0  0  0
    8.2907  -16.9686   26.7500 O   0  0  0  0  0  0  0  0  0  0  0  0
  2  3  1  0
  2  1  1  0
  3  5  1  0
  4  3  2  0
  6  5  1  0
  6  9  1  0
  6  7  1  1
  7  8  1  0
  9 16  1  0
  9 10  2  0
 11 12  1  0
 13 12  1  0
 13 14  1  0
 15 14  1  1
 15 17  1  0
 16 15  1  0
 17 19  2  0
 17 18  1  0
M  END
$$$$
