GPK.pdb
     RDKit          3D

 21 21  0  0  1  0  0  0  0  0999 V2000
   30.4351  -21.2066  -11.4050 N   0  0  0  0  0  0  0  0  0  0  0  0
   29.2908  -20.4125  -11.0868 C   0  0  0  0  0  0  0  0  0  0  0  0
   27.9926  -21.0525  -11.2898 C   0  0  0  0  0  0  0  0  0  0  0  0
   27.9466  -22.0138  -12.0968 O   0  0  0  0  0  0  0  0  0  0  0  0
   26.8262  -20.6378  -10.6273 N   0  0  0  0  0  0  0  0  0  0  0  0
   26.8139  -19.4414   -9.7687 C   0  0  0  0  0  0  0  0  0  0  0  0
   25.8983  -19.7805   -8.6360 C   0  0  0  0  0  0  0  0  0  0  0  0
   24.9562  -20.7986   -9.1853 C   0  0  0  0  0  0  0  0  0  0  0  0
   25.4856  -21.1343  -10.5628 C   0  0  1  0  0  0  0  0  0  0  0  0
   24.6809  -20.3239  -11.5491 C   0  0  0  0  0  0  0  0  0  0  0  0
   24.8906  -19.1069  -11.7538 O   0  0  0  0  0  0  0  0  0  0  0  0
   23.6483  -20.9379  -12.2800 N   0  0  0  0  0  0  0  0  0  0  0  0
   23.0344  -20.2293  -13.3861 C   0  0  1  0  0  0  0  0  0  0  0  0
   23.5429  -20.9820  -14.6251 C   0  0  0  0  0  0  0  0  0  0  0  0
   22.9412  -20.4672  -15.8796 C   0  0  0  0  0  0  0  0  0  0  0  0
   23.5676  -21.2649  -17.0348 C   0  0  0  0  0  0  0  0  0  0  0  0
   22.9900  -20.6358  -18.3060 C   0  0  0  0  0  0  0  0  0  0  0  0
   23.5849  -21.3356  -19.4257 N   0  0  0  0  0  0  0  0  0  0  0  0
   21.5784  -20.1937  -13.2937 C   0  0  0  0  0  0  0  0  0  0  0  0
   20.9029  -19.3964  -13.9829 O   0  0  0  0  0  0  0  0  0  0  0  0
   20.9225  -21.0490  -12.4374 O   0  0  0  0  0  0  0  0  0  0  0  0
  1  2  1  0
  3  2  1  0
  3  4  2  0
  5  3  1  0
  6  5  1  0
  7  8  1  0
  7  6  1  0
  8  9  1  0
  9  5  1  0
  9 10  1  6
 10 11  2  0
 12 10  1  0
 12 13  1  0
 13 14  1  6
 14 15  1  0
 15 16  1  0
 16 17  1  0
 18 17  1  0
 19 13  1  0
 19 21  1  0
 20 19  2  0
M  END
$$$$
