GPK.pdb
     RDKit          3D

 21 21  0  0  1  0  0  0  0  0999 V2000
   27.9500  -19.3153  -17.5500 N   0  0  0  0  0  0  0  0  0  0  0  0
   28.4678  -19.1583  -16.2276 C   0  0  0  0  0  0  0  0  0  0  0  0
   27.9588  -20.0942  -15.2271 C   0  0  0  0  0  0  0  0  0  0  0  0
   27.0028  -20.8342  -15.5673 O   0  0  0  0  0  0  0  0  0  0  0  0
   28.4920  -20.1899  -13.9317 N   0  0  0  0  0  0  0  0  0  0  0  0
   29.5958  -19.3216  -13.4888 C   0  0  0  0  0  0  0  0  0  0  0  0
   30.4419  -20.1819  -12.6053 C   0  0  0  0  0  0  0  0  0  0  0  0
   29.5133  -21.2135  -12.0580 C   0  0  0  0  0  0  0  0  0  0  0  0
   28.2067  -21.0092  -12.7937 C   0  0  1  0  0  0  0  0  0  0  0  0
   27.3194  -20.1905  -11.8883 C   0  0  0  0  0  0  0  0  0  0  0  0
   27.2090  -18.9480  -11.9941 O   0  0  0  0  0  0  0  0  0  0  0  0
   26.5766  -20.8258  -10.8773 N   0  0  0  0  0  0  0  0  0  0  0  0
   25.2292  -20.3751  -10.5879 C   0  0  1  0  0  0  0  0  0  0  0  0
   24.4324  -20.7925  -11.8333 C   0  0  0  0  0  0  0  0  0  0  0  0
   22.9809  -20.5238  -11.6861 C   0  0  0  0  0  0  0  0  0  0  0  0
   22.3120  -20.9537  -13.0016 C   0  0  0  0  0  0  0  0  0  0  0  0
   20.8335  -20.5943  -12.8272 C   0  0  0  0  0  0  0  0  0  0  0  0
   20.1552  -21.0200  -14.0338 N   0  0  0  0  0  0  0  0  0  0  0  0
   24.6993  -20.9411   -9.3514 C   0  0  0  0  0  0  0  0  0  0  0  0
   24.0035  -20.2552   -8.5688 O   0  0  0  0  0  0  0  0  0  0  0  0
   24.9609  -22.2533   -9.0282 O   0  0  0  0  0  0  0  0  0  0  0  0
  1  2  1  0
  3  2  1  0
  3  4  2  0
  5  3  1  0
  6  5  1  0
  7  8  1  0
  7  6  1  0
  8  9  1  0
  9  5  1  0
  9 10  1  1
 10 11  2  0
 12 10  1  0
 12 13  1  0
 13 14  1  6
 14 15  1  0
 15 16  1  0
 16 17  1  0
 18 17  1  0
 19 13  1  0
 19 21  1  0
 20 19  2  0
M  END
$$$$
