GPK.pdb
     RDKit          3D

 21 21  0  0  1  0  0  0  0  0999 V2000
   19.0283  -12.8344  -17.2663 N   0  0  0  0  0  0  0  0  0  0  0  0
   20.3301  -12.3258  -16.9695 C   0  0  0  0  0  0  0  0  0  0  0  0
   20.4216  -11.4435  -15.8079 C   0  0  0  0  0  0  0  0  0  0  0  0
   19.3451  -11.1147  -15.2508 O   0  0  0  0  0  0  0  0  0  0  0  0
   21.6435  -10.9653  -15.3080 N   0  0  0  0  0  0  0  0  0  0  0  0
   22.9300  -11.4023  -15.8758 C   0  0  0  0  0  0  0  0  0  0  0  0
   23.8625  -11.4945  -14.7103 C   0  0  0  0  0  0  0  0  0  0  0  0
   23.3294  -10.5295  -13.7052 C   0  0  0  0  0  0  0  0  0  0  0  0
   22.0068  -10.0539  -14.2663 C   0  0  1  0  0  0  0  0  0  0  0  0
   22.2675   -8.7249  -14.9318 C   0  0  0  0  0  0  0  0  0  0  0  0
   22.8596   -8.6240  -16.0302 O   0  0  0  0  0  0  0  0  0  0  0  0
   21.8378   -7.5376  -14.3130 N   0  0  0  0  0  0  0  0  0  0  0  0
   21.8245   -6.3002  -15.0688 C   0  0  1  0  0  0  0  0  0  0  0  0
   20.6899   -6.5079  -16.0835 C   0  0  0  0  0  0  0  0  0  0  0  0
   19.3566   -6.5415  -15.4342 C   0  0  0  0  0  0  0  0  0  0  0  0
   18.3193   -6.7217  -16.5543 C   0  0  0  0  0  0  0  0  0  0  0  0
   16.9730   -6.8235  -15.8314 C   0  0  0  0  0  0  0  0  0  0  0  0
   15.9609   -6.9856  -16.8544 N   0  0  0  0  0  0  0  0  0  0  0  0
   21.6309   -5.1261  -14.2239 C   0  0  0  0  0  0  0  0  0  0  0  0
   21.8101   -3.9695  -14.6679 O   0  0  0  0  0  0  0  0  0  0  0  0
   21.2425   -5.2792  -12.9122 O   0  0  0  0  0  0  0  0  0  0  0  0
  1  2  1  0
  3  2  1  0
  3  4  2  0
  5  3  1  0
  6  5  1  0
  7  8  1  0
  7  6  1  0
  8  9  1  0
  9  5  1  0
  9 10  1  6
 10 11  2  0
 12 10  1  0
 12 13  1  0
 13 14  1  6
 14 15  1  0
 15 16  1  0
 16 17  1  0
 18 17  1  0
 19 13  1  0
 19 21  1  0
 20 19  2  0
M  END
$$$$
