GPK.pdb
     RDKit          3D

 21 21  0  0  1  0  0  0  0  0999 V2000
   28.7356  -18.8052  -19.3350 N   0  0  0  0  0  0  0  0  0  0  0  0
   27.9292  -17.8936  -18.5867 C   0  0  0  0  0  0  0  0  0  0  0  0
   27.2489  -18.4520  -17.4199 C   0  0  0  0  0  0  0  0  0  0  0  0
   27.4101  -19.6767  -17.1931 O   0  0  0  0  0  0  0  0  0  0  0  0
   26.4426  -17.6819  -16.5664 N   0  0  0  0  0  0  0  0  0  0  0  0
   26.1905  -16.2547  -16.8277 C   0  0  0  0  0  0  0  0  0  0  0  0
   26.1534  -15.6093  -15.4792 C   0  0  0  0  0  0  0  0  0  0  0  0
   25.7291  -16.6883  -14.5403 C   0  0  0  0  0  0  0  0  0  0  0  0
   25.7142  -17.9567  -15.3657 C   0  0  1  0  0  0  0  0  0  0  0  0
   24.2819  -18.1922  -15.7782 C   0  0  0  0  0  0  0  0  0  0  0  0
   23.7403  -17.5738  -16.7222 O   0  0  0  0  0  0  0  0  0  0  0  0
   23.5035  -19.1396  -15.0898 N   0  0  0  0  0  0  0  0  0  0  0  0
   22.1939  -19.4971  -15.5994 C   0  0  1  0  0  0  0  0  0  0  0  0
   22.0590  -20.9845  -15.2394 C   0  0  0  0  0  0  0  0  0  0  0  0
   21.5578  -21.1832  -13.8573 C   0  0  0  0  0  0  0  0  0  0  0  0
   20.1751  -21.8445  -13.9750 C   0  0  0  0  0  0  0  0  0  0  0  0
   19.7965  -22.2229  -12.5401 C   0  0  0  0  0  0  0  0  0  0  0  0
   18.4524  -22.7597  -12.5906 N   0  0  0  0  0  0  0  0  0  0  0  0
   21.1275  -18.6723  -15.0405 C   0  0  0  0  0  0  0  0  0  0  0  0
   21.3228  -17.9508  -14.0364 O   0  0  0  0  0  0  0  0  0  0  0  0
   19.8788  -18.6774  -15.6197 O   0  0  0  0  0  0  0  0  0  0  0  0
  1  2  1  0
  3  2  1  0
  3  4  2  0
  5  3  1  0
  6  5  1  0
  7  8  1  0
  7  6  1  0
  8  9  1  0
  9  5  1  0
  9 10  1  6
 10 11  2  0
 12 10  1  0
 12 13  1  0
 13 14  1  1
 14 15  1  0
 15 16  1  0
 16 17  1  0
 18 17  1  0
 19 13  1  0
 19 21  1  0
 20 19  2  0
M  END
$$$$
