GPK.pdb
     RDKit          3D

 21 21  0  0  1  0  0  0  0  0999 V2000
   26.3261  -22.0440  -11.0095 N   0  0  0  0  0  0  0  0  0  0  0  0
   26.7248  -21.5158  -12.2758 C   0  0  0  0  0  0  0  0  0  0  0  0
   25.9846  -20.3446  -12.7410 C   0  0  0  0  0  0  0  0  0  0  0  0
   25.0891  -19.8939  -11.9845 O   0  0  0  0  0  0  0  0  0  0  0  0
   26.2374  -19.7233  -13.9746 N   0  0  0  0  0  0  0  0  0  0  0  0
   27.2649  -20.2354  -14.8968 C   0  0  0  0  0  0  0  0  0  0  0  0
   27.8738  -19.0200  -15.5201 C   0  0  0  0  0  0  0  0  0  0  0  0
   26.8083  -17.9771  -15.4666 C   0  0  0  0  0  0  0  0  0  0  0  0
   25.6897  -18.5866  -14.6496 C   0  0  1  0  0  0  0  0  0  0  0  0
   24.6735  -19.1193  -15.6298 C   0  0  0  0  0  0  0  0  0  0  0  0
   24.8315  -20.1960  -16.2484 O   0  0  0  0  0  0  0  0  0  0  0  0
   23.4934  -18.3951  -15.8754 N   0  0  0  0  0  0  0  0  0  0  0  0
   22.2672  -19.1060  -16.1811 C   0  0  1  0  0  0  0  0  0  0  0  0
   21.1973  -18.3400  -15.3881 C   0  0  0  0  0  0  0  0  0  0  0  0
   19.8232  -18.7837  -15.7279 C   0  0  0  0  0  0  0  0  0  0  0  0
   19.4544  -19.8954  -14.7324 C   0  0  0  0  0  0  0  0  0  0  0  0
   18.0531  -20.3497  -15.1510 C   0  0  0  0  0  0  0  0  0  0  0  0
   17.6235  -21.3308  -14.1762 N   0  0  0  0  0  0  0  0  0  0  0  0
   21.9902  -19.1617  -17.6129 C   0  0  0  0  0  0  0  0  0  0  0  0
   21.3563  -20.1170  -18.1153 O   0  0  0  0  0  0  0  0  0  0  0  0
   22.4273  -18.1501  -18.4377 O   0  0  0  0  0  0  0  0  0  0  0  0
  1  2  1  0
  3  2  1  0
  3  4  2  0
  5  3  1  0
  6  5  1  0
  7  8  1  0
  7  6  1  0
  8  9  1  0
  9  5  1  0
  9 10  1  6
 10 11  2  0
 12 10  1  0
 12 13  1  0
 13 14  1  1
 14 15  1  0
 15 16  1  0
 16 17  1  0
 18 17  1  0
 19 13  1  0
 19 21  1  0
 20 19  2  0
M  END
$$$$
