GPK.pdb
     RDKit          3D

 21 21  0  0  1  0  0  0  0  0999 V2000
   16.6605  -27.7496   -0.1972 N   0  0  0  0  0  0  0  0  0  0  0  0
   16.5480  -26.5993    0.6428 C   0  0  0  0  0  0  0  0  0  0  0  0
   15.8319  -26.7952    1.9017 C   0  0  0  0  0  0  0  0  0  0  0  0
   15.1537  -27.8457    2.0187 O   0  0  0  0  0  0  0  0  0  0  0  0
   15.8781  -25.8702    2.9571 N   0  0  0  0  0  0  0  0  0  0  0  0
   16.6549  -24.6234    2.8529 C   0  0  0  0  0  0  0  0  0  0  0  0
   17.2185  -24.3968    4.2194 C   0  0  0  0  0  0  0  0  0  0  0  0
   16.2708  -25.0746    5.1512 C   0  0  0  0  0  0  0  0  0  0  0  0
   15.2961  -25.8174    4.2633 C   0  0  1  0  0  0  0  0  0  0  0  0
   14.0644  -24.9532    4.1486 C   0  0  0  0  0  0  0  0  0  0  0  0
   13.9684  -24.0203    3.3194 O   0  0  0  0  0  0  0  0  0  0  0  0
   12.9666  -25.1854    4.9963 N   0  0  0  0  0  0  0  0  0  0  0  0
   11.6692  -24.6350    4.6552 C   0  0  1  0  0  0  0  0  0  0  0  0
   10.6870  -25.7430    5.0648 C   0  0  0  0  0  0  0  0  0  0  0  0
    9.6752  -25.2633    6.0379 C   0  0  0  0  0  0  0  0  0  0  0  0
    8.7843  -26.4670    6.3850 C   0  0  0  0  0  0  0  0  0  0  0  0
    7.7394  -25.9153    7.3594 C   0  0  0  0  0  0  0  0  0  0  0  0
    6.8429  -27.0084    7.6732 N   0  0  0  0  0  0  0  0  0  0  0  0
   11.4060  -23.3613    5.3172 C   0  0  0  0  0  0  0  0  0  0  0  0
   10.4519  -22.6312    4.9654 O   0  0  0  0  0  0  0  0  0  0  0  0
   12.2137  -22.9435    6.3506 O   0  0  0  0  0  0  0  0  0  0  0  0
  1  2  1  0
  3  2  1  0
  3  4  2  0
  5  3  1  0
  6  5  1  0
  7  8  1  0
  7  6  1  0
  8  9  1  0
  9  5  1  0
  9 10  1  6
 10 11  2  0
 12 10  1  0
 12 13  1  0
 13 14  1  1
 14 15  1  0
 15 16  1  0
 16 17  1  0
 18 17  1  0
 19 13  1  0
 19 21  1  0
 20 19  2  0
M  END
$$$$
