GPK.pdb
     RDKit          3D

 21 21  0  0  1  0  0  0  0  0999 V2000
   25.4854  -14.3829  -19.4896 N   0  0  0  0  0  0  0  0  0  0  0  0
   25.8437  -13.0827  -19.0178 C   0  0  0  0  0  0  0  0  0  0  0  0
   25.2057  -12.6563  -17.7739 C   0  0  0  0  0  0  0  0  0  0  0  0
   24.2407  -13.3446  -17.3586 O   0  0  0  0  0  0  0  0  0  0  0  0
   25.6275  -11.5313  -17.0474 N   0  0  0  0  0  0  0  0  0  0  0  0
   26.7591  -10.7045  -17.4993 C   0  0  0  0  0  0  0  0  0  0  0  0
   27.4631  -10.2849  -16.2483 C   0  0  0  0  0  0  0  0  0  0  0  0
   26.4159  -10.3005  -15.1858 C   0  0  0  0  0  0  0  0  0  0  0  0
   25.1905  -10.9038  -15.8378 C   0  0  1  0  0  0  0  0  0  0  0  0
   24.3037   -9.7540  -16.2481 C   0  0  0  0  0  0  0  0  0  0  0  0
   24.5378   -9.0455  -17.2532 O   0  0  0  0  0  0  0  0  0  0  0  0
   23.1622   -9.4459  -15.4868 N   0  0  0  0  0  0  0  0  0  0  0  0
   22.2238   -8.4529  -15.9724 C   0  0  1  0  0  0  0  0  0  0  0  0
   21.0809   -9.2930  -16.5625 C   0  0  0  0  0  0  0  0  0  0  0  0
   20.0418   -8.4521  -17.2060 C   0  0  0  0  0  0  0  0  0  0  0  0
   18.9190   -9.3992  -17.6589 C   0  0  0  0  0  0  0  0  0  0  0  0
   17.9481   -8.5118  -18.4434 C   0  0  0  0  0  0  0  0  0  0  0  0
   16.8054   -9.3364  -18.7772 N   0  0  0  0  0  0  0  0  0  0  0  0
   21.7815   -7.5366  -14.9262 C   0  0  0  0  0  0  0  0  0  0  0  0
   21.8653   -7.8437  -13.7155 O   0  0  0  0  0  0  0  0  0  0  0  0
   21.2618   -6.3073  -15.2632 O   0  0  0  0  0  0  0  0  0  0  0  0
  1  2  1  0
  3  2  1  0
  3  4  2  0
  5  3  1  0
  6  5  1  0
  7  8  1  0
  7  6  1  0
  8  9  1  0
  9  5  1  0
  9 10  1  6
 10 11  2  0
 12 10  1  0
 12 13  1  0
 13 14  1  1
 14 15  1  0
 15 16  1  0
 16 17  1  0
 18 17  1  0
 19 13  1  0
 19 21  1  0
 20 19  2  0
M  END
$$$$
