GPK.pdb
     RDKit          3D

 21 21  0  0  1  0  0  0  0  0999 V2000
   24.9574  -14.4335  -19.1151 N   0  0  0  0  0  0  0  0  0  0  0  0
   25.2917  -13.1001  -18.7257 C   0  0  0  0  0  0  0  0  0  0  0  0
   24.6750  -12.6219  -17.4900 C   0  0  0  0  0  0  0  0  0  0  0  0
   23.6960  -13.2728  -17.0479 O   0  0  0  0  0  0  0  0  0  0  0  0
   25.1314  -11.4878  -16.7993 N   0  0  0  0  0  0  0  0  0  0  0  0
   26.2698  -10.6943  -17.2920 C   0  0  0  0  0  0  0  0  0  0  0  0
   27.0046  -10.2580  -16.0647 C   0  0  0  0  0  0  0  0  0  0  0  0
   25.9772  -10.2274  -14.9833 C   0  0  0  0  0  0  0  0  0  0  0  0
   24.7288  -10.8227  -15.5979 C   0  0  1  0  0  0  0  0  0  0  0  0
   23.8564   -9.6662  -16.0205 C   0  0  0  0  0  0  0  0  0  0  0  0
   24.0763   -8.9969  -17.0552 O   0  0  0  0  0  0  0  0  0  0  0  0
   22.7455   -9.3065  -15.2370 N   0  0  0  0  0  0  0  0  0  0  0  0
   21.8259   -8.2946  -15.7199 C   0  0  1  0  0  0  0  0  0  0  0  0
   20.5491   -9.0878  -16.0376 C   0  0  0  0  0  0  0  0  0  0  0  0
   19.4936   -8.2342  -16.6359 C   0  0  0  0  0  0  0  0  0  0  0  0
   18.2794   -9.1411  -16.8935 C   0  0  0  0  0  0  0  0  0  0  0  0
   17.2501   -8.2361  -17.5768 C   0  0  0  0  0  0  0  0  0  0  0  0
   16.0578   -9.0342  -17.7738 N   0  0  0  0  0  0  0  0  0  0  0  0
   21.6099   -7.2225  -14.7535 C   0  0  0  0  0  0  0  0  0  0  0  0
   21.8263   -7.3949  -13.5327 O   0  0  0  0  0  0  0  0  0  0  0  0
   21.1614   -5.9928  -15.1794 O   0  0  0  0  0  0  0  0  0  0  0  0
  1  2  1  0
  3  2  1  0
  3  4  2  0
  5  3  1  0
  6  5  1  0
  7  8  1  0
  7  6  1  0
  8  9  1  0
  9  5  1  0
  9 10  1  6
 10 11  2  0
 12 10  1  0
 12 13  1  0
 13 14  1  1
 14 15  1  0
 15 16  1  0
 16 17  1  0
 18 17  1  0
 19 13  1  0
 19 21  1  0
 20 19  2  0
M  END
$$$$
