GPK.pdb
     RDKit          3D

 21 21  0  0  1  0  0  0  0  0999 V2000
   24.8244  -14.7512  -18.7248 N   0  0  0  0  0  0  0  0  0  0  0  0
   25.3200  -13.4279  -18.5135 C   0  0  0  0  0  0  0  0  0  0  0  0
   24.7695  -12.7159  -17.3621 C   0  0  0  0  0  0  0  0  0  0  0  0
   23.7136  -13.1712  -16.8569 O   0  0  0  0  0  0  0  0  0  0  0  0
   25.3690  -11.5693  -16.8166 N   0  0  0  0  0  0  0  0  0  0  0  0
   26.6287  -11.0301  -17.3560 C   0  0  0  0  0  0  0  0  0  0  0  0
   27.3816  -10.5264  -16.1661 C   0  0  0  0  0  0  0  0  0  0  0  0
   26.3368  -10.1878  -15.1564 C   0  0  0  0  0  0  0  0  0  0  0  0
   25.0332  -10.6818  -15.7455 C   0  0  1  0  0  0  0  0  0  0  0  0
   24.3582   -9.4877  -16.3744 C   0  0  0  0  0  0  0  0  0  0  0  0
   24.7411   -8.9871  -17.4559 O   0  0  0  0  0  0  0  0  0  0  0  0
   23.2522   -8.8955  -15.7391 N   0  0  0  0  0  0  0  0  0  0  0  0
   22.4240   -7.9566  -16.4705 C   0  0  1  0  0  0  0  0  0  0  0  0
   21.2950   -8.8326  -17.0345 C   0  0  0  0  0  0  0  0  0  0  0  0
   20.3352   -8.0516  -17.8527 C   0  0  0  0  0  0  0  0  0  0  0  0
   19.2954   -9.0471  -18.3919 C   0  0  0  0  0  0  0  0  0  0  0  0
   18.3864   -8.2136  -19.2999 C   0  0  0  0  0  0  0  0  0  0  0  0
   17.3489   -9.1020  -19.7811 N   0  0  0  0  0  0  0  0  0  0  0  0
   21.9389   -6.8632  -15.6344 C   0  0  0  0  0  0  0  0  0  0  0  0
   21.8076   -7.0005  -14.3971 O   0  0  0  0  0  0  0  0  0  0  0  0
   21.6174   -5.6521  -16.2043 O   0  0  0  0  0  0  0  0  0  0  0  0
  1  2  1  0
  3  2  1  0
  3  4  2  0
  5  3  1  0
  6  5  1  0
  7  8  1  0
  7  6  1  0
  8  9  1  0
  9  5  1  0
  9 10  1  6
 10 11  2  0
 12 10  1  0
 12 13  1  0
 13 14  1  1
 14 15  1  0
 15 16  1  0
 16 17  1  0
 18 17  1  0
 19 13  1  0
 19 21  1  0
 20 19  2  0
M  END
$$$$
