GPK.pdb
     RDKit          3D

 21 21  0  0  1  0  0  0  0  0999 V2000
   28.5956  -21.4794  -15.7421 N   0  0  0  0  0  0  0  0  0  0  0  0
   27.9985  -20.9114  -14.5750 C   0  0  0  0  0  0  0  0  0  0  0  0
   26.7646  -21.5459  -14.1156 C   0  0  0  0  0  0  0  0  0  0  0  0
   26.2926  -22.4661  -14.8282 O   0  0  0  0  0  0  0  0  0  0  0  0
   26.1083  -21.1694  -12.9327 N   0  0  0  0  0  0  0  0  0  0  0  0
   26.5834  -20.0398  -12.1162 C   0  0  0  0  0  0  0  0  0  0  0  0
   26.3449  -20.4523  -10.6987 C   0  0  0  0  0  0  0  0  0  0  0  0
   25.2087  -21.4174  -10.7577 C   0  0  0  0  0  0  0  0  0  0  0  0
   24.9597  -21.6557  -12.2313 C   0  0  1  0  0  0  0  0  0  0  0  0
   23.8071  -20.7663  -12.6286 C   0  0  0  0  0  0  0  0  0  0  0  0
   23.9381  -19.5364  -12.8214 O   0  0  0  0  0  0  0  0  0  0  0  0
   22.5244  -21.3178  -12.7953 N   0  0  0  0  0  0  0  0  0  0  0  0
   21.4856  -20.5346  -13.4356 C   0  0  1  0  0  0  0  0  0  0  0  0
   20.7051  -21.5714  -14.2577 C   0  0  0  0  0  0  0  0  0  0  0  0
   19.5716  -20.9628  -14.9964 C   0  0  0  0  0  0  0  0  0  0  0  0
   18.8902  -22.0960  -15.7803 C   0  0  0  0  0  0  0  0  0  0  0  0
   17.7337  -21.4206  -16.5231 C   0  0  0  0  0  0  0  0  0  0  0  0
   17.0616  -22.4566  -17.2796 N   0  0  0  0  0  0  0  0  0  0  0  0
   20.6512  -19.8156  -12.4780 C   0  0  0  0  0  0  0  0  0  0  0  0
   20.5548  -20.1931  -11.2884 O   0  0  0  0  0  0  0  0  0  0  0  0
   19.9529  -18.6985  -12.8771 O   0  0  0  0  0  0  0  0  0  0  0  0
  1  2  1  0
  3  2  1  0
  3  4  2  0
  5  3  1  0
  6  5  1  0
  7  8  1  0
  7  6  1  0
  8  9  1  0
  9  5  1  0
  9 10  1  6
 10 11  2  0
 12 10  1  0
 12 13  1  0
 13 14  1  1
 14 15  1  0
 15 16  1  0
 16 17  1  0
 18 17  1  0
 19 13  1  0
 19 21  1  0
 20 19  2  0
M  END
$$$$
