GPK.pdb
     RDKit          3D

 21 21  0  0  1  0  0  0  0  0999 V2000
   25.8147  -17.0024  -17.8627 N   0  0  0  0  0  0  0  0  0  0  0  0
   26.2215  -17.5142  -16.5922 C   0  0  0  0  0  0  0  0  0  0  0  0
   26.3523  -18.9669  -16.5010 C   0  0  0  0  0  0  0  0  0  0  0  0
   26.1934  -19.6251  -17.5588 O   0  0  0  0  0  0  0  0  0  0  0  0
   26.6436  -19.6323  -15.2993 N   0  0  0  0  0  0  0  0  0  0  0  0
   26.6862  -18.9145  -14.0141 C   0  0  0  0  0  0  0  0  0  0  0  0
   27.7942  -19.5571  -13.2421 C   0  0  0  0  0  0  0  0  0  0  0  0
   27.8870  -20.9477  -13.7744 C   0  0  0  0  0  0  0  0  0  0  0  0
   26.9447  -20.9889  -14.9580 C   0  0  1  0  0  0  0  0  0  0  0  0
   25.6562  -21.6035  -14.4688 C   0  0  0  0  0  0  0  0  0  0  0  0
   25.5514  -22.8189  -14.1880 O   0  0  0  0  0  0  0  0  0  0  0  0
   24.5132  -20.7992  -14.3141 N   0  0  0  0  0  0  0  0  0  0  0  0
   23.2875  -21.3861  -13.8084 C   0  0  1  0  0  0  0  0  0  0  0  0
   22.4766  -20.1730  -13.3278 C   0  0  0  0  0  0  0  0  0  0  0  0
   21.1321  -20.5581  -12.8331 C   0  0  0  0  0  0  0  0  0  0  0  0
   20.1425  -20.2944  -13.9795 C   0  0  0  0  0  0  0  0  0  0  0  0
   18.7743  -20.6917  -13.4176 C   0  0  0  0  0  0  0  0  0  0  0  0
   17.7927  -20.3441  -14.4240 N   0  0  0  0  0  0  0  0  0  0  0  0
   22.5884  -22.1825  -14.8120 C   0  0  0  0  0  0  0  0  0  0  0  0
   22.5191  -21.8092  -16.0048 O   0  0  0  0  0  0  0  0  0  0  0  0
   21.9909  -23.3697  -14.4537 O   0  0  0  0  0  0  0  0  0  0  0  0
  1  2  1  0
  3  2  1  0
  3  4  2  0
  5  3  1  0
  6  5  1  0
  7  8  1  0
  7  6  1  0
  8  9  1  0
  9  5  1  0
  9 10  1  1
 10 11  2  0
 12 10  1  0
 12 13  1  0
 13 14  1  6
 14 15  1  0
 15 16  1  0
 16 17  1  0
 18 17  1  0
 19 13  1  0
 19 21  1  0
 20 19  2  0
M  END
$$$$
