GPK.pdb
     RDKit          3D

 21 21  0  0  1  0  0  0  0  0999 V2000
   20.1041  -13.1377  -18.2880 N   0  0  0  0  0  0  0  0  0  0  0  0
   21.2608  -12.5635  -17.6767 C   0  0  0  0  0  0  0  0  0  0  0  0
   21.0272  -11.8194  -16.4407 C   0  0  0  0  0  0  0  0  0  0  0  0
   19.8328  -11.6073  -16.1154 O   0  0  0  0  0  0  0  0  0  0  0  0
   22.0692  -11.3475  -15.6263 N   0  0  0  0  0  0  0  0  0  0  0  0
   23.4758  -11.6802  -15.9080 C   0  0  0  0  0  0  0  0  0  0  0  0
   24.1151  -11.8506  -14.5668 C   0  0  0  0  0  0  0  0  0  0  0  0
   23.3074  -11.0074  -13.6382 C   0  0  0  0  0  0  0  0  0  0  0  0
   22.1263  -10.5285  -14.4543 C   0  0  1  0  0  0  0  0  0  0  0  0
   22.4568   -9.1327  -14.9230 C   0  0  0  0  0  0  0  0  0  0  0  0
   23.0215   -8.9032  -16.0164 O   0  0  0  0  0  0  0  0  0  0  0  0
   22.1273   -8.0286  -14.1168 N   0  0  0  0  0  0  0  0  0  0  0  0
   22.0894   -6.7017  -14.7001 C   0  0  1  0  0  0  0  0  0  0  0  0
   20.9093   -6.7711  -15.6814 C   0  0  0  0  0  0  0  0  0  0  0  0
   20.6881   -5.4834  -16.3838 C   0  0  0  0  0  0  0  0  0  0  0  0
   19.5528   -5.7155  -17.3939 C   0  0  0  0  0  0  0  0  0  0  0  0
   19.4243   -4.3914  -18.1527 C   0  0  0  0  0  0  0  0  0  0  0  0
   18.2882   -4.5274  -19.0404 N   0  0  0  0  0  0  0  0  0  0  0  0
   21.9420   -5.6502  -13.6988 C   0  0  0  0  0  0  0  0  0  0  0  0
   21.3223   -5.8529  -12.6303 O   0  0  0  0  0  0  0  0  0  0  0  0
   22.4914   -4.4077  -13.9204 O   0  0  0  0  0  0  0  0  0  0  0  0
  1  2  1  0
  3  2  1  0
  3  4  2  0
  5  3  1  0
  6  5  1  0
  7  8  1  0
  7  6  1  0
  8  9  1  0
  9  5  1  0
  9 10  1  6
 10 11  2  0
 12 10  1  0
 12 13  1  0
 13 14  1  6
 14 15  1  0
 15 16  1  0
 16 17  1  0
 18 17  1  0
 19 13  1  0
 19 21  1  0
 20 19  2  0
M  END
$$$$
