GNL.pdb
     RDKit          3D

 21 20  0  0  1  0  0  0  0  0999 V2000
   23.6043  -18.1744  -17.9083 N   0  0  0  0  0  0  0  0  0  0  0  0
   24.8319  -18.3342  -17.1563 C   0  0  0  0  0  0  0  0  0  0  0  0
   25.0003  -19.7838  -16.8316 C   0  0  0  0  0  0  0  0  0  0  0  0
   24.0213  -20.5092  -17.0175 O   0  0  0  0  0  0  0  0  0  0  0  0
   29.4085  -22.9869  -17.1897 N   0  0  0  0  0  0  0  0  0  0  0  0
   28.7561  -21.8531  -16.6563 C   0  0  0  0  0  0  0  0  0  0  0  0
   28.9034  -20.7783  -17.3445 O   0  0  0  0  0  0  0  0  0  0  0  0
   27.9686  -21.8475  -15.4312 C   0  0  0  0  0  0  0  0  0  0  0  0
   26.5177  -21.5140  -15.6916 C   0  0  2  0  0  0  0  0  0  0  0  0
   26.1909  -20.3210  -16.3415 N   0  0  0  0  0  0  0  0  0  0  0  0
   25.6413  -21.9537  -14.5930 C   0  0  0  0  0  0  0  0  0  0  0  0
   25.3835  -23.2027  -14.4334 O   0  0  0  0  0  0  0  0  0  0  0  0
   24.3279  -19.8922   -9.8294 C   0  0  0  0  0  0  0  0  0  0  0  0
   25.3141  -20.7586  -10.5440 C   0  0  1  0  0  0  0  0  0  0  0  0
   26.3131  -21.2372   -9.4906 C   0  0  0  0  0  0  0  0  0  0  0  0
   24.8007  -21.8341  -11.3855 C   0  0  0  0  0  0  0  0  0  0  0  0
   24.0890  -21.6222  -12.6395 C   0  0  2  0  0  0  0  0  0  0  0  0
   25.0389  -21.0704  -13.6629 N   0  0  0  0  0  0  0  0  0  0  0  0
   22.8409  -20.8606  -12.6911 C   0  0  0  0  0  0  0  0  0  0  0  0
   22.6052  -19.6917  -13.3897 O   0  0  0  0  0  0  0  0  0  0  0  0
   21.7928  -21.2499  -12.0337 O   0  0  0  0  0  0  0  0  0  0  0  0
  1  2  1  0
  3  4  2  0
  3  2  1  0
  5  6  1  0
  6  7  2  0
  6  8  1  0
  9  8  1  1
  9 10  1  0
 10  3  1  0
 11  9  1  0
 11 12  2  0
 14 13  1  1
 14 15  1  0
 16 14  1  0
 17 18  1  0
 17 16  1  1
 18 11  1  0
 19 17  1  0
 20 19  1  0
 21 19  2  0
M  END
$$$$
