GNL.pdb
     RDKit          3D

 21 20  0  0  1  0  0  0  0  0999 V2000
   16.2780  -13.6817  -15.8914 N   0  0  0  0  0  0  0  0  0  0  0  0
   16.7927  -12.8304  -14.8386 C   0  0  0  0  0  0  0  0  0  0  0  0
   17.6446  -11.7721  -15.4625 C   0  0  0  0  0  0  0  0  0  0  0  0
   18.7779  -12.1088  -15.8108 O   0  0  0  0  0  0  0  0  0  0  0  0
   16.0819   -9.1423  -19.3011 N   0  0  0  0  0  0  0  0  0  0  0  0
   15.9428   -9.0561  -17.8980 C   0  0  0  0  0  0  0  0  0  0  0  0
   14.9019   -9.6434  -17.4267 O   0  0  0  0  0  0  0  0  0  0  0  0
   16.8731   -8.3707  -17.0114 C   0  0  0  0  0  0  0  0  0  0  0  0
   17.7687   -9.3380  -16.2722 C   0  0  2  0  0  0  0  0  0  0  0  0
   17.2100  -10.4605  -15.6555 N   0  0  0  0  0  0  0  0  0  0  0  0
   18.8681   -8.6525  -15.5723 C   0  0  0  0  0  0  0  0  0  0  0  0
   18.6850   -8.1773  -14.3922 O   0  0  0  0  0  0  0  0  0  0  0  0
   24.1201  -10.3166  -15.0300 C   0  0  0  0  0  0  0  0  0  0  0  0
   22.7502   -9.7437  -14.8588 C   0  0  1  0  0  0  0  0  0  0  0  0
   22.4304   -9.8254  -13.3662 C   0  0  0  0  0  0  0  0  0  0  0  0
   22.4761   -8.4333  -15.4385 C   0  0  0  0  0  0  0  0  0  0  0  0
   21.2002   -7.7388  -15.3228 C   0  0  2  0  0  0  0  0  0  0  0  0
   20.1615   -8.4713  -16.1222 N   0  0  0  0  0  0  0  0  0  0  0  0
   21.0825   -6.3056  -15.5918 C   0  0  0  0  0  0  0  0  0  0  0  0
   21.5074   -5.2676  -14.7844 O   0  0  0  0  0  0  0  0  0  0  0  0
   20.5257   -5.8735  -16.6807 O   0  0  0  0  0  0  0  0  0  0  0  0
  1  2  1  0
  3  4  2  0
  3  2  1  0
  5  6  1  0
  6  7  2  0
  6  8  1  0
  9  8  1  1
  9 10  1  0
 10  3  1  0
 11  9  1  0
 11 12  2  0
 14 13  1  1
 14 15  1  0
 16 14  1  0
 17 18  1  0
 17 16  1  6
 18 11  1  0
 19 17  1  0
 20 19  1  0
 21 19  2  0
M  END
$$$$
