GNL.pdb
     RDKit          3D

 21 20  0  0  1  0  0  0  0  0999 V2000
   18.5341  -10.4424  -17.7943 N   0  0  0  0  0  0  0  0  0  0  0  0
   19.7719   -9.8975  -17.2756 C   0  0  0  0  0  0  0  0  0  0  0  0
   19.4418   -8.7418  -16.3865 C   0  0  0  0  0  0  0  0  0  0  0  0
   18.3862   -8.1495  -16.6188 O   0  0  0  0  0  0  0  0  0  0  0  0
   18.6200   -8.9462  -13.0111 N   0  0  0  0  0  0  0  0  0  0  0  0
   19.6916   -8.2775  -12.3786 C   0  0  0  0  0  0  0  0  0  0  0  0
   19.8184   -8.5356  -11.1265 O   0  0  0  0  0  0  0  0  0  0  0  0
   20.6074   -7.3608  -13.0436 C   0  0  0  0  0  0  0  0  0  0  0  0
   20.2839   -7.2021  -14.5114 C   0  0  2  0  0  0  0  0  0  0  0  0
   20.2645   -8.3282  -15.3384 N   0  0  0  0  0  0  0  0  0  0  0  0
   20.8356   -5.9562  -15.0697 C   0  0  0  0  0  0  0  0  0  0  0  0
   22.0380   -5.9289  -15.5231 O   0  0  0  0  0  0  0  0  0  0  0  0
   18.0105   -2.1736  -18.0344 C   0  0  0  0  0  0  0  0  0  0  0  0
   19.0507   -3.1048  -17.5008 C   0  0  1  0  0  0  0  0  0  0  0  0
   19.9000   -3.5361  -18.6965 C   0  0  0  0  0  0  0  0  0  0  0  0
   19.8425   -2.6673  -16.3563 C   0  0  0  0  0  0  0  0  0  0  0  0
   20.8062   -3.5092  -15.6590 C   0  0  2  0  0  0  0  0  0  0  0  0
   20.1133   -4.7396  -15.1485 N   0  0  0  0  0  0  0  0  0  0  0  0
   21.6643   -2.9747  -14.6014 C   0  0  0  0  0  0  0  0  0  0  0  0
   21.7467   -3.4123  -13.2931 O   0  0  0  0  0  0  0  0  0  0  0  0
   22.4614   -1.9769  -14.8280 O   0  0  0  0  0  0  0  0  0  0  0  0
  1  2  1  0
  3  4  2  0
  3  2  1  0
  5  6  1  0
  6  7  2  0
  6  8  1  0
  9  8  1  1
  9 10  1  0
 10  3  1  0
 11  9  1  0
 11 12  2  0
 14 13  1  6
 14 15  1  0
 16 14  1  0
 17 18  1  0
 17 16  1  1
 18 11  1  0
 19 17  1  0
 20 19  1  0
 21 19  2  0
M  END
$$$$
