GNL.pdb
     RDKit          3D

 21 20  0  0  1  0  0  0  0  0999 V2000
   13.0376  -13.1713  -13.2711 N   0  0  0  0  0  0  0  0  0  0  0  0
   14.2538  -13.0671  -14.0510 C   0  0  0  0  0  0  0  0  0  0  0  0
   15.1579  -12.0807  -13.3843 C   0  0  0  0  0  0  0  0  0  0  0  0
   15.2067  -12.1195  -12.1533 O   0  0  0  0  0  0  0  0  0  0  0  0
   18.8504   -8.5509  -12.5615 N   0  0  0  0  0  0  0  0  0  0  0  0
   18.8972   -8.8891  -13.9322 C   0  0  0  0  0  0  0  0  0  0  0  0
   19.9166   -8.4268  -14.5626 O   0  0  0  0  0  0  0  0  0  0  0  0
   17.8988   -9.6927  -14.6242 C   0  0  0  0  0  0  0  0  0  0  0  0
   16.7718  -10.1092  -13.7073 C   0  0  2  0  0  0  0  0  0  0  0  0
   15.9215  -11.1501  -14.0894 N   0  0  0  0  0  0  0  0  0  0  0  0
   16.1712   -8.9603  -13.0089 C   0  0  0  0  0  0  0  0  0  0  0  0
   15.4130   -8.1416  -13.6468 O   0  0  0  0  0  0  0  0  0  0  0  0
   13.4406   -6.4558   -8.8571 C   0  0  0  0  0  0  0  0  0  0  0  0
   14.9156   -6.6659   -8.7374 C   0  0  1  0  0  0  0  0  0  0  0  0
   15.1989   -6.9122   -7.2556 C   0  0  0  0  0  0  0  0  0  0  0  0
   15.5437   -7.6454   -9.6174 C   0  0  0  0  0  0  0  0  0  0  0  0
   15.7621   -7.4415  -11.0438 C   0  0  2  0  0  0  0  0  0  0  0  0
   16.3730   -8.6793  -11.6347 N   0  0  0  0  0  0  0  0  0  0  0  0
   16.4803   -6.2708  -11.5478 C   0  0  0  0  0  0  0  0  0  0  0  0
   17.8358   -6.1668  -11.7960 O   0  0  0  0  0  0  0  0  0  0  0  0
   15.8550   -5.1653  -11.8106 O   0  0  0  0  0  0  0  0  0  0  0  0
  1  2  1  0
  3  4  2  0
  3  2  1  0
  5  6  1  0
  6  7  2  0
  6  8  1  0
  9  8  1  6
  9 10  1  0
 10  3  1  0
 11  9  1  0
 11 12  2  0
 14 13  1  1
 14 15  1  0
 16 14  1  0
 17 18  1  0
 17 16  1  1
 18 11  1  0
 19 17  1  0
 20 19  1  0
 21 19  2  0
M  END
$$$$
