GNL.pdb
     RDKit          3D

 21 20  0  0  1  0  0  0  0  0999 V2000
   25.8452  -21.6760  -11.0849 N   0  0  0  0  0  0  0  0  0  0  0  0
   26.8355  -21.6832  -12.1419 C   0  0  0  0  0  0  0  0  0  0  0  0
   26.2394  -21.0352  -13.3503 C   0  0  0  0  0  0  0  0  0  0  0  0
   26.6425  -21.4315  -14.4456 O   0  0  0  0  0  0  0  0  0  0  0  0
   22.6625  -21.2359  -13.7964 N   0  0  0  0  0  0  0  0  0  0  0  0
   22.3139  -19.8698  -13.7086 C   0  0  0  0  0  0  0  0  0  0  0  0
   21.0969  -19.6496  -13.3613 O   0  0  0  0  0  0  0  0  0  0  0  0
   23.2203  -18.7621  -13.9786 C   0  0  0  0  0  0  0  0  0  0  0  0
   24.6335  -19.2348  -14.2307 C   0  0  2  0  0  0  0  0  0  0  0  0
   25.2743  -20.0304  -13.2775 N   0  0  0  0  0  0  0  0  0  0  0  0
   25.4426  -18.2197  -14.9260 C   0  0  0  0  0  0  0  0  0  0  0  0
   26.0873  -17.3354  -14.2519 O   0  0  0  0  0  0  0  0  0  0  0  0
   30.2578  -17.4904  -17.6851 C   0  0  0  0  0  0  0  0  0  0  0  0
   28.9194  -16.8290  -17.6117 C   0  0  1  0  0  0  0  0  0  0  0  0
   28.6407  -16.2601  -19.0029 C   0  0  0  0  0  0  0  0  0  0  0  0
   27.8040  -17.5942  -17.0652 C   0  0  0  0  0  0  0  0  0  0  0  0
   26.4467  -17.0803  -16.9334 C   0  0  2  0  0  0  0  0  0  0  0  0
   25.5693  -18.1419  -16.3353 N   0  0  0  0  0  0  0  0  0  0  0  0
   25.7476  -16.4682  -18.0635 C   0  0  0  0  0  0  0  0  0  0  0  0
   25.8034  -15.1460  -18.4617 O   0  0  0  0  0  0  0  0  0  0  0  0
   24.9643  -17.1688  -18.8236 O   0  0  0  0  0  0  0  0  0  0  0  0
  1  2  1  0
  3  4  2  0
  3  2  1  0
  5  6  1  0
  6  7  2  0
  6  8  1  0
  9  8  1  1
  9 10  1  0
 10  3  1  0
 11  9  1  0
 11 12  2  0
 14 13  1  6
 14 15  1  0
 16 14  1  0
 17 18  1  0
 17 16  1  6
 18 11  1  0
 19 17  1  0
 20 19  1  0
 21 19  2  0
M  END
$$$$
