GNL.pdb
     RDKit          3D

 21 20  0  0  1  0  0  0  0  0999 V2000
   25.5336  -20.4423   -8.9541 N   0  0  0  0  0  0  0  0  0  0  0  0
   25.8371  -21.1932  -10.1550 C   0  0  0  0  0  0  0  0  0  0  0  0
   25.1620  -20.5269  -11.3105 C   0  0  0  0  0  0  0  0  0  0  0  0
   24.4124  -19.5852  -11.0448 O   0  0  0  0  0  0  0  0  0  0  0  0
   27.7154  -19.5112  -15.2435 N   0  0  0  0  0  0  0  0  0  0  0  0
   26.9758  -20.6858  -14.9811 C   0  0  0  0  0  0  0  0  0  0  0  0
   27.6795  -21.6817  -14.5770 O   0  0  0  0  0  0  0  0  0  0  0  0
   25.5334  -20.8119  -15.1389 C   0  0  0  0  0  0  0  0  0  0  0  0
   24.7951  -20.5221  -13.8524 C   0  0  2  0  0  0  0  0  0  0  0  0
   25.3485  -20.9253  -12.6344 N   0  0  0  0  0  0  0  0  0  0  0  0
   23.3359  -20.6421  -14.0108 C   0  0  0  0  0  0  0  0  0  0  0  0
   22.7445  -21.7471  -13.7257 O   0  0  0  0  0  0  0  0  0  0  0  0
   19.4886  -16.4509  -13.4236 C   0  0  0  0  0  0  0  0  0  0  0  0
   20.2009  -17.7617  -13.3318 C   0  0  1  0  0  0  0  0  0  0  0  0
   19.5686  -18.5170  -12.1628 C   0  0  0  0  0  0  0  0  0  0  0  0
   20.3198  -18.5654  -14.5435 C   0  0  0  0  0  0  0  0  0  0  0  0
   21.0292  -19.8364  -14.6153 C   0  0  2  0  0  0  0  0  0  0  0  0
   22.5034  -19.5914  -14.4701 N   0  0  0  0  0  0  0  0  0  0  0  0
   20.8101  -20.7733  -15.7174 C   0  0  0  0  0  0  0  0  0  0  0  0
   19.7757  -21.6803  -15.8481 O   0  0  0  0  0  0  0  0  0  0  0  0
   21.6317  -20.8302  -16.7195 O   0  0  0  0  0  0  0  0  0  0  0  0
  1  2  1  0
  3  4  2  0
  3  2  1  0
  5  6  1  0
  6  7  2  0
  6  8  1  0
  9  8  1  6
  9 10  1  0
 10  3  1  0
 11  9  1  0
 11 12  2  0
 14 13  1  6
 14 15  1  0
 16 14  1  0
 17 18  1  0
 17 16  1  6
 18 11  1  0
 19 17  1  0
 20 19  1  0
 21 19  2  0
M  END
$$$$
