GNL.pdb
     RDKit          3D

 21 20  0  0  1  0  0  0  0  0999 V2000
   18.7360  -10.8225  -16.7875 N   0  0  0  0  0  0  0  0  0  0  0  0
   18.6071  -10.9091  -15.3474 C   0  0  0  0  0  0  0  0  0  0  0  0
   18.8110   -9.5439  -14.7732 C   0  0  0  0  0  0  0  0  0  0  0  0
   17.8041   -8.9564  -14.3731 O   0  0  0  0  0  0  0  0  0  0  0  0
   22.7113   -5.0330  -13.8564 N   0  0  0  0  0  0  0  0  0  0  0  0
   22.0968   -6.1422  -13.2338 C   0  0  0  0  0  0  0  0  0  0  0  0
   21.6909   -5.9251  -12.0344 O   0  0  0  0  0  0  0  0  0  0  0  0
   21.9126   -7.4468  -13.8547 C   0  0  0  0  0  0  0  0  0  0  0  0
   20.4919   -7.6542  -14.3268 C   0  0  2  0  0  0  0  0  0  0  0  0
   20.0635   -8.9364  -14.6800 N   0  0  0  0  0  0  0  0  0  0  0  0
   20.0067   -6.5258  -15.1391 C   0  0  0  0  0  0  0  0  0  0  0  0
   20.1645   -5.3187  -14.7266 O   0  0  0  0  0  0  0  0  0  0  0  0
   21.1913   -5.5851  -20.2927 C   0  0  0  0  0  0  0  0  0  0  0  0
   20.8046   -5.3409  -18.8697 C   0  0  1  0  0  0  0  0  0  0  0  0
   21.3716   -3.9714  -18.4959 C   0  0  0  0  0  0  0  0  0  0  0  0
   19.4032   -5.5076  -18.5002 C   0  0  0  0  0  0  0  0  0  0  0  0
   18.9062   -5.4509  -17.1314 C   0  0  2  0  0  0  0  0  0  0  0  0
   19.3554   -6.6760  -16.3886 N   0  0  0  0  0  0  0  0  0  0  0  0
   17.4926   -5.2112  -16.8404 C   0  0  0  0  0  0  0  0  0  0  0  0
   16.8514   -3.9891  -16.7681 O   0  0  0  0  0  0  0  0  0  0  0  0
   16.6822   -6.1963  -16.6057 O   0  0  0  0  0  0  0  0  0  0  0  0
  1  2  1  0
  3  4  2  0
  3  2  1  0
  5  6  1  0
  6  7  2  0
  6  8  1  0
  9  8  1  6
  9 10  1  0
 10  3  1  0
 11  9  1  0
 11 12  2  0
 14 13  1  6
 14 15  1  0
 16 14  1  0
 17 18  1  0
 17 16  1  6
 18 11  1  0
 19 17  1  0
 20 19  1  0
 21 19  2  0
M  END
$$$$
