GNL.pdb
     RDKit          3D

 21 20  0  0  1  0  0  0  0  0999 V2000
   15.2298  -21.7576   -0.6207 N   0  0  0  0  0  0  0  0  0  0  0  0
   14.4641  -21.9124    0.5990 C   0  0  0  0  0  0  0  0  0  0  0  0
   14.6636  -20.6916    1.4387 C   0  0  0  0  0  0  0  0  0  0  0  0
   15.3553  -19.7941    0.9538 O   0  0  0  0  0  0  0  0  0  0  0  0
   12.1828  -17.3599    5.7356 N   0  0  0  0  0  0  0  0  0  0  0  0
   13.2083  -18.3222    5.6030 C   0  0  0  0  0  0  0  0  0  0  0  0
   14.2720  -18.0664    6.2765 O   0  0  0  0  0  0  0  0  0  0  0  0
   13.1198  -19.5233    4.7839 C   0  0  0  0  0  0  0  0  0  0  0  0
   14.1310  -19.5192    3.6607 C   0  0  2  0  0  0  0  0  0  0  0  0
   14.1095  -20.5433    2.7104 N   0  0  0  0  0  0  0  0  0  0  0  0
   15.4466  -19.0249    4.1003 C   0  0  0  0  0  0  0  0  0  0  0  0
   16.4005  -19.8529    4.3383 O   0  0  0  0  0  0  0  0  0  0  0  0
   18.4432  -14.9226    1.9337 C   0  0  0  0  0  0  0  0  0  0  0  0
   17.9843  -16.1836    2.5920 C   0  0  1  0  0  0  0  0  0  0  0  0
   19.0542  -17.2366    2.3037 C   0  0  0  0  0  0  0  0  0  0  0  0
   17.5957  -16.1230    3.9969 C   0  0  0  0  0  0  0  0  0  0  0  0
   17.1222  -17.2679    4.7643 C   0  0  2  0  0  0  0  0  0  0  0  0
   15.7520  -17.6538    4.2868 N   0  0  0  0  0  0  0  0  0  0  0  0
   17.1314  -17.2644    6.2273 C   0  0  0  0  0  0  0  0  0  0  0  0
   18.2384  -17.2736    7.0546 O   0  0  0  0  0  0  0  0  0  0  0  0
   16.0240  -17.2590    6.9025 O   0  0  0  0  0  0  0  0  0  0  0  0
  1  2  1  0
  3  4  2  0
  3  2  1  0
  5  6  1  0
  6  7  2  0
  6  8  1  0
  9  8  1  1
  9 10  1  0
 10  3  1  0
 11  9  1  0
 11 12  2  0
 14 13  1  1
 14 15  1  0
 16 14  1  0
 17 18  1  0
 17 16  1  6
 18 11  1  0
 19 17  1  0
 20 19  1  0
 21 19  2  0
M  END
$$$$
