GNL.pdb
     RDKit          3D

 21 20  0  0  1  0  0  0  0  0999 V2000
   21.3105  -20.0251  -14.3157 N   0  0  0  0  0  0  0  0  0  0  0  0
   20.4903  -19.8337  -15.4941 C   0  0  0  0  0  0  0  0  0  0  0  0
   21.0304  -18.6688  -16.2599 C   0  0  0  0  0  0  0  0  0  0  0  0
   22.1963  -18.7562  -16.6499 O   0  0  0  0  0  0  0  0  0  0  0  0
   19.7180  -14.5652  -20.1597 N   0  0  0  0  0  0  0  0  0  0  0  0
   19.6999  -14.5420  -18.7474 C   0  0  0  0  0  0  0  0  0  0  0  0
   20.0757  -13.4297  -18.2259 O   0  0  0  0  0  0  0  0  0  0  0  0
   19.2973  -15.6586  -17.9033 C   0  0  0  0  0  0  0  0  0  0  0  0
   20.4871  -16.4062  -17.3469 C   0  0  2  0  0  0  0  0  0  0  0  0
   20.2801  -17.5256  -16.5366 N   0  0  0  0  0  0  0  0  0  0  0  0
   21.5934  -15.5021  -16.9903 C   0  0  0  0  0  0  0  0  0  0  0  0
   21.5990  -14.9070  -15.8511 O   0  0  0  0  0  0  0  0  0  0  0  0
   26.6685  -16.5311  -15.9052 C   0  0  0  0  0  0  0  0  0  0  0  0
   25.4455  -15.6718  -15.9088 C   0  0  1  0  0  0  0  0  0  0  0  0
   25.6466  -14.6280  -14.8103 C   0  0  0  0  0  0  0  0  0  0  0  0
   25.0118  -15.0994  -17.1787 C   0  0  0  0  0  0  0  0  0  0  0  0
   23.7891  -14.3255  -17.3514 C   0  0  2  0  0  0  0  0  0  0  0  0
   22.6940  -15.2291  -17.8401 N   0  0  0  0  0  0  0  0  0  0  0  0
   23.7701  -13.0903  -18.1353 C   0  0  0  0  0  0  0  0  0  0  0  0
   24.1297  -11.8260  -17.7085 O   0  0  0  0  0  0  0  0  0  0  0  0
   23.3809  -13.0899  -19.3725 O   0  0  0  0  0  0  0  0  0  0  0  0
  1  2  1  0
  3  4  2  0
  3  2  1  0
  5  6  1  0
  6  7  2  0
  6  8  1  0
  9  8  1  1
  9 10  1  0
 10  3  1  0
 11  9  1  0
 11 12  2  0
 14 13  1  6
 14 15  1  0
 16 14  1  0
 17 18  1  0
 17 16  1  6
 18 11  1  0
 19 17  1  0
 20 19  1  0
 21 19  2  0
M  END
$$$$
