GNL.pdb
     RDKit          3D

 21 20  0  0  1  0  0  0  0  0999 V2000
   26.9092  -22.0853  -14.6043 N   0  0  0  0  0  0  0  0  0  0  0  0
   27.6074  -20.8765  -14.2177 C   0  0  0  0  0  0  0  0  0  0  0  0
   27.0412  -20.4005  -12.9184 C   0  0  0  0  0  0  0  0  0  0  0  0
   27.6342  -19.4734  -12.3636 O   0  0  0  0  0  0  0  0  0  0  0  0
   22.8755  -19.1104  -12.7521 N   0  0  0  0  0  0  0  0  0  0  0  0
   23.0556  -20.4600  -12.3759 C   0  0  0  0  0  0  0  0  0  0  0  0
   22.6075  -21.3157  -13.2230 O   0  0  0  0  0  0  0  0  0  0  0  0
   23.6902  -20.9008  -11.1412 C   0  0  0  0  0  0  0  0  0  0  0  0
   25.1862  -20.6876  -11.1656 C   0  0  2  0  0  0  0  0  0  0  0  0
   25.9014  -20.9552  -12.3358 N   0  0  0  0  0  0  0  0  0  0  0  0
   25.8184  -21.0435   -9.8842 C   0  0  0  0  0  0  0  0  0  0  0  0
   26.1446  -22.2629   -9.6420 O   0  0  0  0  0  0  0  0  0  0  0  0
   29.4577  -18.7217   -5.5321 C   0  0  0  0  0  0  0  0  0  0  0  0
   28.4829  -19.7973   -5.8883 C   0  0  1  0  0  0  0  0  0  0  0  0
   27.6229  -20.0309   -4.6463 C   0  0  0  0  0  0  0  0  0  0  0  0
   27.7029  -19.6403   -7.1111 C   0  0  0  0  0  0  0  0  0  0  0  0
   26.7014  -20.5942   -7.5702 C   0  0  2  0  0  0  0  0  0  0  0  0
   26.1060  -20.1075   -8.8598 N   0  0  0  0  0  0  0  0  0  0  0  0
   25.6239  -21.0532   -6.6935 C   0  0  0  0  0  0  0  0  0  0  0  0
   25.7277  -21.9385   -5.6374 O   0  0  0  0  0  0  0  0  0  0  0  0
   24.4058  -20.6392   -6.8587 O   0  0  0  0  0  0  0  0  0  0  0  0
  1  2  1  0
  3  4  2  0
  3  2  1  0
  5  6  1  0
  6  7  2  0
  6  8  1  0
  9  8  1  6
  9 10  1  0
 10  3  1  0
 11  9  1  0
 11 12  2  0
 14 13  1  1
 14 15  1  0
 16 14  1  0
 17 18  1  0
 17 16  1  1
 18 11  1  0
 19 17  1  0
 20 19  1  0
 21 19  2  0
M  END
$$$$
