KYT.pdb
     RDKit          3D

 29 29  0  0  1  0  0  0  0  0999 V2000
   28.8645  -23.5036  -17.0754 N   0  0  0  0  0  0  0  0  0  0  0  0
   28.2914  -22.2179  -16.8837 C   0  0  1  0  0  0  0  0  0  0  0  0
   27.6020  -21.7782  -18.1897 C   0  0  0  0  0  0  0  0  0  0  0  0
   28.6910  -21.5137  -19.1671 C   0  0  0  0  0  0  0  0  0  0  0  0
   28.5672  -22.1411  -20.5052 C   0  0  0  0  0  0  0  0  0  0  0  0
   29.6377  -21.7503  -21.4761 C   0  0  0  0  0  0  0  0  0  0  0  0
   29.9558  -20.3626  -21.5271 N   0  0  0  0  0  0  0  0  0  0  0  0
   27.2599  -22.1440  -15.8203 C   0  0  0  0  0  0  0  0  0  0  0  0
   26.3801  -23.0611  -15.7216 O   0  0  0  0  0  0  0  0  0  0  0  0
   23.1825  -20.5722   -8.0933 O   0  0  0  0  0  0  0  0  0  0  0  0
   24.0063  -20.5079   -9.2234 C   0  0  0  0  0  0  0  0  0  0  0  0
   23.6107  -19.8580  -10.3732 C   0  0  0  0  0  0  0  0  0  0  0  0
   24.4684  -19.8343  -11.4423 C   0  0  0  0  0  0  0  0  0  0  0  0
   25.7118  -20.4281  -11.4308 C   0  0  0  0  0  0  0  0  0  0  0  0
   26.6362  -20.4083  -12.5780 C   0  0  0  0  0  0  0  0  0  0  0  0
   26.1658  -21.1406  -13.7850 C   0  0  2  0  0  0  0  0  0  0  0  0
   27.1521  -21.1070  -14.8605 N   0  0  0  0  0  0  0  0  0  0  0  0
   24.8605  -20.6257  -14.2419 C   0  0  0  0  0  0  0  0  0  0  0  0
   24.8014  -19.4998  -14.7833 O   0  0  0  0  0  0  0  0  0  0  0  0
   26.0730  -21.0695  -10.2614 C   0  0  0  0  0  0  0  0  0  0  0  0
   25.2431  -21.1187   -9.1617 C   0  0  0  0  0  0  0  0  0  0  0  0
   22.7131  -21.1225  -16.8484 C   0  0  0  0  0  0  0  0  0  0  0  0
   21.8352  -21.4252  -15.6713 C   0  0  1  0  0  0  0  0  0  0  0  0
   21.6764  -22.8091  -15.5314 O   0  0  0  0  0  0  0  0  0  0  0  0
   22.4016  -20.8209  -14.4062 C   0  0  2  0  0  0  0  0  0  0  0  0
   23.6842  -21.3982  -14.0698 N   0  0  0  0  0  0  0  0  0  0  0  0
   21.4752  -21.0069  -13.2596 C   0  0  0  0  0  0  0  0  0  0  0  0
   20.2351  -20.3928  -13.2906 O   0  0  0  0  0  0  0  0  0  0  0  0
   21.8012  -21.7060  -12.2761 O   0  0  0  0  0  0  0  0  0  0  0  0
  2  1  1  6
  2  3  1  0
  4  3  1  0
  4  5  1  0
  6  5  1  0
  6  7  1  0
  8  2  1  0
  9  8  2  0
 10 11  1  0
 11 12  2  0
 12 13  1  0
 14 15  1  0
 14 13  2  0
 16 15  1  1
 16 17  1  0
 17  8  1  0
 18 16  1  0
 18 19  2  0
 20 14  1  0
 21 20  2  0
 21 11  1  0
 23 22  1  6
 23 25  1  0
 24 23  1  0
 25 26  1  1
 25 27  1  0
 26 18  1  0
 27 28  1  0
 29 27  2  0
M  END
$$$$
