KYT.pdb
     RDKit          3D

 29 29  0  0  1  0  0  0  0  0999 V2000
   27.6245  -23.4075  -17.4798 N   0  0  0  0  0  0  0  0  0  0  0  0
   27.4153  -22.0832  -17.0101 C   0  0  1  0  0  0  0  0  0  0  0  0
   26.5448  -21.3230  -18.0292 C   0  0  0  0  0  0  0  0  0  0  0  0
   25.8517  -22.3591  -18.8399 C   0  0  0  0  0  0  0  0  0  0  0  0
   25.7300  -22.1098  -20.2969 C   0  0  0  0  0  0  0  0  0  0  0  0
   24.8851  -23.1052  -21.0292 C   0  0  0  0  0  0  0  0  0  0  0  0
   24.8670  -22.9823  -22.4484 N   0  0  0  0  0  0  0  0  0  0  0  0
   26.7158  -21.9842  -15.7058 C   0  0  0  0  0  0  0  0  0  0  0  0
   25.7842  -22.8055  -15.4188 O   0  0  0  0  0  0  0  0  0  0  0  0
   24.8671  -20.3211   -7.1747 O   0  0  0  0  0  0  0  0  0  0  0  0
   25.4531  -20.3596   -8.4454 C   0  0  0  0  0  0  0  0  0  0  0  0
   26.4310  -21.2774   -8.7656 C   0  0  0  0  0  0  0  0  0  0  0  0
   26.9612  -21.2580  -10.0296 C   0  0  0  0  0  0  0  0  0  0  0  0
   26.5682  -20.3662  -11.0037 C   0  0  0  0  0  0  0  0  0  0  0  0
   27.1369  -20.3390  -12.3625 C   0  0  0  0  0  0  0  0  0  0  0  0
   26.3354  -21.0424  -13.4005 C   0  0  2  0  0  0  0  0  0  0  0  0
   26.9945  -21.0227  -14.7028 N   0  0  0  0  0  0  0  0  0  0  0  0
   24.9715  -20.4852  -13.4844 C   0  0  0  0  0  0  0  0  0  0  0  0
   24.8087  -19.3276  -13.9290 O   0  0  0  0  0  0  0  0  0  0  0  0
   25.5864  -19.4622  -10.6456 C   0  0  0  0  0  0  0  0  0  0  0  0
   25.0247  -19.4448   -9.3868 C   0  0  0  0  0  0  0  0  0  0  0  0
   22.2608  -21.3041  -15.5493 C   0  0  0  0  0  0  0  0  0  0  0  0
   21.6806  -21.4258  -14.1721 C   0  0  1  0  0  0  0  0  0  0  0  0
   21.5539  -22.7747  -13.8197 O   0  0  0  0  0  0  0  0  0  0  0  0
   22.5287  -20.6861  -13.1621 C   0  0  2  0  0  0  0  0  0  0  0  0
   23.8556  -21.2531  -13.0657 N   0  0  0  0  0  0  0  0  0  0  0  0
   21.8998  -20.7032  -11.8162 C   0  0  0  0  0  0  0  0  0  0  0  0
   22.5445  -21.3580  -10.7810 O   0  0  0  0  0  0  0  0  0  0  0  0
   20.8044  -20.1375  -11.6107 O   0  0  0  0  0  0  0  0  0  0  0  0
  2  1  1  6
  2  3  1  0
  4  3  1  0
  4  5  1  0
  6  5  1  0
  6  7  1  0
  8  2  1  0
  9  8  2  0
 10 11  1  0
 11 12  2  0
 12 13  1  0
 14 15  1  0
 14 13  2  0
 16 15  1  1
 16 17  1  0
 17  8  1  0
 18 16  1  0
 18 19  2  0
 20 14  1  0
 21 20  2  0
 21 11  1  0
 23 22  1  6
 23 25  1  0
 24 23  1  0
 25 26  1  1
 25 27  1  0
 26 18  1  0
 27 28  1  0
 29 27  2  0
M  END
$$$$
