KYT.pdb
     RDKit          3D

 29 29  0  0  1  0  0  0  0  0999 V2000
   27.5868  -24.5667  -16.8142 N   0  0  0  0  0  0  0  0  0  0  0  0
   27.5231  -23.2100  -16.3977 C   0  0  1  0  0  0  0  0  0  0  0  0
   27.2433  -22.3227  -17.6259 C   0  0  0  0  0  0  0  0  0  0  0  0
   28.5122  -22.2697  -18.3994 C   0  0  0  0  0  0  0  0  0  0  0  0
   29.3103  -23.5173  -18.4776 C   0  0  0  0  0  0  0  0  0  0  0  0
   30.4561  -23.4627  -19.4397 C   0  0  0  0  0  0  0  0  0  0  0  0
   31.5020  -22.5527  -19.1115 N   0  0  0  0  0  0  0  0  0  0  0  0
   26.4580  -22.9070  -15.4108 C   0  0  0  0  0  0  0  0  0  0  0  0
   25.4180  -23.6416  -15.3505 O   0  0  0  0  0  0  0  0  0  0  0  0
   21.8868  -19.8855   -8.4332 O   0  0  0  0  0  0  0  0  0  0  0  0
   22.8899  -20.1356   -9.3771 C   0  0  0  0  0  0  0  0  0  0  0  0
   23.9859  -20.9180   -9.0807 C   0  0  0  0  0  0  0  0  0  0  0  0
   24.9301  -21.1211  -10.0535 C   0  0  0  0  0  0  0  0  0  0  0  0
   24.8436  -20.5829  -11.3191 C   0  0  0  0  0  0  0  0  0  0  0  0
   25.8570  -20.7954  -12.3672 C   0  0  0  0  0  0  0  0  0  0  0  0
   25.4025  -21.5951  -13.5370 C   0  0  2  0  0  0  0  0  0  0  0  0
   26.4847  -21.8324  -14.4874 N   0  0  0  0  0  0  0  0  0  0  0  0
   24.2443  -20.9601  -14.1951 C   0  0  0  0  0  0  0  0  0  0  0  0
   24.3798  -19.8332  -14.7205 O   0  0  0  0  0  0  0  0  0  0  0  0
   23.7314  -19.8049  -11.5786 C   0  0  0  0  0  0  0  0  0  0  0  0
   22.7570  -19.5736  -10.6314 C   0  0  0  0  0  0  0  0  0  0  0  0
   21.4417  -23.0529  -16.1708 C   0  0  0  0  0  0  0  0  0  0  0  0
   21.6102  -21.5653  -16.2520 C   0  0  1  0  0  0  0  0  0  0  0  0
   20.4788  -20.9829  -16.8355 O   0  0  0  0  0  0  0  0  0  0  0  0
   21.8701  -20.9762  -14.8839 C   0  0  2  0  0  0  0  0  0  0  0  0
   22.9896  -21.6194  -14.2325 N   0  0  0  0  0  0  0  0  0  0  0  0
   20.6735  -21.0946  -14.0112 C   0  0  0  0  0  0  0  0  0  0  0  0
   19.4853  -20.5114  -14.4164 O   0  0  0  0  0  0  0  0  0  0  0  0
   20.7281  -21.7099  -12.9246 O   0  0  0  0  0  0  0  0  0  0  0  0
  2  1  1  6
  2  3  1  0
  4  3  1  0
  4  5  1  0
  6  5  1  0
  6  7  1  0
  8  2  1  0
  9  8  2  0
 10 11  1  0
 11 12  2  0
 12 13  1  0
 14 15  1  0
 14 13  2  0
 16 15  1  1
 16 17  1  0
 17  8  1  0
 18 16  1  0
 18 19  2  0
 20 14  1  0
 21 20  2  0
 21 11  1  0
 23 22  1  1
 23 25  1  0
 24 23  1  0
 25 26  1  1
 25 27  1  0
 26 18  1  0
 27 28  1  0
 29 27  2  0
M  END
$$$$
