KYT.pdb
     RDKit          3D

 29 29  0  0  1  0  0  0  0  0999 V2000
   36.6704  -35.4843  -19.2293 N   0  0  0  0  0  0  0  0  0  0  0  0
   35.8697  -34.6120  -20.0142 C   0  0  1  0  0  0  0  0  0  0  0  0
   35.6445  -35.2503  -21.3985 C   0  0  0  0  0  0  0  0  0  0  0  0
   35.7319  -34.1431  -22.3871 C   0  0  0  0  0  0  0  0  0  0  0  0
   37.0149  -33.4029  -22.4634 C   0  0  0  0  0  0  0  0  0  0  0  0
   37.0675  -32.3596  -23.5359 C   0  0  0  0  0  0  0  0  0  0  0  0
   38.1811  -31.4724  -23.4874 N   0  0  0  0  0  0  0  0  0  0  0  0
   34.5235  -34.3285  -19.4598 C   0  0  0  0  0  0  0  0  0  0  0  0
   33.8145  -35.2788  -18.9916 O   0  0  0  0  0  0  0  0  0  0  0  0
   27.5957  -31.5184  -15.0103 O   0  0  0  0  0  0  0  0  0  0  0  0
   28.8179  -31.5973  -15.6884 C   0  0  0  0  0  0  0  0  0  0  0  0
   29.1542  -30.7040  -16.6835 C   0  0  0  0  0  0  0  0  0  0  0  0
   30.3680  -30.8405  -17.3056 C   0  0  0  0  0  0  0  0  0  0  0  0
   31.2761  -31.8274  -16.9893 C   0  0  0  0  0  0  0  0  0  0  0  0
   32.5805  -31.9805  -17.6569 C   0  0  0  0  0  0  0  0  0  0  0  0
   32.5760  -32.8438  -18.8691 C   0  0  2  0  0  0  0  0  0  0  0  0
   33.9215  -33.0471  -19.3973 N   0  0  0  0  0  0  0  0  0  0  0  0
   31.6735  -32.3008  -19.9028 C   0  0  0  0  0  0  0  0  0  0  0  0
   32.0131  -31.2775  -20.5366 O   0  0  0  0  0  0  0  0  0  0  0  0
   30.9039  -32.7034  -15.9875 C   0  0  0  0  0  0  0  0  0  0  0  0
   29.6938  -32.6043  -15.3345 C   0  0  0  0  0  0  0  0  0  0  0  0
   29.6646  -34.4163  -22.6678 C   0  0  0  0  0  0  0  0  0  0  0  0
   28.7770  -33.4953  -21.8856 C   0  0  1  0  0  0  0  0  0  0  0  0
   28.0474  -34.2200  -20.9358 O   0  0  0  0  0  0  0  0  0  0  0  0
   29.5846  -32.4033  -21.2209 C   0  0  2  0  0  0  0  0  0  0  0  0
   30.4335  -32.9316  -20.1760 N   0  0  0  0  0  0  0  0  0  0  0  0
   28.7017  -31.3587  -20.6406 C   0  0  0  0  0  0  0  0  0  0  0  0
   27.9456  -30.5695  -21.4900 O   0  0  0  0  0  0  0  0  0  0  0  0
   28.6352  -31.1867  -19.4044 O   0  0  0  0  0  0  0  0  0  0  0  0
  2  1  1  1
  2  3  1  0
  4  3  1  0
  4  5  1  0
  6  5  1  0
  6  7  1  0
  8  2  1  0
  9  8  2  0
 10 11  1  0
 11 12  2  0
 12 13  1  0
 14 15  1  0
 14 13  2  0
 16 15  1  1
 16 17  1  0
 17  8  1  0
 18 16  1  0
 18 19  2  0
 20 14  1  0
 21 20  2  0
 21 11  1  0
 23 22  1  1
 23 25  1  0
 24 23  1  0
 25 26  1  1
 25 27  1  0
 26 18  1  0
 27 28  1  0
 29 27  2  0
M  END
$$$$
