KYT.pdb
     RDKit          3D

 29 29  0  0  1  0  0  0  0  0999 V2000
   28.2280  -21.0466  -14.9114 N   0  0  0  0  0  0  0  0  0  0  0  0
   27.4617  -20.1042  -14.1747 C   0  0  1  0  0  0  0  0  0  0  0  0
   26.9040  -19.0454  -15.1453 C   0  0  0  0  0  0  0  0  0  0  0  0
   28.0833  -18.3522  -15.7281 C   0  0  0  0  0  0  0  0  0  0  0  0
   28.1091  -18.1817  -17.2012 C   0  0  0  0  0  0  0  0  0  0  0  0
   29.2937  -17.4265  -17.7187 C   0  0  0  0  0  0  0  0  0  0  0  0
   29.3652  -17.2735  -19.1333 N   0  0  0  0  0  0  0  0  0  0  0  0
   26.2937  -20.6708  -13.4570 C   0  0  0  0  0  0  0  0  0  0  0  0
   25.7295  -21.7274  -13.8929 O   0  0  0  0  0  0  0  0  0  0  0  0
   29.6539  -20.9702   -7.4868 O   0  0  0  0  0  0  0  0  0  0  0  0
   28.4337  -20.8767   -8.1665 C   0  0  0  0  0  0  0  0  0  0  0  0
   28.2154  -21.5341   -9.3587 C   0  0  0  0  0  0  0  0  0  0  0  0
   26.9960  -21.3980   -9.9700 C   0  0  0  0  0  0  0  0  0  0  0  0
   25.9702  -20.6354   -9.4553 C   0  0  0  0  0  0  0  0  0  0  0  0
   24.6590  -20.4831  -10.1097 C   0  0  0  0  0  0  0  0  0  0  0  0
   24.6354  -20.7947  -11.5646 C   0  0  2  0  0  0  0  0  0  0  0  0
   25.7180  -20.1277  -12.2815 N   0  0  0  0  0  0  0  0  0  0  0  0
   23.3233  -20.4675  -12.1554 C   0  0  0  0  0  0  0  0  0  0  0  0
   23.0372  -19.2726  -12.3888 O   0  0  0  0  0  0  0  0  0  0  0  0
   26.2263  -19.9920   -8.2595 C   0  0  0  0  0  0  0  0  0  0  0  0
   27.4371  -20.1002   -7.6094 C   0  0  0  0  0  0  0  0  0  0  0  0
   22.0424  -21.3910  -15.4279 C   0  0  0  0  0  0  0  0  0  0  0  0
   21.0235  -21.8831  -14.4443 C   0  0  1  0  0  0  0  0  0  0  0  0
   21.1519  -23.2659  -14.2680 O   0  0  0  0  0  0  0  0  0  0  0  0
   21.1564  -21.1605  -13.1227 C   0  0  2  0  0  0  0  0  0  0  0  0
   22.3950  -21.4962  -12.4559 N   0  0  0  0  0  0  0  0  0  0  0  0
   20.0218  -21.4801  -12.2183 C   0  0  0  0  0  0  0  0  0  0  0  0
   18.7341  -21.1681  -12.6189 O   0  0  0  0  0  0  0  0  0  0  0  0
   20.2163  -22.0230  -11.1094 O   0  0  0  0  0  0  0  0  0  0  0  0
  2  1  1  6
  2  3  1  0
  4  3  1  0
  4  5  1  0
  6  5  1  0
  6  7  1  0
  8  2  1  0
  9  8  2  0
 10 11  1  0
 11 12  2  0
 12 13  1  0
 14 15  1  0
 14 13  2  0
 16 15  1  1
 16 17  1  0
 17  8  1  0
 18 16  1  0
 18 19  2  0
 20 14  1  0
 21 20  2  0
 21 11  1  0
 23 22  1  6
 23 25  1  0
 24 23  1  0
 25 26  1  1
 25 27  1  0
 26 18  1  0
 27 28  1  0
 29 27  2  0
M  END
$$$$
