KYT.pdb
     RDKit          3D

 29 29  0  0  1  0  0  0  0  0999 V2000
   17.0563  -13.7641  -17.3308 N   0  0  0  0  0  0  0  0  0  0  0  0
   16.5339  -12.4583  -17.1305 C   0  0  1  0  0  0  0  0  0  0  0  0
   15.9995  -12.3494  -15.6893 C   0  0  0  0  0  0  0  0  0  0  0  0
   14.8346  -13.2699  -15.6062 C   0  0  0  0  0  0  0  0  0  0  0  0
   14.0835  -13.2980  -14.3276 C   0  0  0  0  0  0  0  0  0  0  0  0
   12.8900  -14.2018  -14.3279 C   0  0  0  0  0  0  0  0  0  0  0  0
   12.1991  -14.3213  -13.0877 N   0  0  0  0  0  0  0  0  0  0  0  0
   17.5151  -11.3585  -17.2975 C   0  0  0  0  0  0  0  0  0  0  0  0
   18.7616  -11.5925  -17.1707 O   0  0  0  0  0  0  0  0  0  0  0  0
   21.7656   -4.0658  -19.9055 O   0  0  0  0  0  0  0  0  0  0  0  0
   20.7813   -5.0212  -19.6259 C   0  0  0  0  0  0  0  0  0  0  0  0
   19.7078   -4.7385  -18.8081 C   0  0  0  0  0  0  0  0  0  0  0  0
   18.7811   -5.7221  -18.5775 C   0  0  0  0  0  0  0  0  0  0  0  0
   18.8642   -6.9854  -19.1213 C   0  0  0  0  0  0  0  0  0  0  0  0
   17.8730   -8.0471  -18.8741 C   0  0  0  0  0  0  0  0  0  0  0  0
   18.2068   -8.9818  -17.7654 C   0  0  2  0  0  0  0  0  0  0  0  0
   17.1872  -10.0128  -17.5974 N   0  0  0  0  0  0  0  0  0  0  0  0
   18.4366   -8.2486  -16.5054 C   0  0  0  0  0  0  0  0  0  0  0  0
   17.4579   -7.7903  -15.8758 O   0  0  0  0  0  0  0  0  0  0  0  0
   19.9536   -7.2310  -19.9352 C   0  0  0  0  0  0  0  0  0  0  0  0
   20.9097   -6.2726  -20.1951 C   0  0  0  0  0  0  0  0  0  0  0  0
   20.4625   -9.4411  -13.4487 C   0  0  0  0  0  0  0  0  0  0  0  0
   20.9723   -8.1025  -13.8917 C   0  0  1  0  0  0  0  0  0  0  0  0
   22.1795   -8.2515  -14.5847 O   0  0  0  0  0  0  0  0  0  0  0  0
   19.9483   -7.3913  -14.7472 C   0  0  2  0  0  0  0  0  0  0  0  0
   19.7530   -8.0646  -16.0121 N   0  0  0  0  0  0  0  0  0  0  0  0
   20.3490   -5.9847  -15.0083 C   0  0  0  0  0  0  0  0  0  0  0  0
   20.5973   -5.5869  -16.3107 O   0  0  0  0  0  0  0  0  0  0  0  0
   20.4634   -5.1640  -14.0725 O   0  0  0  0  0  0  0  0  0  0  0  0
  2  1  1  1
  2  3  1  0
  4  3  1  0
  4  5  1  0
  6  5  1  0
  6  7  1  0
  8  2  1  0
  9  8  2  0
 10 11  1  0
 11 12  2  0
 12 13  1  0
 14 15  1  0
 14 13  2  0
 16 15  1  6
 16 17  1  0
 17  8  1  0
 18 16  1  0
 18 19  2  0
 20 14  1  0
 21 20  2  0
 21 11  1  0
 23 22  1  6
 23 25  1  0
 24 23  1  0
 25 26  1  6
 25 27  1  0
 26 18  1  0
 27 28  1  0
 29 27  2  0
M  END
$$$$
