KYT.pdb
     RDKit          3D

 29 29  0  0  1  0  0  0  0  0999 V2000
   21.8066  -12.8421  -16.6260 N   0  0  0  0  0  0  0  0  0  0  0  0
   21.0854  -11.7483  -17.1751 C   0  0  1  0  0  0  0  0  0  0  0  0
   19.5980  -11.8908  -16.7985 C   0  0  0  0  0  0  0  0  0  0  0  0
   19.1088  -13.1137  -17.4886 C   0  0  0  0  0  0  0  0  0  0  0  0
   18.6390  -14.2314  -16.6343 C   0  0  0  0  0  0  0  0  0  0  0  0
   17.4444  -14.9603  -17.1661 C   0  0  0  0  0  0  0  0  0  0  0  0
   16.9657  -16.0380  -16.3667 N   0  0  0  0  0  0  0  0  0  0  0  0
   21.5127  -10.4116  -16.6947 C   0  0  0  0  0  0  0  0  0  0  0  0
   21.8934  -10.2604  -15.4876 O   0  0  0  0  0  0  0  0  0  0  0  0
   25.1520   -2.2952  -17.1207 O   0  0  0  0  0  0  0  0  0  0  0  0
   24.7283   -3.6225  -17.2562 C   0  0  0  0  0  0  0  0  0  0  0  0
   25.1751   -4.6163  -16.4113 C   0  0  0  0  0  0  0  0  0  0  0  0
   24.7184   -5.8947  -16.6019 C   0  0  0  0  0  0  0  0  0  0  0  0
   23.8321   -6.2433  -17.5977 C   0  0  0  0  0  0  0  0  0  0  0  0
   23.3406   -7.6161  -17.8090 C   0  0  0  0  0  0  0  0  0  0  0  0
   22.1456   -7.9932  -17.0064 C   0  0  2  0  0  0  0  0  0  0  0  0
   21.5402   -9.2335  -17.4818 N   0  0  0  0  0  0  0  0  0  0  0  0
   21.1596   -6.8956  -16.9765 C   0  0  0  0  0  0  0  0  0  0  0  0
   20.5784   -6.5650  -18.0334 O   0  0  0  0  0  0  0  0  0  0  0  0
   23.4069   -5.2207  -18.4242 C   0  0  0  0  0  0  0  0  0  0  0  0
   23.8393   -3.9209  -18.2698 C   0  0  0  0  0  0  0  0  0  0  0  0
   17.8915   -6.5434  -15.6150 C   0  0  0  0  0  0  0  0  0  0  0  0
   18.6926   -5.4626  -14.9532 C   0  0  1  0  0  0  0  0  0  0  0  0
   19.0447   -5.8496  -13.6548 O   0  0  0  0  0  0  0  0  0  0  0  0
   19.9241   -5.1299  -15.7651 C   0  0  2  0  0  0  0  0  0  0  0  0
   20.8728   -6.2215  -15.7626 N   0  0  0  0  0  0  0  0  0  0  0  0
   20.5950   -3.9089  -15.2489 C   0  0  0  0  0  0  0  0  0  0  0  0
   21.8534   -4.0212  -14.6833 O   0  0  0  0  0  0  0  0  0  0  0  0
   20.0399   -2.7913  -15.3195 O   0  0  0  0  0  0  0  0  0  0  0  0
  2  1  1  1
  2  3  1  0
  4  3  1  0
  4  5  1  0
  6  5  1  0
  6  7  1  0
  8  2  1  0
  9  8  2  0
 10 11  1  0
 11 12  2  0
 12 13  1  0
 14 15  1  0
 14 13  2  0
 16 15  1  6
 16 17  1  0
 17  8  1  0
 18 16  1  0
 18 19  2  0
 20 14  1  0
 21 20  2  0
 21 11  1  0
 23 22  1  6
 23 25  1  0
 24 23  1  0
 25 26  1  1
 25 27  1  0
 26 18  1  0
 27 28  1  0
 29 27  2  0
M  END
$$$$
