KYT.pdb
     RDKit          3D

 29 29  0  0  1  0  0  0  0  0999 V2000
   28.8970  -23.6944  -17.2641 N   0  0  0  0  0  0  0  0  0  0  0  0
   27.5679  -23.2774  -17.5427 C   0  0  1  0  0  0  0  0  0  0  0  0
   26.8414  -24.4008  -18.3072 C   0  0  0  0  0  0  0  0  0  0  0  0
   27.3832  -24.3803  -19.6919 C   0  0  0  0  0  0  0  0  0  0  0  0
   27.3335  -23.0889  -20.4196 C   0  0  0  0  0  0  0  0  0  0  0  0
   27.7486  -23.1686  -21.8557 C   0  0  0  0  0  0  0  0  0  0  0  0
   27.7793  -21.9332  -22.5645 N   0  0  0  0  0  0  0  0  0  0  0  0
   26.7406  -22.9816  -16.3475 C   0  0  0  0  0  0  0  0  0  0  0  0
   25.7409  -23.7207  -16.0661 O   0  0  0  0  0  0  0  0  0  0  0  0
   23.9870  -20.2433   -8.3697 O   0  0  0  0  0  0  0  0  0  0  0  0
   24.6636  -20.3752   -9.5881 C   0  0  0  0  0  0  0  0  0  0  0  0
   24.3355  -19.6092  -10.6865 C   0  0  0  0  0  0  0  0  0  0  0  0
   25.0402  -19.7911  -11.8482 C   0  0  0  0  0  0  0  0  0  0  0  0
   26.0647  -20.7033  -11.9792 C   0  0  0  0  0  0  0  0  0  0  0  0
   26.8231  -20.9052  -13.2261 C   0  0  0  0  0  0  0  0  0  0  0  0
   26.1181  -21.6860  -14.2787 C   0  0  2  0  0  0  0  0  0  0  0  0
   26.9629  -21.9094  -15.4479 N   0  0  0  0  0  0  0  0  0  0  0  0
   24.8461  -21.0395  -14.6553 C   0  0  0  0  0  0  0  0  0  0  0  0
   24.8704  -19.9730  -15.3082 O   0  0  0  0  0  0  0  0  0  0  0  0
   26.3645  -21.4523  -10.8574 C   0  0  0  0  0  0  0  0  0  0  0  0
   25.6828  -21.3033   -9.6685 C   0  0  0  0  0  0  0  0  0  0  0  0
   22.2212  -21.7657  -16.9155 C   0  0  0  0  0  0  0  0  0  0  0  0
   21.5377  -21.6921  -15.5830 C   0  0  1  0  0  0  0  0  0  0  0  0
   21.2634  -22.9808  -15.1099 O   0  0  0  0  0  0  0  0  0  0  0  0
   22.3776  -20.9241  -14.5875 C   0  0  2  0  0  0  0  0  0  0  0  0
   23.6078  -21.6201  -14.2815 N   0  0  0  0  0  0  0  0  0  0  0  0
   21.6322  -20.6875  -13.3242 C   0  0  0  0  0  0  0  0  0  0  0  0
   20.5053  -19.8842  -13.3487 O   0  0  0  0  0  0  0  0  0  0  0  0
   22.0090  -21.2018  -12.2491 O   0  0  0  0  0  0  0  0  0  0  0  0
  2  1  1  1
  2  3  1  0
  4  3  1  0
  4  5  1  0
  6  5  1  0
  6  7  1  0
  8  2  1  0
  9  8  2  0
 10 11  1  0
 11 12  2  0
 12 13  1  0
 14 15  1  0
 14 13  2  0
 16 15  1  1
 16 17  1  0
 17  8  1  0
 18 16  1  0
 18 19  2  0
 20 14  1  0
 21 20  2  0
 21 11  1  0
 23 22  1  6
 23 25  1  0
 24 23  1  0
 25 26  1  1
 25 27  1  0
 26 18  1  0
 27 28  1  0
 29 27  2  0
M  END
$$$$
