KYT.pdb
     RDKit          3D

 29 29  0  0  1  0  0  0  0  0999 V2000
   27.6730  -32.3080  -16.8215 N   0  0  0  0  0  0  0  0  0  0  0  0
   26.6706  -32.9468  -16.0435 C   0  0  1  0  0  0  0  0  0  0  0  0
   27.3425  -33.6771  -14.8647 C   0  0  0  0  0  0  0  0  0  0  0  0
   27.2889  -35.1275  -15.1880 C   0  0  0  0  0  0  0  0  0  0  0  0
   26.1191  -35.8901  -14.6884 C   0  0  0  0  0  0  0  0  0  0  0  0
   26.1567  -37.3554  -14.9926 C   0  0  0  0  0  0  0  0  0  0  0  0
   25.0179  -38.1062  -14.5813 N   0  0  0  0  0  0  0  0  0  0  0  0
   25.6616  -32.0352  -15.4510 C   0  0  0  0  0  0  0  0  0  0  0  0
   25.9959  -30.8555  -15.1026 O   0  0  0  0  0  0  0  0  0  0  0  0
   18.6502  -27.0826  -13.8841 O   0  0  0  0  0  0  0  0  0  0  0  0
   19.5751  -28.0242  -14.3507 C   0  0  0  0  0  0  0  0  0  0  0  0
   19.1877  -29.2870  -14.7464 C   0  0  0  0  0  0  0  0  0  0  0  0
   20.1471  -30.1584  -15.1928 C   0  0  0  0  0  0  0  0  0  0  0  0
   21.4856  -29.8399  -15.2681 C   0  0  0  0  0  0  0  0  0  0  0  0
   22.5211  -30.7736  -15.7440 C   0  0  0  0  0  0  0  0  0  0  0  0
   23.3496  -31.3998  -14.6782 C   0  0  2  0  0  0  0  0  0  0  0  0
   24.3016  -32.3624  -15.2241 N   0  0  0  0  0  0  0  0  0  0  0  0
   22.5005  -32.0184  -13.6419 C   0  0  0  0  0  0  0  0  0  0  0  0
   21.9468  -33.1149  -13.8773 O   0  0  0  0  0  0  0  0  0  0  0  0
   21.8352  -28.5659  -14.8631 C   0  0  0  0  0  0  0  0  0  0  0  0
   20.9049  -27.6565  -14.4073 C   0  0  0  0  0  0  0  0  0  0  0  0
   22.5124  -30.4713   -9.6691 C   0  0  0  0  0  0  0  0  0  0  0  0
   22.3207  -31.9198  -10.0056 C   0  0  1  0  0  0  0  0  0  0  0  0
   21.6061  -32.5611   -8.9869 O   0  0  0  0  0  0  0  0  0  0  0  0
   21.6158  -32.0763  -11.3341 C   0  0  2  0  0  0  0  0  0  0  0  0
   22.3130  -31.3776  -12.3911 N   0  0  0  0  0  0  0  0  0  0  0  0
   20.2196  -31.5731  -11.2648 C   0  0  0  0  0  0  0  0  0  0  0  0
   19.2911  -32.2679  -10.5092 O   0  0  0  0  0  0  0  0  0  0  0  0
   19.8778  -30.5380  -11.8764 O   0  0  0  0  0  0  0  0  0  0  0  0
  2  1  1  1
  2  3  1  0
  4  3  1  0
  4  5  1  0
  6  5  1  0
  6  7  1  0
  8  2  1  0
  9  8  2  0
 10 11  1  0
 11 12  2  0
 12 13  1  0
 14 15  1  0
 14 13  2  0
 16 15  1  6
 16 17  1  0
 17  8  1  0
 18 16  1  0
 18 19  2  0
 20 14  1  0
 21 20  2  0
 21 11  1  0
 23 22  1  1
 23 25  1  0
 24 23  1  0
 25 26  1  6
 25 27  1  0
 26 18  1  0
 27 28  1  0
 29 27  2  0
M  END
$$$$
