KYT.pdb
     RDKit          3D

 29 29  0  0  1  0  0  0  0  0999 V2000
   28.2797  -23.6814  -17.5752 N   0  0  0  0  0  0  0  0  0  0  0  0
   27.8014  -22.3876  -17.2355 C   0  0  1  0  0  0  0  0  0  0  0  0
   26.8405  -21.9043  -18.3388 C   0  0  0  0  0  0  0  0  0  0  0  0
   27.6955  -21.4740  -19.4768 C   0  0  0  0  0  0  0  0  0  0  0  0
   28.2658  -20.1062  -19.4162 C   0  0  0  0  0  0  0  0  0  0  0  0
   28.2554  -19.3703  -20.7199 C   0  0  0  0  0  0  0  0  0  0  0  0
   28.9462  -18.1245  -20.7373 N   0  0  0  0  0  0  0  0  0  0  0  0
   27.0464  -22.3135  -15.9608 C   0  0  0  0  0  0  0  0  0  0  0  0
   26.1924  -23.2150  -15.6732 O   0  0  0  0  0  0  0  0  0  0  0  0
   24.1856  -20.2561   -7.8023 O   0  0  0  0  0  0  0  0  0  0  0  0
   24.9149  -20.3558   -8.9931 C   0  0  0  0  0  0  0  0  0  0  0  0
   25.8355  -21.3617   -9.1976 C   0  0  0  0  0  0  0  0  0  0  0  0
   26.5142  -21.3986  -10.3881 C   0  0  0  0  0  0  0  0  0  0  0  0
   26.3258  -20.4800  -11.3977 C   0  0  0  0  0  0  0  0  0  0  0  0
   27.0548  -20.5131  -12.6776 C   0  0  0  0  0  0  0  0  0  0  0  0
   26.3767  -21.2545  -13.7754 C   0  0  2  0  0  0  0  0  0  0  0  0
   27.1881  -21.2926  -14.9883 N   0  0  0  0  0  0  0  0  0  0  0  0
   25.0388  -20.6935  -14.0460 C   0  0  0  0  0  0  0  0  0  0  0  0
   24.9428  -19.5956  -14.6373 O   0  0  0  0  0  0  0  0  0  0  0  0
   25.3955  -19.4872  -11.1561 C   0  0  0  0  0  0  0  0  0  0  0  0
   24.6898  -19.4108   -9.9744 C   0  0  0  0  0  0  0  0  0  0  0  0
   22.4370  -21.4815  -16.2299 C   0  0  0  0  0  0  0  0  0  0  0  0
   21.7735  -21.5440  -14.8869 C   0  0  1  0  0  0  0  0  0  0  0  0
   21.5964  -22.8772  -14.4981 O   0  0  0  0  0  0  0  0  0  0  0  0
   22.5760  -20.7871  -13.8528 C   0  0  2  0  0  0  0  0  0  0  0  0
   23.8729  -21.3909  -13.6405 N   0  0  0  0  0  0  0  0  0  0  0  0
   21.8569  -20.7241  -12.5542 C   0  0  0  0  0  0  0  0  0  0  0  0
   20.6460  -20.0568  -12.4878 O   0  0  0  0  0  0  0  0  0  0  0  0
   22.3299  -21.2625  -11.5302 O   0  0  0  0  0  0  0  0  0  0  0  0
  2  1  1  6
  2  3  1  0
  4  3  1  0
  4  5  1  0
  6  5  1  0
  6  7  1  0
  8  2  1  0
  9  8  2  0
 10 11  1  0
 11 12  2  0
 12 13  1  0
 14 15  1  0
 14 13  2  0
 16 15  1  1
 16 17  1  0
 17  8  1  0
 18 16  1  0
 18 19  2  0
 20 14  1  0
 21 20  2  0
 21 11  1  0
 23 22  1  6
 23 25  1  0
 24 23  1  0
 25 26  1  1
 25 27  1  0
 26 18  1  0
 27 28  1  0
 29 27  2  0
M  END
$$$$
