KYT.pdb
     RDKit          3D

 29 29  0  0  1  0  0  0  0  0999 V2000
   28.2061  -23.3763  -17.4069 N   0  0  0  0  0  0  0  0  0  0  0  0
   28.0727  -22.0726  -16.8587 C   0  0  1  0  0  0  0  0  0  0  0  0
   27.4593  -21.1429  -17.9234 C   0  0  0  0  0  0  0  0  0  0  0  0
   28.3993  -21.1517  -19.0756 C   0  0  0  0  0  0  0  0  0  0  0  0
   27.8441  -21.5227  -20.3999 C   0  0  0  0  0  0  0  0  0  0  0  0
   27.7647  -20.3930  -21.3791 C   0  0  0  0  0  0  0  0  0  0  0  0
   27.2863  -20.7277  -22.6785 N   0  0  0  0  0  0  0  0  0  0  0  0
   27.1945  -21.9809  -15.6668 C   0  0  0  0  0  0  0  0  0  0  0  0
   26.1841  -22.7507  -15.5596 O   0  0  0  0  0  0  0  0  0  0  0  0
   24.4931  -20.7379   -7.2647 O   0  0  0  0  0  0  0  0  0  0  0  0
   25.1340  -20.6942   -8.5085 C   0  0  0  0  0  0  0  0  0  0  0  0
   24.4503  -20.9175   -9.6849 C   0  0  0  0  0  0  0  0  0  0  0  0
   25.1415  -20.8592  -10.8673 C   0  0  0  0  0  0  0  0  0  0  0  0
   26.4902  -20.5880  -10.9452 C   0  0  0  0  0  0  0  0  0  0  0  0
   27.2385  -20.5273  -12.2130 C   0  0  0  0  0  0  0  0  0  0  0  0
   26.5475  -21.1256  -13.3873 C   0  0  2  0  0  0  0  0  0  0  0  0
   27.3770  -21.0808  -14.5876 N   0  0  0  0  0  0  0  0  0  0  0  0
   25.2402  -20.4809  -13.6179 C   0  0  0  0  0  0  0  0  0  0  0  0
   25.2017  -19.2782  -13.9589 O   0  0  0  0  0  0  0  0  0  0  0  0
   27.1409  -20.3698   -9.7459 C   0  0  0  0  0  0  0  0  0  0  0  0
   26.4868  -20.4184   -8.5335 C   0  0  0  0  0  0  0  0  0  0  0  0
   22.8994  -20.8873  -16.1641 C   0  0  0  0  0  0  0  0  0  0  0  0
   22.0879  -21.1403  -14.9289 C   0  0  1  0  0  0  0  0  0  0  0  0
   21.8630  -22.5132  -14.7725 O   0  0  0  0  0  0  0  0  0  0  0  0
   22.7712  -20.5674  -13.7078 C   0  0  2  0  0  0  0  0  0  0  0  0
   24.0389  -21.2160  -13.4550 N   0  0  0  0  0  0  0  0  0  0  0  0
   21.9150  -20.6991  -12.5008 C   0  0  0  0  0  0  0  0  0  0  0  0
   20.6845  -20.0656  -12.4769 O   0  0  0  0  0  0  0  0  0  0  0  0
   22.2908  -21.3700  -11.5154 O   0  0  0  0  0  0  0  0  0  0  0  0
  2  1  1  6
  2  3  1  0
  4  3  1  0
  4  5  1  0
  6  5  1  0
  6  7  1  0
  8  2  1  0
  9  8  2  0
 10 11  1  0
 11 12  2  0
 12 13  1  0
 14 15  1  0
 14 13  2  0
 16 15  1  1
 16 17  1  0
 17  8  1  0
 18 16  1  0
 18 19  2  0
 20 14  1  0
 21 20  2  0
 21 11  1  0
 23 22  1  6
 23 25  1  0
 24 23  1  0
 25 26  1  1
 25 27  1  0
 26 18  1  0
 27 28  1  0
 29 27  2  0
M  END
$$$$
