KYT.pdb
     RDKit          3D

 29 29  0  0  1  0  0  0  0  0999 V2000
   28.8869  -23.3549  -17.5833 N   0  0  0  0  0  0  0  0  0  0  0  0
   28.3114  -22.1100  -17.2129 C   0  0  1  0  0  0  0  0  0  0  0  0
   27.4559  -21.5870  -18.3830 C   0  0  0  0  0  0  0  0  0  0  0  0
   28.4004  -21.3052  -19.4963 C   0  0  0  0  0  0  0  0  0  0  0  0
   27.8384  -20.6853  -20.7209 C   0  0  0  0  0  0  0  0  0  0  0  0
   28.8190  -20.5202  -21.8400 C   0  0  0  0  0  0  0  0  0  0  0  0
   28.3532  -19.7948  -22.9742 N   0  0  0  0  0  0  0  0  0  0  0  0
   27.4174  -22.1602  -16.0304 C   0  0  0  0  0  0  0  0  0  0  0  0
   26.7645  -23.2237  -15.7702 O   0  0  0  0  0  0  0  0  0  0  0  0
   23.6189  -20.8889   -8.1314 O   0  0  0  0  0  0  0  0  0  0  0  0
   24.3943  -20.7742   -9.2913 C   0  0  0  0  0  0  0  0  0  0  0  0
   24.0937  -19.8581  -10.2770 C   0  0  0  0  0  0  0  0  0  0  0  0
   24.8964  -19.8003  -11.3867 C   0  0  0  0  0  0  0  0  0  0  0  0
   25.9940  -20.6126  -11.5724 C   0  0  0  0  0  0  0  0  0  0  0  0
   26.8581  -20.5569  -12.7644 C   0  0  0  0  0  0  0  0  0  0  0  0
   26.3026  -21.2071  -13.9822 C   0  0  2  0  0  0  0  0  0  0  0  0
   27.2088  -21.0936  -15.1210 N   0  0  0  0  0  0  0  0  0  0  0  0
   24.9673  -20.6695  -14.3075 C   0  0  0  0  0  0  0  0  0  0  0  0
   24.8577  -19.4765  -14.6666 O   0  0  0  0  0  0  0  0  0  0  0  0
   26.2634  -21.5175  -10.5634 C   0  0  0  0  0  0  0  0  0  0  0  0
   25.4840  -21.6108   -9.4302 C   0  0  0  0  0  0  0  0  0  0  0  0
   22.5460  -21.6149  -16.9223 C   0  0  0  0  0  0  0  0  0  0  0  0
   21.8275  -21.7458  -15.6129 C   0  0  1  0  0  0  0  0  0  0  0  0
   21.7349  -23.0937  -15.2462 O   0  0  0  0  0  0  0  0  0  0  0  0
   22.5209  -20.9442  -14.5345 C   0  0  2  0  0  0  0  0  0  0  0  0
   23.8189  -21.4958  -14.2143 N   0  0  0  0  0  0  0  0  0  0  0  0
   21.7032  -20.8891  -13.2953 C   0  0  0  0  0  0  0  0  0  0  0  0
   20.4977  -20.2091  -13.3148 O   0  0  0  0  0  0  0  0  0  0  0  0
   22.0891  -21.4455  -12.2447 O   0  0  0  0  0  0  0  0  0  0  0  0
  2  1  1  6
  2  3  1  0
  4  3  1  0
  4  5  1  0
  6  5  1  0
  6  7  1  0
  8  2  1  0
  9  8  2  0
 10 11  1  0
 11 12  2  0
 12 13  1  0
 14 15  1  0
 14 13  2  0
 16 15  1  1
 16 17  1  0
 17  8  1  0
 18 16  1  0
 18 19  2  0
 20 14  1  0
 21 20  2  0
 21 11  1  0
 23 22  1  6
 23 25  1  0
 24 23  1  0
 25 26  1  1
 25 27  1  0
 26 18  1  0
 27 28  1  0
 29 27  2  0
M  END
$$$$
