KYT.pdb
     RDKit          3D

 29 29  0  0  1  0  0  0  0  0999 V2000
   28.8713  -23.2248  -17.8680 N   0  0  0  0  0  0  0  0  0  0  0  0
   28.3449  -21.9581  -17.4985 C   0  0  1  0  0  0  0  0  0  0  0  0
   27.4661  -21.4274  -18.6475 C   0  0  0  0  0  0  0  0  0  0  0  0
   28.3663  -20.6398  -19.5310 C   0  0  0  0  0  0  0  0  0  0  0  0
   29.5424  -21.3425  -20.0991 C   0  0  0  0  0  0  0  0  0  0  0  0
   30.3578  -20.5214  -21.0489 C   0  0  0  0  0  0  0  0  0  0  0  0
   29.6775  -20.0534  -22.2098 N   0  0  0  0  0  0  0  0  0  0  0  0
   27.4902  -21.9644  -16.2862 C   0  0  0  0  0  0  0  0  0  0  0  0
   26.6311  -22.8909  -16.1174 O   0  0  0  0  0  0  0  0  0  0  0  0
   24.1067  -20.4675   -8.2014 O   0  0  0  0  0  0  0  0  0  0  0  0
   24.9063  -20.4899   -9.3503 C   0  0  0  0  0  0  0  0  0  0  0  0
   25.7926  -21.5168   -9.5971 C   0  0  0  0  0  0  0  0  0  0  0  0
   26.5444  -21.4743  -10.7426 C   0  0  0  0  0  0  0  0  0  0  0  0
   26.4626  -20.4553  -11.6665 C   0  0  0  0  0  0  0  0  0  0  0  0
   27.2705  -20.4030  -12.8975 C   0  0  0  0  0  0  0  0  0  0  0  0
   26.6620  -21.0621  -14.0848 C   0  0  2  0  0  0  0  0  0  0  0  0
   27.5373  -20.9976  -15.2511 N   0  0  0  0  0  0  0  0  0  0  0  0
   25.3330  -20.4941  -14.3830 C   0  0  0  0  0  0  0  0  0  0  0  0
   25.2523  -19.3389  -14.8556 O   0  0  0  0  0  0  0  0  0  0  0  0
   25.5636  -19.4444  -11.3847 C   0  0  0  0  0  0  0  0  0  0  0  0
   24.7871  -19.4455  -10.2457 C   0  0  0  0  0  0  0  0  0  0  0  0
   22.8449  -20.8258  -16.7783 C   0  0  0  0  0  0  0  0  0  0  0  0
   22.1328  -21.1783  -15.5069 C   0  0  1  0  0  0  0  0  0  0  0  0
   21.9914  -22.5672  -15.4025 O   0  0  0  0  0  0  0  0  0  0  0  0
   22.8654  -20.6233  -14.3063 C   0  0  2  0  0  0  0  0  0  0  0  0
   24.1583  -21.2489  -14.1370 N   0  0  0  0  0  0  0  0  0  0  0  0
   22.0756  -20.8077  -13.0615 C   0  0  0  0  0  0  0  0  0  0  0  0
   20.8668  -20.1467  -12.9279 O   0  0  0  0  0  0  0  0  0  0  0  0
   22.4877  -21.5471  -12.1418 O   0  0  0  0  0  0  0  0  0  0  0  0
  2  1  1  6
  2  3  1  0
  4  3  1  0
  4  5  1  0
  6  5  1  0
  6  7  1  0
  8  2  1  0
  9  8  2  0
 10 11  1  0
 11 12  2  0
 12 13  1  0
 14 15  1  0
 14 13  2  0
 16 15  1  1
 16 17  1  0
 17  8  1  0
 18 16  1  0
 18 19  2  0
 20 14  1  0
 21 20  2  0
 21 11  1  0
 23 22  1  6
 23 25  1  0
 24 23  1  0
 25 26  1  1
 25 27  1  0
 26 18  1  0
 27 28  1  0
 29 27  2  0
M  END
$$$$
