KYT.pdb
     RDKit          3D

 29 29  0  0  1  0  0  0  0  0999 V2000
   20.8038  -11.2337  -17.0723 N   0  0  0  0  0  0  0  0  0  0  0  0
   20.4023  -10.1957  -17.9551 C   0  0  1  0  0  0  0  0  0  0  0  0
   18.9615  -10.4706  -18.4273 C   0  0  0  0  0  0  0  0  0  0  0  0
   19.0630  -11.4945  -19.5008 C   0  0  0  0  0  0  0  0  0  0  0  0
   18.9384  -12.9157  -19.0952 C   0  0  0  0  0  0  0  0  0  0  0  0
   18.9784  -13.8915  -20.2299 C   0  0  0  0  0  0  0  0  0  0  0  0
   18.8208  -15.2629  -19.8777 N   0  0  0  0  0  0  0  0  0  0  0  0
   20.3964   -8.8362  -17.3621 C   0  0  0  0  0  0  0  0  0  0  0  0
   19.3059   -8.3319  -16.9362 O   0  0  0  0  0  0  0  0  0  0  0  0
   20.0689   -9.4727  -10.9154 O   0  0  0  0  0  0  0  0  0  0  0  0
   20.6494   -8.8146  -12.0060 C   0  0  0  0  0  0  0  0  0  0  0  0
   21.7558   -9.3218  -12.6541 C   0  0  0  0  0  0  0  0  0  0  0  0
   22.2723   -8.6244  -13.7153 C   0  0  0  0  0  0  0  0  0  0  0  0
   21.7434   -7.4371  -14.1726 C   0  0  0  0  0  0  0  0  0  0  0  0
   22.2964   -6.6820  -15.3104 C   0  0  0  0  0  0  0  0  0  0  0  0
   21.4737   -6.7086  -16.5501 C   0  0  2  0  0  0  0  0  0  0  0  0
   21.5356   -8.0060  -17.2164 N   0  0  0  0  0  0  0  0  0  0  0  0
   21.8614   -5.6191  -17.4669 C   0  0  0  0  0  0  0  0  0  0  0  0
   22.9290   -5.7117  -18.1119 O   0  0  0  0  0  0  0  0  0  0  0  0
   20.6354   -6.9605  -13.4982 C   0  0  0  0  0  0  0  0  0  0  0  0
   20.0822   -7.6278  -12.4263 C   0  0  0  0  0  0  0  0  0  0  0  0
   20.2843   -4.2979  -20.5928 C   0  0  0  0  0  0  0  0  0  0  0  0
   20.3251   -3.1967  -19.5761 C   0  0  1  0  0  0  0  0  0  0  0  0
   19.0785   -3.0703  -18.9518 O   0  0  0  0  0  0  0  0  0  0  0  0
   21.4122   -3.4452  -18.5549 C   0  0  2  0  0  0  0  0  0  0  0  0
   21.0333   -4.4781  -17.6162 N   0  0  0  0  0  0  0  0  0  0  0  0
   21.7359   -2.2063  -17.8015 C   0  0  0  0  0  0  0  0  0  0  0  0
   22.3369   -1.1520  -18.4673 O   0  0  0  0  0  0  0  0  0  0  0  0
   21.4735   -2.1070  -16.5834 O   0  0  0  0  0  0  0  0  0  0  0  0
  2  1  1  1
  2  3  1  0
  4  3  1  0
  4  5  1  0
  6  5  1  0
  6  7  1  0
  8  2  1  0
  9  8  2  0
 10 11  1  0
 11 12  2  0
 12 13  1  0
 14 15  1  0
 14 13  2  0
 16 15  1  1
 16 17  1  0
 17  8  1  0
 18 16  1  0
 18 19  2  0
 20 14  1  0
 21 20  2  0
 21 11  1  0
 23 22  1  6
 23 25  1  0
 24 23  1  0
 25 26  1  1
 25 27  1  0
 26 18  1  0
 27 28  1  0
 29 27  2  0
M  END
$$$$
