APC.pdb
     RDKit          3D

 19 19  0  0  1  0  0  0  0  0999 V2000
   21.3026  -11.6047  -19.2329 C   0  0  0  0  0  0  0  0  0  0  0  0
   21.0175  -12.2556  -17.9214 C   0  0  2  0  0  0  0  0  0  0  0  0
   19.7270  -12.8888  -17.9721 N   0  0  0  0  0  0  0  0  0  0  0  0
   21.0841  -11.3087  -16.7762 C   0  0  0  0  0  0  0  0  0  0  0  0
   20.1074  -10.5464  -16.5588 O   0  0  0  0  0  0  0  0  0  0  0  0
   22.1972  -11.2176  -15.9092 N   0  0  0  0  0  0  0  0  0  0  0  0
   23.2634  -12.2224  -15.9247 C   0  0  0  0  0  0  0  0  0  0  0  0
   23.9378  -12.0385  -14.5612 C   0  0  0  0  0  0  0  0  0  0  0  0
   23.8999  -10.5305  -14.4832 C   0  0  0  0  0  0  0  0  0  0  0  0
   22.4881  -10.2402  -14.9329 C   0  0  1  0  0  0  0  0  0  0  0  0
   22.3367   -8.8350  -15.3720 C   0  0  0  0  0  0  0  0  0  0  0  0
   22.6490   -8.5078  -16.5209 O   0  0  0  0  0  0  0  0  0  0  0  0
   21.8266   -7.8989  -14.4317 N   0  0  0  0  0  0  0  0  0  0  0  0
   21.7019   -6.4853  -14.7309 C   0  0  1  0  0  0  0  0  0  0  0  0
   20.2239   -6.2534  -15.0688 C   0  0  0  0  0  0  0  0  0  0  0  0
   20.0208   -4.4907  -15.3778 S   0  0  0  0  0  0  0  0  0  0  0  0
   22.1321   -5.6243  -13.6380 C   0  0  0  0  0  0  0  0  0  0  0  0
   22.8139   -4.4512  -13.8810 O   0  0  0  0  0  0  0  0  0  0  0  0
   21.8866   -5.9404  -12.4547 O   0  0  0  0  0  0  0  0  0  0  0  0
  2  1  1  6
  2  3  1  0
  4  5  2  0
  4  2  1  0
  6  4  1  0
  7  6  1  0
  8  7  1  0
  9  8  1  0
  9 10  1  0
 10  6  1  0
 10 11  1  6
 11 12  2  0
 13 11  1  0
 13 14  1  0
 14 15  1  1
 16 15  1  0
 17 14  1  0
 17 18  1  0
 19 17  2  0
M  END
$$$$
