APC.pdb
     RDKit          3D

 19 19  0  0  1  0  0  0  0  0999 V2000
   26.4052  -16.3881  -15.8662 C   0  0  0  0  0  0  0  0  0  0  0  0
   26.6557  -17.7495  -16.4218 C   0  0  2  0  0  0  0  0  0  0  0  0
   25.8874  -17.9239  -17.6252 N   0  0  0  0  0  0  0  0  0  0  0  0
   26.3531  -18.8371  -15.4531 C   0  0  0  0  0  0  0  0  0  0  0  0
   25.1576  -19.1929  -15.2912 O   0  0  0  0  0  0  0  0  0  0  0  0
   27.3466  -19.4998  -14.6962 N   0  0  0  0  0  0  0  0  0  0  0  0
   28.7696  -19.3669  -15.0184 C   0  0  0  0  0  0  0  0  0  0  0  0
   29.3986  -20.5857  -14.3355 C   0  0  0  0  0  0  0  0  0  0  0  0
   28.5933  -20.5791  -13.0576 C   0  0  0  0  0  0  0  0  0  0  0  0
   27.1957  -20.3542  -13.5826 C   0  0  1  0  0  0  0  0  0  0  0  0
   26.2896  -19.8636  -12.5201 C   0  0  0  0  0  0  0  0  0  0  0  0
   26.2803  -18.6665  -12.2177 O   0  0  0  0  0  0  0  0  0  0  0  0
   25.4484  -20.8122  -11.8773 N   0  0  0  0  0  0  0  0  0  0  0  0
   24.7040  -20.5009  -10.6722 C   0  0  1  0  0  0  0  0  0  0  0  0
   23.2842  -21.0329  -10.9029 C   0  0  0  0  0  0  0  0  0  0  0  0
   22.3374  -20.6816   -9.4115 S   0  0  0  0  0  0  0  0  0  0  0  0
   25.2901  -21.0732   -9.4682 C   0  0  0  0  0  0  0  0  0  0  0  0
   25.3654  -20.3483   -8.2982 O   0  0  0  0  0  0  0  0  0  0  0  0
   25.7367  -22.2398   -9.4799 O   0  0  0  0  0  0  0  0  0  0  0  0
  2  1  1  1
  2  3  1  0
  4  5  2  0
  4  2  1  0
  6  4  1  0
  7  6  1  0
  8  7  1  0
  9  8  1  0
  9 10  1  0
 10  6  1  0
 10 11  1  1
 11 12  2  0
 13 11  1  0
 13 14  1  0
 14 15  1  6
 16 15  1  0
 17 14  1  0
 17 18  1  0
 19 17  2  0
M  END
$$$$
