APC.pdb
     RDKit          3D

 19 19  0  0  1  0  0  0  0  0999 V2000
   23.9578  -13.1564  -19.3101 C   0  0  0  0  0  0  0  0  0  0  0  0
   24.2272  -13.4514  -17.8730 C   0  0  2  0  0  0  0  0  0  0  0  0
   23.4487  -14.5897  -17.4642 N   0  0  0  0  0  0  0  0  0  0  0  0
   23.9559  -12.2923  -16.9812 C   0  0  0  0  0  0  0  0  0  0  0  0
   22.7728  -12.0674  -16.6179 O   0  0  0  0  0  0  0  0  0  0  0  0
   24.9660  -11.4200  -16.5143 N   0  0  0  0  0  0  0  0  0  0  0  0
   26.3869  -11.7342  -16.6844 C   0  0  0  0  0  0  0  0  0  0  0  0
   27.0689  -10.8508  -15.6346 C   0  0  0  0  0  0  0  0  0  0  0  0
   26.2293   -9.6056  -15.7957 C   0  0  0  0  0  0  0  0  0  0  0  0
   24.8358  -10.1850  -15.8429 C   0  0  1  0  0  0  0  0  0  0  0  0
   23.8724   -9.2329  -16.4395 C   0  0  0  0  0  0  0  0  0  0  0  0
   23.7338   -9.1779  -17.6652 O   0  0  0  0  0  0  0  0  0  0  0  0
   23.1297   -8.4024  -15.5567 N   0  0  0  0  0  0  0  0  0  0  0  0
   22.1840   -7.4111  -16.0327 C   0  0  1  0  0  0  0  0  0  0  0  0
   21.0679   -7.3530  -14.9824 C   0  0  0  0  0  0  0  0  0  0  0  0
   20.2900   -8.9770  -14.9449 S   0  0  0  0  0  0  0  0  0  0  0  0
   22.7796   -6.0983  -16.2394 C   0  0  0  0  0  0  0  0  0  0  0  0
   22.0995   -5.1049  -16.9105 O   0  0  0  0  0  0  0  0  0  0  0  0
   23.9256   -5.8529  -15.8071 O   0  0  0  0  0  0  0  0  0  0  0  0
  2  1  1  6
  2  3  1  0
  4  5  2  0
  4  2  1  0
  6  4  1  0
  7  6  1  0
  8  7  1  0
  9  8  1  0
  9 10  1  0
 10  6  1  0
 10 11  1  6
 11 12  2  0
 13 11  1  0
 13 14  1  0
 14 15  1  1
 16 15  1  0
 17 14  1  0
 17 18  1  0
 19 17  2  0
M  END
$$$$
