APC.pdb
     RDKit          3D

 19 19  0  0  1  0  0  0  0  0999 V2000
   21.0899  -11.6808  -18.9221 C   0  0  0  0  0  0  0  0  0  0  0  0
   20.5496  -12.0433  -17.5798 C   0  0  2  0  0  0  0  0  0  0  0  0
   19.1718  -12.4357  -17.7088 N   0  0  0  0  0  0  0  0  0  0  0  0
   20.6837  -10.9466  -16.5839 C   0  0  0  0  0  0  0  0  0  0  0  0
   19.8551  -10.0005  -16.6049 O   0  0  0  0  0  0  0  0  0  0  0  0
   21.7026  -10.9091  -15.6044 N   0  0  0  0  0  0  0  0  0  0  0  0
   22.5667  -12.0656  -15.3546 C   0  0  0  0  0  0  0  0  0  0  0  0
   23.1233  -11.7908  -13.9537 C   0  0  0  0  0  0  0  0  0  0  0  0
   23.3496  -10.3027  -14.0799 C   0  0  0  0  0  0  0  0  0  0  0  0
   22.0652   -9.8565  -14.7364 C   0  0  1  0  0  0  0  0  0  0  0  0
   22.2138   -8.5281  -15.3718 C   0  0  0  0  0  0  0  0  0  0  0  0
   22.5374   -8.4424  -16.5603 O   0  0  0  0  0  0  0  0  0  0  0  0
   21.9725   -7.3798  -14.5694 N   0  0  0  0  0  0  0  0  0  0  0  0
   22.0774   -6.0306  -15.0909 C   0  0  1  0  0  0  0  0  0  0  0  0
   20.7803   -5.7758  -15.8687 C   0  0  0  0  0  0  0  0  0  0  0  0
   20.7994   -4.0491  -16.3805 S   0  0  0  0  0  0  0  0  0  0  0  0
   22.2749   -5.0257  -14.0555 C   0  0  0  0  0  0  0  0  0  0  0  0
   23.0258   -3.8947  -14.2940 O   0  0  0  0  0  0  0  0  0  0  0  0
   21.7614   -5.1769  -12.9268 O   0  0  0  0  0  0  0  0  0  0  0  0
  2  1  1  6
  2  3  1  0
  4  5  2  0
  4  2  1  0
  6  4  1  0
  7  6  1  0
  8  7  1  0
  9  8  1  0
  9 10  1  0
 10  6  1  0
 10 11  1  6
 11 12  2  0
 13 11  1  0
 13 14  1  0
 14 15  1  1
 16 15  1  0
 17 14  1  0
 17 18  1  0
 19 17  2  0
M  END
$$$$
