APC.pdb
     RDKit          3D

 19 19  0  0  1  0  0  0  0  0999 V2000
   23.3228  -19.4635  -17.2922 C   0  0  0  0  0  0  0  0  0  0  0  0
   24.5288  -20.2972  -17.5669 C   0  0  2  0  0  0  0  0  0  0  0  0
   24.1675  -21.3927  -18.4262 N   0  0  0  0  0  0  0  0  0  0  0  0
   25.1790  -20.8040  -16.3288 C   0  0  0  0  0  0  0  0  0  0  0  0
   24.8311  -21.9235  -15.8729 O   0  0  0  0  0  0  0  0  0  0  0  0
   26.1776  -20.0885  -15.6288 N   0  0  0  0  0  0  0  0  0  0  0  0
   26.8281  -18.9129  -16.2131 C   0  0  0  0  0  0  0  0  0  0  0  0
   28.1207  -18.7875  -15.4000 C   0  0  0  0  0  0  0  0  0  0  0  0
   27.5722  -19.1299  -14.0349 C   0  0  0  0  0  0  0  0  0  0  0  0
   26.7155  -20.3334  -14.3468 C   0  0  1  0  0  0  0  0  0  0  0  0
   25.7246  -20.5860  -13.2768 C   0  0  0  0  0  0  0  0  0  0  0  0
   24.5519  -20.2275  -13.4211 O   0  0  0  0  0  0  0  0  0  0  0  0
   26.1741  -21.2456  -12.1006 N   0  0  0  0  0  0  0  0  0  0  0  0
   25.2977  -21.5151  -10.9769 C   0  0  1  0  0  0  0  0  0  0  0  0
   26.2055  -21.9984   -9.8391 C   0  0  0  0  0  0  0  0  0  0  0  0
   27.0369  -20.5469   -9.1712 S   0  0  0  0  0  0  0  0  0  0  0  0
   24.5127  -20.3589  -10.5675 C   0  0  0  0  0  0  0  0  0  0  0  0
   23.3081  -20.5103   -9.9147 O   0  0  0  0  0  0  0  0  0  0  0  0
   24.9244  -19.2037  -10.8048 O   0  0  0  0  0  0  0  0  0  0  0  0
  2  1  1  1
  2  3  1  0
  4  5  2  0
  4  2  1  0
  6  4  1  0
  7  6  1  0
  8  7  1  0
  9  8  1  0
  9 10  1  0
 10  6  1  0
 10 11  1  1
 11 12  2  0
 13 11  1  0
 13 14  1  0
 14 15  1  1
 16 15  1  0
 17 14  1  0
 17 18  1  0
 19 17  2  0
M  END
$$$$
