APC.pdb
     RDKit          3D

 19 19  0  0  1  0  0  0  0  0999 V2000
   21.7958  -10.2270  -20.4780 C   0  0  0  0  0  0  0  0  0  0  0  0
   22.6296  -10.7603  -19.3621 C   0  0  2  0  0  0  0  0  0  0  0  0
   22.1281  -12.0481  -18.9634 N   0  0  0  0  0  0  0  0  0  0  0  0
   22.6892   -9.8439  -18.1920 C   0  0  0  0  0  0  0  0  0  0  0  0
   21.7061   -9.7915  -17.4090 O   0  0  0  0  0  0  0  0  0  0  0  0
   23.8023   -9.0195  -17.9087 N   0  0  0  0  0  0  0  0  0  0  0  0
   25.0449   -9.1206  -18.6784 C   0  0  0  0  0  0  0  0  0  0  0  0
   26.0826   -8.4744  -17.7547 C   0  0  0  0  0  0  0  0  0  0  0  0
   25.2479   -7.3301  -17.2297 C   0  0  0  0  0  0  0  0  0  0  0  0
   23.9450   -8.0258  -16.9161 C   0  0  1  0  0  0  0  0  0  0  0  0
   22.8266   -7.0619  -16.8129 C   0  0  0  0  0  0  0  0  0  0  0  0
   22.2237   -6.7013  -17.8282 O   0  0  0  0  0  0  0  0  0  0  0  0
   22.4851   -6.5803  -15.5198 N   0  0  0  0  0  0  0  0  0  0  0  0
   21.5308   -5.5073  -15.3166 C   0  0  1  0  0  0  0  0  0  0  0  0
   20.5625   -6.0019  -14.2348 C   0  0  0  0  0  0  0  0  0  0  0  0
   19.3744   -4.6802  -13.9422 S   0  0  0  0  0  0  0  0  0  0  0  0
   22.1521   -4.2484  -14.9295 C   0  0  0  0  0  0  0  0  0  0  0  0
   23.2286   -4.2198  -14.0690 O   0  0  0  0  0  0  0  0  0  0  0  0
   21.7137   -3.1675  -15.3765 O   0  0  0  0  0  0  0  0  0  0  0  0
  2  1  1  6
  2  3  1  0
  4  5  2  0
  4  2  1  0
  6  4  1  0
  7  6  1  0
  8  7  1  0
  9  8  1  0
  9 10  1  0
 10  6  1  0
 10 11  1  6
 11 12  2  0
 13 11  1  0
 13 14  1  0
 14 15  1  1
 16 15  1  0
 17 14  1  0
 17 18  1  0
 19 17  2  0
M  END
$$$$
