APC.pdb
     RDKit          3D

 19 19  0  0  1  0  0  0  0  0999 V2000
   19.8934   -9.9768  -18.6245 C   0  0  0  0  0  0  0  0  0  0  0  0
   20.6221  -10.2720  -17.3569 C   0  0  2  0  0  0  0  0  0  0  0  0
   19.9391  -11.3189  -16.6452 N   0  0  0  0  0  0  0  0  0  0  0  0
   20.7834   -9.0759  -16.4875 C   0  0  0  0  0  0  0  0  0  0  0  0
   19.8327   -8.7358  -15.7373 O   0  0  0  0  0  0  0  0  0  0  0  0
   21.9597   -8.2920  -16.4578 N   0  0  0  0  0  0  0  0  0  0  0  0
   23.1841   -8.7236  -17.1368 C   0  0  0  0  0  0  0  0  0  0  0  0
   24.2766   -7.9022  -16.4444 C   0  0  0  0  0  0  0  0  0  0  0  0
   23.5379   -6.5908  -16.3172 C   0  0  0  0  0  0  0  0  0  0  0  0
   22.1875   -7.0516  -15.8233 C   0  0  1  0  0  0  0  0  0  0  0  0
   21.1484   -6.0213  -16.0449 C   0  0  0  0  0  0  0  0  0  0  0  0
   20.5200   -5.9934  -17.1074 O   0  0  0  0  0  0  0  0  0  0  0  0
   20.9113   -5.0852  -15.0017 N   0  0  0  0  0  0  0  0  0  0  0  0
   20.0409   -3.9373  -15.1699 C   0  0  1  0  0  0  0  0  0  0  0  0
   19.0607   -3.9736  -13.9908 C   0  0  0  0  0  0  0  0  0  0  0  0
   17.9900   -2.5338  -14.1469 S   0  0  0  0  0  0  0  0  0  0  0  0
   20.7589   -2.6712  -15.2172 C   0  0  0  0  0  0  0  0  0  0  0  0
   20.4186   -1.6926  -16.1263 O   0  0  0  0  0  0  0  0  0  0  0  0
   21.7015   -2.4532  -14.4270 O   0  0  0  0  0  0  0  0  0  0  0  0
  2  1  1  6
  2  3  1  0
  4  5  2  0
  4  2  1  0
  6  4  1  0
  7  6  1  0
  8  7  1  0
  9  8  1  0
  9 10  1  0
 10  6  1  0
 10 11  1  6
 11 12  2  0
 13 11  1  0
 13 14  1  0
 14 15  1  1
 16 15  1  0
 17 14  1  0
 17 18  1  0
 19 17  2  0
M  END
$$$$
