APC.pdb
     RDKit          3D

 19 19  0  0  1  0  0  0  0  0999 V2000
   25.3908  -12.8525  -20.0080 C   0  0  0  0  0  0  0  0  0  0  0  0
   25.1711  -13.2951  -18.6006 C   0  0  2  0  0  0  0  0  0  0  0  0
   24.2141  -14.3688  -18.5806 N   0  0  0  0  0  0  0  0  0  0  0  0
   24.7286  -12.1915  -17.7069 C   0  0  0  0  0  0  0  0  0  0  0  0
   23.5134  -11.8669  -17.6960 O   0  0  0  0  0  0  0  0  0  0  0  0
   25.6087  -11.4796  -16.8597 N   0  0  0  0  0  0  0  0  0  0  0  0
   26.9802  -11.9374  -16.6229 C   0  0  0  0  0  0  0  0  0  0  0  0
   27.3677  -11.2248  -15.3231 C   0  0  0  0  0  0  0  0  0  0  0  0
   26.7265   -9.8837  -15.5915 C   0  0  0  0  0  0  0  0  0  0  0  0
   25.3759  -10.2963  -16.1257 C   0  0  1  0  0  0  0  0  0  0  0  0
   24.7305   -9.1963  -16.8766 C   0  0  0  0  0  0  0  0  0  0  0  0
   25.0684   -8.9587  -18.0402 O   0  0  0  0  0  0  0  0  0  0  0  0
   23.7255   -8.4419  -16.2123 N   0  0  0  0  0  0  0  0  0  0  0  0
   22.9982   -7.3704  -16.8652 C   0  0  1  0  0  0  0  0  0  0  0  0
   22.1503   -8.0378  -17.9552 C   0  0  0  0  0  0  0  0  0  0  0  0
   21.1515   -6.7460  -18.7153 S   0  0  0  0  0  0  0  0  0  0  0  0
   22.1669   -6.5978  -15.9526 C   0  0  0  0  0  0  0  0  0  0  0  0
   21.4039   -7.2171  -14.9861 O   0  0  0  0  0  0  0  0  0  0  0  0
   22.1341   -5.3517  -16.0344 O   0  0  0  0  0  0  0  0  0  0  0  0
  2  1  1  6
  2  3  1  0
  4  5  2  0
  4  2  1  0
  6  4  1  0
  7  6  1  0
  8  7  1  0
  9  8  1  0
  9 10  1  0
 10  6  1  0
 10 11  1  6
 11 12  2  0
 13 11  1  0
 13 14  1  0
 14 15  1  6
 16 15  1  0
 17 14  1  0
 17 18  1  0
 19 17  2  0
M  END
$$$$
