APC.pdb
     RDKit          3D

 19 19  0  0  1  0  0  0  0  0999 V2000
   15.5636  -29.4038   -3.6539 C   0  0  0  0  0  0  0  0  0  0  0  0
   16.8145  -28.6447   -3.3642 C   0  0  2  0  0  0  0  0  0  0  0  0
   17.4643  -29.2143   -2.2143 N   0  0  0  0  0  0  0  0  0  0  0  0
   16.5771  -27.1911   -3.1568 C   0  0  0  0  0  0  0  0  0  0  0  0
   16.3778  -26.7672   -1.9893 O   0  0  0  0  0  0  0  0  0  0  0  0
   16.5632  -26.2494   -4.2114 N   0  0  0  0  0  0  0  0  0  0  0  0
   16.9507  -26.6215   -5.5745 C   0  0  0  0  0  0  0  0  0  0  0  0
   17.2820  -25.2742   -6.2245 C   0  0  0  0  0  0  0  0  0  0  0  0
   16.1707  -24.4456   -5.6244 C   0  0  0  0  0  0  0  0  0  0  0  0
   16.2154  -24.8816   -4.1795 C   0  0  1  0  0  0  0  0  0  0  0  0
   14.9531  -24.5605   -3.4768 C   0  0  0  0  0  0  0  0  0  0  0  0
   13.9820  -25.3174   -3.5701 O   0  0  0  0  0  0  0  0  0  0  0  0
   14.9098  -23.3669   -2.7059 N   0  0  0  0  0  0  0  0  0  0  0  0
   13.7043  -22.9164   -2.0371 C   0  0  1  0  0  0  0  0  0  0  0  0
   14.1110  -22.6173   -0.5888 C   0  0  0  0  0  0  0  0  0  0  0  0
   15.5843  -23.5928   -0.2395 S   0  0  0  0  0  0  0  0  0  0  0  0
   13.0984  -21.7500   -2.6640 C   0  0  0  0  0  0  0  0  0  0  0  0
   13.6931  -21.1311   -3.7426 O   0  0  0  0  0  0  0  0  0  0  0  0
   12.0216  -21.2905   -2.2285 O   0  0  0  0  0  0  0  0  0  0  0  0
  2  1  1  1
  2  3  1  0
  4  5  2  0
  4  2  1  0
  6  4  1  0
  7  6  1  0
  8  7  1  0
  9  8  1  0
  9 10  1  0
 10  6  1  0
 10 11  1  6
 11 12  2  0
 13 11  1  0
 13 14  1  0
 14 15  1  1
 16 15  1  0
 17 14  1  0
 17 18  1  0
 19 17  2  0
M  END
$$$$
