APC.pdb
     RDKit          3D

 19 19  0  0  1  0  0  0  0  0999 V2000
   17.9998  -12.3695  -18.5962 C   0  0  0  0  0  0  0  0  0  0  0  0
   19.4277  -12.6956  -18.3143 C   0  0  2  0  0  0  0  0  0  0  0  0
   19.4948  -13.8456  -17.4529 N   0  0  0  0  0  0  0  0  0  0  0  0
   20.1766  -11.5577  -17.7168 C   0  0  0  0  0  0  0  0  0  0  0  0
   20.1977  -11.4330  -16.4653 O   0  0  0  0  0  0  0  0  0  0  0  0
   20.8734  -10.5983  -18.4868 N   0  0  0  0  0  0  0  0  0  0  0  0
   21.0165  -10.7396  -19.9381 C   0  0  0  0  0  0  0  0  0  0  0  0
   22.2091   -9.8340  -20.2622 C   0  0  0  0  0  0  0  0  0  0  0  0
   21.8910   -8.6868  -19.3324 C   0  0  0  0  0  0  0  0  0  0  0  0
   21.5241   -9.4190  -18.0640 C   0  0  1  0  0  0  0  0  0  0  0  0
   20.7481   -8.5567  -17.1450 C   0  0  0  0  0  0  0  0  0  0  0  0
   19.5253   -8.4501  -17.2795 O   0  0  0  0  0  0  0  0  0  0  0  0
   21.4586   -7.8712  -16.1223 N   0  0  0  0  0  0  0  0  0  0  0  0
   20.8016   -6.9919  -15.1743 C   0  0  1  0  0  0  0  0  0  0  0  0
   21.6434   -7.0465  -13.8934 C   0  0  0  0  0  0  0  0  0  0  0  0
   21.3209   -8.6381  -13.1144 S   0  0  0  0  0  0  0  0  0  0  0  0
   20.6652   -5.6241  -15.6551 C   0  0  0  0  0  0  0  0  0  0  0  0
   19.6509   -4.8075  -15.2030 O   0  0  0  0  0  0  0  0  0  0  0  0
   21.4733   -5.1683  -16.4917 O   0  0  0  0  0  0  0  0  0  0  0  0
  2  1  1  1
  2  3  1  0
  4  5  2  0
  4  2  1  0
  6  4  1  0
  7  6  1  0
  8  7  1  0
  9  8  1  0
  9 10  1  0
 10  6  1  0
 10 11  1  1
 11 12  2  0
 13 11  1  0
 13 14  1  0
 14 15  1  1
 16 15  1  0
 17 14  1  0
 17 18  1  0
 19 17  2  0
M  END
$$$$
