APC.pdb
     RDKit          3D

 19 19  0  0  1  0  0  0  0  0999 V2000
   30.0420  -26.3435  -16.1813 C   0  0  0  0  0  0  0  0  0  0  0  0
   30.6472  -25.0145  -16.4856 C   0  0  2  0  0  0  0  0  0  0  0  0
   29.6028  -24.0662  -16.7665 N   0  0  0  0  0  0  0  0  0  0  0  0
   31.6185  -25.0624  -17.6111 C   0  0  0  0  0  0  0  0  0  0  0  0
   31.1992  -24.8919  -18.7848 O   0  0  0  0  0  0  0  0  0  0  0  0
   33.0021  -25.2916  -17.4321 N   0  0  0  0  0  0  0  0  0  0  0  0
   33.6041  -25.3345  -16.0970 C   0  0  0  0  0  0  0  0  0  0  0  0
   35.0902  -25.0858  -16.3748 C   0  0  0  0  0  0  0  0  0  0  0  0
   35.2341  -25.9102  -17.6323 C   0  0  0  0  0  0  0  0  0  0  0  0
   34.0037  -25.4995  -18.4050 C   0  0  1  0  0  0  0  0  0  0  0  0
   33.6731  -26.4825  -19.4610 C   0  0  0  0  0  0  0  0  0  0  0  0
   32.9719  -27.4637  -19.1965 O   0  0  0  0  0  0  0  0  0  0  0  0
   34.1883  -26.2510  -20.7655 N   0  0  0  0  0  0  0  0  0  0  0  0
   33.8986  -27.1288  -21.8831 C   0  0  1  0  0  0  0  0  0  0  0  0
   33.3478  -26.2286  -22.9960 C   0  0  0  0  0  0  0  0  0  0  0  0
   31.6550  -25.8070  -22.5479 S   0  0  0  0  0  0  0  0  0  0  0  0
   35.0584  -27.8808  -22.3415 C   0  0  0  0  0  0  0  0  0  0  0  0
   34.9156  -29.1054  -22.9579 O   0  0  0  0  0  0  0  0  0  0  0  0
   36.2089  -27.4216  -22.1808 O   0  0  0  0  0  0  0  0  0  0  0  0
  2  1  1  6
  2  3  1  0
  4  5  2  0
  4  2  1  0
  6  4  1  0
  7  6  1  0
  8  7  1  0
  9  8  1  0
  9 10  1  0
 10  6  1  0
 10 11  1  6
 11 12  2  0
 13 11  1  0
 13 14  1  0
 14 15  1  6
 16 15  1  0
 17 14  1  0
 17 18  1  0
 19 17  2  0
M  END
$$$$
