APC.pdb
     RDKit          3D

 19 19  0  0  1  0  0  0  0  0999 V2000
   27.5183  -18.1273  -15.1065 C   0  0  0  0  0  0  0  0  0  0  0  0
   27.6261  -19.6143  -15.1523 C   0  0  2  0  0  0  0  0  0  0  0  0
   27.9296  -20.0308  -16.4952 N   0  0  0  0  0  0  0  0  0  0  0  0
   26.4009  -20.3010  -14.6624 C   0  0  0  0  0  0  0  0  0  0  0  0
   25.4925  -20.5856  -15.4846 O   0  0  0  0  0  0  0  0  0  0  0  0
   26.1994  -20.6552  -13.3086 N   0  0  0  0  0  0  0  0  0  0  0  0
   27.2947  -20.6158  -12.3362 C   0  0  0  0  0  0  0  0  0  0  0  0
   26.7946  -21.5244  -11.2084 C   0  0  0  0  0  0  0  0  0  0  0  0
   25.3445  -21.1017  -11.1933 C   0  0  0  0  0  0  0  0  0  0  0  0
   25.0185  -21.0883  -12.6675 C   0  0  1  0  0  0  0  0  0  0  0  0
   23.8084  -20.2837  -12.9482 C   0  0  0  0  0  0  0  0  0  0  0  0
   23.8707  -19.0505  -12.9490 O   0  0  0  0  0  0  0  0  0  0  0  0
   22.5971  -20.9796  -13.2112 N   0  0  0  0  0  0  0  0  0  0  0  0
   21.3580  -20.2935  -13.5229 C   0  0  1  0  0  0  0  0  0  0  0  0
   21.4444  -19.9182  -15.0074 C   0  0  0  0  0  0  0  0  0  0  0  0
   19.8791  -19.1454  -15.4509 S   0  0  0  0  0  0  0  0  0  0  0  0
   20.1717  -21.0935  -13.2516 C   0  0  0  0  0  0  0  0  0  0  0  0
   20.1326  -22.4368  -13.5583 O   0  0  0  0  0  0  0  0  0  0  0  0
   19.1644  -20.5680  -12.7324 O   0  0  0  0  0  0  0  0  0  0  0  0
  2  1  1  6
  2  3  1  0
  4  5  2  0
  4  2  1  0
  6  4  1  0
  7  6  1  0
  8  7  1  0
  9  8  1  0
  9 10  1  0
 10  6  1  0
 10 11  1  1
 11 12  2  0
 13 11  1  0
 13 14  1  0
 14 15  1  6
 16 15  1  0
 17 14  1  0
 17 18  1  0
 19 17  2  0
M  END
$$$$
