APC.pdb
     RDKit          3D

 19 19  0  0  1  0  0  0  0  0999 V2000
   16.7522   -8.8535  -16.6303 C   0  0  0  0  0  0  0  0  0  0  0  0
   17.4225   -9.9118  -15.8206 C   0  0  2  0  0  0  0  0  0  0  0  0
   16.4321  -10.8174  -15.3030 N   0  0  0  0  0  0  0  0  0  0  0  0
   18.2480   -9.3603  -14.7128 C   0  0  0  0  0  0  0  0  0  0  0  0
   17.6797   -9.0075  -13.6475 O   0  0  0  0  0  0  0  0  0  0  0  0
   19.6515   -9.2094  -14.7926 N   0  0  0  0  0  0  0  0  0  0  0  0
   20.4227   -9.7957  -15.8918 C   0  0  0  0  0  0  0  0  0  0  0  0
   21.8486   -9.8427  -15.3329 C   0  0  0  0  0  0  0  0  0  0  0  0
   21.8625   -8.5134  -14.6156 C   0  0  0  0  0  0  0  0  0  0  0  0
   20.5262   -8.5354  -13.9132 C   0  0  1  0  0  0  0  0  0  0  0  0
   20.1029   -7.1756  -13.5102 C   0  0  0  0  0  0  0  0  0  0  0  0
   19.4361   -6.4799  -14.2822 O   0  0  0  0  0  0  0  0  0  0  0  0
   20.4902   -6.7164  -12.2219 N   0  0  0  0  0  0  0  0  0  0  0  0
   20.2116   -5.3702  -11.7599 C   0  0  1  0  0  0  0  0  0  0  0  0
   20.1200   -5.4581  -10.2314 C   0  0  0  0  0  0  0  0  0  0  0  0
   18.7543   -6.5670   -9.8450 S   0  0  0  0  0  0  0  0  0  0  0  0
   21.2167   -4.3998  -12.1708 C   0  0  0  0  0  0  0  0  0  0  0  0
   20.9052   -3.0636  -12.3033 O   0  0  0  0  0  0  0  0  0  0  0  0
   22.3857   -4.7690  -12.4110 O   0  0  0  0  0  0  0  0  0  0  0  0
  2  1  1  1
  2  3  1  0
  4  5  2  0
  4  2  1  0
  6  4  1  0
  7  6  1  0
  8  7  1  0
  9  8  1  0
  9 10  1  0
 10  6  1  0
 10 11  1  6
 11 12  2  0
 13 11  1  0
 13 14  1  0
 14 15  1  1
 16 15  1  0
 17 14  1  0
 17 18  1  0
 19 17  2  0
M  END
$$$$
