FSF.pdb
     RDKit          3D

 29 30  0  0  1  0  0  0  0  0999 V2000
   26.2902  -22.0869   -8.1308 N   0  0  0  0  0  0  0  0  0  0  0  0
   25.8822  -20.8733   -8.8040 C   0  0  1  0  0  0  0  0  0  0  0  0
   27.0454  -19.9125   -8.9705 C   0  0  0  0  0  0  0  0  0  0  0  0
   27.4968  -19.5417   -7.6119 C   0  0  0  0  0  0  0  0  0  0  0  0
   26.8888  -18.5109   -6.9349 C   0  0  0  0  0  0  0  0  0  0  0  0
   27.2927  -18.1399   -5.6551 C   0  0  0  0  0  0  0  0  0  0  0  0
   28.3446  -18.8432   -5.0573 C   0  0  0  0  0  0  0  0  0  0  0  0
   28.9612  -19.8761   -5.7237 C   0  0  0  0  0  0  0  0  0  0  0  0
   28.5322  -20.2135   -6.9901 C   0  0  0  0  0  0  0  0  0  0  0  0
   25.2737  -21.1066  -10.1083 C   0  0  0  0  0  0  0  0  0  0  0  0
   25.9443  -21.6017  -11.0415 O   0  0  0  0  0  0  0  0  0  0  0  0
   21.5421  -19.7254  -10.6110 O   0  0  0  0  0  0  0  0  0  0  0  0
   21.7809  -20.8432  -11.4114 C   0  0  0  0  0  0  0  0  0  0  0  0
   23.2753  -20.9583  -11.5962 C   0  0  2  0  0  0  0  0  0  0  0  0
   23.9141  -20.7670  -10.3089 N   0  0  0  0  0  0  0  0  0  0  0  0
   23.7214  -19.9476  -12.5856 C   0  0  0  0  0  0  0  0  0  0  0  0
   24.0520  -18.7750  -12.2650 O   0  0  0  0  0  0  0  0  0  0  0  0
   23.7715  -20.3382  -13.9524 N   0  0  0  0  0  0  0  0  0  0  0  0
   24.2490  -19.4611  -14.9967 C   0  0  1  0  0  0  0  0  0  0  0  0
   25.4556  -20.1334  -15.6203 C   0  0  0  0  0  0  0  0  0  0  0  0
   26.6253  -19.9920  -14.7268 C   0  0  0  0  0  0  0  0  0  0  0  0
   26.9134  -20.9897  -13.8222 C   0  0  0  0  0  0  0  0  0  0  0  0
   28.0237  -20.8401  -12.9829 C   0  0  0  0  0  0  0  0  0  0  0  0
   28.8112  -19.7165  -13.0620 C   0  0  0  0  0  0  0  0  0  0  0  0
   28.5183  -18.7194  -13.9704 C   0  0  0  0  0  0  0  0  0  0  0  0
   27.4295  -18.8562  -14.7999 C   0  0  0  0  0  0  0  0  0  0  0  0
   23.1531  -19.2471  -15.9671 C   0  0  0  0  0  0  0  0  0  0  0  0
   23.1935  -18.2990  -16.9794 O   0  0  0  0  0  0  0  0  0  0  0  0
   22.1189  -19.9580  -15.8822 O   0  0  0  0  0  0  0  0  0  0  0  0
  2  1  1  6
  2 10  1  0
  2  3  1  0
  3  4  1  0
  4  9  2  0
  5  6  2  0
  5  4  1  0
  6  7  1  0
  7  8  2  0
  9  8  1  0
 10 11  2  0
 14 13  1  1
 13 12  1  0
 15 14  1  0
 15 10  1  0
 16 18  1  0
 16 14  1  0
 17 16  2  0
 19 18  1  0
 19 20  1  6
 21 20  1  0
 21 22  2  0
 23 22  1  0
 24 23  2  0
 25 26  2  0
 25 24  1  0
 26 21  1  0
 27 19  1  0
 28 27  1  0
 29 27  2  0
M  END
$$$$
