FSF.pdb
     RDKit          3D

 29 30  0  0  1  0  0  0  0  0999 V2000
   27.5196  -19.7871  -11.9689 N   0  0  0  0  0  0  0  0  0  0  0  0
   26.6191  -20.8909  -11.7177 C   0  0  1  0  0  0  0  0  0  0  0  0
   26.0939  -20.8665  -10.2939 C   0  0  0  0  0  0  0  0  0  0  0  0
   27.2690  -20.7624   -9.4020 C   0  0  0  0  0  0  0  0  0  0  0  0
   28.4529  -21.3758   -9.7382 C   0  0  0  0  0  0  0  0  0  0  0  0
   29.5752  -21.2949   -8.9181 C   0  0  0  0  0  0  0  0  0  0  0  0
   29.4795  -20.5678   -7.7262 C   0  0  0  0  0  0  0  0  0  0  0  0
   28.3014  -19.9497   -7.3784 C   0  0  0  0  0  0  0  0  0  0  0  0
   27.2118  -20.0531   -8.2173 C   0  0  0  0  0  0  0  0  0  0  0  0
   25.4878  -20.9410  -12.6361 C   0  0  0  0  0  0  0  0  0  0  0  0
   24.8291  -19.9074  -12.8877 O   0  0  0  0  0  0  0  0  0  0  0  0
   24.1133  -24.5924  -14.0119 O   0  0  0  0  0  0  0  0  0  0  0  0
   24.1880  -23.5644  -14.9525 C   0  0  0  0  0  0  0  0  0  0  0  0
   24.0629  -22.2570  -14.2069 C   0  0  2  0  0  0  0  0  0  0  0  0
   25.1414  -22.1728  -13.2417 N   0  0  0  0  0  0  0  0  0  0  0  0
   22.7340  -22.1974  -13.5512 C   0  0  0  0  0  0  0  0  0  0  0  0
   22.5312  -22.6047  -12.3764 O   0  0  0  0  0  0  0  0  0  0  0  0
   21.6526  -21.6529  -14.2978 N   0  0  0  0  0  0  0  0  0  0  0  0
   20.3244  -21.5020  -13.7490 C   0  0  1  0  0  0  0  0  0  0  0  0
   19.9519  -20.0398  -13.8907 C   0  0  0  0  0  0  0  0  0  0  0  0
   19.9890  -19.6494  -15.3165 C   0  0  0  0  0  0  0  0  0  0  0  0
   18.8455  -19.7482  -16.0776 C   0  0  0  0  0  0  0  0  0  0  0  0
   18.8976  -19.3754  -17.4259 C   0  0  0  0  0  0  0  0  0  0  0  0
   20.0703  -18.9190  -17.9783 C   0  0  0  0  0  0  0  0  0  0  0  0
   21.2138  -18.8217  -17.2112 C   0  0  0  0  0  0  0  0  0  0  0  0
   21.1737  -19.1854  -15.8852 C   0  0  0  0  0  0  0  0  0  0  0  0
   19.4070  -22.3962  -14.4886 C   0  0  0  0  0  0  0  0  0  0  0  0
   18.1068  -22.6691  -14.0883 O   0  0  0  0  0  0  0  0  0  0  0  0
   19.8149  -22.9482  -15.5427 O   0  0  0  0  0  0  0  0  0  0  0  0
  2  1  1  6
  2 10  1  0
  2  3  1  0
  3  4  1  0
  4  9  2  0
  5  6  2  0
  5  4  1  0
  6  7  1  0
  7  8  2  0
  9  8  1  0
 10 11  2  0
 14 13  1  1
 13 12  1  0
 15 14  1  0
 15 10  1  0
 16 18  1  0
 16 14  1  0
 17 16  2  0
 19 18  1  0
 19 20  1  6
 21 20  1  0
 21 22  2  0
 23 22  1  0
 24 23  2  0
 25 26  2  0
 25 24  1  0
 26 21  1  0
 27 19  1  0
 28 27  1  0
 29 27  2  0
M  END
$$$$
