FSF.pdb
     RDKit          3D

 29 30  0  0  1  0  0  0  0  0999 V2000
   23.1533    1.9073    0.0046 N   0  0  0  0  0  0  0  0  0  0  0  0
   23.9546    2.0765   -1.1878 C   0  0  1  0  0  0  0  0  0  0  0  0
   24.1593    0.7580   -1.9112 C   0  0  0  0  0  0  0  0  0  0  0  0
   24.7144   -0.1939   -0.9249 C   0  0  0  0  0  0  0  0  0  0  0  0
   23.9496   -1.2378   -0.4601 C   0  0  0  0  0  0  0  0  0  0  0  0
   24.4458   -2.1491    0.4684 C   0  0  0  0  0  0  0  0  0  0  0  0
   25.7568   -1.9846    0.9297 C   0  0  0  0  0  0  0  0  0  0  0  0
   26.5322   -0.9449    0.4728 C   0  0  0  0  0  0  0  0  0  0  0  0
   26.0045   -0.0632   -0.4469 C   0  0  0  0  0  0  0  0  0  0  0  0
   23.4056    3.0481   -2.1260 C   0  0  0  0  0  0  0  0  0  0  0  0
   22.4143    3.7437   -1.8111 O   0  0  0  0  0  0  0  0  0  0  0  0
   23.1508    6.5198   -4.5185 O   0  0  0  0  0  0  0  0  0  0  0  0
   23.6668    5.5632   -3.6435 C   0  0  0  0  0  0  0  0  0  0  0  0
   23.5586    4.2196   -4.3246 C   0  0  2  0  0  0  0  0  0  0  0  0
   24.0063    3.1974   -3.3992 N   0  0  0  0  0  0  0  0  0  0  0  0
   24.3759    4.2355   -5.5621 C   0  0  0  0  0  0  0  0  0  0  0  0
   25.6259    4.3931   -5.5550 O   0  0  0  0  0  0  0  0  0  0  0  0
   23.7008    4.0638   -6.8021 N   0  0  0  0  0  0  0  0  0  0  0  0
   24.4001    3.9556   -8.0620 C   0  0  1  0  0  0  0  0  0  0  0  0
   25.2388    2.6951   -7.9944 C   0  0  0  0  0  0  0  0  0  0  0  0
   25.9419    2.4918   -9.2792 C   0  0  0  0  0  0  0  0  0  0  0  0
   27.1539    3.1092   -9.4953 C   0  0  0  0  0  0  0  0  0  0  0  0
   27.8062    2.9071  -10.7173 C   0  0  0  0  0  0  0  0  0  0  0  0
   27.2452    2.1062  -11.6830 C   0  0  0  0  0  0  0  0  0  0  0  0
   26.0303    1.4896  -11.4616 C   0  0  0  0  0  0  0  0  0  0  0  0
   25.3807    1.6813  -10.2643 C   0  0  0  0  0  0  0  0  0  0  0  0
   23.4003    3.9149   -9.1515 C   0  0  0  0  0  0  0  0  0  0  0  0
   22.1563    3.3116   -9.0345 O   0  0  0  0  0  0  0  0  0  0  0  0
   23.6797    4.4541  -10.2530 O   0  0  0  0  0  0  0  0  0  0  0  0
  2  1  1  1
  2 10  1  0
  2  3  1  0
  3  4  1  0
  4  9  2  0
  5  6  2  0
  5  4  1  0
  6  7  1  0
  7  8  2  0
  9  8  1  0
 10 11  2  0
 14 13  1  1
 13 12  1  0
 15 14  1  0
 15 10  1  0
 16 18  1  0
 16 14  1  0
 17 16  2  0
 19 18  1  0
 19 20  1  1
 21 20  1  0
 21 22  2  0
 23 22  1  0
 24 23  2  0
 25 26  2  0
 25 24  1  0
 26 21  1  0
 27 19  1  0
 28 27  1  0
 29 27  2  0
M  END
$$$$
