FSF.pdb
     RDKit          3D

 29 30  0  0  1  0  0  0  0  0999 V2000
   16.8284  -26.6337  -10.5380 N   0  0  0  0  0  0  0  0  0  0  0  0
   17.6513  -27.3900   -9.6197 C   0  0  1  0  0  0  0  0  0  0  0  0
   18.9020  -26.6220   -9.2329 C   0  0  0  0  0  0  0  0  0  0  0  0
   19.7313  -26.5056  -10.4519 C   0  0  0  0  0  0  0  0  0  0  0  0
   20.5329  -27.5497  -10.8493 C   0  0  0  0  0  0  0  0  0  0  0  0
   21.3241  -27.4683  -11.9921 C   0  0  0  0  0  0  0  0  0  0  0  0
   21.2912  -26.2882  -12.7436 C   0  0  0  0  0  0  0  0  0  0  0  0
   20.4938  -25.2366  -12.3571 C   0  0  0  0  0  0  0  0  0  0  0  0
   19.7246  -25.3559  -11.2188 C   0  0  0  0  0  0  0  0  0  0  0  0
   16.9514  -27.7924   -8.4056 C   0  0  0  0  0  0  0  0  0  0  0  0
   16.2708  -26.9631   -7.7616 O   0  0  0  0  0  0  0  0  0  0  0  0
   17.8884  -31.4261   -6.9031 O   0  0  0  0  0  0  0  0  0  0  0  0
   16.5858  -31.0434   -6.5806 C   0  0  0  0  0  0  0  0  0  0  0  0
   16.5187  -29.5377   -6.6747 C   0  0  2  0  0  0  0  0  0  0  0  0
   17.0494  -29.1331   -7.9617 N   0  0  0  0  0  0  0  0  0  0  0  0
   17.2884  -28.9464   -5.5533 C   0  0  0  0  0  0  0  0  0  0  0  0
   18.5476  -28.9180   -5.5272 O   0  0  0  0  0  0  0  0  0  0  0  0
   16.5548  -28.3918   -4.4682 N   0  0  0  0  0  0  0  0  0  0  0  0
   17.1951  -27.7981   -3.3170 C   0  0  1  0  0  0  0  0  0  0  0  0
   16.7130  -26.3637   -3.2346 C   0  0  0  0  0  0  0  0  0  0  0  0
   17.1173  -25.6287   -4.4523 C   0  0  0  0  0  0  0  0  0  0  0  0
   16.1514  -25.0827   -5.2682 C   0  0  0  0  0  0  0  0  0  0  0  0
   16.5509  -24.3907   -6.4176 C   0  0  0  0  0  0  0  0  0  0  0  0
   17.8840  -24.2596   -6.7246 C   0  0  0  0  0  0  0  0  0  0  0  0
   18.8483  -24.8086   -5.9036 C   0  0  0  0  0  0  0  0  0  0  0  0
   18.4669  -25.4907   -4.7716 C   0  0  0  0  0  0  0  0  0  0  0  0
   16.8340  -28.5885   -2.1198 C   0  0  0  0  0  0  0  0  0  0  0  0
   15.9774  -29.6797   -2.1456 O   0  0  0  0  0  0  0  0  0  0  0  0
   17.3238  -28.2646   -1.0074 O   0  0  0  0  0  0  0  0  0  0  0  0
  2  1  1  6
  2 10  1  0
  2  3  1  0
  3  4  1  0
  4  9  2  0
  5  6  2  0
  5  4  1  0
  6  7  1  0
  7  8  2  0
  9  8  1  0
 10 11  2  0
 14 13  1  1
 13 12  1  0
 15 14  1  0
 15 10  1  0
 16 18  1  0
 16 14  1  0
 17 16  2  0
 19 18  1  0
 19 20  1  1
 21 20  1  0
 21 22  2  0
 23 22  1  0
 24 23  2  0
 25 26  2  0
 25 24  1  0
 26 21  1  0
 27 19  1  0
 28 27  1  0
 29 27  2  0
M  END
$$$$
