FSF.pdb
     RDKit          3D

 29 30  0  0  1  0  0  0  0  0999 V2000
   20.2727  -21.3227  -12.3627 N   0  0  0  0  0  0  0  0  0  0  0  0
   21.5565  -21.1236  -12.9989 C   0  0  1  0  0  0  0  0  0  0  0  0
   21.4279  -20.2895  -14.2604 C   0  0  0  0  0  0  0  0  0  0  0  0
   20.6340  -21.0829  -15.2234 C   0  0  0  0  0  0  0  0  0  0  0  0
   19.2842  -20.8597  -15.3616 C   0  0  0  0  0  0  0  0  0  0  0  0
   18.5118  -21.5912  -16.2599 C   0  0  0  0  0  0  0  0  0  0  0  0
   19.1397  -22.5739  -17.0336 C   0  0  0  0  0  0  0  0  0  0  0  0
   20.4889  -22.8070  -16.9051 C   0  0  0  0  0  0  0  0  0  0  0  0
   21.2196  -22.0614  -16.0041 C   0  0  0  0  0  0  0  0  0  0  0  0
   22.5500  -20.5085  -12.1269 C   0  0  0  0  0  0  0  0  0  0  0  0
   22.2122  -20.0225  -11.0246 O   0  0  0  0  0  0  0  0  0  0  0  0
   25.1721  -22.1004  -10.8207 O   0  0  0  0  0  0  0  0  0  0  0  0
   24.9982  -20.7740  -10.4240 C   0  0  0  0  0  0  0  0  0  0  0  0
   24.9357  -19.9305  -11.6752 C   0  0  2  0  0  0  0  0  0  0  0  0
   23.9033  -20.4667  -12.5403 N   0  0  0  0  0  0  0  0  0  0  0  0
   26.2641  -19.9409  -12.3344 C   0  0  0  0  0  0  0  0  0  0  0  0
   27.3472  -19.8919  -11.6928 O   0  0  0  0  0  0  0  0  0  0  0  0
   26.2964  -20.0096  -13.7548 N   0  0  0  0  0  0  0  0  0  0  0  0
   27.5156  -20.2358  -14.4967 C   0  0  1  0  0  0  0  0  0  0  0  0
   28.0033  -21.6234  -14.1317 C   0  0  0  0  0  0  0  0  0  0  0  0
   27.0543  -22.6375  -14.6391 C   0  0  0  0  0  0  0  0  0  0  0  0
   26.0799  -23.1346  -13.8023 C   0  0  0  0  0  0  0  0  0  0  0  0
   25.1899  -24.0947  -14.2978 C   0  0  0  0  0  0  0  0  0  0  0  0
   25.2884  -24.5321  -15.5969 C   0  0  0  0  0  0  0  0  0  0  0  0
   26.2667  -24.0308  -16.4317 C   0  0  0  0  0  0  0  0  0  0  0  0
   27.1466  -23.0870  -15.9551 C   0  0  0  0  0  0  0  0  0  0  0  0
   27.2188  -20.0991  -15.9395 C   0  0  0  0  0  0  0  0  0  0  0  0
   28.1922  -20.0734  -16.9280 O   0  0  0  0  0  0  0  0  0  0  0  0
   26.0198  -19.9996  -16.3065 O   0  0  0  0  0  0  0  0  0  0  0  0
  2  1  1  1
  2 10  1  0
  2  3  1  0
  3  4  1  0
  4  9  2  0
  5  6  2  0
  5  4  1  0
  6  7  1  0
  7  8  2  0
  9  8  1  0
 10 11  2  0
 14 13  1  1
 13 12  1  0
 15 14  1  0
 15 10  1  0
 16 18  1  0
 16 14  1  0
 17 16  2  0
 19 18  1  0
 19 20  1  6
 21 20  1  0
 21 22  2  0
 23 22  1  0
 24 23  2  0
 25 26  2  0
 25 24  1  0
 26 21  1  0
 27 19  1  0
 28 27  1  0
 29 27  2  0
M  END
$$$$
