FSF.pdb
     RDKit          3D

 29 30  0  0  1  0  0  0  0  0999 V2000
   31.7804  -29.9215  -18.5677 N   0  0  0  0  0  0  0  0  0  0  0  0
   32.5547  -28.7904  -18.1057 C   0  0  1  0  0  0  0  0  0  0  0  0
   33.3737  -28.1817  -19.2292 C   0  0  0  0  0  0  0  0  0  0  0  0
   34.0046  -29.3022  -19.9596 C   0  0  0  0  0  0  0  0  0  0  0  0
   35.1355  -29.9064  -19.4627 C   0  0  0  0  0  0  0  0  0  0  0  0
   35.7508  -30.9631  -20.1287 C   0  0  0  0  0  0  0  0  0  0  0  0
   35.1921  -31.4093  -21.3317 C   0  0  0  0  0  0  0  0  0  0  0  0
   34.0613  -30.8138  -21.8394 C   0  0  0  0  0  0  0  0  0  0  0  0
   33.4812  -29.7697  -21.1502 C   0  0  0  0  0  0  0  0  0  0  0  0
   31.7474  -27.7435  -17.4907 C   0  0  0  0  0  0  0  0  0  0  0  0
   30.5225  -27.6629  -17.7326 O   0  0  0  0  0  0  0  0  0  0  0  0
   33.6946  -24.6958  -15.7271 O   0  0  0  0  0  0  0  0  0  0  0  0
   32.5094  -24.9966  -15.0549 C   0  0  0  0  0  0  0  0  0  0  0  0
   31.6115  -25.7290  -16.0235 C   0  0  2  0  0  0  0  0  0  0  0  0
   32.3643  -26.8174  -16.6155 N   0  0  0  0  0  0  0  0  0  0  0  0
   31.1253  -24.7758  -17.0504 C   0  0  0  0  0  0  0  0  0  0  0  0
   31.7435  -24.5533  -18.1253 O   0  0  0  0  0  0  0  0  0  0  0  0
   29.9051  -24.0921  -16.7923 N   0  0  0  0  0  0  0  0  0  0  0  0
   29.3169  -23.1654  -17.7321 C   0  0  1  0  0  0  0  0  0  0  0  0
   28.2028  -23.9062  -18.4440 C   0  0  0  0  0  0  0  0  0  0  0  0
   27.1820  -24.3367  -17.4646 C   0  0  0  0  0  0  0  0  0  0  0  0
   27.2597  -25.5957  -16.9117 C   0  0  0  0  0  0  0  0  0  0  0  0
   26.2850  -25.9881  -15.9868 C   0  0  0  0  0  0  0  0  0  0  0  0
   25.2693  -25.1305  -15.6380 C   0  0  0  0  0  0  0  0  0  0  0  0
   25.1959  -23.8697  -16.1949 C   0  0  0  0  0  0  0  0  0  0  0  0
   26.1484  -23.4738  -17.1049 C   0  0  0  0  0  0  0  0  0  0  0  0
   28.8280  -21.9862  -16.9846 C   0  0  0  0  0  0  0  0  0  0  0  0
   28.3846  -20.8190  -17.5897 O   0  0  0  0  0  0  0  0  0  0  0  0
   28.8073  -22.0293  -15.7277 O   0  0  0  0  0  0  0  0  0  0  0  0
  2  1  1  6
  2 10  1  0
  2  3  1  0
  3  4  1  0
  4  9  2  0
  5  6  2  0
  5  4  1  0
  6  7  1  0
  7  8  2  0
  9  8  1  0
 10 11  2  0
 14 13  1  1
 13 12  1  0
 15 14  1  0
 15 10  1  0
 16 18  1  0
 16 14  1  0
 17 16  2  0
 19 18  1  0
 19 20  1  1
 21 20  1  0
 21 22  2  0
 23 22  1  0
 24 23  2  0
 25 26  2  0
 25 24  1  0
 26 21  1  0
 27 19  1  0
 28 27  1  0
 29 27  2  0
M  END
$$$$
