FSF.pdb
     RDKit          3D

 29 30  0  0  1  0  0  0  0  0999 V2000
   25.3884  -18.3344  -19.1866 N   0  0  0  0  0  0  0  0  0  0  0  0
   26.0294  -18.8613  -18.0016 C   0  0  1  0  0  0  0  0  0  0  0  0
   25.7796  -17.9756  -16.7946 C   0  0  0  0  0  0  0  0  0  0  0  0
   26.2186  -16.6119  -17.1615 C   0  0  0  0  0  0  0  0  0  0  0  0
   27.5012  -16.3905  -17.6047 C   0  0  0  0  0  0  0  0  0  0  0  0
   27.9421  -15.1176  -17.9570 C   0  0  0  0  0  0  0  0  0  0  0  0
   27.0455  -14.0482  -17.8518 C   0  0  0  0  0  0  0  0  0  0  0  0
   25.7599  -14.2562  -17.4100 C   0  0  0  0  0  0  0  0  0  0  0  0
   25.3612  -15.5318  -17.0705 C   0  0  0  0  0  0  0  0  0  0  0  0
   25.6254  -20.2242  -17.6774 C   0  0  0  0  0  0  0  0  0  0  0  0
   24.4880  -20.6401  -17.9916 O   0  0  0  0  0  0  0  0  0  0  0  0
   28.3566  -22.6244  -15.8395 O   0  0  0  0  0  0  0  0  0  0  0  0
   27.3566  -23.2862  -16.5529 C   0  0  0  0  0  0  0  0  0  0  0  0
   26.1371  -22.3953  -16.5578 C   0  0  2  0  0  0  0  0  0  0  0  0
   26.5345  -21.0740  -17.0025 N   0  0  0  0  0  0  0  0  0  0  0  0
   25.5540  -22.3632  -15.1945 C   0  0  0  0  0  0  0  0  0  0  0  0
   26.0807  -22.9479  -14.2107 O   0  0  0  0  0  0  0  0  0  0  0  0
   24.3464  -21.6349  -15.0093 N   0  0  0  0  0  0  0  0  0  0  0  0
   23.6933  -21.5219  -13.7253 C   0  0  1  0  0  0  0  0  0  0  0  0
   24.2388  -20.2738  -13.0610 C   0  0  0  0  0  0  0  0  0  0  0  0
   25.6212  -20.5174  -12.5960 C   0  0  0  0  0  0  0  0  0  0  0  0
   25.8507  -21.4446  -11.6039 C   0  0  0  0  0  0  0  0  0  0  0  0
   27.1650  -21.6626  -11.1745 C   0  0  0  0  0  0  0  0  0  0  0  0
   28.2067  -20.9627  -11.7345 C   0  0  0  0  0  0  0  0  0  0  0  0
   27.9716  -20.0344  -12.7287 C   0  0  0  0  0  0  0  0  0  0  0  0
   26.6838  -19.8122  -13.1582 C   0  0  0  0  0  0  0  0  0  0  0  0
   22.2321  -21.4554  -13.9466 C   0  0  0  0  0  0  0  0  0  0  0  0
   21.4781  -20.3032  -13.7765 O   0  0  0  0  0  0  0  0  0  0  0  0
   21.6246  -22.4951  -14.3099 O   0  0  0  0  0  0  0  0  0  0  0  0
  2  1  1  6
  2 10  1  0
  2  3  1  0
  3  4  1  0
  4  9  2  0
  5  6  2  0
  5  4  1  0
  6  7  1  0
  7  8  2  0
  9  8  1  0
 10 11  2  0
 14 13  1  1
 13 12  1  0
 15 14  1  0
 15 10  1  0
 16 18  1  0
 16 14  1  0
 17 16  2  0
 19 18  1  0
 19 20  1  6
 21 20  1  0
 21 22  2  0
 23 22  1  0
 24 23  2  0
 25 26  2  0
 25 24  1  0
 26 21  1  0
 27 19  1  0
 28 27  1  0
 29 27  2  0
M  END
$$$$
