FSF.pdb
     RDKit          3D

 29 30  0  0  1  0  0  0  0  0999 V2000
   14.7645   -7.7052  -14.2203 N   0  0  0  0  0  0  0  0  0  0  0  0
   15.6505   -6.6187  -13.8638 C   0  0  1  0  0  0  0  0  0  0  0  0
   15.6182   -5.5121  -14.9021 C   0  0  0  0  0  0  0  0  0  0  0  0
   16.3064   -6.0286  -16.1049 C   0  0  0  0  0  0  0  0  0  0  0  0
   17.6657   -5.8770  -16.2466 C   0  0  0  0  0  0  0  0  0  0  0  0
   18.3401   -6.3530  -17.3679 C   0  0  0  0  0  0  0  0  0  0  0  0
   17.6019   -6.9990  -18.3660 C   0  0  0  0  0  0  0  0  0  0  0  0
   16.2420   -7.1571  -18.2366 C   0  0  0  0  0  0  0  0  0  0  0  0
   15.6104   -6.6717  -17.1109 C   0  0  0  0  0  0  0  0  0  0  0  0
   15.3698   -6.0436  -12.5537 C   0  0  0  0  0  0  0  0  0  0  0  0
   14.2052   -5.7053  -12.2460 O   0  0  0  0  0  0  0  0  0  0  0  0
   18.5211   -5.4129   -9.9747 O   0  0  0  0  0  0  0  0  0  0  0  0
   17.2793   -5.6713   -9.3930 C   0  0  0  0  0  0  0  0  0  0  0  0
   16.2185   -5.2050  -10.3615 C   0  0  2  0  0  0  0  0  0  0  0  0
   16.4300   -5.8716  -11.6314 N   0  0  0  0  0  0  0  0  0  0  0  0
   16.2986   -3.7302  -10.4959 C   0  0  0  0  0  0  0  0  0  0  0  0
   16.6796   -3.1586  -11.5521 O   0  0  0  0  0  0  0  0  0  0  0  0
   15.9245   -2.9429   -9.3720 N   0  0  0  0  0  0  0  0  0  0  0  0
   15.8865   -1.4989   -9.4095 C   0  0  1  0  0  0  0  0  0  0  0  0
   14.8329   -1.1115  -10.4276 C   0  0  0  0  0  0  0  0  0  0  0  0
   14.6194    0.3514  -10.3956 C   0  0  0  0  0  0  0  0  0  0  0  0
   15.3963    1.1686  -11.1864 C   0  0  0  0  0  0  0  0  0  0  0  0
   15.1821    2.5513  -11.1438 C   0  0  0  0  0  0  0  0  0  0  0  0
   14.2130    3.0818  -10.3264 C   0  0  0  0  0  0  0  0  0  0  0  0
   13.4369    2.2586   -9.5356 C   0  0  0  0  0  0  0  0  0  0  0  0
   13.6390    0.8983   -9.5698 C   0  0  0  0  0  0  0  0  0  0  0  0
   15.5741   -1.0024   -8.0515 C   0  0  0  0  0  0  0  0  0  0  0  0
   16.1191    0.1521   -7.5081 O   0  0  0  0  0  0  0  0  0  0  0  0
   14.7697   -1.6536   -7.3366 O   0  0  0  0  0  0  0  0  0  0  0  0
  2  1  1  6
  2 10  1  0
  2  3  1  0
  3  4  1  0
  4  9  2  0
  5  6  2  0
  5  4  1  0
  6  7  1  0
  7  8  2  0
  9  8  1  0
 10 11  2  0
 14 13  1  1
 13 12  1  0
 15 14  1  0
 15 10  1  0
 16 18  1  0
 16 14  1  0
 17 16  2  0
 19 18  1  0
 19 20  1  6
 21 20  1  0
 21 22  2  0
 23 22  1  0
 24 23  2  0
 25 26  2  0
 25 24  1  0
 26 21  1  0
 27 19  1  0
 28 27  1  0
 29 27  2  0
M  END
$$$$
