FSF.pdb
     RDKit          3D

 29 30  0  0  1  0  0  0  0  0999 V2000
   16.0843   -9.7109  -16.8267 N   0  0  0  0  0  0  0  0  0  0  0  0
   17.2813   -9.3532  -17.5560 C   0  0  1  0  0  0  0  0  0  0  0  0
   16.9659   -8.9825  -18.9936 C   0  0  0  0  0  0  0  0  0  0  0  0
   16.3953  -10.1869  -19.6347 C   0  0  0  0  0  0  0  0  0  0  0  0
   17.2215  -11.1414  -20.1797 C   0  0  0  0  0  0  0  0  0  0  0  0
   16.7126  -12.2850  -20.7895 C   0  0  0  0  0  0  0  0  0  0  0  0
   15.3240  -12.4521  -20.8405 C   0  0  0  0  0  0  0  0  0  0  0  0
   14.4867  -11.5050  -20.2992 C   0  0  0  0  0  0  0  0  0  0  0  0
   15.0295  -10.3858  -19.7038 C   0  0  0  0  0  0  0  0  0  0  0  0
   18.0338   -8.2650  -16.9433 C   0  0  0  0  0  0  0  0  0  0  0  0
   17.4418   -7.3612  -16.3122 O   0  0  0  0  0  0  0  0  0  0  0  0
   22.4157   -6.5001  -15.9962 O   0  0  0  0  0  0  0  0  0  0  0  0
   21.6893   -7.5090  -16.6299 C   0  0  0  0  0  0  0  0  0  0  0  0
   20.2266   -7.1472  -16.5286 C   0  0  2  0  0  0  0  0  0  0  0  0
   19.4436   -8.2409  -17.0695 N   0  0  0  0  0  0  0  0  0  0  0  0
   19.9869   -5.8834  -17.2667 C   0  0  0  0  0  0  0  0  0  0  0  0
   19.6971   -5.8507  -18.4923 O   0  0  0  0  0  0  0  0  0  0  0  0
   20.0935   -4.6643  -16.5417 N   0  0  0  0  0  0  0  0  0  0  0  0
   19.9344   -3.3703  -17.1647 C   0  0  1  0  0  0  0  0  0  0  0  0
   18.4875   -3.2667  -17.6036 C   0  0  0  0  0  0  0  0  0  0  0  0
   18.2309   -1.9253  -18.1705 C   0  0  0  0  0  0  0  0  0  0  0  0
   18.6065   -1.6528  -19.4671 C   0  0  0  0  0  0  0  0  0  0  0  0
   18.3572   -0.3778  -19.9884 C   0  0  0  0  0  0  0  0  0  0  0  0
   17.7482    0.5836  -19.2181 C   0  0  0  0  0  0  0  0  0  0  0  0
   17.3735    0.3055  -17.9190 C   0  0  0  0  0  0  0  0  0  0  0  0
   17.6138   -0.9441  -17.3967 C   0  0  0  0  0  0  0  0  0  0  0  0
   20.3063   -2.3281  -16.1829 C   0  0  0  0  0  0  0  0  0  0  0  0
   20.5396   -2.5826  -14.8390 O   0  0  0  0  0  0  0  0  0  0  0  0
   20.4215   -1.1382  -16.5742 O   0  0  0  0  0  0  0  0  0  0  0  0
  2  1  1  1
  2 10  1  0
  2  3  1  0
  3  4  1  0
  4  9  2  0
  5  6  2  0
  5  4  1  0
  6  7  1  0
  7  8  2  0
  9  8  1  0
 10 11  2  0
 14 13  1  6
 13 12  1  0
 15 14  1  0
 15 10  1  0
 16 18  1  0
 16 14  1  0
 17 16  2  0
 19 18  1  0
 19 20  1  1
 21 20  1  0
 21 22  2  0
 23 22  1  0
 24 23  2  0
 25 26  2  0
 25 24  1  0
 26 21  1  0
 27 19  1  0
 28 27  1  0
 29 27  2  0
M  END
$$$$
