FSF.pdb
     RDKit          3D

 29 30  0  0  1  0  0  0  0  0999 V2000
   18.7297    0.8145  -18.0966 N   0  0  0  0  0  0  0  0  0  0  0  0
   19.7334   -0.1875  -17.8118 C   0  0  1  0  0  0  0  0  0  0  0  0
   20.9939    0.4356  -17.2404 C   0  0  0  0  0  0  0  0  0  0  0  0
   21.5136    1.3716  -18.2607 C   0  0  0  0  0  0  0  0  0  0  0  0
   22.3234    0.9153  -19.2740 C   0  0  0  0  0  0  0  0  0  0  0  0
   22.8271    1.7732  -20.2481 C   0  0  0  0  0  0  0  0  0  0  0  0
   22.4916    3.1302  -20.1800 C   0  0  0  0  0  0  0  0  0  0  0  0
   21.6826    3.5994  -19.1717 C   0  0  0  0  0  0  0  0  0  0  0  0
   21.2036    2.7179  -18.2256 C   0  0  0  0  0  0  0  0  0  0  0  0
   19.2727   -1.2331  -16.9062 C   0  0  0  0  0  0  0  0  0  0  0  0
   18.3612   -1.0011  -16.0811 O   0  0  0  0  0  0  0  0  0  0  0  0
   18.9058   -5.0547  -17.8301 O   0  0  0  0  0  0  0  0  0  0  0  0
   18.3375   -4.3566  -16.7639 C   0  0  0  0  0  0  0  0  0  0  0  0
   19.4440   -3.5841  -16.0858 C   0  0  2  0  0  0  0  0  0  0  0  0
   19.8679   -2.5161  -16.9697 N   0  0  0  0  0  0  0  0  0  0  0  0
   20.5589   -4.5096  -15.7696 C   0  0  0  0  0  0  0  0  0  0  0  0
   21.5980   -4.5965  -16.4765 O   0  0  0  0  0  0  0  0  0  0  0  0
   20.4310   -5.3273  -14.6128 N   0  0  0  0  0  0  0  0  0  0  0  0
   21.4616   -6.2482  -14.1913 C   0  0  1  0  0  0  0  0  0  0  0  0
   22.1415   -5.6284  -12.9869 C   0  0  0  0  0  0  0  0  0  0  0  0
   21.1346   -5.3116  -11.9513 C   0  0  0  0  0  0  0  0  0  0  0  0
   20.8494   -6.2399  -10.9748 C   0  0  0  0  0  0  0  0  0  0  0  0
   19.8931   -5.9248  -10.0024 C   0  0  0  0  0  0  0  0  0  0  0  0
   19.2514   -4.7096  -10.0235 C   0  0  0  0  0  0  0  0  0  0  0  0
   19.5408   -3.7825  -11.0043 C   0  0  0  0  0  0  0  0  0  0  0  0
   20.4789   -4.0819  -11.9649 C   0  0  0  0  0  0  0  0  0  0  0  0
   20.8298   -7.5491  -13.8801 C   0  0  0  0  0  0  0  0  0  0  0  0
   19.4584   -7.7368  -13.7834 O   0  0  0  0  0  0  0  0  0  0  0  0
   21.5651   -8.5516  -13.6898 O   0  0  0  0  0  0  0  0  0  0  0  0
  2  1  1  1
  2 10  1  0
  2  3  1  0
  3  4  1  0
  4  9  2  0
  5  6  2  0
  5  4  1  0
  6  7  1  0
  7  8  2  0
  9  8  1  0
 10 11  2  0
 14 13  1  6
 13 12  1  0
 15 14  1  0
 15 10  1  0
 16 18  1  0
 16 14  1  0
 17 16  2  0
 19 18  1  0
 19 20  1  1
 21 20  1  0
 21 22  2  0
 23 22  1  0
 24 23  2  0
 25 26  2  0
 25 24  1  0
 26 21  1  0
 27 19  1  0
 28 27  1  0
 29 27  2  0
M  END
$$$$
