FSF.pdb
     RDKit          3D

 29 30  0  0  1  0  0  0  0  0999 V2000
   28.5914  -21.7205  -14.3004 N   0  0  0  0  0  0  0  0  0  0  0  0
   27.9906  -21.4453  -13.0136 C   0  0  1  0  0  0  0  0  0  0  0  0
   28.6919  -20.2997  -12.3067 C   0  0  0  0  0  0  0  0  0  0  0  0
   28.1468  -20.2415  -10.9332 C   0  0  0  0  0  0  0  0  0  0  0  0
   27.1466  -19.3515  -10.6197 C   0  0  0  0  0  0  0  0  0  0  0  0
   26.6145  -19.2746   -9.3353 C   0  0  0  0  0  0  0  0  0  0  0  0
   27.1208  -20.1309   -8.3510 C   0  0  0  0  0  0  0  0  0  0  0  0
   28.1210  -21.0256   -8.6515 C   0  0  0  0  0  0  0  0  0  0  0  0
   28.6220  -21.0714   -9.9354 C   0  0  0  0  0  0  0  0  0  0  0  0
   26.5645  -21.1510  -13.0869 C   0  0  0  0  0  0  0  0  0  0  0  0
   26.0897  -20.5582  -14.0813 O   0  0  0  0  0  0  0  0  0  0  0  0
   23.9438  -20.7988  -10.0025 O   0  0  0  0  0  0  0  0  0  0  0  0
   23.6569  -21.8797  -10.8370 C   0  0  0  0  0  0  0  0  0  0  0  0
   24.2808  -21.5928  -12.1821 C   0  0  2  0  0  0  0  0  0  0  0  0
   25.7206  -21.5434  -12.0202 N   0  0  0  0  0  0  0  0  0  0  0  0
   23.7430  -20.3129  -12.7036 C   0  0  0  0  0  0  0  0  0  0  0  0
   23.9923  -19.1982  -12.1720 O   0  0  0  0  0  0  0  0  0  0  0  0
   22.9107  -20.3664  -13.8558 N   0  0  0  0  0  0  0  0  0  0  0  0
   22.3111  -19.1884  -14.4397 C   0  0  1  0  0  0  0  0  0  0  0  0
   22.8994  -19.0357  -15.8280 C   0  0  0  0  0  0  0  0  0  0  0  0
   24.2601  -18.4642  -15.7353 C   0  0  0  0  0  0  0  0  0  0  0  0
   25.3453  -19.3065  -15.6383 C   0  0  0  0  0  0  0  0  0  0  0  0
   26.6265  -18.7495  -15.5505 C   0  0  0  0  0  0  0  0  0  0  0  0
   26.7962  -17.3858  -15.5611 C   0  0  0  0  0  0  0  0  0  0  0  0
   25.7053  -16.5457  -15.6585 C   0  0  0  0  0  0  0  0  0  0  0  0
   24.4417  -17.0824  -15.7453 C   0  0  0  0  0  0  0  0  0  0  0  0
   20.8433  -19.3711  -14.4616 C   0  0  0  0  0  0  0  0  0  0  0  0
   20.2084  -20.5563  -14.1188 O   0  0  0  0  0  0  0  0  0  0  0  0
   20.1159  -18.4054  -14.8088 O   0  0  0  0  0  0  0  0  0  0  0  0
  2  1  1  6
  2 10  1  0
  2  3  1  0
  3  4  1  0
  4  9  2  0
  5  6  2  0
  5  4  1  0
  6  7  1  0
  7  8  2  0
  9  8  1  0
 10 11  2  0
 14 13  1  1
 13 12  1  0
 15 14  1  0
 15 10  1  0
 16 18  1  0
 16 14  1  0
 17 16  2  0
 19 18  1  0
 19 20  1  6
 21 20  1  0
 21 22  2  0
 23 22  1  0
 24 23  2  0
 25 26  2  0
 25 24  1  0
 26 21  1  0
 27 19  1  0
 28 27  1  0
 29 27  2  0
M  END
$$$$
