FSF.pdb
     RDKit          3D

 29 30  0  0  1  0  0  0  0  0999 V2000
   28.0789  -21.1635  -16.1686 N   0  0  0  0  0  0  0  0  0  0  0  0
   28.5400  -21.1860  -14.7977 C   0  0  1  0  0  0  0  0  0  0  0  0
   29.9783  -20.7137  -14.6877 C   0  0  0  0  0  0  0  0  0  0  0  0
   30.3844  -20.8919  -13.2768 C   0  0  0  0  0  0  0  0  0  0  0  0
   30.2798  -19.8492  -12.3867 C   0  0  0  0  0  0  0  0  0  0  0  0
   30.6545  -19.9880  -11.0529 C   0  0  0  0  0  0  0  0  0  0  0  0
   31.1476  -21.2254  -10.6237 C   0  0  0  0  0  0  0  0  0  0  0  0
   31.2572  -22.2763  -11.5039 C   0  0  0  0  0  0  0  0  0  0  0  0
   30.8756  -22.0991  -12.8171 C   0  0  0  0  0  0  0  0  0  0  0  0
   27.7144  -20.3962  -13.8919 C   0  0  0  0  0  0  0  0  0  0  0  0
   27.4182  -19.2134  -14.1725 O   0  0  0  0  0  0  0  0  0  0  0  0
   24.5963  -21.5997  -12.5636 O   0  0  0  0  0  0  0  0  0  0  0  0
   24.9754  -20.2673  -12.3961 C   0  0  0  0  0  0  0  0  0  0  0  0
   26.3623  -20.2616  -11.7984 C   0  0  2  0  0  0  0  0  0  0  0  0
   27.2502  -20.9820  -12.6896 N   0  0  0  0  0  0  0  0  0  0  0  0
   26.3133  -20.8828  -10.4525 C   0  0  0  0  0  0  0  0  0  0  0  0
   26.3062  -22.1299  -10.2739 O   0  0  0  0  0  0  0  0  0  0  0  0
   26.2731  -20.0158   -9.3257 N   0  0  0  0  0  0  0  0  0  0  0  0
   26.0120  -20.4902   -7.9860 C   0  0  1  0  0  0  0  0  0  0  0  0
   26.2848  -19.3325   -7.0468 C   0  0  0  0  0  0  0  0  0  0  0  0
   27.4979  -19.6105   -6.2483 C   0  0  0  0  0  0  0  0  0  0  0  0
   28.6895  -19.0120   -6.5927 C   0  0  0  0  0  0  0  0  0  0  0  0
   29.8288  -19.2863   -5.8271 C   0  0  0  0  0  0  0  0  0  0  0  0
   29.7573  -20.1382   -4.7510 C   0  0  0  0  0  0  0  0  0  0  0  0
   28.5606  -20.7355   -4.4098 C   0  0  0  0  0  0  0  0  0  0  0  0
   27.4348  -20.4730   -5.1554 C   0  0  0  0  0  0  0  0  0  0  0  0
   24.6102  -20.9580   -7.9189 C   0  0  0  0  0  0  0  0  0  0  0  0
   24.1671  -21.9444   -7.0494 O   0  0  0  0  0  0  0  0  0  0  0  0
   23.7597  -20.4413   -8.6882 O   0  0  0  0  0  0  0  0  0  0  0  0
  2  1  1  6
  2 10  1  0
  2  3  1  0
  3  4  1  0
  4  9  2  0
  5  6  2  0
  5  4  1  0
  6  7  1  0
  7  8  2  0
  9  8  1  0
 10 11  2  0
 14 13  1  6
 13 12  1  0
 15 14  1  0
 15 10  1  0
 16 18  1  0
 16 14  1  0
 17 16  2  0
 19 18  1  0
 19 20  1  1
 21 20  1  0
 21 22  2  0
 23 22  1  0
 24 23  2  0
 25 26  2  0
 25 24  1  0
 26 21  1  0
 27 19  1  0
 28 27  1  0
 29 27  2  0
M  END
$$$$
