IWY.pdb
     RDKit          3D

 35 37  0  0  1  0  0  0  0  0999 V2000
   22.5825  -12.9037  -20.3480 C   0  0  0  0  0  0  0  0  0  0  0  0
   23.8758  -12.0731  -20.4153 C   0  0  0  0  0  0  0  0  0  0  0  0
   23.7071  -10.9519  -19.4561 C   0  0  2  0  0  0  0  0  0  0  0  0
   22.3766  -10.2808  -19.6970 C   0  0  0  0  0  0  0  0  0  0  0  0
   24.8530   -9.9989  -19.3351 C   0  0  2  0  0  0  0  0  0  0  0  0
   25.9872  -10.8179  -18.8686 N   0  0  0  0  0  0  0  0  0  0  0  0
   24.6742   -8.9134  -18.3573 C   0  0  0  0  0  0  0  0  0  0  0  0
   24.8256   -9.1111  -17.1015 O   0  0  0  0  0  0  0  0  0  0  0  0
   24.3272   -7.5758  -18.6944 N   0  0  0  0  0  0  0  0  0  0  0  0
   24.1275   -6.5210  -17.7301 C   0  0  1  0  0  0  0  0  0  0  0  0
   24.5154   -5.1508  -18.2562 C   0  0  0  0  0  0  0  0  0  0  0  0
   25.9747   -4.9251  -18.3227 C   0  0  0  0  0  0  0  0  0  0  0  0
   26.8661   -5.3445  -19.3081 C   0  0  0  0  0  0  0  0  0  0  0  0
   28.1182   -4.9601  -19.0005 N   0  0  0  0  0  0  0  0  0  0  0  0
   28.0956   -4.2930  -17.8357 C   0  0  0  0  0  0  0  0  0  0  0  0
   29.1074   -3.7004  -17.1110 C   0  0  0  0  0  0  0  0  0  0  0  0
   28.8472   -3.0560  -15.9326 C   0  0  0  0  0  0  0  0  0  0  0  0
   27.5501   -3.0100  -15.4822 C   0  0  0  0  0  0  0  0  0  0  0  0
   26.5524   -3.6067  -16.2176 C   0  0  0  0  0  0  0  0  0  0  0  0
   26.7683   -4.2663  -17.4079 C   0  0  0  0  0  0  0  0  0  0  0  0
   22.7772   -6.5425  -17.1368 C   0  0  0  0  0  0  0  0  0  0  0  0
   21.7230   -6.4161  -17.8265 O   0  0  0  0  0  0  0  0  0  0  0  0
   16.4324   -9.1652  -11.6578 O   0  0  0  0  0  0  0  0  0  0  0  0
   17.6104   -8.8880  -12.3666 C   0  0  0  0  0  0  0  0  0  0  0  0
   18.7970   -9.5017  -11.9829 C   0  0  0  0  0  0  0  0  0  0  0  0
   19.9784   -9.2629  -12.6456 C   0  0  0  0  0  0  0  0  0  0  0  0
   20.0079   -8.3976  -13.7187 C   0  0  0  0  0  0  0  0  0  0  0  0
   21.2825   -8.1411  -14.4161 C   0  0  0  0  0  0  0  0  0  0  0  0
   21.3214   -6.7636  -15.0894 C   0  0  2  0  0  0  0  0  0  0  0  0
   22.6280   -6.7119  -15.7350 N   0  0  0  0  0  0  0  0  0  0  0  0
   21.2722   -5.7344  -14.0464 C   0  0  0  0  0  0  0  0  0  0  0  0
   22.2781   -5.4816  -13.3513 O   0  0  0  0  0  0  0  0  0  0  0  0
   18.8140   -7.7830  -14.1012 C   0  0  0  0  0  0  0  0  0  0  0  0
   17.6383   -8.0295  -13.4308 C   0  0  0  0  0  0  0  0  0  0  0  0
   20.1108   -5.0311  -13.8205 O   0  0  0  0  0  0  0  0  0  0  0  0
  2  1  1  0
  3  4  1  6
  3  5  1  0
  3  2  1  0
  5  6  1  1
  7  8  2  0
  7  5  1  0
  9  7  1  0
 10 21  1  0
 10  9  1  0
 10 11  1  6
 12 11  1  0
 13 12  2  0
 14 15  1  0
 14 13  1  0
 15 20  2  0
 16 15  1  0
 16 17  2  0
 17 18  1  0
 18 19  2  0
 20 12  1  0
 20 19  1  0
 21 30  1  0
 22 21  2  0
 23 24  1  0
 24 25  2  0
 24 34  1  0
 25 26  1  0
 26 27  2  0
 27 28  1  0
 29 28  1  1
 29 31  1  0
 30 29  1  0
 31 32  2  0
 31 35  1  0
 33 27  1  0
 34 33  2  0
M  END
$$$$
