IWY.pdb
     RDKit          3D

 35 37  0  0  1  0  0  0  0  0999 V2000
   29.9047  -20.0010  -15.5434 C   0  0  0  0  0  0  0  0  0  0  0  0
   30.4947  -20.0623  -14.1238 C   0  0  0  0  0  0  0  0  0  0  0  0
   29.3761  -20.4275  -13.2178 C   0  0  2  0  0  0  0  0  0  0  0  0
   28.1687  -19.5827  -13.5451 C   0  0  0  0  0  0  0  0  0  0  0  0
   29.6932  -20.4911  -11.7579 C   0  0  2  0  0  0  0  0  0  0  0  0
   30.7433  -21.5193  -11.6365 N   0  0  0  0  0  0  0  0  0  0  0  0
   28.5822  -20.9044  -10.8854 C   0  0  0  0  0  0  0  0  0  0  0  0
   28.2669  -22.1367  -10.7402 O   0  0  0  0  0  0  0  0  0  0  0  0
   27.7707  -20.0078  -10.1365 N   0  0  0  0  0  0  0  0  0  0  0  0
   26.4494  -20.3225   -9.6491 C   0  0  1  0  0  0  0  0  0  0  0  0
   26.0677  -19.5338   -8.4093 C   0  0  0  0  0  0  0  0  0  0  0  0
   27.2078  -19.2241   -7.5210 C   0  0  0  0  0  0  0  0  0  0  0  0
   28.1865  -18.2463   -7.6866 C   0  0  0  0  0  0  0  0  0  0  0  0
   29.0682  -18.2903   -6.6713 N   0  0  0  0  0  0  0  0  0  0  0  0
   28.7109  -19.2701   -5.8259 C   0  0  0  0  0  0  0  0  0  0  0  0
   29.2807  -19.7029   -4.6477 C   0  0  0  0  0  0  0  0  0  0  0  0
   28.7305  -20.7327   -3.9345 C   0  0  0  0  0  0  0  0  0  0  0  0
   27.5922  -21.3311   -4.4177 C   0  0  0  0  0  0  0  0  0  0  0  0
   27.0367  -20.8870   -5.5952 C   0  0  0  0  0  0  0  0  0  0  0  0
   27.5564  -19.8550   -6.3458 C   0  0  0  0  0  0  0  0  0  0  0  0
   25.4232  -20.2542  -10.7065 C   0  0  0  0  0  0  0  0  0  0  0  0
   25.6934  -19.9522  -11.9060 O   0  0  0  0  0  0  0  0  0  0  0  0
   19.4737  -22.8334  -16.2541 O   0  0  0  0  0  0  0  0  0  0  0  0
   20.4590  -22.5350  -15.3017 C   0  0  0  0  0  0  0  0  0  0  0  0
   20.5736  -23.3302  -14.1675 C   0  0  0  0  0  0  0  0  0  0  0  0
   21.5232  -23.0791  -13.2048 C   0  0  0  0  0  0  0  0  0  0  0  0
   22.3920  -22.0181  -13.3489 C   0  0  0  0  0  0  0  0  0  0  0  0
   23.4002  -21.7518  -12.3053 C   0  0  0  0  0  0  0  0  0  0  0  0
   23.0203  -20.5706  -11.4037 C   0  0  2  0  0  0  0  0  0  0  0  0
   24.0681  -20.5360  -10.3899 N   0  0  0  0  0  0  0  0  0  0  0  0
   21.7443  -20.8761  -10.7496 C   0  0  0  0  0  0  0  0  0  0  0  0
   20.6676  -20.4590  -11.2247 O   0  0  0  0  0  0  0  0  0  0  0  0
   22.2738  -21.2214  -14.4895 C   0  0  0  0  0  0  0  0  0  0  0  0
   21.3201  -21.4823  -15.4459 C   0  0  0  0  0  0  0  0  0  0  0  0
   21.7182  -21.6304   -9.5985 O   0  0  0  0  0  0  0  0  0  0  0  0
  2  1  1  0
  3  4  1  1
  3  5  1  0
  3  2  1  0
  5  6  1  6
  7  8  2  0
  7  5  1  0
  9  7  1  0
 10 21  1  0
 10  9  1  0
 10 11  1  1
 12 11  1  0
 13 12  2  0
 14 15  1  0
 14 13  1  0
 15 20  2  0
 16 15  1  0
 16 17  2  0
 17 18  1  0
 18 19  2  0
 20 12  1  0
 20 19  1  0
 21 30  1  0
 22 21  2  0
 23 24  1  0
 24 25  2  0
 24 34  1  0
 25 26  1  0
 26 27  2  0
 27 28  1  0
 29 28  1  6
 29 31  1  0
 30 29  1  0
 31 32  2  0
 31 35  1  0
 33 27  1  0
 34 33  2  0
M  END
$$$$
