IWY.pdb
     RDKit          3D

 35 37  0  0  1  0  0  0  0  0999 V2000
   21.2549  -15.8240  -19.1170 C   0  0  0  0  0  0  0  0  0  0  0  0
   20.7388  -17.1707  -18.5811 C   0  0  0  0  0  0  0  0  0  0  0  0
   21.5352  -17.4733  -17.3647 C   0  0  2  0  0  0  0  0  0  0  0  0
   22.9980  -17.2327  -17.6495 C   0  0  0  0  0  0  0  0  0  0  0  0
   21.2560  -18.7792  -16.6919 C   0  0  2  0  0  0  0  0  0  0  0  0
   19.8684  -18.6720  -16.2042 N   0  0  0  0  0  0  0  0  0  0  0  0
   22.1004  -19.0848  -15.5258 C   0  0  0  0  0  0  0  0  0  0  0  0
   22.1903  -18.2800  -14.5341 O   0  0  0  0  0  0  0  0  0  0  0  0
   22.8779  -20.2673  -15.3830 N   0  0  0  0  0  0  0  0  0  0  0  0
   23.7931  -20.5110  -14.2942 C   0  0  1  0  0  0  0  0  0  0  0  0
   23.3730  -21.6717  -13.4105 C   0  0  0  0  0  0  0  0  0  0  0  0
   22.0775  -21.4679  -12.7285 C   0  0  0  0  0  0  0  0  0  0  0  0
   20.8092  -21.8533  -13.1579 C   0  0  0  0  0  0  0  0  0  0  0  0
   19.8770  -21.4695  -12.2669 N   0  0  0  0  0  0  0  0  0  0  0  0
   20.4815  -20.8366  -11.2489 C   0  0  0  0  0  0  0  0  0  0  0  0
   19.9688  -20.2699  -10.1017 C   0  0  0  0  0  0  0  0  0  0  0  0
   20.7881  -19.6749   -9.1817 C   0  0  0  0  0  0  0  0  0  0  0  0
   22.1402  -19.6527   -9.4241 C   0  0  0  0  0  0  0  0  0  0  0  0
   22.6352  -20.2226  -10.5741 C   0  0  0  0  0  0  0  0  0  0  0  0
   21.8482  -20.8313  -11.5273 C   0  0  0  0  0  0  0  0  0  0  0  0
   25.1944  -20.6145  -14.7431 C   0  0  0  0  0  0  0  0  0  0  0  0
   25.5387  -21.2673  -15.7717 O   0  0  0  0  0  0  0  0  0  0  0  0
   27.3694  -21.3338   -8.1063 O   0  0  0  0  0  0  0  0  0  0  0  0
   27.5780  -20.8004   -9.3865 C   0  0  0  0  0  0  0  0  0  0  0  0
   28.7031  -21.1811  -10.1085 C   0  0  0  0  0  0  0  0  0  0  0  0
   28.9523  -20.6865  -11.3674 C   0  0  0  0  0  0  0  0  0  0  0  0
   28.0778  -19.7906  -11.9453 C   0  0  0  0  0  0  0  0  0  0  0  0
   28.3602  -19.2588  -13.2922 C   0  0  0  0  0  0  0  0  0  0  0  0
   27.6219  -20.0247  -14.3971 C   0  0  2  0  0  0  0  0  0  0  0  0
   26.2182  -19.9617  -14.0069 N   0  0  0  0  0  0  0  0  0  0  0  0
   28.0562  -21.4246  -14.3627 C   0  0  0  0  0  0  0  0  0  0  0  0
   27.3678  -22.2924  -13.7866 O   0  0  0  0  0  0  0  0  0  0  0  0
   26.9489  -19.4104  -11.2171 C   0  0  0  0  0  0  0  0  0  0  0  0
   26.7099  -19.9118   -9.9585 C   0  0  0  0  0  0  0  0  0  0  0  0
   29.2337  -21.8004  -14.9685 O   0  0  0  0  0  0  0  0  0  0  0  0
  2  1  1  0
  3  4  1  6
  3  5  1  0
  3  2  1  0
  5  6  1  1
  7  8  2  0
  7  5  1  0
  9  7  1  0
 10 21  1  0
 10  9  1  0
 10 11  1  6
 12 11  1  0
 13 12  2  0
 14 15  1  0
 14 13  1  0
 15 20  2  0
 16 15  1  0
 16 17  2  0
 17 18  1  0
 18 19  2  0
 20 12  1  0
 20 19  1  0
 21 30  1  0
 22 21  2  0
 23 24  1  0
 24 25  2  0
 24 34  1  0
 25 26  1  0
 26 27  2  0
 27 28  1  0
 29 28  1  1
 29 31  1  0
 30 29  1  0
 31 32  2  0
 31 35  1  0
 33 27  1  0
 34 33  2  0
M  END
$$$$
