IWY.pdb
     RDKit          3D

 35 37  0  0  1  0  0  0  0  0999 V2000
   46.0526  -12.5961  -10.0770 C   0  0  0  0  0  0  0  0  0  0  0  0
   44.6290  -13.0263  -10.4713 C   0  0  0  0  0  0  0  0  0  0  0  0
   43.7165  -11.9608   -9.9838 C   0  0  2  0  0  0  0  0  0  0  0  0
   44.0222  -11.6615   -8.5361 C   0  0  0  0  0  0  0  0  0  0  0  0
   42.2606  -12.1467  -10.2695 C   0  0  2  0  0  0  0  0  0  0  0  0
   42.1683  -12.2660  -11.7365 N   0  0  0  0  0  0  0  0  0  0  0  0
   41.3889  -11.0293   -9.8722 C   0  0  0  0  0  0  0  0  0  0  0  0
   41.2940   -9.9682  -10.5823 O   0  0  0  0  0  0  0  0  0  0  0  0
   40.5869  -11.0125   -8.6976 N   0  0  0  0  0  0  0  0  0  0  0  0
   39.8047   -9.8800   -8.2643 C   0  0  1  0  0  0  0  0  0  0  0  0
   38.3633  -10.2366   -7.9482 C   0  0  0  0  0  0  0  0  0  0  0  0
   37.5388   -9.0841   -7.5277 C   0  0  0  0  0  0  0  0  0  0  0  0
   36.7465   -8.9634   -6.3880 C   0  0  0  0  0  0  0  0  0  0  0  0
   36.1329   -7.7662   -6.3695 N   0  0  0  0  0  0  0  0  0  0  0  0
   36.4897   -7.0765   -7.4646 C   0  0  0  0  0  0  0  0  0  0  0  0
   36.1400   -5.8144   -7.8947 C   0  0  0  0  0  0  0  0  0  0  0  0
   36.6410   -5.3021   -9.0601 C   0  0  0  0  0  0  0  0  0  0  0  0
   37.5048   -6.0741   -9.7985 C   0  0  0  0  0  0  0  0  0  0  0  0
   37.8431   -7.3315   -9.3551 C   0  0  0  0  0  0  0  0  0  0  0  0
   37.3629   -7.8875   -8.1894 C   0  0  0  0  0  0  0  0  0  0  0  0
   40.4557   -9.1224   -7.1788 C   0  0  0  0  0  0  0  0  0  0  0  0
   40.8913   -9.6719   -6.1247 O   0  0  0  0  0  0  0  0  0  0  0  0
   46.0787   -9.9715   -3.0072 O   0  0  0  0  0  0  0  0  0  0  0  0
   45.2802   -9.4291   -4.0246 C   0  0  0  0  0  0  0  0  0  0  0  0
   45.7972   -8.4242   -4.8340 C   0  0  0  0  0  0  0  0  0  0  0  0
   45.0544   -7.8602   -5.8449 C   0  0  0  0  0  0  0  0  0  0  0  0
   43.7642   -8.2873   -6.0777 C   0  0  0  0  0  0  0  0  0  0  0  0
   42.9730   -7.6684   -7.1582 C   0  0  0  0  0  0  0  0  0  0  0  0
   41.6959   -6.9928   -6.6435 C   0  0  2  0  0  0  0  0  0  0  0  0
   40.6128   -7.7164   -7.2992 N   0  0  0  0  0  0  0  0  0  0  0  0
   41.6833   -5.6036   -7.1120 C   0  0  0  0  0  0  0  0  0  0  0  0
   41.5475   -5.3403   -8.3250 O   0  0  0  0  0  0  0  0  0  0  0  0
   43.2483   -9.2968   -5.2625 C   0  0  0  0  0  0  0  0  0  0  0  0
   44.0006   -9.8536   -4.2544 C   0  0  0  0  0  0  0  0  0  0  0  0
   41.8214   -4.5682   -6.2156 O   0  0  0  0  0  0  0  0  0  0  0  0
  2  1  1  0
  3  4  1  1
  3  5  1  0
  3  2  1  0
  5  6  1  6
  7  8  2  0
  7  5  1  0
  9  7  1  0
 10 21  1  0
 10  9  1  0
 10 11  1  1
 12 11  1  0
 13 12  2  0
 14 15  1  0
 14 13  1  0
 15 20  2  0
 16 15  1  0
 16 17  2  0
 17 18  1  0
 18 19  2  0
 20 12  1  0
 20 19  1  0
 21 30  1  0
 22 21  2  0
 23 24  1  0
 24 25  2  0
 24 34  1  0
 25 26  1  0
 26 27  2  0
 27 28  1  0
 29 28  1  6
 29 31  1  0
 30 29  1  0
 31 32  2  0
 31 35  1  0
 33 27  1  0
 34 33  2  0
M  END
$$$$
