IWY.pdb
     RDKit          3D

 35 37  0  0  1  0  0  0  0  0999 V2000
   31.0846  -23.1352  -18.0214 C   0  0  0  0  0  0  0  0  0  0  0  0
   29.7092  -22.4731  -18.2142 C   0  0  0  0  0  0  0  0  0  0  0  0
   29.0255  -22.5304  -16.8971 C   0  0  2  0  0  0  0  0  0  0  0  0
   29.1119  -23.9335  -16.3471 C   0  0  0  0  0  0  0  0  0  0  0  0
   27.6546  -21.9370  -16.8303 C   0  0  2  0  0  0  0  0  0  0  0  0
   27.8240  -20.5298  -17.2378 N   0  0  0  0  0  0  0  0  0  0  0  0
   27.0321  -21.9277  -15.4967 C   0  0  0  0  0  0  0  0  0  0  0  0
   26.5550  -22.9938  -14.9724 O   0  0  0  0  0  0  0  0  0  0  0  0
   26.9011  -20.7721  -14.6778 N   0  0  0  0  0  0  0  0  0  0  0  0
   26.1842  -20.7409  -13.4258 C   0  0  1  0  0  0  0  0  0  0  0  0
   26.7429  -19.7267  -12.4438 C   0  0  0  0  0  0  0  0  0  0  0  0
   27.6472  -20.3089  -11.4299 C   0  0  0  0  0  0  0  0  0  0  0  0
   28.9084  -20.8690  -11.6224 C   0  0  0  0  0  0  0  0  0  0  0  0
   29.4081  -21.3092  -10.4533 N   0  0  0  0  0  0  0  0  0  0  0  0
   28.5192  -21.0612   -9.4783 C   0  0  0  0  0  0  0  0  0  0  0  0
   28.5658  -21.3131   -8.1239 C   0  0  0  0  0  0  0  0  0  0  0  0
   27.5290  -20.9595   -7.3044 C   0  0  0  0  0  0  0  0  0  0  0  0
   26.4333  -20.3446   -7.8602 C   0  0  0  0  0  0  0  0  0  0  0  0
   26.4029  -20.1009   -9.2137 C   0  0  0  0  0  0  0  0  0  0  0  0
   27.4228  -20.4398  -10.0760 C   0  0  0  0  0  0  0  0  0  0  0  0
   24.7263  -20.6130  -13.6097 C   0  0  0  0  0  0  0  0  0  0  0  0
   24.2037  -19.7361  -14.3585 O   0  0  0  0  0  0  0  0  0  0  0  0
   16.2148  -22.9585  -12.2877 O   0  0  0  0  0  0  0  0  0  0  0  0
   17.6148  -22.8981  -12.3435 C   0  0  0  0  0  0  0  0  0  0  0  0
   18.3321  -22.6286  -11.1838 C   0  0  0  0  0  0  0  0  0  0  0  0
   19.7057  -22.5590  -11.1864 C   0  0  0  0  0  0  0  0  0  0  0  0
   20.4071  -22.7581  -12.3567 C   0  0  0  0  0  0  0  0  0  0  0  0
   21.8799  -22.6712  -12.3500 C   0  0  0  0  0  0  0  0  0  0  0  0
   22.4006  -21.4026  -13.0372 C   0  0  2  0  0  0  0  0  0  0  0  0
   23.8516  -21.5006  -12.9291 N   0  0  0  0  0  0  0  0  0  0  0  0
   21.9503  -20.2386  -12.2678 C   0  0  0  0  0  0  0  0  0  0  0  0
   22.5992  -19.8367  -11.2798 O   0  0  0  0  0  0  0  0  0  0  0  0
   19.6832  -23.0284  -13.5196 C   0  0  0  0  0  0  0  0  0  0  0  0
   18.3093  -23.0957  -13.5050 C   0  0  0  0  0  0  0  0  0  0  0  0
   20.8012  -19.5717  -12.6279 O   0  0  0  0  0  0  0  0  0  0  0  0
  2  1  1  0
  3  4  1  6
  3  5  1  0
  3  2  1  0
  5  6  1  1
  7  8  2  0
  7  5  1  0
  9  7  1  0
 10 21  1  0
 10  9  1  0
 10 11  1  1
 12 11  1  0
 13 12  2  0
 14 15  1  0
 14 13  1  0
 15 20  2  0
 16 15  1  0
 16 17  2  0
 17 18  1  0
 18 19  2  0
 20 12  1  0
 20 19  1  0
 21 30  1  0
 22 21  2  0
 23 24  1  0
 24 25  2  0
 24 34  1  0
 25 26  1  0
 26 27  2  0
 27 28  1  0
 29 28  1  1
 29 31  1  0
 30 29  1  0
 31 32  2  0
 31 35  1  0
 33 27  1  0
 34 33  2  0
M  END
$$$$
