IWY.pdb
     RDKit          3D

 35 37  0  0  1  0  0  0  0  0999 V2000
   28.8071  -16.4914  -17.2121 C   0  0  0  0  0  0  0  0  0  0  0  0
   28.2679  -17.9309  -17.2765 C   0  0  0  0  0  0  0  0  0  0  0  0
   27.5526  -18.1707  -15.9972 C   0  0  2  0  0  0  0  0  0  0  0  0
   28.4693  -17.8500  -14.8416 C   0  0  0  0  0  0  0  0  0  0  0  0
   26.8452  -19.4813  -15.8636 C   0  0  2  0  0  0  0  0  0  0  0  0
   25.9249  -19.5412  -17.0144 N   0  0  0  0  0  0  0  0  0  0  0  0
   26.0283  -19.6398  -14.6496 C   0  0  0  0  0  0  0  0  0  0  0  0
   25.2093  -18.7321  -14.2698 O   0  0  0  0  0  0  0  0  0  0  0  0
   26.0616  -20.7805  -13.8005 N   0  0  0  0  0  0  0  0  0  0  0  0
   25.3152  -20.9000  -12.5713 C   0  0  1  0  0  0  0  0  0  0  0  0
   24.1295  -21.8416  -12.6827 C   0  0  0  0  0  0  0  0  0  0  0  0
   23.0735  -21.3697  -13.6030 C   0  0  0  0  0  0  0  0  0  0  0  0
   22.9277  -21.6484  -14.9604 C   0  0  0  0  0  0  0  0  0  0  0  0
   21.8482  -21.0155  -15.4546 N   0  0  0  0  0  0  0  0  0  0  0  0
   21.2622  -20.3183  -14.4683 C   0  0  0  0  0  0  0  0  0  0  0  0
   20.1374  -19.5215  -14.4664 C   0  0  0  0  0  0  0  0  0  0  0  0
   19.7119  -18.9043  -13.3220 C   0  0  0  0  0  0  0  0  0  0  0  0
   20.4312  -19.0949  -12.1671 C   0  0  0  0  0  0  0  0  0  0  0  0
   21.5514  -19.8930  -12.1866 C   0  0  0  0  0  0  0  0  0  0  0  0
   22.0164  -20.5329  -13.3148 C   0  0  0  0  0  0  0  0  0  0  0  0
   26.1757  -21.2017  -11.4118 C   0  0  0  0  0  0  0  0  0  0  0  0
   27.1117  -22.0532  -11.4555 O   0  0  0  0  0  0  0  0  0  0  0  0
   29.8963  -19.8161   -3.4975 O   0  0  0  0  0  0  0  0  0  0  0  0
   29.3186  -19.7713   -4.7747 C   0  0  0  0  0  0  0  0  0  0  0  0
   28.1205  -19.0906   -4.9573 C   0  0  0  0  0  0  0  0  0  0  0  0
   27.5142  -19.0178   -6.1896 C   0  0  0  0  0  0  0  0  0  0  0  0
   28.0921  -19.6277   -7.2830 C   0  0  0  0  0  0  0  0  0  0  0  0
   27.4280  -19.5517   -8.5983 C   0  0  0  0  0  0  0  0  0  0  0  0
   26.7033  -20.8512   -8.9707 C   0  0  2  0  0  0  0  0  0  0  0  0
   25.9651  -20.5202  -10.1841 N   0  0  0  0  0  0  0  0  0  0  0  0
   25.7433  -21.1692   -7.9093 C   0  0  0  0  0  0  0  0  0  0  0  0
   24.5538  -20.7987   -7.9926 O   0  0  0  0  0  0  0  0  0  0  0  0
   29.2954  -20.3106   -7.0957 C   0  0  0  0  0  0  0  0  0  0  0  0
   29.8927  -20.3767   -5.8583 C   0  0  0  0  0  0  0  0  0  0  0  0
   26.1439  -21.8838   -6.8032 O   0  0  0  0  0  0  0  0  0  0  0  0
  2  1  1  0
  3  4  1  1
  3  5  1  0
  3  2  1  0
  5  6  1  6
  7  8  2  0
  7  5  1  0
  9  7  1  0
 10 21  1  0
 10  9  1  0
 10 11  1  6
 12 11  1  0
 13 12  2  0
 14 15  1  0
 14 13  1  0
 15 20  2  0
 16 15  1  0
 16 17  2  0
 17 18  1  0
 18 19  2  0
 20 12  1  0
 20 19  1  0
 21 30  1  0
 22 21  2  0
 23 24  1  0
 24 25  2  0
 24 34  1  0
 25 26  1  0
 26 27  2  0
 27 28  1  0
 29 28  1  1
 29 31  1  0
 30 29  1  0
 31 32  2  0
 31 35  1  0
 33 27  1  0
 34 33  2  0
M  END
$$$$
