IWY.pdb
     RDKit          3D

 35 37  0  0  1  0  0  0  0  0999 V2000
   29.4318  -20.4753  -12.5933 C   0  0  0  0  0  0  0  0  0  0  0  0
   28.2326  -21.3288  -12.1454 C   0  0  0  0  0  0  0  0  0  0  0  0
   27.0124  -20.6022  -12.5798 C   0  0  2  0  0  0  0  0  0  0  0  0
   27.1432  -19.1418  -12.2210 C   0  0  0  0  0  0  0  0  0  0  0  0
   25.7014  -21.2066  -12.1900 C   0  0  2  0  0  0  0  0  0  0  0  0
   25.8545  -22.6519  -12.4396 N   0  0  0  0  0  0  0  0  0  0  0  0
   24.5382  -20.7551  -12.9707 C   0  0  0  0  0  0  0  0  0  0  0  0
   23.8695  -19.7157  -12.6367 O   0  0  0  0  0  0  0  0  0  0  0  0
   24.0525  -21.4042  -14.1395 N   0  0  0  0  0  0  0  0  0  0  0  0
   22.8814  -20.9875  -14.8726 C   0  0  1  0  0  0  0  0  0  0  0  0
   23.1896  -20.5627  -16.2971 C   0  0  0  0  0  0  0  0  0  0  0  0
   24.1529  -19.4458  -16.3948 C   0  0  0  0  0  0  0  0  0  0  0  0
   25.5027  -19.5013  -16.7357 C   0  0  0  0  0  0  0  0  0  0  0  0
   26.0467  -18.2714  -16.6939 N   0  0  0  0  0  0  0  0  0  0  0  0
   25.1012  -17.3886  -16.3346 C   0  0  0  0  0  0  0  0  0  0  0  0
   25.1566  -16.0224  -16.1597 C   0  0  0  0  0  0  0  0  0  0  0  0
   24.0462  -15.3126  -15.7925 C   0  0  0  0  0  0  0  0  0  0  0  0
   22.8673  -15.9912  -15.6002 C   0  0  0  0  0  0  0  0  0  0  0  0
   22.8296  -17.3547  -15.7788 C   0  0  0  0  0  0  0  0  0  0  0  0
   23.9219  -18.1094  -16.1471 C   0  0  0  0  0  0  0  0  0  0  0  0
   21.7841  -21.9703  -14.7955 C   0  0  0  0  0  0  0  0  0  0  0  0
   21.9183  -23.1775  -15.1527 O   0  0  0  0  0  0  0  0  0  0  0  0
   18.1257  -25.5966   -8.0631 O   0  0  0  0  0  0  0  0  0  0  0  0
   18.7136  -24.7829   -9.0425 C   0  0  0  0  0  0  0  0  0  0  0  0
   19.3133  -25.3733  -10.1488 C   0  0  0  0  0  0  0  0  0  0  0  0
   19.9032  -24.6192  -11.1362 C   0  0  0  0  0  0  0  0  0  0  0  0
   19.9106  -23.2433  -11.0458 C   0  0  0  0  0  0  0  0  0  0  0  0
   20.5550  -22.4446  -12.1058 C   0  0  0  0  0  0  0  0  0  0  0  0
   19.7296  -22.4011  -13.3979 C   0  0  2  0  0  0  0  0  0  0  0  0
   20.5146  -21.5689  -14.3023 N   0  0  0  0  0  0  0  0  0  0  0  0
   18.4611  -21.7218  -13.1170 C   0  0  0  0  0  0  0  0  0  0  0  0
   17.3742  -22.3248  -13.2357 O   0  0  0  0  0  0  0  0  0  0  0  0
   19.3073  -22.6539   -9.9331 C   0  0  0  0  0  0  0  0  0  0  0  0
   18.7204  -23.4184   -8.9516 C   0  0  0  0  0  0  0  0  0  0  0  0
   18.4535  -20.4048  -12.7168 O   0  0  0  0  0  0  0  0  0  0  0  0
  2  1  1  0
  3  4  1  1
  3  5  1  0
  3  2  1  0
  5  6  1  6
  7  8  2  0
  7  5  1  0
  9  7  1  0
 10 21  1  0
 10  9  1  0
 10 11  1  6
 12 11  1  0
 13 12  2  0
 14 15  1  0
 14 13  1  0
 15 20  2  0
 16 15  1  0
 16 17  2  0
 17 18  1  0
 18 19  2  0
 20 12  1  0
 20 19  1  0
 21 30  1  0
 22 21  2  0
 23 24  1  0
 24 25  2  0
 24 34  1  0
 25 26  1  0
 26 27  2  0
 27 28  1  0
 29 28  1  1
 29 31  1  0
 30 29  1  0
 31 32  2  0
 31 35  1  0
 33 27  1  0
 34 33  2  0
M  END
$$$$
