IWY.pdb
     RDKit          3D

 35 37  0  0  1  0  0  0  0  0999 V2000
   16.7842  -15.4749  -15.6077 C   0  0  0  0  0  0  0  0  0  0  0  0
   17.1795  -14.3957  -16.6305 C   0  0  0  0  0  0  0  0  0  0  0  0
   17.2160  -13.1079  -15.8917 C   0  0  2  0  0  0  0  0  0  0  0  0
   15.9150  -12.9175  -15.1502 C   0  0  0  0  0  0  0  0  0  0  0  0
   17.6531  -11.9060  -16.6666 C   0  0  2  0  0  0  0  0  0  0  0  0
   18.8901  -12.3204  -17.3542 N   0  0  0  0  0  0  0  0  0  0  0  0
   17.9841  -10.7190  -15.8618 C   0  0  0  0  0  0  0  0  0  0  0  0
   17.1310  -10.1881  -15.0684 O   0  0  0  0  0  0  0  0  0  0  0  0
   19.2447  -10.0603  -15.8801 N   0  0  0  0  0  0  0  0  0  0  0  0
   19.5356   -8.8433  -15.1613 C   0  0  1  0  0  0  0  0  0  0  0  0
   21.0230   -8.5961  -14.9846 C   0  0  0  0  0  0  0  0  0  0  0  0
   21.3424   -7.3296  -14.2928 C   0  0  0  0  0  0  0  0  0  0  0  0
   21.2557   -7.0475  -12.9311 C   0  0  0  0  0  0  0  0  0  0  0  0
   21.6151   -5.7729  -12.6936 N   0  0  0  0  0  0  0  0  0  0  0  0
   21.9419   -5.1882  -13.8570 C   0  0  0  0  0  0  0  0  0  0  0  0
   22.3753   -3.9103  -14.1387 C   0  0  0  0  0  0  0  0  0  0  0  0
   22.6628   -3.5294  -15.4208 C   0  0  0  0  0  0  0  0  0  0  0  0
   22.5108   -4.4503  -16.4289 C   0  0  0  0  0  0  0  0  0  0  0  0
   22.0772   -5.7212  -16.1304 C   0  0  0  0  0  0  0  0  0  0  0  0
   21.7756   -6.1479  -14.8554 C   0  0  0  0  0  0  0  0  0  0  0  0
   18.8251   -7.6745  -15.7133 C   0  0  0  0  0  0  0  0  0  0  0  0
   18.7604   -7.4346  -16.9548 O   0  0  0  0  0  0  0  0  0  0  0  0
   13.6845   -0.4105  -15.4114 O   0  0  0  0  0  0  0  0  0  0  0  0
   14.3831   -1.5928  -15.1267 C   0  0  0  0  0  0  0  0  0  0  0  0
   14.0069   -2.7746  -15.7543 C   0  0  0  0  0  0  0  0  0  0  0  0
   14.6601   -3.9598  -15.5090 C   0  0  0  0  0  0  0  0  0  0  0  0
   15.7158   -3.9984  -14.6228 C   0  0  0  0  0  0  0  0  0  0  0  0
   16.4029   -5.2771  -14.3595 C   0  0  0  0  0  0  0  0  0  0  0  0
   17.5919   -5.5140  -15.2990 C   0  0  2  0  0  0  0  0  0  0  0  0
   18.1777   -6.7662  -14.8347 N   0  0  0  0  0  0  0  0  0  0  0  0
   18.5659   -4.4369  -15.0974 C   0  0  0  0  0  0  0  0  0  0  0  0
   19.3655   -4.4707  -14.1391 O   0  0  0  0  0  0  0  0  0  0  0  0
   16.0907   -2.8093  -13.9942 C   0  0  0  0  0  0  0  0  0  0  0  0
   15.4300   -1.6296  -14.2475 C   0  0  0  0  0  0  0  0  0  0  0  0
   18.6107   -3.3708  -15.9669 O   0  0  0  0  0  0  0  0  0  0  0  0
  2  1  1  0
  3  4  1  6
  3  5  1  0
  3  2  1  0
  5  6  1  1
  7  8  2  0
  7  5  1  0
  9  7  1  0
 10 21  1  0
 10  9  1  0
 10 11  1  6
 12 11  1  0
 13 12  2  0
 14 15  1  0
 14 13  1  0
 15 20  2  0
 16 15  1  0
 16 17  2  0
 17 18  1  0
 18 19  2  0
 20 12  1  0
 20 19  1  0
 21 30  1  0
 22 21  2  0
 23 24  1  0
 24 25  2  0
 24 34  1  0
 25 26  1  0
 26 27  2  0
 27 28  1  0
 29 28  1  1
 29 31  1  0
 30 29  1  0
 31 32  2  0
 31 35  1  0
 33 27  1  0
 34 33  2  0
M  END
$$$$
