IWY.pdb
     RDKit          3D

 35 37  0  0  1  0  0  0  0  0999 V2000
   23.9860  -17.1327  -16.5322 C   0  0  0  0  0  0  0  0  0  0  0  0
   22.5895  -16.4897  -16.5906 C   0  0  0  0  0  0  0  0  0  0  0  0
   21.6505  -17.4652  -15.9805 C   0  0  2  0  0  0  0  0  0  0  0  0
   21.7690  -17.4035  -14.4770 C   0  0  0  0  0  0  0  0  0  0  0  0
   21.6783  -18.8541  -16.5338 C   0  0  2  0  0  0  0  0  0  0  0  0
   21.5560  -18.6893  -17.9942 N   0  0  0  0  0  0  0  0  0  0  0  0
   20.5756  -19.7295  -16.1049 C   0  0  0  0  0  0  0  0  0  0  0  0
   19.6376  -19.3025  -15.3454 O   0  0  0  0  0  0  0  0  0  0  0  0
   20.4409  -21.0955  -16.4779 N   0  0  0  0  0  0  0  0  0  0  0  0
   19.3401  -21.9406  -16.0823 C   0  0  1  0  0  0  0  0  0  0  0  0
   18.9198  -22.9182  -17.1651 C   0  0  0  0  0  0  0  0  0  0  0  0
   17.6832  -23.6649  -16.8517 C   0  0  0  0  0  0  0  0  0  0  0  0
   16.4310  -23.1538  -16.5171 C   0  0  0  0  0  0  0  0  0  0  0  0
   15.5642  -24.1557  -16.2824 N   0  0  0  0  0  0  0  0  0  0  0  0
   16.1971  -25.3277  -16.4499 C   0  0  0  0  0  0  0  0  0  0  0  0
   15.7470  -26.6254  -16.3333 C   0  0  0  0  0  0  0  0  0  0  0  0
   16.5815  -27.6849  -16.5630 C   0  0  0  0  0  0  0  0  0  0  0  0
   17.8848  -27.4297  -16.9145 C   0  0  0  0  0  0  0  0  0  0  0  0
   18.3176  -26.1288  -17.0261 C   0  0  0  0  0  0  0  0  0  0  0  0
   17.5135  -25.0322  -16.8038 C   0  0  0  0  0  0  0  0  0  0  0  0
   19.5666  -22.5952  -14.7800 C   0  0  0  0  0  0  0  0  0  0  0  0
   20.6837  -23.0880  -14.4452 O   0  0  0  0  0  0  0  0  0  0  0  0
   18.0670  -24.3379   -6.2357 O   0  0  0  0  0  0  0  0  0  0  0  0
   18.1290  -23.8345   -7.5432 C   0  0  0  0  0  0  0  0  0  0  0  0
   16.9509  -23.6359   -8.2536 C   0  0  0  0  0  0  0  0  0  0  0  0
   16.9586  -23.1446   -9.5382 C   0  0  0  0  0  0  0  0  0  0  0  0
   18.1527  -22.8352  -10.1543 C   0  0  0  0  0  0  0  0  0  0  0  0
   18.1499  -22.3181  -11.5361 C   0  0  0  0  0  0  0  0  0  0  0  0
   18.6513  -23.3496  -12.5545 C   0  0  2  0  0  0  0  0  0  0  0  0
   18.5018  -22.6877  -13.8453 N   0  0  0  0  0  0  0  0  0  0  0  0
   17.7588  -24.5122  -12.5170 C   0  0  0  0  0  0  0  0  0  0  0  0
   16.6045  -24.4461  -12.9886 O   0  0  0  0  0  0  0  0  0  0  0  0
   19.3340  -23.0360   -9.4376 C   0  0  0  0  0  0  0  0  0  0  0  0
   19.3141  -23.5280   -8.1532 C   0  0  0  0  0  0  0  0  0  0  0  0
   18.1852  -25.6961  -11.9591 O   0  0  0  0  0  0  0  0  0  0  0  0
  2  1  1  0
  3  4  1  1
  3  5  1  0
  3  2  1  0
  5  6  1  6
  7  8  2  0
  7  5  1  0
  9  7  1  0
 10 21  1  0
 10  9  1  0
 10 11  1  6
 12 11  1  0
 13 12  2  0
 14 15  1  0
 14 13  1  0
 15 20  2  0
 16 15  1  0
 16 17  2  0
 17 18  1  0
 18 19  2  0
 20 12  1  0
 20 19  1  0
 21 30  1  0
 22 21  2  0
 23 24  1  0
 24 25  2  0
 24 34  1  0
 25 26  1  0
 26 27  2  0
 27 28  1  0
 29 28  1  1
 29 31  1  0
 30 29  1  0
 31 32  2  0
 31 35  1  0
 33 27  1  0
 34 33  2  0
M  END
$$$$
