IWY.pdb
     RDKit          3D

 35 37  0  0  1  0  0  0  0  0999 V2000
   34.3338  -38.2677  -12.5733 C   0  0  0  0  0  0  0  0  0  0  0  0
   35.2180  -37.8963  -11.3702 C   0  0  0  0  0  0  0  0  0  0  0  0
   35.5586  -36.4592  -11.5252 C   0  0  2  0  0  0  0  0  0  0  0  0
   36.1559  -36.2293  -12.8923 C   0  0  0  0  0  0  0  0  0  0  0  0
   36.3362  -35.8337  -10.4116 C   0  0  2  0  0  0  0  0  0  0  0  0
   37.5710  -36.6332  -10.3078 N   0  0  0  0  0  0  0  0  0  0  0  0
   35.6890  -35.8666   -9.0901 C   0  0  0  0  0  0  0  0  0  0  0  0
   35.9557  -36.7822   -8.2359 O   0  0  0  0  0  0  0  0  0  0  0  0
   34.7324  -34.9157   -8.6386 N   0  0  0  0  0  0  0  0  0  0  0  0
   34.0614  -34.9816   -7.3628 C   0  0  1  0  0  0  0  0  0  0  0  0
   33.6689  -33.6175   -6.8242 C   0  0  0  0  0  0  0  0  0  0  0  0
   33.0586  -33.6570   -5.4786 C   0  0  0  0  0  0  0  0  0  0  0  0
   33.6869  -33.8809   -4.2552 C   0  0  0  0  0  0  0  0  0  0  0  0
   32.7862  -33.8603   -3.2560 N   0  0  0  0  0  0  0  0  0  0  0  0
   31.5685  -33.6284   -3.7716 C   0  0  0  0  0  0  0  0  0  0  0  0
   30.3357  -33.5100   -3.1664 C   0  0  0  0  0  0  0  0  0  0  0  0
   29.2098  -33.2595   -3.9020 C   0  0  0  0  0  0  0  0  0  0  0  0
   29.3315  -33.1271   -5.2640 C   0  0  0  0  0  0  0  0  0  0  0  0
   30.5693  -33.2483   -5.8519 C   0  0  0  0  0  0  0  0  0  0  0  0
   31.7286  -33.5006   -5.1513 C   0  0  0  0  0  0  0  0  0  0  0  0
   32.9398  -35.9397   -7.3602 C   0  0  0  0  0  0  0  0  0  0  0  0
   32.1335  -36.0543   -8.3296 O   0  0  0  0  0  0  0  0  0  0  0  0
   28.2637  -43.1010   -7.1938 O   0  0  0  0  0  0  0  0  0  0  0  0
   29.2286  -42.0854   -7.1266 C   0  0  0  0  0  0  0  0  0  0  0  0
   29.0462  -40.9221   -7.8653 C   0  0  0  0  0  0  0  0  0  0  0  0
   29.9631  -39.8975   -7.8333 C   0  0  0  0  0  0  0  0  0  0  0  0
   31.0970  -40.0067   -7.0563 C   0  0  0  0  0  0  0  0  0  0  0  0
   32.0788  -38.9056   -7.0372 C   0  0  0  0  0  0  0  0  0  0  0  0
   31.6325  -37.7304   -6.1585 C   0  0  2  0  0  0  0  0  0  0  0  0
   32.7364  -36.7806   -6.2343 N   0  0  0  0  0  0  0  0  0  0  0  0
   31.5136  -38.2024   -4.7755 C   0  0  0  0  0  0  0  0  0  0  0  0
   32.5220  -38.3008   -4.0458 O   0  0  0  0  0  0  0  0  0  0  0  0
   31.2768  -41.1766   -6.3158 C   0  0  0  0  0  0  0  0  0  0  0  0
   30.3528  -42.1950   -6.3557 C   0  0  0  0  0  0  0  0  0  0  0  0
   30.2827  -38.5440   -4.2627 O   0  0  0  0  0  0  0  0  0  0  0  0
  2  1  1  0
  3  4  1  6
  3  5  1  0
  3  2  1  0
  5  6  1  1
  7  8  2  0
  7  5  1  0
  9  7  1  0
 10 21  1  0
 10  9  1  0
 10 11  1  6
 12 11  1  0
 13 12  2  0
 14 15  1  0
 14 13  1  0
 15 20  2  0
 16 15  1  0
 16 17  2  0
 17 18  1  0
 18 19  2  0
 20 12  1  0
 20 19  1  0
 21 30  1  0
 22 21  2  0
 23 24  1  0
 24 25  2  0
 24 34  1  0
 25 26  1  0
 26 27  2  0
 27 28  1  0
 29 28  1  6
 29 31  1  0
 30 29  1  0
 31 32  2  0
 31 35  1  0
 33 27  1  0
 34 33  2  0
M  END
$$$$
