IWY.pdb
     RDKit          3D

 35 37  0  0  1  0  0  0  0  0999 V2000
   23.5198  -38.0892  -15.4967 C   0  0  0  0  0  0  0  0  0  0  0  0
   23.3463  -36.7193  -16.1753 C   0  0  0  0  0  0  0  0  0  0  0  0
   23.5000  -35.6979  -15.1082 C   0  0  2  0  0  0  0  0  0  0  0  0
   22.6735  -36.0958  -13.9094 C   0  0  0  0  0  0  0  0  0  0  0  0
   23.3230  -34.2712  -15.5195 C   0  0  2  0  0  0  0  0  0  0  0  0
   24.4744  -33.9765  -16.3925 N   0  0  0  0  0  0  0  0  0  0  0  0
   23.3493  -33.2880  -14.4246 C   0  0  0  0  0  0  0  0  0  0  0  0
   24.4520  -32.8432  -13.9497 O   0  0  0  0  0  0  0  0  0  0  0  0
   22.1911  -32.7463  -13.8013 N   0  0  0  0  0  0  0  0  0  0  0  0
   22.2221  -31.8186  -12.6965 C   0  0  1  0  0  0  0  0  0  0  0  0
   20.9688  -30.9677  -12.5970 C   0  0  0  0  0  0  0  0  0  0  0  0
   21.0823  -29.8419  -11.6458 C   0  0  0  0  0  0  0  0  0  0  0  0
   22.1189  -28.9188  -11.5251 C   0  0  0  0  0  0  0  0  0  0  0  0
   21.8630  -28.0561  -10.5250 N   0  0  0  0  0  0  0  0  0  0  0  0
   20.6827  -28.3716   -9.9685 C   0  0  0  0  0  0  0  0  0  0  0  0
   19.9874  -27.7925   -8.9286 C   0  0  0  0  0  0  0  0  0  0  0  0
   18.7755  -28.2858   -8.5290 C   0  0  0  0  0  0  0  0  0  0  0  0
   18.2610  -29.3760   -9.1879 C   0  0  0  0  0  0  0  0  0  0  0  0
   18.9680  -29.9418  -10.2234 C   0  0  0  0  0  0  0  0  0  0  0  0
   20.1908  -29.4793  -10.6587 C   0  0  0  0  0  0  0  0  0  0  0  0
   22.5728  -32.4683  -11.4195 C   0  0  0  0  0  0  0  0  0  0  0  0
   22.0757  -33.5735  -11.0530 O   0  0  0  0  0  0  0  0  0  0  0  0
   27.4464  -33.5234   -4.0362 O   0  0  0  0  0  0  0  0  0  0  0  0
   26.8816  -33.0517   -5.2302 C   0  0  0  0  0  0  0  0  0  0  0  0
   25.7739  -32.2138   -5.1756 C   0  0  0  0  0  0  0  0  0  0  0  0
   25.1839  -31.7248   -6.3177 C   0  0  0  0  0  0  0  0  0  0  0  0
   25.6876  -32.0617   -7.5563 C   0  0  0  0  0  0  0  0  0  0  0  0
   25.0408  -31.5395   -8.7752 C   0  0  0  0  0  0  0  0  0  0  0  0
   23.9208  -32.4533   -9.2881 C   0  0  2  0  0  0  0  0  0  0  0  0
   23.5062  -31.8474  -10.5481 N   0  0  0  0  0  0  0  0  0  0  0  0
   22.7998  -32.3893   -8.3453 C   0  0  0  0  0  0  0  0  0  0  0  0
   21.8359  -31.6228   -8.5510 O   0  0  0  0  0  0  0  0  0  0  0  0
   26.8003  -32.9036   -7.6071 C   0  0  0  0  0  0  0  0  0  0  0  0
   27.3822  -33.3866   -6.4580 C   0  0  0  0  0  0  0  0  0  0  0  0
   22.7968  -33.1777   -7.2170 O   0  0  0  0  0  0  0  0  0  0  0  0
  2  1  1  0
  3  4  1  1
  3  5  1  0
  3  2  1  0
  5  6  1  6
  7  8  2  0
  7  5  1  0
  9  7  1  0
 10 21  1  0
 10  9  1  0
 10 11  1  1
 12 11  1  0
 13 12  2  0
 14 15  1  0
 14 13  1  0
 15 20  2  0
 16 15  1  0
 16 17  2  0
 17 18  1  0
 18 19  2  0
 20 12  1  0
 20 19  1  0
 21 30  1  0
 22 21  2  0
 23 24  1  0
 24 25  2  0
 24 34  1  0
 25 26  1  0
 26 27  2  0
 27 28  1  0
 29 28  1  1
 29 31  1  0
 30 29  1  0
 31 32  2  0
 31 35  1  0
 33 27  1  0
 34 33  2  0
M  END
$$$$
