IYK.pdb
     RDKit          3D

 30 30  0  0  1  0  0  0  0  0999 V2000
    6.8490  -15.9689   17.6809 C   0  0  0  0  0  0  0  0  0  0  0  0
    6.8677  -14.6937   18.4656 C   0  0  0  0  0  0  0  0  0  0  0  0
    7.6230  -14.8529   19.7674 C   0  0  2  0  0  0  0  0  0  0  0  0
    7.0783  -15.9994   20.5889 C   0  0  0  0  0  0  0  0  0  0  0  0
    7.5225  -13.5672   20.5613 C   0  0  2  0  0  0  0  0  0  0  0  0
    7.8856  -12.4344   19.7681 N   0  0  0  0  0  0  0  0  0  0  0  0
    8.3755  -13.7333   21.7604 C   0  0  0  0  0  0  0  0  0  0  0  0
    9.6237  -13.6205   21.6888 O   0  0  0  0  0  0  0  0  0  0  0  0
   10.5560  -15.4588   30.1948 O   0  0  0  0  0  0  0  0  0  0  0  0
    9.8559  -15.1811   29.0231 C   0  0  0  0  0  0  0  0  0  0  0  0
    9.0272  -16.0984   28.4264 C   0  0  0  0  0  0  0  0  0  0  0  0
    8.3419  -15.8094   27.2683 C   0  0  0  0  0  0  0  0  0  0  0  0
    8.4558  -14.5672   26.6418 C   0  0  0  0  0  0  0  0  0  0  0  0
    7.7460  -14.3359   25.3907 C   0  0  0  0  0  0  0  0  0  0  0  0
    8.6371  -14.1767   24.1985 C   0  0  2  0  0  0  0  0  0  0  0  0
    7.7819  -14.0207   22.9953 N   0  0  0  0  0  0  0  0  0  0  0  0
    9.4358  -15.3796   23.9512 C   0  0  0  0  0  0  0  0  0  0  0  0
   10.6960  -15.2334   23.7767 O   0  0  0  0  0  0  0  0  0  0  0  0
    9.2920  -13.6642   27.2588 C   0  0  0  0  0  0  0  0  0  0  0  0
    9.9806  -13.9494   28.4190 C   0  0  0  0  0  0  0  0  0  0  0  0
    8.9574  -16.7130   23.8911 N   0  0  0  0  0  0  0  0  0  0  0  0
    9.9503  -17.7875   23.8202 C   0  0  1  0  0  0  0  0  0  0  0  0
   10.7387  -17.5957   22.5054 C   0  0  0  0  0  0  0  0  0  0  0  0
   11.7896  -18.6444   22.4339 C   0  0  0  0  0  0  0  0  0  0  0  0
   12.6435  -18.6720   21.2172 C   0  0  0  0  0  0  0  0  0  0  0  0
   13.7353  -19.6678   21.2914 C   0  0  0  0  0  0  0  0  0  0  0  0
   14.6334  -19.5938   20.1868 N   0  0  0  0  0  0  0  0  0  0  0  0
   10.8163  -17.7811   24.9953 C   0  0  0  0  0  0  0  0  0  0  0  0
   10.6089  -18.6295   25.9307 O   0  0  0  0  0  0  0  0  0  0  0  0
   11.8859  -16.9274   25.2203 O   0  0  0  0  0  0  0  0  0  0  0  0
  2  3  1  0
  2  1  1  0
  3  4  1  1
  5  3  1  0
  5  6  1  6
  7  5  1  0
  8  7  2  0
  9 10  1  0
 10 20  2  0
 10 11  1  0
 11 12  2  0
 12 13  1  0
 13 14  1  0
 15 14  1  1
 15 16  1  0
 16  7  1  0
 17 15  1  0
 17 18  2  0
 19 13  2  0
 20 19  1  0
 21 17  1  0
 22 21  1  0
 22 28  1  0
 22 23  1  6
 24 23  1  0
 25 24  1  0
 26 25  1  0
 26 27  1  0
 28 29  2  0
 28 30  1  0
M  END
$$$$
