IYK.pdb
     RDKit          3D

 30 30  0  0  1  0  0  0  0  0999 V2000
    8.5299  -20.5373   18.8412 C   0  0  0  0  0  0  0  0  0  0  0  0
    8.5330  -19.0575   18.6120 C   0  0  0  0  0  0  0  0  0  0  0  0
    8.7453  -18.2955   19.9023 C   0  0  2  0  0  0  0  0  0  0  0  0
    7.6489  -18.5817   20.9033 C   0  0  0  0  0  0  0  0  0  0  0  0
    8.7842  -16.8115   19.6030 C   0  0  2  0  0  0  0  0  0  0  0  0
    9.7759  -16.5032   18.6202 N   0  0  0  0  0  0  0  0  0  0  0  0
    9.0093  -16.1176   20.8917 C   0  0  0  0  0  0  0  0  0  0  0  0
   10.1317  -16.1411   21.4534 O   0  0  0  0  0  0  0  0  0  0  0  0
    6.8592  -11.5482   28.2546 O   0  0  0  0  0  0  0  0  0  0  0  0
    6.8986  -12.1275   26.9885 C   0  0  0  0  0  0  0  0  0  0  0  0
    7.6231  -11.5879   25.9550 C   0  0  0  0  0  0  0  0  0  0  0  0
    7.6522  -12.1718   24.7089 C   0  0  0  0  0  0  0  0  0  0  0  0
    6.9454  -13.3436   24.4338 C   0  0  0  0  0  0  0  0  0  0  0  0
    6.9731  -13.8882   23.0827 C   0  0  0  0  0  0  0  0  0  0  0  0
    8.1872  -14.7080   22.7750 C   0  0  2  0  0  0  0  0  0  0  0  0
    7.9541  -15.4232   21.4953 N   0  0  0  0  0  0  0  0  0  0  0  0
    8.4009  -15.7601   23.7719 C   0  0  0  0  0  0  0  0  0  0  0  0
    7.5829  -16.7452   23.7839 O   0  0  0  0  0  0  0  0  0  0  0  0
    6.2269  -13.8658   25.4856 C   0  0  0  0  0  0  0  0  0  0  0  0
    6.1947  -13.2842   26.7355 C   0  0  0  0  0  0  0  0  0  0  0  0
    9.4386  -15.8106   24.7367 N   0  0  0  0  0  0  0  0  0  0  0  0
    9.5229  -17.0049   25.5805 C   0  0  1  0  0  0  0  0  0  0  0  0
   10.0145  -18.1639   24.6849 C   0  0  0  0  0  0  0  0  0  0  0  0
   10.1987  -19.3673   25.5378 C   0  0  0  0  0  0  0  0  0  0  0  0
   10.6362  -20.6189   24.8654 C   0  0  0  0  0  0  0  0  0  0  0  0
   10.7319  -21.7741   25.7850 C   0  0  0  0  0  0  0  0  0  0  0  0
   10.9783  -23.0052   25.1098 N   0  0  0  0  0  0  0  0  0  0  0  0
   10.3970  -16.7774   26.7273 C   0  0  0  0  0  0  0  0  0  0  0  0
   11.2974  -15.8706   26.6582 O   0  0  0  0  0  0  0  0  0  0  0  0
   10.3576  -17.4576   27.9352 O   0  0  0  0  0  0  0  0  0  0  0  0
  2  3  1  0
  2  1  1  0
  3  4  1  1
  5  3  1  0
  5  6  1  6
  7  5  1  0
  8  7  2  0
  9 10  1  0
 10 20  2  0
 10 11  1  0
 11 12  2  0
 12 13  1  0
 13 14  1  0
 15 14  1  1
 15 16  1  0
 16  7  1  0
 17 15  1  0
 17 18  2  0
 19 13  2  0
 20 19  1  0
 21 17  1  0
 22 21  1  0
 22 28  1  0
 22 23  1  6
 24 23  1  0
 25 24  1  0
 26 25  1  0
 26 27  1  0
 28 29  2  0
 28 30  1  0
M  END
$$$$
