IYK.pdb
     RDKit          3D

 30 30  0  0  1  0  0  0  0  0999 V2000
    6.4443  -12.0342   19.0933 C   0  0  0  0  0  0  0  0  0  0  0  0
    6.5697  -13.4249   19.6344 C   0  0  0  0  0  0  0  0  0  0  0  0
    7.8778  -13.6193   20.3704 C   0  0  2  0  0  0  0  0  0  0  0  0
    9.0644  -13.4457   19.4495 C   0  0  0  0  0  0  0  0  0  0  0  0
    7.9055  -15.0064   20.9775 C   0  0  2  0  0  0  0  0  0  0  0  0
    6.5898  -15.4572   21.3091 N   0  0  0  0  0  0  0  0  0  0  0  0
    8.8105  -14.9465   22.1482 C   0  0  0  0  0  0  0  0  0  0  0  0
   10.0418  -14.7476   22.0062 O   0  0  0  0  0  0  0  0  0  0  0  0
   11.1269  -15.5917   30.7652 O   0  0  0  0  0  0  0  0  0  0  0  0
   10.4688  -15.4167   29.5500 C   0  0  0  0  0  0  0  0  0  0  0  0
   10.3858  -14.1961   28.9276 C   0  0  0  0  0  0  0  0  0  0  0  0
    9.7317  -14.0388   27.7268 C   0  0  0  0  0  0  0  0  0  0  0  0
    9.1194  -15.1143   27.0812 C   0  0  0  0  0  0  0  0  0  0  0  0
    8.3984  -14.8780   25.8375 C   0  0  0  0  0  0  0  0  0  0  0  0
    9.2041  -15.1325   24.6017 C   0  0  2  0  0  0  0  0  0  0  0  0
    8.2861  -15.1142   23.4353 N   0  0  0  0  0  0  0  0  0  0  0  0
    9.7975  -16.4719   24.6049 C   0  0  0  0  0  0  0  0  0  0  0  0
    9.0060  -17.4751   24.5222 O   0  0  0  0  0  0  0  0  0  0  0  0
    9.2164  -16.3277   27.7243 C   0  0  0  0  0  0  0  0  0  0  0  0
    9.8705  -16.4899   28.9275 C   0  0  0  0  0  0  0  0  0  0  0  0
   11.1786  -16.7832   24.6829 N   0  0  0  0  0  0  0  0  0  0  0  0
   11.5537  -18.1983   24.7278 C   0  0  1  0  0  0  0  0  0  0  0  0
   12.3850  -18.4916   23.4590 C   0  0  0  0  0  0  0  0  0  0  0  0
   11.6905  -19.5502   22.6801 C   0  0  0  0  0  0  0  0  0  0  0  0
   12.3304  -19.9960   21.4145 C   0  0  0  0  0  0  0  0  0  0  0  0
   11.5072  -20.9594   20.6507 C   0  0  0  0  0  0  0  0  0  0  0  0
   12.0253  -21.2270   19.3498 N   0  0  0  0  0  0  0  0  0  0  0  0
   12.2804  -18.5107   25.9547 C   0  0  0  0  0  0  0  0  0  0  0  0
   13.0650  -17.6339   26.4582 O   0  0  0  0  0  0  0  0  0  0  0  0
   12.2105  -19.6974   26.6689 O   0  0  0  0  0  0  0  0  0  0  0  0
  2  3  1  0
  2  1  1  0
  3  4  1  6
  5  3  1  0
  5  6  1  1
  7  5  1  0
  8  7  2  0
  9 10  1  0
 10 20  2  0
 10 11  1  0
 11 12  2  0
 12 13  1  0
 13 14  1  0
 15 14  1  1
 15 16  1  0
 16  7  1  0
 17 15  1  0
 17 18  2  0
 19 13  2  0
 20 19  1  0
 21 17  1  0
 22 21  1  0
 22 28  1  0
 22 23  1  6
 24 23  1  0
 25 24  1  0
 26 25  1  0
 26 27  1  0
 28 29  2  0
 28 30  1  0
M  END
$$$$
