IYK.pdb
     RDKit          3D

 30 30  0  0  1  0  0  0  0  0999 V2000
    8.5464  -20.6890   18.3457 C   0  0  0  0  0  0  0  0  0  0  0  0
    8.2663  -19.2259   18.1934 C   0  0  0  0  0  0  0  0  0  0  0  0
    8.6214  -18.4582   19.4483 C   0  0  2  0  0  0  0  0  0  0  0  0
    7.8399  -18.9552   20.6434 C   0  0  0  0  0  0  0  0  0  0  0  0
    8.3336  -16.9875   19.2300 C   0  0  2  0  0  0  0  0  0  0  0  0
    9.0097  -16.4898   18.0726 N   0  0  0  0  0  0  0  0  0  0  0  0
    8.7189  -16.2835   20.4745 C   0  0  0  0  0  0  0  0  0  0  0  0
    9.9222  -16.1874   20.8191 O   0  0  0  0  0  0  0  0  0  0  0  0
    7.5031  -11.6849   28.0319 O   0  0  0  0  0  0  0  0  0  0  0  0
    7.3756  -12.2975   26.7875 C   0  0  0  0  0  0  0  0  0  0  0  0
    8.0119  -11.8254   25.6666 C   0  0  0  0  0  0  0  0  0  0  0  0
    7.8761  -12.4417   24.4434 C   0  0  0  0  0  0  0  0  0  0  0  0
    7.0833  -13.5791   24.2815 C   0  0  0  0  0  0  0  0  0  0  0  0
    6.9369  -14.1586   22.9529 C   0  0  0  0  0  0  0  0  0  0  0  0
    8.1174  -14.9584   22.4973 C   0  0  2  0  0  0  0  0  0  0  0  0
    7.7262  -15.7149   21.2815 N   0  0  0  0  0  0  0  0  0  0  0  0
    8.4972  -15.9765   23.4799 C   0  0  0  0  0  0  0  0  0  0  0  0
    7.7089  -16.9727   23.6416 O   0  0  0  0  0  0  0  0  0  0  0  0
    6.4558  -14.0336   25.4194 C   0  0  0  0  0  0  0  0  0  0  0  0
    6.5889  -13.4195   26.6469 C   0  0  0  0  0  0  0  0  0  0  0  0
    9.6679  -15.9827   24.2797 N   0  0  0  0  0  0  0  0  0  0  0  0
    9.8683  -17.1202   25.1804 C   0  0  1  0  0  0  0  0  0  0  0  0
   11.1994  -17.7933   24.7779 C   0  0  0  0  0  0  0  0  0  0  0  0
   11.4422  -18.9352   25.6981 C   0  0  0  0  0  0  0  0  0  0  0  0
   12.6968  -19.7096   25.5072 C   0  0  0  0  0  0  0  0  0  0  0  0
   12.8531  -20.8176   26.4753 C   0  0  0  0  0  0  0  0  0  0  0  0
   14.0694  -21.5409   26.3032 N   0  0  0  0  0  0  0  0  0  0  0  0
    9.8595  -16.6932   26.5763 C   0  0  0  0  0  0  0  0  0  0  0  0
   10.2480  -15.5101   26.8716 O   0  0  0  0  0  0  0  0  0  0  0  0
    9.4567  -17.4541   27.6635 O   0  0  0  0  0  0  0  0  0  0  0  0
  2  3  1  0
  2  1  1  0
  3  4  1  1
  5  3  1  0
  5  6  1  6
  7  5  1  0
  8  7  2  0
  9 10  1  0
 10 20  2  0
 10 11  1  0
 11 12  2  0
 12 13  1  0
 13 14  1  0
 15 14  1  1
 15 16  1  0
 16  7  1  0
 17 15  1  0
 17 18  2  0
 19 13  2  0
 20 19  1  0
 21 17  1  0
 22 21  1  0
 22 28  1  0
 22 23  1  6
 24 23  1  0
 25 24  1  0
 26 25  1  0
 26 27  1  0
 28 29  2  0
 28 30  1  0
M  END
$$$$
