IYK.pdb
     RDKit          3D

 30 30  0  0  1  0  0  0  0  0999 V2000
    6.4176  -18.7175   18.7133 C   0  0  0  0  0  0  0  0  0  0  0  0
    6.6548  -17.2653   18.9912 C   0  0  0  0  0  0  0  0  0  0  0  0
    7.5408  -17.0685   20.2023 C   0  0  2  0  0  0  0  0  0  0  0  0
    6.9660  -17.7440   21.4268 C   0  0  0  0  0  0  0  0  0  0  0  0
    7.6984  -15.5859   20.4677 C   0  0  2  0  0  0  0  0  0  0  0  0
    8.2051  -14.9012   19.3194 N   0  0  0  0  0  0  0  0  0  0  0  0
    8.5718  -15.4511   21.6559 C   0  0  0  0  0  0  0  0  0  0  0  0
    9.8213  -15.5140   21.5525 O   0  0  0  0  0  0  0  0  0  0  0  0
   10.4241  -14.7104   30.3743 O   0  0  0  0  0  0  0  0  0  0  0  0
    9.8494  -14.6709   29.1061 C   0  0  0  0  0  0  0  0  0  0  0  0
    9.8519  -13.5370   28.3325 C   0  0  0  0  0  0  0  0  0  0  0  0
    9.2797  -13.5133   27.0809 C   0  0  0  0  0  0  0  0  0  0  0  0
    8.6675  -14.6428   26.5352 C   0  0  0  0  0  0  0  0  0  0  0  0
    8.0341  -14.5441   25.2269 C   0  0  0  0  0  0  0  0  0  0  0  0
    8.8742  -15.0527   24.0971 C   0  0  2  0  0  0  0  0  0  0  0  0
    7.9966  -15.2502   22.9163 N   0  0  0  0  0  0  0  0  0  0  0  0
    9.4343  -16.3749   24.3873 C   0  0  0  0  0  0  0  0  0  0  0  0
    8.6208  -17.3591   24.4841 O   0  0  0  0  0  0  0  0  0  0  0  0
    8.6779  -15.7672   27.3294 C   0  0  0  0  0  0  0  0  0  0  0  0
    9.2498  -15.7956   28.5838 C   0  0  0  0  0  0  0  0  0  0  0  0
   10.8049  -16.6901   24.5679 N   0  0  0  0  0  0  0  0  0  0  0  0
   11.1500  -18.0881   24.8357 C   0  0  1  0  0  0  0  0  0  0  0  0
   11.7976  -18.6533   23.5518 C   0  0  0  0  0  0  0  0  0  0  0  0
   13.0554  -17.9042   23.2945 C   0  0  0  0  0  0  0  0  0  0  0  0
   13.8461  -18.2907   22.0964 C   0  0  0  0  0  0  0  0  0  0  0  0
   15.0798  -17.4917   21.9272 C   0  0  0  0  0  0  0  0  0  0  0  0
   15.7990  -17.8210   20.7412 N   0  0  0  0  0  0  0  0  0  0  0  0
   12.0267  -18.1997   25.9975 C   0  0  0  0  0  0  0  0  0  0  0  0
   12.3831  -17.1382   26.6173 O   0  0  0  0  0  0  0  0  0  0  0  0
   12.5344  -19.3747   26.5311 O   0  0  0  0  0  0  0  0  0  0  0  0
  2  3  1  0
  2  1  1  0
  3  4  1  1
  5  3  1  0
  5  6  1  6
  7  5  1  0
  8  7  2  0
  9 10  1  0
 10 20  2  0
 10 11  1  0
 11 12  2  0
 12 13  1  0
 13 14  1  0
 15 14  1  1
 15 16  1  0
 16  7  1  0
 17 15  1  0
 17 18  2  0
 19 13  2  0
 20 19  1  0
 21 17  1  0
 22 21  1  0
 22 28  1  0
 22 23  1  6
 24 23  1  0
 25 24  1  0
 26 25  1  0
 26 27  1  0
 28 29  2  0
 28 30  1  0
M  END
$$$$
