IYK.pdb
     RDKit          3D

 30 30  0  0  1  0  0  0  0  0999 V2000
    8.8122  -20.6867   18.8011 C   0  0  0  0  0  0  0  0  0  0  0  0
    8.8471  -19.2061   18.5803 C   0  0  0  0  0  0  0  0  0  0  0  0
    8.9231  -18.4503   19.8894 C   0  0  2  0  0  0  0  0  0  0  0  0
    7.7922  -18.8322   20.8176 C   0  0  0  0  0  0  0  0  0  0  0  0
    8.8691  -16.9631   19.6091 C   0  0  2  0  0  0  0  0  0  0  0  0
    9.8256  -16.5842   18.6162 N   0  0  0  0  0  0  0  0  0  0  0  0
    9.0719  -16.2729   20.9034 C   0  0  0  0  0  0  0  0  0  0  0  0
   10.2120  -16.1902   21.4224 O   0  0  0  0  0  0  0  0  0  0  0  0
    6.8409  -11.4748   28.1075 O   0  0  0  0  0  0  0  0  0  0  0  0
    6.8883  -12.1234   26.8758 C   0  0  0  0  0  0  0  0  0  0  0  0
    7.5305  -11.5885   25.7870 C   0  0  0  0  0  0  0  0  0  0  0  0
    7.5686  -12.2415   24.5760 C   0  0  0  0  0  0  0  0  0  0  0  0
    6.9551  -13.4820   24.3944 C   0  0  0  0  0  0  0  0  0  0  0  0
    6.9850  -14.1022   23.0764 C   0  0  0  0  0  0  0  0  0  0  0  0
    8.1894  -14.9551   22.8254 C   0  0  2  0  0  0  0  0  0  0  0  0
    7.9754  -15.7024   21.5608 N   0  0  0  0  0  0  0  0  0  0  0  0
    8.3542  -15.9818   23.8574 C   0  0  0  0  0  0  0  0  0  0  0  0
    7.7340  -17.0910   23.6995 O   0  0  0  0  0  0  0  0  0  0  0  0
    6.3179  -13.9981   25.5003 C   0  0  0  0  0  0  0  0  0  0  0  0
    6.2771  -13.3474   26.7154 C   0  0  0  0  0  0  0  0  0  0  0  0
    9.1465  -15.8817   25.0289 N   0  0  0  0  0  0  0  0  0  0  0  0
    9.5669  -17.1286   25.6723 C   0  0  1  0  0  0  0  0  0  0  0  0
   10.3901  -17.9237   24.6345 C   0  0  0  0  0  0  0  0  0  0  0  0
    9.6871  -19.2051   24.3636 C   0  0  0  0  0  0  0  0  0  0  0  0
   10.3017  -20.1227   23.3684 C   0  0  0  0  0  0  0  0  0  0  0  0
    9.4989  -21.3409   23.1221 C   0  0  0  0  0  0  0  0  0  0  0  0
   10.1216  -22.2444   22.2121 N   0  0  0  0  0  0  0  0  0  0  0  0
   10.3195  -16.8616   26.8943 C   0  0  0  0  0  0  0  0  0  0  0  0
   10.7818  -17.8438   27.5721 O   0  0  0  0  0  0  0  0  0  0  0  0
   10.6063  -15.6123   27.4236 O   0  0  0  0  0  0  0  0  0  0  0  0
  2  3  1  0
  2  1  1  0
  3  4  1  1
  5  3  1  0
  5  6  1  6
  7  5  1  0
  8  7  2  0
  9 10  1  0
 10 20  2  0
 10 11  1  0
 11 12  2  0
 12 13  1  0
 13 14  1  0
 15 14  1  1
 15 16  1  0
 16  7  1  0
 17 15  1  0
 17 18  2  0
 19 13  2  0
 20 19  1  0
 21 17  1  0
 22 21  1  0
 22 28  1  0
 22 23  1  6
 24 23  1  0
 25 24  1  0
 26 25  1  0
 26 27  1  0
 28 29  2  0
 28 30  1  0
M  END
$$$$
