IYK.pdb
     RDKit          3D

 30 30  0  0  1  0  0  0  0  0999 V2000
    7.1571  -12.8033   16.7671 C   0  0  0  0  0  0  0  0  0  0  0  0
    7.5261  -14.0602   17.4927 C   0  0  0  0  0  0  0  0  0  0  0  0
    7.9069  -13.7809   18.9305 C   0  0  2  0  0  0  0  0  0  0  0  0
    9.0610  -12.8082   19.0206 C   0  0  0  0  0  0  0  0  0  0  0  0
    8.2860  -15.0819   19.6065 C   0  0  2  0  0  0  0  0  0  0  0  0
    7.2231  -16.0356   19.5361 N   0  0  0  0  0  0  0  0  0  0  0  0
    8.6751  -14.7484   20.9959 C   0  0  0  0  0  0  0  0  0  0  0  0
    9.8059  -14.2688   21.2551 O   0  0  0  0  0  0  0  0  0  0  0  0
    7.8104  -13.0696   29.6867 O   0  0  0  0  0  0  0  0  0  0  0  0
    7.6168  -13.3511   28.3363 C   0  0  0  0  0  0  0  0  0  0  0  0
    7.9371  -12.4570   27.3453 C   0  0  0  0  0  0  0  0  0  0  0  0
    7.7399  -12.7495   26.0149 C   0  0  0  0  0  0  0  0  0  0  0  0
    7.2035  -13.9718   25.6066 C   0  0  0  0  0  0  0  0  0  0  0  0
    6.9703  -14.2057   24.1876 C   0  0  0  0  0  0  0  0  0  0  0  0
    8.1755  -14.6786   23.4362 C   0  0  2  0  0  0  0  0  0  0  0  0
    7.7682  -14.9708   22.0389 N   0  0  0  0  0  0  0  0  0  0  0  0
    8.6828  -15.9477   23.9638 C   0  0  0  0  0  0  0  0  0  0  0  0
    7.8968  -16.9583   23.9447 O   0  0  0  0  0  0  0  0  0  0  0  0
    6.8906  -14.8517   26.6181 C   0  0  0  0  0  0  0  0  0  0  0  0
    7.0864  -14.5629   27.9522 C   0  0  0  0  0  0  0  0  0  0  0  0
    9.9759  -16.1843   24.4954 N   0  0  0  0  0  0  0  0  0  0  0  0
   10.2676  -17.5294   24.9964 C   0  0  1  0  0  0  0  0  0  0  0  0
   11.4717  -18.0662   24.1908 C   0  0  0  0  0  0  0  0  0  0  0  0
   11.0582  -18.2052   22.7699 C   0  0  0  0  0  0  0  0  0  0  0  0
   12.0673  -18.7339   21.8148 C   0  0  0  0  0  0  0  0  0  0  0  0
   11.6309  -18.6610   20.4029 C   0  0  0  0  0  0  0  0  0  0  0  0
   12.6016  -19.1714   19.4922 N   0  0  0  0  0  0  0  0  0  0  0  0
   10.5224  -17.5110   26.4337 C   0  0  0  0  0  0  0  0  0  0  0  0
   10.8065  -18.6053   27.0333 O   0  0  0  0  0  0  0  0  0  0  0  0
   10.4950  -16.3950   27.2565 O   0  0  0  0  0  0  0  0  0  0  0  0
  2  3  1  0
  2  1  1  0
  3  4  1  6
  5  3  1  0
  5  6  1  1
  7  5  1  0
  8  7  2  0
  9 10  1  0
 10 20  2  0
 10 11  1  0
 11 12  2  0
 12 13  1  0
 13 14  1  0
 15 14  1  1
 15 16  1  0
 16  7  1  0
 17 15  1  0
 17 18  2  0
 19 13  2  0
 20 19  1  0
 21 17  1  0
 22 21  1  0
 22 28  1  0
 22 23  1  6
 24 23  1  0
 25 24  1  0
 26 25  1  0
 26 27  1  0
 28 29  2  0
 28 30  1  0
M  END
$$$$
