IYK.pdb
     RDKit          3D

 30 30  0  0  1  0  0  0  0  0999 V2000
    6.5166  -13.7068   18.7616 C   0  0  0  0  0  0  0  0  0  0  0  0
    7.8691  -13.4091   19.3314 C   0  0  0  0  0  0  0  0  0  0  0  0
    8.1044  -14.1576   20.6255 C   0  0  2  0  0  0  0  0  0  0  0  0
    7.0733  -13.7972   21.6710 C   0  0  0  0  0  0  0  0  0  0  0  0
    9.4889  -13.8307   21.1447 C   0  0  2  0  0  0  0  0  0  0  0  0
   10.4875  -14.0587   20.1471 N   0  0  0  0  0  0  0  0  0  0  0  0
    9.6937  -14.6419   22.3665 C   0  0  0  0  0  0  0  0  0  0  0  0
   10.3072  -15.7363   22.3229 O   0  0  0  0  0  0  0  0  0  0  0  0
   10.5230  -16.2866   31.0194 O   0  0  0  0  0  0  0  0  0  0  0  0
   10.1914  -15.7141   29.7936 C   0  0  0  0  0  0  0  0  0  0  0  0
    9.1013  -16.1185   29.0639 C   0  0  0  0  0  0  0  0  0  0  0  0
    8.7864  -15.5432   27.8538 C   0  0  0  0  0  0  0  0  0  0  0  0
    9.5609  -14.5184   27.3076 C   0  0  0  0  0  0  0  0  0  0  0  0
    9.2080  -13.9825   25.9996 C   0  0  0  0  0  0  0  0  0  0  0  0
    9.6232  -14.8455   24.8491 C   0  0  2  0  0  0  0  0  0  0  0  0
    9.1957  -14.1825   23.5916 N   0  0  0  0  0  0  0  0  0  0  0  0
    8.9312  -16.1367   24.8593 C   0  0  0  0  0  0  0  0  0  0  0  0
    7.9332  -16.2847   24.0708 O   0  0  0  0  0  0  0  0  0  0  0  0
   10.6480  -14.1300   28.0577 C   0  0  0  0  0  0  0  0  0  0  0  0
   10.9675  -14.7036   29.2704 C   0  0  0  0  0  0  0  0  0  0  0  0
    9.2576  -17.2631   25.6562 N   0  0  0  0  0  0  0  0  0  0  0  0
    9.5148  -18.5299   24.9672 C   0  0  1  0  0  0  0  0  0  0  0  0
    9.9472  -18.1862   23.5244 C   0  0  0  0  0  0  0  0  0  0  0  0
   10.1230  -19.4574   22.7743 C   0  0  0  0  0  0  0  0  0  0  0  0
   10.5703  -19.3581   21.3600 C   0  0  0  0  0  0  0  0  0  0  0  0
   10.6961  -20.6727   20.6927 C   0  0  0  0  0  0  0  0  0  0  0  0
   11.0077  -20.5664   19.3058 N   0  0  0  0  0  0  0  0  0  0  0  0
   10.5171  -19.3196   25.6762 C   0  0  0  0  0  0  0  0  0  0  0  0
   11.5496  -18.7355   26.1564 O   0  0  0  0  0  0  0  0  0  0  0  0
   10.4733  -20.6872   25.9019 O   0  0  0  0  0  0  0  0  0  0  0  0
  2  3  1  0
  2  1  1  0
  3  4  1  1
  5  3  1  0
  5  6  1  6
  7  5  1  0
  8  7  2  0
  9 10  1  0
 10 20  2  0
 10 11  1  0
 11 12  2  0
 12 13  1  0
 13 14  1  0
 15 14  1  1
 15 16  1  0
 16  7  1  0
 17 15  1  0
 17 18  2  0
 19 13  2  0
 20 19  1  0
 21 17  1  0
 22 21  1  0
 22 28  1  0
 22 23  1  6
 24 23  1  0
 25 24  1  0
 26 25  1  0
 26 27  1  0
 28 29  2  0
 28 30  1  0
M  END
$$$$
