IYK.pdb
     RDKit          3D

 30 30  0  0  1  0  0  0  0  0999 V2000
    7.5397  -12.0960   19.9809 C   0  0  0  0  0  0  0  0  0  0  0  0
    7.5710  -13.4891   20.5293 C   0  0  0  0  0  0  0  0  0  0  0  0
    8.6099  -14.3387   19.8298 C   0  0  2  0  0  0  0  0  0  0  0  0
    8.3077  -14.4839   18.3554 C   0  0  0  0  0  0  0  0  0  0  0  0
    8.6506  -15.7075   20.4765 C   0  0  2  0  0  0  0  0  0  0  0  0
    7.3826  -16.3626   20.3916 N   0  0  0  0  0  0  0  0  0  0  0  0
    9.1106  -15.5121   21.8705 C   0  0  0  0  0  0  0  0  0  0  0  0
   10.2336  -15.0088   22.1181 O   0  0  0  0  0  0  0  0  0  0  0  0
    6.4961  -10.5230   27.1574 O   0  0  0  0  0  0  0  0  0  0  0  0
    6.7632  -11.8112   26.6997 C   0  0  0  0  0  0  0  0  0  0  0  0
    7.9589  -12.4425   26.9360 C   0  0  0  0  0  0  0  0  0  0  0  0
    8.2083  -13.7159   26.4770 C   0  0  0  0  0  0  0  0  0  0  0  0
    7.2563  -14.4298   25.7472 C   0  0  0  0  0  0  0  0  0  0  0  0
    7.5951  -15.7544   25.2439 C   0  0  0  0  0  0  0  0  0  0  0  0
    8.7769  -15.7794   24.3254 C   0  0  2  0  0  0  0  0  0  0  0  0
    8.2806  -15.8945   22.9311 N   0  0  0  0  0  0  0  0  0  0  0  0
    9.6074  -16.9672   24.5389 C   0  0  0  0  0  0  0  0  0  0  0  0
    9.2098  -18.0724   24.0287 O   0  0  0  0  0  0  0  0  0  0  0  0
    6.0656  -13.7761   25.5233 C   0  0  0  0  0  0  0  0  0  0  0  0
    5.8113  -12.5004   25.9811 C   0  0  0  0  0  0  0  0  0  0  0  0
   10.8297  -17.0250   25.2551 N   0  0  0  0  0  0  0  0  0  0  0  0
   11.5135  -18.3184   25.3267 C   0  0  1  0  0  0  0  0  0  0  0  0
   12.9241  -18.1238   24.7272 C   0  0  0  0  0  0  0  0  0  0  0  0
   13.6835  -19.3899   24.8997 C   0  0  0  0  0  0  0  0  0  0  0  0
   15.0961  -19.4060   24.4368 C   0  0  0  0  0  0  0  0  0  0  0  0
   15.7597  -20.7143   24.6291 C   0  0  0  0  0  0  0  0  0  0  0  0
   17.1526  -20.6827   24.3276 N   0  0  0  0  0  0  0  0  0  0  0  0
   11.5548  -18.8156   26.6986 C   0  0  0  0  0  0  0  0  0  0  0  0
   11.4613  -17.9859   27.6684 O   0  0  0  0  0  0  0  0  0  0  0  0
   11.6844  -20.1408   27.0863 O   0  0  0  0  0  0  0  0  0  0  0  0
  2  3  1  0
  2  1  1  0
  3  4  1  6
  5  3  1  0
  5  6  1  1
  7  5  1  0
  8  7  2  0
  9 10  1  0
 10 20  2  0
 10 11  1  0
 11 12  2  0
 12 13  1  0
 13 14  1  0
 15 14  1  1
 15 16  1  0
 16  7  1  0
 17 15  1  0
 17 18  2  0
 19 13  2  0
 20 19  1  0
 21 17  1  0
 22 21  1  0
 22 28  1  0
 22 23  1  1
 24 23  1  0
 25 24  1  0
 26 25  1  0
 26 27  1  0
 28 29  2  0
 28 30  1  0
M  END
$$$$
