IYK.pdb
     RDKit          3D

 30 30  0  0  1  0  0  0  0  0999 V2000
   10.7744  -14.6928   29.2195 C   0  0  0  0  0  0  0  0  0  0  0  0
    9.5601  -15.4676   28.8103 C   0  0  0  0  0  0  0  0  0  0  0  0
    9.3940  -15.4877   27.3062 C   0  0  2  0  0  0  0  0  0  0  0  0
    9.4497  -14.0940   26.7225 C   0  0  0  0  0  0  0  0  0  0  0  0
    8.0666  -16.1296   26.9607 C   0  0  2  0  0  0  0  0  0  0  0  0
    7.9253  -17.4064   27.5886 N   0  0  0  0  0  0  0  0  0  0  0  0
    7.9925  -16.1983   25.4833 C   0  0  0  0  0  0  0  0  0  0  0  0
    7.9884  -17.3018   24.8850 O   0  0  0  0  0  0  0  0  0  0  0  0
    7.4110  -13.3906   17.0682 O   0  0  0  0  0  0  0  0  0  0  0  0
    7.5001  -13.4739   18.4557 C   0  0  0  0  0  0  0  0  0  0  0  0
    6.7414  -14.3510   19.1901 C   0  0  0  0  0  0  0  0  0  0  0  0
    6.8405  -14.4216   20.5611 C   0  0  0  0  0  0  0  0  0  0  0  0
    7.7186  -13.6037   21.2740 C   0  0  0  0  0  0  0  0  0  0  0  0
    7.7437  -13.6875   22.7283 C   0  0  0  0  0  0  0  0  0  0  0  0
    7.7930  -15.0848   23.2630 C   0  0  2  0  0  0  0  0  0  0  0  0
    7.9257  -15.0140   24.7398 N   0  0  0  0  0  0  0  0  0  0  0  0
    8.9843  -15.8024   22.8023 C   0  0  0  0  0  0  0  0  0  0  0  0
    8.8218  -16.7387   21.9440 O   0  0  0  0  0  0  0  0  0  0  0  0
    8.4686  -12.7330   20.5160 C   0  0  0  0  0  0  0  0  0  0  0  0
    8.3727  -12.6586   19.1423 C   0  0  0  0  0  0  0  0  0  0  0  0
   10.3225  -15.5627   23.2050 N   0  0  0  0  0  0  0  0  0  0  0  0
   11.3918  -16.0876   22.3526 C   0  0  1  0  0  0  0  0  0  0  0  0
   11.7164  -15.0001   21.3043 C   0  0  0  0  0  0  0  0  0  0  0  0
   12.8961  -15.4469   20.5180 C   0  0  0  0  0  0  0  0  0  0  0  0
   13.4719  -14.4818   19.5448 C   0  0  0  0  0  0  0  0  0  0  0  0
   14.6266  -15.0250   18.7960 C   0  0  0  0  0  0  0  0  0  0  0  0
   15.2625  -14.0528   17.9698 N   0  0  0  0  0  0  0  0  0  0  0  0
   12.5586  -16.4638   23.1450 C   0  0  0  0  0  0  0  0  0  0  0  0
   12.6384  -16.0800   24.3633 O   0  0  0  0  0  0  0  0  0  0  0  0
   13.6330  -17.2256   22.7108 O   0  0  0  0  0  0  0  0  0  0  0  0
  2  3  1  0
  2  1  1  0
  3  4  1  1
  5  3  1  0
  5  6  1  1
  7  5  1  0
  8  7  2  0
  9 10  1  0
 10 20  2  0
 10 11  1  0
 11 12  2  0
 12 13  1  0
 13 14  1  0
 15 14  1  6
 15 16  1  0
 16  7  1  0
 17 15  1  0
 17 18  2  0
 19 13  2  0
 20 19  1  0
 21 17  1  0
 22 21  1  0
 22 28  1  0
 22 23  1  6
 24 23  1  0
 25 24  1  0
 26 25  1  0
 26 27  1  0
 28 29  2  0
 28 30  1  0
M  END
$$$$
