IYK.pdb
     RDKit          3D

 30 30  0  0  1  0  0  0  0  0999 V2000
    5.4645  -21.9990   22.5031 C   0  0  0  0  0  0  0  0  0  0  0  0
    5.4108  -20.7974   21.6112 C   0  0  0  0  0  0  0  0  0  0  0  0
    6.0790  -19.5996   22.2510 C   0  0  2  0  0  0  0  0  0  0  0  0
    5.3006  -19.1031   23.4483 C   0  0  0  0  0  0  0  0  0  0  0  0
    6.1973  -18.4901   21.2271 C   0  0  2  0  0  0  0  0  0  0  0  0
    6.2958  -19.0130   19.9000 N   0  0  0  0  0  0  0  0  0  0  0  0
    7.3666  -17.6684   21.6151 C   0  0  0  0  0  0  0  0  0  0  0  0
    8.5165  -17.9344   21.1876 O   0  0  0  0  0  0  0  0  0  0  0  0
    7.8198  -12.4216   17.3299 O   0  0  0  0  0  0  0  0  0  0  0  0
    7.8414  -12.8653   18.6501 C   0  0  0  0  0  0  0  0  0  0  0  0
    8.9953  -12.9094   19.3924 C   0  0  0  0  0  0  0  0  0  0  0  0
    9.0009  -13.3506   20.6961 C   0  0  0  0  0  0  0  0  0  0  0  0
    7.8319  -13.7758   21.3293 C   0  0  0  0  0  0  0  0  0  0  0  0
    7.9074  -14.2800   22.6941 C   0  0  0  0  0  0  0  0  0  0  0  0
    8.3469  -15.7071   22.7991 C   0  0  2  0  0  0  0  0  0  0  0  0
    7.1887  -16.5763   22.4728 N   0  0  0  0  0  0  0  0  0  0  0  0
    8.7219  -16.0620   24.1701 C   0  0  0  0  0  0  0  0  0  0  0  0
    7.7847  -16.3896   24.9789 O   0  0  0  0  0  0  0  0  0  0  0  0
    6.6881  -13.7222   20.5650 C   0  0  0  0  0  0  0  0  0  0  0  0
    6.6777  -13.2810   19.2585 C   0  0  0  0  0  0  0  0  0  0  0  0
   10.0343  -16.0903   24.7059 N   0  0  0  0  0  0  0  0  0  0  0  0
   10.3801  -17.2014   25.5955 C   0  0  1  0  0  0  0  0  0  0  0  0
   10.0551  -18.5097   24.8407 C   0  0  0  0  0  0  0  0  0  0  0  0
   10.4712  -19.6553   25.6916 C   0  0  0  0  0  0  0  0  0  0  0  0
   10.2326  -21.0225   25.1586 C   0  0  0  0  0  0  0  0  0  0  0  0
   10.7098  -22.0935   26.0609 C   0  0  0  0  0  0  0  0  0  0  0  0
   10.2842  -23.3929   25.6577 N   0  0  0  0  0  0  0  0  0  0  0  0
   11.7784  -17.1287   26.0081 C   0  0  0  0  0  0  0  0  0  0  0  0
   12.6518  -16.6841   25.1851 O   0  0  0  0  0  0  0  0  0  0  0  0
   12.2883  -17.4975   27.2439 O   0  0  0  0  0  0  0  0  0  0  0  0
  2  3  1  0
  2  1  1  0
  3  4  1  1
  5  3  1  0
  5  6  1  6
  7  5  1  0
  8  7  2  0
  9 10  1  0
 10 20  2  0
 10 11  1  0
 11 12  2  0
 12 13  1  0
 13 14  1  0
 15 14  1  1
 15 16  1  0
 16  7  1  0
 17 15  1  0
 17 18  2  0
 19 13  2  0
 20 19  1  0
 21 17  1  0
 22 21  1  0
 22 28  1  0
 22 23  1  6
 24 23  1  0
 25 24  1  0
 26 25  1  0
 26 27  1  0
 28 29  2  0
 28 30  1  0
M  END
$$$$
