IYK.pdb
     RDKit          3D

 30 30  0  0  1  0  0  0  0  0999 V2000
    8.0776  -11.7097   20.0414 C   0  0  0  0  0  0  0  0  0  0  0  0
    7.8414  -13.0116   20.7425 C   0  0  0  0  0  0  0  0  0  0  0  0
    8.3609  -14.1808   19.9341 C   0  0  2  0  0  0  0  0  0  0  0  0
    7.6775  -14.2730   18.5885 C   0  0  0  0  0  0  0  0  0  0  0  0
    8.1316  -15.4620   20.7083 C   0  0  2  0  0  0  0  0  0  0  0  0
    6.7425  -15.6675   20.9774 N   0  0  0  0  0  0  0  0  0  0  0  0
    8.9541  -15.3763   21.9368 C   0  0  0  0  0  0  0  0  0  0  0  0
   10.2058  -15.3039   21.8751 O   0  0  0  0  0  0  0  0  0  0  0  0
   10.8573  -14.9075   30.5825 O   0  0  0  0  0  0  0  0  0  0  0  0
   10.2079  -14.8820   29.3505 C   0  0  0  0  0  0  0  0  0  0  0  0
    9.5570  -15.9771   28.8393 C   0  0  0  0  0  0  0  0  0  0  0  0
    8.9197  -15.9366   27.6200 C   0  0  0  0  0  0  0  0  0  0  0  0
    8.9037  -14.7782   26.8414 C   0  0  0  0  0  0  0  0  0  0  0  0
    8.2566  -14.8094   25.5364 C   0  0  0  0  0  0  0  0  0  0  0  0
    9.1496  -15.2471   24.4176 C   0  0  2  0  0  0  0  0  0  0  0  0
    8.3272  -15.3759   23.1885 N   0  0  0  0  0  0  0  0  0  0  0  0
    9.7031  -16.5829   24.6534 C   0  0  0  0  0  0  0  0  0  0  0  0
    8.8792  -17.5500   24.8141 O   0  0  0  0  0  0  0  0  0  0  0  0
    9.5626  -13.6936   27.3750 C   0  0  0  0  0  0  0  0  0  0  0  0
   10.2024  -13.7296   28.5960 C   0  0  0  0  0  0  0  0  0  0  0  0
   11.0768  -16.9285   24.7161 N   0  0  0  0  0  0  0  0  0  0  0  0
   11.4130  -18.3429   24.8943 C   0  0  1  0  0  0  0  0  0  0  0  0
   12.2562  -18.7700   23.6721 C   0  0  0  0  0  0  0  0  0  0  0  0
   11.5609  -19.8965   22.9959 C   0  0  0  0  0  0  0  0  0  0  0  0
   12.2351  -20.5059   21.8194 C   0  0  0  0  0  0  0  0  0  0  0  0
   11.4651  -21.6145   21.2134 C   0  0  0  0  0  0  0  0  0  0  0  0
   12.1009  -22.1730   20.0662 N   0  0  0  0  0  0  0  0  0  0  0  0
   12.1116  -18.5619   26.1572 C   0  0  0  0  0  0  0  0  0  0  0  0
   12.8194  -17.6181   26.6531 O   0  0  0  0  0  0  0  0  0  0  0  0
   12.0906  -19.7235   26.9145 O   0  0  0  0  0  0  0  0  0  0  0  0
  2  3  1  0
  2  1  1  0
  3  4  1  6
  5  3  1  0
  5  6  1  1
  7  5  1  0
  8  7  2  0
  9 10  1  0
 10 20  2  0
 10 11  1  0
 11 12  2  0
 12 13  1  0
 13 14  1  0
 15 14  1  1
 15 16  1  0
 16  7  1  0
 17 15  1  0
 17 18  2  0
 19 13  2  0
 20 19  1  0
 21 17  1  0
 22 21  1  0
 22 28  1  0
 22 23  1  6
 24 23  1  0
 25 24  1  0
 26 25  1  0
 26 27  1  0
 28 29  2  0
 28 30  1  0
M  END
$$$$
