IYK.pdb
     RDKit          3D

 30 30  0  0  1  0  0  0  0  0999 V2000
    7.5372  -20.3928   18.7040 C   0  0  0  0  0  0  0  0  0  0  0  0
    7.7858  -18.9286   18.5131 C   0  0  0  0  0  0  0  0  0  0  0  0
    8.2372  -18.2690   19.7982 C   0  0  2  0  0  0  0  0  0  0  0  0
    7.2174  -18.4447   20.9006 C   0  0  0  0  0  0  0  0  0  0  0  0
    8.4634  -16.7928   19.5470 C   0  0  2  0  0  0  0  0  0  0  0  0
    9.4864  -16.5804   18.5709 N   0  0  0  0  0  0  0  0  0  0  0  0
    8.7740  -16.1753   20.8567 C   0  0  0  0  0  0  0  0  0  0  0  0
    9.9262  -16.2463   21.3499 O   0  0  0  0  0  0  0  0  0  0  0  0
    7.2676  -11.5810   28.3517 O   0  0  0  0  0  0  0  0  0  0  0  0
    7.1991  -12.1609   27.0871 C   0  0  0  0  0  0  0  0  0  0  0  0
    8.0811  -11.8442   26.0841 C   0  0  0  0  0  0  0  0  0  0  0  0
    8.0008  -12.4257   24.8391 C   0  0  0  0  0  0  0  0  0  0  0  0
    7.0169  -13.3677   24.5341 C   0  0  0  0  0  0  0  0  0  0  0  0
    6.9498  -13.9118   23.1842 C   0  0  0  0  0  0  0  0  0  0  0  0
    8.1039  -14.7920   22.8180 C   0  0  2  0  0  0  0  0  0  0  0  0
    7.7674  -15.5008   21.5578 N   0  0  0  0  0  0  0  0  0  0  0  0
    8.3190  -15.8487   23.8097 C   0  0  0  0  0  0  0  0  0  0  0  0
    7.3817  -16.7038   23.9828 O   0  0  0  0  0  0  0  0  0  0  0  0
    6.1447  -13.6690   25.5557 C   0  0  0  0  0  0  0  0  0  0  0  0
    6.2213  -13.0890   26.8044 C   0  0  0  0  0  0  0  0  0  0  0  0
    9.4765  -16.0352   24.6070 N   0  0  0  0  0  0  0  0  0  0  0  0
    9.4756  -17.1532   25.5533 C   0  0  1  0  0  0  0  0  0  0  0  0
   10.3148  -18.2868   24.9226 C   0  0  0  0  0  0  0  0  0  0  0  0
    9.5969  -19.5714   25.1324 C   0  0  0  0  0  0  0  0  0  0  0  0
   10.1754  -20.7866   24.5010 C   0  0  0  0  0  0  0  0  0  0  0  0
    9.4082  -22.0180   24.7912 C   0  0  0  0  0  0  0  0  0  0  0  0
    9.9330  -23.1695   24.1348 N   0  0  0  0  0  0  0  0  0  0  0  0
    9.9877  -16.7394   26.8561 C   0  0  0  0  0  0  0  0  0  0  0  0
   10.5684  -15.6045   26.9690 O   0  0  0  0  0  0  0  0  0  0  0  0
    9.9089  -17.4646   28.0355 O   0  0  0  0  0  0  0  0  0  0  0  0
  2  3  1  0
  2  1  1  0
  3  4  1  1
  5  3  1  0
  5  6  1  6
  7  5  1  0
  8  7  2  0
  9 10  1  0
 10 20  2  0
 10 11  1  0
 11 12  2  0
 12 13  1  0
 13 14  1  0
 15 14  1  1
 15 16  1  0
 16  7  1  0
 17 15  1  0
 17 18  2  0
 19 13  2  0
 20 19  1  0
 21 17  1  0
 22 21  1  0
 22 28  1  0
 22 23  1  6
 24 23  1  0
 25 24  1  0
 26 25  1  0
 26 27  1  0
 28 29  2  0
 28 30  1  0
M  END
$$$$
