GPL.pdb
     RDKit          3D

 20 20  0  0  1  0  0  0  0  0999 V2000
   11.3939  -17.1451   19.1781 N   0  0  0  0  0  0  0  0  0  0  0  0
   10.0836  -17.2049   19.7426 C   0  0  0  0  0  0  0  0  0  0  0  0
    9.8091  -16.2720   20.8400 C   0  0  0  0  0  0  0  0  0  0  0  0
   10.8070  -15.8052   21.4747 O   0  0  0  0  0  0  0  0  0  0  0  0
    8.5241  -15.8385   21.2643 N   0  0  0  0  0  0  0  0  0  0  0  0
    7.3303  -16.1773   20.5778 C   0  0  0  0  0  0  0  0  0  0  0  0
    6.2988  -15.2097   21.1124 C   0  0  0  0  0  0  0  0  0  0  0  0
    6.7873  -14.8537   22.4915 C   0  0  0  0  0  0  0  0  0  0  0  0
    8.2683  -15.0489   22.3988 C   0  0  1  0  0  0  0  0  0  0  0  0
    8.8243  -15.6019   23.6636 C   0  0  0  0  0  0  0  0  0  0  0  0
    9.2263  -16.7825   23.6222 O   0  0  0  0  0  0  0  0  0  0  0  0
   10.7280  -13.2683   29.0081 C   0  0  0  0  0  0  0  0  0  0  0  0
   10.7522  -14.6191   28.1997 C   0  0  1  0  0  0  0  0  0  0  0  0
   10.3100  -15.6396   29.1804 C   0  0  0  0  0  0  0  0  0  0  0  0
    9.9911  -14.4102   26.9702 C   0  0  0  0  0  0  0  0  0  0  0  0
    9.7578  -15.4663   25.9759 C   0  0  2  0  0  0  0  0  0  0  0  0
    8.9184  -14.8895   24.8647 N   0  0  0  0  0  0  0  0  0  0  0  0
    8.9779  -16.6012   26.4869 C   0  0  0  0  0  0  0  0  0  0  0  0
    9.4771  -17.6584   26.9384 O   0  0  0  0  0  0  0  0  0  0  0  0
    7.5562  -16.5641   26.4994 O   0  0  0  0  0  0  0  0  0  0  0  0
  2  1  1  0
  3  2  1  0
  4  3  2  0
  5  6  1  0
  5  3  1  0
  7  6  1  0
  8  9  1  0
  8  7  1  0
  9 10  1  1
  9  5  1  0
 10 17  1  0
 11 10  2  0
 13 12  1  1
 13 14  1  0
 15 13  1  0
 16 15  1  1
 17 16  1  0
 18 20  1  0
 18 16  1  0
 19 18  2  0
M  END
$$$$
