GPL.pdb
     RDKit          3D

 20 20  0  0  1  0  0  0  0  0999 V2000
    8.3369  -12.0279   18.7960 N   0  0  0  0  0  0  0  0  0  0  0  0
    8.8103  -13.3189   19.1809 C   0  0  0  0  0  0  0  0  0  0  0  0
    8.2687  -13.8600   20.4315 C   0  0  0  0  0  0  0  0  0  0  0  0
    7.9977  -13.0327   21.3582 O   0  0  0  0  0  0  0  0  0  0  0  0
    8.0175  -15.2312   20.7071 N   0  0  0  0  0  0  0  0  0  0  0  0
    8.2823  -16.2664   19.7748 C   0  0  0  0  0  0  0  0  0  0  0  0
    7.5164  -17.4576   20.3045 C   0  0  0  0  0  0  0  0  0  0  0  0
    7.4251  -17.2238   21.7892 C   0  0  0  0  0  0  0  0  0  0  0  0
    7.5003  -15.7342   21.9136 C   0  0  1  0  0  0  0  0  0  0  0  0
    8.2678  -15.3273   23.1219 C   0  0  0  0  0  0  0  0  0  0  0  0
    9.5072  -15.2596   22.9938 O   0  0  0  0  0  0  0  0  0  0  0  0
    5.7829  -12.9582   25.5917 C   0  0  0  0  0  0  0  0  0  0  0  0
    7.2511  -12.6022   26.0349 C   0  0  1  0  0  0  0  0  0  0  0  0
    7.0813  -11.4928   27.0039 C   0  0  0  0  0  0  0  0  0  0  0  0
    7.8981  -13.8438   26.4528 C   0  0  0  0  0  0  0  0  0  0  0  0
    8.6044  -14.7379   25.5252 C   0  0  2  0  0  0  0  0  0  0  0  0
    7.6911  -15.0246   24.3608 N   0  0  0  0  0  0  0  0  0  0  0  0
    8.9164  -16.0562   26.0928 C   0  0  0  0  0  0  0  0  0  0  0  0
    8.2308  -17.0886   25.9060 O   0  0  0  0  0  0  0  0  0  0  0  0
   10.0588  -16.2442   26.9187 O   0  0  0  0  0  0  0  0  0  0  0  0
  2  1  1  0
  3  2  1  0
  4  3  2  0
  5  6  1  0
  5  3  1  0
  7  6  1  0
  8  9  1  0
  8  7  1  0
  9 10  1  1
  9  5  1  0
 10 17  1  0
 11 10  2  0
 13 12  1  1
 13 14  1  0
 15 13  1  0
 16 15  1  1
 17 16  1  0
 18 20  1  0
 18 16  1  0
 19 18  2  0
M  END
$$$$
