GPL.pdb
     RDKit          3D

 20 20  0  0  1  0  0  0  0  0999 V2000
   11.4640  -16.7568   19.1813 N   0  0  0  0  0  0  0  0  0  0  0  0
   10.4662  -17.2378   20.0825 C   0  0  0  0  0  0  0  0  0  0  0  0
   10.2806  -16.4646   21.3145 C   0  0  0  0  0  0  0  0  0  0  0  0
   11.3246  -16.1311   21.9590 O   0  0  0  0  0  0  0  0  0  0  0  0
    9.0353  -16.0511   21.8599 N   0  0  0  0  0  0  0  0  0  0  0  0
    7.7940  -16.2921   21.2178 C   0  0  0  0  0  0  0  0  0  0  0  0
    6.8227  -15.3642   21.9117 C   0  0  0  0  0  0  0  0  0  0  0  0
    7.4019  -15.1636   23.2870 C   0  0  0  0  0  0  0  0  0  0  0  0
    8.8689  -15.3786   23.0830 C   0  0  1  0  0  0  0  0  0  0  0  0
    9.4843  -16.0712   24.2475 C   0  0  0  0  0  0  0  0  0  0  0  0
    9.8731  -17.2411   24.0538 O   0  0  0  0  0  0  0  0  0  0  0  0
   10.8185  -13.7043   29.4343 C   0  0  0  0  0  0  0  0  0  0  0  0
    9.9731  -14.4841   28.3591 C   0  0  1  0  0  0  0  0  0  0  0  0
    9.1494  -13.4351   27.7112 C   0  0  0  0  0  0  0  0  0  0  0  0
   10.9028  -15.2793   27.5603 C   0  0  0  0  0  0  0  0  0  0  0  0
   10.4699  -16.2394   26.5359 C   0  0  2  0  0  0  0  0  0  0  0  0
    9.6464  -15.4980   25.5141 N   0  0  0  0  0  0  0  0  0  0  0  0
    9.5800  -17.2909   27.0457 C   0  0  0  0  0  0  0  0  0  0  0  0
    9.9378  -18.2075   27.8220 O   0  0  0  0  0  0  0  0  0  0  0  0
    8.2080  -17.3307   26.6735 O   0  0  0  0  0  0  0  0  0  0  0  0
  2  1  1  0
  3  2  1  0
  4  3  2  0
  5  6  1  0
  5  3  1  0
  7  6  1  0
  8  9  1  0
  8  7  1  0
  9 10  1  1
  9  5  1  0
 10 17  1  0
 11 10  2  0
 13 12  1  1
 13 14  1  0
 15 13  1  0
 16 15  1  1
 17 16  1  0
 18 20  1  0
 18 16  1  0
 19 18  2  0
M  END
$$$$
