GPL.pdb
     RDKit          3D

 20 20  0  0  1  0  0  0  0  0999 V2000
    6.4943  -19.1236   20.9404 N   0  0  0  0  0  0  0  0  0  0  0  0
    6.2374  -17.8238   21.4727 C   0  0  0  0  0  0  0  0  0  0  0  0
    7.4122  -16.9807   21.7161 C   0  0  0  0  0  0  0  0  0  0  0  0
    8.3994  -17.5118   22.3160 O   0  0  0  0  0  0  0  0  0  0  0  0
    7.5515  -15.6167   21.3428 N   0  0  0  0  0  0  0  0  0  0  0  0
    6.5519  -14.9060   20.6309 C   0  0  0  0  0  0  0  0  0  0  0  0
    7.2598  -13.6745   20.1128 C   0  0  0  0  0  0  0  0  0  0  0  0
    8.3827  -13.4403   21.0883 C   0  0  0  0  0  0  0  0  0  0  0  0
    8.6624  -14.8059   21.6334 C   0  0  1  0  0  0  0  0  0  0  0  0
    9.0166  -14.7529   23.0778 C   0  0  0  0  0  0  0  0  0  0  0  0
   10.1929  -14.4361   23.3482 O   0  0  0  0  0  0  0  0  0  0  0  0
    5.7104  -12.4551   26.6764 C   0  0  0  0  0  0  0  0  0  0  0  0
    7.0920  -12.7054   25.9642 C   0  0  1  0  0  0  0  0  0  0  0  0
    7.9460  -11.5817   26.4186 C   0  0  0  0  0  0  0  0  0  0  0  0
    7.4886  -14.0834   26.2446 C   0  0  0  0  0  0  0  0  0  0  0  0
    8.5770  -14.7703   25.5360 C   0  0  2  0  0  0  0  0  0  0  0  0
    8.1265  -15.0315   24.1215 N   0  0  0  0  0  0  0  0  0  0  0  0
    8.8963  -16.0965   26.0807 C   0  0  0  0  0  0  0  0  0  0  0  0
    9.3776  -16.2978   27.2202 O   0  0  0  0  0  0  0  0  0  0  0  0
    8.6685  -17.2742   25.3166 O   0  0  0  0  0  0  0  0  0  0  0  0
  2  1  1  0
  3  2  1  0
  4  3  2  0
  5  6  1  0
  5  3  1  0
  7  6  1  0
  8  9  1  0
  8  7  1  0
  9 10  1  1
  9  5  1  0
 10 17  1  0
 11 10  2  0
 13 12  1  1
 13 14  1  0
 15 13  1  0
 16 15  1  1
 17 16  1  0
 18 20  1  0
 18 16  1  0
 19 18  2  0
M  END
$$$$
