GPL.pdb
     RDKit          3D

 20 20  0  0  1  0  0  0  0  0999 V2000
   13.1112  -14.0193   19.9510 N   0  0  0  0  0  0  0  0  0  0  0  0
   11.8310  -14.6365   19.8128 C   0  0  0  0  0  0  0  0  0  0  0  0
   10.7986  -14.2034   20.7597 C   0  0  0  0  0  0  0  0  0  0  0  0
   11.1611  -13.9757   21.9569 O   0  0  0  0  0  0  0  0  0  0  0  0
    9.4218  -14.0140   20.4634 N   0  0  0  0  0  0  0  0  0  0  0  0
    8.8717  -14.2409   19.1762 C   0  0  0  0  0  0  0  0  0  0  0  0
    7.5265  -13.5515   19.2128 C   0  0  0  0  0  0  0  0  0  0  0  0
    7.1312  -13.5618   20.6656 C   0  0  0  0  0  0  0  0  0  0  0  0
    8.4434  -13.6013   21.3845 C   0  0  1  0  0  0  0  0  0  0  0  0
    8.3672  -14.4423   22.6098 C   0  0  0  0  0  0  0  0  0  0  0  0
    9.0477  -15.4883   22.6066 O   0  0  0  0  0  0  0  0  0  0  0  0
    5.8922  -12.3750   26.9913 C   0  0  0  0  0  0  0  0  0  0  0  0
    7.1852  -12.7972   26.1983 C   0  0  1  0  0  0  0  0  0  0  0  0
    8.2880  -12.0938   26.8967 C   0  0  0  0  0  0  0  0  0  0  0  0
    7.1903  -14.2555   26.1091 C   0  0  0  0  0  0  0  0  0  0  0  0
    7.7435  -14.9923   24.9646 C   0  0  2  0  0  0  0  0  0  0  0  0
    7.5949  -14.1327   23.7353 N   0  0  0  0  0  0  0  0  0  0  0  0
    7.0186  -16.2300   24.6486 C   0  0  0  0  0  0  0  0  0  0  0  0
    7.0082  -17.2507   25.3757 O   0  0  0  0  0  0  0  0  0  0  0  0
    6.2569  -16.3457   23.4531 O   0  0  0  0  0  0  0  0  0  0  0  0
  2  1  1  0
  3  2  1  0
  4  3  2  0
  5  6  1  0
  5  3  1  0
  7  6  1  0
  8  9  1  0
  8  7  1  0
  9 10  1  1
  9  5  1  0
 10 17  1  0
 11 10  2  0
 13 12  1  1
 13 14  1  0
 15 13  1  0
 16 15  1  1
 17 16  1  0
 18 20  1  0
 18 16  1  0
 19 18  2  0
M  END
$$$$
