GPL.pdb
     RDKit          3D

 20 20  0  0  1  0  0  0  0  0999 V2000
   12.1151  -17.7157   20.0316 N   0  0  0  0  0  0  0  0  0  0  0  0
   10.7295  -17.8663   20.3423 C   0  0  0  0  0  0  0  0  0  0  0  0
   10.0527  -16.6784   20.8723 C   0  0  0  0  0  0  0  0  0  0  0  0
   10.7375  -15.8892   21.5968 O   0  0  0  0  0  0  0  0  0  0  0  0
    8.6943  -16.3245   20.6516 N   0  0  0  0  0  0  0  0  0  0  0  0
    7.8302  -17.0695   19.8094 C   0  0  0  0  0  0  0  0  0  0  0  0
    6.6608  -16.1455   19.5548 C   0  0  0  0  0  0  0  0  0  0  0  0
    6.6184  -15.2421   20.7587 C   0  0  0  0  0  0  0  0  0  0  0  0
    8.0375  -15.2264   21.2339 C   0  0  1  0  0  0  0  0  0  0  0  0
    8.1133  -15.1892   22.7196 C   0  0  0  0  0  0  0  0  0  0  0  0
    8.7043  -16.1417   23.2679 O   0  0  0  0  0  0  0  0  0  0  0  0
    7.4548  -11.0329   27.1540 C   0  0  0  0  0  0  0  0  0  0  0  0
    7.5202  -12.5966   26.9827 C   0  0  1  0  0  0  0  0  0  0  0  0
    6.3870  -13.1008   27.7953 C   0  0  0  0  0  0  0  0  0  0  0  0
    7.5749  -12.8807   25.5505 C   0  0  0  0  0  0  0  0  0  0  0  0
    7.8072  -14.2238   25.0023 C   0  0  2  0  0  0  0  0  0  0  0  0
    7.5724  -14.1718   23.5143 N   0  0  0  0  0  0  0  0  0  0  0  0
    6.8667  -15.2379   25.4968 C   0  0  0  0  0  0  0  0  0  0  0  0
    5.7183  -15.4263   25.0317 O   0  0  0  0  0  0  0  0  0  0  0  0
    7.2189  -16.0978   26.5735 O   0  0  0  0  0  0  0  0  0  0  0  0
  2  1  1  0
  3  2  1  0
  4  3  2  0
  5  6  1  0
  5  3  1  0
  7  6  1  0
  8  9  1  0
  8  7  1  0
  9 10  1  1
  9  5  1  0
 10 17  1  0
 11 10  2  0
 13 12  1  6
 13 14  1  0
 15 13  1  0
 16 15  1  1
 17 16  1  0
 18 20  1  0
 18 16  1  0
 19 18  2  0
M  END
$$$$
