GPL.pdb
     RDKit          3D

 20 20  0  0  1  0  0  0  0  0999 V2000
    6.0120  -18.8029   21.5689 N   0  0  0  0  0  0  0  0  0  0  0  0
    5.8833  -17.3985   21.7928 C   0  0  0  0  0  0  0  0  0  0  0  0
    7.1338  -16.6346   21.8444 C   0  0  0  0  0  0  0  0  0  0  0  0
    8.0748  -17.1001   22.5616 O   0  0  0  0  0  0  0  0  0  0  0  0
    7.3942  -15.4143   21.1644 N   0  0  0  0  0  0  0  0  0  0  0  0
    6.4910  -14.8429   20.2323 C   0  0  0  0  0  0  0  0  0  0  0  0
    7.3158  -13.8195   19.4849 C   0  0  0  0  0  0  0  0  0  0  0  0
    8.3970  -13.4191   20.4533 C   0  0  0  0  0  0  0  0  0  0  0  0
    8.5442  -14.6231   21.3301 C   0  0  1  0  0  0  0  0  0  0  0  0
    8.8206  -14.2381   22.7407 C   0  0  0  0  0  0  0  0  0  0  0  0
    9.1202  -13.0433   22.9401 O   0  0  0  0  0  0  0  0  0  0  0  0
    8.1254  -11.8697   26.9064 C   0  0  0  0  0  0  0  0  0  0  0  0
    7.1769  -13.0983   26.6425 C   0  0  1  0  0  0  0  0  0  0  0  0
    5.8102  -12.5455   26.8019 C   0  0  0  0  0  0  0  0  0  0  0  0
    7.5777  -13.6991   25.3724 C   0  0  0  0  0  0  0  0  0  0  0  0
    8.7718  -14.5413   25.2191 C   0  0  2  0  0  0  0  0  0  0  0  0
    8.7645  -15.1191   23.8269 N   0  0  0  0  0  0  0  0  0  0  0  0
    8.7941  -15.7081   26.1110 C   0  0  0  0  0  0  0  0  0  0  0  0
    9.4267  -15.7623   27.1916 O   0  0  0  0  0  0  0  0  0  0  0  0
    8.0708  -16.8891   25.7873 O   0  0  0  0  0  0  0  0  0  0  0  0
  2  1  1  0
  3  2  1  0
  4  3  2  0
  5  6  1  0
  5  3  1  0
  7  6  1  0
  8  9  1  0
  8  7  1  0
  9 10  1  1
  9  5  1  0
 10 17  1  0
 11 10  2  0
 13 12  1  6
 13 14  1  0
 15 13  1  0
 16 15  1  1
 17 16  1  0
 18 20  1  0
 18 16  1  0
 19 18  2  0
M  END
$$$$
