GPL.pdb
     RDKit          3D

 20 20  0  0  1  0  0  0  0  0999 V2000
   11.9449  -17.9048   19.8599 N   0  0  0  0  0  0  0  0  0  0  0  0
   10.6425  -18.0068   20.4364 C   0  0  0  0  0  0  0  0  0  0  0  0
   10.0768  -16.7677   20.9793 C   0  0  0  0  0  0  0  0  0  0  0  0
   10.8133  -16.0778   21.7526 O   0  0  0  0  0  0  0  0  0  0  0  0
    8.7738  -16.2628   20.7215 N   0  0  0  0  0  0  0  0  0  0  0  0
    7.8782  -16.8712   19.8056 C   0  0  0  0  0  0  0  0  0  0  0  0
    6.8231  -15.8182   19.5521 C   0  0  0  0  0  0  0  0  0  0  0  0
    6.8173  -14.9749   20.7995 C   0  0  0  0  0  0  0  0  0  0  0  0
    8.2068  -15.1314   21.3334 C   0  0  1  0  0  0  0  0  0  0  0  0
    8.2162  -15.1746   22.8209 C   0  0  0  0  0  0  0  0  0  0  0  0
    8.6712  -16.2132   23.3419 O   0  0  0  0  0  0  0  0  0  0  0  0
    7.6719  -11.4234   27.5995 C   0  0  0  0  0  0  0  0  0  0  0  0
    7.2988  -12.9057   27.2221 C   0  0  1  0  0  0  0  0  0  0  0  0
    5.9545  -13.1062   27.8149 C   0  0  0  0  0  0  0  0  0  0  0  0
    7.4909  -13.0549   25.7814 C   0  0  0  0  0  0  0  0  0  0  0  0
    7.8190  -14.3348   25.1390 C   0  0  2  0  0  0  0  0  0  0  0  0
    7.7550  -14.1419   23.6454 N   0  0  0  0  0  0  0  0  0  0  0  0
    6.8546  -15.4058   25.4222 C   0  0  0  0  0  0  0  0  0  0  0  0
    6.9409  -16.2006   26.3873 O   0  0  0  0  0  0  0  0  0  0  0  0
    5.7232  -15.6102   24.5850 O   0  0  0  0  0  0  0  0  0  0  0  0
  2  1  1  0
  3  2  1  0
  4  3  2  0
  5  6  1  0
  5  3  1  0
  7  6  1  0
  8  9  1  0
  8  7  1  0
  9 10  1  1
  9  5  1  0
 10 17  1  0
 11 10  2  0
 13 12  1  6
 13 14  1  0
 15 13  1  0
 16 15  1  1
 17 16  1  0
 18 20  1  0
 18 16  1  0
 19 18  2  0
M  END
$$$$
