GPL.pdb
     RDKit          3D

 20 20  0  0  1  0  0  0  0  0999 V2000
    6.6431  -18.6858   20.2739 N   0  0  0  0  0  0  0  0  0  0  0  0
    6.3526  -17.4838   20.9880 C   0  0  0  0  0  0  0  0  0  0  0  0
    7.4989  -16.6252   21.3023 C   0  0  0  0  0  0  0  0  0  0  0  0
    8.5134  -17.1755   21.8357 O   0  0  0  0  0  0  0  0  0  0  0  0
    7.5826  -15.2264   21.0662 N   0  0  0  0  0  0  0  0  0  0  0  0
    6.5672  -14.4947   20.3994 C   0  0  0  0  0  0  0  0  0  0  0  0
    7.2282  -13.1884   20.0218 C   0  0  0  0  0  0  0  0  0  0  0  0
    8.3166  -13.0009   21.0453 C   0  0  0  0  0  0  0  0  0  0  0  0
    8.6475  -14.3993   21.4636 C   0  0  1  0  0  0  0  0  0  0  0  0
    8.9660  -14.4718   22.9154 C   0  0  0  0  0  0  0  0  0  0  0  0
   10.1205  -14.1331   23.2466 O   0  0  0  0  0  0  0  0  0  0  0  0
    5.7301  -12.3488   26.6102 C   0  0  0  0  0  0  0  0  0  0  0  0
    7.1231  -12.6336   25.9339 C   0  0  1  0  0  0  0  0  0  0  0  0
    8.0390  -11.6461   26.5541 C   0  0  0  0  0  0  0  0  0  0  0  0
    7.3928  -14.0634   26.0667 C   0  0  0  0  0  0  0  0  0  0  0  0
    8.4740  -14.7511   25.3478 C   0  0  2  0  0  0  0  0  0  0  0  0
    8.0659  -14.8879   23.9032 N   0  0  0  0  0  0  0  0  0  0  0  0
    8.7096  -16.1270   25.8046 C   0  0  0  0  0  0  0  0  0  0  0  0
    9.1806  -16.4309   26.9255 O   0  0  0  0  0  0  0  0  0  0  0  0
    8.4046  -17.2366   24.9688 O   0  0  0  0  0  0  0  0  0  0  0  0
  2  1  1  0
  3  2  1  0
  4  3  2  0
  5  6  1  0
  5  3  1  0
  7  6  1  0
  8  9  1  0
  8  7  1  0
  9 10  1  1
  9  5  1  0
 10 17  1  0
 11 10  2  0
 13 12  1  1
 13 14  1  0
 15 13  1  0
 16 15  1  1
 17 16  1  0
 18 20  1  0
 18 16  1  0
 19 18  2  0
M  END
$$$$
