GPL.pdb
     RDKit          3D

 20 20  0  0  1  0  0  0  0  0999 V2000
   10.7407  -17.5659   18.9230 N   0  0  0  0  0  0  0  0  0  0  0  0
    9.4756  -17.0012   19.2687 C   0  0  0  0  0  0  0  0  0  0  0  0
    9.4656  -16.0932   20.4201 C   0  0  0  0  0  0  0  0  0  0  0  0
   10.3065  -16.3150   21.3476 O   0  0  0  0  0  0  0  0  0  0  0  0
    8.5980  -14.9820   20.5982 N   0  0  0  0  0  0  0  0  0  0  0  0
    7.7238  -14.5156   19.5837 C   0  0  0  0  0  0  0  0  0  0  0  0
    7.3146  -13.1342   20.0424 C   0  0  0  0  0  0  0  0  0  0  0  0
    7.4387  -13.1773   21.5424 C   0  0  0  0  0  0  0  0  0  0  0  0
    8.4820  -14.2246   21.7768 C   0  0  1  0  0  0  0  0  0  0  0  0
    8.1809  -15.0301   22.9913 C   0  0  0  0  0  0  0  0  0  0  0  0
    7.7576  -16.1878   22.7969 O   0  0  0  0  0  0  0  0  0  0  0  0
    7.4356  -13.1458   27.3350 C   0  0  0  0  0  0  0  0  0  0  0  0
    8.8914  -13.6121   26.9584 C   0  0  1  0  0  0  0  0  0  0  0  0
    9.7261  -13.1590   28.0972 C   0  0  0  0  0  0  0  0  0  0  0  0
    8.8255  -15.0322   26.6212 C   0  0  0  0  0  0  0  0  0  0  0  0
    8.1314  -15.5485   25.4336 C   0  0  2  0  0  0  0  0  0  0  0  0
    8.3421  -14.5727   24.3042 N   0  0  0  0  0  0  0  0  0  0  0  0
    6.6735  -15.6358   25.5890 C   0  0  0  0  0  0  0  0  0  0  0  0
    6.0884  -16.4460   26.3453 O   0  0  0  0  0  0  0  0  0  0  0  0
    5.8083  -14.7721   24.8622 O   0  0  0  0  0  0  0  0  0  0  0  0
  2  1  1  0
  3  2  1  0
  4  3  2  0
  5  6  1  0
  5  3  1  0
  7  6  1  0
  8  9  1  0
  8  7  1  0
  9 10  1  1
  9  5  1  0
 10 17  1  0
 11 10  2  0
 13 12  1  1
 13 14  1  0
 15 13  1  0
 16 15  1  1
 17 16  1  0
 18 20  1  0
 18 16  1  0
 19 18  2  0
M  END
$$$$
