GPL.pdb
     RDKit          3D

 20 20  0  0  1  0  0  0  0  0999 V2000
    8.3422  -16.3293   18.8573 N   0  0  0  0  0  0  0  0  0  0  0  0
    8.1655  -17.3626   19.8269 C   0  0  0  0  0  0  0  0  0  0  0  0
    7.7217  -16.9327   21.1566 C   0  0  0  0  0  0  0  0  0  0  0  0
    7.8104  -15.6945   21.4312 O   0  0  0  0  0  0  0  0  0  0  0  0
    7.1991  -17.7757   22.1742 N   0  0  0  0  0  0  0  0  0  0  0  0
    7.0596  -19.1782   22.0178 C   0  0  0  0  0  0  0  0  0  0  0  0
    6.1266  -19.5925   23.1331 C   0  0  0  0  0  0  0  0  0  0  0  0
    6.3295  -18.5556   24.2060 C   0  0  0  0  0  0  0  0  0  0  0  0
    6.7748  -17.3469   23.4440 C   0  0  1  0  0  0  0  0  0  0  0  0
    7.7981  -16.5742   24.1992 C   0  0  0  0  0  0  0  0  0  0  0  0
    8.9905  -16.8576   23.9646 O   0  0  0  0  0  0  0  0  0  0  0  0
    6.5187  -11.9783   26.9925 C   0  0  0  0  0  0  0  0  0  0  0  0
    6.9604  -12.9729   25.8547 C   0  0  1  0  0  0  0  0  0  0  0  0
    6.8852  -12.1649   24.6137 C   0  0  0  0  0  0  0  0  0  0  0  0
    8.2304  -13.5704   26.2610 C   0  0  0  0  0  0  0  0  0  0  0  0
    8.6473  -14.9239   25.8701 C   0  0  2  0  0  0  0  0  0  0  0  0
    7.5043  -15.5740   25.1332 N   0  0  0  0  0  0  0  0  0  0  0  0
    8.9170  -15.8138   27.0071 C   0  0  0  0  0  0  0  0  0  0  0  0
    8.1639  -16.7471   27.3711 O   0  0  0  0  0  0  0  0  0  0  0  0
   10.0942  -15.6617   27.7907 O   0  0  0  0  0  0  0  0  0  0  0  0
  2  1  1  0
  3  2  1  0
  4  3  2  0
  5  6  1  0
  5  3  1  0
  7  6  1  0
  8  9  1  0
  8  7  1  0
  9 10  1  1
  9  5  1  0
 10 17  1  0
 11 10  2  0
 13 12  1  1
 13 14  1  0
 15 13  1  0
 16 15  1  1
 17 16  1  0
 18 20  1  0
 18 16  1  0
 19 18  2  0
M  END
$$$$
