GPL.pdb
     RDKit          3D

 20 20  0  0  1  0  0  0  0  0999 V2000
   11.6851  -17.3119   19.4332 N   0  0  0  0  0  0  0  0  0  0  0  0
   10.3609  -17.5209   19.9251 C   0  0  0  0  0  0  0  0  0  0  0  0
    9.8157  -16.4645   20.7835 C   0  0  0  0  0  0  0  0  0  0  0  0
   10.6270  -15.8579   21.5519 O   0  0  0  0  0  0  0  0  0  0  0  0
    8.4567  -16.0530   20.8384 N   0  0  0  0  0  0  0  0  0  0  0  0
    7.4551  -16.5838   19.9862 C   0  0  0  0  0  0  0  0  0  0  0  0
    6.3035  -15.6112   20.1043 C   0  0  0  0  0  0  0  0  0  0  0  0
    6.4635  -14.9932   21.4680 C   0  0  0  0  0  0  0  0  0  0  0  0
    7.9332  -15.1007   21.7301 C   0  0  1  0  0  0  0  0  0  0  0  0
    8.2103  -15.3911   23.1631 C   0  0  0  0  0  0  0  0  0  0  0  0
    8.7248  -16.4999   23.4138 O   0  0  0  0  0  0  0  0  0  0  0  0
    7.3683  -11.7041   27.5398 C   0  0  0  0  0  0  0  0  0  0  0  0
    7.0422  -13.0719   26.8315 C   0  0  1  0  0  0  0  0  0  0  0  0
    6.0477  -12.7162   25.7908 C   0  0  0  0  0  0  0  0  0  0  0  0
    8.3128  -13.6833   26.4485 C   0  0  0  0  0  0  0  0  0  0  0  0
    8.4101  -14.8779   25.5989 C   0  0  2  0  0  0  0  0  0  0  0  0
    7.9330  -14.5123   24.2165 N   0  0  0  0  0  0  0  0  0  0  0  0
    7.5347  -15.9793   26.0204 C   0  0  0  0  0  0  0  0  0  0  0  0
    6.4274  -16.2449   25.4969 O   0  0  0  0  0  0  0  0  0  0  0  0
    7.9079  -16.8415   27.0882 O   0  0  0  0  0  0  0  0  0  0  0  0
  2  1  1  0
  3  2  1  0
  4  3  2  0
  5  6  1  0
  5  3  1  0
  7  6  1  0
  8  9  1  0
  8  7  1  0
  9 10  1  1
  9  5  1  0
 10 17  1  0
 11 10  2  0
 13 12  1  6
 13 14  1  0
 15 13  1  0
 16 15  1  1
 17 16  1  0
 18 20  1  0
 18 16  1  0
 19 18  2  0
M  END
$$$$
