GPL.pdb
     RDKit          3D

 20 20  0  0  1  0  0  0  0  0999 V2000
   11.5744  -17.0687   19.2930 N   0  0  0  0  0  0  0  0  0  0  0  0
   10.2470  -17.1363   19.8150 C   0  0  0  0  0  0  0  0  0  0  0  0
    9.9509  -16.2514   20.9460 C   0  0  0  0  0  0  0  0  0  0  0  0
   10.9350  -15.8262   21.6296 O   0  0  0  0  0  0  0  0  0  0  0  0
    8.6589  -15.8223   21.3531 N   0  0  0  0  0  0  0  0  0  0  0  0
    7.4760  -16.1608   20.6479 C   0  0  0  0  0  0  0  0  0  0  0  0
    6.4348  -15.1975   21.1712 C   0  0  0  0  0  0  0  0  0  0  0  0
    6.9022  -14.8461   22.5587 C   0  0  0  0  0  0  0  0  0  0  0  0
    8.3848  -15.0378   22.4869 C   0  0  1  0  0  0  0  0  0  0  0  0
    8.9234  -15.5947   23.7575 C   0  0  0  0  0  0  0  0  0  0  0  0
    9.3272  -16.7747   23.7177 O   0  0  0  0  0  0  0  0  0  0  0  0
   10.6646  -13.2872   29.1750 C   0  0  0  0  0  0  0  0  0  0  0  0
   10.7313  -14.6281   28.3526 C   0  0  1  0  0  0  0  0  0  0  0  0
   10.2933  -15.6685   29.3141 C   0  0  0  0  0  0  0  0  0  0  0  0
    9.9875  -14.4211   27.1121 C   0  0  0  0  0  0  0  0  0  0  0  0
    9.8514  -15.4493   26.0714 C   0  0  2  0  0  0  0  0  0  0  0  0
    8.9998  -14.8864   24.9623 N   0  0  0  0  0  0  0  0  0  0  0  0
    9.1408  -16.6550   26.5171 C   0  0  0  0  0  0  0  0  0  0  0  0
    9.7016  -17.6917   26.9429 O   0  0  0  0  0  0  0  0  0  0  0  0
    7.7202  -16.7175   26.4903 O   0  0  0  0  0  0  0  0  0  0  0  0
  2  1  1  0
  3  2  1  0
  4  3  2  0
  5  6  1  0
  5  3  1  0
  7  6  1  0
  8  9  1  0
  8  7  1  0
  9 10  1  1
  9  5  1  0
 10 17  1  0
 11 10  2  0
 13 12  1  1
 13 14  1  0
 15 13  1  0
 16 15  1  1
 17 16  1  0
 18 20  1  0
 18 16  1  0
 19 18  2  0
M  END
$$$$
