GPL.pdb
     RDKit          3D

 20 20  0  0  1  0  0  0  0  0999 V2000
    6.2783  -18.5382   20.6244 N   0  0  0  0  0  0  0  0  0  0  0  0
    6.1292  -17.3099   21.3371 C   0  0  0  0  0  0  0  0  0  0  0  0
    7.3295  -16.4744   21.4440 C   0  0  0  0  0  0  0  0  0  0  0  0
    8.3164  -16.9479   22.0909 O   0  0  0  0  0  0  0  0  0  0  0  0
    7.4941  -15.1764   20.8897 N   0  0  0  0  0  0  0  0  0  0  0  0
    6.5383  -14.5781   20.0298 C   0  0  0  0  0  0  0  0  0  0  0  0
    7.2782  -13.4292   19.3827 C   0  0  0  0  0  0  0  0  0  0  0  0
    8.3457  -13.0542   20.3762 C   0  0  0  0  0  0  0  0  0  0  0  0
    8.5899  -14.3275   21.1240 C   0  0  1  0  0  0  0  0  0  0  0  0
    8.8630  -14.0690   22.5638 C   0  0  0  0  0  0  0  0  0  0  0  0
    9.2394  -12.9161   22.8576 O   0  0  0  0  0  0  0  0  0  0  0  0
    8.0414  -11.9999   26.7986 C   0  0  0  0  0  0  0  0  0  0  0  0
    6.9996  -13.1080   26.3918 C   0  0  1  0  0  0  0  0  0  0  0  0
    5.6873  -12.4222   26.4708 C   0  0  0  0  0  0  0  0  0  0  0  0
    7.4452  -13.6881   25.1269 C   0  0  0  0  0  0  0  0  0  0  0  0
    8.6342  -14.5424   25.0051 C   0  0  2  0  0  0  0  0  0  0  0  0
    8.7247  -15.0224   23.5791 N   0  0  0  0  0  0  0  0  0  0  0  0
    8.5700  -15.7681   25.8118 C   0  0  0  0  0  0  0  0  0  0  0  0
    7.8094  -16.7351   25.5727 O   0  0  0  0  0  0  0  0  0  0  0  0
    9.3995  -15.9348   26.9549 O   0  0  0  0  0  0  0  0  0  0  0  0
  2  1  1  0
  3  2  1  0
  4  3  2  0
  5  6  1  0
  5  3  1  0
  7  6  1  0
  8  9  1  0
  8  7  1  0
  9 10  1  1
  9  5  1  0
 10 17  1  0
 11 10  2  0
 13 12  1  6
 13 14  1  0
 15 13  1  0
 16 15  1  6
 17 16  1  0
 18 20  1  0
 18 16  1  0
 19 18  2  0
M  END
$$$$
