WMK.pdb
     RDKit          3D

 32 33  0  0  1  0  0  0  0  0999 V2000
   25.8407  -20.9033  -13.5290 N   0  0  0  0  0  0  0  0  0  0  0  0
   24.7338  -20.3480  -12.7504 C   0  0  1  0  0  0  0  0  0  0  0  0
   23.4637  -20.6726  -13.5319 C   0  0  0  0  0  0  0  0  0  0  0  0
   23.4173  -19.8174  -14.7372 C   0  0  0  0  0  0  0  0  0  0  0  0
   24.3371  -19.6767  -15.7622 C   0  0  0  0  0  0  0  0  0  0  0  0
   23.8718  -18.7800  -16.6521 N   0  0  0  0  0  0  0  0  0  0  0  0
   22.6720  -18.3168  -16.2563 C   0  0  0  0  0  0  0  0  0  0  0  0
   21.8240  -17.4008  -16.8336 C   0  0  0  0  0  0  0  0  0  0  0  0
   20.6240  -17.1124  -16.1841 C   0  0  0  0  0  0  0  0  0  0  0  0
   20.3226  -17.7420  -14.9993 C   0  0  0  0  0  0  0  0  0  0  0  0
   21.1848  -18.6462  -14.4517 C   0  0  0  0  0  0  0  0  0  0  0  0
   22.3861  -18.9608  -15.0643 C   0  0  0  0  0  0  0  0  0  0  0  0
   24.7216  -20.9964  -11.4189 C   0  0  0  0  0  0  0  0  0  0  0  0
   24.7882  -22.2552  -11.3313 O   0  0  0  0  0  0  0  0  0  0  0  0
   26.5682  -18.5556   -5.5398 C   0  0  0  0  0  0  0  0  0  0  0  0
   27.6035  -19.7237   -6.4687 S   0  0  0  0  0  0  0  0  0  0  0  0
   26.7793  -20.1483   -8.0654 C   0  0  0  0  0  0  0  0  0  0  0  0
   25.2886  -20.1401   -7.8688 C   0  0  0  0  0  0  0  0  0  0  0  0
   24.5568  -20.9278   -8.9076 C   0  0  2  0  0  0  0  0  0  0  0  0
   24.6368  -20.2559  -10.2081 N   0  0  0  0  0  0  0  0  0  0  0  0
   23.1164  -21.1206   -8.5605 C   0  0  0  0  0  0  0  0  0  0  0  0
   22.3212  -20.1336   -8.6219 O   0  0  0  0  0  0  0  0  0  0  0  0
   22.6370  -22.3961   -8.1647 N   0  0  0  0  0  0  0  0  0  0  0  0
   21.2526  -22.5676   -7.8371 C   0  0  1  0  0  0  0  0  0  0  0  0
   20.7773  -23.9729   -8.0344 C   0  0  0  0  0  0  0  0  0  0  0  0
   19.3877  -24.2871   -7.6953 C   0  0  0  0  0  0  0  0  0  0  0  0
   18.5888  -25.1759   -8.5548 C   0  0  0  0  0  0  0  0  0  0  0  0
   17.1846  -25.4510   -8.1404 C   0  0  0  0  0  0  0  0  0  0  0  0
   16.4859  -26.2984   -9.1166 N   0  0  0  0  0  0  0  0  0  0  0  0
   20.9883  -21.9953   -6.5125 C   0  0  0  0  0  0  0  0  0  0  0  0
   21.9070  -21.9621   -5.6584 O   0  0  0  0  0  0  0  0  0  0  0  0
   19.7615  -21.4862   -6.1724 O   0  0  0  0  0  0  0  0  0  0  0  0
  2  1  1  6
  2 13  1  0
  2  3  1  0
  4  3  1  0
  4  5  2  0
  6  5  1  0
  7 12  2  0
  7  6  1  0
  8  7  1  0
  9 10  1  0
  9  8  2  0
 10 11  2  0
 11 12  1  0
 12  4  1  0
 13 14  2  0
 16 15  1  0
 17 16  1  0
 18 17  1  0
 19 18  1  1
 20 19  1  0
 20 13  1  0
 21 19  1  0
 22 21  2  0
 23 21  1  0
 24 23  1  0
 24 25  1  1
 25 26  1  0
 26 27  1  0
 27 28  1  0
 28 29  1  0
 30 24  1  0
 31 30  2  0
 32 30  1  0
M  END
$$$$
