WMK.pdb
     RDKit          3D

 32 33  0  0  1  0  0  0  0  0999 V2000
   28.4114  -21.0767  -10.4464 N   0  0  0  0  0  0  0  0  0  0  0  0
   27.0261  -21.0374   -9.9782 C   0  0  1  0  0  0  0  0  0  0  0  0
   26.9865  -19.9948   -8.8643 C   0  0  0  0  0  0  0  0  0  0  0  0
   28.0694  -20.2888   -7.9014 C   0  0  0  0  0  0  0  0  0  0  0  0
   29.3071  -20.8735   -8.1081 C   0  0  0  0  0  0  0  0  0  0  0  0
   29.9641  -20.9412   -6.9350 N   0  0  0  0  0  0  0  0  0  0  0  0
   29.2073  -20.4214   -5.9514 C   0  0  0  0  0  0  0  0  0  0  0  0
   29.4532  -20.2750   -4.6062 C   0  0  0  0  0  0  0  0  0  0  0  0
   28.4651  -19.6892   -3.8152 C   0  0  0  0  0  0  0  0  0  0  0  0
   27.2861  -19.2784   -4.3916 C   0  0  0  0  0  0  0  0  0  0  0  0
   27.0719  -19.4376   -5.7294 C   0  0  0  0  0  0  0  0  0  0  0  0
   28.0268  -20.0142   -6.5498 C   0  0  0  0  0  0  0  0  0  0  0  0
   26.1565  -20.6424  -11.1101 C   0  0  0  0  0  0  0  0  0  0  0  0
   26.5810  -19.8235  -11.9737 O   0  0  0  0  0  0  0  0  0  0  0  0
   23.4557  -19.1508  -17.0404 C   0  0  0  0  0  0  0  0  0  0  0  0
   24.3389  -19.4965  -15.4913 S   0  0  0  0  0  0  0  0  0  0  0  0
   24.0200  -21.2393  -14.9717 C   0  0  0  0  0  0  0  0  0  0  0  0
   24.7393  -21.5084  -13.6790 C   0  0  0  0  0  0  0  0  0  0  0  0
   24.0688  -20.8877  -12.4957 C   0  0  2  0  0  0  0  0  0  0  0  0
   24.8391  -21.1505  -11.2764 N   0  0  0  0  0  0  0  0  0  0  0  0
   22.6793  -21.4008  -12.2994 C   0  0  0  0  0  0  0  0  0  0  0  0
   22.5001  -22.6204  -11.9980 O   0  0  0  0  0  0  0  0  0  0  0  0
   21.5655  -20.5342  -12.4479 N   0  0  0  0  0  0  0  0  0  0  0  0
   20.2433  -21.0208  -12.1863 C   0  0  1  0  0  0  0  0  0  0  0  0
   19.2141  -19.9346  -12.1787 C   0  0  0  0  0  0  0  0  0  0  0  0
   17.8455  -20.2812  -11.7892 C   0  0  0  0  0  0  0  0  0  0  0  0
   16.7902  -19.2552  -11.7653 C   0  0  0  0  0  0  0  0  0  0  0  0
   15.4198  -19.6893  -11.3746 C   0  0  0  0  0  0  0  0  0  0  0  0
   14.5226  -18.5428  -11.1750 N   0  0  0  0  0  0  0  0  0  0  0  0
   19.9544  -22.1538  -13.0723 C   0  0  0  0  0  0  0  0  0  0  0  0
   20.4136  -22.1589  -14.2400 O   0  0  0  0  0  0  0  0  0  0  0  0
   19.1957  -23.2205  -12.6641 O   0  0  0  0  0  0  0  0  0  0  0  0
  2  1  1  6
  2 13  1  0
  2  3  1  0
  4  3  1  0
  4  5  2  0
  6  5  1  0
  7 12  2  0
  7  6  1  0
  8  7  1  0
  9 10  1  0
  9  8  2  0
 10 11  2  0
 11 12  1  0
 12  4  1  0
 13 14  2  0
 16 15  1  0
 17 16  1  0
 18 17  1  0
 19 18  1  6
 20 19  1  0
 20 13  1  0
 21 19  1  0
 22 21  2  0
 23 21  1  0
 24 23  1  0
 24 25  1  6
 25 26  1  0
 26 27  1  0
 27 28  1  0
 28 29  1  0
 30 24  1  0
 31 30  2  0
 32 30  1  0
M  END
$$$$
