WMK.pdb
     RDKit          3D

 32 33  0  0  1  0  0  0  0  0999 V2000
   27.9854  -18.1237  -13.9050 N   0  0  0  0  0  0  0  0  0  0  0  0
   27.9408  -19.5688  -13.6830 C   0  0  1  0  0  0  0  0  0  0  0  0
   26.5723  -19.8600  -13.0732 C   0  0  0  0  0  0  0  0  0  0  0  0
   26.5599  -19.3663  -11.6795 C   0  0  0  0  0  0  0  0  0  0  0  0
   27.0892  -18.2046  -11.1441 C   0  0  0  0  0  0  0  0  0  0  0  0
   26.8380  -18.1742   -9.8219 N   0  0  0  0  0  0  0  0  0  0  0  0
   26.1586  -19.2763   -9.4556 C   0  0  0  0  0  0  0  0  0  0  0  0
   25.6883  -19.6791   -8.2275 C   0  0  0  0  0  0  0  0  0  0  0  0
   25.0055  -20.8926   -8.1486 C   0  0  0  0  0  0  0  0  0  0  0  0
   24.8220  -21.6458   -9.2844 C   0  0  0  0  0  0  0  0  0  0  0  0
   25.3007  -21.2191  -10.4884 C   0  0  0  0  0  0  0  0  0  0  0  0
   25.9838  -20.0208  -10.6100 C   0  0  0  0  0  0  0  0  0  0  0  0
   28.1001  -20.2517  -14.9875 C   0  0  0  0  0  0  0  0  0  0  0  0
   27.5853  -19.7507  -16.0271 O   0  0  0  0  0  0  0  0  0  0  0  0
   31.5706  -26.1489  -19.0853 C   0  0  0  0  0  0  0  0  0  0  0  0
   31.4301  -25.2137  -17.5346 S   0  0  0  0  0  0  0  0  0  0  0  0
   30.0397  -24.0057  -17.6631 C   0  0  0  0  0  0  0  0  0  0  0  0
   29.9483  -23.2204  -16.3842 C   0  0  0  0  0  0  0  0  0  0  0  0
   28.8861  -22.1690  -16.4174 C   0  0  2  0  0  0  0  0  0  0  0  0
   28.8194  -21.4697  -15.1307 N   0  0  0  0  0  0  0  0  0  0  0  0
   27.5375  -22.7369  -16.7197 C   0  0  0  0  0  0  0  0  0  0  0  0
   26.9319  -23.4146  -15.8340 O   0  0  0  0  0  0  0  0  0  0  0  0
   26.9347  -22.5225  -17.9862 N   0  0  0  0  0  0  0  0  0  0  0  0
   25.6272  -23.0454  -18.2516 C   0  0  1  0  0  0  0  0  0  0  0  0
   24.5353  -22.0745  -17.9281 C   0  0  0  0  0  0  0  0  0  0  0  0
   23.1705  -22.4046  -18.3444 C   0  0  0  0  0  0  0  0  0  0  0  0
   22.0619  -21.4708  -18.0876 C   0  0  0  0  0  0  0  0  0  0  0  0
   20.6997  -21.8861  -18.5250 C   0  0  0  0  0  0  0  0  0  0  0  0
   19.6852  -20.8852  -18.1668 N   0  0  0  0  0  0  0  0  0  0  0  0
   25.5893  -23.6045  -19.6073 C   0  0  0  0  0  0  0  0  0  0  0  0
   24.7605  -24.5057  -19.8819 O   0  0  0  0  0  0  0  0  0  0  0  0
   26.4335  -23.1700  -20.5965 O   0  0  0  0  0  0  0  0  0  0  0  0
  2  1  1  6
  2 13  1  0
  2  3  1  0
  4  3  1  0
  4  5  2  0
  6  5  1  0
  7 12  2  0
  7  6  1  0
  8  7  1  0
  9 10  1  0
  9  8  2  0
 10 11  2  0
 11 12  1  0
 12  4  1  0
 13 14  2  0
 16 15  1  0
 17 16  1  0
 18 17  1  0
 19 18  1  1
 20 19  1  0
 20 13  1  0
 21 19  1  0
 22 21  2  0
 23 21  1  0
 24 23  1  0
 24 25  1  6
 25 26  1  0
 26 27  1  0
 27 28  1  0
 28 29  1  0
 30 24  1  0
 31 30  2  0
 32 30  1  0
M  END
$$$$
