WMK.pdb
     RDKit          3D

 32 33  0  0  1  0  0  0  0  0999 V2000
   28.2101  -21.2846  -14.6491 N   0  0  0  0  0  0  0  0  0  0  0  0
   27.0696  -20.4851  -14.2019 C   0  0  1  0  0  0  0  0  0  0  0  0
   26.1276  -20.3876  -15.3987 C   0  0  0  0  0  0  0  0  0  0  0  0
   26.6914  -19.4242  -16.3683 C   0  0  0  0  0  0  0  0  0  0  0  0
   27.8768  -19.4727  -17.0816 C   0  0  0  0  0  0  0  0  0  0  0  0
   27.9762  -18.3698  -17.8471 N   0  0  0  0  0  0  0  0  0  0  0  0
   26.8971  -17.5859  -17.6695 C   0  0  0  0  0  0  0  0  0  0  0  0
   26.5597  -16.3759  -18.2295 C   0  0  0  0  0  0  0  0  0  0  0  0
   25.3543  -15.7865  -17.8491 C   0  0  0  0  0  0  0  0  0  0  0  0
   24.5444  -16.4207  -16.9365 C   0  0  0  0  0  0  0  0  0  0  0  0
   24.9071  -17.6207  -16.3986 C   0  0  0  0  0  0  0  0  0  0  0  0
   26.0951  -18.2395  -16.7493 C   0  0  0  0  0  0  0  0  0  0  0  0
   26.4209  -21.1818  -13.0674 C   0  0  0  0  0  0  0  0  0  0  0  0
   26.2385  -22.4311  -13.1174 O   0  0  0  0  0  0  0  0  0  0  0  0
   27.5246  -18.5105   -7.5466 C   0  0  0  0  0  0  0  0  0  0  0  0
   27.1794  -20.2814   -7.3364 S   0  0  0  0  0  0  0  0  0  0  0  0
   26.8878  -21.0561   -8.9867 C   0  0  0  0  0  0  0  0  0  0  0  0
   25.5494  -20.6139   -9.5101 C   0  0  0  0  0  0  0  0  0  0  0  0
   25.2260  -21.1894  -10.8514 C   0  0  2  0  0  0  0  0  0  0  0  0
   25.9839  -20.4991  -11.8993 N   0  0  0  0  0  0  0  0  0  0  0  0
   23.7704  -21.0892  -11.1738 C   0  0  0  0  0  0  0  0  0  0  0  0
   22.9147  -21.5142  -10.3387 O   0  0  0  0  0  0  0  0  0  0  0  0
   23.3439  -20.5238  -12.4033 N   0  0  0  0  0  0  0  0  0  0  0  0
   21.9446  -20.3628  -12.6670 C   0  0  1  0  0  0  0  0  0  0  0  0
   21.6727  -19.6695  -13.9649 C   0  0  0  0  0  0  0  0  0  0  0  0
   20.2786  -19.4125  -14.3332 C   0  0  0  0  0  0  0  0  0  0  0  0
   19.9464  -18.8011  -15.6303 C   0  0  0  0  0  0  0  0  0  0  0  0
   18.5081  -18.5392  -15.9171 C   0  0  0  0  0  0  0  0  0  0  0  0
   18.3199  -17.9328  -17.2423 N   0  0  0  0  0  0  0  0  0  0  0  0
   21.2612  -21.6483  -12.4862 C   0  0  0  0  0  0  0  0  0  0  0  0
   20.1862  -21.6920  -11.8407 O   0  0  0  0  0  0  0  0  0  0  0  0
   21.7586  -22.8152  -13.0066 O   0  0  0  0  0  0  0  0  0  0  0  0
  2  1  1  6
  2 13  1  0
  2  3  1  0
  4  3  1  0
  4  5  2  0
  6  5  1  0
  7 12  2  0
  7  6  1  0
  8  7  1  0
  9 10  1  0
  9  8  2  0
 10 11  2  0
 11 12  1  0
 12  4  1  0
 13 14  2  0
 16 15  1  0
 17 16  1  0
 18 17  1  0
 19 18  1  1
 20 19  1  0
 20 13  1  0
 21 19  1  0
 22 21  2  0
 23 21  1  0
 24 23  1  0
 24 25  1  6
 25 26  1  0
 26 27  1  0
 27 28  1  0
 28 29  1  0
 30 24  1  0
 31 30  2  0
 32 30  1  0
M  END
$$$$
