WMK.pdb
     RDKit          3D

 32 33  0  0  1  0  0  0  0  0999 V2000
   28.7551  -21.5566  -10.0598 N   0  0  0  0  0  0  0  0  0  0  0  0
   27.3698  -21.1292   -9.8647 C   0  0  1  0  0  0  0  0  0  0  0  0
   27.4408  -19.7742   -9.1658 C   0  0  0  0  0  0  0  0  0  0  0  0
   28.4187  -19.8620   -8.0602 C   0  0  0  0  0  0  0  0  0  0  0  0
   29.7899  -20.0478   -8.1000 C   0  0  0  0  0  0  0  0  0  0  0  0
   30.2693  -20.0638   -6.8420 N   0  0  0  0  0  0  0  0  0  0  0  0
   29.2647  -19.8948   -5.9630 C   0  0  0  0  0  0  0  0  0  0  0  0
   29.2685  -19.8421   -4.5887 C   0  0  0  0  0  0  0  0  0  0  0  0
   28.0523  -19.6529   -3.9328 C   0  0  0  0  0  0  0  0  0  0  0  0
   26.8958  -19.5256   -4.6659 C   0  0  0  0  0  0  0  0  0  0  0  0
   26.9248  -19.5825   -6.0286 C   0  0  0  0  0  0  0  0  0  0  0  0
   28.1109  -19.7689   -6.7183 C   0  0  0  0  0  0  0  0  0  0  0  0
   26.7208  -21.0124  -11.1907 C   0  0  0  0  0  0  0  0  0  0  0  0
   27.4285  -20.8624  -12.2267 O   0  0  0  0  0  0  0  0  0  0  0  0
   25.1130  -24.8784  -15.1613 C   0  0  0  0  0  0  0  0  0  0  0  0
   26.5265  -23.7410  -15.2469 S   0  0  0  0  0  0  0  0  0  0  0  0
   26.0542  -22.1097  -14.5226 C   0  0  0  0  0  0  0  0  0  0  0  0
   25.0581  -22.3298  -13.4180 C   0  0  0  0  0  0  0  0  0  0  0  0
   24.7010  -21.0725  -12.6925 C   0  0  2  0  0  0  0  0  0  0  0  0
   25.3099  -21.0619  -11.3590 N   0  0  0  0  0  0  0  0  0  0  0  0
   23.2237  -20.9068  -12.5413 C   0  0  0  0  0  0  0  0  0  0  0  0
   22.6246  -21.4858  -11.5841 O   0  0  0  0  0  0  0  0  0  0  0  0
   22.4923  -20.1091  -13.4589 N   0  0  0  0  0  0  0  0  0  0  0  0
   21.1782  -19.6514  -13.1166 C   0  0  1  0  0  0  0  0  0  0  0  0
   20.7334  -18.4867  -13.9442 C   0  0  0  0  0  0  0  0  0  0  0  0
   19.4081  -17.9198  -13.6848 C   0  0  0  0  0  0  0  0  0  0  0  0
   18.9149  -16.7767  -14.4702 C   0  0  0  0  0  0  0  0  0  0  0  0
   17.5968  -16.1982  -14.0865 C   0  0  0  0  0  0  0  0  0  0  0  0
   17.3213  -14.9480  -14.8078 N   0  0  0  0  0  0  0  0  0  0  0  0
   20.2548  -20.7910  -13.0882 C   0  0  0  0  0  0  0  0  0  0  0  0
   19.3217  -20.8104  -12.2495 O   0  0  0  0  0  0  0  0  0  0  0  0
   20.3739  -21.8447  -13.9573 O   0  0  0  0  0  0  0  0  0  0  0  0
  2  1  1  6
  2 13  1  0
  2  3  1  0
  4  3  1  0
  4  5  2  0
  6  5  1  0
  7 12  2  0
  7  6  1  0
  8  7  1  0
  9 10  1  0
  9  8  2  0
 10 11  2  0
 11 12  1  0
 12  4  1  0
 13 14  2  0
 16 15  1  0
 17 16  1  0
 18 17  1  0
 19 18  1  1
 20 19  1  0
 20 13  1  0
 21 19  1  0
 22 21  2  0
 23 21  1  0
 24 23  1  0
 24 25  1  6
 25 26  1  0
 26 27  1  0
 27 28  1  0
 28 29  1  0
 30 24  1  0
 31 30  2  0
 32 30  1  0
M  END
$$$$
