WMK.pdb
     RDKit          3D

 32 33  0  0  1  0  0  0  0  0999 V2000
   28.5477  -20.1257  -15.9058 N   0  0  0  0  0  0  0  0  0  0  0  0
   27.5208  -19.4726  -15.0940 C   0  0  1  0  0  0  0  0  0  0  0  0
   26.5333  -18.8547  -16.0801 C   0  0  0  0  0  0  0  0  0  0  0  0
   27.1977  -17.7313  -16.7750 C   0  0  0  0  0  0  0  0  0  0  0  0
   27.7273  -17.6657  -18.0523 C   0  0  0  0  0  0  0  0  0  0  0  0
   28.2352  -16.4358  -18.2564 N   0  0  0  0  0  0  0  0  0  0  0  0
   28.0627  -15.6772  -17.1585 C   0  0  0  0  0  0  0  0  0  0  0  0
   28.4127  -14.3725  -16.9000 C   0  0  0  0  0  0  0  0  0  0  0  0
   28.1000  -13.8415  -15.6489 C   0  0  0  0  0  0  0  0  0  0  0  0
   27.4588  -14.6244  -14.7178 C   0  0  0  0  0  0  0  0  0  0  0  0
   27.1248  -15.9156  -15.0044 C   0  0  0  0  0  0  0  0  0  0  0  0
   27.4170  -16.4809  -16.2341 C   0  0  0  0  0  0  0  0  0  0  0  0
   26.8630  -20.4975  -14.2513 C   0  0  0  0  0  0  0  0  0  0  0  0
   27.5497  -21.4262  -13.7388 O   0  0  0  0  0  0  0  0  0  0  0  0
   27.9418  -21.7412   -9.9829 C   0  0  0  0  0  0  0  0  0  0  0  0
   26.5776  -20.9230   -9.1063 S   0  0  0  0  0  0  0  0  0  0  0  0
   25.1172  -20.7814  -10.2271 C   0  0  0  0  0  0  0  0  0  0  0  0
   25.5702  -20.2685  -11.5659 C   0  0  0  0  0  0  0  0  0  0  0  0
   24.9294  -20.9811  -12.7133 C   0  0  2  0  0  0  0  0  0  0  0  0
   25.4664  -20.4877  -13.9849 N   0  0  0  0  0  0  0  0  0  0  0  0
   23.4449  -20.8109  -12.7267 C   0  0  0  0  0  0  0  0  0  0  0  0
   22.9499  -19.6424  -12.7344 O   0  0  0  0  0  0  0  0  0  0  0  0
   22.5916  -21.9445  -12.7308 N   0  0  0  0  0  0  0  0  0  0  0  0
   21.2067  -21.7935  -13.0665 C   0  0  1  0  0  0  0  0  0  0  0  0
   20.5453  -23.0919  -13.4072 C   0  0  0  0  0  0  0  0  0  0  0  0
   19.1225  -23.0734  -13.7542 C   0  0  0  0  0  0  0  0  0  0  0  0
   18.4608  -24.2830  -14.2697 C   0  0  0  0  0  0  0  0  0  0  0  0
   17.0388  -24.1584  -14.6960 C   0  0  0  0  0  0  0  0  0  0  0  0
   16.4472  -25.4676  -15.0047 N   0  0  0  0  0  0  0  0  0  0  0  0
   20.5357  -20.9993  -12.0316 C   0  0  0  0  0  0  0  0  0  0  0  0
   19.3774  -20.5640  -12.2396 O   0  0  0  0  0  0  0  0  0  0  0  0
   21.1340  -20.7163  -10.8308 O   0  0  0  0  0  0  0  0  0  0  0  0
  2  1  1  6
  2 13  1  0
  2  3  1  0
  4  3  1  0
  4  5  2  0
  6  5  1  0
  7 12  2  0
  7  6  1  0
  8  7  1  0
  9 10  1  0
  9  8  2  0
 10 11  2  0
 11 12  1  0
 12  4  1  0
 13 14  2  0
 16 15  1  0
 17 16  1  0
 18 17  1  0
 19 18  1  1
 20 19  1  0
 20 13  1  0
 21 19  1  0
 22 21  2  0
 23 21  1  0
 24 23  1  0
 24 25  1  1
 25 26  1  0
 26 27  1  0
 27 28  1  0
 28 29  1  0
 30 24  1  0
 31 30  2  0
 32 30  1  0
M  END
$$$$
