WMK.pdb
     RDKit          3D

 32 33  0  0  1  0  0  0  0  0999 V2000
   28.3593  -21.2018  -14.4377 N   0  0  0  0  0  0  0  0  0  0  0  0
   27.8621  -20.1206  -13.5871 C   0  0  1  0  0  0  0  0  0  0  0  0
   26.8281  -19.3692  -14.4212 C   0  0  0  0  0  0  0  0  0  0  0  0
   27.5278  -18.3656  -15.2515 C   0  0  0  0  0  0  0  0  0  0  0  0
   28.8327  -18.3490  -15.7133 C   0  0  0  0  0  0  0  0  0  0  0  0
   29.0305  -17.2303  -16.4357 N   0  0  0  0  0  0  0  0  0  0  0  0
   27.9018  -16.4989  -16.4723 C   0  0  0  0  0  0  0  0  0  0  0  0
   27.6260  -15.2963  -17.0801 C   0  0  0  0  0  0  0  0  0  0  0  0
   26.3424  -14.7682  -16.9446 C   0  0  0  0  0  0  0  0  0  0  0  0
   25.3975  -15.4530  -16.2171 C   0  0  0  0  0  0  0  0  0  0  0  0
   25.7020  -16.6441  -15.6258 C   0  0  0  0  0  0  0  0  0  0  0  0
   26.9641  -17.2030  -15.7359 C   0  0  0  0  0  0  0  0  0  0  0  0
   27.2437  -20.7161  -12.3803 C   0  0  0  0  0  0  0  0  0  0  0  0
   26.9938  -21.9543  -12.3471 O   0  0  0  0  0  0  0  0  0  0  0  0
   28.7903  -19.5093   -6.0315 C   0  0  0  0  0  0  0  0  0  0  0  0
   26.9783  -19.4267   -6.1250 S   0  0  0  0  0  0  0  0  0  0  0  0
   26.3815  -20.4732   -7.5241 C   0  0  0  0  0  0  0  0  0  0  0  0
   27.0065  -19.9901   -8.8035 C   0  0  0  0  0  0  0  0  0  0  0  0
   26.3702  -20.5751  -10.0233 C   0  0  2  0  0  0  0  0  0  0  0  0
   26.9103  -19.9463  -11.2324 N   0  0  0  0  0  0  0  0  0  0  0  0
   24.8855  -20.4062  -10.0229 C   0  0  0  0  0  0  0  0  0  0  0  0
   24.2211  -20.7201   -8.9883 O   0  0  0  0  0  0  0  0  0  0  0  0
   24.2196  -19.8991  -11.1687 N   0  0  0  0  0  0  0  0  0  0  0  0
   23.1883  -20.6723  -11.7948 C   0  0  1  0  0  0  0  0  0  0  0  0
   23.7206  -21.8477  -12.5526 C   0  0  0  0  0  0  0  0  0  0  0  0
   22.7609  -22.8000  -13.1156 C   0  0  0  0  0  0  0  0  0  0  0  0
   23.2253  -23.9685  -13.8810 C   0  0  0  0  0  0  0  0  0  0  0  0
   22.1874  -24.8787  -14.4409 C   0  0  0  0  0  0  0  0  0  0  0  0
   22.7756  -25.8970  -15.3220 N   0  0  0  0  0  0  0  0  0  0  0  0
   22.1421  -20.9792  -10.8133 C   0  0  0  0  0  0  0  0  0  0  0  0
   22.4460  -21.5725   -9.7502 O   0  0  0  0  0  0  0  0  0  0  0  0
   20.8310  -20.6335  -11.0165 O   0  0  0  0  0  0  0  0  0  0  0  0
  2  1  1  6
  2 13  1  0
  2  3  1  0
  4  3  1  0
  4  5  2  0
  6  5  1  0
  7 12  2  0
  7  6  1  0
  8  7  1  0
  9 10  1  0
  9  8  2  0
 10 11  2  0
 11 12  1  0
 12  4  1  0
 13 14  2  0
 16 15  1  0
 17 16  1  0
 18 17  1  0
 19 18  1  1
 20 19  1  0
 20 13  1  0
 21 19  1  0
 22 21  2  0
 23 21  1  0
 24 23  1  0
 24 25  1  1
 25 26  1  0
 26 27  1  0
 27 28  1  0
 28 29  1  0
 30 24  1  0
 31 30  2  0
 32 30  1  0
M  END
$$$$
