WMK.pdb
     RDKit          3D

 32 33  0  0  1  0  0  0  0  0999 V2000
   27.1830  -22.4409  -10.4409 N   0  0  0  0  0  0  0  0  0  0  0  0
   26.3966  -21.4760   -9.6727 C   0  0  1  0  0  0  0  0  0  0  0  0
   27.2357  -20.2027   -9.6095 C   0  0  0  0  0  0  0  0  0  0  0  0
   28.3818  -20.4348   -8.7046 C   0  0  0  0  0  0  0  0  0  0  0  0
   29.6466  -20.9247   -8.9811 C   0  0  0  0  0  0  0  0  0  0  0  0
   30.3623  -20.9657   -7.8416 N   0  0  0  0  0  0  0  0  0  0  0  0
   29.6184  -20.5197   -6.8130 C   0  0  0  0  0  0  0  0  0  0  0  0
   29.9175  -20.3800   -5.4779 C   0  0  0  0  0  0  0  0  0  0  0  0
   28.9293  -19.8815   -4.6295 C   0  0  0  0  0  0  0  0  0  0  0  0
   27.6977  -19.5467   -5.1414 C   0  0  0  0  0  0  0  0  0  0  0  0
   27.4314  -19.6970   -6.4709 C   0  0  0  0  0  0  0  0  0  0  0  0
   28.3845  -20.1883   -7.3470 C   0  0  0  0  0  0  0  0  0  0  0  0
   25.1182  -21.2382  -10.3815 C   0  0  0  0  0  0  0  0  0  0  0  0
   25.1007  -21.1748  -11.6434 O   0  0  0  0  0  0  0  0  0  0  0  0
   20.1396  -23.3313   -7.2440 C   0  0  0  0  0  0  0  0  0  0  0  0
   19.2006  -23.0300   -8.7694 S   0  0  0  0  0  0  0  0  0  0  0  0
   20.3051  -22.2659  -10.0363 C   0  0  0  0  0  0  0  0  0  0  0  0
   21.6467  -21.9865   -9.4177 C   0  0  0  0  0  0  0  0  0  0  0  0
   22.6024  -21.3318  -10.3627 C   0  0  2  0  0  0  0  0  0  0  0  0
   23.8828  -21.0741   -9.6971 N   0  0  0  0  0  0  0  0  0  0  0  0
   22.0751  -20.0390  -10.8949 C   0  0  0  0  0  0  0  0  0  0  0  0
   21.9434  -19.0484  -10.1127 O   0  0  0  0  0  0  0  0  0  0  0  0
   21.7232  -19.9154  -12.2639 N   0  0  0  0  0  0  0  0  0  0  0  0
   21.0965  -18.7155  -12.7338 C   0  0  1  0  0  0  0  0  0  0  0  0
   21.3616  -18.4489  -14.1822 C   0  0  0  0  0  0  0  0  0  0  0  0
   21.3908  -17.0564  -14.6352 C   0  0  0  0  0  0  0  0  0  0  0  0
   21.6773  -16.7316  -16.0421 C   0  0  0  0  0  0  0  0  0  0  0  0
   21.6848  -15.2922  -16.4262 C   0  0  0  0  0  0  0  0  0  0  0  0
   22.1840  -15.0975  -17.7944 N   0  0  0  0  0  0  0  0  0  0  0  0
   19.6822  -18.7168  -12.3440 C   0  0  0  0  0  0  0  0  0  0  0  0
   19.0017  -19.7610  -12.4883 O   0  0  0  0  0  0  0  0  0  0  0  0
   19.0723  -17.6070  -11.8183 O   0  0  0  0  0  0  0  0  0  0  0  0
  2  1  1  6
  2 13  1  0
  2  3  1  0
  4  3  1  0
  4  5  2  0
  6  5  1  0
  7 12  2  0
  7  6  1  0
  8  7  1  0
  9 10  1  0
  9  8  2  0
 10 11  2  0
 11 12  1  0
 12  4  1  0
 13 14  2  0
 16 15  1  0
 17 16  1  0
 18 17  1  0
 19 18  1  1
 20 19  1  0
 20 13  1  0
 21 19  1  0
 22 21  2  0
 23 21  1  0
 24 23  1  0
 24 25  1  6
 25 26  1  0
 26 27  1  0
 27 28  1  0
 28 29  1  0
 30 24  1  0
 31 30  2  0
 32 30  1  0
M  END
$$$$
