WMK.pdb
     RDKit          3D

 32 33  0  0  1  0  0  0  0  0999 V2000
   28.5255  -22.3067  -12.4509 N   0  0  0  0  0  0  0  0  0  0  0  0
   27.3415  -21.7301  -11.8141 C   0  0  1  0  0  0  0  0  0  0  0  0
   27.7560  -20.3432  -11.3302 C   0  0  0  0  0  0  0  0  0  0  0  0
   28.6273  -20.4954  -10.1454 C   0  0  0  0  0  0  0  0  0  0  0  0
   29.9852  -20.7534  -10.0688 C   0  0  0  0  0  0  0  0  0  0  0  0
   30.3511  -20.8092   -8.7744 N   0  0  0  0  0  0  0  0  0  0  0  0
   29.2834  -20.5972   -7.9834 C   0  0  0  0  0  0  0  0  0  0  0  0
   29.1695  -20.5605   -6.6133 C   0  0  0  0  0  0  0  0  0  0  0  0
   27.9120  -20.3145   -6.0626 C   0  0  0  0  0  0  0  0  0  0  0  0
   26.8325  -20.1175   -6.8913 C   0  0  0  0  0  0  0  0  0  0  0  0
   26.9777  -20.1602   -8.2470 C   0  0  0  0  0  0  0  0  0  0  0  0
   28.2084  -20.4015   -8.8340 C   0  0  0  0  0  0  0  0  0  0  0  0
   26.2594  -21.6427  -12.8213 C   0  0  0  0  0  0  0  0  0  0  0  0
   26.4687  -21.0556  -13.9205 O   0  0  0  0  0  0  0  0  0  0  0  0
   23.3963  -26.4994  -15.5513 C   0  0  0  0  0  0  0  0  0  0  0  0
   21.9318  -25.5029  -15.1494 S   0  0  0  0  0  0  0  0  0  0  0  0
   22.4213  -23.7338  -14.9510 C   0  0  0  0  0  0  0  0  0  0  0  0
   23.4432  -23.6244  -13.8535 C   0  0  0  0  0  0  0  0  0  0  0  0
   23.9673  -22.2354  -13.6778 C   0  0  2  0  0  0  0  0  0  0  0  0
   24.9685  -22.1990  -12.6076 N   0  0  0  0  0  0  0  0  0  0  0  0
   22.8845  -21.2598  -13.3485 C   0  0  0  0  0  0  0  0  0  0  0  0
   22.3883  -21.2476  -12.1806 O   0  0  0  0  0  0  0  0  0  0  0  0
   22.4117  -20.3521  -14.3313 N   0  0  0  0  0  0  0  0  0  0  0  0
   21.3638  -19.4305  -14.0057 C   0  0  1  0  0  0  0  0  0  0  0  0
   21.2734  -18.2880  -14.9680 C   0  0  0  0  0  0  0  0  0  0  0  0
   20.1874  -17.3210  -14.7936 C   0  0  0  0  0  0  0  0  0  0  0  0
   19.9922  -16.2301  -15.7624 C   0  0  0  0  0  0  0  0  0  0  0  0
   18.8423  -15.3101  -15.5374 C   0  0  0  0  0  0  0  0  0  0  0  0
   18.7577  -14.2802  -16.5820 N   0  0  0  0  0  0  0  0  0  0  0  0
   20.1144  -20.1674  -13.7863 C   0  0  0  0  0  0  0  0  0  0  0  0
   19.8466  -21.1594  -14.5064 O   0  0  0  0  0  0  0  0  0  0  0  0
   19.2214  -19.8092  -12.8095 O   0  0  0  0  0  0  0  0  0  0  0  0
  2  1  1  6
  2 13  1  0
  2  3  1  0
  4  3  1  0
  4  5  2  0
  6  5  1  0
  7 12  2  0
  7  6  1  0
  8  7  1  0
  9 10  1  0
  9  8  2  0
 10 11  2  0
 11 12  1  0
 12  4  1  0
 13 14  2  0
 16 15  1  0
 17 16  1  0
 18 17  1  0
 19 18  1  1
 20 19  1  0
 20 13  1  0
 21 19  1  0
 22 21  2  0
 23 21  1  0
 24 23  1  0
 24 25  1  6
 25 26  1  0
 26 27  1  0
 27 28  1  0
 28 29  1  0
 30 24  1  0
 31 30  2  0
 32 30  1  0
M  END
$$$$
