WMK.pdb
     RDKit          3D

 32 33  0  0  1  0  0  0  0  0999 V2000
   26.3130  -21.0372  -14.2009 N   0  0  0  0  0  0  0  0  0  0  0  0
   25.7964  -19.7351  -13.7798 C   0  0  1  0  0  0  0  0  0  0  0  0
   26.9401  -19.0466  -13.0399 C   0  0  0  0  0  0  0  0  0  0  0  0
   27.3177  -19.8754  -11.8750 C   0  0  0  0  0  0  0  0  0  0  0  0
   28.5317  -20.4598  -11.5571 C   0  0  0  0  0  0  0  0  0  0  0  0
   28.4086  -21.1272  -10.3944 N   0  0  0  0  0  0  0  0  0  0  0  0
   27.1533  -21.0084   -9.9246 C   0  0  0  0  0  0  0  0  0  0  0  0
   26.5650  -21.5101   -8.7872 C   0  0  0  0  0  0  0  0  0  0  0  0
   25.2212  -21.2173   -8.5559 C   0  0  0  0  0  0  0  0  0  0  0  0
   24.5274  -20.4452   -9.4579 C   0  0  0  0  0  0  0  0  0  0  0  0
   25.1393  -19.9621  -10.5773 C   0  0  0  0  0  0  0  0  0  0  0  0
   26.4714  -20.2294  -10.8443 C   0  0  0  0  0  0  0  0  0  0  0  0
   25.4043  -18.9705  -14.9860 C   0  0  0  0  0  0  0  0  0  0  0  0
   24.7146  -17.9184  -14.8675 O   0  0  0  0  0  0  0  0  0  0  0  0
   30.6076  -17.6210  -18.7074 C   0  0  0  0  0  0  0  0  0  0  0  0
   28.9337  -16.9234  -18.6035 S   0  0  0  0  0  0  0  0  0  0  0  0
   27.7669  -18.2044  -17.9659 C   0  0  0  0  0  0  0  0  0  0  0  0
   26.3913  -17.6077  -17.8550 C   0  0  0  0  0  0  0  0  0  0  0  0
   25.3475  -18.6089  -17.4768 C   0  0  2  0  0  0  0  0  0  0  0  0
   25.7737  -19.3708  -16.2992 N   0  0  0  0  0  0  0  0  0  0  0  0
   25.0574  -19.5691  -18.5843 C   0  0  0  0  0  0  0  0  0  0  0  0
   25.7261  -20.6442  -18.6706 O   0  0  0  0  0  0  0  0  0  0  0  0
   24.0426  -19.2850  -19.5345 N   0  0  0  0  0  0  0  0  0  0  0  0
   22.8829  -20.1232  -19.6118 C   0  0  1  0  0  0  0  0  0  0  0  0
   22.7323  -21.0198  -18.4233 C   0  0  0  0  0  0  0  0  0  0  0  0
   21.6223  -21.9751  -18.4137 C   0  0  0  0  0  0  0  0  0  0  0  0
   21.8766  -23.4211  -18.5205 C   0  0  0  0  0  0  0  0  0  0  0  0
   20.7002  -24.3320  -18.4467 C   0  0  0  0  0  0  0  0  0  0  0  0
   21.0717  -25.7240  -18.7357 N   0  0  0  0  0  0  0  0  0  0  0  0
   21.7085  -19.3055  -19.9347 C   0  0  0  0  0  0  0  0  0  0  0  0
   20.8250  -19.7658  -20.6976 O   0  0  0  0  0  0  0  0  0  0  0  0
   21.5382  -18.0446  -19.4238 O   0  0  0  0  0  0  0  0  0  0  0  0
  2  1  1  6
  2 13  1  0
  2  3  1  0
  4  3  1  0
  4  5  2  0
  6  5  1  0
  7 12  2  0
  7  6  1  0
  8  7  1  0
  9 10  1  0
  9  8  2  0
 10 11  2  0
 11 12  1  0
 12  4  1  0
 13 14  2  0
 16 15  1  0
 17 16  1  0
 18 17  1  0
 19 18  1  6
 20 19  1  0
 20 13  1  0
 21 19  1  0
 22 21  2  0
 23 21  1  0
 24 23  1  0
 24 25  1  1
 25 26  1  0
 26 27  1  0
 27 28  1  0
 28 29  1  0
 30 24  1  0
 31 30  2  0
 32 30  1  0
M  END
$$$$
