WMK.pdb
     RDKit          3D

 32 33  0  0  1  0  0  0  0  0999 V2000
   28.4481  -20.7697  -15.6882 N   0  0  0  0  0  0  0  0  0  0  0  0
   27.4735  -19.9084  -15.0188 C   0  0  1  0  0  0  0  0  0  0  0  0
   26.6210  -19.2956  -16.1265 C   0  0  0  0  0  0  0  0  0  0  0  0
   27.3673  -18.1718  -16.7320 C   0  0  0  0  0  0  0  0  0  0  0  0
   27.9862  -18.0796  -17.9668 C   0  0  0  0  0  0  0  0  0  0  0  0
   28.5456  -16.8612  -18.0896 N   0  0  0  0  0  0  0  0  0  0  0  0
   28.3212  -16.1361  -16.9786 C   0  0  0  0  0  0  0  0  0  0  0  0
   28.6933  -14.8540  -16.6483 C   0  0  0  0  0  0  0  0  0  0  0  0
   28.3113  -14.3568  -15.4025 C   0  0  0  0  0  0  0  0  0  0  0  0
   27.5824  -15.1495  -14.5473 C   0  0  0  0  0  0  0  0  0  0  0  0
   27.2286  -16.4178  -14.9040 C   0  0  0  0  0  0  0  0  0  0  0  0
   27.5877  -16.9493  -16.1312 C   0  0  0  0  0  0  0  0  0  0  0  0
   26.6514  -20.7421  -14.1119 C   0  0  0  0  0  0  0  0  0  0  0  0
   26.3141  -21.9084  -14.4623 O   0  0  0  0  0  0  0  0  0  0  0  0
   25.4770  -20.6446   -7.4128 C   0  0  0  0  0  0  0  0  0  0  0  0
   27.0600  -20.6956   -8.3019 S   0  0  0  0  0  0  0  0  0  0  0  0
   26.7917  -21.3479  -10.0082 C   0  0  0  0  0  0  0  0  0  0  0  0
   25.5171  -20.7736  -10.5615 C   0  0  0  0  0  0  0  0  0  0  0  0
   25.3123  -21.0891  -12.0084 C   0  0  2  0  0  0  0  0  0  0  0  0
   26.2136  -20.2848  -12.8389 N   0  0  0  0  0  0  0  0  0  0  0  0
   23.9073  -20.8356  -12.4492 C   0  0  0  0  0  0  0  0  0  0  0  0
   23.5284  -19.6458  -12.6754 O   0  0  0  0  0  0  0  0  0  0  0  0
   23.0004  -21.9141  -12.6150 N   0  0  0  0  0  0  0  0  0  0  0  0
   21.6360  -21.6513  -12.9657 C   0  0  1  0  0  0  0  0  0  0  0  0
   20.9161  -22.8682  -13.4559 C   0  0  0  0  0  0  0  0  0  0  0  0
   19.4765  -22.7668  -13.7051 C   0  0  0  0  0  0  0  0  0  0  0  0
   18.7318  -23.9033  -14.2713 C   0  0  0  0  0  0  0  0  0  0  0  0
   17.2594  -23.7460  -14.4342 C   0  0  0  0  0  0  0  0  0  0  0  0
   16.6187  -25.0074  -14.8313 N   0  0  0  0  0  0  0  0  0  0  0  0
   20.9786  -20.9316  -11.8694 C   0  0  0  0  0  0  0  0  0  0  0  0
   20.1634  -20.0147  -12.1324 O   0  0  0  0  0  0  0  0  0  0  0  0
   21.2228  -21.2310  -10.5539 O   0  0  0  0  0  0  0  0  0  0  0  0
  2  1  1  6
  2 13  1  0
  2  3  1  0
  4  3  1  0
  4  5  2  0
  6  5  1  0
  7 12  2  0
  7  6  1  0
  8  7  1  0
  9 10  1  0
  9  8  2  0
 10 11  2  0
 11 12  1  0
 12  4  1  0
 13 14  2  0
 16 15  1  0
 17 16  1  0
 18 17  1  0
 19 18  1  1
 20 19  1  0
 20 13  1  0
 21 19  1  0
 22 21  2  0
 23 21  1  0
 24 23  1  0
 24 25  1  1
 25 26  1  0
 26 27  1  0
 27 28  1  0
 28 29  1  0
 30 24  1  0
 31 30  2  0
 32 30  1  0
M  END
$$$$
