RHN.pdb
     RDKit          3D

 30 30  0  0  1  0  0  0  0  0999 V2000
   26.2247  -19.4574  -21.1537 N   0  0  0  0  0  0  0  0  0  0  0  0
   25.1584  -18.5405  -20.9674 C   0  0  0  0  0  0  0  0  0  0  0  0
   24.7245  -17.8033  -21.9529 N   0  0  0  0  0  0  0  0  0  0  0  0
   24.5716  -18.4434  -19.6769 N   0  0  0  0  0  0  0  0  0  0  0  0
   25.1282  -19.1998  -18.5828 C   0  0  0  0  0  0  0  0  0  0  0  0
   24.9201  -20.6734  -18.7190 C   0  0  0  0  0  0  0  0  0  0  0  0
   24.2228  -21.2749  -17.5165 C   0  0  0  0  0  0  0  0  0  0  0  0
   22.7693  -20.8659  -17.4545 C   0  0  2  0  0  0  0  0  0  0  0  0
   22.6817  -19.4358  -17.5314 N   0  0  0  0  0  0  0  0  0  0  0  0
   22.1610  -21.3726  -16.2145 C   0  0  0  0  0  0  0  0  0  0  0  0
   22.2214  -22.6166  -16.0022 O   0  0  0  0  0  0  0  0  0  0  0  0
   23.9767  -17.1113  -21.7533 N   0  0  0  0  0  0  0  0  0  0  0  0
   21.5176  -20.5721  -15.2491 C   0  0  2  0  0  0  0  0  0  0  0  0
   21.0292  -21.1609  -14.0342 C   0  0  0  0  0  0  0  0  0  0  0  0
   21.6626  -20.6952  -12.7822 C   0  0  0  0  0  0  0  0  0  0  0  0
   23.0143  -21.1554  -12.5129 C   0  0  0  0  0  0  0  0  0  0  0  0
   23.8111  -22.0071  -13.2285 N   0  0  0  0  0  0  0  0  0  0  0  0
   25.0040  -22.1508  -12.5723 C   0  0  0  0  0  0  0  0  0  0  0  0
   24.9447  -21.4072  -11.4801 N   0  0  0  0  0  0  0  0  0  0  0  0
   23.7614  -20.8013  -11.4233 C   0  0  0  0  0  0  0  0  0  0  0  0
   19.5403  -20.9320  -13.9091 O   0  0  0  0  0  0  0  0  0  0  0  0
   19.0546  -19.7720  -13.9623 N   0  0  0  0  0  0  0  0  0  0  0  0
   16.3994  -22.7575  -15.9394 C   0  0  0  0  0  0  0  0  0  0  0  0
   16.1333  -23.5450  -14.7681 O   0  0  0  0  0  0  0  0  0  0  0  0
   15.6215  -24.6718  -15.0185 C   0  0  0  0  0  0  0  0  0  0  0  0
   16.4435  -23.0478  -13.4149 C   0  0  2  0  0  0  0  0  0  0  0  0
   17.1956  -21.7689  -13.4784 N   0  0  0  0  0  0  0  0  0  0  0  0
   18.6206  -21.9944  -13.7284 C   0  0  0  0  0  0  0  0  0  0  0  0
   17.1618  -21.1305  -12.1133 O   0  0  0  0  0  0  0  0  0  0  0  0
   18.2492  -21.3143  -11.2416 O   0  0  0  0  0  0  0  0  0  0  0  0
  2  3  2  0
  2  1  1  0
  4  2  1  0
  5  4  1  0
  6  5  1  0
  7  6  1  0
  8  7  1  0
  8  9  1  1
 10 11  2  0
 10  8  1  0
 12 10  1  0
 13 20  1  0
 13 12  1  0
 13 14  1  6
 15 14  1  0
 15 19  1  0
 16 15  2  0
 17 16  1  0
 17 18  1  0
 18 19  2  0
 20 21  2  0
 23 22  1  0
 24 23  2  0
 25 23  1  0
 26 25  1  6
 27 26  1  0
 27 20  1  0
 28 26  1  0
 29 28  1  0
 30 28  2  0
M  END
$$$$
