RHN.pdb
     RDKit          3D

 30 30  0  0  1  0  0  0  0  0999 V2000
   32.4579  -25.5784  -15.9383 N   0  0  0  0  0  0  0  0  0  0  0  0
   32.7132  -26.2369  -17.1686 C   0  0  0  0  0  0  0  0  0  0  0  0
   33.6886  -27.0963  -17.2825 N   0  0  0  0  0  0  0  0  0  0  0  0
   31.8782  -25.9372  -18.2786 N   0  0  0  0  0  0  0  0  0  0  0  0
   30.7702  -25.0297  -18.1118 C   0  0  0  0  0  0  0  0  0  0  0  0
   31.1885  -23.6628  -17.6760 C   0  0  0  0  0  0  0  0  0  0  0  0
   30.0135  -22.7214  -17.5099 C   0  0  0  0  0  0  0  0  0  0  0  0
   29.0270  -23.2384  -16.4887 C   0  0  2  0  0  0  0  0  0  0  0  0
   28.2118  -24.2511  -17.0960 N   0  0  0  0  0  0  0  0  0  0  0  0
   28.2079  -22.1275  -15.9794 C   0  0  0  0  0  0  0  0  0  0  0  0
   28.8145  -21.1368  -15.4828 O   0  0  0  0  0  0  0  0  0  0  0  0
   33.8425  -27.5413  -18.2078 N   0  0  0  0  0  0  0  0  0  0  0  0
   26.7992  -22.0893  -16.0058 C   0  0  1  0  0  0  0  0  0  0  0  0
   26.0990  -20.9545  -15.4734 C   0  0  0  0  0  0  0  0  0  0  0  0
   25.2093  -20.2373  -16.4112 C   0  0  0  0  0  0  0  0  0  0  0  0
   25.8432  -19.4119  -17.4252 C   0  0  0  0  0  0  0  0  0  0  0  0
   27.1677  -19.1382  -17.6331 N   0  0  0  0  0  0  0  0  0  0  0  0
   27.2809  -18.2974  -18.7075 C   0  0  0  0  0  0  0  0  0  0  0  0
   26.0579  -18.0584  -19.1510 N   0  0  0  0  0  0  0  0  0  0  0  0
   25.1798  -18.7157  -18.3979 C   0  0  0  0  0  0  0  0  0  0  0  0
   25.2699  -21.3702  -14.2798 O   0  0  0  0  0  0  0  0  0  0  0  0
   24.6626  -22.4726  -14.2628 N   0  0  0  0  0  0  0  0  0  0  0  0
   24.1494  -21.3179   -8.6271 C   0  0  0  0  0  0  0  0  0  0  0  0
   23.6910  -20.4513   -9.6769 O   0  0  0  0  0  0  0  0  0  0  0  0
   22.4998  -20.0595   -9.5289 C   0  0  0  0  0  0  0  0  0  0  0  0
   24.5617  -20.0772  -10.8067 C   0  0  1  0  0  0  0  0  0  0  0  0
   24.2982  -20.9377  -11.9880 N   0  0  0  0  0  0  0  0  0  0  0  0
   25.1320  -20.5551  -13.1293 C   0  0  0  0  0  0  0  0  0  0  0  0
   22.8910  -20.6760  -12.4609 O   0  0  0  0  0  0  0  0  0  0  0  0
   21.8543  -21.5254  -12.0370 O   0  0  0  0  0  0  0  0  0  0  0  0
  2  3  2  0
  2  1  1  0
  4  2  1  0
  5  4  1  0
  6  5  1  0
  7  6  1  0
  8  7  1  0
  8  9  1  6
 10 11  2  0
 10  8  1  0
 12 10  1  0
 13 20  1  0
 13 12  1  0
 13 14  1  1
 15 14  1  0
 15 19  1  0
 16 15  2  0
 17 16  1  0
 17 18  1  0
 18 19  2  0
 20 21  2  0
 23 22  1  0
 24 23  2  0
 25 23  1  0
 26 25  1  1
 27 26  1  0
 27 20  1  0
 28 26  1  0
 29 28  1  0
 30 28  2  0
M  END
$$$$
