RHN.pdb
     RDKit          3D

 30 30  0  0  1  0  0  0  0  0999 V2000
   30.9181  -24.0146  -21.3774 N   0  0  0  0  0  0  0  0  0  0  0  0
   31.8524  -24.5400  -20.4482 C   0  0  0  0  0  0  0  0  0  0  0  0
   33.0206  -24.9709  -20.8386 N   0  0  0  0  0  0  0  0  0  0  0  0
   31.4845  -24.5862  -19.0765 N   0  0  0  0  0  0  0  0  0  0  0  0
   30.1356  -24.2549  -18.6894 C   0  0  0  0  0  0  0  0  0  0  0  0
   29.9327  -24.2461  -17.2088 C   0  0  0  0  0  0  0  0  0  0  0  0
   28.4712  -24.1454  -16.8237 C   0  0  0  0  0  0  0  0  0  0  0  0
   27.9885  -22.7135  -16.8430 C   0  0  2  0  0  0  0  0  0  0  0  0
   29.1227  -21.8363  -16.7862 N   0  0  0  0  0  0  0  0  0  0  0  0
   27.0751  -22.4798  -15.7136 C   0  0  0  0  0  0  0  0  0  0  0  0
   25.9977  -23.1392  -15.6900 O   0  0  0  0  0  0  0  0  0  0  0  0
   33.6641  -25.3569  -20.1211 N   0  0  0  0  0  0  0  0  0  0  0  0
   27.3151  -21.5757  -14.6593 C   0  0  1  0  0  0  0  0  0  0  0  0
   26.3323  -21.3931  -13.6288 C   0  0  0  0  0  0  0  0  0  0  0  0
   26.8191  -20.8193  -12.3563 C   0  0  0  0  0  0  0  0  0  0  0  0
   25.8753  -20.7586  -11.2532 C   0  0  0  0  0  0  0  0  0  0  0  0
   24.5559  -21.1180  -11.2054 N   0  0  0  0  0  0  0  0  0  0  0  0
   24.0758  -20.8673   -9.9481 C   0  0  0  0  0  0  0  0  0  0  0  0
   25.0732  -20.3661   -9.2385 N   0  0  0  0  0  0  0  0  0  0  0  0
   26.1618  -20.2916  -10.0000 C   0  0  0  0  0  0  0  0  0  0  0  0
   25.2115  -20.5122  -14.1316 O   0  0  0  0  0  0  0  0  0  0  0  0
   25.4517  -19.4756  -14.8040 N   0  0  0  0  0  0  0  0  0  0  0  0
   21.4404  -18.2942  -17.0273 C   0  0  0  0  0  0  0  0  0  0  0  0
   21.2668  -19.4900  -16.2507 O   0  0  0  0  0  0  0  0  0  0  0  0
   20.0587  -19.7736  -16.0173 C   0  0  0  0  0  0  0  0  0  0  0  0
   22.4188  -20.2855  -15.7875 C   0  0  1  0  0  0  0  0  0  0  0  0
   22.7591  -19.9574  -14.3797 N   0  0  0  0  0  0  0  0  0  0  0  0
   23.8474  -20.7994  -13.8789 C   0  0  0  0  0  0  0  0  0  0  0  0
   21.5843  -20.3249  -13.5097 O   0  0  0  0  0  0  0  0  0  0  0  0
   20.6002  -19.3582  -13.2396 O   0  0  0  0  0  0  0  0  0  0  0  0
  2  3  2  0
  2  1  1  0
  4  2  1  0
  5  4  1  0
  6  5  1  0
  7  6  1  0
  8  7  1  0
  8  9  1  1
 10 11  2  0
 10  8  1  0
 12 10  1  0
 13 20  1  0
 13 12  1  0
 13 14  1  1
 15 14  1  0
 15 19  1  0
 16 15  2  0
 17 16  1  0
 17 18  1  0
 18 19  2  0
 20 21  2  0
 23 22  1  0
 24 23  2  0
 25 23  1  0
 26 25  1  6
 27 26  1  0
 27 20  1  0
 28 26  1  0
 29 28  1  0
 30 28  2  0
M  END
$$$$
