RHN.pdb
     RDKit          3D

 30 30  0  0  1  0  0  0  0  0999 V2000
   26.9696  -30.5357  -16.7008 N   0  0  0  0  0  0  0  0  0  0  0  0
   27.6596  -30.5827  -17.9394 C   0  0  0  0  0  0  0  0  0  0  0  0
   27.4967  -31.5814  -18.7634 N   0  0  0  0  0  0  0  0  0  0  0  0
   28.5361  -29.5120  -18.2629 N   0  0  0  0  0  0  0  0  0  0  0  0
   28.4556  -28.2772  -17.5227 C   0  0  0  0  0  0  0  0  0  0  0  0
   27.3544  -27.3811  -17.9893 C   0  0  0  0  0  0  0  0  0  0  0  0
   27.1634  -26.1785  -17.0885 C   0  0  0  0  0  0  0  0  0  0  0  0
   28.3945  -25.3025  -17.0622 C   0  0  2  0  0  0  0  0  0  0  0  0
   29.3611  -25.8799  -16.1727 N   0  0  0  0  0  0  0  0  0  0  0  0
   28.0287  -23.9407  -16.6426 C   0  0  0  0  0  0  0  0  0  0  0  0
   27.8956  -23.7289  -15.4042 O   0  0  0  0  0  0  0  0  0  0  0  0
   28.0758  -31.6040  -19.6247 N   0  0  0  0  0  0  0  0  0  0  0  0
   27.8167  -22.8585  -17.5205 C   0  0  2  0  0  0  0  0  0  0  0  0
   27.4036  -21.5835  -17.0060 C   0  0  0  0  0  0  0  0  0  0  0  0
   27.5364  -20.4339  -17.9260 C   0  0  0  0  0  0  0  0  0  0  0  0
   27.2595  -19.1152  -17.3823 C   0  0  0  0  0  0  0  0  0  0  0  0
   26.8017  -18.7539  -16.1445 N   0  0  0  0  0  0  0  0  0  0  0  0
   26.6838  -17.3907  -16.0985 C   0  0  0  0  0  0  0  0  0  0  0  0
   27.0590  -16.9231  -17.2775 N   0  0  0  0  0  0  0  0  0  0  0  0
   27.4083  -17.9384  -18.0633 C   0  0  0  0  0  0  0  0  0  0  0  0
   25.9619  -21.6484  -16.5563 O   0  0  0  0  0  0  0  0  0  0  0  0
   25.0867  -22.2168  -17.2601 N   0  0  0  0  0  0  0  0  0  0  0  0
   24.3723  -24.3839  -12.9673 C   0  0  0  0  0  0  0  0  0  0  0  0
   23.6735  -23.3055  -13.6092 O   0  0  0  0  0  0  0  0  0  0  0  0
   22.6509  -23.6737  -14.2520 C   0  0  0  0  0  0  0  0  0  0  0  0
   24.1394  -21.9104  -13.5035 C   0  0  2  0  0  0  0  0  0  0  0  0
   24.1549  -21.2533  -14.8352 N   0  0  0  0  0  0  0  0  0  0  0  0
   25.5206  -21.0821  -15.3349 C   0  0  0  0  0  0  0  0  0  0  0  0
   23.6464  -19.8434  -14.6743 O   0  0  0  0  0  0  0  0  0  0  0  0
   22.2913  -19.6326  -14.3659 O   0  0  0  0  0  0  0  0  0  0  0  0
  2  3  2  0
  2  1  1  0
  4  2  1  0
  5  4  1  0
  6  5  1  0
  7  6  1  0
  8  7  1  0
  8  9  1  1
 10 11  2  0
 10  8  1  0
 12 10  1  0
 13 20  1  0
 13 12  1  0
 13 14  1  6
 15 14  1  0
 15 19  1  0
 16 15  2  0
 17 16  1  0
 17 18  1  0
 18 19  2  0
 20 21  2  0
 23 22  1  0
 24 23  2  0
 25 23  1  0
 26 25  1  6
 27 26  1  0
 27 20  1  0
 28 26  1  0
 29 28  1  0
 30 28  2  0
M  END
$$$$
