RHN.pdb
     RDKit          3D

 30 30  0  0  1  0  0  0  0  0999 V2000
   30.2988  -22.0935  -10.2802 N   0  0  0  0  0  0  0  0  0  0  0  0
   31.2304  -21.9121  -11.3345 C   0  0  0  0  0  0  0  0  0  0  0  0
   32.4707  -22.2985  -11.2110 N   0  0  0  0  0  0  0  0  0  0  0  0
   30.7792  -21.2970  -12.5334 N   0  0  0  0  0  0  0  0  0  0  0  0
   29.3731  -21.3056  -12.8527 C   0  0  0  0  0  0  0  0  0  0  0  0
   28.5688  -20.3811  -11.9972 C   0  0  0  0  0  0  0  0  0  0  0  0
   27.1231  -20.2908  -12.4397 C   0  0  0  0  0  0  0  0  0  0  0  0
   26.3294  -21.4977  -11.9958 C   0  0  2  0  0  0  0  0  0  0  0  0
   26.6896  -22.6212  -12.8124 N   0  0  0  0  0  0  0  0  0  0  0  0
   24.8896  -21.2094  -12.0886 C   0  0  0  0  0  0  0  0  0  0  0  0
   24.2946  -21.5510  -13.1494 O   0  0  0  0  0  0  0  0  0  0  0  0
   33.1194  -22.1204  -12.0017 N   0  0  0  0  0  0  0  0  0  0  0  0
   24.1288  -20.5815  -11.0818 C   0  0  1  0  0  0  0  0  0  0  0  0
   22.7074  -20.4465  -11.2314 C   0  0  0  0  0  0  0  0  0  0  0  0
   21.9479  -20.1361  -10.0016 C   0  0  0  0  0  0  0  0  0  0  0  0
   20.9461  -21.1007   -9.5808 C   0  0  0  0  0  0  0  0  0  0  0  0
   20.5325  -22.2573  -10.1838 N   0  0  0  0  0  0  0  0  0  0  0  0
   19.5535  -22.8290   -9.4164 C   0  0  0  0  0  0  0  0  0  0  0  0
   19.3677  -22.0454   -8.3671 N   0  0  0  0  0  0  0  0  0  0  0  0
   20.1913  -21.0033   -8.4442 C   0  0  0  0  0  0  0  0  0  0  0  0
   22.3928  -19.3740  -12.2492 O   0  0  0  0  0  0  0  0  0  0  0  0
   23.1975  -18.4316  -12.4698 N   0  0  0  0  0  0  0  0  0  0  0  0
   22.3289  -17.4629  -16.3417 C   0  0  0  0  0  0  0  0  0  0  0  0
   22.9252  -18.7457  -16.0923 O   0  0  0  0  0  0  0  0  0  0  0  0
   23.9704  -18.9603  -16.7675 C   0  0  0  0  0  0  0  0  0  0  0  0
   22.3402  -19.6964  -15.1287 C   0  0  2  0  0  0  0  0  0  0  0  0
   21.1663  -19.1010  -14.4412 N   0  0  0  0  0  0  0  0  0  0  0  0
   21.1925  -19.3692  -13.0018 C   0  0  0  0  0  0  0  0  0  0  0  0
   19.9256  -19.8099  -14.9212 O   0  0  0  0  0  0  0  0  0  0  0  0
   18.9893  -19.1061  -15.6985 O   0  0  0  0  0  0  0  0  0  0  0  0
  2  3  2  0
  2  1  1  0
  4  2  1  0
  5  4  1  0
  6  5  1  0
  7  6  1  0
  8  7  1  0
  8  9  1  6
 10 11  2  0
 10  8  1  0
 12 10  1  0
 13 20  1  0
 13 12  1  0
 13 14  1  6
 15 14  1  0
 15 19  1  0
 16 15  2  0
 17 16  1  0
 17 18  1  0
 18 19  2  0
 20 21  2  0
 23 22  1  0
 24 23  2  0
 25 23  1  0
 26 25  1  1
 27 26  1  0
 27 20  1  0
 28 26  1  0
 29 28  1  0
 30 28  2  0
M  END
$$$$
