RHN.pdb
     RDKit          3D

 30 30  0  0  1  0  0  0  0  0999 V2000
   22.0457  -29.6277  -12.9980 N   0  0  0  0  0  0  0  0  0  0  0  0
   22.1994  -30.3421  -14.2139 C   0  0  0  0  0  0  0  0  0  0  0  0
   21.4880  -31.4073  -14.4634 N   0  0  0  0  0  0  0  0  0  0  0  0
   23.1503  -29.8685  -15.1576 N   0  0  0  0  0  0  0  0  0  0  0  0
   23.6157  -28.5061  -15.0772 C   0  0  0  0  0  0  0  0  0  0  0  0
   22.7891  -27.5528  -15.8780 C   0  0  0  0  0  0  0  0  0  0  0  0
   22.8693  -26.1336  -15.3547 C   0  0  0  0  0  0  0  0  0  0  0  0
   24.2272  -25.5223  -15.6114 C   0  0  2  0  0  0  0  0  0  0  0  0
   25.2350  -26.3551  -15.0199 N   0  0  0  0  0  0  0  0  0  0  0  0
   24.2718  -24.1580  -15.0626 C   0  0  0  0  0  0  0  0  0  0  0  0
   24.6313  -24.0260  -13.8587 O   0  0  0  0  0  0  0  0  0  0  0  0
   21.6913  -31.9386  -15.3318 N   0  0  0  0  0  0  0  0  0  0  0  0
   23.9432  -22.9911  -15.7817 C   0  0  1  0  0  0  0  0  0  0  0  0
   24.1107  -21.7002  -15.1759 C   0  0  0  0  0  0  0  0  0  0  0  0
   24.5144  -20.6021  -16.0797 C   0  0  0  0  0  0  0  0  0  0  0  0
   25.9142  -20.5419  -16.4645 C   0  0  0  0  0  0  0  0  0  0  0  0
   26.9742  -21.2979  -16.0435 N   0  0  0  0  0  0  0  0  0  0  0  0
   28.1057  -20.8643  -16.6804 C   0  0  0  0  0  0  0  0  0  0  0  0
   27.7531  -19.8664  -17.4737 N   0  0  0  0  0  0  0  0  0  0  0  0
   26.4443  -19.6553  -17.3610 C   0  0  0  0  0  0  0  0  0  0  0  0
   22.8325  -21.2816  -14.4860 O   0  0  0  0  0  0  0  0  0  0  0  0
   21.7081  -21.6146  -14.9434 N   0  0  0  0  0  0  0  0  0  0  0  0
   19.3398  -19.1769  -11.3156 C   0  0  0  0  0  0  0  0  0  0  0  0
   20.6119  -19.0460  -10.6615 O   0  0  0  0  0  0  0  0  0  0  0  0
   20.5399  -18.5425   -9.5058 C   0  0  0  0  0  0  0  0  0  0  0  0
   21.8642  -19.4721  -11.3132 C   0  0  2  0  0  0  0  0  0  0  0  0
   21.5909  -20.0924  -12.6345 N   0  0  0  0  0  0  0  0  0  0  0  0
   22.8277  -20.5029  -13.3024 C   0  0  0  0  0  0  0  0  0  0  0  0
   21.0185  -19.0362  -13.5450 O   0  0  0  0  0  0  0  0  0  0  0  0
   21.8185  -18.5081  -14.5732 O   0  0  0  0  0  0  0  0  0  0  0  0
  2  3  2  0
  2  1  1  0
  4  2  1  0
  5  4  1  0
  6  5  1  0
  7  6  1  0
  8  7  1  0
  8  9  1  1
 10 11  2  0
 10  8  1  0
 12 10  1  0
 13 20  1  0
 13 12  1  0
 13 14  1  1
 15 14  1  0
 15 19  1  0
 16 15  2  0
 17 16  1  0
 17 18  1  0
 18 19  2  0
 20 21  2  0
 23 22  1  0
 24 23  2  0
 25 23  1  0
 26 25  1  1
 27 26  1  0
 27 20  1  0
 28 26  1  0
 29 28  1  0
 30 28  2  0
M  END
$$$$
