RHN.pdb
     RDKit          3D

 30 30  0  0  1  0  0  0  0  0999 V2000
   29.1833  -27.0333  -16.4761 N   0  0  0  0  0  0  0  0  0  0  0  0
   28.0848  -27.4139  -17.2890 C   0  0  0  0  0  0  0  0  0  0  0  0
   27.3402  -28.4393  -16.9775 N   0  0  0  0  0  0  0  0  0  0  0  0
   27.8134  -26.6490  -18.4554 N   0  0  0  0  0  0  0  0  0  0  0  0
   27.4354  -25.2635  -18.3265 C   0  0  0  0  0  0  0  0  0  0  0  0
   27.9845  -24.6148  -17.0972 C   0  0  0  0  0  0  0  0  0  0  0  0
   26.9356  -24.4306  -16.0201 C   0  0  0  0  0  0  0  0  0  0  0  0
   26.0479  -23.2415  -16.3060 C   0  0  2  0  0  0  0  0  0  0  0  0
   26.8665  -22.1287  -16.6938 N   0  0  0  0  0  0  0  0  0  0  0  0
   25.2420  -22.9234  -15.1169 C   0  0  0  0  0  0  0  0  0  0  0  0
   24.5120  -23.8405  -14.6458 O   0  0  0  0  0  0  0  0  0  0  0  0
   26.5861  -28.7139  -17.6361 N   0  0  0  0  0  0  0  0  0  0  0  0
   25.2261  -21.6724  -14.4677 C   0  0  1  0  0  0  0  0  0  0  0  0
   24.3576  -21.4540  -13.3456 C   0  0  0  0  0  0  0  0  0  0  0  0
   24.8642  -20.5461  -12.2946 C   0  0  0  0  0  0  0  0  0  0  0  0
   24.0850  -20.4483  -11.0721 C   0  0  0  0  0  0  0  0  0  0  0  0
   24.2542  -21.0793   -9.8698 N   0  0  0  0  0  0  0  0  0  0  0  0
   23.2613  -20.6774   -9.0173 C   0  0  0  0  0  0  0  0  0  0  0  0
   22.4991  -19.8207   -9.6766 N   0  0  0  0  0  0  0  0  0  0  0  0
   22.9734  -19.6678  -10.9103 C   0  0  0  0  0  0  0  0  0  0  0  0
   23.0269  -20.9139  -13.8176 O   0  0  0  0  0  0  0  0  0  0  0  0
   22.9506  -20.1652  -14.8265 N   0  0  0  0  0  0  0  0  0  0  0  0
   19.1814  -18.4835  -16.2484 C   0  0  0  0  0  0  0  0  0  0  0  0
   19.3705  -18.9822  -14.9147 O   0  0  0  0  0  0  0  0  0  0  0  0
   18.3269  -18.9435  -14.2048 C   0  0  0  0  0  0  0  0  0  0  0  0
   20.6784  -19.4845  -14.4549 C   0  0  2  0  0  0  0  0  0  0  0  0
   20.5165  -20.7046  -13.6239 N   0  0  0  0  0  0  0  0  0  0  0  0
   21.8083  -21.2159  -13.1612 C   0  0  0  0  0  0  0  0  0  0  0  0
   19.9810  -21.8077  -14.5006 O   0  0  0  0  0  0  0  0  0  0  0  0
   19.4962  -22.9850  -13.9048 O   0  0  0  0  0  0  0  0  0  0  0  0
  2  3  2  0
  2  1  1  0
  4  2  1  0
  5  4  1  0
  6  5  1  0
  7  6  1  0
  8  7  1  0
  8  9  1  1
 10 11  2  0
 10  8  1  0
 12 10  1  0
 13 20  1  0
 13 12  1  0
 13 14  1  6
 15 14  1  0
 15 19  1  0
 16 15  2  0
 17 16  1  0
 17 18  1  0
 18 19  2  0
 20 21  2  0
 23 22  1  0
 24 23  2  0
 25 23  1  0
 26 25  1  1
 27 26  1  0
 27 20  1  0
 28 26  1  0
 29 28  1  0
 30 28  2  0
M  END
$$$$
