RHN.pdb
     RDKit          3D

 30 30  0  0  1  0  0  0  0  0999 V2000
   30.6445  -24.0764  -15.5093 N   0  0  0  0  0  0  0  0  0  0  0  0
   30.0210  -24.2418  -16.7726 C   0  0  0  0  0  0  0  0  0  0  0  0
   29.5577  -25.4026  -17.1480 N   0  0  0  0  0  0  0  0  0  0  0  0
   29.9123  -23.1089  -17.6234 N   0  0  0  0  0  0  0  0  0  0  0  0
   29.7226  -21.8009  -17.0469 C   0  0  0  0  0  0  0  0  0  0  0  0
   28.3569  -21.2435  -17.2869 C   0  0  0  0  0  0  0  0  0  0  0  0
   28.1885  -19.8522  -16.7125 C   0  0  0  0  0  0  0  0  0  0  0  0
   27.1680  -19.8306  -15.5981 C   0  0  2  0  0  0  0  0  0  0  0  0
   27.4976  -20.8481  -14.6415 N   0  0  0  0  0  0  0  0  0  0  0  0
   25.8203  -20.0344  -16.1520 C   0  0  0  0  0  0  0  0  0  0  0  0
   25.3943  -19.1780  -16.9774 O   0  0  0  0  0  0  0  0  0  0  0  0
   29.2531  -25.5117  -18.1344 N   0  0  0  0  0  0  0  0  0  0  0  0
   24.9729  -21.1134  -15.8287 C   0  0  1  0  0  0  0  0  0  0  0  0
   23.6659  -21.2041  -16.4159 C   0  0  0  0  0  0  0  0  0  0  0  0
   23.0259  -22.5363  -16.3822 C   0  0  0  0  0  0  0  0  0  0  0  0
   21.7583  -22.6798  -17.0777 C   0  0  0  0  0  0  0  0  0  0  0  0
   20.9796  -21.7348  -17.6882 N   0  0  0  0  0  0  0  0  0  0  0  0
   19.8657  -22.3446  -18.1998 C   0  0  0  0  0  0  0  0  0  0  0  0
   19.9549  -23.6326  -17.9122 N   0  0  0  0  0  0  0  0  0  0  0  0
   21.0809  -23.8569  -17.2399 C   0  0  0  0  0  0  0  0  0  0  0  0
   22.7278  -20.2261  -15.7462 O   0  0  0  0  0  0  0  0  0  0  0  0
   22.8229  -19.9724  -14.5170 N   0  0  0  0  0  0  0  0  0  0  0  0
   19.1458  -16.6740  -14.7050 C   0  0  0  0  0  0  0  0  0  0  0  0
   20.0522  -16.2671  -15.7423 O   0  0  0  0  0  0  0  0  0  0  0  0
   19.9725  -15.0414  -16.0351 C   0  0  0  0  0  0  0  0  0  0  0  0
   20.9752  -17.2229  -16.3818 C   0  0  1  0  0  0  0  0  0  0  0  0
   20.8086  -18.5843  -15.8123 N   0  0  0  0  0  0  0  0  0  0  0  0
   21.7039  -19.5493  -16.4537 C   0  0  0  0  0  0  0  0  0  0  0  0
   19.4285  -19.0792  -16.1625 O   0  0  0  0  0  0  0  0  0  0  0  0
   18.5313  -19.4015  -15.1294 O   0  0  0  0  0  0  0  0  0  0  0  0
  2  3  2  0
  2  1  1  0
  4  2  1  0
  5  4  1  0
  6  5  1  0
  7  6  1  0
  8  7  1  0
  8  9  1  1
 10 11  2  0
 10  8  1  0
 12 10  1  0
 13 20  1  0
 13 12  1  0
 13 14  1  6
 15 14  1  0
 15 19  1  0
 16 15  2  0
 17 16  1  0
 17 18  1  0
 18 19  2  0
 20 21  2  0
 23 22  1  0
 24 23  2  0
 25 23  1  0
 26 25  1  1
 27 26  1  0
 27 20  1  0
 28 26  1  0
 29 28  1  0
 30 28  2  0
M  END
$$$$
