RHN.pdb
     RDKit          3D

 30 30  0  0  1  0  0  0  0  0999 V2000
   28.7390  -27.5739  -16.0242 N   0  0  0  0  0  0  0  0  0  0  0  0
   28.4783  -27.5625  -17.4185 C   0  0  0  0  0  0  0  0  0  0  0  0
   28.6143  -28.6428  -18.1378 N   0  0  0  0  0  0  0  0  0  0  0  0
   28.0639  -26.3417  -18.0161 N   0  0  0  0  0  0  0  0  0  0  0  0
   27.4569  -25.3194  -17.2003 C   0  0  0  0  0  0  0  0  0  0  0  0
   25.9924  -25.5276  -16.9874 C   0  0  0  0  0  0  0  0  0  0  0  0
   25.2010  -25.4456  -18.2762 C   0  0  0  0  0  0  0  0  0  0  0  0
   24.2383  -24.2808  -18.2643 C   0  0  2  0  0  0  0  0  0  0  0  0
   24.6527  -23.3412  -17.2622 N   0  0  0  0  0  0  0  0  0  0  0  0
   22.8724  -24.7651  -18.0106 C   0  0  0  0  0  0  0  0  0  0  0  0
   22.3625  -25.5437  -18.8649 O   0  0  0  0  0  0  0  0  0  0  0  0
   28.4176  -28.5808  -19.1552 N   0  0  0  0  0  0  0  0  0  0  0  0
   22.0944  -24.4237  -16.8860 C   0  0  1  0  0  0  0  0  0  0  0  0
   20.7722  -24.9624  -16.7341 C   0  0  0  0  0  0  0  0  0  0  0  0
   20.5156  -25.7230  -15.4927 C   0  0  0  0  0  0  0  0  0  0  0  0
   21.1918  -27.0009  -15.3473 C   0  0  0  0  0  0  0  0  0  0  0  0
   22.0453  -27.6451  -16.2010 N   0  0  0  0  0  0  0  0  0  0  0  0
   22.4209  -28.8339  -15.6352 C   0  0  0  0  0  0  0  0  0  0  0  0
   21.8146  -28.9209  -14.4629 N   0  0  0  0  0  0  0  0  0  0  0  0
   21.0725  -27.8337  -14.2689 C   0  0  0  0  0  0  0  0  0  0  0  0
   19.7483  -23.8533  -16.8139 O   0  0  0  0  0  0  0  0  0  0  0  0
   18.5174  -24.0971  -16.7149 N   0  0  0  0  0  0  0  0  0  0  0  0
   17.1719  -19.4706  -17.2791 C   0  0  0  0  0  0  0  0  0  0  0  0
   16.7791  -20.8445  -17.4245 O   0  0  0  0  0  0  0  0  0  0  0  0
   15.5416  -21.0015  -17.6199 C   0  0  0  0  0  0  0  0  0  0  0  0
   17.7609  -21.9422  -17.3464 C   0  0  1  0  0  0  0  0  0  0  0  0
   19.1216  -21.4185  -17.0643 N   0  0  0  0  0  0  0  0  0  0  0  0
   20.1106  -22.4965  -17.0009 C   0  0  0  0  0  0  0  0  0  0  0  0
   19.1271  -20.8369  -15.6736 O   0  0  0  0  0  0  0  0  0  0  0  0
   19.1769  -19.4414  -15.5125 O   0  0  0  0  0  0  0  0  0  0  0  0
  2  3  2  0
  2  1  1  0
  4  2  1  0
  5  4  1  0
  6  5  1  0
  7  6  1  0
  8  7  1  0
  8  9  1  1
 10 11  2  0
 10  8  1  0
 12 10  1  0
 13 20  1  0
 13 12  1  0
 13 14  1  6
 15 14  1  0
 15 19  1  0
 16 15  2  0
 17 16  1  0
 17 18  1  0
 18 19  2  0
 20 21  2  0
 23 22  1  0
 24 23  2  0
 25 23  1  0
 26 25  1  6
 27 26  1  0
 27 20  1  0
 28 26  1  0
 29 28  1  0
 30 28  2  0
M  END
$$$$
