RHN.pdb
     RDKit          3D

 30 30  0  0  1  0  0  0  0  0999 V2000
   25.7201  -23.5763  -15.7149 N   0  0  0  0  0  0  0  0  0  0  0  0
   26.9183  -23.9333  -16.3853 C   0  0  0  0  0  0  0  0  0  0  0  0
   27.2211  -25.1839  -16.6029 N   0  0  0  0  0  0  0  0  0  0  0  0
   27.7845  -22.8925  -16.8162 N   0  0  0  0  0  0  0  0  0  0  0  0
   27.4262  -21.5184  -16.5661 C   0  0  0  0  0  0  0  0  0  0  0  0
   27.2062  -21.2210  -15.1181 C   0  0  0  0  0  0  0  0  0  0  0  0
   26.7025  -19.8117  -14.8850 C   0  0  0  0  0  0  0  0  0  0  0  0
   25.9805  -19.2716  -16.0977 C   0  0  2  0  0  0  0  0  0  0  0  0
   26.8745  -18.4273  -16.8373 N   0  0  0  0  0  0  0  0  0  0  0  0
   24.7778  -18.5367  -15.6759 C   0  0  0  0  0  0  0  0  0  0  0  0
   24.8853  -17.7660  -14.6807 O   0  0  0  0  0  0  0  0  0  0  0  0
   28.1551  -25.3984  -17.0022 N   0  0  0  0  0  0  0  0  0  0  0  0
   23.5179  -18.6306  -16.3009 C   0  0  2  0  0  0  0  0  0  0  0  0
   22.4007  -17.8910  -15.7848 C   0  0  0  0  0  0  0  0  0  0  0  0
   21.6348  -17.0947  -16.7672 C   0  0  0  0  0  0  0  0  0  0  0  0
   20.5475  -16.2785  -16.2544 C   0  0  0  0  0  0  0  0  0  0  0  0
   20.0925  -16.1260  -14.9730 N   0  0  0  0  0  0  0  0  0  0  0  0
   19.0343  -15.2574  -14.9813 C   0  0  0  0  0  0  0  0  0  0  0  0
   18.8414  -14.8838  -16.2354 N   0  0  0  0  0  0  0  0  0  0  0  0
   19.7365  -15.4832  -17.0163 C   0  0  0  0  0  0  0  0  0  0  0  0
   21.4331  -18.8265  -15.0966 O   0  0  0  0  0  0  0  0  0  0  0  0
   21.8118  -19.9423  -14.6540 N   0  0  0  0  0  0  0  0  0  0  0  0
   17.4832  -21.0237  -12.7007 C   0  0  0  0  0  0  0  0  0  0  0  0
   18.5709  -20.3663  -12.0314 O   0  0  0  0  0  0  0  0  0  0  0  0
   18.5946  -20.5642  -10.7846 C   0  0  0  0  0  0  0  0  0  0  0  0
   19.5490  -19.5446  -12.7681 C   0  0  1  0  0  0  0  0  0  0  0  0
   19.1417  -19.3783  -14.1865 N   0  0  0  0  0  0  0  0  0  0  0  0
   20.0657  -18.5048  -14.9128 C   0  0  0  0  0  0  0  0  0  0  0  0
   17.8326  -18.6316  -14.2195 O   0  0  0  0  0  0  0  0  0  0  0  0
   16.6345  -19.3514  -14.3695 O   0  0  0  0  0  0  0  0  0  0  0  0
  2  3  2  0
  2  1  1  0
  4  2  1  0
  5  4  1  0
  6  5  1  0
  7  6  1  0
  8  7  1  0
  8  9  1  1
 10 11  2  0
 10  8  1  0
 12 10  1  0
 13 20  1  0
 13 12  1  0
 13 14  1  6
 15 14  1  0
 15 19  1  0
 16 15  2  0
 17 16  1  0
 17 18  1  0
 18 19  2  0
 20 21  2  0
 23 22  1  0
 24 23  2  0
 25 23  1  0
 26 25  1  6
 27 26  1  0
 27 20  1  0
 28 26  1  0
 29 28  1  0
 30 28  2  0
M  END
$$$$
