RHN.pdb
     RDKit          3D

 30 30  0  0  1  0  0  0  0  0999 V2000
   27.4762  -19.9948  -15.1433 N   0  0  0  0  0  0  0  0  0  0  0  0
   28.0446  -19.3208  -16.2546 C   0  0  0  0  0  0  0  0  0  0  0  0
   28.4812  -19.9819  -17.2916 N   0  0  0  0  0  0  0  0  0  0  0  0
   28.1277  -17.9029  -16.2117 N   0  0  0  0  0  0  0  0  0  0  0  0
   27.2847  -17.1673  -15.3022 C   0  0  0  0  0  0  0  0  0  0  0  0
   26.3368  -16.2424  -15.9946 C   0  0  0  0  0  0  0  0  0  0  0  0
   25.4674  -15.4693  -15.0247 C   0  0  0  0  0  0  0  0  0  0  0  0
   24.0637  -16.0265  -14.9705 C   0  0  2  0  0  0  0  0  0  0  0  0
   24.0288  -17.2766  -15.6741 N   0  0  0  0  0  0  0  0  0  0  0  0
   23.1203  -15.0592  -15.5526 C   0  0  0  0  0  0  0  0  0  0  0  0
   23.1184  -14.9316  -16.8094 O   0  0  0  0  0  0  0  0  0  0  0  0
   28.8292  -19.4399  -18.1058 N   0  0  0  0  0  0  0  0  0  0  0  0
   22.2210  -14.2671  -14.8106 C   0  0  1  0  0  0  0  0  0  0  0  0
   21.3795  -13.3147  -15.4785 C   0  0  0  0  0  0  0  0  0  0  0  0
   19.9604  -13.2937  -15.0644 C   0  0  0  0  0  0  0  0  0  0  0  0
   19.1385  -14.4248  -15.4596 C   0  0  0  0  0  0  0  0  0  0  0  0
   19.4759  -15.5573  -16.1494 N   0  0  0  0  0  0  0  0  0  0  0  0
   18.3583  -16.3346  -16.2947 C   0  0  0  0  0  0  0  0  0  0  0  0
   17.3572  -15.6980  -15.7099 N   0  0  0  0  0  0  0  0  0  0  0  0
   17.8010  -14.5509  -15.2024 C   0  0  0  0  0  0  0  0  0  0  0  0
   21.9318  -11.9191  -15.2986 O   0  0  0  0  0  0  0  0  0  0  0  0
   23.1612  -11.7263  -15.1099 N   0  0  0  0  0  0  0  0  0  0  0  0
   22.5956   -6.8169  -15.5467 C   0  0  0  0  0  0  0  0  0  0  0  0
   22.9193   -7.7451  -16.5940 O   0  0  0  0  0  0  0  0  0  0  0  0
   23.6079   -7.2415  -17.5248 C   0  0  0  0  0  0  0  0  0  0  0  0
   22.4699   -9.1489  -16.5495 C   0  0  1  0  0  0  0  0  0  0  0  0
   21.6564   -9.4079  -15.3343 N   0  0  0  0  0  0  0  0  0  0  0  0
   21.1093  -10.7661  -15.3324 C   0  0  0  0  0  0  0  0  0  0  0  0
   20.4365   -8.5238  -15.3830 O   0  0  0  0  0  0  0  0  0  0  0  0
   20.4559   -7.2884  -14.7126 O   0  0  0  0  0  0  0  0  0  0  0  0
  2  3  2  0
  2  1  1  0
  4  2  1  0
  5  4  1  0
  6  5  1  0
  7  6  1  0
  8  7  1  0
  8  9  1  6
 10 11  2  0
 10  8  1  0
 12 10  1  0
 13 20  1  0
 13 12  1  0
 13 14  1  6
 15 14  1  0
 15 19  1  0
 16 15  2  0
 17 16  1  0
 17 18  1  0
 18 19  2  0
 20 21  2  0
 23 22  1  0
 24 23  2  0
 25 23  1  0
 26 25  1  1
 27 26  1  0
 27 20  1  0
 28 26  1  0
 29 28  1  0
 30 28  2  0
M  END
$$$$
