RHN.pdb
     RDKit          3D

 30 30  0  0  1  0  0  0  0  0999 V2000
   21.2423  -26.3166  -13.8265 N   0  0  0  0  0  0  0  0  0  0  0  0
   21.1287  -24.9124  -13.9931 C   0  0  0  0  0  0  0  0  0  0  0  0
   21.7486  -24.2972  -14.9628 N   0  0  0  0  0  0  0  0  0  0  0  0
   20.3208  -24.1886  -13.0753 N   0  0  0  0  0  0  0  0  0  0  0  0
   19.5052  -24.9047  -12.1260 C   0  0  0  0  0  0  0  0  0  0  0  0
   18.2381  -25.4321  -12.7172 C   0  0  0  0  0  0  0  0  0  0  0  0
   17.3575  -26.1131  -11.6900 C   0  0  0  0  0  0  0  0  0  0  0  0
   17.4126  -27.6176  -11.8206 C   0  0  2  0  0  0  0  0  0  0  0  0
   16.3599  -28.0506  -12.6943 N   0  0  0  0  0  0  0  0  0  0  0  0
   17.2935  -28.2383  -10.4920 C   0  0  0  0  0  0  0  0  0  0  0  0
   16.1868  -28.1247   -9.8933 O   0  0  0  0  0  0  0  0  0  0  0  0
   21.6254  -23.2698  -15.0476 N   0  0  0  0  0  0  0  0  0  0  0  0
   18.3225  -28.9483   -9.8412 C   0  0  2  0  0  0  0  0  0  0  0  0
   18.1508  -29.3833   -8.4837 C   0  0  0  0  0  0  0  0  0  0  0  0
   19.0946  -30.4153   -8.0043 C   0  0  0  0  0  0  0  0  0  0  0  0
   18.8497  -30.9755   -6.6862 C   0  0  0  0  0  0  0  0  0  0  0  0
   17.8961  -30.6548   -5.7588 N   0  0  0  0  0  0  0  0  0  0  0  0
   18.0674  -31.4493   -4.6572 C   0  0  0  0  0  0  0  0  0  0  0  0
   19.1001  -32.2397   -4.8986 N   0  0  0  0  0  0  0  0  0  0  0  0
   19.5852  -31.9737   -6.1087 C   0  0  0  0  0  0  0  0  0  0  0  0
   18.2451  -28.2022   -7.5451 O   0  0  0  0  0  0  0  0  0  0  0  0
   19.1279  -27.3184   -7.6996 N   0  0  0  0  0  0  0  0  0  0  0  0
   17.2237  -24.0601   -5.4215 C   0  0  0  0  0  0  0  0  0  0  0  0
   15.9946  -24.8031   -5.4040 O   0  0  0  0  0  0  0  0  0  0  0  0
   14.9630  -24.0779   -5.3396 C   0  0  0  0  0  0  0  0  0  0  0  0
   15.9807  -26.2767   -5.4579 C   0  0  2  0  0  0  0  0  0  0  0  0
   17.3540  -26.8147   -5.6308 N   0  0  0  0  0  0  0  0  0  0  0  0
   17.3579  -28.0252   -6.4548 C   0  0  0  0  0  0  0  0  0  0  0  0
   17.8511  -27.2865   -4.2882 O   0  0  0  0  0  0  0  0  0  0  0  0
   17.4568  -28.5499   -3.8145 O   0  0  0  0  0  0  0  0  0  0  0  0
  2  3  2  0
  2  1  1  0
  4  2  1  0
  5  4  1  0
  6  5  1  0
  7  6  1  0
  8  7  1  0
  8  9  1  6
 10 11  2  0
 10  8  1  0
 12 10  1  0
 13 20  1  0
 13 12  1  0
 13 14  1  6
 15 14  1  0
 15 19  1  0
 16 15  2  0
 17 16  1  0
 17 18  1  0
 18 19  2  0
 20 21  2  0
 23 22  1  0
 24 23  2  0
 25 23  1  0
 26 25  1  6
 27 26  1  0
 27 20  1  0
 28 26  1  0
 29 28  1  0
 30 28  2  0
M  END
$$$$
