HCA.pdb
     RDKit          3D

 22 22  0  0  1  0  0  0  0  0999 V2000
   -3.4203  -24.1416   22.8153 N   0  0  0  0  0  0  0  0  0  0  0  0
   -3.7759  -24.7383   24.1149 C   0  0  1  0  0  0  0  0  0  0  0  0
   -2.7164  -25.6690   24.5561 C   0  0  0  0  0  0  0  0  0  0  0  0
   -2.5289  -26.8846   23.7377 C   0  0  0  0  0  0  0  0  0  0  0  0
   -3.2955  -28.0163   23.6071 C   0  0  0  0  0  0  0  0  0  0  0  0
   -2.7341  -28.8241   22.6737 N   0  0  0  0  0  0  0  0  0  0  0  0
   -1.6404  -28.2213   22.2219 C   0  0  0  0  0  0  0  0  0  0  0  0
   -1.4994  -27.0575   22.8462 N   0  0  0  0  0  0  0  0  0  0  0  0
   -3.9380  -23.5753   25.0673 C   0  0  0  0  0  0  0  0  0  0  0  0
   -3.2288  -22.5870   25.0095 O   0  0  0  0  0  0  0  0  0  0  0  0
   -4.9345  -23.5659   26.0941 N   0  0  0  0  0  0  0  0  0  0  0  0
   -5.4082  -22.3953   26.7478 C   0  0  1  0  0  0  0  0  0  0  0  0
   -5.9416  -21.3329   25.8330 C   0  0  0  0  0  0  0  0  0  0  0  0
   -4.7812  -20.0078   25.5204 S   0  0  0  0  0  0  0  0  0  0  0  0
   -6.4376  -22.6632   27.7814 C   0  0  0  0  0  0  0  0  0  0  0  0
   -7.4840  -23.2618   27.3867 O   0  0  0  0  0  0  0  0  0  0  0  0
   -6.7888  -22.5545   31.4984 C   0  0  0  0  0  0  0  0  0  0  0  0
   -7.3176  -22.6882   30.0730 C   0  0  2  0  0  0  0  0  0  0  0  0
   -6.3065  -22.2925   29.1416 N   0  0  0  0  0  0  0  0  0  0  0  0
   -8.5793  -21.9224   29.9104 C   0  0  0  0  0  0  0  0  0  0  0  0
   -8.4867  -20.7859   29.3797 O   0  0  0  0  0  0  0  0  0  0  0  0
   -9.8182  -22.3682   30.2956 O   0  0  0  0  0  0  0  0  0  0  0  0
  2  1  1  6
  2  9  1  0
  2  3  1  0
  3  4  1  0
  4  8  1  0
  4  5  2  0
  5  6  1  0
  7  6  1  0
  8  7  2  0
  9 11  1  0
 10  9  2  0
 11 12  1  0
 12 15  1  0
 12 13  1  6
 13 14  1  0
 15 16  2  0
 15 19  1  0
 18 20  1  0
 18 17  1  1
 19 18  1  0
 20 22  1  0
 21 20  2  0
M  END
$$$$
