HCA.pdb
     RDKit          3D

 22 22  0  0  1  0  0  0  0  0999 V2000
   -3.3473  -23.6934   22.5579 N   0  0  0  0  0  0  0  0  0  0  0  0
   -4.6019  -24.0843   23.2246 C   0  0  1  0  0  0  0  0  0  0  0  0
   -4.7053  -25.5566   23.2948 C   0  0  0  0  0  0  0  0  0  0  0  0
   -4.8543  -26.2656   22.0072 C   0  0  0  0  0  0  0  0  0  0  0  0
   -5.7484  -26.0984   20.9787 C   0  0  0  0  0  0  0  0  0  0  0  0
   -5.4302  -26.9520   19.9742 N   0  0  0  0  0  0  0  0  0  0  0  0
   -4.3611  -27.6426   20.3536 C   0  0  0  0  0  0  0  0  0  0  0  0
   -3.9997  -27.2465   21.5687 N   0  0  0  0  0  0  0  0  0  0  0  0
   -4.5467  -23.4562   24.5988 C   0  0  0  0  0  0  0  0  0  0  0  0
   -3.5242  -23.4336   25.2600 O   0  0  0  0  0  0  0  0  0  0  0  0
   -5.6925  -22.8508   25.2054 N   0  0  0  0  0  0  0  0  0  0  0  0
   -5.6706  -22.1315   26.4318 C   0  0  1  0  0  0  0  0  0  0  0  0
   -5.8208  -20.6452   26.2952 C   0  0  0  0  0  0  0  0  0  0  0  0
   -4.3992  -19.8459   25.5602 S   0  0  0  0  0  0  0  0  0  0  0  0
   -6.6744  -22.6006   27.4177 C   0  0  0  0  0  0  0  0  0  0  0  0
   -7.8398  -22.8209   26.9678 O   0  0  0  0  0  0  0  0  0  0  0  0
   -6.8368  -23.7973   30.9540 C   0  0  0  0  0  0  0  0  0  0  0  0
   -7.4377  -23.2816   29.6493 C   0  0  2  0  0  0  0  0  0  0  0  0
   -6.3970  -22.8058   28.7909 N   0  0  0  0  0  0  0  0  0  0  0  0
   -8.4724  -22.2522   29.9222 C   0  0  0  0  0  0  0  0  0  0  0  0
   -8.0841  -21.0566   29.9611 O   0  0  0  0  0  0  0  0  0  0  0  0
   -9.8020  -22.5180   30.1308 O   0  0  0  0  0  0  0  0  0  0  0  0
  2  1  1  6
  2  9  1  0
  2  3  1  0
  3  4  1  0
  4  8  1  0
  4  5  2  0
  5  6  1  0
  7  6  1  0
  8  7  2  0
  9 11  1  0
 10  9  2  0
 11 12  1  0
 12 15  1  0
 12 13  1  6
 13 14  1  0
 15 16  2  0
 15 19  1  0
 18 20  1  0
 18 17  1  1
 19 18  1  0
 20 22  1  0
 21 20  2  0
M  END
$$$$
