HCA.pdb
     RDKit          3D

 22 22  0  0  1  0  0  0  0  0999 V2000
    8.5265  -14.2804   12.5233 N   0  0  0  0  0  0  0  0  0  0  0  0
    9.6820  -14.9247   13.1722 C   0  0  1  0  0  0  0  0  0  0  0  0
   10.7307  -13.9237   13.4577 C   0  0  0  0  0  0  0  0  0  0  0  0
   11.4563  -13.3830   12.2899 C   0  0  0  0  0  0  0  0  0  0  0  0
   11.2800  -13.5800   10.9426 C   0  0  0  0  0  0  0  0  0  0  0  0
   12.1593  -12.8019   10.2640 N   0  0  0  0  0  0  0  0  0  0  0  0
   12.8747  -12.1271   11.1565 C   0  0  0  0  0  0  0  0  0  0  0  0
   12.4692  -12.4603   12.3765 N   0  0  0  0  0  0  0  0  0  0  0  0
    9.1420  -15.5528   14.4370 C   0  0  0  0  0  0  0  0  0  0  0  0
    8.0164  -15.3263   14.8433 O   0  0  0  0  0  0  0  0  0  0  0  0
    9.9209  -16.4511   15.2332 N   0  0  0  0  0  0  0  0  0  0  0  0
    9.4197  -17.1896   16.3401 C   0  0  1  0  0  0  0  0  0  0  0  0
    8.2393  -18.0633   16.0343 C   0  0  0  0  0  0  0  0  0  0  0  0
    7.5361  -18.8491   17.4794 S   0  0  0  0  0  0  0  0  0  0  0  0
   10.4428  -18.0274   17.0119 C   0  0  0  0  0  0  0  0  0  0  0  0
   11.5259  -18.2048   16.3760 O   0  0  0  0  0  0  0  0  0  0  0  0
   11.6440  -17.0220   19.4790 C   0  0  0  0  0  0  0  0  0  0  0  0
   11.3093  -18.4949   19.2606 C   0  0  2  0  0  0  0  0  0  0  0  0
   10.2679  -18.6165   18.2875 N   0  0  0  0  0  0  0  0  0  0  0  0
   10.9701  -19.1498   20.5494 C   0  0  0  0  0  0  0  0  0  0  0  0
    9.7472  -19.2916   20.8069 O   0  0  0  0  0  0  0  0  0  0  0  0
   11.8900  -19.6019   21.4612 O   0  0  0  0  0  0  0  0  0  0  0  0
  2  1  1  1
  2  9  1  0
  2  3  1  0
  3  4  1  0
  4  8  1  0
  4  5  2  0
  5  6  1  0
  7  6  1  0
  8  7  2  0
  9 11  1  0
 10  9  2  0
 11 12  1  0
 12 15  1  0
 12 13  1  6
 13 14  1  0
 15 16  2  0
 15 19  1  0
 18 20  1  0
 18 17  1  1
 19 18  1  0
 20 22  1  0
 21 20  2  0
M  END
$$$$
