HCA.pdb
     RDKit          3D

 22 22  0  0  1  0  0  0  0  0999 V2000
    9.3764  -16.1648   20.7347 N   0  0  0  0  0  0  0  0  0  0  0  0
    8.7139  -16.6796   21.9461 C   0  0  1  0  0  0  0  0  0  0  0  0
    9.3451  -17.9452   22.3743 C   0  0  0  0  0  0  0  0  0  0  0  0
    9.0965  -19.1240   21.5191 C   0  0  0  0  0  0  0  0  0  0  0  0
    7.9435  -19.6011   20.9463 C   0  0  0  0  0  0  0  0  0  0  0  0
    8.2435  -20.6833   20.1861 N   0  0  0  0  0  0  0  0  0  0  0  0
    9.5529  -20.8878   20.2723 C   0  0  0  0  0  0  0  0  0  0  0  0
   10.0831  -19.9642   21.0660 N   0  0  0  0  0  0  0  0  0  0  0  0
    8.8650  -15.5932   22.9868 C   0  0  0  0  0  0  0  0  0  0  0  0
    9.8738  -14.9166   23.0751 O   0  0  0  0  0  0  0  0  0  0  0  0
    7.8320  -15.2947   23.9308 N   0  0  0  0  0  0  0  0  0  0  0  0
    7.9355  -14.3163   24.9574 C   0  0  1  0  0  0  0  0  0  0  0  0
    6.6252  -13.8458   25.5161 C   0  0  0  0  0  0  0  0  0  0  0  0
    6.7972  -12.6596   26.8441 S   0  0  0  0  0  0  0  0  0  0  0  0
    8.7911  -14.7324   26.0952 C   0  0  0  0  0  0  0  0  0  0  0  0
    8.7766  -15.9676   26.3835 O   0  0  0  0  0  0  0  0  0  0  0  0
   10.9037  -13.2288   28.7875 C   0  0  0  0  0  0  0  0  0  0  0  0
   10.4372  -14.3624   27.8784 C   0  0  2  0  0  0  0  0  0  0  0  0
    9.5947  -13.8411   26.8466 N   0  0  0  0  0  0  0  0  0  0  0  0
    9.7788  -15.4308   28.6721 C   0  0  0  0  0  0  0  0  0  0  0  0
    8.5215  -15.4216   28.6993 O   0  0  0  0  0  0  0  0  0  0  0  0
   10.4436  -16.4102   29.3655 O   0  0  0  0  0  0  0  0  0  0  0  0
  2  1  1  6
  2  9  1  0
  2  3  1  0
  3  4  1  0
  4  8  1  0
  4  5  2  0
  5  6  1  0
  7  6  1  0
  8  7  2  0
  9 11  1  0
 10  9  2  0
 11 12  1  0
 12 15  1  0
 12 13  1  1
 13 14  1  0
 15 16  2  0
 15 19  1  0
 18 20  1  0
 18 17  1  1
 19 18  1  0
 20 22  1  0
 21 20  2  0
M  END
$$$$
