HCA.pdb
     RDKit          3D

 22 22  0  0  1  0  0  0  0  0999 V2000
   11.8804  -19.4422   15.5507 N   0  0  0  0  0  0  0  0  0  0  0  0
   11.1303  -20.1664   16.5920 C   0  0  1  0  0  0  0  0  0  0  0  0
   11.9891  -21.1922   17.2195 C   0  0  0  0  0  0  0  0  0  0  0  0
   13.3683  -21.2993   16.7006 C   0  0  0  0  0  0  0  0  0  0  0  0
   13.9503  -20.7964   15.5633 C   0  0  0  0  0  0  0  0  0  0  0  0
   15.2696  -21.1102   15.5670 N   0  0  0  0  0  0  0  0  0  0  0  0
   15.5198  -21.7933   16.6781 C   0  0  0  0  0  0  0  0  0  0  0  0
   14.3940  -21.9174   17.3718 N   0  0  0  0  0  0  0  0  0  0  0  0
   10.6907  -19.1142   17.5847 C   0  0  0  0  0  0  0  0  0  0  0  0
   11.2169  -18.0173   17.6417 O   0  0  0  0  0  0  0  0  0  0  0  0
    9.6301  -19.3437   18.5174 N   0  0  0  0  0  0  0  0  0  0  0  0
    9.1020  -18.3590   19.3968 C   0  0  1  0  0  0  0  0  0  0  0  0
    7.6690  -18.5656   19.7892 C   0  0  0  0  0  0  0  0  0  0  0  0
    6.6210  -19.0756   18.4321 S   0  0  0  0  0  0  0  0  0  0  0  0
    9.8921  -18.1824   20.6396 C   0  0  0  0  0  0  0  0  0  0  0  0
   10.5957  -19.1741   21.0008 O   0  0  0  0  0  0  0  0  0  0  0  0
   10.6791  -15.5301   23.1704 C   0  0  0  0  0  0  0  0  0  0  0  0
   10.6501  -16.9556   22.6263 C   0  0  2  0  0  0  0  0  0  0  0  0
    9.8943  -16.9960   21.4124 N   0  0  0  0  0  0  0  0  0  0  0  0
   10.1363  -17.8962   23.6540 C   0  0  0  0  0  0  0  0  0  0  0  0
    8.9313  -18.2416   23.5525 O   0  0  0  0  0  0  0  0  0  0  0  0
   10.8799  -18.4036   24.6892 O   0  0  0  0  0  0  0  0  0  0  0  0
  2  1  1  6
  2  9  1  0
  2  3  1  0
  3  4  1  0
  4  8  1  0
  4  5  2  0
  5  6  1  0
  7  6  1  0
  8  7  2  0
  9 11  1  0
 10  9  2  0
 11 12  1  0
 12 15  1  0
 12 13  1  1
 13 14  1  0
 15 16  2  0
 15 19  1  0
 18 20  1  0
 18 17  1  1
 19 18  1  0
 20 22  1  0
 21 20  2  0
M  END
$$$$
