HCA.pdb
     RDKit          3D

 22 22  0  0  1  0  0  0  0  0999 V2000
   10.7059  -15.2667   21.6208 N   0  0  0  0  0  0  0  0  0  0  0  0
    9.7272  -14.6173   22.5107 C   0  0  1  0  0  0  0  0  0  0  0  0
    8.3527  -14.9864   22.1133 C   0  0  0  0  0  0  0  0  0  0  0  0
    7.8430  -14.3736   20.8693 C   0  0  0  0  0  0  0  0  0  0  0  0
    8.3767  -13.4111   20.0484 C   0  0  0  0  0  0  0  0  0  0  0  0
    7.5560  -13.2349   18.9833 N   0  0  0  0  0  0  0  0  0  0  0  0
    6.5285  -14.0646   19.1228 C   0  0  0  0  0  0  0  0  0  0  0  0
    6.6811  -14.7563   20.2462 N   0  0  0  0  0  0  0  0  0  0  0  0
   10.0603  -15.0992   23.9045 C   0  0  0  0  0  0  0  0  0  0  0  0
   10.7528  -16.0813   24.1022 O   0  0  0  0  0  0  0  0  0  0  0  0
    9.5817  -14.4305   25.0755 N   0  0  0  0  0  0  0  0  0  0  0  0
   10.0154  -14.7131   26.3999 C   0  0  1  0  0  0  0  0  0  0  0  0
    9.5258  -13.7531   27.4434 C   0  0  0  0  0  0  0  0  0  0  0  0
   10.0974  -14.1367   29.0945 S   0  0  0  0  0  0  0  0  0  0  0  0
    9.6873  -16.0857   26.8560 C   0  0  0  0  0  0  0  0  0  0  0  0
    8.4635  -16.4150   26.8033 O   0  0  0  0  0  0  0  0  0  0  0  0
   10.5683  -19.3689   26.7925 C   0  0  0  0  0  0  0  0  0  0  0  0
   10.2112  -18.2870   27.8080 C   0  0  2  0  0  0  0  0  0  0  0  0
   10.6480  -17.0110   27.3309 N   0  0  0  0  0  0  0  0  0  0  0  0
   10.7665  -18.6212   29.1439 C   0  0  0  0  0  0  0  0  0  0  0  0
   11.6901  -17.8833   29.5731 O   0  0  0  0  0  0  0  0  0  0  0  0
   10.3433  -19.6658   29.9260 O   0  0  0  0  0  0  0  0  0  0  0  0
  2  1  1  6
  2  9  1  0
  2  3  1  0
  3  4  1  0
  4  8  1  0
  4  5  2  0
  5  6  1  0
  7  6  1  0
  8  7  2  0
  9 11  1  0
 10  9  2  0
 11 12  1  0
 12 15  1  0
 12 13  1  1
 13 14  1  0
 15 16  2  0
 15 19  1  0
 18 20  1  0
 18 17  1  6
 19 18  1  0
 20 22  1  0
 21 20  2  0
M  END
$$$$
