HCA.pdb
     RDKit          3D

 22 22  0  0  1  0  0  0  0  0999 V2000
    6.5639  -18.1412   21.1491 N   0  0  0  0  0  0  0  0  0  0  0  0
    6.1943  -17.8852   22.5524 C   0  0  1  0  0  0  0  0  0  0  0  0
    6.1255  -19.1567   23.3021 C   0  0  0  0  0  0  0  0  0  0  0  0
    5.0341  -20.0798   22.9287 C   0  0  0  0  0  0  0  0  0  0  0  0
    4.0728  -19.9985   21.9517 C   0  0  0  0  0  0  0  0  0  0  0  0
    3.3367  -21.1374   21.9611 N   0  0  0  0  0  0  0  0  0  0  0  0
    3.8184  -21.9225   22.9177 C   0  0  0  0  0  0  0  0  0  0  0  0
    4.8362  -21.3078   23.5096 N   0  0  0  0  0  0  0  0  0  0  0  0
    7.2657  -16.9670   23.0956 C   0  0  0  0  0  0  0  0  0  0  0  0
    8.4054  -16.9764   22.6665 O   0  0  0  0  0  0  0  0  0  0  0  0
    7.0051  -16.0318   24.1467 N   0  0  0  0  0  0  0  0  0  0  0  0
    8.0081  -15.3180   24.8584 C   0  0  1  0  0  0  0  0  0  0  0  0
    7.5065  -14.1524   25.6585 C   0  0  0  0  0  0  0  0  0  0  0  0
    5.9970  -14.4954   26.5551 S   0  0  0  0  0  0  0  0  0  0  0  0
    8.8226  -16.1698   25.7587 C   0  0  0  0  0  0  0  0  0  0  0  0
    8.1997  -17.0852   26.3776 O   0  0  0  0  0  0  0  0  0  0  0  0
   12.2532  -17.3158   26.0038 C   0  0  0  0  0  0  0  0  0  0  0  0
   10.9345  -16.9934   26.7011 C   0  0  2  0  0  0  0  0  0  0  0  0
   10.2164  -16.0104   25.9499 N   0  0  0  0  0  0  0  0  0  0  0  0
   11.1748  -16.5793   28.1066 C   0  0  0  0  0  0  0  0  0  0  0  0
   10.7950  -15.4244   28.4286 O   0  0  0  0  0  0  0  0  0  0  0  0
   11.7744  -17.3630   29.0596 O   0  0  0  0  0  0  0  0  0  0  0  0
  2  1  1  6
  2  9  1  0
  2  3  1  0
  3  4  1  0
  4  8  1  0
  4  5  2  0
  5  6  1  0
  7  6  1  0
  8  7  2  0
  9 11  1  0
 10  9  2  0
 11 12  1  0
 12 15  1  0
 12 13  1  1
 13 14  1  0
 15 16  2  0
 15 19  1  0
 18 20  1  0
 18 17  1  6
 19 18  1  0
 20 22  1  0
 21 20  2  0
M  END
$$$$
