HCA.pdb
     RDKit          3D

 22 22  0  0  1  0  0  0  0  0999 V2000
    9.3560  -16.2469   20.9245 N   0  0  0  0  0  0  0  0  0  0  0  0
    8.5704  -16.6922   22.0889 C   0  0  1  0  0  0  0  0  0  0  0  0
    9.0413  -18.0161   22.5461 C   0  0  0  0  0  0  0  0  0  0  0  0
    7.9990  -19.0348   22.7887 C   0  0  0  0  0  0  0  0  0  0  0  0
    7.3856  -19.9235   21.9407 C   0  0  0  0  0  0  0  0  0  0  0  0
    6.5401  -20.7051   22.6570 N   0  0  0  0  0  0  0  0  0  0  0  0
    6.6152  -20.3243   23.9271 C   0  0  0  0  0  0  0  0  0  0  0  0
    7.4841  -19.3248   24.0278 N   0  0  0  0  0  0  0  0  0  0  0  0
    8.7667  -15.6280   23.1448 C   0  0  0  0  0  0  0  0  0  0  0  0
    9.8381  -15.0748   23.3157 O   0  0  0  0  0  0  0  0  0  0  0  0
    7.7053  -15.2066   24.0070 N   0  0  0  0  0  0  0  0  0  0  0  0
    7.8430  -14.2448   25.0452 C   0  0  1  0  0  0  0  0  0  0  0  0
    6.5540  -13.6520   25.5323 C   0  0  0  0  0  0  0  0  0  0  0  0
    6.7582  -12.5222   26.9042 S   0  0  0  0  0  0  0  0  0  0  0  0
    8.5886  -14.7432   26.2265 C   0  0  0  0  0  0  0  0  0  0  0  0
    8.3917  -15.9562   26.5412 O   0  0  0  0  0  0  0  0  0  0  0  0
   10.6565  -13.5841   29.0726 C   0  0  0  0  0  0  0  0  0  0  0  0
   10.3077  -14.5816   27.9715 C   0  0  2  0  0  0  0  0  0  0  0  0
    9.4790  -13.9509   26.9907 N   0  0  0  0  0  0  0  0  0  0  0  0
    9.6873  -15.8007   28.5490 C   0  0  0  0  0  0  0  0  0  0  0  0
   10.3827  -16.4559   29.3669 O   0  0  0  0  0  0  0  0  0  0  0  0
    8.4256  -16.2500   28.2521 O   0  0  0  0  0  0  0  0  0  0  0  0
  2  1  1  6
  2  9  1  0
  2  3  1  0
  3  4  1  0
  4  8  1  0
  4  5  2  0
  5  6  1  0
  7  6  1  0
  8  7  2  0
  9 11  1  0
 10  9  2  0
 11 12  1  0
 12 15  1  0
 12 13  1  1
 13 14  1  0
 15 16  2  0
 15 19  1  0
 18 20  1  0
 18 17  1  1
 19 18  1  0
 20 22  1  0
 21 20  2  0
M  END
$$$$
