HCA.pdb
     RDKit          3D

 22 22  0  0  1  0  0  0  0  0999 V2000
   11.2875  -14.0018   19.5403 N   0  0  0  0  0  0  0  0  0  0  0  0
   10.0423  -14.0957   20.3226 C   0  0  1  0  0  0  0  0  0  0  0  0
    9.0369  -14.8916   19.5882 C   0  0  0  0  0  0  0  0  0  0  0  0
    8.5976  -14.3514   18.2851 C   0  0  0  0  0  0  0  0  0  0  0  0
    8.1943  -13.0921   17.9156 C   0  0  0  0  0  0  0  0  0  0  0  0
    7.9568  -13.0788   16.5805 N   0  0  0  0  0  0  0  0  0  0  0  0
    8.2041  -14.2972   16.1135 C   0  0  0  0  0  0  0  0  0  0  0  0
    8.5897  -15.0751   17.1186 N   0  0  0  0  0  0  0  0  0  0  0  0
   10.4305  -14.7459   21.6312 C   0  0  0  0  0  0  0  0  0  0  0  0
   11.4717  -15.3637   21.7638 O   0  0  0  0  0  0  0  0  0  0  0  0
    9.5980  -14.6749   22.7928 N   0  0  0  0  0  0  0  0  0  0  0  0
    9.9983  -15.0729   24.0979 C   0  0  1  0  0  0  0  0  0  0  0  0
    9.1642  -14.5142   25.2125 C   0  0  0  0  0  0  0  0  0  0  0  0
    7.4037  -14.6828   24.9439 S   0  0  0  0  0  0  0  0  0  0  0  0
   10.0708  -16.5433   24.2781 C   0  0  0  0  0  0  0  0  0  0  0  0
    9.1491  -17.2203   23.7293 O   0  0  0  0  0  0  0  0  0  0  0  0
   12.2170  -19.2633   24.4394 C   0  0  0  0  0  0  0  0  0  0  0  0
   11.0345  -18.6217   25.1600 C   0  0  2  0  0  0  0  0  0  0  0  0
   11.0890  -17.2001   25.0107 N   0  0  0  0  0  0  0  0  0  0  0  0
   10.9956  -19.0486   26.5817 C   0  0  0  0  0  0  0  0  0  0  0  0
   11.1432  -18.1478   27.4468 O   0  0  0  0  0  0  0  0  0  0  0  0
   10.8120  -20.3409   27.0039 O   0  0  0  0  0  0  0  0  0  0  0  0
  2  1  1  6
  2  9  1  0
  2  3  1  0
  3  4  1  0
  4  8  1  0
  4  5  2  0
  5  6  1  0
  7  6  1  0
  8  7  2  0
  9 11  1  0
 10  9  2  0
 11 12  1  0
 12 15  1  0
 12 13  1  1
 13 14  1  0
 15 16  2  0
 15 19  1  0
 18 20  1  0
 18 17  1  1
 19 18  1  0
 20 22  1  0
 21 20  2  0
M  END
$$$$
