HCA.pdb
     RDKit          3D

 22 22  0  0  1  0  0  0  0  0999 V2000
   10.0058  -16.5705   19.2426 N   0  0  0  0  0  0  0  0  0  0  0  0
   10.3315  -16.1036   20.6018 C   0  0  1  0  0  0  0  0  0  0  0  0
    9.2021  -15.3319   21.1606 C   0  0  0  0  0  0  0  0  0  0  0  0
    8.7910  -14.1309   20.4047 C   0  0  0  0  0  0  0  0  0  0  0  0
    9.3910  -12.9051   20.2545 C   0  0  0  0  0  0  0  0  0  0  0  0
    8.6534  -12.1546   19.3992 N   0  0  0  0  0  0  0  0  0  0  0  0
    7.6128  -12.8846   19.0146 C   0  0  0  0  0  0  0  0  0  0  0  0
    7.6764  -14.0724   19.6053 N   0  0  0  0  0  0  0  0  0  0  0  0
   10.6140  -17.3527   21.4055 C   0  0  0  0  0  0  0  0  0  0  0  0
   10.2321  -18.4528   21.0488 O   0  0  0  0  0  0  0  0  0  0  0  0
   11.3468  -17.3176   22.6340 N   0  0  0  0  0  0  0  0  0  0  0  0
   11.8356  -18.4662   23.3148 C   0  0  1  0  0  0  0  0  0  0  0  0
   13.2046  -18.9142   22.8958 C   0  0  0  0  0  0  0  0  0  0  0  0
   14.2869  -17.5687   22.4285 S   0  0  0  0  0  0  0  0  0  0  0  0
   11.8345  -18.3309   24.7918 C   0  0  0  0  0  0  0  0  0  0  0  0
   12.4839  -17.3489   25.2641 O   0  0  0  0  0  0  0  0  0  0  0  0
    9.9937  -19.5662   27.7559 C   0  0  0  0  0  0  0  0  0  0  0  0
   11.2374  -18.9988   27.0774 C   0  0  2  0  0  0  0  0  0  0  0  0
   11.1632  -19.2197   25.6660 N   0  0  0  0  0  0  0  0  0  0  0  0
   12.4680  -19.5673   27.6835 C   0  0  0  0  0  0  0  0  0  0  0  0
   12.6648  -19.3203   28.9009 O   0  0  0  0  0  0  0  0  0  0  0  0
   13.3878  -20.3315   27.0114 O   0  0  0  0  0  0  0  0  0  0  0  0
  2  1  1  6
  2  9  1  0
  2  3  1  0
  3  4  1  0
  4  8  1  0
  4  5  2  0
  5  6  1  0
  7  6  1  0
  8  7  2  0
  9 11  1  0
 10  9  2  0
 11 12  1  0
 12 15  1  0
 12 13  1  6
 13 14  1  0
 15 16  2  0
 15 19  1  0
 18 20  1  0
 18 17  1  1
 19 18  1  0
 20 22  1  0
 21 20  2  0
M  END
$$$$
