HCA.pdb
     RDKit          3D

 22 22  0  0  1  0  0  0  0  0999 V2000
   13.5306  -18.2547   18.0263 N   0  0  0  0  0  0  0  0  0  0  0  0
   13.4777  -19.4837   18.8375 C   0  0  1  0  0  0  0  0  0  0  0  0
   14.8328  -20.0521   18.9918 C   0  0  0  0  0  0  0  0  0  0  0  0
   15.5095  -20.4801   17.7502 C   0  0  0  0  0  0  0  0  0  0  0  0
   15.0945  -21.2962   16.7269 C   0  0  0  0  0  0  0  0  0  0  0  0
   16.0544  -21.3262   15.7695 N   0  0  0  0  0  0  0  0  0  0  0  0
   17.0526  -20.5486   16.1728 C   0  0  0  0  0  0  0  0  0  0  0  0
   16.7461  -20.0316   17.3572 N   0  0  0  0  0  0  0  0  0  0  0  0
   12.8843  -19.0709   20.1655 C   0  0  0  0  0  0  0  0  0  0  0  0
   13.1802  -18.0220   20.7092 O   0  0  0  0  0  0  0  0  0  0  0  0
   11.9394  -19.8877   20.8636 N   0  0  0  0  0  0  0  0  0  0  0  0
   11.2899  -19.5161   22.0727 C   0  0  1  0  0  0  0  0  0  0  0  0
    9.8090  -19.3072   21.9560 C   0  0  0  0  0  0  0  0  0  0  0  0
    8.9597  -20.6459   21.1273 S   0  0  0  0  0  0  0  0  0  0  0  0
   11.5287  -20.4581   23.1932 C   0  0  0  0  0  0  0  0  0  0  0  0
   12.0667  -21.5656   22.8878 O   0  0  0  0  0  0  0  0  0  0  0  0
   13.2910  -20.8914   25.5184 C   0  0  0  0  0  0  0  0  0  0  0  0
   11.7688  -20.9819   25.5794 C   0  0  2  0  0  0  0  0  0  0  0  0
   11.1935  -20.1836   24.5411 N   0  0  0  0  0  0  0  0  0  0  0  0
   11.2773  -20.6083   26.9299 C   0  0  0  0  0  0  0  0  0  0  0  0
   11.6595  -21.3261   27.8893 O   0  0  0  0  0  0  0  0  0  0  0  0
   10.4473  -19.5482   27.1928 O   0  0  0  0  0  0  0  0  0  0  0  0
  2  1  1  6
  2  9  1  0
  2  3  1  0
  3  4  1  0
  4  8  1  0
  4  5  2  0
  5  6  1  0
  7  6  1  0
  8  7  2  0
  9 11  1  0
 10  9  2  0
 11 12  1  0
 12 15  1  0
 12 13  1  6
 13 14  1  0
 15 16  2  0
 15 19  1  0
 18 20  1  0
 18 17  1  1
 19 18  1  0
 20 22  1  0
 21 20  2  0
M  END
$$$$
