HCA.pdb
     RDKit          3D

 22 22  0  0  1  0  0  0  0  0999 V2000
    9.4811  -17.3745   19.9566 N   0  0  0  0  0  0  0  0  0  0  0  0
   10.2549  -17.2520   21.2047 C   0  0  1  0  0  0  0  0  0  0  0  0
   11.5203  -16.5320   20.9520 C   0  0  0  0  0  0  0  0  0  0  0  0
   12.6115  -17.3187   20.3409 C   0  0  0  0  0  0  0  0  0  0  0  0
   13.3888  -18.3329   20.8433 C   0  0  0  0  0  0  0  0  0  0  0  0
   14.2121  -18.7839   19.8647 N   0  0  0  0  0  0  0  0  0  0  0  0
   13.9638  -18.0760   18.7688 C   0  0  0  0  0  0  0  0  0  0  0  0
   13.0076  -17.1927   19.0325 N   0  0  0  0  0  0  0  0  0  0  0  0
    9.3615  -16.5023   22.1668 C   0  0  0  0  0  0  0  0  0  0  0  0
    8.7702  -15.4875   21.8449 O   0  0  0  0  0  0  0  0  0  0  0  0
    9.1571  -16.9398   23.5138 N   0  0  0  0  0  0  0  0  0  0  0  0
    8.3547  -16.2591   24.4701 C   0  0  1  0  0  0  0  0  0  0  0  0
    7.3021  -17.1025   25.1266 C   0  0  0  0  0  0  0  0  0  0  0  0
    7.9605  -18.5156   26.0040 S   0  0  0  0  0  0  0  0  0  0  0  0
    9.1362  -15.5937   25.5407 C   0  0  0  0  0  0  0  0  0  0  0  0
   10.2943  -16.0619   25.7611 O   0  0  0  0  0  0  0  0  0  0  0  0
    8.8999  -12.6369   27.8293 C   0  0  0  0  0  0  0  0  0  0  0  0
    9.4864  -13.9568   27.3363 C   0  0  2  0  0  0  0  0  0  0  0  0
    8.6614  -14.4970   26.3000 N   0  0  0  0  0  0  0  0  0  0  0  0
    9.6767  -14.8986   28.4684 C   0  0  0  0  0  0  0  0  0  0  0  0
    8.8882  -15.8765   28.5290 O   0  0  0  0  0  0  0  0  0  0  0  0
   10.6412  -14.7718   29.4356 O   0  0  0  0  0  0  0  0  0  0  0  0
  2  1  1  6
  2  9  1  0
  2  3  1  0
  3  4  1  0
  4  8  1  0
  4  5  2  0
  5  6  1  0
  7  6  1  0
  8  7  2  0
  9 11  1  0
 10  9  2  0
 11 12  1  0
 12 15  1  0
 12 13  1  1
 13 14  1  0
 15 16  2  0
 15 19  1  0
 18 20  1  0
 18 17  1  1
 19 18  1  0
 20 22  1  0
 21 20  2  0
M  END
$$$$
