HCA.pdb
     RDKit          3D

 22 22  0  0  1  0  0  0  0  0999 V2000
   11.7172  -13.8063   19.4546 N   0  0  0  0  0  0  0  0  0  0  0  0
   10.3268  -14.1299   19.8200 C   0  0  1  0  0  0  0  0  0  0  0  0
    9.7495  -15.0762   18.8430 C   0  0  0  0  0  0  0  0  0  0  0  0
    9.3979  -14.5199   17.5203 C   0  0  0  0  0  0  0  0  0  0  0  0
   10.1290  -14.3994   16.3643 C   0  0  0  0  0  0  0  0  0  0  0  0
    9.3364  -13.8829   15.3928 N   0  0  0  0  0  0  0  0  0  0  0  0
    8.1329  -13.6817   15.9169 C   0  0  0  0  0  0  0  0  0  0  0  0
    8.1481  -14.0572   17.1908 N   0  0  0  0  0  0  0  0  0  0  0  0
   10.3976  -14.7250   21.2081 C   0  0  0  0  0  0  0  0  0  0  0  0
   11.4303  -15.1797   21.6661 O   0  0  0  0  0  0  0  0  0  0  0  0
    9.2552  -14.7899   22.0674 N   0  0  0  0  0  0  0  0  0  0  0  0
    9.2977  -15.1618   23.4391 C   0  0  1  0  0  0  0  0  0  0  0  0
    8.0628  -14.8281   24.2227 C   0  0  0  0  0  0  0  0  0  0  0  0
    7.7851  -13.0707   24.4085 S   0  0  0  0  0  0  0  0  0  0  0  0
    9.6019  -16.5965   23.6601 C   0  0  0  0  0  0  0  0  0  0  0  0
    9.2060  -17.3973   22.7595 O   0  0  0  0  0  0  0  0  0  0  0  0
   11.5796  -18.8096   23.6771 C   0  0  0  0  0  0  0  0  0  0  0  0
   10.6500  -18.4764   24.8407 C   0  0  2  0  0  0  0  0  0  0  0  0
   10.2907  -17.0925   24.7933 N   0  0  0  0  0  0  0  0  0  0  0  0
   11.2709  -18.8644   26.1325 C   0  0  0  0  0  0  0  0  0  0  0  0
   11.4295  -17.9497   26.9810 O   0  0  0  0  0  0  0  0  0  0  0  0
   11.6754  -20.1353   26.4535 O   0  0  0  0  0  0  0  0  0  0  0  0
  2  1  1  6
  2  9  1  0
  2  3  1  0
  3  4  1  0
  4  8  1  0
  4  5  2  0
  5  6  1  0
  7  6  1  0
  8  7  2  0
  9 11  1  0
 10  9  2  0
 11 12  1  0
 12 15  1  0
 12 13  1  6
 13 14  1  0
 15 16  2  0
 15 19  1  0
 18 20  1  0
 18 17  1  6
 19 18  1  0
 20 22  1  0
 21 20  2  0
M  END
$$$$
