PQK.pdb
     RDKit          3D

 26 26  0  0  1  0  0  0  0  0999 V2000
    7.3472  -14.2976   19.3312 N   0  0  0  0  0  0  0  0  0  0  0  0
    6.8104  -13.2713   18.4267 C   0  0  0  0  0  0  0  0  0  0  0  0
    8.0821  -12.4602   18.1656 C   0  0  0  0  0  0  0  0  0  0  0  0
    9.0843  -13.5719   17.8909 C   0  0  0  0  0  0  0  0  0  0  0  0
    8.4889  -14.7585   18.5676 C   0  0  1  0  0  0  0  0  0  0  0  0
    9.4343  -15.5400   19.3802 C   0  0  0  0  0  0  0  0  0  0  0  0
   10.0767  -16.4569   18.8055 O   0  0  0  0  0  0  0  0  0  0  0  0
   14.3247  -14.7834   19.5477 N   0  0  0  0  0  0  0  0  0  0  0  0
   14.4806  -15.4667   20.7846 C   0  0  0  0  0  0  0  0  0  0  0  0
   15.6140  -15.6699   21.2398 O   0  0  0  0  0  0  0  0  0  0  0  0
   13.2672  -15.9168   21.4933 C   0  0  0  0  0  0  0  0  0  0  0  0
   11.9931  -15.5298   20.8475 C   0  0  0  0  0  0  0  0  0  0  0  0
   10.7207  -15.9599   21.5342 C   0  0  2  0  0  0  0  0  0  0  0  0
    9.6531  -15.3187   20.7427 N   0  0  0  0  0  0  0  0  0  0  0  0
   10.6704  -15.4357   22.9161 C   0  0  0  0  0  0  0  0  0  0  0  0
   11.3960  -15.9374   23.8388 O   0  0  0  0  0  0  0  0  0  0  0  0
    9.8359  -14.3688   23.2767 N   0  0  0  0  0  0  0  0  0  0  0  0
    9.1213  -14.3903   24.5912 C   0  0  1  0  0  0  0  0  0  0  0  0
    7.7049  -13.9336   24.3513 C   0  0  0  0  0  0  0  0  0  0  0  0
    6.9059  -13.9782   25.6098 C   0  0  0  0  0  0  0  0  0  0  0  0
    6.5280  -12.5904   26.1140 C   0  0  0  0  0  0  0  0  0  0  0  0
    5.7065  -12.7528   27.3639 C   0  0  0  0  0  0  0  0  0  0  0  0
    5.4392  -11.4170   27.9128 N   0  0  0  0  0  0  0  0  0  0  0  0
    9.1284  -15.7596   25.1178 C   0  0  0  0  0  0  0  0  0  0  0  0
    9.4836  -16.0714   26.4052 O   0  0  0  0  0  0  0  0  0  0  0  0
    8.7994  -16.7104   24.3663 O   0  0  0  0  0  0  0  0  0  0  0  0
  1  2  1  0
  3  2  1  0
  4  3  1  0
  5  4  1  0
  5  1  1  0
  6 14  1  0
  5  6  1  1
  7  6  2  0
  8  9  1  0
  9 10  2  0
 11  9  1  0
 11 12  1  0
 13 12  1  6
 13 14  1  0
 15 17  1  0
 15 13  1  0
 16 15  2  0
 18 17  1  0
 18 24  1  0
 18 19  1  6
 20 19  1  0
 21 20  1  0
 22 21  1  0
 23 22  1  0
 24 25  1  0
 26 24  2  0
M  END
$$$$
