PQK.pdb
     RDKit          3D

 26 26  0  0  1  0  0  0  0  0999 V2000
    8.6002  -15.5029   18.7333 N   0  0  0  0  0  0  0  0  0  0  0  0
    8.6651  -14.8258   17.4306 C   0  0  0  0  0  0  0  0  0  0  0  0
    7.5434  -13.8000   17.6114 C   0  0  0  0  0  0  0  0  0  0  0  0
    7.8583  -13.2676   19.0019 C   0  0  0  0  0  0  0  0  0  0  0  0
    8.6458  -14.3657   19.6299 C   0  0  1  0  0  0  0  0  0  0  0  0
    8.2348  -14.7095   21.0002 C   0  0  0  0  0  0  0  0  0  0  0  0
    8.2801  -13.7988   21.8675 O   0  0  0  0  0  0  0  0  0  0  0  0
    6.6489  -20.5501   22.5313 N   0  0  0  0  0  0  0  0  0  0  0  0
    6.3911  -19.9304   23.7845 C   0  0  0  0  0  0  0  0  0  0  0  0
    5.9836  -20.6084   24.7371 O   0  0  0  0  0  0  0  0  0  0  0  0
    6.6215  -18.4780   23.9078 C   0  0  0  0  0  0  0  0  0  0  0  0
    7.0688  -17.8140   22.6632 C   0  0  0  0  0  0  0  0  0  0  0  0
    7.2972  -16.3243   22.7276 C   0  0  2  0  0  0  0  0  0  0  0  0
    7.8016  -15.9816   21.3838 N   0  0  0  0  0  0  0  0  0  0  0  0
    8.3389  -15.9985   23.7254 C   0  0  0  0  0  0  0  0  0  0  0  0
    9.5718  -16.2337   23.4927 O   0  0  0  0  0  0  0  0  0  0  0  0
    8.0281  -15.4159   24.9617 N   0  0  0  0  0  0  0  0  0  0  0  0
    9.1240  -15.0556   25.9147 C   0  0  1  0  0  0  0  0  0  0  0  0
    8.8208  -13.6861   26.4666 C   0  0  0  0  0  0  0  0  0  0  0  0
    7.3600  -13.5190   26.7162 C   0  0  0  0  0  0  0  0  0  0  0  0
    7.0309  -12.2047   27.4144 C   0  0  0  0  0  0  0  0  0  0  0  0
    5.5458  -12.1578   27.6505 C   0  0  0  0  0  0  0  0  0  0  0  0
    5.2557  -11.0058   28.5142 N   0  0  0  0  0  0  0  0  0  0  0  0
    9.1579  -16.0418   27.0004 C   0  0  0  0  0  0  0  0  0  0  0  0
    8.2960  -17.1054   27.0812 O   0  0  0  0  0  0  0  0  0  0  0  0
   10.0098  -15.9220   27.9152 O   0  0  0  0  0  0  0  0  0  0  0  0
  1  2  1  0
  3  2  1  0
  4  3  1  0
  5  4  1  0
  5  1  1  0
  6 14  1  0
  5  6  1  1
  7  6  2  0
  8  9  1  0
  9 10  2  0
 11  9  1  0
 11 12  1  0
 13 12  1  6
 13 14  1  0
 15 17  1  0
 15 13  1  0
 16 15  2  0
 18 17  1  0
 18 24  1  0
 18 19  1  1
 20 19  1  0
 21 20  1  0
 22 21  1  0
 23 22  1  0
 24 25  1  0
 26 24  2  0
M  END
$$$$
