PQK.pdb
     RDKit          3D

 26 26  0  0  1  0  0  0  0  0999 V2000
    8.7840  -15.4719   18.6441 N   0  0  0  0  0  0  0  0  0  0  0  0
    8.9434  -14.7297   17.3858 C   0  0  0  0  0  0  0  0  0  0  0  0
    7.6806  -13.8656   17.4286 C   0  0  0  0  0  0  0  0  0  0  0  0
    7.7196  -13.3654   18.8654 C   0  0  0  0  0  0  0  0  0  0  0  0
    8.5488  -14.3830   19.5705 C   0  0  1  0  0  0  0  0  0  0  0  0
    7.9959  -14.8425   20.8543 C   0  0  0  0  0  0  0  0  0  0  0  0
    7.7173  -13.9676   21.7149 O   0  0  0  0  0  0  0  0  0  0  0  0
    7.1504  -20.9225   22.0004 N   0  0  0  0  0  0  0  0  0  0  0  0
    6.6498  -20.4080   23.2275 C   0  0  0  0  0  0  0  0  0  0  0  0
    6.2350  -21.1831   24.0993 O   0  0  0  0  0  0  0  0  0  0  0  0
    6.6420  -18.9452   23.4218 C   0  0  0  0  0  0  0  0  0  0  0  0
    7.1144  -18.1631   22.2577 C   0  0  0  0  0  0  0  0  0  0  0  0
    7.1081  -16.6610   22.3957 C   0  0  2  0  0  0  0  0  0  0  0  0
    7.7668  -16.1860   21.1636 N   0  0  0  0  0  0  0  0  0  0  0  0
    7.9160  -16.2404   23.5608 C   0  0  0  0  0  0  0  0  0  0  0  0
    9.1896  -16.1836   23.4945 O   0  0  0  0  0  0  0  0  0  0  0  0
    7.3291  -15.8813   24.7820 N   0  0  0  0  0  0  0  0  0  0  0  0
    7.8609  -14.7137   25.5520 C   0  0  1  0  0  0  0  0  0  0  0  0
    6.6945  -13.8262   25.9041 C   0  0  0  0  0  0  0  0  0  0  0  0
    7.1294  -12.6790   26.7522 C   0  0  0  0  0  0  0  0  0  0  0  0
    5.9724  -11.7671   27.1433 C   0  0  0  0  0  0  0  0  0  0  0  0
    6.5226  -10.6426   27.9776 C   0  0  0  0  0  0  0  0  0  0  0  0
    5.4054   -9.7717   28.3660 N   0  0  0  0  0  0  0  0  0  0  0  0
    8.5113  -15.2016   26.7732 C   0  0  0  0  0  0  0  0  0  0  0  0
    9.4356  -14.4743   27.4784 O   0  0  0  0  0  0  0  0  0  0  0  0
    8.2239  -16.3433   27.2103 O   0  0  0  0  0  0  0  0  0  0  0  0
  1  2  1  0
  3  2  1  0
  4  3  1  0
  5  4  1  0
  5  1  1  0
  6 14  1  0
  5  6  1  1
  7  6  2  0
  8  9  1  0
  9 10  2  0
 11  9  1  0
 11 12  1  0
 13 12  1  6
 13 14  1  0
 15 17  1  0
 15 13  1  0
 16 15  2  0
 18 17  1  0
 18 24  1  0
 18 19  1  1
 20 19  1  0
 21 20  1  0
 22 21  1  0
 23 22  1  0
 24 25  1  0
 26 24  2  0
M  END
$$$$
