PQK.pdb
     RDKit          3D

 26 26  0  0  1  0  0  0  0  0999 V2000
    4.2665  -19.3670   20.4248 N   0  0  0  0  0  0  0  0  0  0  0  0
    3.0252  -19.9519   20.9508 C   0  0  0  0  0  0  0  0  0  0  0  0
    3.2591  -19.7589   22.4512 C   0  0  0  0  0  0  0  0  0  0  0  0
    3.7472  -18.3179   22.4860 C   0  0  0  0  0  0  0  0  0  0  0  0
    4.2743  -18.0910   21.1109 C   0  0  1  0  0  0  0  0  0  0  0  0
    5.5873  -17.4290   21.0584 C   0  0  0  0  0  0  0  0  0  0  0  0
    6.6022  -18.1590   20.9143 O   0  0  0  0  0  0  0  0  0  0  0  0
    8.0868  -12.5855   18.4890 N   0  0  0  0  0  0  0  0  0  0  0  0
    8.6594  -13.0714   19.6961 C   0  0  0  0  0  0  0  0  0  0  0  0
    9.7929  -13.5694   19.6858 O   0  0  0  0  0  0  0  0  0  0  0  0
    7.8702  -12.9635   20.9383 C   0  0  0  0  0  0  0  0  0  0  0  0
    6.7351  -13.9081   21.0350 C   0  0  0  0  0  0  0  0  0  0  0  0
    7.0740  -15.3694   21.1948 C   0  0  2  0  0  0  0  0  0  0  0  0
    5.7631  -16.0462   21.1593 N   0  0  0  0  0  0  0  0  0  0  0  0
    7.7040  -15.6185   22.5093 C   0  0  0  0  0  0  0  0  0  0  0  0
    7.0473  -15.4707   23.5941 O   0  0  0  0  0  0  0  0  0  0  0  0
    9.0383  -16.0306   22.6283 N   0  0  0  0  0  0  0  0  0  0  0  0
    9.5881  -16.4055   23.9685 C   0  0  1  0  0  0  0  0  0  0  0  0
    9.8821  -17.8837   23.9470 C   0  0  0  0  0  0  0  0  0  0  0  0
   10.5067  -18.3257   25.2272 C   0  0  0  0  0  0  0  0  0  0  0  0
   10.7654  -19.8273   25.2658 C   0  0  0  0  0  0  0  0  0  0  0  0
   11.3728  -20.1647   26.6002 C   0  0  0  0  0  0  0  0  0  0  0  0
   11.4244  -21.6273   26.7230 N   0  0  0  0  0  0  0  0  0  0  0  0
   10.8215  -15.6484   24.2090 C   0  0  0  0  0  0  0  0  0  0  0  0
   11.2936  -15.3528   25.4622 O   0  0  0  0  0  0  0  0  0  0  0  0
   11.4927  -15.2371   23.2305 O   0  0  0  0  0  0  0  0  0  0  0  0
  1  2  1  0
  3  2  1  0
  4  3  1  0
  5  4  1  0
  5  1  1  0
  6 14  1  0
  5  6  1  1
  7  6  2  0
  8  9  1  0
  9 10  2  0
 11  9  1  0
 11 12  1  0
 13 12  1  1
 13 14  1  0
 15 17  1  0
 15 13  1  0
 16 15  2  0
 18 17  1  0
 18 24  1  0
 18 19  1  6
 20 19  1  0
 21 20  1  0
 22 21  1  0
 23 22  1  0
 24 25  1  0
 26 24  2  0
M  END
$$$$
