PQK.pdb
     RDKit          3D

 26 26  0  0  1  0  0  0  0  0999 V2000
    9.1687  -14.3874   17.9892 N   0  0  0  0  0  0  0  0  0  0  0  0
    8.8151  -13.3439   17.0168 C   0  0  0  0  0  0  0  0  0  0  0  0
    7.3343  -13.1583   17.3573 C   0  0  0  0  0  0  0  0  0  0  0  0
    7.3917  -13.0938   18.8767 C   0  0  0  0  0  0  0  0  0  0  0  0
    8.6610  -13.7987   19.2118 C   0  0  1  0  0  0  0  0  0  0  0  0
    8.5496  -14.7761   20.3061 C   0  0  0  0  0  0  0  0  0  0  0  0
    7.9843  -14.4016   21.3661 O   0  0  0  0  0  0  0  0  0  0  0  0
    6.1532  -20.0099   19.5862 N   0  0  0  0  0  0  0  0  0  0  0  0
    7.4390  -19.9291   20.1872 C   0  0  0  0  0  0  0  0  0  0  0  0
    7.7250  -20.6703   21.1368 O   0  0  0  0  0  0  0  0  0  0  0  0
    8.4026  -18.9493   19.6496 C   0  0  0  0  0  0  0  0  0  0  0  0
    9.3306  -18.3793   20.6516 C   0  0  0  0  0  0  0  0  0  0  0  0
    8.9172  -17.0854   21.3075 C   0  0  2  0  0  0  0  0  0  0  0  0
    9.0343  -16.0847   20.2293 N   0  0  0  0  0  0  0  0  0  0  0  0
    9.8549  -16.7279   22.3938 C   0  0  0  0  0  0  0  0  0  0  0  0
   11.0481  -16.3529   22.1384 O   0  0  0  0  0  0  0  0  0  0  0  0
    9.4822  -16.7771   23.7441 N   0  0  0  0  0  0  0  0  0  0  0  0
   10.4318  -16.3038   24.7992 C   0  0  1  0  0  0  0  0  0  0  0  0
    9.6154  -15.7111   25.9192 C   0  0  0  0  0  0  0  0  0  0  0  0
   10.4830  -15.3204   27.0676 C   0  0  0  0  0  0  0  0  0  0  0  0
    9.6826  -14.8123   28.2611 C   0  0  0  0  0  0  0  0  0  0  0  0
   10.6470  -14.4884   29.3693 C   0  0  0  0  0  0  0  0  0  0  0  0
    9.8855  -13.9115   30.4849 N   0  0  0  0  0  0  0  0  0  0  0  0
   11.2097  -17.4464   25.2908 C   0  0  0  0  0  0  0  0  0  0  0  0
   12.4831  -17.3349   25.7874 O   0  0  0  0  0  0  0  0  0  0  0  0
   10.7034  -18.5952   25.2605 O   0  0  0  0  0  0  0  0  0  0  0  0
  1  2  1  0
  3  2  1  0
  4  3  1  0
  5  4  1  0
  5  1  1  0
  6 14  1  0
  5  6  1  1
  7  6  2  0
  8  9  1  0
  9 10  2  0
 11  9  1  0
 11 12  1  0
 13 12  1  6
 13 14  1  0
 15 17  1  0
 15 13  1  0
 16 15  2  0
 18 17  1  0
 18 24  1  0
 18 19  1  1
 20 19  1  0
 21 20  1  0
 22 21  1  0
 23 22  1  0
 24 25  1  0
 26 24  2  0
M  END
$$$$
