PQK.pdb
     RDKit          3D

 26 26  0  0  1  0  0  0  0  0999 V2000
    7.2706  -15.0851   20.2598 N   0  0  0  0  0  0  0  0  0  0  0  0
    6.9509  -14.7052   18.8767 C   0  0  0  0  0  0  0  0  0  0  0  0
    7.3547  -13.2290   18.9097 C   0  0  0  0  0  0  0  0  0  0  0  0
    8.7037  -13.3126   19.6091 C   0  0  0  0  0  0  0  0  0  0  0  0
    8.6294  -14.5938   20.3663 C   0  0  1  0  0  0  0  0  0  0  0  0
    9.0927  -14.5104   21.7604 C   0  0  0  0  0  0  0  0  0  0  0  0
   10.3256  -14.3510   21.9557 O   0  0  0  0  0  0  0  0  0  0  0  0
    5.3168  -12.2526   25.9415 N   0  0  0  0  0  0  0  0  0  0  0  0
    6.4383  -12.4400   26.7948 C   0  0  0  0  0  0  0  0  0  0  0  0
    6.4205  -11.9877   27.9472 O   0  0  0  0  0  0  0  0  0  0  0  0
    7.6025  -13.1785   26.2686 C   0  0  0  0  0  0  0  0  0  0  0  0
    7.4963  -13.5695   24.8453 C   0  0  0  0  0  0  0  0  0  0  0  0
    8.6537  -14.3400   24.2602 C   0  0  2  0  0  0  0  0  0  0  0  0
    8.2431  -14.5982   22.8665 N   0  0  0  0  0  0  0  0  0  0  0  0
    8.8238  -15.6343   24.9549 C   0  0  0  0  0  0  0  0  0  0  0  0
    7.9393  -16.5508   24.8680 O   0  0  0  0  0  0  0  0  0  0  0  0
    9.9557  -15.9186   25.7311 N   0  0  0  0  0  0  0  0  0  0  0  0
   10.1115  -17.2677   26.3593 C   0  0  1  0  0  0  0  0  0  0  0  0
   11.3398  -17.9107   25.7676 C   0  0  0  0  0  0  0  0  0  0  0  0
   11.5723  -19.2631   26.3519 C   0  0  0  0  0  0  0  0  0  0  0  0
   12.8400  -19.9215   25.8203 C   0  0  0  0  0  0  0  0  0  0  0  0
   12.9868  -21.2626   26.4860 C   0  0  0  0  0  0  0  0  0  0  0  0
   14.1209  -21.9599   25.8657 N   0  0  0  0  0  0  0  0  0  0  0  0
   10.2744  -17.1053   27.8082 C   0  0  0  0  0  0  0  0  0  0  0  0
   10.1367  -18.1350   28.7035 O   0  0  0  0  0  0  0  0  0  0  0  0
   10.5503  -15.9722   28.2740 O   0  0  0  0  0  0  0  0  0  0  0  0
  1  2  1  0
  3  2  1  0
  4  3  1  0
  5  4  1  0
  5  1  1  0
  6 14  1  0
  5  6  1  1
  7  6  2  0
  8  9  1  0
  9 10  2  0
 11  9  1  0
 11 12  1  0
 13 12  1  1
 13 14  1  0
 15 17  1  0
 15 13  1  0
 16 15  2  0
 18 17  1  0
 18 24  1  0
 18 19  1  6
 20 19  1  0
 21 20  1  0
 22 21  1  0
 23 22  1  0
 24 25  1  0
 26 24  2  0
M  END
$$$$
