PQK.pdb
     RDKit          3D

 26 26  0  0  1  0  0  0  0  0999 V2000
    9.4374  -14.8638   17.9075 N   0  0  0  0  0  0  0  0  0  0  0  0
    9.2304  -14.0269   16.7174 C   0  0  0  0  0  0  0  0  0  0  0  0
    7.7237  -13.7805   16.8283 C   0  0  0  0  0  0  0  0  0  0  0  0
    7.5954  -13.4251   18.3024 C   0  0  0  0  0  0  0  0  0  0  0  0
    8.7970  -14.0515   18.9220 C   0  0  1  0  0  0  0  0  0  0  0  0
    8.5293  -14.8005   20.1599 C   0  0  0  0  0  0  0  0  0  0  0  0
    7.8601  -14.2239   21.0562 O   0  0  0  0  0  0  0  0  0  0  0  0
   11.5157  -20.1260   21.3358 N   0  0  0  0  0  0  0  0  0  0  0  0
   10.8334  -19.9924   22.5758 C   0  0  0  0  0  0  0  0  0  0  0  0
   11.0452  -20.8022   23.4882 O   0  0  0  0  0  0  0  0  0  0  0  0
    9.8818  -18.8758   22.7343 C   0  0  0  0  0  0  0  0  0  0  0  0
    9.8038  -17.9591   21.5752 C   0  0  0  0  0  0  0  0  0  0  0  0
    8.7930  -16.8422   21.6542 C   0  0  2  0  0  0  0  0  0  0  0  0
    8.9752  -16.1051   20.3888 N   0  0  0  0  0  0  0  0  0  0  0  0
    9.1021  -15.9371   22.7821 C   0  0  0  0  0  0  0  0  0  0  0  0
   10.1792  -15.2521   22.8021 O   0  0  0  0  0  0  0  0  0  0  0  0
    8.2341  -15.7835   23.8718 N   0  0  0  0  0  0  0  0  0  0  0  0
    8.4537  -14.6742   24.8517 C   0  0  1  0  0  0  0  0  0  0  0  0
    7.1209  -14.0193   25.1101 C   0  0  0  0  0  0  0  0  0  0  0  0
    7.2270  -12.9919   26.1861 C   0  0  0  0  0  0  0  0  0  0  0  0
    5.8821  -12.3632   26.5313 C   0  0  0  0  0  0  0  0  0  0  0  0
    6.1024  -11.3562   27.6271 C   0  0  0  0  0  0  0  0  0  0  0  0
    4.7957  -10.8106   28.0168 N   0  0  0  0  0  0  0  0  0  0  0  0
    8.9912  -15.2344   26.0965 C   0  0  0  0  0  0  0  0  0  0  0  0
    9.1191  -16.5806   26.3252 O   0  0  0  0  0  0  0  0  0  0  0  0
    9.3553  -14.4587   27.0145 O   0  0  0  0  0  0  0  0  0  0  0  0
  1  2  1  0
  3  2  1  0
  4  3  1  0
  5  4  1  0
  5  1  1  0
  6 14  1  0
  5  6  1  1
  7  6  2  0
  8  9  1  0
  9 10  2  0
 11  9  1  0
 11 12  1  0
 13 12  1  6
 13 14  1  0
 15 17  1  0
 15 13  1  0
 16 15  2  0
 18 17  1  0
 18 24  1  0
 18 19  1  1
 20 19  1  0
 21 20  1  0
 22 21  1  0
 23 22  1  0
 24 25  1  0
 26 24  2  0
M  END
$$$$
