PQK.pdb
     RDKit          3D

 26 26  0  0  1  0  0  0  0  0999 V2000
    9.0681  -14.1922   18.1687 N   0  0  0  0  0  0  0  0  0  0  0  0
    8.4048  -13.1689   17.3486 C   0  0  0  0  0  0  0  0  0  0  0  0
    6.9546  -13.3753   17.7930 C   0  0  0  0  0  0  0  0  0  0  0  0
    7.1222  -13.4540   19.3035 C   0  0  0  0  0  0  0  0  0  0  0  0
    8.5427  -13.8683   19.4795 C   0  0  1  0  0  0  0  0  0  0  0  0
    8.7500  -14.9503   20.4548 C   0  0  0  0  0  0  0  0  0  0  0  0
    8.1909  -14.8382   21.5766 O   0  0  0  0  0  0  0  0  0  0  0  0
   10.7900  -20.4676   18.8759 N   0  0  0  0  0  0  0  0  0  0  0  0
   11.0657  -20.6075   20.2636 C   0  0  0  0  0  0  0  0  0  0  0  0
   11.3688  -21.7159   20.7247 O   0  0  0  0  0  0  0  0  0  0  0  0
   10.9795  -19.4080   21.1188 C   0  0  0  0  0  0  0  0  0  0  0  0
   10.6003  -18.1666   20.4082 C   0  0  0  0  0  0  0  0  0  0  0  0
    9.7625  -17.1711   21.1715 C   0  0  2  0  0  0  0  0  0  0  0  0
    9.5275  -16.0838   20.2019 N   0  0  0  0  0  0  0  0  0  0  0  0
   10.5159  -16.6289   22.3228 C   0  0  0  0  0  0  0  0  0  0  0  0
   11.4726  -15.8006   22.1540 O   0  0  0  0  0  0  0  0  0  0  0  0
   10.2165  -16.9893   23.6437 N   0  0  0  0  0  0  0  0  0  0  0  0
   10.9756  -16.3736   24.7768 C   0  0  1  0  0  0  0  0  0  0  0  0
    9.9712  -15.8303   25.7607 C   0  0  0  0  0  0  0  0  0  0  0  0
   10.6466  -15.3018   26.9809 C   0  0  0  0  0  0  0  0  0  0  0  0
    9.6657  -14.6980   27.9792 C   0  0  0  0  0  0  0  0  0  0  0  0
   10.4549  -14.1264   29.1254 C   0  0  0  0  0  0  0  0  0  0  0  0
    9.5070  -13.6114   30.1221 N   0  0  0  0  0  0  0  0  0  0  0  0
   11.8021  -17.4040   25.4153 C   0  0  0  0  0  0  0  0  0  0  0  0
   12.9704  -17.1302   26.0792 O   0  0  0  0  0  0  0  0  0  0  0  0
   11.4411  -18.6055   25.3594 O   0  0  0  0  0  0  0  0  0  0  0  0
  1  2  1  0
  3  2  1  0
  4  3  1  0
  5  4  1  0
  5  1  1  0
  6 14  1  0
  5  6  1  1
  7  6  2  0
  8  9  1  0
  9 10  2  0
 11  9  1  0
 11 12  1  0
 13 12  1  6
 13 14  1  0
 15 17  1  0
 15 13  1  0
 16 15  2  0
 18 17  1  0
 18 24  1  0
 18 19  1  1
 20 19  1  0
 21 20  1  0
 22 21  1  0
 23 22  1  0
 24 25  1  0
 26 24  2  0
M  END
$$$$
