PQK.pdb
     RDKit          3D

 26 26  0  0  1  0  0  0  0  0999 V2000
    8.2799  -19.8803   19.2885 N   0  0  0  0  0  0  0  0  0  0  0  0
    7.1714  -20.8450   19.2793 C   0  0  0  0  0  0  0  0  0  0  0  0
    6.0315  -19.9399   19.7533 C   0  0  0  0  0  0  0  0  0  0  0  0
    6.2584  -18.7095   18.8870 C   0  0  0  0  0  0  0  0  0  0  0  0
    7.7001  -18.7970   18.5208 C   0  0  1  0  0  0  0  0  0  0  0  0
    8.4476  -17.5380   18.6659 C   0  0  0  0  0  0  0  0  0  0  0  0
    9.5521  -17.4446   18.0701 O   0  0  0  0  0  0  0  0  0  0  0  0
    8.9615  -12.7370   17.5257 N   0  0  0  0  0  0  0  0  0  0  0  0
    8.9691  -12.1289   18.8107 C   0  0  0  0  0  0  0  0  0  0  0  0
    9.6437  -11.1096   19.0081 O   0  0  0  0  0  0  0  0  0  0  0  0
    8.1600  -12.7437   19.8808 C   0  0  0  0  0  0  0  0  0  0  0  0
    7.7097  -14.1252   19.6007 C   0  0  0  0  0  0  0  0  0  0  0  0
    8.7609  -15.2065   19.6338 C   0  0  2  0  0  0  0  0  0  0  0  0
    7.9989  -16.4525   19.4232 N   0  0  0  0  0  0  0  0  0  0  0  0
    9.4101  -15.2631   20.9613 C   0  0  0  0  0  0  0  0  0  0  0  0
    8.7290  -15.4752   22.0201 O   0  0  0  0  0  0  0  0  0  0  0  0
   10.7922  -15.0940   21.1211 N   0  0  0  0  0  0  0  0  0  0  0  0
   11.4798  -15.6568   22.3251 C   0  0  1  0  0  0  0  0  0  0  0  0
   11.2803  -17.1509   22.3112 C   0  0  0  0  0  0  0  0  0  0  0  0
   11.9690  -17.7953   23.4666 C   0  0  0  0  0  0  0  0  0  0  0  0
   11.7327  -19.2999   23.5252 C   0  0  0  0  0  0  0  0  0  0  0  0
   12.3913  -19.8303   24.7695 C   0  0  0  0  0  0  0  0  0  0  0  0
   12.0955  -21.2655   24.8678 N   0  0  0  0  0  0  0  0  0  0  0  0
   12.9098  -15.3372   22.2529 C   0  0  0  0  0  0  0  0  0  0  0  0
   13.4674  -14.5946   21.2438 O   0  0  0  0  0  0  0  0  0  0  0  0
   13.6814  -15.7591   23.1494 O   0  0  0  0  0  0  0  0  0  0  0  0
  1  2  1  0
  3  2  1  0
  4  3  1  0
  5  4  1  0
  5  1  1  0
  6 14  1  0
  5  6  1  1
  7  6  2  0
  8  9  1  0
  9 10  2  0
 11  9  1  0
 11 12  1  0
 13 12  1  1
 13 14  1  0
 15 17  1  0
 15 13  1  0
 16 15  2  0
 18 17  1  0
 18 24  1  0
 18 19  1  6
 20 19  1  0
 21 20  1  0
 22 21  1  0
 23 22  1  0
 24 25  1  0
 26 24  2  0
M  END
$$$$
