YIV.pdb
     RDKit          3D

 28 28  0  0  1  0  0  0  0  0999 V2000
    7.9863  -20.4560   27.8988 O   0  0  0  0  0  0  0  0  0  0  0  0
    7.7280  -19.9369   26.6463 C   0  0  0  0  0  0  0  0  0  0  0  0
    6.8898  -18.8268   26.5396 C   0  0  0  0  0  0  0  0  0  0  0  0
    6.6670  -18.3508   25.2647 C   0  0  0  0  0  0  0  0  0  0  0  0
    7.2317  -18.9257   24.1456 C   0  0  0  0  0  0  0  0  0  0  0  0
    6.9445  -18.3578   22.8157 C   0  0  0  0  0  0  0  0  0  0  0  0
    6.3130  -16.9842   22.9135 C   0  0  2  0  0  0  0  0  0  0  0  0
    6.1332  -16.5063   21.5550 N   0  0  0  0  0  0  0  0  0  0  0  0
    7.2755  -16.1058   23.6594 C   0  0  0  0  0  0  0  0  0  0  0  0
    8.4317  -15.9472   23.1740 O   0  0  0  0  0  0  0  0  0  0  0  0
    8.0558  -20.0196   24.2674 C   0  0  0  0  0  0  0  0  0  0  0  0
    8.2944  -20.5165   25.5440 C   0  0  0  0  0  0  0  0  0  0  0  0
    5.9517  -11.4708   25.7920 C   0  0  0  0  0  0  0  0  0  0  0  0
    6.6836  -12.6230   25.0789 C   0  0  0  0  0  0  0  0  0  0  0  0
    7.2379  -13.4900   26.1501 C   0  0  2  0  0  0  0  0  0  0  0  0
    8.1823  -12.7793   27.0813 C   0  0  0  0  0  0  0  0  0  0  0  0
    7.9363  -14.6986   25.5675 C   0  0  2  0  0  0  0  0  0  0  0  0
    6.9164  -15.4665   24.8712 N   0  0  0  0  0  0  0  0  0  0  0  0
    8.6665  -15.5152   26.5411 C   0  0  0  0  0  0  0  0  0  0  0  0
    8.0949  -15.9984   27.5428 O   0  0  0  0  0  0  0  0  0  0  0  0
   11.6945  -17.9903   25.3567 C   0  0  0  0  0  0  0  0  0  0  0  0
   12.0064  -17.2872   26.6567 C   0  0  2  0  0  0  0  0  0  0  0  0
   12.6008  -18.2945   27.6092 C   0  0  0  0  0  0  0  0  0  0  0  0
   10.7544  -16.7325   27.2692 C   0  0  2  0  0  0  0  0  0  0  0  0
   10.0584  -15.8112   26.4161 N   0  0  0  0  0  0  0  0  0  0  0  0
   10.9929  -16.1808   28.6263 C   0  0  0  0  0  0  0  0  0  0  0  0
   11.0191  -16.9547   29.7646 O   0  0  0  0  0  0  0  0  0  0  0  0
   11.1838  -14.9386   28.7632 O   0  0  0  0  0  0  0  0  0  0  0  0
  2 12  2  0
  2  1  1  0
  3  2  1  0
  4  5  1  0
  4  3  2  0
  5 11  2  0
  6  5  1  0
  7  6  1  0
  7  8  1  6
  9 18  1  0
  9  7  1  0
 10  9  2  0
 11 12  1  0
 13 14  1  0
 15 16  1  6
 15 14  1  0
 17 18  1  1
 17 15  1  0
 19 17  1  0
 20 19  2  0
 22 21  1  6
 22 24  1  0
 23 22  1  0
 24 26  1  0
 24 25  1  6
 25 19  1  0
 26 27  1  0
 28 26  2  0
M  END
$$$$
