YIV.pdb
     RDKit          3D

 28 28  0  0  1  0  0  0  0  0999 V2000
    3.5848  -19.9379   18.3953 O   0  0  0  0  0  0  0  0  0  0  0  0
    4.4788  -19.2531   19.1933 C   0  0  0  0  0  0  0  0  0  0  0  0
    4.0931  -18.9063   20.4885 C   0  0  0  0  0  0  0  0  0  0  0  0
    5.0257  -18.2234   21.2405 C   0  0  0  0  0  0  0  0  0  0  0  0
    6.2745  -17.8928   20.7577 C   0  0  0  0  0  0  0  0  0  0  0  0
    7.2163  -17.1610   21.6244 C   0  0  0  0  0  0  0  0  0  0  0  0
    6.8952  -15.6816   21.6835 C   0  0  2  0  0  0  0  0  0  0  0  0
    7.2678  -15.1187   20.3988 N   0  0  0  0  0  0  0  0  0  0  0  0
    7.7309  -15.0900   22.7817 C   0  0  0  0  0  0  0  0  0  0  0  0
    8.9483  -14.8526   22.5380 O   0  0  0  0  0  0  0  0  0  0  0  0
    6.6396  -18.2418   19.4789 C   0  0  0  0  0  0  0  0  0  0  0  0
    5.7146  -18.9310   18.7024 C   0  0  0  0  0  0  0  0  0  0  0  0
    5.6503  -11.6969   26.1977 C   0  0  0  0  0  0  0  0  0  0  0  0
    6.6751  -12.3481   25.2505 C   0  0  0  0  0  0  0  0  0  0  0  0
    7.3016  -13.4573   26.0145 C   0  0  2  0  0  0  0  0  0  0  0  0
    8.1830  -12.9972   27.1439 C   0  0  0  0  0  0  0  0  0  0  0  0
    8.0995  -14.3647   25.1045 C   0  0  2  0  0  0  0  0  0  0  0  0
    7.1889  -14.8004   24.0578 N   0  0  0  0  0  0  0  0  0  0  0  0
    8.7430  -15.4971   25.7763 C   0  0  0  0  0  0  0  0  0  0  0  0
    8.0730  -16.3486   26.4006 O   0  0  0  0  0  0  0  0  0  0  0  0
   11.9599  -17.3631   24.1454 C   0  0  0  0  0  0  0  0  0  0  0  0
   12.1167  -17.1776   25.6363 C   0  0  2  0  0  0  0  0  0  0  0  0
   12.6588  -18.4591   26.2186 C   0  0  0  0  0  0  0  0  0  0  0  0
   10.7900  -16.8876   26.2735 C   0  0  2  0  0  0  0  0  0  0  0  0
   10.1564  -15.7040   25.7652 N   0  0  0  0  0  0  0  0  0  0  0  0
   10.8674  -16.8986   27.7557 C   0  0  0  0  0  0  0  0  0  0  0  0
   10.7602  -18.0446   28.5112 O   0  0  0  0  0  0  0  0  0  0  0  0
   11.0404  -15.8091   28.3731 O   0  0  0  0  0  0  0  0  0  0  0  0
  2 12  2  0
  2  1  1  0
  3  2  1  0
  4  5  1  0
  4  3  2  0
  5 11  2  0
  6  5  1  0
  7  6  1  0
  7  8  1  6
  9 18  1  0
  9  7  1  0
 10  9  2  0
 11 12  1  0
 13 14  1  0
 15 16  1  1
 15 14  1  0
 17 18  1  6
 17 15  1  0
 19 17  1  0
 20 19  2  0
 22 21  1  6
 22 24  1  0
 23 22  1  0
 24 26  1  0
 24 25  1  6
 25 19  1  0
 26 27  1  0
 28 26  2  0
M  END
$$$$
