YIV.pdb
     RDKit          3D

 28 28  0  0  1  0  0  0  0  0999 V2000
    3.2997  -19.8622   18.6771 O   0  0  0  0  0  0  0  0  0  0  0  0
    4.2206  -19.3055   19.5413 C   0  0  0  0  0  0  0  0  0  0  0  0
    3.7943  -18.9003   20.8064 C   0  0  0  0  0  0  0  0  0  0  0  0
    4.7564  -18.3512   21.6276 C   0  0  0  0  0  0  0  0  0  0  0  0
    6.0711  -18.2023   21.2388 C   0  0  0  0  0  0  0  0  0  0  0  0
    7.0408  -17.6054   22.1751 C   0  0  0  0  0  0  0  0  0  0  0  0
    7.3535  -16.1658   21.8215 C   0  0  2  0  0  0  0  0  0  0  0  0
    8.1428  -16.1937   20.6040 N   0  0  0  0  0  0  0  0  0  0  0  0
    8.1532  -15.5940   22.9565 C   0  0  0  0  0  0  0  0  0  0  0  0
    9.4047  -15.7710   22.9481 O   0  0  0  0  0  0  0  0  0  0  0  0
    6.4756  -18.6066   19.9884 C   0  0  0  0  0  0  0  0  0  0  0  0
    5.5219  -19.1633   19.1434 C   0  0  0  0  0  0  0  0  0  0  0  0
    7.6117  -11.4211   27.3267 C   0  0  0  0  0  0  0  0  0  0  0  0
    8.4751  -12.5599   26.7529 C   0  0  0  0  0  0  0  0  0  0  0  0
    7.6296  -13.2592   25.7517 C   0  0  2  0  0  0  0  0  0  0  0  0
    6.3414  -13.7981   26.3123 C   0  0  0  0  0  0  0  0  0  0  0  0
    8.3887  -14.3870   25.0883 C   0  0  2  0  0  0  0  0  0  0  0  0
    7.5411  -14.8757   24.0126 N   0  0  0  0  0  0  0  0  0  0  0  0
    8.8021  -15.4644   25.9917 C   0  0  0  0  0  0  0  0  0  0  0  0
    7.9788  -16.2981   26.4287 O   0  0  0  0  0  0  0  0  0  0  0  0
   11.4326  -17.8971   24.9849 C   0  0  0  0  0  0  0  0  0  0  0  0
   11.8133  -17.4421   26.3740 C   0  0  2  0  0  0  0  0  0  0  0  0
   12.2574  -18.6489   27.1625 C   0  0  0  0  0  0  0  0  0  0  0  0
   10.6348  -16.8259   27.0680 C   0  0  2  0  0  0  0  0  0  0  0  0
   10.1514  -15.6349   26.4287 N   0  0  0  0  0  0  0  0  0  0  0  0
   10.8791  -16.6325   28.5192 C   0  0  0  0  0  0  0  0  0  0  0  0
   10.7341  -17.6349   29.4518 O   0  0  0  0  0  0  0  0  0  0  0  0
   11.2393  -15.4957   28.9387 O   0  0  0  0  0  0  0  0  0  0  0  0
  2 12  2  0
  2  1  1  0
  3  2  1  0
  4  5  1  0
  4  3  2  0
  5 11  2  0
  6  5  1  0
  7  6  1  0
  7  8  1  6
  9 18  1  0
  9  7  1  0
 10  9  2  0
 11 12  1  0
 13 14  1  0
 15 16  1  1
 15 14  1  0
 17 18  1  6
 17 15  1  0
 19 17  1  0
 20 19  2  0
 22 21  1  6
 22 24  1  0
 23 22  1  0
 24 26  1  0
 24 25  1  6
 25 19  1  0
 26 27  1  0
 28 26  2  0
M  END
$$$$
