YIV.pdb
     RDKit          3D

 28 28  0  0  1  0  0  0  0  0999 V2000
    7.5275  -14.2703   15.5532 O   0  0  0  0  0  0  0  0  0  0  0  0
    7.9029  -14.1863   16.8787 C   0  0  0  0  0  0  0  0  0  0  0  0
    8.7056  -15.1939   17.4141 C   0  0  0  0  0  0  0  0  0  0  0  0
    9.0499  -15.0585   18.7426 C   0  0  0  0  0  0  0  0  0  0  0  0
    8.6342  -13.9945   19.5151 C   0  0  0  0  0  0  0  0  0  0  0  0
    9.0448  -13.9213   20.9292 C   0  0  0  0  0  0  0  0  0  0  0  0
    8.5563  -15.1171   21.7209 C   0  0  2  0  0  0  0  0  0  0  0  0
    7.1103  -15.1395   21.5996 N   0  0  0  0  0  0  0  0  0  0  0  0
    8.9631  -14.8991   23.1497 C   0  0  0  0  0  0  0  0  0  0  0  0
   10.1880  -14.7052   23.3943 O   0  0  0  0  0  0  0  0  0  0  0  0
    7.8432  -13.0093   18.9726 C   0  0  0  0  0  0  0  0  0  0  0  0
    7.4838  -13.1255   17.6344 C   0  0  0  0  0  0  0  0  0  0  0  0
    6.2328  -11.8364   26.2746 C   0  0  0  0  0  0  0  0  0  0  0  0
    7.2690  -12.6513   25.4785 C   0  0  0  0  0  0  0  0  0  0  0  0
    7.5561  -13.8632   26.2879 C   0  0  2  0  0  0  0  0  0  0  0  0
    8.1024  -13.5653   27.6579 C   0  0  0  0  0  0  0  0  0  0  0  0
    8.5114  -14.7879   25.5665 C   0  0  2  0  0  0  0  0  0  0  0  0
    8.0174  -14.9072   24.2040 N   0  0  0  0  0  0  0  0  0  0  0  0
    8.6946  -16.0973   26.1987 C   0  0  0  0  0  0  0  0  0  0  0  0
    7.7160  -16.8041   26.5250 O   0  0  0  0  0  0  0  0  0  0  0  0
   12.6052  -18.0877   26.5855 C   0  0  0  0  0  0  0  0  0  0  0  0
   11.2594  -18.7435   26.3847 C   0  0  2  0  0  0  0  0  0  0  0  0
   10.9703  -18.7881   24.9049 C   0  0  0  0  0  0  0  0  0  0  0  0
   10.1802  -17.9482   27.0579 C   0  0  2  0  0  0  0  0  0  0  0  0
    9.9818  -16.6485   26.4817 N   0  0  0  0  0  0  0  0  0  0  0  0
   10.3604  -17.8954   28.5302 C   0  0  0  0  0  0  0  0  0  0  0  0
   10.5800  -16.7272   29.2249 O   0  0  0  0  0  0  0  0  0  0  0  0
   10.3129  -18.9683   29.1971 O   0  0  0  0  0  0  0  0  0  0  0  0
  2 12  2  0
  2  1  1  0
  3  2  1  0
  4  5  1  0
  4  3  2  0
  5 11  2  0
  6  5  1  0
  7  6  1  0
  7  8  1  1
  9 18  1  0
  9  7  1  0
 10  9  2  0
 11 12  1  0
 13 14  1  0
 15 16  1  1
 15 14  1  0
 17 18  1  6
 17 15  1  0
 19 17  1  0
 20 19  2  0
 22 21  1  6
 22 24  1  0
 23 22  1  0
 24 26  1  0
 24 25  1  6
 25 19  1  0
 26 27  1  0
 28 26  2  0
M  END
$$$$
