YIV.pdb
     RDKit          3D

 28 28  0  0  1  0  0  0  0  0999 V2000
    6.9032  -12.4910   17.7595 O   0  0  0  0  0  0  0  0  0  0  0  0
    7.6232  -13.4382   18.4591 C   0  0  0  0  0  0  0  0  0  0  0  0
    8.6781  -13.0163   19.2688 C   0  0  0  0  0  0  0  0  0  0  0  0
    9.3621  -14.0051   19.9441 C   0  0  0  0  0  0  0  0  0  0  0  0
    9.0373  -15.3411   19.8382 C   0  0  0  0  0  0  0  0  0  0  0  0
    9.8175  -16.3389   20.5927 C   0  0  0  0  0  0  0  0  0  0  0  0
    9.0458  -16.8777   21.7800 C   0  0  2  0  0  0  0  0  0  0  0  0
    7.6405  -16.8414   21.4197 N   0  0  0  0  0  0  0  0  0  0  0  0
    9.3180  -15.9619   22.9383 C   0  0  0  0  0  0  0  0  0  0  0  0
   10.5036  -15.5582   23.1090 O   0  0  0  0  0  0  0  0  0  0  0  0
    7.9947  -15.7410   19.0359 C   0  0  0  0  0  0  0  0  0  0  0  0
    7.2908  -14.7605   18.3454 C   0  0  0  0  0  0  0  0  0  0  0  0
    5.7757  -12.3528   25.0280 C   0  0  0  0  0  0  0  0  0  0  0  0
    6.9821  -13.0982   24.4276 C   0  0  0  0  0  0  0  0  0  0  0  0
    7.4326  -14.0630   25.4633 C   0  0  2  0  0  0  0  0  0  0  0  0
    7.6986  -13.4361   26.8051 C   0  0  0  0  0  0  0  0  0  0  0  0
    8.6694  -14.8088   25.0136 C   0  0  2  0  0  0  0  0  0  0  0  0
    8.2904  -15.5524   23.8228 N   0  0  0  0  0  0  0  0  0  0  0  0
    9.2689  -15.6753   26.0322 C   0  0  0  0  0  0  0  0  0  0  0  0
    8.8937  -16.8588   26.1813 O   0  0  0  0  0  0  0  0  0  0  0  0
   10.9685  -13.8292   29.2585 C   0  0  0  0  0  0  0  0  0  0  0  0
   10.5179  -15.2675   29.3574 C   0  0  2  0  0  0  0  0  0  0  0  0
   11.3360  -15.9477   30.4266 C   0  0  0  0  0  0  0  0  0  0  0  0
   10.7441  -15.9810   28.0574 C   0  0  2  0  0  0  0  0  0  0  0  0
   10.3061  -15.2363   26.9109 N   0  0  0  0  0  0  0  0  0  0  0  0
   10.2040  -17.3634   28.0770 C   0  0  0  0  0  0  0  0  0  0  0  0
   10.9990  -18.4866   28.1225 O   0  0  0  0  0  0  0  0  0  0  0  0
    8.9522  -17.5378   28.0511 O   0  0  0  0  0  0  0  0  0  0  0  0
  2 12  2  0
  2  1  1  0
  3  2  1  0
  4  5  1  0
  4  3  2  0
  5 11  2  0
  6  5  1  0
  7  6  1  0
  7  8  1  6
  9 18  1  0
  9  7  1  0
 10  9  2  0
 11 12  1  0
 13 14  1  0
 15 16  1  1
 15 14  1  0
 17 18  1  6
 17 15  1  0
 19 17  1  0
 20 19  2  0
 22 21  1  6
 22 24  1  0
 23 22  1  0
 24 26  1  0
 24 25  1  6
 25 19  1  0
 26 27  1  0
 28 26  2  0
M  END
$$$$
