YIV.pdb
     RDKit          3D

 28 28  0  0  1  0  0  0  0  0999 V2000
    5.3042  -19.2184   16.5529 O   0  0  0  0  0  0  0  0  0  0  0  0
    5.9606  -18.7175   17.6588 C   0  0  0  0  0  0  0  0  0  0  0  0
    5.2546  -18.5834   18.8547 C   0  0  0  0  0  0  0  0  0  0  0  0
    5.9602  -18.0780   19.9263 C   0  0  0  0  0  0  0  0  0  0  0  0
    7.2891  -17.7196   19.8410 C   0  0  0  0  0  0  0  0  0  0  0  0
    7.9740  -17.1861   21.0326 C   0  0  0  0  0  0  0  0  0  0  0  0
    8.1044  -15.6776   20.9801 C   0  0  2  0  0  0  0  0  0  0  0  0
    9.0755  -15.3752   19.9450 N   0  0  0  0  0  0  0  0  0  0  0  0
    8.6059  -15.2290   22.3224 C   0  0  0  0  0  0  0  0  0  0  0  0
    9.8527  -15.2557   22.5285 O   0  0  0  0  0  0  0  0  0  0  0  0
    7.9710  -17.8578   18.6551 C   0  0  0  0  0  0  0  0  0  0  0  0
    7.2791  -18.3656   17.5610 C   0  0  0  0  0  0  0  0  0  0  0  0
    6.8233  -11.7904   26.9669 C   0  0  0  0  0  0  0  0  0  0  0  0
    7.8451  -12.8430   26.4983 C   0  0  0  0  0  0  0  0  0  0  0  0
    7.3335  -13.3742   25.2088 C   0  0  2  0  0  0  0  0  0  0  0  0
    5.9708  -14.0044   25.3074 C   0  0  0  0  0  0  0  0  0  0  0  0
    8.2972  -14.3744   24.6096 C   0  0  2  0  0  0  0  0  0  0  0  0
    7.7240  -14.7863   23.3383 N   0  0  0  0  0  0  0  0  0  0  0  0
    8.6053  -15.5214   25.4682 C   0  0  0  0  0  0  0  0  0  0  0  0
    7.7175  -16.3309   25.8148 O   0  0  0  0  0  0  0  0  0  0  0  0
   11.6610  -17.8059   24.7280 C   0  0  0  0  0  0  0  0  0  0  0  0
   11.6280  -17.5357   26.2138 C   0  0  2  0  0  0  0  0  0  0  0  0
   11.8758  -18.8359   26.9372 C   0  0  0  0  0  0  0  0  0  0  0  0
   10.2843  -17.0101   26.6241 C   0  0  2  0  0  0  0  0  0  0  0  0
    9.9189  -15.7905   25.9609 N   0  0  0  0  0  0  0  0  0  0  0  0
   10.1465  -16.9180   28.0990 C   0  0  0  0  0  0  0  0  0  0  0  0
    9.7232  -17.9646   28.8870 O   0  0  0  0  0  0  0  0  0  0  0  0
   10.4279  -15.8304   28.6788 O   0  0  0  0  0  0  0  0  0  0  0  0
  2 12  2  0
  2  1  1  0
  3  2  1  0
  4  5  1  0
  4  3  2  0
  5 11  2  0
  6  5  1  0
  7  6  1  0
  7  8  1  6
  9 18  1  0
  9  7  1  0
 10  9  2  0
 11 12  1  0
 13 14  1  0
 15 16  1  1
 15 14  1  0
 17 18  1  6
 17 15  1  0
 19 17  1  0
 20 19  2  0
 22 21  1  6
 22 24  1  0
 23 22  1  0
 24 26  1  0
 24 25  1  6
 25 19  1  0
 26 27  1  0
 28 26  2  0
M  END
$$$$
