YIV.pdb
     RDKit          3D

 28 28  0  0  1  0  0  0  0  0999 V2000
    5.4293  -19.2727   17.2002 O   0  0  0  0  0  0  0  0  0  0  0  0
    6.0974  -18.7442   18.2862 C   0  0  0  0  0  0  0  0  0  0  0  0
    5.5393  -18.8949   19.5559 C   0  0  0  0  0  0  0  0  0  0  0  0
    6.2495  -18.3473   20.6035 C   0  0  0  0  0  0  0  0  0  0  0  0
    7.4457  -17.6844   20.4266 C   0  0  0  0  0  0  0  0  0  0  0  0
    8.1452  -17.1262   21.5982 C   0  0  0  0  0  0  0  0  0  0  0  0
    8.0457  -15.6152   21.6473 C   0  0  2  0  0  0  0  0  0  0  0  0
    8.8348  -15.1056   20.5411 N   0  0  0  0  0  0  0  0  0  0  0  0
    8.6289  -15.1749   22.9590 C   0  0  0  0  0  0  0  0  0  0  0  0
    9.8865  -15.0848   23.0482 O   0  0  0  0  0  0  0  0  0  0  0  0
    7.9827  -17.5441   19.1687 C   0  0  0  0  0  0  0  0  0  0  0  0
    7.2834  -18.0887   18.0973 C   0  0  0  0  0  0  0  0  0  0  0  0
    5.8503  -11.8056   25.9507 C   0  0  0  0  0  0  0  0  0  0  0  0
    7.0095  -12.4767   25.1908 C   0  0  0  0  0  0  0  0  0  0  0  0
    7.4806  -13.5921   26.0513 C   0  0  2  0  0  0  0  0  0  0  0  0
    8.1030  -13.1421   27.3452 C   0  0  0  0  0  0  0  0  0  0  0  0
    8.4623  -14.4745   25.3125 C   0  0  2  0  0  0  0  0  0  0  0  0
    7.8105  -14.8659   24.0729 N   0  0  0  0  0  0  0  0  0  0  0  0
    8.9370  -15.6350   26.0712 C   0  0  0  0  0  0  0  0  0  0  0  0
    8.1385  -16.4723   26.5456 O   0  0  0  0  0  0  0  0  0  0  0  0
   12.2470  -17.7083   25.0573 C   0  0  0  0  0  0  0  0  0  0  0  0
   12.1969  -17.4557   26.5457 C   0  0  2  0  0  0  0  0  0  0  0  0
   12.5768  -18.7312   27.2556 C   0  0  0  0  0  0  0  0  0  0  0  0
   10.8103  -17.0695   26.9681 C   0  0  2  0  0  0  0  0  0  0  0  0
   10.3214  -15.8867   26.3177 N   0  0  0  0  0  0  0  0  0  0  0  0
   10.6737  -17.0035   28.4446 C   0  0  0  0  0  0  0  0  0  0  0  0
   10.4261  -18.1052   29.2323 O   0  0  0  0  0  0  0  0  0  0  0  0
   10.7875  -15.8867   29.0260 O   0  0  0  0  0  0  0  0  0  0  0  0
  2 12  2  0
  2  1  1  0
  3  2  1  0
  4  5  1  0
  4  3  2  0
  5 11  2  0
  6  5  1  0
  7  6  1  0
  7  8  1  6
  9 18  1  0
  9  7  1  0
 10  9  2  0
 11 12  1  0
 13 14  1  0
 15 16  1  1
 15 14  1  0
 17 18  1  6
 17 15  1  0
 19 17  1  0
 20 19  2  0
 22 21  1  6
 22 24  1  0
 23 22  1  0
 24 26  1  0
 24 25  1  6
 25 19  1  0
 26 27  1  0
 28 26  2  0
M  END
$$$$
