YIV.pdb
     RDKit          3D

 28 28  0  0  1  0  0  0  0  0999 V2000
   13.8842  -22.9010   18.8377 O   0  0  0  0  0  0  0  0  0  0  0  0
   13.5625  -21.7957   19.5990 C   0  0  0  0  0  0  0  0  0  0  0  0
   13.2462  -21.9772   20.9457 C   0  0  0  0  0  0  0  0  0  0  0  0
   12.9329  -20.8385   21.6577 C   0  0  0  0  0  0  0  0  0  0  0  0
   12.9269  -19.5823   21.0889 C   0  0  0  0  0  0  0  0  0  0  0  0
   12.5806  -18.4131   21.9175 C   0  0  0  0  0  0  0  0  0  0  0  0
   12.0139  -17.2806   21.0858 C   0  0  2  0  0  0  0  0  0  0  0  0
   13.1328  -16.6622   20.3991 N   0  0  0  0  0  0  0  0  0  0  0  0
   11.3752  -16.3092   22.0361 C   0  0  0  0  0  0  0  0  0  0  0  0
   12.1221  -15.4737   22.6207 O   0  0  0  0  0  0  0  0  0  0  0  0
   13.2410  -19.4199   19.7602 C   0  0  0  0  0  0  0  0  0  0  0  0
   13.5602  -20.5548   19.0228 C   0  0  0  0  0  0  0  0  0  0  0  0
    6.6190  -14.1004   21.0375 C   0  0  0  0  0  0  0  0  0  0  0  0
    8.0852  -14.3832   21.4141 C   0  0  0  0  0  0  0  0  0  0  0  0
    8.0558  -15.0062   22.7622 C   0  0  2  0  0  0  0  0  0  0  0  0
    7.3783  -14.1631   23.8082 C   0  0  0  0  0  0  0  0  0  0  0  0
    9.4507  -15.3514   23.2346 C   0  0  2  0  0  0  0  0  0  0  0  0
    9.9804  -16.3143   22.2823 N   0  0  0  0  0  0  0  0  0  0  0  0
    9.5284  -15.8449   24.6124 C   0  0  0  0  0  0  0  0  0  0  0  0
    9.3723  -17.0568   24.8785 O   0  0  0  0  0  0  0  0  0  0  0  0
    8.9445  -13.3435   28.0542 C   0  0  0  0  0  0  0  0  0  0  0  0
   10.0657  -14.3552   28.0840 C   0  0  2  0  0  0  0  0  0  0  0  0
   11.3476  -13.6528   27.7115 C   0  0  0  0  0  0  0  0  0  0  0  0
    9.8147  -15.4492   27.0888 C   0  0  2  0  0  0  0  0  0  0  0  0
    9.7836  -14.9909   25.7287 N   0  0  0  0  0  0  0  0  0  0  0  0
    8.6247  -16.2633   27.4412 C   0  0  0  0  0  0  0  0  0  0  0  0
    8.6491  -17.2764   28.3732 O   0  0  0  0  0  0  0  0  0  0  0  0
    7.5236  -16.0286   26.8662 O   0  0  0  0  0  0  0  0  0  0  0  0
  2 12  2  0
  2  1  1  0
  3  2  1  0
  4  5  1  0
  4  3  2  0
  5 11  2  0
  6  5  1  0
  7  6  1  0
  7  8  1  1
  9 18  1  0
  9  7  1  0
 10  9  2  0
 11 12  1  0
 13 14  1  0
 15 16  1  1
 15 14  1  0
 17 18  1  6
 17 15  1  0
 19 17  1  0
 20 19  2  0
 22 21  1  6
 22 24  1  0
 23 22  1  0
 24 26  1  0
 24 25  1  6
 25 19  1  0
 26 27  1  0
 28 26  2  0
M  END
$$$$
