YIV.pdb
     RDKit          3D

 28 28  0  0  1  0  0  0  0  0999 V2000
   14.5437  -22.6339   18.5755 O   0  0  0  0  0  0  0  0  0  0  0  0
   14.1037  -21.5667   19.3320 C   0  0  0  0  0  0  0  0  0  0  0  0
   12.7634  -21.5241   19.7169 C   0  0  0  0  0  0  0  0  0  0  0  0
   12.3795  -20.4354   20.4712 C   0  0  0  0  0  0  0  0  0  0  0  0
   13.2559  -19.4347   20.8348 C   0  0  0  0  0  0  0  0  0  0  0  0
   12.7681  -18.3023   21.6430 C   0  0  0  0  0  0  0  0  0  0  0  0
   11.8026  -17.4301   20.8668 C   0  0  2  0  0  0  0  0  0  0  0  0
   12.5817  -16.7325   19.8606 N   0  0  0  0  0  0  0  0  0  0  0  0
   11.2040  -16.4562   21.8403 C   0  0  0  0  0  0  0  0  0  0  0  0
   11.8407  -15.3911   22.0807 O   0  0  0  0  0  0  0  0  0  0  0  0
   14.5740  -19.4912   20.4476 C   0  0  0  0  0  0  0  0  0  0  0  0
   14.9833  -20.5803   19.6862 C   0  0  0  0  0  0  0  0  0  0  0  0
    6.5077  -14.6822   21.1152 C   0  0  0  0  0  0  0  0  0  0  0  0
    7.9896  -14.8191   21.5114 C   0  0  0  0  0  0  0  0  0  0  0  0
    8.0034  -15.4234   22.8682 C   0  0  2  0  0  0  0  0  0  0  0  0
    7.2747  -14.6112   23.9043 C   0  0  0  0  0  0  0  0  0  0  0  0
    9.4187  -15.6708   23.3414 C   0  0  2  0  0  0  0  0  0  0  0  0
    9.9649  -16.7065   22.4792 N   0  0  0  0  0  0  0  0  0  0  0  0
    9.5405  -16.0190   24.7597 C   0  0  0  0  0  0  0  0  0  0  0  0
    9.3054  -17.1777   25.1670 O   0  0  0  0  0  0  0  0  0  0  0  0
    9.9185  -12.9663   27.5899 C   0  0  0  0  0  0  0  0  0  0  0  0
    9.5021  -14.3392   28.0626 C   0  0  2  0  0  0  0  0  0  0  0  0
   10.0661  -14.5554   29.4448 C   0  0  0  0  0  0  0  0  0  0  0  0
   10.0501  -15.3984   27.1527 C   0  0  2  0  0  0  0  0  0  0  0  0
    9.9298  -15.0754   25.7591 N   0  0  0  0  0  0  0  0  0  0  0  0
    9.5111  -16.7438   27.4725 C   0  0  0  0  0  0  0  0  0  0  0  0
   10.2267  -17.7049   28.1506 O   0  0  0  0  0  0  0  0  0  0  0  0
    8.3363  -17.0402   27.1117 O   0  0  0  0  0  0  0  0  0  0  0  0
  2 12  2  0
  2  1  1  0
  3  2  1  0
  4  5  1  0
  4  3  2  0
  5 11  2  0
  6  5  1  0
  7  6  1  0
  7  8  1  6
  9 18  1  0
  9  7  1  0
 10  9  2  0
 11 12  1  0
 13 14  1  0
 15 16  1  1
 15 14  1  0
 17 18  1  6
 17 15  1  0
 19 17  1  0
 20 19  2  0
 22 21  1  6
 22 24  1  0
 23 22  1  0
 24 26  1  0
 24 25  1  6
 25 19  1  0
 26 27  1  0
 28 26  2  0
M  END
$$$$
