YIV.pdb
     RDKit          3D

 28 28  0  0  1  0  0  0  0  0999 V2000
   13.2035  -23.3963   18.8903 O   0  0  0  0  0  0  0  0  0  0  0  0
   12.9789  -22.2393   19.6085 C   0  0  0  0  0  0  0  0  0  0  0  0
   13.2162  -22.2460   20.9833 C   0  0  0  0  0  0  0  0  0  0  0  0
   12.9750  -21.0631   21.6498 C   0  0  0  0  0  0  0  0  0  0  0  0
   12.5245  -19.9268   21.0115 C   0  0  0  0  0  0  0  0  0  0  0  0
   12.2899  -18.7000   21.7948 C   0  0  0  0  0  0  0  0  0  0  0  0
   11.7490  -17.5764   20.9344 C   0  0  2  0  0  0  0  0  0  0  0  0
   12.8660  -17.0609   20.1646 N   0  0  0  0  0  0  0  0  0  0  0  0
   11.2171  -16.5234   21.8633 C   0  0  0  0  0  0  0  0  0  0  0  0
   12.0195  -15.6398   22.2794 O   0  0  0  0  0  0  0  0  0  0  0  0
   12.2954  -19.9362   19.6558 C   0  0  0  0  0  0  0  0  0  0  0  0
   12.5320  -21.1186   18.9633 C   0  0  0  0  0  0  0  0  0  0  0  0
    6.5638  -14.2973   20.9419 C   0  0  0  0  0  0  0  0  0  0  0  0
    8.0384  -14.5271   21.3218 C   0  0  0  0  0  0  0  0  0  0  0  0
    8.0332  -15.0520   22.7113 C   0  0  2  0  0  0  0  0  0  0  0  0
    7.4405  -14.1041   23.7183 C   0  0  0  0  0  0  0  0  0  0  0  0
    9.4275  -15.4349   23.1556 C   0  0  2  0  0  0  0  0  0  0  0  0
    9.8610  -16.5051   22.2715 N   0  0  0  0  0  0  0  0  0  0  0  0
    9.5410  -15.8117   24.5673 C   0  0  0  0  0  0  0  0  0  0  0  0
    9.4629  -17.0060   24.9296 O   0  0  0  0  0  0  0  0  0  0  0  0
   10.3284  -12.8228   27.4678 C   0  0  0  0  0  0  0  0  0  0  0  0
    9.6242  -14.0747   27.9351 C   0  0  2  0  0  0  0  0  0  0  0  0
   10.1629  -14.4413   29.2955 C   0  0  0  0  0  0  0  0  0  0  0  0
    9.8913  -15.2119   26.9939 C   0  0  2  0  0  0  0  0  0  0  0  0
    9.7452  -14.8574   25.6105 N   0  0  0  0  0  0  0  0  0  0  0  0
    9.1200  -16.4279   27.3533 C   0  0  0  0  0  0  0  0  0  0  0  0
    9.6507  -17.4775   28.0690 O   0  0  0  0  0  0  0  0  0  0  0  0
    7.9122  -16.5223   26.9921 O   0  0  0  0  0  0  0  0  0  0  0  0
  2 12  2  0
  2  1  1  0
  3  2  1  0
  4  5  1  0
  4  3  2  0
  5 11  2  0
  6  5  1  0
  7  6  1  0
  7  8  1  1
  9 18  1  0
  9  7  1  0
 10  9  2  0
 11 12  1  0
 13 14  1  0
 15 16  1  1
 15 14  1  0
 17 18  1  6
 17 15  1  0
 19 17  1  0
 20 19  2  0
 22 21  1  6
 22 24  1  0
 23 22  1  0
 24 26  1  0
 24 25  1  6
 25 19  1  0
 26 27  1  0
 28 26  2  0
M  END
$$$$
