YIV.pdb
     RDKit          3D

 28 28  0  0  1  0  0  0  0  0999 V2000
    9.4677  -21.3990   17.3956 O   0  0  0  0  0  0  0  0  0  0  0  0
    9.5514  -20.5283   18.4632 C   0  0  0  0  0  0  0  0  0  0  0  0
   10.7857  -20.3501   19.0887 C   0  0  0  0  0  0  0  0  0  0  0  0
   10.8106  -19.4689   20.1492 C   0  0  0  0  0  0  0  0  0  0  0  0
    9.6896  -18.7924   20.5821 C   0  0  0  0  0  0  0  0  0  0  0  0
    9.7979  -17.8663   21.7242 C   0  0  0  0  0  0  0  0  0  0  0  0
    9.2452  -16.4952   21.3927 C   0  0  2  0  0  0  0  0  0  0  0  0
   10.0394  -15.9757   20.2948 N   0  0  0  0  0  0  0  0  0  0  0  0
    9.4135  -15.6416   22.6165 C   0  0  0  0  0  0  0  0  0  0  0  0
   10.5403  -15.1040   22.8139 O   0  0  0  0  0  0  0  0  0  0  0  0
    8.4803  -18.9789   19.9550 C   0  0  0  0  0  0  0  0  0  0  0  0
    8.4319  -19.8632   18.8830 C   0  0  0  0  0  0  0  0  0  0  0  0
    6.0997  -12.1851   26.2085 C   0  0  0  0  0  0  0  0  0  0  0  0
    7.4931  -12.7951   25.9680 C   0  0  0  0  0  0  0  0  0  0  0  0
    7.2913  -13.9435   25.0477 C   0  0  2  0  0  0  0  0  0  0  0  0
    6.3489  -14.9902   25.5772 C   0  0  0  0  0  0  0  0  0  0  0  0
    8.6083  -14.5987   24.6953 C   0  0  2  0  0  0  0  0  0  0  0  0
    8.3534  -15.4340   23.5326 N   0  0  0  0  0  0  0  0  0  0  0  0
    9.2301  -15.3544   25.7862 C   0  0  0  0  0  0  0  0  0  0  0  0
    9.1195  -16.5978   25.8611 O   0  0  0  0  0  0  0  0  0  0  0  0
   10.8523  -13.3025   29.1117 C   0  0  0  0  0  0  0  0  0  0  0  0
   10.4352  -14.7488   29.2382 C   0  0  2  0  0  0  0  0  0  0  0  0
   11.3449  -15.4183   30.2381 C   0  0  0  0  0  0  0  0  0  0  0  0
   10.5727  -15.4539   27.9213 C   0  0  2  0  0  0  0  0  0  0  0  0
    9.9930  -14.7344   26.8226 N   0  0  0  0  0  0  0  0  0  0  0  0
   10.1049  -16.8608   27.9890 C   0  0  0  0  0  0  0  0  0  0  0  0
   10.9509  -17.9327   28.1649 O   0  0  0  0  0  0  0  0  0  0  0  0
    8.8695  -17.1067   27.8815 O   0  0  0  0  0  0  0  0  0  0  0  0
  2 12  2  0
  2  1  1  0
  3  2  1  0
  4  5  1  0
  4  3  2  0
  5 11  2  0
  6  5  1  0
  7  6  1  0
  7  8  1  6
  9 18  1  0
  9  7  1  0
 10  9  2  0
 11 12  1  0
 13 14  1  0
 15 16  1  1
 15 14  1  0
 17 18  1  6
 17 15  1  0
 19 17  1  0
 20 19  2  0
 22 21  1  6
 22 24  1  0
 23 22  1  0
 24 26  1  0
 24 25  1  6
 25 19  1  0
 26 27  1  0
 28 26  2  0
M  END
$$$$
