YIV.pdb
     RDKit          3D

 28 28  0  0  1  0  0  0  0  0999 V2000
    5.8411  -19.9629   17.5315 O   0  0  0  0  0  0  0  0  0  0  0  0
    6.4574  -19.3212   18.5866 C   0  0  0  0  0  0  0  0  0  0  0  0
    5.6794  -18.5478   19.4486 C   0  0  0  0  0  0  0  0  0  0  0  0
    6.3476  -17.9299   20.4846 C   0  0  0  0  0  0  0  0  0  0  0  0
    7.7075  -18.0568   20.6749 C   0  0  0  0  0  0  0  0  0  0  0  0
    8.3488  -17.3639   21.8073 C   0  0  0  0  0  0  0  0  0  0  0  0
    8.0461  -15.8794   21.8046 C   0  0  2  0  0  0  0  0  0  0  0  0
    8.6967  -15.3196   20.6344 N   0  0  0  0  0  0  0  0  0  0  0  0
    8.6337  -15.3049   23.0613 C   0  0  0  0  0  0  0  0  0  0  0  0
    9.8675  -15.0304   23.0672 O   0  0  0  0  0  0  0  0  0  0  0  0
    8.4605  -18.8227   19.8165 C   0  0  0  0  0  0  0  0  0  0  0  0
    7.8074  -19.4552   18.7644 C   0  0  0  0  0  0  0  0  0  0  0  0
    6.1179  -11.7603   25.9335 C   0  0  0  0  0  0  0  0  0  0  0  0
    7.1516  -12.6096   25.1708 C   0  0  0  0  0  0  0  0  0  0  0  0
    7.6001  -13.6655   26.1143 C   0  0  2  0  0  0  0  0  0  0  0  0
    8.2789  -13.1327   27.3469 C   0  0  0  0  0  0  0  0  0  0  0  0
    8.5211  -14.6523   25.4317 C   0  0  2  0  0  0  0  0  0  0  0  0
    7.8450  -15.0709   24.2142 N   0  0  0  0  0  0  0  0  0  0  0  0
    8.9178  -15.7958   26.2580 C   0  0  0  0  0  0  0  0  0  0  0  0
    8.0654  -16.5348   26.7974 O   0  0  0  0  0  0  0  0  0  0  0  0
   13.1305  -17.0074   26.9282 C   0  0  0  0  0  0  0  0  0  0  0  0
   11.9644  -17.9243   26.6437 C   0  0  2  0  0  0  0  0  0  0  0  0
   11.8332  -18.0737   25.1484 C   0  0  0  0  0  0  0  0  0  0  0  0
   10.6910  -17.3386   27.1782 C   0  0  2  0  0  0  0  0  0  0  0  0
   10.2827  -16.1404   26.5011 N   0  0  0  0  0  0  0  0  0  0  0  0
   10.7273  -17.1736   28.6528 C   0  0  0  0  0  0  0  0  0  0  0  0
   10.7902  -18.2313   29.5319 O   0  0  0  0  0  0  0  0  0  0  0  0
   10.7000  -16.0094   29.1448 O   0  0  0  0  0  0  0  0  0  0  0  0
  2 12  2  0
  2  1  1  0
  3  2  1  0
  4  5  1  0
  4  3  2  0
  5 11  2  0
  6  5  1  0
  7  6  1  0
  7  8  1  6
  9 18  1  0
  9  7  1  0
 10  9  2  0
 11 12  1  0
 13 14  1  0
 15 16  1  1
 15 14  1  0
 17 18  1  6
 17 15  1  0
 19 17  1  0
 20 19  2  0
 22 21  1  6
 22 24  1  0
 23 22  1  0
 24 26  1  0
 24 25  1  6
 25 19  1  0
 26 27  1  0
 28 26  2  0
M  END
$$$$
