YIV.pdb
     RDKit          3D

 28 28  0  0  1  0  0  0  0  0999 V2000
    6.5961  -19.7361   16.5982 O   0  0  0  0  0  0  0  0  0  0  0  0
    7.0991  -19.1873   17.7604 C   0  0  0  0  0  0  0  0  0  0  0  0
    8.4803  -19.1819   17.9572 C   0  0  0  0  0  0  0  0  0  0  0  0
    8.9265  -18.6212   19.1354 C   0  0  0  0  0  0  0  0  0  0  0  0
    8.0718  -18.0907   20.0786 C   0  0  0  0  0  0  0  0  0  0  0  0
    8.6269  -17.5087   21.3142 C   0  0  0  0  0  0  0  0  0  0  0  0
    8.6828  -15.9961   21.2495 C   0  0  2  0  0  0  0  0  0  0  0  0
    9.7005  -15.6541   20.2731 N   0  0  0  0  0  0  0  0  0  0  0  0
    9.0750  -15.5082   22.6143 C   0  0  0  0  0  0  0  0  0  0  0  0
   10.3021  -15.5190   22.9177 O   0  0  0  0  0  0  0  0  0  0  0  0
    6.7128  -18.1036   19.8699 C   0  0  0  0  0  0  0  0  0  0  0  0
    6.2404  -18.6641   18.6883 C   0  0  0  0  0  0  0  0  0  0  0  0
    6.8620  -11.9913   27.0194 C   0  0  0  0  0  0  0  0  0  0  0  0
    7.9776  -12.9763   26.6233 C   0  0  0  0  0  0  0  0  0  0  0  0
    7.5594  -13.5817   25.3330 C   0  0  2  0  0  0  0  0  0  0  0  0
    6.2114  -14.2484   25.3815 C   0  0  0  0  0  0  0  0  0  0  0  0
    8.5849  -14.5782   24.8397 C   0  0  2  0  0  0  0  0  0  0  0  0
    8.1135  -15.0465   23.5462 N   0  0  0  0  0  0  0  0  0  0  0  0
    8.8549  -15.6879   25.7581 C   0  0  0  0  0  0  0  0  0  0  0  0
    7.9767  -16.5358   26.0290 O   0  0  0  0  0  0  0  0  0  0  0  0
   11.9068  -17.9196   25.2546 C   0  0  0  0  0  0  0  0  0  0  0  0
   11.8452  -17.5904   26.7275 C   0  0  2  0  0  0  0  0  0  0  0  0
   12.1058  -18.8553   27.5068 C   0  0  0  0  0  0  0  0  0  0  0  0
   10.4854  -17.0749   27.0956 C   0  0  2  0  0  0  0  0  0  0  0  0
   10.1187  -15.8755   26.3972 N   0  0  0  0  0  0  0  0  0  0  0  0
   10.3130  -16.9521   28.5647 C   0  0  0  0  0  0  0  0  0  0  0  0
   10.0729  -18.0264   29.3915 O   0  0  0  0  0  0  0  0  0  0  0  0
   10.3872  -15.8101   29.1019 O   0  0  0  0  0  0  0  0  0  0  0  0
  2 12  2  0
  2  1  1  0
  3  2  1  0
  4  5  1  0
  4  3  2  0
  5 11  2  0
  6  5  1  0
  7  6  1  0
  7  8  1  6
  9 18  1  0
  9  7  1  0
 10  9  2  0
 11 12  1  0
 13 14  1  0
 15 16  1  1
 15 14  1  0
 17 18  1  6
 17 15  1  0
 19 17  1  0
 20 19  2  0
 22 21  1  6
 22 24  1  0
 23 22  1  0
 24 26  1  0
 24 25  1  6
 25 19  1  0
 26 27  1  0
 28 26  2  0
M  END
$$$$
