YIV.pdb
     RDKit          3D

 28 28  0  0  1  0  0  0  0  0999 V2000
   14.0719  -23.2470   19.2106 O   0  0  0  0  0  0  0  0  0  0  0  0
   13.7316  -22.0840   19.8712 C   0  0  0  0  0  0  0  0  0  0  0  0
   12.4111  -21.9098   20.2866 C   0  0  0  0  0  0  0  0  0  0  0  0
   12.1281  -20.7297   20.9414 C   0  0  0  0  0  0  0  0  0  0  0  0
   13.0825  -19.7636   21.1816 C   0  0  0  0  0  0  0  0  0  0  0  0
   12.7007  -18.5275   21.8886 C   0  0  0  0  0  0  0  0  0  0  0  0
   11.7858  -17.6581   21.0504 C   0  0  2  0  0  0  0  0  0  0  0  0
   12.6075  -17.0582   20.0155 N   0  0  0  0  0  0  0  0  0  0  0  0
   11.2243  -16.6017   21.9577 C   0  0  0  0  0  0  0  0  0  0  0  0
   11.9591  -15.6136   22.2430 O   0  0  0  0  0  0  0  0  0  0  0  0
   14.3797  -19.9502   20.7658 C   0  0  0  0  0  0  0  0  0  0  0  0
   14.6877  -21.1333   20.1034 C   0  0  0  0  0  0  0  0  0  0  0  0
    6.5261  -14.4750   21.1887 C   0  0  0  0  0  0  0  0  0  0  0  0
    8.0005  -14.7899   21.5027 C   0  0  0  0  0  0  0  0  0  0  0  0
    8.0283  -15.3058   22.8954 C   0  0  2  0  0  0  0  0  0  0  0  0
    7.3893  -14.3846   23.8990 C   0  0  0  0  0  0  0  0  0  0  0  0
    9.4427  -15.6107   23.3366 C   0  0  2  0  0  0  0  0  0  0  0  0
    9.9137  -16.6928   22.4870 N   0  0  0  0  0  0  0  0  0  0  0  0
    9.5874  -15.9297   24.7596 C   0  0  0  0  0  0  0  0  0  0  0  0
    9.5735  -17.1125   25.1652 O   0  0  0  0  0  0  0  0  0  0  0  0
   10.3490  -12.8169   27.5609 C   0  0  0  0  0  0  0  0  0  0  0  0
    9.6657  -14.0667   28.0636 C   0  0  2  0  0  0  0  0  0  0  0  0
   10.2088  -14.3847   29.4344 C   0  0  0  0  0  0  0  0  0  0  0  0
    9.9533  -15.2258   27.1558 C   0  0  2  0  0  0  0  0  0  0  0  0
    9.7515  -14.9290   25.7658 N   0  0  0  0  0  0  0  0  0  0  0  0
    9.2453  -16.4587   27.5820 C   0  0  0  0  0  0  0  0  0  0  0  0
    9.8439  -17.4626   28.3096 O   0  0  0  0  0  0  0  0  0  0  0  0
    8.0299  -16.6122   27.2699 O   0  0  0  0  0  0  0  0  0  0  0  0
  2 12  2  0
  2  1  1  0
  3  2  1  0
  4  5  1  0
  4  3  2  0
  5 11  2  0
  6  5  1  0
  7  6  1  0
  7  8  1  6
  9 18  1  0
  9  7  1  0
 10  9  2  0
 11 12  1  0
 13 14  1  0
 15 16  1  1
 15 14  1  0
 17 18  1  6
 17 15  1  0
 19 17  1  0
 20 19  2  0
 22 21  1  6
 22 24  1  0
 23 22  1  0
 24 26  1  0
 24 25  1  6
 25 19  1  0
 26 27  1  0
 28 26  2  0
M  END
$$$$
