YIV.pdb
     RDKit          3D

 28 28  0  0  1  0  0  0  0  0999 V2000
    4.9265  -20.6036   18.3307 O   0  0  0  0  0  0  0  0  0  0  0  0
    5.6257  -19.9049   19.2940 C   0  0  0  0  0  0  0  0  0  0  0  0
    7.0023  -20.1048   19.4014 C   0  0  0  0  0  0  0  0  0  0  0  0
    7.6493  -19.3809   20.3806 C   0  0  0  0  0  0  0  0  0  0  0  0
    6.9907  -18.5037   21.2165 C   0  0  0  0  0  0  0  0  0  0  0  0
    7.7539  -17.7661   22.2397 C   0  0  0  0  0  0  0  0  0  0  0  0
    7.9655  -16.3174   21.8499 C   0  0  2  0  0  0  0  0  0  0  0  0
    8.9182  -16.3112   20.7552 N   0  0  0  0  0  0  0  0  0  0  0  0
    8.5339  -15.6142   23.0487 C   0  0  0  0  0  0  0  0  0  0  0  0
    9.7915  -15.5432   23.1533 O   0  0  0  0  0  0  0  0  0  0  0  0
    5.6336  -18.3178   21.0979 C   0  0  0  0  0  0  0  0  0  0  0  0
    4.9605  -19.0377   20.1170 C   0  0  0  0  0  0  0  0  0  0  0  0
    6.8898  -11.5079   27.1734 C   0  0  0  0  0  0  0  0  0  0  0  0
    7.9412  -12.5690   26.7989 C   0  0  0  0  0  0  0  0  0  0  0  0
    7.3677  -13.3418   25.6675 C   0  0  2  0  0  0  0  0  0  0  0  0
    6.0518  -13.9993   25.9838 C   0  0  0  0  0  0  0  0  0  0  0  0
    8.3385  -14.3927   25.1764 C   0  0  2  0  0  0  0  0  0  0  0  0
    7.7017  -15.0421   24.0418 N   0  0  0  0  0  0  0  0  0  0  0  0
    8.7636  -15.3595   26.1924 C   0  0  0  0  0  0  0  0  0  0  0  0
    7.9401  -16.1098   26.7605 O   0  0  0  0  0  0  0  0  0  0  0  0
   12.9962  -16.1843   27.0635 C   0  0  0  0  0  0  0  0  0  0  0  0
   11.8678  -17.1875   27.0215 C   0  0  2  0  0  0  0  0  0  0  0  0
   11.7015  -17.6540   25.5967 C   0  0  0  0  0  0  0  0  0  0  0  0
   10.5835  -16.5548   27.4693 C   0  0  2  0  0  0  0  0  0  0  0  0
   10.1250  -15.5099   26.5982 N   0  0  0  0  0  0  0  0  0  0  0  0
   10.6361  -16.1279   28.8898 C   0  0  0  0  0  0  0  0  0  0  0  0
   10.7699  -17.0075   29.9405 O   0  0  0  0  0  0  0  0  0  0  0  0
   10.5554  -14.8975   29.1683 O   0  0  0  0  0  0  0  0  0  0  0  0
  2 12  2  0
  2  1  1  0
  3  2  1  0
  4  5  1  0
  4  3  2  0
  5 11  2  0
  6  5  1  0
  7  6  1  0
  7  8  1  6
  9 18  1  0
  9  7  1  0
 10  9  2  0
 11 12  1  0
 13 14  1  0
 15 16  1  1
 15 14  1  0
 17 18  1  6
 17 15  1  0
 19 17  1  0
 20 19  2  0
 22 21  1  6
 22 24  1  0
 23 22  1  0
 24 26  1  0
 24 25  1  6
 25 19  1  0
 26 27  1  0
 28 26  2  0
M  END
$$$$
