YIV.pdb
     RDKit          3D

 28 28  0  0  1  0  0  0  0  0999 V2000
    6.1349  -14.7082   15.2997 O   0  0  0  0  0  0  0  0  0  0  0  0
    6.5098  -14.8254   16.6228 C   0  0  0  0  0  0  0  0  0  0  0  0
    5.9810  -15.8710   17.3802 C   0  0  0  0  0  0  0  0  0  0  0  0
    6.3902  -15.9394   18.6953 C   0  0  0  0  0  0  0  0  0  0  0  0
    7.2715  -15.0350   19.2493 C   0  0  0  0  0  0  0  0  0  0  0  0
    7.6607  -15.1757   20.6644 C   0  0  0  0  0  0  0  0  0  0  0  0
    8.5331  -14.0264   21.1262 C   0  0  2  0  0  0  0  0  0  0  0  0
    9.7651  -14.1003   20.3627 N   0  0  0  0  0  0  0  0  0  0  0  0
    8.8044  -14.2353   22.5882 C   0  0  0  0  0  0  0  0  0  0  0  0
    9.8783  -14.8167   22.9147 O   0  0  0  0  0  0  0  0  0  0  0  0
    7.7840  -14.0099   18.4896 C   0  0  0  0  0  0  0  0  0  0  0  0
    7.3850  -13.9216   17.1605 C   0  0  0  0  0  0  0  0  0  0  0  0
    6.6665  -12.1200   27.8984 C   0  0  0  0  0  0  0  0  0  0  0  0
    7.6899  -13.0437   27.2121 C   0  0  0  0  0  0  0  0  0  0  0  0
    7.3230  -13.0745   25.7730 C   0  0  2  0  0  0  0  0  0  0  0  0
    5.9325  -13.5857   25.5097 C   0  0  0  0  0  0  0  0  0  0  0  0
    8.3102  -13.8976   24.9754 C   0  0  2  0  0  0  0  0  0  0  0  0
    7.8964  -13.8012   23.5847 N   0  0  0  0  0  0  0  0  0  0  0  0
    8.4430  -15.2904   25.4115 C   0  0  0  0  0  0  0  0  0  0  0  0
    7.4945  -16.0983   25.3044 O   0  0  0  0  0  0  0  0  0  0  0  0
   11.0319  -17.7844   24.2400 C   0  0  0  0  0  0  0  0  0  0  0  0
   11.0785  -17.7943   25.7497 C   0  0  2  0  0  0  0  0  0  0  0  0
   11.1794  -19.2269   26.2111 C   0  0  0  0  0  0  0  0  0  0  0  0
    9.8260  -17.1967   26.3194 C   0  0  2  0  0  0  0  0  0  0  0  0
    9.6447  -15.8138   25.9796 N   0  0  0  0  0  0  0  0  0  0  0  0
    9.7015  -17.4444   27.7776 C   0  0  0  0  0  0  0  0  0  0  0  0
    9.2658  -18.6376   28.3086 O   0  0  0  0  0  0  0  0  0  0  0  0
   10.0068  -16.5241   28.5886 O   0  0  0  0  0  0  0  0  0  0  0  0
  2 12  2  0
  2  1  1  0
  3  2  1  0
  4  5  1  0
  4  3  2  0
  5 11  2  0
  6  5  1  0
  7  6  1  0
  7  8  1  6
  9 18  1  0
  9  7  1  0
 10  9  2  0
 11 12  1  0
 13 14  1  0
 15 16  1  1
 15 14  1  0
 17 18  1  6
 17 15  1  0
 19 17  1  0
 20 19  2  0
 22 21  1  6
 22 24  1  0
 23 22  1  0
 24 26  1  0
 24 25  1  1
 25 19  1  0
 26 27  1  0
 28 26  2  0
M  END
$$$$
