ACP.pdb
     RDKit          3D

 19 19  0  0  1  0  0  0  0  0999 V2000
   25.8749  -22.7396  -19.1121 C   0  0  0  0  0  0  0  0  0  0  0  0
   26.7904  -23.7654  -19.6940 C   0  0  2  0  0  0  0  0  0  0  0  0
   25.9708  -24.9379  -20.0161 N   0  0  0  0  0  0  0  0  0  0  0  0
   27.8785  -24.1834  -18.8069 C   0  0  0  0  0  0  0  0  0  0  0  0
   28.7166  -23.3784  -18.3041 O   0  0  0  0  0  0  0  0  0  0  0  0
   28.0754  -25.5554  -18.4357 N   0  0  0  0  0  0  0  0  0  0  0  0
   29.1768  -25.9815  -17.6687 C   0  0  1  0  0  0  0  0  0  0  0  0
   28.8544  -27.2502  -16.8585 C   0  0  0  0  0  0  0  0  0  0  0  0
   27.5318  -26.8984  -15.6766 S   0  0  0  0  0  0  0  0  0  0  0  0
   30.4704  -26.0930  -18.3098 C   0  0  0  0  0  0  0  0  0  0  0  0
   30.5593  -26.7080  -19.4438 O   0  0  0  0  0  0  0  0  0  0  0  0
   31.6719  -25.5876  -17.8154 N   0  0  0  0  0  0  0  0  0  0  0  0
   31.8868  -24.9090  -16.5685 C   0  0  0  0  0  0  0  0  0  0  0  0
   33.3829  -25.1555  -16.3074 C   0  0  0  0  0  0  0  0  0  0  0  0
   33.9406  -24.9195  -17.6896 C   0  0  0  0  0  0  0  0  0  0  0  0
   32.9605  -25.6929  -18.5309 C   0  0  1  0  0  0  0  0  0  0  0  0
   33.3797  -27.0901  -18.6644 C   0  0  0  0  0  0  0  0  0  0  0  0
   32.7933  -27.9779  -17.9974 O   0  0  0  0  0  0  0  0  0  0  0  0
   34.4089  -27.4581  -19.5094 O   0  0  0  0  0  0  0  0  0  0  0  0
  2  1  1  1
  2  3  1  0
  4  2  1  0
  5  4  2  0
  6  4  1  0
  7  8  1  6
  7  6  1  0
  9  8  1  0
 10 12  1  0
 10  7  1  0
 11 10  2  0
 12 16  1  0
 13 14  1  0
 13 12  1  0
 14 15  1  0
 15 16  1  0
 16 17  1  1
 17 18  2  0
 17 19  1  0
M  END
$$$$
