ACP.pdb
     RDKit          3D

 19 19  0  0  1  0  0  0  0  0999 V2000
   19.2883   -8.3079  -20.9053 C   0  0  0  0  0  0  0  0  0  0  0  0
   20.1860   -9.0374  -19.9614 C   0  0  2  0  0  0  0  0  0  0  0  0
   19.8018  -10.4517  -20.0113 N   0  0  0  0  0  0  0  0  0  0  0  0
   20.1097   -8.5795  -18.5722 C   0  0  0  0  0  0  0  0  0  0  0  0
   19.0596   -8.6567  -17.8691 O   0  0  0  0  0  0  0  0  0  0  0  0
   21.2369   -8.0040  -17.8960 N   0  0  0  0  0  0  0  0  0  0  0  0
   21.1617   -7.5210  -16.5754 C   0  0  1  0  0  0  0  0  0  0  0  0
   22.0309   -8.3493  -15.6119 C   0  0  0  0  0  0  0  0  0  0  0  0
   21.5537  -10.0910  -15.7056 S   0  0  0  0  0  0  0  0  0  0  0  0
   21.3391   -6.1030  -16.3415 C   0  0  0  0  0  0  0  0  0  0  0  0
   22.3764   -5.5092  -16.8348 O   0  0  0  0  0  0  0  0  0  0  0  0
   20.4773   -5.2820  -15.6156 N   0  0  0  0  0  0  0  0  0  0  0  0
   19.2590   -5.6604  -14.9567 C   0  0  0  0  0  0  0  0  0  0  0  0
   19.1120   -4.5743  -13.8768 C   0  0  0  0  0  0  0  0  0  0  0  0
   19.4851   -3.3486  -14.6741 C   0  0  0  0  0  0  0  0  0  0  0  0
   20.7101   -3.8390  -15.3988 C   0  0  1  0  0  0  0  0  0  0  0  0
   21.9143   -3.6114  -14.5964 C   0  0  0  0  0  0  0  0  0  0  0  0
   22.3667   -4.5405  -13.8829 O   0  0  0  0  0  0  0  0  0  0  0  0
   22.5686   -2.3946  -14.6045 O   0  0  0  0  0  0  0  0  0  0  0  0
  2  1  1  6
  2  3  1  0
  4  2  1  0
  5  4  2  0
  6  4  1  0
  7  8  1  1
  7  6  1  0
  9  8  1  0
 10 12  1  0
 10  7  1  0
 11 10  2  0
 12 16  1  0
 13 14  1  0
 13 12  1  0
 14 15  1  0
 15 16  1  0
 16 17  1  1
 17 18  2  0
 17 19  1  0
M  END
$$$$
