ACP.pdb
     RDKit          3D

 19 19  0  0  1  0  0  0  0  0999 V2000
   17.9170   -8.9470  -18.8586 C   0  0  0  0  0  0  0  0  0  0  0  0
   19.1680   -9.7467  -18.7023 C   0  0  2  0  0  0  0  0  0  0  0  0
   18.7738  -11.0634  -18.1914 N   0  0  0  0  0  0  0  0  0  0  0  0
   20.1525   -9.1643  -17.7873 C   0  0  0  0  0  0  0  0  0  0  0  0
   20.0020   -9.1302  -16.5306 O   0  0  0  0  0  0  0  0  0  0  0  0
   21.3784   -8.5837  -18.2552 N   0  0  0  0  0  0  0  0  0  0  0  0
   22.2702   -7.9072  -17.4009 C   0  0  1  0  0  0  0  0  0  0  0  0
   23.7330   -8.0746  -17.8506 C   0  0  0  0  0  0  0  0  0  0  0  0
   24.8295   -7.2398  -16.6797 S   0  0  0  0  0  0  0  0  0  0  0  0
   21.9913   -6.5295  -17.0529 C   0  0  0  0  0  0  0  0  0  0  0  0
   21.8191   -5.6647  -17.9987 O   0  0  0  0  0  0  0  0  0  0  0  0
   21.8841   -6.0206  -15.7595 N   0  0  0  0  0  0  0  0  0  0  0  0
   21.9983   -6.7435  -14.5242 C   0  0  0  0  0  0  0  0  0  0  0  0
   22.4082   -5.6433  -13.5298 C   0  0  0  0  0  0  0  0  0  0  0  0
   21.4845   -4.5310  -13.9621 C   0  0  0  0  0  0  0  0  0  0  0  0
   21.6381   -4.5950  -15.4584 C   0  0  1  0  0  0  0  0  0  0  0  0
   22.7563   -3.7592  -15.9020 C   0  0  0  0  0  0  0  0  0  0  0  0
   23.8664   -4.2918  -16.1486 O   0  0  0  0  0  0  0  0  0  0  0  0
   22.6203   -2.3931  -16.0570 O   0  0  0  0  0  0  0  0  0  0  0  0
  2  1  1  1
  2  3  1  0
  4  2  1  0
  5  4  2  0
  6  4  1  0
  7  8  1  6
  7  6  1  0
  9  8  1  0
 10 12  1  0
 10  7  1  0
 11 10  2  0
 12 16  1  0
 13 14  1  0
 13 12  1  0
 14 15  1  0
 15 16  1  0
 16 17  1  1
 17 18  2  0
 17 19  1  0
M  END
$$$$
