ACP.pdb
     RDKit          3D

 19 19  0  0  1  0  0  0  0  0999 V2000
   27.6020  -30.7635  -17.3394 C   0  0  0  0  0  0  0  0  0  0  0  0
   26.8461  -29.5702  -16.8561 C   0  0  2  0  0  0  0  0  0  0  0  0
   25.4807  -29.6877  -17.3778 N   0  0  0  0  0  0  0  0  0  0  0  0
   27.4019  -28.2838  -17.2825 C   0  0  0  0  0  0  0  0  0  0  0  0
   28.5954  -27.9291  -17.0525 O   0  0  0  0  0  0  0  0  0  0  0  0
   26.6236  -27.3187  -18.0047 N   0  0  0  0  0  0  0  0  0  0  0  0
   27.1291  -26.0546  -18.3642 C   0  0  1  0  0  0  0  0  0  0  0  0
   26.9403  -25.7674  -19.8649 C   0  0  0  0  0  0  0  0  0  0  0  0
   27.8908  -26.9595  -20.8374 S   0  0  0  0  0  0  0  0  0  0  0  0
   26.7577  -24.9038  -17.5676 C   0  0  0  0  0  0  0  0  0  0  0  0
   25.5172  -24.7378  -17.2429 O   0  0  0  0  0  0  0  0  0  0  0  0
   27.6288  -23.9225  -17.0964 N   0  0  0  0  0  0  0  0  0  0  0  0
   29.0448  -23.8332  -17.3160 C   0  0  0  0  0  0  0  0  0  0  0  0
   29.3185  -22.3312  -17.1250 C   0  0  0  0  0  0  0  0  0  0  0  0
   28.4704  -22.0550  -15.9077 C   0  0  0  0  0  0  0  0  0  0  0  0
   27.1987  -22.7722  -16.2746 C   0  0  1  0  0  0  0  0  0  0  0  0
   26.3029  -21.8898  -17.0261 C   0  0  0  0  0  0  0  0  0  0  0  0
   26.2169  -22.0126  -18.2729 O   0  0  0  0  0  0  0  0  0  0  0  0
   25.5465  -20.9210  -16.3953 O   0  0  0  0  0  0  0  0  0  0  0  0
  2  1  1  6
  2  3  1  0
  4  2  1  0
  5  4  2  0
  6  4  1  0
  7  8  1  6
  7  6  1  0
  9  8  1  0
 10 12  1  0
 10  7  1  0
 11 10  2  0
 12 16  1  0
 13 14  1  0
 13 12  1  0
 14 15  1  0
 15 16  1  0
 16 17  1  6
 17 18  2  0
 17 19  1  0
M  END
$$$$
