ACP.pdb
     RDKit          3D

 19 19  0  0  1  0  0  0  0  0999 V2000
   21.1078  -22.0093  -15.0071 C   0  0  0  0  0  0  0  0  0  0  0  0
   21.2194  -21.0085  -13.9049 C   0  0  2  0  0  0  0  0  0  0  0  0
   20.3522  -19.8808  -14.2605 N   0  0  0  0  0  0  0  0  0  0  0  0
   22.5752  -20.5034  -13.6762 C   0  0  0  0  0  0  0  0  0  0  0  0
   23.0166  -19.4333  -14.1893 O   0  0  0  0  0  0  0  0  0  0  0  0
   23.5150  -21.1934  -12.8397 N   0  0  0  0  0  0  0  0  0  0  0  0
   24.8758  -20.8370  -12.7762 C   0  0  1  0  0  0  0  0  0  0  0  0
   25.5511  -21.3780  -11.5028 C   0  0  0  0  0  0  0  0  0  0  0  0
   27.3036  -20.9322  -11.5064 S   0  0  0  0  0  0  0  0  0  0  0  0
   25.7097  -21.0623  -13.9384 C   0  0  0  0  0  0  0  0  0  0  0  0
   25.7744  -22.2503  -14.4451 O   0  0  0  0  0  0  0  0  0  0  0  0
   26.4758  -20.0982  -14.5920 N   0  0  0  0  0  0  0  0  0  0  0  0
   26.6724  -18.7295  -14.2053 C   0  0  0  0  0  0  0  0  0  0  0  0
   28.0107  -18.3808  -14.8797 C   0  0  0  0  0  0  0  0  0  0  0  0
   27.8089  -19.0253  -16.2292 C   0  0  0  0  0  0  0  0  0  0  0  0
   27.2417  -20.3608  -15.8280 C   0  0  1  0  0  0  0  0  0  0  0  0
   28.3139  -21.3304  -15.5909 C   0  0  0  0  0  0  0  0  0  0  0  0
   28.6401  -21.6155  -14.4122 O   0  0  0  0  0  0  0  0  0  0  0  0
   28.9787  -21.9424  -16.6359 O   0  0  0  0  0  0  0  0  0  0  0  0
  2  1  1  6
  2  3  1  0
  4  2  1  0
  5  4  2  0
  6  4  1  0
  7  8  1  1
  7  6  1  0
  9  8  1  0
 10 12  1  0
 10  7  1  0
 11 10  2  0
 12 16  1  0
 13 14  1  0
 13 12  1  0
 14 15  1  0
 15 16  1  0
 16 17  1  1
 17 18  2  0
 17 19  1  0
M  END
$$$$
