ACP.pdb
     RDKit          3D

 19 19  0  0  1  0  0  0  0  0999 V2000
   24.2527  -11.2921  -18.2930 C   0  0  0  0  0  0  0  0  0  0  0  0
   23.8028  -10.8812  -16.9300 C   0  0  2  0  0  0  0  0  0  0  0  0
   23.2658  -12.0791  -16.2767 N   0  0  0  0  0  0  0  0  0  0  0  0
   22.7737   -9.8389  -16.9172 C   0  0  0  0  0  0  0  0  0  0  0  0
   21.7396   -9.8707  -17.6472 O   0  0  0  0  0  0  0  0  0  0  0  0
   22.8624   -8.6901  -16.0620 N   0  0  0  0  0  0  0  0  0  0  0  0
   21.8249   -7.7442  -15.9548 C   0  0  1  0  0  0  0  0  0  0  0  0
   20.5237   -8.3778  -15.4298 C   0  0  0  0  0  0  0  0  0  0  0  0
   20.8320   -9.1670  -13.8322 S   0  0  0  0  0  0  0  0  0  0  0  0
   22.0940   -6.4882  -15.2863 C   0  0  0  0  0  0  0  0  0  0  0  0
   22.7678   -6.4951  -14.1826 O   0  0  0  0  0  0  0  0  0  0  0  0
   21.6895   -5.2280  -15.7243 N   0  0  0  0  0  0  0  0  0  0  0  0
   20.8379   -4.9228  -16.8392 C   0  0  0  0  0  0  0  0  0  0  0  0
   20.2741   -3.5421  -16.4608 C   0  0  0  0  0  0  0  0  0  0  0  0
   21.5223   -2.8752  -15.9369 C   0  0  0  0  0  0  0  0  0  0  0  0
   22.0874   -3.9660  -15.0667 C   0  0  1  0  0  0  0  0  0  0  0  0
   21.5435   -3.8817  -13.7092 C   0  0  0  0  0  0  0  0  0  0  0  0
   20.6127   -4.6521  -13.3671 O   0  0  0  0  0  0  0  0  0  0  0  0
   22.0307   -2.9717  -12.7909 O   0  0  0  0  0  0  0  0  0  0  0  0
  2  1  1  6
  2  3  1  0
  4  2  1  0
  5  4  2  0
  6  4  1  0
  7  8  1  1
  7  6  1  0
  9  8  1  0
 10 12  1  0
 10  7  1  0
 11 10  2  0
 12 16  1  0
 13 14  1  0
 13 12  1  0
 14 15  1  0
 15 16  1  0
 16 17  1  1
 17 18  2  0
 17 19  1  0
M  END
$$$$
