ACP.pdb
     RDKit          3D

 19 19  0  0  1  0  0  0  0  0999 V2000
   17.0341  -12.1632  -15.7832 C   0  0  0  0  0  0  0  0  0  0  0  0
   17.0985  -10.9794  -14.8757 C   0  0  2  0  0  0  0  0  0  0  0  0
   15.8169  -10.2770  -14.9960 N   0  0  0  0  0  0  0  0  0  0  0  0
   18.1792  -10.0383  -15.1786 C   0  0  0  0  0  0  0  0  0  0  0  0
   19.3995  -10.2772  -14.9395 O   0  0  0  0  0  0  0  0  0  0  0  0
   17.9306   -8.7592  -15.7794 N   0  0  0  0  0  0  0  0  0  0  0  0
   18.9635   -7.8514  -16.0823 C   0  0  1  0  0  0  0  0  0  0  0  0
   18.9610   -7.4560  -17.5701 C   0  0  0  0  0  0  0  0  0  0  0  0
   20.1361   -6.1091  -17.8443 S   0  0  0  0  0  0  0  0  0  0  0  0
   19.1369   -6.6872  -15.2388 C   0  0  0  0  0  0  0  0  0  0  0  0
   18.1229   -5.9169  -15.0141 O   0  0  0  0  0  0  0  0  0  0  0  0
   20.3242   -6.2973  -14.6209 N   0  0  0  0  0  0  0  0  0  0  0  0
   21.6049   -6.9409  -14.7049 C   0  0  0  0  0  0  0  0  0  0  0  0
   22.5774   -5.7934  -14.3813 C   0  0  0  0  0  0  0  0  0  0  0  0
   21.8530   -5.1427  -13.2285 C   0  0  0  0  0  0  0  0  0  0  0  0
   20.4450   -5.1026  -13.7597 C   0  0  1  0  0  0  0  0  0  0  0  0
   20.2124   -3.8739  -14.5226 C   0  0  0  0  0  0  0  0  0  0  0  0
   20.2051   -3.9175  -15.7776 O   0  0  0  0  0  0  0  0  0  0  0  0
   19.9998   -2.6622  -13.8938 O   0  0  0  0  0  0  0  0  0  0  0  0
  2  1  1  6
  2  3  1  0
  4  2  1  0
  5  4  2  0
  6  4  1  0
  7  8  1  6
  7  6  1  0
  9  8  1  0
 10 12  1  0
 10  7  1  0
 11 10  2  0
 12 16  1  0
 13 14  1  0
 13 12  1  0
 14 15  1  0
 15 16  1  0
 16 17  1  6
 17 18  2  0
 17 19  1  0
M  END
$$$$
