ACP.pdb
     RDKit          3D

 19 19  0  0  1  0  0  0  0  0999 V2000
   20.4111  -11.1558  -19.1443 C   0  0  0  0  0  0  0  0  0  0  0  0
   21.2973  -10.4533  -18.1695 C   0  0  2  0  0  0  0  0  0  0  0  0
   21.9992  -11.4891  -17.4049 N   0  0  0  0  0  0  0  0  0  0  0  0
   20.5948   -9.5737  -17.2324 C   0  0  0  0  0  0  0  0  0  0  0  0
   19.4481   -9.8304  -16.7609 O   0  0  0  0  0  0  0  0  0  0  0  0
   21.1645   -8.3400  -16.7714 N   0  0  0  0  0  0  0  0  0  0  0  0
   20.5726   -7.5661  -15.7548 C   0  0  1  0  0  0  0  0  0  0  0  0
   20.4213   -8.3600  -14.4445 C   0  0  0  0  0  0  0  0  0  0  0  0
   22.0557   -8.7885  -13.8000 S   0  0  0  0  0  0  0  0  0  0  0  0
   21.0926   -6.2393  -15.4976 C   0  0  0  0  0  0  0  0  0  0  0  0
   22.3727   -6.0664  -15.4378 O   0  0  0  0  0  0  0  0  0  0  0  0
   20.3307   -5.0883  -15.3021 N   0  0  0  0  0  0  0  0  0  0  0  0
   18.8994   -4.9864  -15.2525 C   0  0  0  0  0  0  0  0  0  0  0  0
   18.6841   -3.7024  -14.4325 C   0  0  0  0  0  0  0  0  0  0  0  0
   19.7349   -2.8104  -15.0470 C   0  0  0  0  0  0  0  0  0  0  0  0
   20.9132   -3.7461  -15.0961 C   0  0  1  0  0  0  0  0  0  0  0  0
   21.6767   -3.6859  -13.8474 C   0  0  0  0  0  0  0  0  0  0  0  0
   21.5416   -4.5986  -12.9956 O   0  0  0  0  0  0  0  0  0  0  0  0
   22.5459   -2.6455  -13.5813 O   0  0  0  0  0  0  0  0  0  0  0  0
  2  1  1  6
  2  3  1  0
  4  2  1  0
  5  4  2  0
  6  4  1  0
  7  8  1  1
  7  6  1  0
  9  8  1  0
 10 12  1  0
 10  7  1  0
 11 10  2  0
 12 16  1  0
 13 14  1  0
 13 12  1  0
 14 15  1  0
 15 16  1  0
 16 17  1  1
 17 18  2  0
 17 19  1  0
M  END
$$$$
