ACP.pdb
     RDKit          3D

 19 19  0  0  1  0  0  0  0  0999 V2000
   17.4411  -11.4684  -14.9434 C   0  0  0  0  0  0  0  0  0  0  0  0
   17.5787  -10.0075  -15.2184 C   0  0  2  0  0  0  0  0  0  0  0  0
   18.3832   -9.8748  -16.4372 N   0  0  0  0  0  0  0  0  0  0  0  0
   18.2221   -9.2442  -14.1465 C   0  0  0  0  0  0  0  0  0  0  0  0
   17.7754   -9.1915  -12.9629 O   0  0  0  0  0  0  0  0  0  0  0  0
   19.4246   -8.4915  -14.3622 N   0  0  0  0  0  0  0  0  0  0  0  0
   19.9534   -7.6159  -13.3945 C   0  0  1  0  0  0  0  0  0  0  0  0
   21.4919   -7.5800  -13.4337 C   0  0  0  0  0  0  0  0  0  0  0  0
   22.1058   -6.4147  -12.1947 S   0  0  0  0  0  0  0  0  0  0  0  0
   19.4081   -6.2782  -13.2936 C   0  0  0  0  0  0  0  0  0  0  0  0
   19.4166   -5.5154  -14.3376 O   0  0  0  0  0  0  0  0  0  0  0  0
   18.8542   -5.7074  -12.1486 N   0  0  0  0  0  0  0  0  0  0  0  0
   18.6961   -6.3164  -10.8581 C   0  0  0  0  0  0  0  0  0  0  0  0
   18.6383   -5.0990   -9.9189 C   0  0  0  0  0  0  0  0  0  0  0  0
   17.7401   -4.1854  -10.7164 C   0  0  0  0  0  0  0  0  0  0  0  0
   18.3366   -4.3245  -12.0916 C   0  0  1  0  0  0  0  0  0  0  0  0
   19.4100   -3.3484  -12.2934 C   0  0  0  0  0  0  0  0  0  0  0  0
   19.1195   -2.1482  -12.5213 O   0  0  0  0  0  0  0  0  0  0  0  0
   20.7407   -3.7161  -12.2391 O   0  0  0  0  0  0  0  0  0  0  0  0
  2  1  1  1
  2  3  1  0
  4  2  1  0
  5  4  2  0
  6  4  1  0
  7  8  1  6
  7  6  1  0
  9  8  1  0
 10 12  1  0
 10  7  1  0
 11 10  2  0
 12 16  1  0
 13 14  1  0
 13 12  1  0
 14 15  1  0
 15 16  1  0
 16 17  1  1
 17 18  2  0
 17 19  1  0
M  END
$$$$
