ACP.pdb
     RDKit          3D

 19 19  0  0  1  0  0  0  0  0999 V2000
   19.9781  -11.2480  -20.2360 C   0  0  0  0  0  0  0  0  0  0  0  0
   20.9512  -11.4587  -19.1236 C   0  0  2  0  0  0  0  0  0  0  0  0
   21.0116  -12.9026  -18.8748 N   0  0  0  0  0  0  0  0  0  0  0  0
   20.6018  -10.7816  -17.8726 C   0  0  0  0  0  0  0  0  0  0  0  0
   19.5870  -11.0814  -17.1772 O   0  0  0  0  0  0  0  0  0  0  0  0
   21.3971   -9.7153  -17.3348 N   0  0  0  0  0  0  0  0  0  0  0  0
   21.1377   -9.1376  -16.0770 C   0  0  1  0  0  0  0  0  0  0  0  0
   21.7834   -9.9408  -14.9333 C   0  0  0  0  0  0  0  0  0  0  0  0
   23.5121  -10.2889  -15.3339 S   0  0  0  0  0  0  0  0  0  0  0  0
   21.3639   -7.7180  -15.9029 C   0  0  0  0  0  0  0  0  0  0  0  0
   22.4653   -7.1987  -16.3380 O   0  0  0  0  0  0  0  0  0  0  0  0
   20.4869   -6.8209  -15.2949 N   0  0  0  0  0  0  0  0  0  0  0  0
   19.2015   -7.1078  -14.7231 C   0  0  0  0  0  0  0  0  0  0  0  0
   19.0199   -5.9589  -13.7159 C   0  0  0  0  0  0  0  0  0  0  0  0
   19.5169   -4.7965  -14.5399 C   0  0  0  0  0  0  0  0  0  0  0  0
   20.7717   -5.3800  -15.1327 C   0  0  1  0  0  0  0  0  0  0  0  0
   21.9157   -5.1630  -14.2440 C   0  0  0  0  0  0  0  0  0  0  0  0
   22.3155   -6.1006  -13.5106 O   0  0  0  0  0  0  0  0  0  0  0  0
   22.5696   -3.9471  -14.1918 O   0  0  0  0  0  0  0  0  0  0  0  0
  2  1  1  6
  2  3  1  0
  4  2  1  0
  5  4  2  0
  6  4  1  0
  7  8  1  1
  7  6  1  0
  9  8  1  0
 10 12  1  0
 10  7  1  0
 11 10  2  0
 12 16  1  0
 13 14  1  0
 13 12  1  0
 14 15  1  0
 15 16  1  0
 16 17  1  1
 17 18  2  0
 17 19  1  0
M  END
$$$$
