ACP.pdb
     RDKit          3D

 19 19  0  0  1  0  0  0  0  0999 V2000
   14.6539  -13.3651  -12.6981 C   0  0  0  0  0  0  0  0  0  0  0  0
   14.2018  -11.9607  -12.9262 C   0  0  2  0  0  0  0  0  0  0  0  0
   14.5620  -11.6130  -14.3045 N   0  0  0  0  0  0  0  0  0  0  0  0
   14.7989  -10.9746  -12.0225 C   0  0  0  0  0  0  0  0  0  0  0  0
   14.6067  -10.9692  -10.7710 O   0  0  0  0  0  0  0  0  0  0  0  0
   15.6598   -9.9290  -12.4963 N   0  0  0  0  0  0  0  0  0  0  0  0
   16.1776   -8.9319  -11.6475 C   0  0  1  0  0  0  0  0  0  0  0  0
   17.5517   -8.4289  -12.1259 C   0  0  0  0  0  0  0  0  0  0  0  0
   18.8048   -9.6959  -11.8188 S   0  0  0  0  0  0  0  0  0  0  0  0
   15.3238   -7.8239  -11.2730 C   0  0  0  0  0  0  0  0  0  0  0  0
   14.6907   -7.1777  -12.1970 O   0  0  0  0  0  0  0  0  0  0  0  0
   15.1043   -7.3658   -9.9747 N   0  0  0  0  0  0  0  0  0  0  0  0
   15.5786   -7.9484   -8.7512 C   0  0  0  0  0  0  0  0  0  0  0  0
   15.5745   -6.7496   -7.7867 C   0  0  0  0  0  0  0  0  0  0  0  0
   14.2560   -6.1133   -8.1525 C   0  0  0  0  0  0  0  0  0  0  0  0
   14.3259   -6.1510   -9.6558 C   0  0  1  0  0  0  0  0  0  0  0  0
   14.9828   -4.9492  -10.1756 C   0  0  0  0  0  0  0  0  0  0  0  0
   16.1737   -5.0163  -10.5681 O   0  0  0  0  0  0  0  0  0  0  0  0
   14.3224   -3.7377  -10.2454 O   0  0  0  0  0  0  0  0  0  0  0  0
  2  1  1  1
  2  3  1  0
  4  2  1  0
  5  4  2  0
  6  4  1  0
  7  8  1  6
  7  6  1  0
  9  8  1  0
 10 12  1  0
 10  7  1  0
 11 10  2  0
 12 16  1  0
 13 14  1  0
 13 12  1  0
 14 15  1  0
 15 16  1  0
 16 17  1  1
 17 18  2  0
 17 19  1  0
M  END
$$$$
