ACP.pdb
     RDKit          3D

 19 19  0  0  1  0  0  0  0  0999 V2000
   23.6514  -11.3564  -21.0918 C   0  0  0  0  0  0  0  0  0  0  0  0
   24.4316  -11.5893  -19.8404 C   0  0  2  0  0  0  0  0  0  0  0  0
   24.9989  -12.9383  -19.9339 N   0  0  0  0  0  0  0  0  0  0  0  0
   23.6467  -11.4951  -18.6073 C   0  0  0  0  0  0  0  0  0  0  0  0
   22.6004  -12.1753  -18.3929 O   0  0  0  0  0  0  0  0  0  0  0  0
   24.0130  -10.6142  -17.5356 N   0  0  0  0  0  0  0  0  0  0  0  0
   23.2775  -10.5328  -16.3376 C   0  0  1  0  0  0  0  0  0  0  0  0
   24.1299  -10.9167  -15.1145 C   0  0  0  0  0  0  0  0  0  0  0  0
   24.9633  -12.4916  -15.4231 S   0  0  0  0  0  0  0  0  0  0  0  0
   22.5059   -9.3361  -16.0741 C   0  0  0  0  0  0  0  0  0  0  0  0
   23.0968   -8.1864  -16.1096 O   0  0  0  0  0  0  0  0  0  0  0  0
   21.1445   -9.2922  -15.7771 N   0  0  0  0  0  0  0  0  0  0  0  0
   20.2423  -10.4019  -15.6492 C   0  0  0  0  0  0  0  0  0  0  0  0
   19.1331   -9.8288  -14.7499 C   0  0  0  0  0  0  0  0  0  0  0  0
   18.9647   -8.4620  -15.3670 C   0  0  0  0  0  0  0  0  0  0  0  0
   20.4008   -8.0400  -15.5274 C   0  0  1  0  0  0  0  0  0  0  0  0
   20.8835   -7.3696  -14.3177 C   0  0  0  0  0  0  0  0  0  0  0  0
   21.6250   -7.9935  -13.5191 O   0  0  0  0  0  0  0  0  0  0  0  0
   20.5421   -6.0618  -14.0313 O   0  0  0  0  0  0  0  0  0  0  0  0
  2  1  1  6
  2  3  1  0
  4  2  1  0
  5  4  2  0
  6  4  1  0
  7  8  1  1
  7  6  1  0
  9  8  1  0
 10 12  1  0
 10  7  1  0
 11 10  2  0
 12 16  1  0
 13 14  1  0
 13 12  1  0
 14 15  1  0
 15 16  1  0
 16 17  1  1
 17 18  2  0
 17 19  1  0
M  END
$$$$
