ACP.pdb
     RDKit          3D

 19 19  0  0  1  0  0  0  0  0999 V2000
   18.1557  -12.7786  -17.5250 C   0  0  0  0  0  0  0  0  0  0  0  0
   19.0328  -12.1502  -16.4931 C   0  0  2  0  0  0  0  0  0  0  0  0
   18.2823  -12.1532  -15.2334 N   0  0  0  0  0  0  0  0  0  0  0  0
   19.4381  -10.7752  -16.7942 C   0  0  0  0  0  0  0  0  0  0  0  0
   20.1330  -10.4581  -17.8040 O   0  0  0  0  0  0  0  0  0  0  0  0
   19.0696   -9.6706  -15.9557 N   0  0  0  0  0  0  0  0  0  0  0  0
   19.3709   -8.3355  -16.2865 C   0  0  1  0  0  0  0  0  0  0  0  0
   18.1162   -7.5548  -16.7181 C   0  0  0  0  0  0  0  0  0  0  0  0
   18.4438   -5.7786  -16.6298 S   0  0  0  0  0  0  0  0  0  0  0  0
   20.1745   -7.5551  -15.3689 C   0  0  0  0  0  0  0  0  0  0  0  0
   19.7607   -7.3897  -14.1550 O   0  0  0  0  0  0  0  0  0  0  0  0
   21.3910   -6.9431  -15.6675 N   0  0  0  0  0  0  0  0  0  0  0  0
   22.0500   -6.8854  -16.9418 C   0  0  0  0  0  0  0  0  0  0  0  0
   22.9370   -5.6358  -16.8029 C   0  0  0  0  0  0  0  0  0  0  0  0
   23.4679   -5.8356  -15.4046 C   0  0  0  0  0  0  0  0  0  0  0  0
   22.2104   -6.2212  -14.6721 C   0  0  1  0  0  0  0  0  0  0  0  0
   21.5139   -5.0325  -14.1744 C   0  0  0  0  0  0  0  0  0  0  0  0
   20.5570   -4.5556  -14.8330 O   0  0  0  0  0  0  0  0  0  0  0  0
   21.8846   -4.4194  -12.9931 O   0  0  0  0  0  0  0  0  0  0  0  0
  2  1  1  6
  2  3  1  0
  4  2  1  0
  5  4  2  0
  6  4  1  0
  7  8  1  1
  7  6  1  0
  9  8  1  0
 10 12  1  0
 10  7  1  0
 11 10  2  0
 12 16  1  0
 13 14  1  0
 13 12  1  0
 14 15  1  0
 15 16  1  0
 16 17  1  6
 17 18  2  0
 17 19  1  0
M  END
$$$$
