ACP.pdb
     RDKit          3D

 19 19  0  0  1  0  0  0  0  0999 V2000
   16.5936   -8.3720  -18.2843 C   0  0  0  0  0  0  0  0  0  0  0  0
   17.8137   -9.2247  -18.3994 C   0  0  2  0  0  0  0  0  0  0  0  0
   17.3766  -10.6182  -18.2678 N   0  0  0  0  0  0  0  0  0  0  0  0
   18.8404   -8.9579  -17.3893 C   0  0  0  0  0  0  0  0  0  0  0  0
   18.6597   -9.1325  -16.1483 O   0  0  0  0  0  0  0  0  0  0  0  0
   20.1457   -8.4745  -17.7378 N   0  0  0  0  0  0  0  0  0  0  0  0
   21.1157   -8.1492  -16.7703 C   0  0  1  0  0  0  0  0  0  0  0  0
   22.4455   -8.8826  -17.0228 C   0  0  0  0  0  0  0  0  0  0  0  0
   22.2068  -10.6636  -16.8201 S   0  0  0  0  0  0  0  0  0  0  0  0
   21.3466   -6.7543  -16.4575 C   0  0  0  0  0  0  0  0  0  0  0  0
   21.4903   -5.9084  -17.4248 O   0  0  0  0  0  0  0  0  0  0  0  0
   21.4318   -6.2088  -15.1773 N   0  0  0  0  0  0  0  0  0  0  0  0
   21.3240   -6.9010  -13.9241 C   0  0  0  0  0  0  0  0  0  0  0  0
   22.0858   -5.9721  -12.9627 C   0  0  0  0  0  0  0  0  0  0  0  0
   21.5681   -4.6296  -13.4176 C   0  0  0  0  0  0  0  0  0  0  0  0
   21.6684   -4.7744  -14.9127 C   0  0  1  0  0  0  0  0  0  0  0  0
   22.9906   -4.3592  -15.3873 C   0  0  0  0  0  0  0  0  0  0  0  0
   23.9062   -5.2123  -15.4909 O   0  0  0  0  0  0  0  0  0  0  0  0
   23.2575   -3.0466  -15.7255 O   0  0  0  0  0  0  0  0  0  0  0  0
  2  1  1  1
  2  3  1  0
  4  2  1  0
  5  4  2  0
  6  4  1  0
  7  8  1  6
  7  6  1  0
  9  8  1  0
 10 12  1  0
 10  7  1  0
 11 10  2  0
 12 16  1  0
 13 14  1  0
 13 12  1  0
 14 15  1  0
 15 16  1  0
 16 17  1  1
 17 18  2  0
 17 19  1  0
M  END
$$$$
