HRF.pdb
     RDKit          3D

 33 34  0  0  1  0  0  0  0  0999 V2000
    9.3413  -15.6905   20.1196 N   0  0  0  0  0  0  0  0  0  0  0  0
    8.4271  -14.9026   20.9119 C   0  0  1  0  0  0  0  0  0  0  0  0
    7.1691  -14.6848   20.0999 C   0  0  0  0  0  0  0  0  0  0  0  0
    7.5399  -14.1598   18.7625 C   0  0  0  0  0  0  0  0  0  0  0  0
    8.3377  -13.0782   18.4535 C   0  0  0  0  0  0  0  0  0  0  0  0
    8.4063  -12.9605   17.1160 N   0  0  0  0  0  0  0  0  0  0  0  0
    7.6721  -13.9400   16.5720 C   0  0  0  0  0  0  0  0  0  0  0  0
    7.1502  -14.6628   17.5708 N   0  0  0  0  0  0  0  0  0  0  0  0
    8.1105  -15.5573   22.2210 C   0  0  0  0  0  0  0  0  0  0  0  0
    6.9273  -15.4975   22.6077 O   0  0  0  0  0  0  0  0  0  0  0  0
   10.2904  -21.8638   21.8372 N   0  0  0  0  0  0  0  0  0  0  0  0
    9.3336  -21.4103   20.8712 C   0  0  0  0  0  0  0  0  0  0  0  0
    8.7031  -22.2450   20.1243 N   0  0  0  0  0  0  0  0  0  0  0  0
    9.0868  -20.0258   20.7530 N   0  0  0  0  0  0  0  0  0  0  0  0
    9.6528  -19.1109   21.7040 C   0  0  0  0  0  0  0  0  0  0  0  0
    8.9687  -19.2051   23.0444 C   0  0  0  0  0  0  0  0  0  0  0  0
    9.6205  -18.2814   24.0225 C   0  0  0  0  0  0  0  0  0  0  0  0
    8.9198  -16.9673   24.1386 C   0  0  2  0  0  0  0  0  0  0  0  0
    9.1603  -16.1855   22.9121 N   0  0  0  0  0  0  0  0  0  0  0  0
    9.4327  -16.1538   25.2516 C   0  0  0  0  0  0  0  0  0  0  0  0
   10.5794  -15.5916   25.0864 O   0  0  0  0  0  0  0  0  0  0  0  0
    7.9997  -21.8686   19.4545 N   0  0  0  0  0  0  0  0  0  0  0  0
    8.7774  -15.9293   26.4839 C   0  0  1  0  0  0  0  0  0  0  0  0
    9.4261  -15.1747   27.5574 C   0  0  0  0  0  0  0  0  0  0  0  0
    8.4396  -14.1820   28.1283 C   0  0  0  0  0  0  0  0  0  0  0  0
    7.9600  -13.2187   27.1361 C   0  0  0  0  0  0  0  0  0  0  0  0
    6.6992  -12.6422   27.1750 C   0  0  0  0  0  0  0  0  0  0  0  0
    6.2648  -11.7343   26.2348 C   0  0  0  0  0  0  0  0  0  0  0  0
    7.1409  -11.3982   25.2171 C   0  0  0  0  0  0  0  0  0  0  0  0
    8.4049  -11.9367   25.1250 C   0  0  0  0  0  0  0  0  0  0  0  0
    8.8003  -12.8411   26.0858 C   0  0  0  0  0  0  0  0  0  0  0  0
   10.0053  -16.0819   28.5670 O   0  0  0  0  0  0  0  0  0  0  0  0
   10.7035  -15.6432   29.5453 O   0  0  0  0  0  0  0  0  0  0  0  0
  2  1  1  6
  2  3  1  0
  3  4  1  0
  4  8  1  0
  5  6  1  0
  5  4  2  0
  6  7  1  0
  7  8  2  0
  9  2  1  0
  9 10  2  0
 11 12  1  0
 12 14  1  0
 13 12  2  0
 14 15  1  0
 16 17  1  0
 16 15  1  0
 18 19  1  0
 18 17  1  6
 19  9  1  0
 20 18  1  0
 21 20  2  0
 22 20  1  0
 23 24  1  6
 23 22  1  0
 24 25  1  0
 25 30  2  0
 26 27  2  0
 26 25  1  0
 27 28  1  0
 28 29  2  0
 30 29  1  0
 31 33  1  0
 31 23  1  0
 32 31  2  0
M  END
$$$$
