HRF.pdb
     RDKit          3D

 33 34  0  0  1  0  0  0  0  0999 V2000
    5.7857  -21.0283   25.5774 N   0  0  0  0  0  0  0  0  0  0  0  0
    6.7289  -19.9987   25.9442 C   0  0  1  0  0  0  0  0  0  0  0  0
    7.7720  -20.6176   26.8488 C   0  0  0  0  0  0  0  0  0  0  0  0
    8.1884  -19.6185   27.8636 C   0  0  0  0  0  0  0  0  0  0  0  0
    7.6765  -18.3584   28.0913 C   0  0  0  0  0  0  0  0  0  0  0  0
    8.3512  -17.7958   29.1090 N   0  0  0  0  0  0  0  0  0  0  0  0
    9.2764  -18.6680   29.5301 C   0  0  0  0  0  0  0  0  0  0  0  0
    9.1746  -19.7687   28.7746 N   0  0  0  0  0  0  0  0  0  0  0  0
    7.3682  -19.3695   24.7450 C   0  0  0  0  0  0  0  0  0  0  0  0
    8.0346  -20.1188   24.0052 O   0  0  0  0  0  0  0  0  0  0  0  0
    7.2106  -11.9976   20.1155 N   0  0  0  0  0  0  0  0  0  0  0  0
    7.7897  -13.0165   19.2906 C   0  0  0  0  0  0  0  0  0  0  0  0
    8.2373  -12.7413   18.1176 N   0  0  0  0  0  0  0  0  0  0  0  0
    7.8677  -14.3350   19.7881 N   0  0  0  0  0  0  0  0  0  0  0  0
    7.3442  -14.6446   21.0889 C   0  0  0  0  0  0  0  0  0  0  0  0
    7.2820  -16.1325   21.3257 C   0  0  0  0  0  0  0  0  0  0  0  0
    6.8791  -16.4139   22.7375 C   0  0  0  0  0  0  0  0  0  0  0  0
    7.8680  -17.2628   23.4672 C   0  0  2  0  0  0  0  0  0  0  0  0
    7.1722  -17.9929   24.5426 N   0  0  0  0  0  0  0  0  0  0  0  0
    8.9163  -16.4663   24.1230 C   0  0  0  0  0  0  0  0  0  0  0  0
    9.7956  -15.9145   23.3609 O   0  0  0  0  0  0  0  0  0  0  0  0
    8.7162  -13.4982   17.5859 N   0  0  0  0  0  0  0  0  0  0  0  0
    9.0421  -16.2476   25.5139 C   0  0  1  0  0  0  0  0  0  0  0  0
   10.0969  -15.3862   26.0504 C   0  0  0  0  0  0  0  0  0  0  0  0
    9.4816  -14.3887   27.0048 C   0  0  0  0  0  0  0  0  0  0  0  0
    8.3643  -13.6492   26.4156 C   0  0  0  0  0  0  0  0  0  0  0  0
    8.3221  -13.2557   25.0863 C   0  0  0  0  0  0  0  0  0  0  0  0
    7.2610  -12.5630   24.5468 C   0  0  0  0  0  0  0  0  0  0  0  0
    6.2032  -12.2575   25.3858 C   0  0  0  0  0  0  0  0  0  0  0  0
    6.1872  -12.6210   26.7139 C   0  0  0  0  0  0  0  0  0  0  0  0
    7.2682  -13.3129   27.2140 C   0  0  0  0  0  0  0  0  0  0  0  0
   11.1817  -16.1879   26.6493 O   0  0  0  0  0  0  0  0  0  0  0  0
   11.1289  -17.4654   26.6949 O   0  0  0  0  0  0  0  0  0  0  0  0
  2  1  1  6
  2  3  1  0
  3  4  1  0
  4  8  1  0
  5  6  1  0
  5  4  2  0
  6  7  1  0
  7  8  2  0
  9  2  1  0
  9 10  2  0
 11 12  1  0
 12 14  1  0
 13 12  2  0
 14 15  1  0
 16 17  1  0
 16 15  1  0
 18 19  1  0
 18 17  1  1
 19  9  1  0
 20 18  1  0
 21 20  2  0
 22 20  1  0
 23 24  1  1
 23 22  1  0
 24 25  1  0
 25 30  2  0
 26 27  2  0
 26 25  1  0
 27 28  1  0
 28 29  2  0
 30 29  1  0
 31 33  1  0
 31 23  1  0
 32 31  2  0
M  END
$$$$
