HRF.pdb
     RDKit          3D

 33 34  0  0  1  0  0  0  0  0999 V2000
   10.1251  -16.3738   18.6698 N   0  0  0  0  0  0  0  0  0  0  0  0
   10.4593  -15.7743   19.9398 C   0  0  1  0  0  0  0  0  0  0  0  0
   10.4894  -14.2726   19.7571 C   0  0  0  0  0  0  0  0  0  0  0  0
    9.1675  -13.8180   19.2594 C   0  0  0  0  0  0  0  0  0  0  0  0
    8.0574  -14.5756   18.9502 C   0  0  0  0  0  0  0  0  0  0  0  0
    7.0769  -13.7549   18.5347 N   0  0  0  0  0  0  0  0  0  0  0  0
    7.5390  -12.4983   18.5733 C   0  0  0  0  0  0  0  0  0  0  0  0
    8.8032  -12.5408   19.0121 N   0  0  0  0  0  0  0  0  0  0  0  0
    9.4922  -16.1617   21.0156 C   0  0  0  0  0  0  0  0  0  0  0  0
    8.2856  -15.9463   20.7908 O   0  0  0  0  0  0  0  0  0  0  0  0
   10.7371  -20.6533   19.3958 N   0  0  0  0  0  0  0  0  0  0  0  0
   11.4993  -21.0971   20.5255 C   0  0  0  0  0  0  0  0  0  0  0  0
   12.7542  -21.3524   20.4162 N   0  0  0  0  0  0  0  0  0  0  0  0
   10.8509  -21.2462   21.7702 N   0  0  0  0  0  0  0  0  0  0  0  0
    9.4480  -20.9637   21.8884 C   0  0  0  0  0  0  0  0  0  0  0  0
    9.1700  -19.4829   21.8289 C   0  0  0  0  0  0  0  0  0  0  0  0
    9.4054  -18.8595   23.1671 C   0  0  0  0  0  0  0  0  0  0  0  0
    9.1375  -17.3901   23.1803 C   0  0  2  0  0  0  0  0  0  0  0  0
   10.0104  -16.7344   22.1894 N   0  0  0  0  0  0  0  0  0  0  0  0
    9.4530  -16.7733   24.4777 C   0  0  0  0  0  0  0  0  0  0  0  0
   10.6635  -16.3717   24.6565 O   0  0  0  0  0  0  0  0  0  0  0  0
   13.2580  -21.7027   21.2580 N   0  0  0  0  0  0  0  0  0  0  0  0
    8.5458  -16.5768   25.5439 C   0  0  1  0  0  0  0  0  0  0  0  0
    8.9771  -15.9570   26.7978 C   0  0  0  0  0  0  0  0  0  0  0  0
    7.7851  -15.3079   27.4629 C   0  0  0  0  0  0  0  0  0  0  0  0
    7.3107  -14.1203   26.7509 C   0  0  0  0  0  0  0  0  0  0  0  0
    6.0925  -14.0584   26.0907 C   0  0  0  0  0  0  0  0  0  0  0  0
    5.6596  -12.9312   25.4283 C   0  0  0  0  0  0  0  0  0  0  0  0
    6.4923  -11.8255   25.4349 C   0  0  0  0  0  0  0  0  0  0  0  0
    7.7129  -11.8260   26.0725 C   0  0  0  0  0  0  0  0  0  0  0  0
    8.1084  -12.9737   26.7234 C   0  0  0  0  0  0  0  0  0  0  0  0
    9.6769  -16.9318   27.6569 O   0  0  0  0  0  0  0  0  0  0  0  0
    9.6050  -18.1913   27.4436 O   0  0  0  0  0  0  0  0  0  0  0  0
  2  1  1  6
  2  3  1  0
  3  4  1  0
  4  8  1  0
  5  6  1  0
  5  4  2  0
  6  7  1  0
  7  8  2  0
  9  2  1  0
  9 10  2  0
 11 12  1  0
 12 14  1  0
 13 12  2  0
 14 15  1  0
 16 17  1  0
 16 15  1  0
 18 19  1  0
 18 17  1  1
 19  9  1  0
 20 18  1  0
 21 20  2  0
 22 20  1  0
 23 24  1  1
 23 22  1  0
 24 25  1  0
 25 30  2  0
 26 27  2  0
 26 25  1  0
 27 28  1  0
 28 29  2  0
 30 29  1  0
 31 33  1  0
 31 23  1  0
 32 31  2  0
M  END
$$$$
