HRF.pdb
     RDKit          3D

 33 34  0  0  1  0  0  0  0  0999 V2000
    8.9942  -16.3424   18.7948 N   0  0  0  0  0  0  0  0  0  0  0  0
    8.2270  -15.3207   19.4669 C   0  0  1  0  0  0  0  0  0  0  0  0
    7.0455  -14.9673   18.5903 C   0  0  0  0  0  0  0  0  0  0  0  0
    7.5409  -14.5289   17.2622 C   0  0  0  0  0  0  0  0  0  0  0  0
    8.2068  -13.3671   16.9327 C   0  0  0  0  0  0  0  0  0  0  0  0
    8.4682  -13.3785   15.6139 N   0  0  0  0  0  0  0  0  0  0  0  0
    7.9845  -14.5177   15.1018 C   0  0  0  0  0  0  0  0  0  0  0  0
    7.4248  -15.2103   16.1015 N   0  0  0  0  0  0  0  0  0  0  0  0
    7.7717  -15.7616   20.8238 C   0  0  0  0  0  0  0  0  0  0  0  0
    7.0155  -14.9876   21.4419 O   0  0  0  0  0  0  0  0  0  0  0  0
    6.9539  -23.1349   25.2445 N   0  0  0  0  0  0  0  0  0  0  0  0
    6.8736  -22.0640   26.1936 C   0  0  0  0  0  0  0  0  0  0  0  0
    6.7505  -22.3034   27.4504 N   0  0  0  0  0  0  0  0  0  0  0  0
    6.9373  -20.7332   25.7280 N   0  0  0  0  0  0  0  0  0  0  0  0
    7.2484  -20.4672   24.3517 C   0  0  0  0  0  0  0  0  0  0  0  0
    8.2876  -19.3833   24.2139 C   0  0  0  0  0  0  0  0  0  0  0  0
    8.3350  -18.8902   22.8034 C   0  0  0  0  0  0  0  0  0  0  0  0
    7.9587  -17.4503   22.6769 C   0  0  2  0  0  0  0  0  0  0  0  0
    8.2259  -17.0041   21.2973 N   0  0  0  0  0  0  0  0  0  0  0  0
    8.7600  -16.5813   23.5522 C   0  0  0  0  0  0  0  0  0  0  0  0
    9.5885  -15.7780   22.9807 O   0  0  0  0  0  0  0  0  0  0  0  0
    6.8076  -21.4994   28.1102 N   0  0  0  0  0  0  0  0  0  0  0  0
    8.6984  -16.5449   24.9641 C   0  0  2  0  0  0  0  0  0  0  0  0
    8.6205  -15.2727   25.6839 C   0  0  0  0  0  0  0  0  0  0  0  0
    7.5231  -14.4290   25.0771 C   0  0  0  0  0  0  0  0  0  0  0  0
    7.3319  -13.1551   25.7723 C   0  0  0  0  0  0  0  0  0  0  0  0
    6.1008  -12.7090   26.2295 C   0  0  0  0  0  0  0  0  0  0  0  0
    5.9390  -11.5087   26.8852 C   0  0  0  0  0  0  0  0  0  0  0  0
    7.0668  -10.7314   27.0849 C   0  0  0  0  0  0  0  0  0  0  0  0
    8.3156  -11.1204   26.6542 C   0  0  0  0  0  0  0  0  0  0  0  0
    8.4341  -12.3281   26.0026 C   0  0  0  0  0  0  0  0  0  0  0  0
    8.4644  -15.4940   27.1346 O   0  0  0  0  0  0  0  0  0  0  0  0
    9.0286  -14.7349   27.9963 O   0  0  0  0  0  0  0  0  0  0  0  0
  2  1  1  6
  2  3  1  0
  3  4  1  0
  4  8  1  0
  5  6  1  0
  5  4  2  0
  6  7  1  0
  7  8  2  0
  9  2  1  0
  9 10  2  0
 11 12  1  0
 12 14  1  0
 13 12  2  0
 14 15  1  0
 16 17  1  0
 16 15  1  0
 18 19  1  0
 18 17  1  6
 19  9  1  0
 20 18  1  0
 21 20  2  0
 22 20  1  0
 23 24  1  6
 23 22  1  0
 24 25  1  0
 25 30  2  0
 26 27  2  0
 26 25  1  0
 27 28  1  0
 28 29  2  0
 30 29  1  0
 31 33  1  0
 31 23  1  0
 32 31  2  0
M  END
$$$$
