HRF.pdb
     RDKit          3D

 33 34  0  0  1  0  0  0  0  0999 V2000
    7.4855  -16.0652   20.2005 N   0  0  0  0  0  0  0  0  0  0  0  0
    8.4398  -15.2339   20.8952 C   0  0  1  0  0  0  0  0  0  0  0  0
    8.3285  -13.8293   20.3436 C   0  0  0  0  0  0  0  0  0  0  0  0
    8.2850  -13.8922   18.8619 C   0  0  0  0  0  0  0  0  0  0  0  0
    7.3852  -13.2990   18.0015 C   0  0  0  0  0  0  0  0  0  0  0  0
    7.7190  -13.6199   16.7392 N   0  0  0  0  0  0  0  0  0  0  0  0
    8.8066  -14.4006   16.7801 C   0  0  0  0  0  0  0  0  0  0  0  0
    9.1456  -14.5627   18.0651 N   0  0  0  0  0  0  0  0  0  0  0  0
    8.2203  -15.2444   22.3765 C   0  0  0  0  0  0  0  0  0  0  0  0
    8.9761  -14.5288   23.0618 O   0  0  0  0  0  0  0  0  0  0  0  0
    7.3262  -23.5984   22.3117 N   0  0  0  0  0  0  0  0  0  0  0  0
    7.4936  -22.3185   21.6889 C   0  0  0  0  0  0  0  0  0  0  0  0
    7.1700  -22.1355   20.4585 N   0  0  0  0  0  0  0  0  0  0  0  0
    8.0171  -21.2519   22.4507 N   0  0  0  0  0  0  0  0  0  0  0  0
    7.2678  -20.7216   23.5549 C   0  0  0  0  0  0  0  0  0  0  0  0
    6.7346  -19.3430   23.2566 C   0  0  0  0  0  0  0  0  0  0  0  0
    7.8423  -18.3402   23.3031 C   0  0  0  0  0  0  0  0  0  0  0  0
    7.4347  -17.0512   23.9382 C   0  0  2  0  0  0  0  0  0  0  0  0
    7.1881  -16.0528   22.8818 N   0  0  0  0  0  0  0  0  0  0  0  0
    8.4892  -16.4896   24.7962 C   0  0  0  0  0  0  0  0  0  0  0  0
    9.6413  -16.2928   24.2555 O   0  0  0  0  0  0  0  0  0  0  0  0
    7.3654  -21.2046   20.0338 N   0  0  0  0  0  0  0  0  0  0  0  0
    8.3500  -16.1415   26.1592 C   0  0  1  0  0  0  0  0  0  0  0  0
    9.5075  -15.7306   26.9555 C   0  0  0  0  0  0  0  0  0  0  0  0
    9.1369  -14.5151   27.7738 C   0  0  0  0  0  0  0  0  0  0  0  0
    8.1277  -13.6764   27.1255 C   0  0  0  0  0  0  0  0  0  0  0  0
    7.6077  -13.9382   25.8666 C   0  0  0  0  0  0  0  0  0  0  0  0
    6.6554  -13.1402   25.2722 C   0  0  0  0  0  0  0  0  0  0  0  0
    6.2138  -12.0355   25.9799 C   0  0  0  0  0  0  0  0  0  0  0  0
    6.6921  -11.7236   27.2330 C   0  0  0  0  0  0  0  0  0  0  0  0
    7.6439  -12.5477   27.7918 C   0  0  0  0  0  0  0  0  0  0  0  0
   10.0206  -16.8544   27.7627 O   0  0  0  0  0  0  0  0  0  0  0  0
    9.4239  -17.9856   27.7988 O   0  0  0  0  0  0  0  0  0  0  0  0
  2  1  1  6
  2  3  1  0
  3  4  1  0
  4  8  1  0
  5  6  1  0
  5  4  2  0
  6  7  1  0
  7  8  2  0
  9  2  1  0
  9 10  2  0
 11 12  1  0
 12 14  1  0
 13 12  2  0
 14 15  1  0
 16 17  1  0
 16 15  1  0
 18 19  1  0
 18 17  1  6
 19  9  1  0
 20 18  1  0
 21 20  2  0
 22 20  1  0
 23 24  1  6
 23 22  1  0
 24 25  1  0
 25 30  2  0
 26 27  2  0
 26 25  1  0
 27 28  1  0
 28 29  2  0
 30 29  1  0
 31 33  1  0
 31 23  1  0
 32 31  2  0
M  END
$$$$
