HRF.pdb
     RDKit          3D

 33 34  0  0  1  0  0  0  0  0999 V2000
    9.6164  -15.2649   20.2389 N   0  0  0  0  0  0  0  0  0  0  0  0
    8.6256  -14.6945   21.1205 C   0  0  1  0  0  0  0  0  0  0  0  0
    7.3100  -14.6387   20.3752 C   0  0  0  0  0  0  0  0  0  0  0  0
    7.5388  -14.0554   19.0302 C   0  0  0  0  0  0  0  0  0  0  0  0
    7.8077  -12.7450   18.6949 C   0  0  0  0  0  0  0  0  0  0  0  0
    7.9447  -12.6604   17.3601 N   0  0  0  0  0  0  0  0  0  0  0  0
    7.7693  -13.8837   16.8435 C   0  0  0  0  0  0  0  0  0  0  0  0
    7.5242  -14.7241   17.8565 N   0  0  0  0  0  0  0  0  0  0  0  0
    8.4870  -15.4762   22.3902 C   0  0  0  0  0  0  0  0  0  0  0  0
    7.4630  -15.2682   23.0693 O   0  0  0  0  0  0  0  0  0  0  0  0
   11.4932  -18.7757   19.7037 N   0  0  0  0  0  0  0  0  0  0  0  0
   10.9633  -20.1047   19.6201 C   0  0  0  0  0  0  0  0  0  0  0  0
   10.5879  -20.5962   18.4933 N   0  0  0  0  0  0  0  0  0  0  0  0
   10.8630  -20.8749   20.7985 N   0  0  0  0  0  0  0  0  0  0  0  0
   11.0319  -20.2518   22.0811 C   0  0  0  0  0  0  0  0  0  0  0  0
   10.0877  -19.0908   22.2661 C   0  0  0  0  0  0  0  0  0  0  0  0
   10.2700  -18.4886   23.6222 C   0  0  0  0  0  0  0  0  0  0  0  0
    9.3860  -17.3080   23.8588 C   0  0  2  0  0  0  0  0  0  0  0  0
    9.5116  -16.3791   22.7209 N   0  0  0  0  0  0  0  0  0  0  0  0
    9.7744  -16.5465   25.0557 C   0  0  0  0  0  0  0  0  0  0  0  0
   10.8312  -15.8158   24.9678 O   0  0  0  0  0  0  0  0  0  0  0  0
   10.1904  -21.5590   18.4868 N   0  0  0  0  0  0  0  0  0  0  0  0
    9.0889  -16.5403   26.2920 C   0  0  1  0  0  0  0  0  0  0  0  0
    9.6214  -15.8159   27.4470 C   0  0  0  0  0  0  0  0  0  0  0  0
    8.4893  -15.0950   28.1421 C   0  0  0  0  0  0  0  0  0  0  0  0
    7.8519  -14.0842   27.2969 C   0  0  0  0  0  0  0  0  0  0  0  0
    8.3878  -12.8249   27.0720 C   0  0  0  0  0  0  0  0  0  0  0  0
    7.7763  -11.8864   26.2706 C   0  0  0  0  0  0  0  0  0  0  0  0
    6.5770  -12.2371   25.6750 C   0  0  0  0  0  0  0  0  0  0  0  0
    5.9954  -13.4715   25.8603 C   0  0  0  0  0  0  0  0  0  0  0  0
    6.6396  -14.3814   26.6693 C   0  0  0  0  0  0  0  0  0  0  0  0
   10.3820  -16.7183   28.3332 O   0  0  0  0  0  0  0  0  0  0  0  0
   10.3565  -17.9886   28.1834 O   0  0  0  0  0  0  0  0  0  0  0  0
  2  1  1  6
  2  3  1  0
  3  4  1  0
  4  8  1  0
  5  6  1  0
  5  4  2  0
  6  7  1  0
  7  8  2  0
  9  2  1  0
  9 10  2  0
 11 12  1  0
 12 14  1  0
 13 12  2  0
 14 15  1  0
 16 17  1  0
 16 15  1  0
 18 19  1  0
 18 17  1  6
 19  9  1  0
 20 18  1  0
 21 20  2  0
 22 20  1  0
 23 24  1  6
 23 22  1  0
 24 25  1  0
 25 30  2  0
 26 27  2  0
 26 25  1  0
 27 28  1  0
 28 29  2  0
 30 29  1  0
 31 33  1  0
 31 23  1  0
 32 31  2  0
M  END
$$$$
