HRF.pdb
     RDKit          3D

 33 34  0  0  1  0  0  0  0  0999 V2000
    8.0913  -16.6044   19.9167 N   0  0  0  0  0  0  0  0  0  0  0  0
    8.4017  -15.6662   20.9692 C   0  0  1  0  0  0  0  0  0  0  0  0
    7.3455  -14.5829   20.9596 C   0  0  0  0  0  0  0  0  0  0  0  0
    7.3979  -13.8661   19.6615 C   0  0  0  0  0  0  0  0  0  0  0  0
    7.9477  -12.6328   19.3810 C   0  0  0  0  0  0  0  0  0  0  0  0
    7.7717  -12.3688   18.0745 N   0  0  0  0  0  0  0  0  0  0  0  0
    7.1247  -13.4035   17.5224 C   0  0  0  0  0  0  0  0  0  0  0  0
    6.9007  -14.3066   18.4851 N   0  0  0  0  0  0  0  0  0  0  0  0
    8.4733  -16.3297   22.3099 C   0  0  0  0  0  0  0  0  0  0  0  0
    7.3893  -16.5929   22.8654 O   0  0  0  0  0  0  0  0  0  0  0  0
   13.7573  -19.6587   27.1120 N   0  0  0  0  0  0  0  0  0  0  0  0
   13.1291  -20.9103   26.8073 C   0  0  0  0  0  0  0  0  0  0  0  0
   12.8315  -21.7439   27.7394 N   0  0  0  0  0  0  0  0  0  0  0  0
   12.8343  -21.2163   25.4614 N   0  0  0  0  0  0  0  0  0  0  0  0
   12.6369  -20.1587   24.5104 C   0  0  0  0  0  0  0  0  0  0  0  0
   11.3959  -19.3583   24.8155 C   0  0  0  0  0  0  0  0  0  0  0  0
   11.1348  -18.3738   23.7213 C   0  0  0  0  0  0  0  0  0  0  0  0
    9.9276  -17.5309   23.9721 C   0  0  2  0  0  0  0  0  0  0  0  0
    9.7454  -16.6048   22.8394 N   0  0  0  0  0  0  0  0  0  0  0  0
   10.0684  -16.6907   25.1711 C   0  0  0  0  0  0  0  0  0  0  0  0
   10.9778  -15.7793   25.1443 O   0  0  0  0  0  0  0  0  0  0  0  0
   12.3963  -22.6499   27.4657 N   0  0  0  0  0  0  0  0  0  0  0  0
    9.2917  -16.7902   26.3481 C   0  0  2  0  0  0  0  0  0  0  0  0
    9.6497  -16.0425   27.5544 C   0  0  0  0  0  0  0  0  0  0  0  0
    8.4191  -15.3433   28.0848 C   0  0  0  0  0  0  0  0  0  0  0  0
    7.9626  -14.2553   27.2186 C   0  0  0  0  0  0  0  0  0  0  0  0
    8.6390  -13.0527   27.0781 C   0  0  0  0  0  0  0  0  0  0  0  0
    8.1973  -12.0402   26.2555 C   0  0  0  0  0  0  0  0  0  0  0  0
    7.0263  -12.2544   25.5491 C   0  0  0  0  0  0  0  0  0  0  0  0
    6.3107  -13.4268   25.6469 C   0  0  0  0  0  0  0  0  0  0  0  0
    6.7870  -14.4143   26.4807 C   0  0  0  0  0  0  0  0  0  0  0  0
   10.3068  -16.9178   28.5444 O   0  0  0  0  0  0  0  0  0  0  0  0
   10.7626  -16.4616   29.6494 O   0  0  0  0  0  0  0  0  0  0  0  0
  2  1  1  6
  2  3  1  0
  3  4  1  0
  4  8  1  0
  5  6  1  0
  5  4  2  0
  6  7  1  0
  7  8  2  0
  9  2  1  0
  9 10  2  0
 11 12  1  0
 12 14  1  0
 13 12  2  0
 14 15  1  0
 16 17  1  0
 16 15  1  0
 18 19  1  0
 18 17  1  6
 19  9  1  0
 20 18  1  0
 21 20  2  0
 22 20  1  0
 23 24  1  6
 23 22  1  0
 24 25  1  0
 25 30  2  0
 26 27  2  0
 26 25  1  0
 27 28  1  0
 28 29  2  0
 30 29  1  0
 31 33  1  0
 31 23  1  0
 32 31  2  0
M  END
$$$$
