HRF.pdb
     RDKit          3D

 33 34  0  0  1  0  0  0  0  0999 V2000
    9.3313  -14.7680   19.9153 N   0  0  0  0  0  0  0  0  0  0  0  0
    8.3163  -13.9623   20.5516 C   0  0  1  0  0  0  0  0  0  0  0  0
    7.3487  -13.4973   19.4853 C   0  0  0  0  0  0  0  0  0  0  0  0
    7.7697  -14.0496   18.1741 C   0  0  0  0  0  0  0  0  0  0  0  0
    8.1425  -13.3699   17.0336 C   0  0  0  0  0  0  0  0  0  0  0  0
    8.4465  -14.2649   16.0775 N   0  0  0  0  0  0  0  0  0  0  0  0
    8.2753  -15.4928   16.5847 C   0  0  0  0  0  0  0  0  0  0  0  0
    7.8662  -15.3582   17.8524 N   0  0  0  0  0  0  0  0  0  0  0  0
    7.5999  -14.7117   21.6321 C   0  0  0  0  0  0  0  0  0  0  0  0
    6.6386  -14.1334   22.1748 O   0  0  0  0  0  0  0  0  0  0  0  0
    5.5338  -22.8687   23.1332 N   0  0  0  0  0  0  0  0  0  0  0  0
    5.6368  -22.3790   24.4762 C   0  0  0  0  0  0  0  0  0  0  0  0
    5.1616  -23.0520   25.4627 N   0  0  0  0  0  0  0  0  0  0  0  0
    6.2761  -21.1415   24.7043 N   0  0  0  0  0  0  0  0  0  0  0  0
    6.7178  -20.3452   23.5940 C   0  0  0  0  0  0  0  0  0  0  0  0
    7.3289  -19.0439   24.0488 C   0  0  0  0  0  0  0  0  0  0  0  0
    7.7030  -18.2085   22.8669 C   0  0  0  0  0  0  0  0  0  0  0  0
    7.5270  -16.7451   23.1088 C   0  0  2  0  0  0  0  0  0  0  0  0
    8.0589  -16.0005   21.9529 N   0  0  0  0  0  0  0  0  0  0  0  0
    8.2798  -16.2753   24.2818 C   0  0  0  0  0  0  0  0  0  0  0  0
    9.5172  -15.9687   24.0995 O   0  0  0  0  0  0  0  0  0  0  0  0
    5.1792  -22.6146   26.4079 N   0  0  0  0  0  0  0  0  0  0  0  0
    7.7657  -16.1250   25.5901 C   0  0  2  0  0  0  0  0  0  0  0  0
    8.6243  -15.6915   26.6935 C   0  0  0  0  0  0  0  0  0  0  0  0
    7.8204  -14.8201   27.6311 C   0  0  0  0  0  0  0  0  0  0  0  0
    7.3553  -13.5827   27.0026 C   0  0  0  0  0  0  0  0  0  0  0  0
    6.0361  -13.3571   26.6387 C   0  0  0  0  0  0  0  0  0  0  0  0
    5.6144  -12.1850   26.0511 C   0  0  0  0  0  0  0  0  0  0  0  0
    6.5651  -11.2050   25.8237 C   0  0  0  0  0  0  0  0  0  0  0  0
    7.8895  -11.3702   26.1628 C   0  0  0  0  0  0  0  0  0  0  0  0
    8.2698  -12.5575   26.7485 C   0  0  0  0  0  0  0  0  0  0  0  0
    9.2585  -16.8474   27.3565 O   0  0  0  0  0  0  0  0  0  0  0  0
    8.9144  -18.0501   27.0882 O   0  0  0  0  0  0  0  0  0  0  0  0
  2  1  1  6
  2  3  1  0
  3  4  1  0
  4  8  1  0
  5  6  1  0
  5  4  2  0
  6  7  1  0
  7  8  2  0
  9  2  1  0
  9 10  2  0
 11 12  1  0
 12 14  1  0
 13 12  2  0
 14 15  1  0
 16 17  1  0
 16 15  1  0
 18 19  1  0
 18 17  1  6
 19  9  1  0
 20 18  1  0
 21 20  2  0
 22 20  1  0
 23 24  1  6
 23 22  1  0
 24 25  1  0
 25 30  2  0
 26 27  2  0
 26 25  1  0
 27 28  1  0
 28 29  2  0
 30 29  1  0
 31 33  1  0
 31 23  1  0
 32 31  2  0
M  END
$$$$
