CGA.pdb
     RDKit          3D

 16 15  0  0  1  0  0  0  0  0999 V2000
    5.7208  -14.3106   26.2677 N   0  0  0  0  0  0  0  0  0  0  0  0
    6.5271  -13.6186   25.2905 C   0  0  1  0  0  0  0  0  0  0  0  0
    7.5255  -12.7078   25.9667 C   0  0  0  0  0  0  0  0  0  0  0  0
    6.6946  -11.3116   26.7685 S   0  0  0  0  0  0  0  0  0  0  0  0
    7.2674  -14.5476   24.4168 C   0  0  0  0  0  0  0  0  0  0  0  0
    7.4225  -15.7307   24.8062 O   0  0  0  0  0  0  0  0  0  0  0  0
    7.7911  -14.1242   23.1729 N   0  0  0  0  0  0  0  0  0  0  0  0
    8.1880  -15.0757   22.1894 C   0  0  0  0  0  0  0  0  0  0  0  0
    9.4857  -15.7057   22.4548 C   0  0  0  0  0  0  0  0  0  0  0  0
   10.1231  -16.3895   21.6106 O   0  0  0  0  0  0  0  0  0  0  0  0
   12.0530  -15.3884   25.1545 C   0  0  0  0  0  0  0  0  0  0  0  0
   11.3855  -16.1402   24.0234 C   0  0  2  0  0  0  0  0  0  0  0  0
   10.0794  -15.5478   23.7373 N   0  0  0  0  0  0  0  0  0  0  0  0
   11.1737  -17.5554   24.4237 C   0  0  0  0  0  0  0  0  0  0  0  0
   12.1534  -18.3147   24.6436 O   0  0  0  0  0  0  0  0  0  0  0  0
    9.9076  -18.1141   24.5762 O   0  0  0  0  0  0  0  0  0  0  0  0
  2  1  1  1
  3  2  1  0
  4  3  1  0
  5  2  1  0
  5  6  2  0
  7  5  1  0
  8  7  1  0
  9  8  1  0
 10  9  2  0
 12 13  1  0
 12 11  1  1
 13  9  1  0
 14 12  1  0
 15 14  2  0
 16 14  1  0
M  END
$$$$
