CGA.pdb
     RDKit          3D

 16 15  0  0  1  0  0  0  0  0999 V2000
    7.5661  -13.7484   27.1096 N   0  0  0  0  0  0  0  0  0  0  0  0
    6.8963  -13.4245   25.8726 C   0  0  1  0  0  0  0  0  0  0  0  0
    6.5972  -11.9453   25.7957 C   0  0  0  0  0  0  0  0  0  0  0  0
    5.5674  -11.4157   27.1893 S   0  0  0  0  0  0  0  0  0  0  0  0
    7.6947  -13.7963   24.6899 C   0  0  0  0  0  0  0  0  0  0  0  0
    8.7051  -13.1039   24.4157 O   0  0  0  0  0  0  0  0  0  0  0  0
    7.3378  -14.9011   23.8821 N   0  0  0  0  0  0  0  0  0  0  0  0
    8.1188  -15.2512   22.7429 C   0  0  0  0  0  0  0  0  0  0  0  0
    9.3108  -16.0467   23.0554 C   0  0  0  0  0  0  0  0  0  0  0  0
   10.0457  -16.5865   22.1866 O   0  0  0  0  0  0  0  0  0  0  0  0
   11.8256  -16.3118   25.5613 C   0  0  0  0  0  0  0  0  0  0  0  0
   10.8059  -17.0964   24.7647 C   0  0  2  0  0  0  0  0  0  0  0  0
    9.6780  -16.2331   24.4165 N   0  0  0  0  0  0  0  0  0  0  0  0
   10.2906  -18.2213   25.5874 C   0  0  0  0  0  0  0  0  0  0  0  0
    9.1439  -18.1671   26.1040 O   0  0  0  0  0  0  0  0  0  0  0  0
   11.0284  -19.3766   25.8310 O   0  0  0  0  0  0  0  0  0  0  0  0
  2  1  1  1
  3  2  1  0
  4  3  1  0
  5  2  1  0
  5  6  2  0
  7  5  1  0
  8  7  1  0
  9  8  1  0
 10  9  2  0
 12 13  1  0
 12 11  1  1
 13  9  1  0
 14 12  1  0
 15 14  2  0
 16 14  1  0
M  END
$$$$
