CGA.pdb
     RDKit          3D

 16 15  0  0  1  0  0  0  0  0999 V2000
    7.1564  -15.1163   19.9073 N   0  0  0  0  0  0  0  0  0  0  0  0
    8.0608  -14.5027   20.8504 C   0  0  1  0  0  0  0  0  0  0  0  0
    7.8229  -13.0126   20.9303 C   0  0  0  0  0  0  0  0  0  0  0  0
    8.2467  -12.2006   19.3669 S   0  0  0  0  0  0  0  0  0  0  0  0
    7.9224  -15.0657   22.2062 C   0  0  0  0  0  0  0  0  0  0  0  0
    6.7770  -15.1029   22.7181 O   0  0  0  0  0  0  0  0  0  0  0  0
    9.0448  -15.5523   22.9162 N   0  0  0  0  0  0  0  0  0  0  0  0
    8.8866  -16.1744   24.1882 C   0  0  0  0  0  0  0  0  0  0  0  0
    9.6734  -15.5549   25.2599 C   0  0  0  0  0  0  0  0  0  0  0  0
   10.8969  -15.7800   25.4566 O   0  0  0  0  0  0  0  0  0  0  0  0
    8.9196  -13.0281   27.9638 C   0  0  0  0  0  0  0  0  0  0  0  0
    9.7722  -14.0676   27.2691 C   0  0  2  0  0  0  0  0  0  0  0  0
    9.0358  -14.6408   26.1432 N   0  0  0  0  0  0  0  0  0  0  0  0
   10.0916  -15.1645   28.2192 C   0  0  0  0  0  0  0  0  0  0  0  0
   10.8780  -14.9712   29.1831 O   0  0  0  0  0  0  0  0  0  0  0  0
    9.5527  -16.4430   28.1031 O   0  0  0  0  0  0  0  0  0  0  0  0
  2  1  1  6
  3  2  1  0
  4  3  1  0
  5  2  1  0
  5  6  2  0
  7  5  1  0
  8  7  1  0
  9  8  1  0
 10  9  2  0
 12 13  1  0
 12 11  1  1
 13  9  1  0
 14 12  1  0
 15 14  2  0
 16 14  1  0
M  END
$$$$
