CGA.pdb
     RDKit          3D

 16 15  0  0  1  0  0  0  0  0999 V2000
    5.4487  -14.3385   25.6808 N   0  0  0  0  0  0  0  0  0  0  0  0
    6.3053  -13.3316   25.1008 C   0  0  1  0  0  0  0  0  0  0  0  0
    6.5526  -12.2083   26.0809 C   0  0  0  0  0  0  0  0  0  0  0  0
    5.0532  -11.8234   27.0224 S   0  0  0  0  0  0  0  0  0  0  0  0
    7.6105  -13.8784   24.6863 C   0  0  0  0  0  0  0  0  0  0  0  0
    8.4787  -13.0793   24.2585 O   0  0  0  0  0  0  0  0  0  0  0  0
    7.8836  -15.2640   24.7657 N   0  0  0  0  0  0  0  0  0  0  0  0
    9.1351  -15.7846   24.3265 C   0  0  0  0  0  0  0  0  0  0  0  0
   10.1723  -15.8052   25.3634 C   0  0  0  0  0  0  0  0  0  0  0  0
   11.3334  -16.2615   25.1900 O   0  0  0  0  0  0  0  0  0  0  0  0
   10.7191  -14.1659   28.6412 C   0  0  0  0  0  0  0  0  0  0  0  0
   10.8539  -15.3667   27.7302 C   0  0  2  0  0  0  0  0  0  0  0  0
    9.8703  -15.2831   26.6512 N   0  0  0  0  0  0  0  0  0  0  0  0
   10.5894  -16.6086   28.5019 C   0  0  0  0  0  0  0  0  0  0  0  0
    9.5508  -17.2879   28.2903 O   0  0  0  0  0  0  0  0  0  0  0  0
   11.4546  -17.0848   29.4833 O   0  0  0  0  0  0  0  0  0  0  0  0
  2  1  1  1
  3  2  1  0
  4  3  1  0
  5  2  1  0
  5  6  2  0
  7  5  1  0
  8  7  1  0
  9  8  1  0
 10  9  2  0
 12 13  1  0
 12 11  1  1
 13  9  1  0
 14 12  1  0
 15 14  2  0
 16 14  1  0
M  END
$$$$
