CGA.pdb
     RDKit          3D

 16 15  0  0  1  0  0  0  0  0999 V2000
    6.7569  -15.0480   22.3280 N   0  0  0  0  0  0  0  0  0  0  0  0
    8.1174  -14.5818   22.2039 C   0  0  1  0  0  0  0  0  0  0  0  0
    8.2337  -13.1420   22.6478 C   0  0  0  0  0  0  0  0  0  0  0  0
    6.7657  -12.6258   23.5758 S   0  0  0  0  0  0  0  0  0  0  0  0
    9.0602  -15.3883   23.0007 C   0  0  0  0  0  0  0  0  0  0  0  0
   10.2879  -15.1573   22.8781 O   0  0  0  0  0  0  0  0  0  0  0  0
    8.6013  -16.3959   23.8808 N   0  0  0  0  0  0  0  0  0  0  0  0
    9.5243  -17.2021   24.6075 C   0  0  0  0  0  0  0  0  0  0  0  0
   10.3078  -16.4650   25.6046 C   0  0  0  0  0  0  0  0  0  0  0  0
   11.5595  -16.5462   25.7181 O   0  0  0  0  0  0  0  0  0  0  0  0
    9.6994  -13.6673   27.9893 C   0  0  0  0  0  0  0  0  0  0  0  0
   10.3599  -14.9763   27.6145 C   0  0  2  0  0  0  0  0  0  0  0  0
    9.6331  -15.5996   26.5092 N   0  0  0  0  0  0  0  0  0  0  0  0
   10.3206  -15.9034   28.7750 C   0  0  0  0  0  0  0  0  0  0  0  0
   10.9334  -15.6272   29.8394 O   0  0  0  0  0  0  0  0  0  0  0  0
    9.6194  -17.1061   28.7555 O   0  0  0  0  0  0  0  0  0  0  0  0
  2  1  1  1
  3  2  1  0
  4  3  1  0
  5  2  1  0
  5  6  2  0
  7  5  1  0
  8  7  1  0
  9  8  1  0
 10  9  2  0
 12 13  1  0
 12 11  1  1
 13  9  1  0
 14 12  1  0
 15 14  2  0
 16 14  1  0
M  END
$$$$
