CGA.pdb
     RDKit          3D

 16 15  0  0  1  0  0  0  0  0999 V2000
    9.0807  -14.9529   19.3201 N   0  0  0  0  0  0  0  0  0  0  0  0
    8.3457  -14.4473   20.4551 C   0  0  1  0  0  0  0  0  0  0  0  0
    7.5125  -13.2488   20.0640 C   0  0  0  0  0  0  0  0  0  0  0  0
    8.5638  -11.8416   19.6196 S   0  0  0  0  0  0  0  0  0  0  0  0
    7.4493  -15.4623   21.0385 C   0  0  0  0  0  0  0  0  0  0  0  0
    6.8943  -16.2785   20.2632 O   0  0  0  0  0  0  0  0  0  0  0  0
    7.2165  -15.5206   22.4325 N   0  0  0  0  0  0  0  0  0  0  0  0
    6.4004  -16.5463   22.9911 C   0  0  0  0  0  0  0  0  0  0  0  0
    6.6364  -16.7890   24.4182 C   0  0  0  0  0  0  0  0  0  0  0  0
    6.2548  -16.0168   25.3371 O   0  0  0  0  0  0  0  0  0  0  0  0
    7.4254  -19.7428   26.4699 C   0  0  0  0  0  0  0  0  0  0  0  0
    7.5504  -18.2541   26.2284 C   0  0  2  0  0  0  0  0  0  0  0  0
    7.3373  -17.9622   24.8114 N   0  0  0  0  0  0  0  0  0  0  0  0
    8.9189  -17.8043   26.5926 C   0  0  0  0  0  0  0  0  0  0  0  0
    9.7798  -18.6286   26.9981 O   0  0  0  0  0  0  0  0  0  0  0  0
    9.3223  -16.4744   26.5091 O   0  0  0  0  0  0  0  0  0  0  0  0
  2  1  1  6
  3  2  1  0
  4  3  1  0
  5  2  1  0
  5  6  2  0
  7  5  1  0
  8  7  1  0
  9  8  1  0
 10  9  2  0
 12 13  1  0
 12 11  1  6
 13  9  1  0
 14 12  1  0
 15 14  2  0
 16 14  1  0
M  END
$$$$
