CGA.pdb
     RDKit          3D

 16 15  0  0  1  0  0  0  0  0999 V2000
    7.6737  -18.0760   20.3674 N   0  0  0  0  0  0  0  0  0  0  0  0
    8.2349  -16.8075   20.7671 C   0  0  1  0  0  0  0  0  0  0  0  0
    7.8996  -15.7315   19.7604 C   0  0  0  0  0  0  0  0  0  0  0  0
    8.8856  -15.9206   18.2521 S   0  0  0  0  0  0  0  0  0  0  0  0
    7.7476  -16.3714   22.0887 C   0  0  0  0  0  0  0  0  0  0  0  0
    6.5075  -16.2985   22.2684 O   0  0  0  0  0  0  0  0  0  0  0  0
    8.6468  -16.0427   23.1298 N   0  0  0  0  0  0  0  0  0  0  0  0
    8.1635  -15.6750   24.4188 C   0  0  0  0  0  0  0  0  0  0  0  0
    9.2140  -15.2723   25.3599 C   0  0  0  0  0  0  0  0  0  0  0  0
   10.4452  -15.4439   25.1577 O   0  0  0  0  0  0  0  0  0  0  0  0
    9.2716  -13.1062   28.4174 C   0  0  0  0  0  0  0  0  0  0  0  0
    9.8679  -14.1499   27.4980 C   0  0  2  0  0  0  0  0  0  0  0  0
    8.8422  -14.6480   26.5823 N   0  0  0  0  0  0  0  0  0  0  0  0
   10.3653  -15.2957   28.3027 C   0  0  0  0  0  0  0  0  0  0  0  0
    9.7032  -16.3638   28.3781 O   0  0  0  0  0  0  0  0  0  0  0  0
   11.5663  -15.2578   29.0060 O   0  0  0  0  0  0  0  0  0  0  0  0
  2  1  1  6
  3  2  1  0
  4  3  1  0
  5  2  1  0
  5  6  2  0
  7  5  1  0
  8  7  1  0
  9  8  1  0
 10  9  2  0
 12 13  1  0
 12 11  1  1
 13  9  1  0
 14 12  1  0
 15 14  2  0
 16 14  1  0
M  END
$$$$
