CGA.pdb
     RDKit          3D

 16 15  0  0  1  0  0  0  0  0999 V2000
    5.4059  -20.1471   22.4726 N   0  0  0  0  0  0  0  0  0  0  0  0
    5.6015  -18.7867   22.0311 C   0  0  1  0  0  0  0  0  0  0  0  0
    4.6415  -18.4410   20.9165 C   0  0  0  0  0  0  0  0  0  0  0  0
    2.9524  -18.9496   21.3305 S   0  0  0  0  0  0  0  0  0  0  0  0
    5.4134  -17.8119   23.1214 C   0  0  0  0  0  0  0  0  0  0  0  0
    4.2885  -17.2686   23.2428 O   0  0  0  0  0  0  0  0  0  0  0  0
    6.4669  -17.4931   24.0097 N   0  0  0  0  0  0  0  0  0  0  0  0
    6.2571  -16.5906   25.0922 C   0  0  0  0  0  0  0  0  0  0  0  0
    7.3751  -15.6717   25.3312 C   0  0  0  0  0  0  0  0  0  0  0  0
    8.4769  -15.7289   24.7237 O   0  0  0  0  0  0  0  0  0  0  0  0
    7.8107  -12.5297   27.3597 C   0  0  0  0  0  0  0  0  0  0  0  0
    8.3212  -13.7080   26.5590 C   0  0  2  0  0  0  0  0  0  0  0  0
    7.2278  -14.6451   26.3042 N   0  0  0  0  0  0  0  0  0  0  0  0
    9.3692  -14.4201   27.3352 C   0  0  0  0  0  0  0  0  0  0  0  0
    9.1096  -15.5026   27.9231 O   0  0  0  0  0  0  0  0  0  0  0  0
   10.6719  -13.9437   27.4562 O   0  0  0  0  0  0  0  0  0  0  0  0
  2  1  1  1
  3  2  1  0
  4  3  1  0
  5  2  1  0
  5  6  2  0
  7  5  1  0
  8  7  1  0
  9  8  1  0
 10  9  2  0
 12 13  1  0
 12 11  1  1
 13  9  1  0
 14 12  1  0
 15 14  2  0
 16 14  1  0
M  END
$$$$
