CGA.pdb
     RDKit          3D

 16 15  0  0  1  0  0  0  0  0999 V2000
    8.0592  -12.7629   27.1238 N   0  0  0  0  0  0  0  0  0  0  0  0
    6.9466  -13.2699   26.3563 C   0  0  1  0  0  0  0  0  0  0  0  0
    6.0664  -12.1393   25.8764 C   0  0  0  0  0  0  0  0  0  0  0  0
    5.3173  -11.2595   27.2720 S   0  0  0  0  0  0  0  0  0  0  0  0
    7.3845  -14.0451   25.1809 C   0  0  0  0  0  0  0  0  0  0  0  0
    8.2161  -13.5200   24.4012 O   0  0  0  0  0  0  0  0  0  0  0  0
    6.8854  -15.3451   24.9326 N   0  0  0  0  0  0  0  0  0  0  0  0
    7.3596  -16.1067   23.8257 C   0  0  0  0  0  0  0  0  0  0  0  0
    8.5917  -16.8548   24.0972 C   0  0  0  0  0  0  0  0  0  0  0  0
    9.0530  -17.7512   23.3422 O   0  0  0  0  0  0  0  0  0  0  0  0
   11.7077  -16.3608   25.7464 C   0  0  0  0  0  0  0  0  0  0  0  0
   10.5435  -17.3153   25.5929 C   0  0  2  0  0  0  0  0  0  0  0  0
    9.3268  -16.5668   25.2799 N   0  0  0  0  0  0  0  0  0  0  0  0
   10.3240  -18.0416   26.8704 C   0  0  0  0  0  0  0  0  0  0  0  0
   11.1964  -18.8301   27.3196 O   0  0  0  0  0  0  0  0  0  0  0  0
    9.1664  -17.8969   27.6304 O   0  0  0  0  0  0  0  0  0  0  0  0
  2  1  1  6
  3  2  1  0
  4  3  1  0
  5  2  1  0
  5  6  2  0
  7  5  1  0
  8  7  1  0
  9  8  1  0
 10  9  2  0
 12 13  1  0
 12 11  1  1
 13  9  1  0
 14 12  1  0
 15 14  2  0
 16 14  1  0
M  END
$$$$
