CGA.pdb
     RDKit          3D

 16 15  0  0  1  0  0  0  0  0999 V2000
    7.2423  -15.3982   19.7473 N   0  0  0  0  0  0  0  0  0  0  0  0
    7.9564  -14.5396   20.6621 C   0  0  1  0  0  0  0  0  0  0  0  0
    7.6631  -13.0857   20.3730 C   0  0  0  0  0  0  0  0  0  0  0  0
    8.3040  -12.6023   18.7487 S   0  0  0  0  0  0  0  0  0  0  0  0
    7.6096  -14.8097   22.0696 C   0  0  0  0  0  0  0  0  0  0  0  0
    6.4161  -15.0855   22.3432 O   0  0  0  0  0  0  0  0  0  0  0  0
    8.5894  -14.7612   23.0885 N   0  0  0  0  0  0  0  0  0  0  0  0
    8.2718  -15.1506   24.4217 C   0  0  0  0  0  0  0  0  0  0  0  0
    9.3803  -14.9992   25.3702 C   0  0  0  0  0  0  0  0  0  0  0  0
   10.5847  -14.8581   25.0301 O   0  0  0  0  0  0  0  0  0  0  0  0
    9.6436  -13.8051   28.8100 C   0  0  0  0  0  0  0  0  0  0  0  0
   10.1622  -14.7314   27.7315 C   0  0  2  0  0  0  0  0  0  0  0  0
    9.1009  -15.0094   26.7645 N   0  0  0  0  0  0  0  0  0  0  0  0
   10.5811  -16.0198   28.3416 C   0  0  0  0  0  0  0  0  0  0  0  0
    9.8692  -17.0508   28.2186 O   0  0  0  0  0  0  0  0  0  0  0  0
   11.7595  -16.1611   29.0695 O   0  0  0  0  0  0  0  0  0  0  0  0
  2  1  1  6
  3  2  1  0
  4  3  1  0
  5  2  1  0
  5  6  2  0
  7  5  1  0
  8  7  1  0
  9  8  1  0
 10  9  2  0
 12 13  1  0
 12 11  1  1
 13  9  1  0
 14 12  1  0
 15 14  2  0
 16 14  1  0
M  END
$$$$
