CGA.pdb
     RDKit          3D

 16 15  0  0  1  0  0  0  0  0999 V2000
   10.5185  -18.8755   21.8584 N   0  0  0  0  0  0  0  0  0  0  0  0
   10.9490  -17.5740   21.4059 C   0  0  1  0  0  0  0  0  0  0  0  0
   10.3906  -17.2709   20.0348 C   0  0  0  0  0  0  0  0  0  0  0  0
    8.5810  -17.3627   20.0336 S   0  0  0  0  0  0  0  0  0  0  0  0
   10.5325  -16.4968   22.3226 C   0  0  0  0  0  0  0  0  0  0  0  0
   11.0241  -15.3540   22.1560 O   0  0  0  0  0  0  0  0  0  0  0  0
    9.6050  -16.7372   23.3631 N   0  0  0  0  0  0  0  0  0  0  0  0
    9.2280  -15.6932   24.2566 C   0  0  0  0  0  0  0  0  0  0  0  0
   10.0274  -15.6385   25.4852 C   0  0  0  0  0  0  0  0  0  0  0  0
   11.1138  -16.2546   25.6474 O   0  0  0  0  0  0  0  0  0  0  0  0
    9.8485  -13.5292   28.6009 C   0  0  0  0  0  0  0  0  0  0  0  0
   10.4114  -14.6465   27.7495 C   0  0  2  0  0  0  0  0  0  0  0  0
    9.5662  -14.8472   26.5730 N   0  0  0  0  0  0  0  0  0  0  0  0
   10.4234  -15.9099   28.5313 C   0  0  0  0  0  0  0  0  0  0  0  0
    9.5688  -16.8084   28.3140 O   0  0  0  0  0  0  0  0  0  0  0  0
   11.3592  -16.1701   29.5288 O   0  0  0  0  0  0  0  0  0  0  0  0
  2  1  1  1
  3  2  1  0
  4  3  1  0
  5  2  1  0
  5  6  2  0
  7  5  1  0
  8  7  1  0
  9  8  1  0
 10  9  2  0
 12 13  1  0
 12 11  1  1
 13  9  1  0
 14 12  1  0
 15 14  2  0
 16 14  1  0
M  END
$$$$
