CGA.pdb
     RDKit          3D

 16 15  0  0  1  0  0  0  0  0999 V2000
    7.4923  -15.5299   19.7631 N   0  0  0  0  0  0  0  0  0  0  0  0
    8.0571  -14.5542   20.6647 C   0  0  1  0  0  0  0  0  0  0  0  0
    7.6317  -13.1567   20.2779 C   0  0  0  0  0  0  0  0  0  0  0  0
    8.5032  -12.5987   18.7906 S   0  0  0  0  0  0  0  0  0  0  0  0
    7.6567  -14.7879   22.0645 C   0  0  0  0  0  0  0  0  0  0  0  0
    6.4512  -15.0454   22.3008 O   0  0  0  0  0  0  0  0  0  0  0  0
    8.5996  -14.7253   23.1170 N   0  0  0  0  0  0  0  0  0  0  0  0
    8.2436  -15.1270   24.4368 C   0  0  0  0  0  0  0  0  0  0  0  0
    9.3349  -15.0188   25.4108 C   0  0  0  0  0  0  0  0  0  0  0  0
   10.5514  -15.1803   25.1273 O   0  0  0  0  0  0  0  0  0  0  0  0
    9.6216  -13.6683   28.8806 C   0  0  0  0  0  0  0  0  0  0  0  0
   10.0922  -14.5575   27.7501 C   0  0  2  0  0  0  0  0  0  0  0  0
    9.0233  -14.7134   26.7643 N   0  0  0  0  0  0  0  0  0  0  0  0
   10.4296  -15.9028   28.2830 C   0  0  0  0  0  0  0  0  0  0  0  0
    9.6457  -16.8742   28.1193 O   0  0  0  0  0  0  0  0  0  0  0  0
   11.6064  -16.1642   28.9796 O   0  0  0  0  0  0  0  0  0  0  0  0
  2  1  1  6
  3  2  1  0
  4  3  1  0
  5  2  1  0
  5  6  2  0
  7  5  1  0
  8  7  1  0
  9  8  1  0
 10  9  2  0
 12 13  1  0
 12 11  1  1
 13  9  1  0
 14 12  1  0
 15 14  2  0
 16 14  1  0
M  END
$$$$
