CGA.pdb
     RDKit          3D

 16 15  0  0  1  0  0  0  0  0999 V2000
    7.7440  -15.3057   18.7451 N   0  0  0  0  0  0  0  0  0  0  0  0
    8.1969  -14.4336   19.8024 C   0  0  1  0  0  0  0  0  0  0  0  0
    7.8408  -12.9961   19.5018 C   0  0  0  0  0  0  0  0  0  0  0  0
    9.0249  -12.2599   18.3447 S   0  0  0  0  0  0  0  0  0  0  0  0
    7.6151  -14.7898   21.1096 C   0  0  0  0  0  0  0  0  0  0  0  0
    6.3689  -14.9175   21.1884 O   0  0  0  0  0  0  0  0  0  0  0  0
    8.4323  -14.9837   22.2477 N   0  0  0  0  0  0  0  0  0  0  0  0
    7.8574  -15.3238   23.5062 C   0  0  0  0  0  0  0  0  0  0  0  0
    8.3766  -14.5414   24.6330 C   0  0  0  0  0  0  0  0  0  0  0  0
    9.5995  -14.4399   24.9166 O   0  0  0  0  0  0  0  0  0  0  0  0
    6.8147  -12.2881   27.2258 C   0  0  0  0  0  0  0  0  0  0  0  0
    7.9422  -13.1079   26.6367 C   0  0  2  0  0  0  0  0  0  0  0  0
    7.4607  -13.8465   25.4699 N   0  0  0  0  0  0  0  0  0  0  0  0
    8.4197  -14.0920   27.6423 C   0  0  0  0  0  0  0  0  0  0  0  0
    8.0120  -15.2828   27.6203 O   0  0  0  0  0  0  0  0  0  0  0  0
    9.3262  -13.7637   28.6468 O   0  0  0  0  0  0  0  0  0  0  0  0
  2  1  1  6
  3  2  1  0
  4  3  1  0
  5  2  1  0
  5  6  2  0
  7  5  1  0
  8  7  1  0
  9  8  1  0
 10  9  2  0
 12 13  1  0
 12 11  1  1
 13  9  1  0
 14 12  1  0
 15 14  2  0
 16 14  1  0
M  END
$$$$
