CGA.pdb
     RDKit          3D

 16 15  0  0  1  0  0  0  0  0999 V2000
    8.1003  -13.1867   17.0723 N   0  0  0  0  0  0  0  0  0  0  0  0
    7.7950  -14.2992   17.9400 C   0  0  1  0  0  0  0  0  0  0  0  0
    8.7336  -15.4549   17.6809 C   0  0  0  0  0  0  0  0  0  0  0  0
    8.3098  -16.8823   18.7134 S   0  0  0  0  0  0  0  0  0  0  0  0
    7.8894  -13.9387   19.3666 C   0  0  0  0  0  0  0  0  0  0  0  0
    8.8709  -13.2514   19.7403 O   0  0  0  0  0  0  0  0  0  0  0  0
    6.9048  -14.3524   20.2941 N   0  0  0  0  0  0  0  0  0  0  0  0
    6.9523  -13.9137   21.6489 C   0  0  0  0  0  0  0  0  0  0  0  0
    7.8638  -14.6882   22.4978 C   0  0  0  0  0  0  0  0  0  0  0  0
    7.9983  -14.5068   23.7368 O   0  0  0  0  0  0  0  0  0  0  0  0
    9.6718  -17.9179   22.0719 C   0  0  0  0  0  0  0  0  0  0  0  0
    9.4908  -16.5729   22.7414 C   0  0  2  0  0  0  0  0  0  0  0  0
    8.6538  -15.7121   21.9065 N   0  0  0  0  0  0  0  0  0  0  0  0
   10.8137  -15.9158   22.9028 C   0  0  0  0  0  0  0  0  0  0  0  0
   11.2027  -15.0439   22.0822 O   0  0  0  0  0  0  0  0  0  0  0  0
   11.6829  -16.2179   23.9477 O   0  0  0  0  0  0  0  0  0  0  0  0
  2  1  1  6
  3  2  1  0
  4  3  1  0
  5  2  1  0
  5  6  2  0
  7  5  1  0
  8  7  1  0
  9  8  1  0
 10  9  2  0
 12 13  1  0
 12 11  1  6
 13  9  1  0
 14 12  1  0
 15 14  2  0
 16 14  1  0
M  END
$$$$
