CGA.pdb
     RDKit          3D

 16 15  0  0  1  0  0  0  0  0999 V2000
    9.5292  -13.9070   19.1765 N   0  0  0  0  0  0  0  0  0  0  0  0
    8.2862  -13.3876   19.6951 C   0  0  1  0  0  0  0  0  0  0  0  0
    7.1198  -13.8438   18.8496 C   0  0  0  0  0  0  0  0  0  0  0  0
    7.4073  -13.4875   17.0965 S   0  0  0  0  0  0  0  0  0  0  0  0
    8.0407  -13.8092   21.0866 C   0  0  0  0  0  0  0  0  0  0  0  0
    7.0015  -13.3958   21.6563 O   0  0  0  0  0  0  0  0  0  0  0  0
    8.9467  -14.6560   21.7669 N   0  0  0  0  0  0  0  0  0  0  0  0
    8.6354  -15.1635   23.0614 C   0  0  0  0  0  0  0  0  0  0  0  0
    9.6725  -16.0309   23.6301 C   0  0  0  0  0  0  0  0  0  0  0  0
    9.6215  -16.5250   24.7875 O   0  0  0  0  0  0  0  0  0  0  0  0
   11.8022  -18.5526   22.5485 C   0  0  0  0  0  0  0  0  0  0  0  0
   11.8275  -17.2708   23.3524 C   0  0  2  0  0  0  0  0  0  0  0  0
   10.8146  -16.3467   22.8439 N   0  0  0  0  0  0  0  0  0  0  0  0
   13.1570  -16.6222   23.2125 C   0  0  0  0  0  0  0  0  0  0  0  0
   14.1830  -17.1425   23.7241 O   0  0  0  0  0  0  0  0  0  0  0  0
   13.3440  -15.4272   22.5229 O   0  0  0  0  0  0  0  0  0  0  0  0
  2  1  1  6
  3  2  1  0
  4  3  1  0
  5  2  1  0
  5  6  2  0
  7  5  1  0
  8  7  1  0
  9  8  1  0
 10  9  2  0
 12 13  1  0
 12 11  1  6
 13  9  1  0
 14 12  1  0
 15 14  2  0
 16 14  1  0
M  END
$$$$
