CGA.pdb
     RDKit          3D

 16 15  0  0  1  0  0  0  0  0999 V2000
    3.1322  -20.4228   20.6913 N   0  0  0  0  0  0  0  0  0  0  0  0
    3.1331  -19.5253   21.8219 C   0  0  1  0  0  0  0  0  0  0  0  0
    1.9018  -19.7332   22.6729 C   0  0  0  0  0  0  0  0  0  0  0  0
    0.3951  -19.3452   21.7443 S   0  0  0  0  0  0  0  0  0  0  0  0
    4.3210  -19.7036   22.6771 C   0  0  0  0  0  0  0  0  0  0  0  0
    4.2416  -20.5019   23.6424 O   0  0  0  0  0  0  0  0  0  0  0  0
    5.5202  -18.9979   22.4227 N   0  0  0  0  0  0  0  0  0  0  0  0
    6.6496  -19.1520   23.2775 C   0  0  0  0  0  0  0  0  0  0  0  0
    7.5224  -17.9745   23.3351 C   0  0  0  0  0  0  0  0  0  0  0  0
    8.5551  -17.8273   22.6293 O   0  0  0  0  0  0  0  0  0  0  0  0
    7.4637  -14.7400   25.2843 C   0  0  0  0  0  0  0  0  0  0  0  0
    8.0934  -15.7710   24.3730 C   0  0  2  0  0  0  0  0  0  0  0  0
    7.2018  -16.9221   24.2361 N   0  0  0  0  0  0  0  0  0  0  0  0
    9.3714  -16.2439   24.9654 C   0  0  0  0  0  0  0  0  0  0  0  0
   10.3965  -15.5134   24.9493 O   0  0  0  0  0  0  0  0  0  0  0  0
    9.5090  -17.4952   25.5603 O   0  0  0  0  0  0  0  0  0  0  0  0
  2  1  1  6
  3  2  1  0
  4  3  1  0
  5  2  1  0
  5  6  2  0
  7  5  1  0
  8  7  1  0
  9  8  1  0
 10  9  2  0
 12 13  1  0
 12 11  1  1
 13  9  1  0
 14 12  1  0
 15 14  2  0
 16 14  1  0
M  END
$$$$
