CGA.pdb
     RDKit          3D

 16 15  0  0  1  0  0  0  0  0999 V2000
    5.4519  -13.9794   25.9841 N   0  0  0  0  0  0  0  0  0  0  0  0
    6.2059  -13.0260   25.2054 C   0  0  1  0  0  0  0  0  0  0  0  0
    6.4962  -11.7828   26.0139 C   0  0  0  0  0  0  0  0  0  0  0  0
    5.2164  -11.5067   27.2664 S   0  0  0  0  0  0  0  0  0  0  0  0
    7.4883  -13.5791   24.7324 C   0  0  0  0  0  0  0  0  0  0  0  0
    8.2929  -12.8040   24.1604 O   0  0  0  0  0  0  0  0  0  0  0  0
    7.8097  -14.9445   24.9147 N   0  0  0  0  0  0  0  0  0  0  0  0
    9.0042  -15.4902   24.3620 C   0  0  0  0  0  0  0  0  0  0  0  0
   10.1050  -15.6178   25.3229 C   0  0  0  0  0  0  0  0  0  0  0  0
   11.2221  -16.1321   25.0509 O   0  0  0  0  0  0  0  0  0  0  0  0
   10.9755  -14.1893   28.6285 C   0  0  0  0  0  0  0  0  0  0  0  0
   10.9562  -15.3523   27.6604 C   0  0  2  0  0  0  0  0  0  0  0  0
    9.9218  -15.1380   26.6490 N   0  0  0  0  0  0  0  0  0  0  0  0
   10.6342  -16.6041   28.3932 C   0  0  0  0  0  0  0  0  0  0  0  0
    9.5440  -17.2020   28.1962 O   0  0  0  0  0  0  0  0  0  0  0  0
   11.4993  -17.1782   29.3208 O   0  0  0  0  0  0  0  0  0  0  0  0
  2  1  1  1
  3  2  1  0
  4  3  1  0
  5  2  1  0
  5  6  2  0
  7  5  1  0
  8  7  1  0
  9  8  1  0
 10  9  2  0
 12 13  1  0
 12 11  1  1
 13  9  1  0
 14 12  1  0
 15 14  2  0
 16 14  1  0
M  END
$$$$
