CGA.pdb
     RDKit          3D

 16 15  0  0  1  0  0  0  0  0999 V2000
    6.8059  -14.9095   20.0546 N   0  0  0  0  0  0  0  0  0  0  0  0
    7.9516  -14.5152   20.8392 C   0  0  1  0  0  0  0  0  0  0  0  0
    8.2155  -13.0341   20.6968 C   0  0  0  0  0  0  0  0  0  0  0  0
    8.6199  -12.6064   18.9832 S   0  0  0  0  0  0  0  0  0  0  0  0
    7.7795  -14.8179   22.2721 C   0  0  0  0  0  0  0  0  0  0  0  0
    6.7422  -14.4038   22.8446 O   0  0  0  0  0  0  0  0  0  0  0  0
    8.7524  -15.5539   22.9880 N   0  0  0  0  0  0  0  0  0  0  0  0
    8.5130  -15.9595   24.3328 C   0  0  0  0  0  0  0  0  0  0  0  0
    9.4277  -15.3610   25.3108 C   0  0  0  0  0  0  0  0  0  0  0  0
   10.6802  -15.3351   25.1807 O   0  0  0  0  0  0  0  0  0  0  0  0
    9.0370  -13.2931   28.4175 C   0  0  0  0  0  0  0  0  0  0  0  0
    9.7778  -14.2769   27.5381 C   0  0  2  0  0  0  0  0  0  0  0  0
    8.8890  -14.7678   26.4856 N   0  0  0  0  0  0  0  0  0  0  0  0
   10.2165  -15.4396   28.3525 C   0  0  0  0  0  0  0  0  0  0  0  0
    9.6418  -16.5544   28.2434 O   0  0  0  0  0  0  0  0  0  0  0  0
   11.2659  -15.3678   29.2648 O   0  0  0  0  0  0  0  0  0  0  0  0
  2  1  1  6
  3  2  1  0
  4  3  1  0
  5  2  1  0
  5  6  2  0
  7  5  1  0
  8  7  1  0
  9  8  1  0
 10  9  2  0
 12 13  1  0
 12 11  1  1
 13  9  1  0
 14 12  1  0
 15 14  2  0
 16 14  1  0
M  END
$$$$
