TRN.pdb
     RDKit          3D

 27 26  0  0  1  0  0  0  0  0999 V2000
   13.9305   -3.2777   -8.9152 C   0  0  0  0  0  0  0  0  0  0  0  0
   15.0813   -4.2428   -9.1154 C   0  0  1  0  0  0  0  0  0  0  0  0
   16.3072   -3.6906   -8.8028 O   0  0  0  0  0  0  0  0  0  0  0  0
   14.7716   -5.4807   -8.2890 C   0  0  2  0  0  0  0  0  0  0  0  0
   14.7719   -5.1200   -6.9019 N   0  0  0  0  0  0  0  0  0  0  0  0
   15.7621   -6.5133   -8.6420 C   0  0  0  0  0  0  0  0  0  0  0  0
   16.6662   -6.7554   -7.8031 O   0  0  0  0  0  0  0  0  0  0  0  0
   12.3907  -13.5461   -9.6028 N   0  0  0  0  0  0  0  0  0  0  0  0
   12.0381  -12.5457  -10.5458 C   0  0  0  0  0  0  0  0  0  0  0  0
   10.9345  -12.5914  -11.2247 N   0  0  0  0  0  0  0  0  0  0  0  0
   12.8968  -11.4206  -10.7940 N   0  0  0  0  0  0  0  0  0  0  0  0
   14.1156  -11.2820   -9.9899 C   0  0  0  0  0  0  0  0  0  0  0  0
   14.7797  -10.0263  -10.4612 C   0  0  0  0  0  0  0  0  0  0  0  0
   15.9180   -9.4913   -9.7285 C   0  0  0  0  0  0  0  0  0  0  0  0
   16.6702   -8.2871  -10.1238 C   0  0  2  0  0  0  0  0  0  0  0  0
   15.6860   -7.1829   -9.8565 N   0  0  0  0  0  0  0  0  0  0  0  0
   17.1727   -8.0750  -11.4447 C   0  0  0  0  0  0  0  0  0  0  0  0
   16.3934   -7.6703  -12.3756 O   0  0  0  0  0  0  0  0  0  0  0  0
   10.7826  -11.8194  -11.9120 N   0  0  0  0  0  0  0  0  0  0  0  0
   22.5449   -8.6162  -14.4605 C   0  0  0  0  0  0  0  0  0  0  0  0
   21.1507   -8.3670  -14.4191 O   0  0  0  0  0  0  0  0  0  0  0  0
   20.5769   -8.1373  -15.4990 C   0  0  0  0  0  0  0  0  0  0  0  0
   20.4602   -8.3875  -13.1536 C   0  0  2  0  0  0  0  0  0  0  0  0
   18.9402   -8.1773  -13.2271 N   0  0  0  0  0  0  0  0  0  0  0  0
   18.5234   -8.2713  -11.8158 C   0  0  0  0  0  0  0  0  0  0  0  0
   18.2974   -9.2614  -13.9714 O   0  0  0  0  0  0  0  0  0  0  0  0
   17.7341   -9.0125  -15.0957 O   0  0  0  0  0  0  0  0  0  0  0  0
  2  1  1  1
  2  3  1  0
  4  2  1  0
  4  6  1  0
  4  5  1  1
  6  7  2  0
  9  8  1  0
  9 10  2  0
 11  9  1  0
 12 11  1  0
 13 12  1  0
 14 13  1  0
 15 14  1  6
 16  6  1  0
 16 15  1  0
 17 15  1  0
 17 18  2  0
 19 20  1  0
 20 21  2  0
 20 22  1  0
 23 22  1  1
 23 25  1  0
 23 24  1  0
 24 17  1  0
 25 27  1  0
 26 25  2  0
M  END
$$$$
