TRN.pdb
     RDKit          3D

 27 26  0  0  1  0  0  0  0  0999 V2000
   15.4300   -7.4064  -15.8347 C   0  0  0  0  0  0  0  0  0  0  0  0
   14.8825   -8.2525  -14.7031 C   0  0  1  0  0  0  0  0  0  0  0  0
   13.5065   -8.3592  -14.7283 O   0  0  0  0  0  0  0  0  0  0  0  0
   15.5738   -9.6039  -14.7844 C   0  0  2  0  0  0  0  0  0  0  0  0
   14.9760  -10.4852  -13.8251 N   0  0  0  0  0  0  0  0  0  0  0  0
   17.0162   -9.3814  -14.5796 C   0  0  0  0  0  0  0  0  0  0  0  0
   17.4169   -9.2518  -13.3954 O   0  0  0  0  0  0  0  0  0  0  0  0
   22.5522  -11.8457  -20.5229 N   0  0  0  0  0  0  0  0  0  0  0  0
   23.4255  -11.1553  -19.6425 C   0  0  0  0  0  0  0  0  0  0  0  0
   24.6130  -10.7771  -19.9998 N   0  0  0  0  0  0  0  0  0  0  0  0
   23.0291  -10.8371  -18.2984 N   0  0  0  0  0  0  0  0  0  0  0  0
   21.6906  -11.2375  -17.8521 C   0  0  0  0  0  0  0  0  0  0  0  0
   21.1850  -10.1124  -17.0046 C   0  0  0  0  0  0  0  0  0  0  0  0
   19.9155  -10.2474  -16.3052 C   0  0  0  0  0  0  0  0  0  0  0  0
   19.3602   -9.2374  -15.3869 C   0  0  2  0  0  0  0  0  0  0  0  0
   17.8847   -9.3198  -15.6617 N   0  0  0  0  0  0  0  0  0  0  0  0
   19.7087   -7.8524  -15.4410 C   0  0  0  0  0  0  0  0  0  0  0  0
   19.1292   -7.0721  -16.2735 O   0  0  0  0  0  0  0  0  0  0  0  0
   25.1808  -10.2885  -19.2717 N   0  0  0  0  0  0  0  0  0  0  0  0
   20.7640   -3.0221  -14.2572 C   0  0  0  0  0  0  0  0  0  0  0  0
   19.5907   -3.7711  -13.9927 O   0  0  0  0  0  0  0  0  0  0  0  0
   18.6043   -3.1549  -13.5507 C   0  0  0  0  0  0  0  0  0  0  0  0
   19.5812   -5.1917  -14.2393 C   0  0  1  0  0  0  0  0  0  0  0  0
   20.9273   -5.7972  -14.6649 N   0  0  0  0  0  0  0  0  0  0  0  0
   20.6735   -7.2484  -14.6016 C   0  0  0  0  0  0  0  0  0  0  0  0
   21.9772   -5.4697  -13.6991 O   0  0  0  0  0  0  0  0  0  0  0  0
   22.1982   -6.2556  -12.7108 O   0  0  0  0  0  0  0  0  0  0  0  0
  2  1  1  6
  2  3  1  0
  4  2  1  0
  4  6  1  0
  4  5  1  1
  6  7  2  0
  9  8  1  0
  9 10  2  0
 11  9  1  0
 12 11  1  0
 13 12  1  0
 14 13  1  0
 15 14  1  6
 16  6  1  0
 16 15  1  0
 17 15  1  0
 17 18  2  0
 19 20  1  0
 20 21  2  0
 20 22  1  0
 23 22  1  6
 23 25  1  0
 23 24  1  0
 24 17  1  0
 25 27  1  0
 26 25  2  0
M  END
$$$$
