TRN.pdb
     RDKit          3D

 27 26  0  0  1  0  0  0  0  0999 V2000
   28.0674  -18.2540  -12.7905 C   0  0  0  0  0  0  0  0  0  0  0  0
   29.0358  -19.4139  -12.6770 C   0  0  1  0  0  0  0  0  0  0  0  0
   30.2304  -19.0611  -12.0820 O   0  0  0  0  0  0  0  0  0  0  0  0
   28.3153  -20.5221  -11.9260 C   0  0  2  0  0  0  0  0  0  0  0  0
   29.2526  -21.5671  -11.6371 N   0  0  0  0  0  0  0  0  0  0  0  0
   27.1718  -20.9510  -12.7509 C   0  0  0  0  0  0  0  0  0  0  0  0
   27.4071  -21.7533  -13.6895 O   0  0  0  0  0  0  0  0  0  0  0  0
   19.7980  -20.7637  -10.5605 N   0  0  0  0  0  0  0  0  0  0  0  0
   19.4089  -20.1634  -11.7864 C   0  0  0  0  0  0  0  0  0  0  0  0
   18.4306  -19.3160  -11.8632 N   0  0  0  0  0  0  0  0  0  0  0  0
   20.0903  -20.4684  -13.0142 N   0  0  0  0  0  0  0  0  0  0  0  0
   21.2129  -21.4114  -12.9738 C   0  0  0  0  0  0  0  0  0  0  0  0
   22.3772  -20.6430  -12.4315 C   0  0  0  0  0  0  0  0  0  0  0  0
   23.7009  -21.2485  -12.4194 C   0  0  0  0  0  0  0  0  0  0  0  0
   24.7702  -20.9296  -13.3822 C   0  0  2  0  0  0  0  0  0  0  0  0
   25.8922  -20.4788  -12.4892 N   0  0  0  0  0  0  0  0  0  0  0  0
   24.6368  -19.9376  -14.4023 C   0  0  0  0  0  0  0  0  0  0  0  0
   24.5459  -18.6995  -14.0919 O   0  0  0  0  0  0  0  0  0  0  0  0
   18.2284  -18.9288  -12.8122 N   0  0  0  0  0  0  0  0  0  0  0  0
   27.9296  -19.8231  -17.5571 C   0  0  0  0  0  0  0  0  0  0  0  0
   26.8152  -18.9482  -17.5399 O   0  0  0  0  0  0  0  0  0  0  0  0
   27.0286  -17.7528  -17.2689 C   0  0  0  0  0  0  0  0  0  0  0  0
   25.5002  -19.4631  -17.8306 C   0  0  2  0  0  0  0  0  0  0  0  0
   24.4229  -19.1546  -16.7798 N   0  0  0  0  0  0  0  0  0  0  0  0
   24.6110  -20.2279  -15.7863 C   0  0  0  0  0  0  0  0  0  0  0  0
   23.0818  -19.2846  -17.3514 O   0  0  0  0  0  0  0  0  0  0  0  0
   22.4919  -18.2511  -17.8282 O   0  0  0  0  0  0  0  0  0  0  0  0
  2  1  1  1
  2  3  1  0
  4  2  1  0
  4  6  1  0
  4  5  1  6
  6  7  2  0
  9  8  1  0
  9 10  2  0
 11  9  1  0
 12 11  1  0
 13 12  1  0
 14 13  1  0
 15 14  1  1
 16  6  1  0
 16 15  1  0
 17 15  1  0
 17 18  2  0
 19 20  1  0
 20 21  2  0
 20 22  1  0
 23 22  1  1
 23 25  1  0
 23 24  1  0
 24 17  1  0
 25 27  1  0
 26 25  2  0
M  END
$$$$
