TRN.pdb
     RDKit          3D

 27 26  0  0  1  0  0  0  0  0999 V2000
   24.0043  -21.6554   -9.1227 C   0  0  0  0  0  0  0  0  0  0  0  0
   24.2731  -20.7322  -10.2937 C   0  0  1  0  0  0  0  0  0  0  0  0
   23.5797  -19.5416  -10.2104 O   0  0  0  0  0  0  0  0  0  0  0  0
   25.7779  -20.5270  -10.3611 C   0  0  2  0  0  0  0  0  0  0  0  0
   26.2005  -19.8288   -9.1829 N   0  0  0  0  0  0  0  0  0  0  0  0
   26.0769  -19.8198  -11.6190 C   0  0  0  0  0  0  0  0  0  0  0  0
   26.1806  -18.5683  -11.5659 O   0  0  0  0  0  0  0  0  0  0  0  0
   30.1974  -23.8752  -16.0203 N   0  0  0  0  0  0  0  0  0  0  0  0
   28.8573  -23.8904  -16.4876 C   0  0  0  0  0  0  0  0  0  0  0  0
   28.1787  -24.9882  -16.6104 N   0  0  0  0  0  0  0  0  0  0  0  0
   28.1809  -22.6752  -16.8488 N   0  0  0  0  0  0  0  0  0  0  0  0
   28.9132  -21.4092  -16.7378 C   0  0  0  0  0  0  0  0  0  0  0  0
   27.9595  -20.4341  -16.1215 C   0  0  0  0  0  0  0  0  0  0  0  0
   27.4799  -20.6507  -14.7644 C   0  0  0  0  0  0  0  0  0  0  0  0
   26.5566  -19.7478  -14.0544 C   0  0  2  0  0  0  0  0  0  0  0  0
   26.2348  -20.5220  -12.8069 N   0  0  0  0  0  0  0  0  0  0  0  0
   25.3083  -19.3155  -14.5999 C   0  0  0  0  0  0  0  0  0  0  0  0
   24.2818  -20.0779  -14.5485 O   0  0  0  0  0  0  0  0  0  0  0  0
   27.2265  -24.8981  -17.0308 N   0  0  0  0  0  0  0  0  0  0  0  0
   23.0329  -14.3779  -17.5411 C   0  0  0  0  0  0  0  0  0  0  0  0
   22.8753  -15.6138  -16.8664 O   0  0  0  0  0  0  0  0  0  0  0  0
   21.7307  -16.0991  -16.8183 C   0  0  0  0  0  0  0  0  0  0  0  0
   24.0229  -16.2523  -16.2712 C   0  0  2  0  0  0  0  0  0  0  0  0
   23.7811  -17.6667  -15.7225 N   0  0  0  0  0  0  0  0  0  0  0  0
   25.1065  -18.0527  -15.2040 C   0  0  0  0  0  0  0  0  0  0  0  0
   23.4194  -18.5906  -16.7985 O   0  0  0  0  0  0  0  0  0  0  0  0
   22.2119  -19.0098  -16.8962 O   0  0  0  0  0  0  0  0  0  0  0  0
  2  1  1  1
  2  3  1  0
  4  2  1  0
  4  6  1  0
  4  5  1  1
  6  7  2  0
  9  8  1  0
  9 10  2  0
 11  9  1  0
 12 11  1  0
 13 12  1  0
 14 13  1  0
 15 14  1  6
 16  6  1  0
 16 15  1  0
 17 15  1  0
 17 18  2  0
 19 20  1  0
 20 21  2  0
 20 22  1  0
 23 22  1  1
 23 25  1  0
 23 24  1  0
 24 17  1  0
 25 27  1  0
 26 25  2  0
M  END
$$$$
