TRN.pdb
     RDKit          3D

 27 26  0  0  1  0  0  0  0  0999 V2000
   21.5153  -21.6364  -17.3051 C   0  0  0  0  0  0  0  0  0  0  0  0
   20.4653  -21.6175  -16.2129 C   0  0  1  0  0  0  0  0  0  0  0  0
   19.5101  -22.6019  -16.3678 O   0  0  0  0  0  0  0  0  0  0  0  0
   21.2016  -21.7230  -14.8871 C   0  0  2  0  0  0  0  0  0  0  0  0
   20.2381  -21.7516  -13.8264 N   0  0  0  0  0  0  0  0  0  0  0  0
   22.1476  -20.5956  -14.8100 C   0  0  0  0  0  0  0  0  0  0  0  0
   21.6819  -19.4736  -14.4873 O   0  0  0  0  0  0  0  0  0  0  0  0
   25.2476  -20.3804   -9.0906 N   0  0  0  0  0  0  0  0  0  0  0  0
   26.1803  -21.0094   -9.9560 C   0  0  0  0  0  0  0  0  0  0  0  0
   27.0149  -21.9095   -9.5387 N   0  0  0  0  0  0  0  0  0  0  0  0
   26.2427  -20.6760  -11.3523 N   0  0  0  0  0  0  0  0  0  0  0  0
   26.0796  -19.2716  -11.7425 C   0  0  0  0  0  0  0  0  0  0  0  0
   26.2789  -19.2300  -13.2253 C   0  0  0  0  0  0  0  0  0  0  0  0
   25.4747  -20.0837  -14.0874 C   0  0  0  0  0  0  0  0  0  0  0  0
   24.4135  -19.5950  -14.9858 C   0  0  2  0  0  0  0  0  0  0  0  0
   23.4961  -20.7814  -15.0859 N   0  0  0  0  0  0  0  0  0  0  0  0
   24.6592  -19.1551  -16.3232 C   0  0  0  0  0  0  0  0  0  0  0  0
   24.8431  -20.0069  -17.2603 O   0  0  0  0  0  0  0  0  0  0  0  0
   27.6750  -22.2932  -10.2516 N   0  0  0  0  0  0  0  0  0  0  0  0
   25.3143  -15.9926  -20.5063 C   0  0  0  0  0  0  0  0  0  0  0  0
   24.8929  -15.2415  -19.3812 O   0  0  0  0  0  0  0  0  0  0  0  0
   24.6930  -14.0245  -19.5463 C   0  0  0  0  0  0  0  0  0  0  0  0
   24.7146  -15.8996  -18.1109 C   0  0  2  0  0  0  0  0  0  0  0  0
   24.9458  -17.4183  -18.1156 N   0  0  0  0  0  0  0  0  0  0  0  0
   24.7023  -17.7956  -16.7111 C   0  0  0  0  0  0  0  0  0  0  0  0
   26.3366  -17.7349  -18.4441 O   0  0  0  0  0  0  0  0  0  0  0  0
   27.2748  -17.3731  -17.6490 O   0  0  0  0  0  0  0  0  0  0  0  0
  2  1  1  6
  2  3  1  0
  4  2  1  0
  4  6  1  0
  4  5  1  1
  6  7  2  0
  9  8  1  0
  9 10  2  0
 11  9  1  0
 12 11  1  0
 13 12  1  0
 14 13  1  0
 15 14  1  6
 16  6  1  0
 16 15  1  0
 17 15  1  0
 17 18  2  0
 19 20  1  0
 20 21  2  0
 20 22  1  0
 23 22  1  6
 23 25  1  0
 23 24  1  0
 24 17  1  0
 25 27  1  0
 26 25  2  0
M  END
$$$$
