TRN.pdb
     RDKit          3D

 27 26  0  0  1  0  0  0  0  0999 V2000
   26.9436  -18.9289  -17.2967 C   0  0  0  0  0  0  0  0  0  0  0  0
   27.5118  -20.2084  -17.8761 C   0  0  1  0  0  0  0  0  0  0  0  0
   28.5285  -19.9836  -18.7824 O   0  0  0  0  0  0  0  0  0  0  0  0
   27.9556  -21.0682  -16.7036 C   0  0  2  0  0  0  0  0  0  0  0  0
   28.5812  -22.2531  -17.2123 N   0  0  0  0  0  0  0  0  0  0  0  0
   26.7715  -21.3261  -15.8648 C   0  0  0  0  0  0  0  0  0  0  0  0
   25.9174  -22.1353  -16.3068 O   0  0  0  0  0  0  0  0  0  0  0  0
   23.4217  -19.5966   -9.7729 N   0  0  0  0  0  0  0  0  0  0  0  0
   23.6827  -20.6141   -8.8184 C   0  0  0  0  0  0  0  0  0  0  0  0
   22.8479  -20.9052   -7.8701 N   0  0  0  0  0  0  0  0  0  0  0  0
   24.8977  -21.3801   -8.8599 N   0  0  0  0  0  0  0  0  0  0  0  0
   25.9103  -21.0290   -9.8612 C   0  0  0  0  0  0  0  0  0  0  0  0
   25.2559  -21.2199  -11.1936 C   0  0  0  0  0  0  0  0  0  0  0  0
   26.0047  -20.9506  -12.4125 C   0  0  0  0  0  0  0  0  0  0  0  0
   25.4549  -21.0846  -13.7733 C   0  0  2  0  0  0  0  0  0  0  0  0
   26.6201  -20.6926  -14.6381 N   0  0  0  0  0  0  0  0  0  0  0  0
   24.3297  -20.3381  -14.2414 C   0  0  0  0  0  0  0  0  0  0  0  0
   24.4516  -19.0969  -14.5282 O   0  0  0  0  0  0  0  0  0  0  0  0
   23.1214  -21.6919   -7.2394 N   0  0  0  0  0  0  0  0  0  0  0  0
   19.6463  -19.0617  -16.2108 C   0  0  0  0  0  0  0  0  0  0  0  0
   20.0539  -20.3743  -16.5548 O   0  0  0  0  0  0  0  0  0  0  0  0
   19.3861  -20.9752  -17.4157 C   0  0  0  0  0  0  0  0  0  0  0  0
   21.2039  -20.9560  -15.9084 C   0  0  2  0  0  0  0  0  0  0  0  0
   21.9216  -20.0499  -14.8966 N   0  0  0  0  0  0  0  0  0  0  0  0
   23.0420  -20.8901  -14.4347 C   0  0  0  0  0  0  0  0  0  0  0  0
   21.0591  -19.7597  -13.7502 O   0  0  0  0  0  0  0  0  0  0  0  0
   20.8530  -20.6644  -12.8657 O   0  0  0  0  0  0  0  0  0  0  0  0
  2  1  1  1
  2  3  1  0
  4  2  1  0
  4  6  1  0
  4  5  1  6
  6  7  2  0
  9  8  1  0
  9 10  2  0
 11  9  1  0
 12 11  1  0
 13 12  1  0
 14 13  1  0
 15 14  1  1
 16  6  1  0
 16 15  1  0
 17 15  1  0
 17 18  2  0
 19 20  1  0
 20 21  2  0
 20 22  1  0
 23 22  1  6
 23 25  1  0
 23 24  1  0
 24 17  1  0
 25 27  1  0
 26 25  2  0
M  END
$$$$
