TRN.pdb
     RDKit          3D

 27 26  0  0  1  0  0  0  0  0999 V2000
   25.0394  -11.7944  -15.5098 C   0  0  0  0  0  0  0  0  0  0  0  0
   25.2435  -12.0587  -16.9878 C   0  0  1  0  0  0  0  0  0  0  0  0
   26.4007  -12.7628  -17.2536 O   0  0  0  0  0  0  0  0  0  0  0  0
   23.9983  -12.7735  -17.4873 C   0  0  2  0  0  0  0  0  0  0  0  0
   24.2052  -13.1595  -18.8519 N   0  0  0  0  0  0  0  0  0  0  0  0
   22.8523  -11.8692  -17.2853 C   0  0  0  0  0  0  0  0  0  0  0  0
   22.8256  -10.8121  -17.9647 O   0  0  0  0  0  0  0  0  0  0  0  0
   14.6245  -14.2854  -15.5300 N   0  0  0  0  0  0  0  0  0  0  0  0
   14.6400  -12.8782  -15.3456 C   0  0  0  0  0  0  0  0  0  0  0  0
   13.5647  -12.2011  -15.0885 N   0  0  0  0  0  0  0  0  0  0  0  0
   15.8630  -12.1291  -15.4339 N   0  0  0  0  0  0  0  0  0  0  0  0
   17.1061  -12.8533  -15.7194 C   0  0  0  0  0  0  0  0  0  0  0  0
   18.1775  -11.8124  -15.8128 C   0  0  0  0  0  0  0  0  0  0  0  0
   19.5377  -12.2030  -16.1532 C   0  0  0  0  0  0  0  0  0  0  0  0
   20.6679  -11.2645  -16.2706 C   0  0  2  0  0  0  0  0  0  0  0  0
   21.8504  -12.1863  -16.3771 N   0  0  0  0  0  0  0  0  0  0  0  0
   20.9924  -10.2985  -15.2685 C   0  0  0  0  0  0  0  0  0  0  0  0
   21.5548  -10.6623  -14.1781 O   0  0  0  0  0  0  0  0  0  0  0  0
   13.6876  -11.1724  -14.9540 N   0  0  0  0  0  0  0  0  0  0  0  0
   22.3270   -4.4298  -14.5961 C   0  0  0  0  0  0  0  0  0  0  0  0
   21.9270   -5.6756  -14.0526 O   0  0  0  0  0  0  0  0  0  0  0  0
   21.8676   -5.7682  -12.8133 C   0  0  0  0  0  0  0  0  0  0  0  0
   21.6098   -6.7699  -14.9363 C   0  0  2  0  0  0  0  0  0  0  0  0
   20.9682   -7.9947  -14.2670 N   0  0  0  0  0  0  0  0  0  0  0  0
   20.7437   -8.9123  -15.3992 C   0  0  0  0  0  0  0  0  0  0  0  0
   19.6692   -7.6528  -13.6855 O   0  0  0  0  0  0  0  0  0  0  0  0
   18.6393   -7.5595  -14.4430 O   0  0  0  0  0  0  0  0  0  0  0  0
  2  1  1  1
  2  3  1  0
  4  2  1  0
  4  6  1  0
  4  5  1  6
  6  7  2  0
  9  8  1  0
  9 10  2  0
 11  9  1  0
 12 11  1  0
 13 12  1  0
 14 13  1  0
 15 14  1  1
 16  6  1  0
 16 15  1  0
 17 15  1  0
 17 18  2  0
 19 20  1  0
 20 21  2  0
 20 22  1  0
 23 22  1  1
 23 25  1  0
 23 24  1  0
 24 17  1  0
 25 27  1  0
 26 25  2  0
M  END
$$$$
