TRN.pdb
     RDKit          3D

 27 26  0  0  1  0  0  0  0  0999 V2000
   26.5389  -18.8662  -16.4738 C   0  0  0  0  0  0  0  0  0  0  0  0
   25.1772  -19.4702  -16.1964 C   0  0  1  0  0  0  0  0  0  0  0  0
   24.4537  -19.7165  -17.3458 O   0  0  0  0  0  0  0  0  0  0  0  0
   25.4082  -20.7267  -15.3724 C   0  0  2  0  0  0  0  0  0  0  0  0
   26.0370  -21.7120  -16.2018 N   0  0  0  0  0  0  0  0  0  0  0  0
   24.1071  -21.1458  -14.8217 C   0  0  0  0  0  0  0  0  0  0  0  0
   23.5430  -22.1306  -15.3618 O   0  0  0  0  0  0  0  0  0  0  0  0
   21.2811  -21.5892   -7.7806 N   0  0  0  0  0  0  0  0  0  0  0  0
   20.2598  -22.3653   -8.3881 C   0  0  0  0  0  0  0  0  0  0  0  0
   19.9374  -23.5450   -7.9577 N   0  0  0  0  0  0  0  0  0  0  0  0
   19.5250  -21.8735   -9.5208 N   0  0  0  0  0  0  0  0  0  0  0  0
   20.1731  -20.8974  -10.4030 C   0  0  0  0  0  0  0  0  0  0  0  0
   21.4165  -21.5601  -10.9079 C   0  0  0  0  0  0  0  0  0  0  0  0
   22.2947  -20.8476  -11.8244 C   0  0  0  0  0  0  0  0  0  0  0  0
   22.1686  -20.8812  -13.2924 C   0  0  2  0  0  0  0  0  0  0  0  0
   23.5402  -20.4696  -13.7491 N   0  0  0  0  0  0  0  0  0  0  0  0
   21.2378  -20.0754  -14.0181 C   0  0  0  0  0  0  0  0  0  0  0  0
   21.4690  -18.8307  -14.2055 O   0  0  0  0  0  0  0  0  0  0  0  0
   19.2195  -24.0599   -8.5154 N   0  0  0  0  0  0  0  0  0  0  0  0
   17.2946  -18.6522  -17.1852 C   0  0  0  0  0  0  0  0  0  0  0  0
   18.0983  -19.7361  -17.6174 O   0  0  0  0  0  0  0  0  0  0  0  0
   17.9548  -20.1245  -18.7907 C   0  0  0  0  0  0  0  0  0  0  0  0
   19.0346  -20.3389  -16.7015 C   0  0  1  0  0  0  0  0  0  0  0  0
   19.1260  -19.6757  -15.3189 N   0  0  0  0  0  0  0  0  0  0  0  0
   20.0383  -20.5694  -14.5817 C   0  0  0  0  0  0  0  0  0  0  0  0
   17.8261  -19.6864  -14.6463 O   0  0  0  0  0  0  0  0  0  0  0  0
   17.5226  -20.6577  -13.8667 O   0  0  0  0  0  0  0  0  0  0  0  0
  2  1  1  6
  2  3  1  0
  4  2  1  0
  4  6  1  0
  4  5  1  6
  6  7  2  0
  9  8  1  0
  9 10  2  0
 11  9  1  0
 12 11  1  0
 13 12  1  0
 14 13  1  0
 15 14  1  1
 16  6  1  0
 16 15  1  0
 17 15  1  0
 17 18  2  0
 19 20  1  0
 20 21  2  0
 20 22  1  0
 23 22  1  6
 23 25  1  0
 23 24  1  0
 24 17  1  0
 25 27  1  0
 26 25  2  0
M  END
$$$$
