TRN.pdb
     RDKit          3D

 27 26  0  0  1  0  0  0  0  0999 V2000
   28.9289  -19.6907  -17.6194 C   0  0  0  0  0  0  0  0  0  0  0  0
   27.6548  -20.0247  -16.8703 C   0  0  1  0  0  0  0  0  0  0  0  0
   26.5666  -20.1847  -17.7043 O   0  0  0  0  0  0  0  0  0  0  0  0
   27.9403  -21.2655  -16.0397 C   0  0  2  0  0  0  0  0  0  0  0  0
   28.1078  -22.3820  -16.9227 N   0  0  0  0  0  0  0  0  0  0  0  0
   26.8369  -21.4217  -15.0754 C   0  0  0  0  0  0  0  0  0  0  0  0
   25.9415  -22.2584  -15.3547 O   0  0  0  0  0  0  0  0  0  0  0  0
   23.4127  -21.3007   -7.0966 N   0  0  0  0  0  0  0  0  0  0  0  0
   22.7727  -21.3172   -8.3633 C   0  0  0  0  0  0  0  0  0  0  0  0
   21.5032  -21.5444   -8.4954 N   0  0  0  0  0  0  0  0  0  0  0  0
   23.5101  -21.0778   -9.5732 N   0  0  0  0  0  0  0  0  0  0  0  0
   24.9736  -21.0177   -9.4984 C   0  0  0  0  0  0  0  0  0  0  0  0
   25.3991  -20.0278  -10.5372 C   0  0  0  0  0  0  0  0  0  0  0  0
   26.1890  -20.4700  -11.6771 C   0  0  0  0  0  0  0  0  0  0  0  0
   25.6250  -20.8326  -12.9895 C   0  0  2  0  0  0  0  0  0  0  0  0
   26.8021  -20.6675  -13.9096 N   0  0  0  0  0  0  0  0  0  0  0  0
   24.5337  -20.1352  -13.5938 C   0  0  0  0  0  0  0  0  0  0  0  0
   24.7175  -18.9884  -14.1310 O   0  0  0  0  0  0  0  0  0  0  0  0
   21.1309  -21.5327   -9.4714 N   0  0  0  0  0  0  0  0  0  0  0  0
   20.8562  -19.6995  -17.5703 C   0  0  0  0  0  0  0  0  0  0  0  0
   20.6133  -19.9601  -16.1990 O   0  0  0  0  0  0  0  0  0  0  0  0
   19.5116  -19.6138  -15.7358 C   0  0  0  0  0  0  0  0  0  0  0  0
   21.6300  -20.6037  -15.4047 C   0  0  1  0  0  0  0  0  0  0  0  0
   22.1127  -19.8104  -14.1809 N   0  0  0  0  0  0  0  0  0  0  0  0
   23.2144  -20.6408  -13.6604 C   0  0  0  0  0  0  0  0  0  0  0  0
   21.0674  -19.7371  -13.1591 O   0  0  0  0  0  0  0  0  0  0  0  0
   20.9293  -20.6982  -12.3221 O   0  0  0  0  0  0  0  0  0  0  0  0
  2  1  1  6
  2  3  1  0
  4  2  1  0
  4  6  1  0
  4  5  1  6
  6  7  2  0
  9  8  1  0
  9 10  2  0
 11  9  1  0
 12 11  1  0
 13 12  1  0
 14 13  1  0
 15 14  1  1
 16  6  1  0
 16 15  1  0
 17 15  1  0
 17 18  2  0
 19 20  1  0
 20 21  2  0
 20 22  1  0
 23 22  1  6
 23 25  1  0
 23 24  1  0
 24 17  1  0
 25 27  1  0
 26 25  2  0
M  END
$$$$
