SNK.pdb
     RDKit          3D

 24 23  0  0  1  0  0  0  0  0999 V2000
   22.2705  -15.6378  -17.5982 O   0  0  0  0  0  0  0  0  0  0  0  0
   22.4252  -14.4148  -16.9470 C   0  0  0  0  0  0  0  0  0  0  0  0
   23.8401  -14.3130  -16.4873 C   0  0  2  0  0  0  0  0  0  0  0  0
   24.1994  -15.3935  -15.6236 N   0  0  0  0  0  0  0  0  0  0  0  0
   24.0863  -12.9898  -15.8092 C   0  0  0  0  0  0  0  0  0  0  0  0
   23.6161  -12.7565  -14.6694 O   0  0  0  0  0  0  0  0  0  0  0  0
   27.5327  -11.7957  -15.0655 N   0  0  0  0  0  0  0  0  0  0  0  0
   27.5603  -10.6883  -15.9428 C   0  0  0  0  0  0  0  0  0  0  0  0
   28.6663  -10.2580  -16.3345 O   0  0  0  0  0  0  0  0  0  0  0  0
   26.3149  -10.0389  -16.3988 C   0  0  0  0  0  0  0  0  0  0  0  0
   25.0873  -10.7055  -15.8350 C   0  0  2  0  0  0  0  0  0  0  0  0
   24.8511  -11.9878  -16.4446 N   0  0  0  0  0  0  0  0  0  0  0  0
   23.9291   -9.7981  -16.1785 C   0  0  0  0  0  0  0  0  0  0  0  0
   23.4771   -9.7720  -17.3542 O   0  0  0  0  0  0  0  0  0  0  0  0
   23.3306   -8.9695  -15.2142 N   0  0  0  0  0  0  0  0  0  0  0  0
   22.0652   -8.2820  -15.5494 C   0  0  1  0  0  0  0  0  0  0  0  0
   20.9704   -9.2890  -15.6627 C   0  0  0  0  0  0  0  0  0  0  0  0
   19.9205   -8.8145  -16.6284 C   0  0  0  0  0  0  0  0  0  0  0  0
   18.8181   -9.8784  -16.5917 C   0  0  0  0  0  0  0  0  0  0  0  0
   17.6388   -9.4500  -17.4472 C   0  0  0  0  0  0  0  0  0  0  0  0
   16.5702  -10.3999  -17.3991 N   0  0  0  0  0  0  0  0  0  0  0  0
   21.8466   -7.2085  -14.5703 C   0  0  0  0  0  0  0  0  0  0  0  0
   21.3070   -5.9728  -14.8542 O   0  0  0  0  0  0  0  0  0  0  0  0
   22.1701   -7.3916  -13.3461 O   0  0  0  0  0  0  0  0  0  0  0  0
  2  1  1  0
  3  5  1  0
  3  2  1  0
  3  4  1  1
  5  6  2  0
  7  8  1  0
  8  9  2  0
  8 10  1  0
 11 10  1  6
 11 13  1  0
 12 11  1  0
 12  5  1  0
 13 14  2  0
 13 15  1  0
 15 16  1  0
 16 22  1  0
 16 17  1  1
 18 17  1  0
 19 18  1  0
 20 19  1  0
 21 20  1  0
 22 24  2  0
 22 23  1  0
M  END
$$$$
