SNK.pdb
     RDKit          3D

 24 23  0  0  1  0  0  0  0  0999 V2000
   14.6000  -13.5262  -11.3775 O   0  0  0  0  0  0  0  0  0  0  0  0
   15.4276  -12.5986  -10.7462 C   0  0  0  0  0  0  0  0  0  0  0  0
   14.9270  -11.2336  -11.0773 C   0  0  2  0  0  0  0  0  0  0  0  0
   14.8200  -11.0324  -12.4882 N   0  0  0  0  0  0  0  0  0  0  0  0
   15.8071  -10.1785  -10.4580 C   0  0  0  0  0  0  0  0  0  0  0  0
   15.9793  -10.1358   -9.2158 O   0  0  0  0  0  0  0  0  0  0  0  0
   19.2349   -6.5022   -9.6349 N   0  0  0  0  0  0  0  0  0  0  0  0
   19.3762   -6.8914  -10.9860 C   0  0  0  0  0  0  0  0  0  0  0  0
   20.3216   -6.4188  -11.6529 O   0  0  0  0  0  0  0  0  0  0  0  0
   18.4333   -7.8382  -11.6148 C   0  0  0  0  0  0  0  0  0  0  0  0
   17.2836   -8.1835  -10.7048 C   0  0  2  0  0  0  0  0  0  0  0  0
   16.4543   -9.2180  -11.2651 N   0  0  0  0  0  0  0  0  0  0  0  0
   16.4558   -6.9250  -10.5883 C   0  0  0  0  0  0  0  0  0  0  0  0
   15.7680   -6.5310  -11.5677 O   0  0  0  0  0  0  0  0  0  0  0  0
   16.4276   -6.1681   -9.4047 N   0  0  0  0  0  0  0  0  0  0  0  0
   15.4127   -5.1023   -9.2624 C   0  0  1  0  0  0  0  0  0  0  0  0
   14.7946   -5.1859   -7.9073 C   0  0  0  0  0  0  0  0  0  0  0  0
   13.7463   -4.1209   -7.7433 C   0  0  0  0  0  0  0  0  0  0  0  0
   13.2379   -4.2633   -6.3047 C   0  0  0  0  0  0  0  0  0  0  0  0
   12.0354   -3.3647   -6.0757 C   0  0  0  0  0  0  0  0  0  0  0  0
   11.5179   -3.4918   -4.7480 N   0  0  0  0  0  0  0  0  0  0  0  0
   16.0389   -3.8169   -9.6005 C   0  0  0  0  0  0  0  0  0  0  0  0
   15.4123   -2.7745  -10.2484 O   0  0  0  0  0  0  0  0  0  0  0  0
   17.2617   -3.6061   -9.2891 O   0  0  0  0  0  0  0  0  0  0  0  0
  2  1  1  0
  3  5  1  0
  3  2  1  0
  3  4  1  6
  5  6  2  0
  7  8  1  0
  8  9  2  0
  8 10  1  0
 11 10  1  6
 11 13  1  0
 12 11  1  0
 12  5  1  0
 13 14  2  0
 13 15  1  0
 15 16  1  0
 16 22  1  0
 16 17  1  1
 18 17  1  0
 19 18  1  0
 20 19  1  0
 21 20  1  0
 22 24  2  0
 22 23  1  0
M  END
$$$$
