SNK.pdb
     RDKit          3D

 24 23  0  0  1  0  0  0  0  0999 V2000
   21.6462  -15.3524  -19.0980 O   0  0  0  0  0  0  0  0  0  0  0  0
   21.7367  -14.8719  -17.7923 C   0  0  0  0  0  0  0  0  0  0  0  0
   20.7190  -15.5842  -16.9673 C   0  0  2  0  0  0  0  0  0  0  0  0
   20.4936  -16.9168  -17.4319 N   0  0  0  0  0  0  0  0  0  0  0  0
   19.4259  -14.8109  -16.9317 C   0  0  0  0  0  0  0  0  0  0  0  0
   18.3241  -15.3983  -17.0568 O   0  0  0  0  0  0  0  0  0  0  0  0
   14.8751  -12.8681  -15.5298 N   0  0  0  0  0  0  0  0  0  0  0  0
   16.1352  -12.2406  -15.4062 C   0  0  0  0  0  0  0  0  0  0  0  0
   16.1771  -11.0043  -15.2283 O   0  0  0  0  0  0  0  0  0  0  0  0
   17.3897  -13.0158  -15.4832 C   0  0  0  0  0  0  0  0  0  0  0  0
   18.2136  -12.6448  -16.6885 C   0  0  2  0  0  0  0  0  0  0  0  0
   19.4307  -13.4102  -16.7566 N   0  0  0  0  0  0  0  0  0  0  0  0
   18.5792  -11.1900  -16.5078 C   0  0  0  0  0  0  0  0  0  0  0  0
   18.9855  -10.7774  -15.3888 O   0  0  0  0  0  0  0  0  0  0  0  0
   18.4793  -10.2681  -17.5635 N   0  0  0  0  0  0  0  0  0  0  0  0
   18.8064   -8.8492  -17.3063 C   0  0  1  0  0  0  0  0  0  0  0  0
   17.5577   -8.0353  -17.3656 C   0  0  0  0  0  0  0  0  0  0  0  0
   17.8559   -6.5954  -17.0526 C   0  0  0  0  0  0  0  0  0  0  0  0
   16.5178   -5.8606  -17.1864 C   0  0  0  0  0  0  0  0  0  0  0  0
   16.6745   -4.3994  -16.8036 C   0  0  0  0  0  0  0  0  0  0  0  0
   15.4313   -3.6942  -16.8652 N   0  0  0  0  0  0  0  0  0  0  0  0
   19.5627   -8.7678  -16.0493 C   0  0  0  0  0  0  0  0  0  0  0  0
   20.6822   -7.9906  -15.8452 O   0  0  0  0  0  0  0  0  0  0  0  0
   19.1889   -9.4576  -15.0388 O   0  0  0  0  0  0  0  0  0  0  0  0
  2  1  1  0
  3  5  1  0
  3  2  1  0
  3  4  1  6
  5  6  2  0
  7  8  1  0
  8  9  2  0
  8 10  1  0
 11 10  1  1
 11 13  1  0
 12 11  1  0
 12  5  1  0
 13 14  2  0
 13 15  1  0
 15 16  1  0
 16 22  1  0
 16 17  1  1
 18 17  1  0
 19 18  1  0
 20 19  1  0
 21 20  1  0
 22 24  2  0
 22 23  1  0
M  END
$$$$
