SNK.pdb
     RDKit          3D

 24 23  0  0  1  0  0  0  0  0999 V2000
   12.4902  -10.5586   -9.4049 O   0  0  0  0  0  0  0  0  0  0  0  0
   13.0044   -9.3745   -9.9316 C   0  0  0  0  0  0  0  0  0  0  0  0
   14.4376   -9.6057  -10.2724 C   0  0  2  0  0  0  0  0  0  0  0  0
   15.1580  -10.1862   -9.1832 N   0  0  0  0  0  0  0  0  0  0  0  0
   15.0932   -8.3234  -10.7164 C   0  0  0  0  0  0  0  0  0  0  0  0
   14.6729   -7.7038  -11.7235 O   0  0  0  0  0  0  0  0  0  0  0  0
   18.0173   -4.1159  -10.9887 N   0  0  0  0  0  0  0  0  0  0  0  0
   17.5700   -4.3260   -9.6648 C   0  0  0  0  0  0  0  0  0  0  0  0
   17.6973   -3.4024   -8.8326 O   0  0  0  0  0  0  0  0  0  0  0  0
   16.9610   -5.6072   -9.2545 C   0  0  0  0  0  0  0  0  0  0  0  0
   16.8434   -6.5741  -10.4037 C   0  0  2  0  0  0  0  0  0  0  0  0
   16.1933   -7.7954  -10.0067 N   0  0  0  0  0  0  0  0  0  0  0  0
   18.2597   -6.9038  -10.8134 C   0  0  0  0  0  0  0  0  0  0  0  0
   18.8011   -7.9669  -10.4079 O   0  0  0  0  0  0  0  0  0  0  0  0
   19.0044   -6.0502  -11.6450 N   0  0  0  0  0  0  0  0  0  0  0  0
   20.0583   -6.6307  -12.5043 C   0  0  1  0  0  0  0  0  0  0  0  0
   19.4715   -7.7179  -13.3403 C   0  0  0  0  0  0  0  0  0  0  0  0
   20.5178   -8.3045  -14.2465 C   0  0  0  0  0  0  0  0  0  0  0  0
   19.8055   -9.4078  -15.0361 C   0  0  0  0  0  0  0  0  0  0  0  0
   20.7815  -10.1122  -15.9619 C   0  0  0  0  0  0  0  0  0  0  0  0
   20.1289  -11.0752  -16.7945 N   0  0  0  0  0  0  0  0  0  0  0  0
   20.7096   -5.5393  -13.2414 C   0  0  0  0  0  0  0  0  0  0  0  0
   22.0632   -5.4389  -13.4792 O   0  0  0  0  0  0  0  0  0  0  0  0
   20.0026   -4.5846  -13.7161 O   0  0  0  0  0  0  0  0  0  0  0  0
  2  1  1  0
  3  5  1  0
  3  2  1  0
  3  4  1  1
  5  6  2  0
  7  8  1  0
  8  9  2  0
  8 10  1  0
 11 10  1  1
 11 13  1  0
 12 11  1  0
 12  5  1  0
 13 14  2  0
 13 15  1  0
 15 16  1  0
 16 22  1  0
 16 17  1  6
 18 17  1  0
 19 18  1  0
 20 19  1  0
 21 20  1  0
 22 24  2  0
 22 23  1  0
M  END
$$$$
