SNK.pdb
     RDKit          3D

 24 23  0  0  1  0  0  0  0  0999 V2000
   27.0951  -19.1531  -17.1184 O   0  0  0  0  0  0  0  0  0  0  0  0
   28.2331  -19.2881  -16.3243 C   0  0  0  0  0  0  0  0  0  0  0  0
   28.4004  -20.7340  -16.0003 C   0  0  2  0  0  0  0  0  0  0  0  0
   28.4963  -21.5370  -17.1787 N   0  0  0  0  0  0  0  0  0  0  0  0
   27.2752  -21.2169  -15.1216 C   0  0  0  0  0  0  0  0  0  0  0  0
   26.5888  -22.2149  -15.4497 O   0  0  0  0  0  0  0  0  0  0  0  0
   25.3410  -22.3087  -10.1120 N   0  0  0  0  0  0  0  0  0  0  0  0
   25.1452  -21.0279  -10.6761 C   0  0  0  0  0  0  0  0  0  0  0  0
   24.1297  -20.3759  -10.3510 O   0  0  0  0  0  0  0  0  0  0  0  0
   26.1123  -20.4547  -11.6336 C   0  0  0  0  0  0  0  0  0  0  0  0
   25.9502  -21.0286  -13.0169 C   0  0  2  0  0  0  0  0  0  0  0  0
   26.9726  -20.5546  -13.9123 N   0  0  0  0  0  0  0  0  0  0  0  0
   24.6148  -20.5303  -13.5177 C   0  0  0  0  0  0  0  0  0  0  0  0
   24.4636  -19.3120  -13.8014 O   0  0  0  0  0  0  0  0  0  0  0  0
   23.5189  -21.3948  -13.6798 N   0  0  0  0  0  0  0  0  0  0  0  0
   22.2560  -20.8529  -14.2255 C   0  0  1  0  0  0  0  0  0  0  0  0
   21.8722  -21.6245  -15.4431 C   0  0  0  0  0  0  0  0  0  0  0  0
   22.8580  -21.3788  -16.5512 C   0  0  0  0  0  0  0  0  0  0  0  0
   22.3476  -22.1952  -17.7433 C   0  0  0  0  0  0  0  0  0  0  0  0
   23.2901  -22.0538  -18.9255 C   0  0  0  0  0  0  0  0  0  0  0  0
   22.8433  -22.8044  -20.0585 N   0  0  0  0  0  0  0  0  0  0  0  0
   21.2588  -20.8241  -13.1469 C   0  0  0  0  0  0  0  0  0  0  0  0
   20.2459  -19.8976  -13.0266 O   0  0  0  0  0  0  0  0  0  0  0  0
   21.2974  -21.7093  -12.2241 O   0  0  0  0  0  0  0  0  0  0  0  0
  2  1  1  0
  3  5  1  0
  3  2  1  0
  3  4  1  6
  5  6  2  0
  7  8  1  0
  8  9  2  0
  8 10  1  0
 11 10  1  1
 11 13  1  0
 12 11  1  0
 12  5  1  0
 13 14  2  0
 13 15  1  0
 15 16  1  0
 16 22  1  0
 16 17  1  6
 18 17  1  0
 19 18  1  0
 20 19  1  0
 21 20  1  0
 22 24  2  0
 22 23  1  0
M  END
$$$$
