SNK.pdb
     RDKit          3D

 24 23  0  0  1  0  0  0  0  0999 V2000
   14.9394  -10.3063  -16.6865 O   0  0  0  0  0  0  0  0  0  0  0  0
   15.8014   -9.4509  -16.0015 C   0  0  0  0  0  0  0  0  0  0  0  0
   16.9883  -10.2427  -15.5679 C   0  0  2  0  0  0  0  0  0  0  0  0
   16.7227  -11.6470  -15.5708 N   0  0  0  0  0  0  0  0  0  0  0  0
   17.4585   -9.7964  -14.2073 C   0  0  0  0  0  0  0  0  0  0  0  0
   17.2410  -10.5002  -13.1913 O   0  0  0  0  0  0  0  0  0  0  0  0
   21.1126   -9.1559  -13.6244 N   0  0  0  0  0  0  0  0  0  0  0  0
   21.0236   -7.7634  -13.4011 C   0  0  0  0  0  0  0  0  0  0  0  0
   22.0314   -7.0546  -13.6106 O   0  0  0  0  0  0  0  0  0  0  0  0
   19.7709   -7.1401  -12.9290 C   0  0  0  0  0  0  0  0  0  0  0  0
   18.6593   -8.1451  -12.7749 C   0  0  2  0  0  0  0  0  0  0  0  0
   18.1527   -8.5773  -14.0510 N   0  0  0  0  0  0  0  0  0  0  0  0
   17.5495   -7.4257  -12.0446 C   0  0  0  0  0  0  0  0  0  0  0  0
   16.8641   -6.5539  -12.6426 O   0  0  0  0  0  0  0  0  0  0  0  0
   17.2525   -7.7016  -10.6991 N   0  0  0  0  0  0  0  0  0  0  0  0
   16.1119   -7.0086  -10.0627 C   0  0  1  0  0  0  0  0  0  0  0  0
   15.1097   -8.0173   -9.6118 C   0  0  0  0  0  0  0  0  0  0  0  0
   13.9573   -7.3394   -8.9243 C   0  0  0  0  0  0  0  0  0  0  0  0
   12.9693   -8.4587   -8.5789 C   0  0  0  0  0  0  0  0  0  0  0  0
   11.7435   -7.8893   -7.8866 C   0  0  0  0  0  0  0  0  0  0  0  0
   10.8327   -8.9156   -7.4822 N   0  0  0  0  0  0  0  0  0  0  0  0
   16.6345   -6.1167   -9.0187 C   0  0  0  0  0  0  0  0  0  0  0  0
   15.9361   -5.0816   -8.4359 O   0  0  0  0  0  0  0  0  0  0  0  0
   17.8285   -6.2764   -8.5879 O   0  0  0  0  0  0  0  0  0  0  0  0
  2  1  1  0
  3  5  1  0
  3  2  1  0
  3  4  1  1
  5  6  2  0
  7  8  1  0
  8  9  2  0
  8 10  1  0
 11 10  1  6
 11 13  1  0
 12 11  1  0
 12  5  1  0
 13 14  2  0
 13 15  1  0
 15 16  1  0
 16 22  1  0
 16 17  1  1
 18 17  1  0
 19 18  1  0
 20 19  1  0
 21 20  1  0
 22 24  2  0
 22 23  1  0
M  END
$$$$
