SNK.pdb
     RDKit          3D

 24 23  0  0  1  0  0  0  0  0999 V2000
   16.0502   -9.4966  -13.3641 O   0  0  0  0  0  0  0  0  0  0  0  0
   15.0951   -8.6244  -13.8846 C   0  0  0  0  0  0  0  0  0  0  0  0
   15.1481   -8.7171  -15.3719 C   0  0  2  0  0  0  0  0  0  0  0  0
   15.0854  -10.0712  -15.8246 N   0  0  0  0  0  0  0  0  0  0  0  0
   16.3838   -8.0383  -15.9045 C   0  0  0  0  0  0  0  0  0  0  0  0
   17.1813   -8.6540  -16.6526 O   0  0  0  0  0  0  0  0  0  0  0  0
   16.7602   -2.6456  -14.8652 N   0  0  0  0  0  0  0  0  0  0  0  0
   16.5837   -3.9722  -15.3190 C   0  0  0  0  0  0  0  0  0  0  0  0
   15.7001   -4.6779  -14.7868 O   0  0  0  0  0  0  0  0  0  0  0  0
   17.4189   -4.5309  -16.4011 C   0  0  0  0  0  0  0  0  0  0  0  0
   17.7649   -5.9775  -16.1624 C   0  0  2  0  0  0  0  0  0  0  0  0
   16.6669   -6.6962  -15.5710 N   0  0  0  0  0  0  0  0  0  0  0  0
   18.9112   -5.9717  -15.1782 C   0  0  0  0  0  0  0  0  0  0  0  0
   18.6780   -5.9375  -13.9405 O   0  0  0  0  0  0  0  0  0  0  0  0
   20.2496   -6.0036  -15.6052 N   0  0  0  0  0  0  0  0  0  0  0  0
   21.3224   -6.0579  -14.5892 C   0  0  1  0  0  0  0  0  0  0  0  0
   22.4727   -6.8413  -15.1262 C   0  0  0  0  0  0  0  0  0  0  0  0
   22.1667   -8.3127  -15.0900 C   0  0  0  0  0  0  0  0  0  0  0  0
   23.3746   -8.9994  -15.7362 C   0  0  0  0  0  0  0  0  0  0  0  0
   23.1484  -10.4984  -15.8239 C   0  0  0  0  0  0  0  0  0  0  0  0
   24.2182  -11.1618  -16.5038 N   0  0  0  0  0  0  0  0  0  0  0  0
   21.6279   -4.6855  -14.1628 C   0  0  0  0  0  0  0  0  0  0  0  0
   21.0858   -3.5441  -14.7125 O   0  0  0  0  0  0  0  0  0  0  0  0
   22.4591   -4.4877  -13.2106 O   0  0  0  0  0  0  0  0  0  0  0  0
  2  1  1  0
  3  5  1  0
  3  2  1  0
  3  4  1  1
  5  6  2  0
  7  8  1  0
  8  9  2  0
  8 10  1  0
 11 10  1  1
 11 13  1  0
 12 11  1  0
 12  5  1  0
 13 14  2  0
 13 15  1  0
 15 16  1  0
 16 22  1  0
 16 17  1  6
 18 17  1  0
 19 18  1  0
 20 19  1  0
 21 20  1  0
 22 24  2  0
 22 23  1  0
M  END
$$$$
