SNK.pdb
     RDKit          3D

 24 23  0  0  1  0  0  0  0  0999 V2000
   34.1566   -6.2173  -14.0543 O   0  0  0  0  0  0  0  0  0  0  0  0
   33.4289   -6.2180  -15.2435 C   0  0  0  0  0  0  0  0  0  0  0  0
   33.8804   -7.3816  -16.0595 C   0  0  2  0  0  0  0  0  0  0  0  0
   35.2510   -7.2621  -16.4462 N   0  0  0  0  0  0  0  0  0  0  0  0
   33.0022   -7.5549  -17.2720 C   0  0  0  0  0  0  0  0  0  0  0  0
   33.3127   -7.0299  -18.3687 O   0  0  0  0  0  0  0  0  0  0  0  0
   32.3156  -10.8419  -18.9353 N   0  0  0  0  0  0  0  0  0  0  0  0
   30.9562  -10.9555  -18.5664 C   0  0  0  0  0  0  0  0  0  0  0  0
   30.4357  -12.0910  -18.5284 O   0  0  0  0  0  0  0  0  0  0  0  0
   30.1504   -9.7650  -18.2287 C   0  0  0  0  0  0  0  0  0  0  0  0
   30.9478   -8.4912  -18.3321 C   0  0  2  0  0  0  0  0  0  0  0  0
   31.8131   -8.3119  -17.1959 N   0  0  0  0  0  0  0  0  0  0  0  0
   29.9361   -7.3691  -18.3379 C   0  0  0  0  0  0  0  0  0  0  0  0
   29.3656   -7.0304  -17.2667 O   0  0  0  0  0  0  0  0  0  0  0  0
   29.6058   -6.6803  -19.5173 N   0  0  0  0  0  0  0  0  0  0  0  0
   28.6929   -5.5202  -19.4352 C   0  0  1  0  0  0  0  0  0  0  0  0
   28.8584   -4.6736  -20.6522 C   0  0  0  0  0  0  0  0  0  0  0  0
   27.9555   -3.4736  -20.5822 C   0  0  0  0  0  0  0  0  0  0  0  0
   28.1951   -2.7029  -21.8848 C   0  0  0  0  0  0  0  0  0  0  0  0
   27.3505   -1.4413  -21.9178 C   0  0  0  0  0  0  0  0  0  0  0  0
   27.5249   -0.7127  -23.1365 N   0  0  0  0  0  0  0  0  0  0  0  0
   27.3332   -6.0163  -19.1825 C   0  0  0  0  0  0  0  0  0  0  0  0
   26.8569   -7.2535  -19.5586 O   0  0  0  0  0  0  0  0  0  0  0  0
   26.4910   -5.2736  -18.5696 O   0  0  0  0  0  0  0  0  0  0  0  0
  2  1  1  0
  3  5  1  0
  3  2  1  0
  3  4  1  6
  5  6  2  0
  7  8  1  0
  8  9  2  0
  8 10  1  0
 11 10  1  1
 11 13  1  0
 12 11  1  0
 12  5  1  0
 13 14  2  0
 13 15  1  0
 15 16  1  0
 16 22  1  0
 16 17  1  6
 18 17  1  0
 19 18  1  0
 20 19  1  0
 21 20  1  0
 22 24  2  0
 22 23  1  0
M  END
$$$$
