SNK.pdb
     RDKit          3D

 24 23  0  0  1  0  0  0  0  0999 V2000
   18.3215  -13.3026  -17.3286 O   0  0  0  0  0  0  0  0  0  0  0  0
   19.3087  -12.7536  -16.5113 C   0  0  0  0  0  0  0  0  0  0  0  0
   19.6091  -11.3807  -17.0098 C   0  0  2  0  0  0  0  0  0  0  0  0
   20.0711  -11.3934  -18.3621 N   0  0  0  0  0  0  0  0  0  0  0  0
   20.6106  -10.6964  -16.1154 C   0  0  0  0  0  0  0  0  0  0  0  0
   20.3715  -10.5301  -14.8947 O   0  0  0  0  0  0  0  0  0  0  0  0
   24.0539  -11.7638  -14.7704 N   0  0  0  0  0  0  0  0  0  0  0  0
   24.7768  -10.9849  -15.7019 C   0  0  0  0  0  0  0  0  0  0  0  0
   25.9242  -11.3534  -16.0328 O   0  0  0  0  0  0  0  0  0  0  0  0
   24.2026   -9.7552  -16.2839 C   0  0  0  0  0  0  0  0  0  0  0  0
   22.7882   -9.5157  -15.8239 C   0  0  2  0  0  0  0  0  0  0  0  0
   21.8373  -10.2295  -16.6350 N   0  0  0  0  0  0  0  0  0  0  0  0
   22.5416   -8.0354  -15.9980 C   0  0  0  0  0  0  0  0  0  0  0  0
   22.2894   -7.5694  -17.1412 O   0  0  0  0  0  0  0  0  0  0  0  0
   22.5850   -7.1477  -14.9096 N   0  0  0  0  0  0  0  0  0  0  0  0
   22.0964   -5.7646  -15.0958 C   0  0  1  0  0  0  0  0  0  0  0  0
   20.6728   -5.7989  -15.5402 C   0  0  0  0  0  0  0  0  0  0  0  0
   20.1120   -4.4057  -15.6089 C   0  0  0  0  0  0  0  0  0  0  0  0
   18.6404   -4.5744  -16.0017 C   0  0  0  0  0  0  0  0  0  0  0  0
   17.9430   -3.2259  -16.0373 C   0  0  0  0  0  0  0  0  0  0  0  0
   16.5543   -3.3504  -16.3579 N   0  0  0  0  0  0  0  0  0  0  0  0
   22.3630   -5.0084  -13.8647 C   0  0  0  0  0  0  0  0  0  0  0  0
   22.5750   -3.6484  -13.7985 O   0  0  0  0  0  0  0  0  0  0  0  0
   22.4131   -5.6210  -12.7428 O   0  0  0  0  0  0  0  0  0  0  0  0
  2  1  1  0
  3  5  1  0
  3  2  1  0
  3  4  1  6
  5  6  2  0
  7  8  1  0
  8  9  2  0
  8 10  1  0
 11 10  1  6
 11 13  1  0
 12 11  1  0
 12  5  1  0
 13 14  2  0
 13 15  1  0
 15 16  1  0
 16 22  1  0
 16 17  1  1
 18 17  1  0
 19 18  1  0
 20 19  1  0
 21 20  1  0
 22 24  2  0
 22 23  1  0
M  END
$$$$
