SNK.pdb
     RDKit          3D

 24 23  0  0  1  0  0  0  0  0999 V2000
   16.5711   -8.8231  -15.7133 O   0  0  0  0  0  0  0  0  0  0  0  0
   17.0529  -10.0502  -16.1673 C   0  0  0  0  0  0  0  0  0  0  0  0
   18.5354   -9.9466  -16.2895 C   0  0  2  0  0  0  0  0  0  0  0  0
   19.1062  -11.1216  -16.8692 N   0  0  0  0  0  0  0  0  0  0  0  0
   19.1620   -9.6607  -14.9489 C   0  0  0  0  0  0  0  0  0  0  0  0
   20.3041  -10.0987  -14.6687 O   0  0  0  0  0  0  0  0  0  0  0  0
   21.4889   -5.6438  -11.9254 N   0  0  0  0  0  0  0  0  0  0  0  0
   20.9961   -6.9667  -11.9893 C   0  0  0  0  0  0  0  0  0  0  0  0
   21.1795   -7.7252  -11.0131 O   0  0  0  0  0  0  0  0  0  0  0  0
   20.2755   -7.4608  -13.1797 C   0  0  0  0  0  0  0  0  0  0  0  0
   19.1319   -8.3708  -12.8144 C   0  0  2  0  0  0  0  0  0  0  0  0
   18.4747   -8.8942  -13.9831 N   0  0  0  0  0  0  0  0  0  0  0  0
   18.1437   -7.5114  -12.0611 C   0  0  0  0  0  0  0  0  0  0  0  0
   17.6353   -6.5017  -12.6175 O   0  0  0  0  0  0  0  0  0  0  0  0
   17.7675   -7.8062  -10.7397 N   0  0  0  0  0  0  0  0  0  0  0  0
   16.6603   -7.0430  -10.1250 C   0  0  1  0  0  0  0  0  0  0  0  0
   15.6757   -7.9927   -9.5301 C   0  0  0  0  0  0  0  0  0  0  0  0
   14.5325   -7.2403   -8.9079 C   0  0  0  0  0  0  0  0  0  0  0  0
   13.5299   -8.3106   -8.4636 C   0  0  0  0  0  0  0  0  0  0  0  0
   12.2484   -7.6640   -7.9680 C   0  0  0  0  0  0  0  0  0  0  0  0
   11.2951   -8.6352   -7.5269 N   0  0  0  0  0  0  0  0  0  0  0  0
   17.2341   -6.0557   -9.2005 C   0  0  0  0  0  0  0  0  0  0  0  0
   16.6585   -4.8478   -8.8714 O   0  0  0  0  0  0  0  0  0  0  0  0
   18.3566   -6.2943   -8.6351 O   0  0  0  0  0  0  0  0  0  0  0  0
  2  1  1  0
  3  5  1  0
  3  2  1  0
  3  4  1  1
  5  6  2  0
  7  8  1  0
  8  9  2  0
  8 10  1  0
 11 10  1  6
 11 13  1  0
 12 11  1  0
 12  5  1  0
 13 14  2  0
 13 15  1  0
 15 16  1  0
 16 22  1  0
 16 17  1  1
 18 17  1  0
 19 18  1  0
 20 19  1  0
 21 20  1  0
 22 24  2  0
 22 23  1  0
M  END
$$$$
