DAM.pdb
     RDKit          3D

 22 21  0  0  1  0  0  0  0  0999 V2000
   27.4405  -19.1504  -17.1276 N   0  0  0  0  0  0  0  0  0  0  0  0
   27.3668  -20.2900  -16.2312 C   0  0  1  0  0  0  0  0  0  0  0  0
   28.7524  -20.8594  -16.0194 C   0  0  0  0  0  0  0  0  0  0  0  0
   28.5915  -22.3322  -15.8877 C   0  0  0  0  0  0  0  0  0  0  0  0
   27.4488  -22.9010  -15.9916 O   0  0  0  0  0  0  0  0  0  0  0  0
   26.6796  -19.9090  -14.9958 C   0  0  0  0  0  0  0  0  0  0  0  0
   27.1085  -18.9201  -14.3488 O   0  0  0  0  0  0  0  0  0  0  0  0
   29.6713  -23.1774  -15.6463 O   0  0  0  0  0  0  0  0  0  0  0  0
   23.4072  -20.1272  -13.4765 C   0  0  0  0  0  0  0  0  0  0  0  0
   24.9024  -20.1371  -13.3022 C   0  0  2  0  0  0  0  0  0  0  0  0
   25.5381  -20.6077  -14.4849 N   0  0  0  0  0  0  0  0  0  0  0  0
   25.2526  -20.9491  -12.0968 C   0  0  0  0  0  0  0  0  0  0  0  0
   25.1081  -22.1975  -12.0357 O   0  0  0  0  0  0  0  0  0  0  0  0
   29.3943  -19.4513   -6.5573 C   0  0  0  0  0  0  0  0  0  0  0  0
   27.6493  -19.1307   -6.3547 S   0  0  0  0  0  0  0  0  0  0  0  0
   26.5918  -20.2533   -7.3103 C   0  0  0  0  0  0  0  0  0  0  0  0
   26.5626  -19.9156   -8.7574 C   0  0  0  0  0  0  0  0  0  0  0  0
   25.7878  -20.8615   -9.6350 C   0  0  2  0  0  0  0  0  0  0  0  0
   25.7759  -20.2518  -10.9753 N   0  0  0  0  0  0  0  0  0  0  0  0
   24.4078  -20.9866   -9.1098 C   0  0  0  0  0  0  0  0  0  0  0  0
   23.4254  -20.3255   -9.4873 O   0  0  0  0  0  0  0  0  0  0  0  0
   24.2070  -21.9442   -8.0944 O   0  0  0  0  0  0  0  0  0  0  0  0
  2  1  1  6
  3  2  1  0
  4  3  1  0
  4  5  2  0
  6  2  1  0
  6 11  1  0
  7  6  2  0
  8  4  1  0
 10 11  1  0
 10 12  1  0
 10  9  1  6
 12 13  2  0
 14 15  1  0
 16 15  1  0
 17 16  1  0
 18 17  1  1
 18 20  1  0
 19 12  1  0
 19 18  1  0
 20 21  2  0
 20 22  1  0
M  END
$$$$
