DAM.pdb
     RDKit          3D

 22 21  0  0  1  0  0  0  0  0999 V2000
   21.8277  -20.2858  -15.8906 N   0  0  0  0  0  0  0  0  0  0  0  0
   22.4956  -19.4635  -14.8980 C   0  0  1  0  0  0  0  0  0  0  0  0
   22.1594  -19.9677  -13.5117 C   0  0  0  0  0  0  0  0  0  0  0  0
   20.7215  -19.6622  -13.2851 C   0  0  0  0  0  0  0  0  0  0  0  0
   20.2343  -18.4974  -13.4992 O   0  0  0  0  0  0  0  0  0  0  0  0
   23.9305  -19.4044  -15.1831 C   0  0  0  0  0  0  0  0  0  0  0  0
   24.4910  -20.4218  -15.6640 O   0  0  0  0  0  0  0  0  0  0  0  0
   19.8222  -20.6227  -12.8298 O   0  0  0  0  0  0  0  0  0  0  0  0
   26.7253  -16.9146  -15.1730 C   0  0  0  0  0  0  0  0  0  0  0  0
   26.1344  -18.2992  -15.1728 C   0  0  2  0  0  0  0  0  0  0  0  0
   24.7316  -18.2415  -14.9422 N   0  0  0  0  0  0  0  0  0  0  0  0
   26.8505  -19.1405  -14.1657 C   0  0  0  0  0  0  0  0  0  0  0  0
   28.0469  -19.5084  -14.2943 O   0  0  0  0  0  0  0  0  0  0  0  0
   23.7061  -20.3082   -8.2909 C   0  0  0  0  0  0  0  0  0  0  0  0
   25.4699  -20.3613   -8.0164 S   0  0  0  0  0  0  0  0  0  0  0  0
   26.4187  -20.8152   -9.4947 C   0  0  0  0  0  0  0  0  0  0  0  0
   26.0493  -20.0006  -10.6817 C   0  0  0  0  0  0  0  0  0  0  0  0
   26.7335  -20.3727  -11.9696 C   0  0  2  0  0  0  0  0  0  0  0  0
   26.1211  -19.5306  -13.0109 N   0  0  0  0  0  0  0  0  0  0  0  0
   26.4866  -21.8067  -12.2507 C   0  0  0  0  0  0  0  0  0  0  0  0
   25.7022  -22.2538  -13.1046 O   0  0  0  0  0  0  0  0  0  0  0  0
   27.2134  -22.7326  -11.4743 O   0  0  0  0  0  0  0  0  0  0  0  0
  2  1  1  6
  3  2  1  0
  4  3  1  0
  4  5  2  0
  6  2  1  0
  6 11  1  0
  7  6  2  0
  8  4  1  0
 10 11  1  0
 10 12  1  0
 10  9  1  1
 12 13  2  0
 14 15  1  0
 16 15  1  0
 17 16  1  0
 18 17  1  1
 18 20  1  0
 19 12  1  0
 19 18  1  0
 20 21  2  0
 20 22  1  0
M  END
$$$$
