DAM.pdb
     RDKit          3D

 22 21  0  0  1  0  0  0  0  0999 V2000
   15.9787  -13.3826  -16.9641 N   0  0  0  0  0  0  0  0  0  0  0  0
   15.9690  -12.2364  -16.0733 C   0  0  1  0  0  0  0  0  0  0  0  0
   16.0903  -12.7064  -14.6403 C   0  0  0  0  0  0  0  0  0  0  0  0
   14.7950  -13.3492  -14.2923 C   0  0  0  0  0  0  0  0  0  0  0  0
   13.6770  -12.8978  -14.7239 O   0  0  0  0  0  0  0  0  0  0  0  0
   17.0000  -11.2798  -16.4801 C   0  0  0  0  0  0  0  0  0  0  0  0
   18.1536  -11.7100  -16.7341 O   0  0  0  0  0  0  0  0  0  0  0  0
   14.7219  -14.4779  -13.4803 O   0  0  0  0  0  0  0  0  0  0  0  0
   17.3406   -7.6215  -17.2237 C   0  0  0  0  0  0  0  0  0  0  0  0
   17.8458   -9.0029  -16.9033 C   0  0  2  0  0  0  0  0  0  0  0  0
   16.7602   -9.8730  -16.6053 N   0  0  0  0  0  0  0  0  0  0  0  0
   18.8398   -8.9182  -15.7899 C   0  0  0  0  0  0  0  0  0  0  0  0
   18.5227   -8.9553  -14.5729 O   0  0  0  0  0  0  0  0  0  0  0  0
   26.2098  -11.2466  -14.5166 C   0  0  0  0  0  0  0  0  0  0  0  0
   24.7920  -10.9718  -15.5670 S   0  0  0  0  0  0  0  0  0  0  0  0
   23.5935   -9.8001  -14.8726 C   0  0  0  0  0  0  0  0  0  0  0  0
   22.3682   -9.6771  -15.7049 C   0  0  0  0  0  0  0  0  0  0  0  0
   21.2715   -8.8197  -15.1328 C   0  0  2  0  0  0  0  0  0  0  0  0
   20.2078   -8.7912  -16.1507 N   0  0  0  0  0  0  0  0  0  0  0  0
   21.7992   -7.4554  -14.8957 C   0  0  0  0  0  0  0  0  0  0  0  0
   22.2771   -7.0383  -13.8270 O   0  0  0  0  0  0  0  0  0  0  0  0
   21.7491   -6.5645  -15.9875 O   0  0  0  0  0  0  0  0  0  0  0  0
  2  1  1  6
  3  2  1  0
  4  3  1  0
  4  5  2  0
  6  2  1  0
  6 11  1  0
  7  6  2  0
  8  4  1  0
 10 11  1  0
 10 12  1  0
 10  9  1  1
 12 13  2  0
 14 15  1  0
 16 15  1  0
 17 16  1  0
 18 17  1  6
 18 20  1  0
 19 12  1  0
 19 18  1  0
 20 21  2  0
 20 22  1  0
M  END
$$$$
