DAM.pdb
     RDKit          3D

 22 21  0  0  1  0  0  0  0  0999 V2000
   17.4379  -11.1782  -17.9399 N   0  0  0  0  0  0  0  0  0  0  0  0
   18.8448  -11.0067  -18.2540 C   0  0  1  0  0  0  0  0  0  0  0  0
   19.1026  -11.4387  -19.6809 C   0  0  0  0  0  0  0  0  0  0  0  0
   18.8495  -12.9034  -19.7342 C   0  0  0  0  0  0  0  0  0  0  0  0
   18.0257  -13.4187  -20.5683 O   0  0  0  0  0  0  0  0  0  0  0  0
   19.2577   -9.6333  -17.9592 C   0  0  0  0  0  0  0  0  0  0  0  0
   20.4590   -9.3127  -18.1456 O   0  0  0  0  0  0  0  0  0  0  0  0
   19.4930  -13.7985  -18.8838 O   0  0  0  0  0  0  0  0  0  0  0  0
   17.7378   -6.4100  -16.7843 C   0  0  0  0  0  0  0  0  0  0  0  0
   18.8661   -7.3493  -17.1173 C   0  0  2  0  0  0  0  0  0  0  0  0
   18.3591   -8.6315  -17.4683 N   0  0  0  0  0  0  0  0  0  0  0  0
   19.8199   -7.4010  -15.9674 C   0  0  0  0  0  0  0  0  0  0  0  0
   19.6594   -8.1461  -14.9662 O   0  0  0  0  0  0  0  0  0  0  0  0
   26.3667  -10.2076  -14.5970 C   0  0  0  0  0  0  0  0  0  0  0  0
   25.0135   -9.6343  -15.6116 S   0  0  0  0  0  0  0  0  0  0  0  0
   24.1633   -8.1832  -14.9310 C   0  0  0  0  0  0  0  0  0  0  0  0
   22.9463   -7.8210  -15.7033 C   0  0  0  0  0  0  0  0  0  0  0  0
   22.0939   -6.7321  -15.1093 C   0  0  2  0  0  0  0  0  0  0  0  0
   20.9603   -6.5566  -16.0327 N   0  0  0  0  0  0  0  0  0  0  0  0
   22.8918   -5.4861  -15.0251 C   0  0  0  0  0  0  0  0  0  0  0  0
   23.1829   -4.7454  -15.9795 O   0  0  0  0  0  0  0  0  0  0  0  0
   23.3529   -5.1216  -13.7434 O   0  0  0  0  0  0  0  0  0  0  0  0
  2  1  1  6
  3  2  1  0
  4  3  1  0
  4  5  2  0
  6  2  1  0
  6 11  1  0
  7  6  2  0
  8  4  1  0
 10 11  1  0
 10 12  1  0
 10  9  1  1
 12 13  2  0
 14 15  1  0
 16 15  1  0
 17 16  1  0
 18 17  1  6
 18 20  1  0
 19 12  1  0
 19 18  1  0
 20 21  2  0
 20 22  1  0
M  END
$$$$
