DAM.pdb
     RDKit          3D

 22 21  0  0  1  0  0  0  0  0999 V2000
   24.0709  -18.3469  -13.9149 N   0  0  0  0  0  0  0  0  0  0  0  0
   23.6984  -19.7386  -14.0932 C   0  0  1  0  0  0  0  0  0  0  0  0
   23.2325  -19.9610  -15.5154 C   0  0  0  0  0  0  0  0  0  0  0  0
   22.1821  -18.9426  -15.7832 C   0  0  0  0  0  0  0  0  0  0  0  0
   21.8970  -18.0245  -14.9371 O   0  0  0  0  0  0  0  0  0  0  0  0
   24.8025  -20.6072  -13.6810 C   0  0  0  0  0  0  0  0  0  0  0  0
   24.6462  -21.8528  -13.7488 O   0  0  0  0  0  0  0  0  0  0  0  0
   21.4501  -18.9262  -16.9674 O   0  0  0  0  0  0  0  0  0  0  0  0
   28.4409  -20.4316  -13.1377 C   0  0  0  0  0  0  0  0  0  0  0  0
   27.0873  -21.0262  -12.8543 C   0  0  2  0  0  0  0  0  0  0  0  0
   26.0576  -20.1084  -13.2032 N   0  0  0  0  0  0  0  0  0  0  0  0
   27.0240  -21.4468  -11.4212 C   0  0  0  0  0  0  0  0  0  0  0  0
   27.5213  -22.5193  -10.9905 O   0  0  0  0  0  0  0  0  0  0  0  0
   28.2164  -19.5010   -4.1849 C   0  0  0  0  0  0  0  0  0  0  0  0
   28.1488  -19.1720   -5.9389 S   0  0  0  0  0  0  0  0  0  0  0  0
   26.9611  -20.2181   -6.8259 C   0  0  0  0  0  0  0  0  0  0  0  0
   27.0697  -20.0791   -8.3017 C   0  0  0  0  0  0  0  0  0  0  0  0
   26.1462  -20.9494   -9.1110 C   0  0  2  0  0  0  0  0  0  0  0  0
   26.3639  -20.5718  -10.5175 N   0  0  0  0  0  0  0  0  0  0  0  0
   24.7468  -20.6720   -8.7101 C   0  0  0  0  0  0  0  0  0  0  0  0
   23.9106  -20.0447   -9.3821 O   0  0  0  0  0  0  0  0  0  0  0  0
   24.3429  -21.1709   -7.4546 O   0  0  0  0  0  0  0  0  0  0  0  0
  2  1  1  6
  3  2  1  0
  4  3  1  0
  4  5  2  0
  6  2  1  0
  6 11  1  0
  7  6  2  0
  8  4  1  0
 10 11  1  0
 10 12  1  0
 10  9  1  1
 12 13  2  0
 14 15  1  0
 16 15  1  0
 17 16  1  0
 18 17  1  1
 18 20  1  0
 19 12  1  0
 19 18  1  0
 20 21  2  0
 20 22  1  0
M  END
$$$$
