DAM.pdb
     RDKit          3D

 22 21  0  0  1  0  0  0  0  0999 V2000
   15.6575  -12.1358  -15.0110 N   0  0  0  0  0  0  0  0  0  0  0  0
   16.9251  -12.7387  -15.3815 C   0  0  1  0  0  0  0  0  0  0  0  0
   16.6760  -13.9425  -16.2635 C   0  0  0  0  0  0  0  0  0  0  0  0
   15.9823  -14.9518  -15.4196 C   0  0  0  0  0  0  0  0  0  0  0  0
   16.3208  -15.1661  -14.2033 O   0  0  0  0  0  0  0  0  0  0  0  0
   17.8020  -11.7293  -15.9779 C   0  0  0  0  0  0  0  0  0  0  0  0
   18.9931  -12.0411  -16.2321 O   0  0  0  0  0  0  0  0  0  0  0  0
   14.9252  -15.7199  -15.9005 O   0  0  0  0  0  0  0  0  0  0  0  0
   17.6465   -8.1336  -17.0501 C   0  0  0  0  0  0  0  0  0  0  0  0
   18.3200   -9.4465  -16.7521 C   0  0  2  0  0  0  0  0  0  0  0  0
   17.3702  -10.3992  -16.2892 N   0  0  0  0  0  0  0  0  0  0  0  0
   19.4317   -9.2202  -15.7786 C   0  0  0  0  0  0  0  0  0  0  0  0
   19.2597   -9.1456  -14.5344 O   0  0  0  0  0  0  0  0  0  0  0  0
   27.1112  -10.7570  -15.1305 C   0  0  0  0  0  0  0  0  0  0  0  0
   25.5840  -10.6995  -16.0544 S   0  0  0  0  0  0  0  0  0  0  0  0
   24.3092   -9.6659  -15.2810 C   0  0  0  0  0  0  0  0  0  0  0  0
   23.0125   -9.7223  -16.0052 C   0  0  0  0  0  0  0  0  0  0  0  0
   21.9053   -8.8793  -15.4320 C   0  0  2  0  0  0  0  0  0  0  0  0
   20.7422   -9.0875  -16.3107 N   0  0  0  0  0  0  0  0  0  0  0  0
   22.3218   -7.4572  -15.4511 C   0  0  0  0  0  0  0  0  0  0  0  0
   22.8475   -6.8427  -14.5075 O   0  0  0  0  0  0  0  0  0  0  0  0
   22.0970   -6.7535  -16.6521 O   0  0  0  0  0  0  0  0  0  0  0  0
  2  1  1  6
  3  2  1  0
  4  3  1  0
  4  5  2  0
  6  2  1  0
  6 11  1  0
  7  6  2  0
  8  4  1  0
 10 11  1  0
 10 12  1  0
 10  9  1  1
 12 13  2  0
 14 15  1  0
 16 15  1  0
 17 16  1  0
 18 17  1  6
 18 20  1  0
 19 12  1  0
 19 18  1  0
 20 21  2  0
 20 22  1  0
M  END
$$$$
