DAM.pdb
     RDKit          3D

 22 21  0  0  1  0  0  0  0  0999 V2000
   17.5612  -11.0271  -18.5750 N   0  0  0  0  0  0  0  0  0  0  0  0
   18.5191  -10.8057  -17.5069 C   0  0  1  0  0  0  0  0  0  0  0  0
   19.8042  -11.5415  -17.8170 C   0  0  0  0  0  0  0  0  0  0  0  0
   19.5913  -12.9575  -17.4147 C   0  0  0  0  0  0  0  0  0  0  0  0
   19.0397  -13.2703  -16.3021 O   0  0  0  0  0  0  0  0  0  0  0  0
   18.6900   -9.3694  -17.2801 C   0  0  0  0  0  0  0  0  0  0  0  0
   19.0114   -8.6405  -18.2526 O   0  0  0  0  0  0  0  0  0  0  0  0
   19.9765  -14.0237  -18.2229 O   0  0  0  0  0  0  0  0  0  0  0  0
   17.8969   -6.8068  -14.7201 C   0  0  0  0  0  0  0  0  0  0  0  0
   18.7032   -7.3460  -15.8713 C   0  0  2  0  0  0  0  0  0  0  0  0
   18.5079   -8.7493  -16.0016 N   0  0  0  0  0  0  0  0  0  0  0  0
   20.1398   -6.9786  -15.6816 C   0  0  0  0  0  0  0  0  0  0  0  0
   20.5409   -5.7934  -15.5490 O   0  0  0  0  0  0  0  0  0  0  0  0
   27.1267  -10.8077  -14.8996 C   0  0  0  0  0  0  0  0  0  0  0  0
   25.3607  -10.7895  -15.1641 S   0  0  0  0  0  0  0  0  0  0  0  0
   24.6588   -9.1185  -15.2466 C   0  0  0  0  0  0  0  0  0  0  0  0
   23.1776   -9.1276  -15.3700 C   0  0  0  0  0  0  0  0  0  0  0  0
   22.5240   -7.7791  -15.5098 C   0  0  2  0  0  0  0  0  0  0  0  0
   21.0820   -8.0413  -15.6513 N   0  0  0  0  0  0  0  0  0  0  0  0
   23.0511   -7.1104  -16.7227 C   0  0  0  0  0  0  0  0  0  0  0  0
   22.6775   -7.3236  -17.8886 O   0  0  0  0  0  0  0  0  0  0  0  0
   24.0636   -6.1501  -16.5202 O   0  0  0  0  0  0  0  0  0  0  0  0
  2  1  1  6
  3  2  1  0
  4  3  1  0
  4  5  2  0
  6  2  1  0
  6 11  1  0
  7  6  2  0
  8  4  1  0
 10 11  1  0
 10 12  1  0
 10  9  1  1
 12 13  2  0
 14 15  1  0
 16 15  1  0
 17 16  1  0
 18 17  1  6
 18 20  1  0
 19 12  1  0
 19 18  1  0
 20 21  2  0
 20 22  1  0
M  END
$$$$
