DAM.pdb
     RDKit          3D

 22 21  0  0  1  0  0  0  0  0999 V2000
   13.7291   -9.1559  -11.2862 N   0  0  0  0  0  0  0  0  0  0  0  0
   14.9010   -9.1496  -10.4293 C   0  0  1  0  0  0  0  0  0  0  0  0
   15.7960  -10.3165  -10.7848 C   0  0  0  0  0  0  0  0  0  0  0  0
   15.0282  -11.5517  -10.4734 C   0  0  0  0  0  0  0  0  0  0  0  0
   14.2768  -11.6402   -9.4401 O   0  0  0  0  0  0  0  0  0  0  0  0
   15.5614   -7.8447  -10.4974 C   0  0  0  0  0  0  0  0  0  0  0  0
   15.8146   -7.3564  -11.6278 O   0  0  0  0  0  0  0  0  0  0  0  0
   15.0794  -12.6812  -11.2859 O   0  0  0  0  0  0  0  0  0  0  0  0
   16.3848   -4.9805   -8.2752 C   0  0  0  0  0  0  0  0  0  0  0  0
   16.5842   -5.8365   -9.4973 C   0  0  2  0  0  0  0  0  0  0  0  0
   15.9345   -7.0921   -9.3369 N   0  0  0  0  0  0  0  0  0  0  0  0
   18.0478   -5.9748   -9.7686 C   0  0  0  0  0  0  0  0  0  0  0  0
   18.8252   -6.6548   -9.0499 O   0  0  0  0  0  0  0  0  0  0  0  0
   22.8668   -9.6523  -13.5927 C   0  0  0  0  0  0  0  0  0  0  0  0
   21.2964   -9.0883  -12.9564 S   0  0  0  0  0  0  0  0  0  0  0  0
   21.3195   -7.3619  -12.3992 C   0  0  0  0  0  0  0  0  0  0  0  0
   20.0313   -6.9427  -11.7878 C   0  0  0  0  0  0  0  0  0  0  0  0
   19.9499   -5.5036  -11.3544 C   0  0  2  0  0  0  0  0  0  0  0  0
   18.5637   -5.2947  -10.9041 N   0  0  0  0  0  0  0  0  0  0  0  0
   20.2557   -4.6323  -12.5135 C   0  0  0  0  0  0  0  0  0  0  0  0
   19.4261   -4.1862  -13.3242 O   0  0  0  0  0  0  0  0  0  0  0  0
   21.6101   -4.2868  -12.6990 O   0  0  0  0  0  0  0  0  0  0  0  0
  2  1  1  6
  3  2  1  0
  4  3  1  0
  4  5  2  0
  6  2  1  0
  6 11  1  0
  7  6  2  0
  8  4  1  0
 10 11  1  0
 10 12  1  0
 10  9  1  1
 12 13  2  0
 14 15  1  0
 16 15  1  0
 17 16  1  0
 18 17  1  6
 18 20  1  0
 19 12  1  0
 19 18  1  0
 20 21  2  0
 20 22  1  0
M  END
$$$$
