DAM.pdb
     RDKit          3D

 22 21  0  0  1  0  0  0  0  0999 V2000
   16.7305  -13.0963  -17.0933 N   0  0  0  0  0  0  0  0  0  0  0  0
   16.5012  -11.8863  -16.3247 C   0  0  1  0  0  0  0  0  0  0  0  0
   16.3560  -12.2354  -14.8597 C   0  0  0  0  0  0  0  0  0  0  0  0
   15.1345  -13.0759  -14.7418 C   0  0  0  0  0  0  0  0  0  0  0  0
   14.0190  -12.7272  -15.2652 O   0  0  0  0  0  0  0  0  0  0  0  0
   17.5545  -10.9092  -16.6069 C   0  0  0  0  0  0  0  0  0  0  0  0
   18.7330  -11.3207  -16.7558 O   0  0  0  0  0  0  0  0  0  0  0  0
   15.1325  -14.2891  -14.0588 O   0  0  0  0  0  0  0  0  0  0  0  0
   17.8630   -7.2511  -17.3663 C   0  0  0  0  0  0  0  0  0  0  0  0
   18.3811   -8.6332  -17.0707 C   0  0  2  0  0  0  0  0  0  0  0  0
   17.3096   -9.5025  -16.7236 N   0  0  0  0  0  0  0  0  0  0  0  0
   19.4254   -8.5503  -16.0042 C   0  0  0  0  0  0  0  0  0  0  0  0
   19.1593   -8.4983  -14.7755 O   0  0  0  0  0  0  0  0  0  0  0  0
   26.9291  -10.6836  -14.9204 C   0  0  0  0  0  0  0  0  0  0  0  0
   25.5610  -10.2920  -15.9993 S   0  0  0  0  0  0  0  0  0  0  0  0
   24.2024   -9.4300  -15.1610 C   0  0  0  0  0  0  0  0  0  0  0  0
   23.0082   -9.2662  -16.0305 C   0  0  0  0  0  0  0  0  0  0  0  0
   21.8828   -8.4524  -15.4507 C   0  0  2  0  0  0  0  0  0  0  0  0
   20.7819   -8.5324  -16.4254 N   0  0  0  0  0  0  0  0  0  0  0  0
   22.3336   -7.0497  -15.2914 C   0  0  0  0  0  0  0  0  0  0  0  0
   22.2991   -6.1725  -16.1711 O   0  0  0  0  0  0  0  0  0  0  0  0
   22.8423   -6.6938  -14.0254 O   0  0  0  0  0  0  0  0  0  0  0  0
  2  1  1  6
  3  2  1  0
  4  3  1  0
  4  5  2  0
  6  2  1  0
  6 11  1  0
  7  6  2  0
  8  4  1  0
 10 11  1  0
 10 12  1  0
 10  9  1  1
 12 13  2  0
 14 15  1  0
 16 15  1  0
 17 16  1  0
 18 17  1  6
 18 20  1  0
 19 12  1  0
 19 18  1  0
 20 21  2  0
 20 22  1  0
M  END
$$$$
