DAM.pdb
     RDKit          3D

 22 21  0  0  1  0  0  0  0  0999 V2000
   20.9560  -20.7732  -11.1259 N   0  0  0  0  0  0  0  0  0  0  0  0
   20.9275  -20.6773  -12.5741 C   0  0  1  0  0  0  0  0  0  0  0  0
   20.3658  -19.3332  -12.9828 C   0  0  0  0  0  0  0  0  0  0  0  0
   18.9580  -19.2972  -12.5040 C   0  0  0  0  0  0  0  0  0  0  0  0
   18.5577  -18.4406  -11.6403 O   0  0  0  0  0  0  0  0  0  0  0  0
   22.2561  -20.9628  -13.1190 C   0  0  0  0  0  0  0  0  0  0  0  0
   23.0633  -21.6268  -12.4204 O   0  0  0  0  0  0  0  0  0  0  0  0
   17.9944  -20.1892  -12.9669 O   0  0  0  0  0  0  0  0  0  0  0  0
   24.0356  -20.7302  -16.3936 C   0  0  0  0  0  0  0  0  0  0  0  0
   23.9569  -20.9307  -14.9038 C   0  0  2  0  0  0  0  0  0  0  0  0
   22.6849  -20.5234  -14.4134 N   0  0  0  0  0  0  0  0  0  0  0  0
   25.0874  -20.2046  -14.2483 C   0  0  0  0  0  0  0  0  0  0  0  0
   25.0065  -19.0159  -13.8440 O   0  0  0  0  0  0  0  0  0  0  0  0
   31.3743  -21.0934   -9.7193 C   0  0  0  0  0  0  0  0  0  0  0  0
   29.8441  -21.6308  -10.4669 S   0  0  0  0  0  0  0  0  0  0  0  0
   29.3329  -20.6138  -11.8797 C   0  0  0  0  0  0  0  0  0  0  0  0
   28.0431  -21.0611  -12.4673 C   0  0  0  0  0  0  0  0  0  0  0  0
   27.5280  -20.2392  -13.6181 C   0  0  2  0  0  0  0  0  0  0  0  0
   26.3058  -20.9161  -14.0833 N   0  0  0  0  0  0  0  0  0  0  0  0
   28.5495  -20.2178  -14.6915 C   0  0  0  0  0  0  0  0  0  0  0  0
   28.6218  -21.0174  -15.6400 O   0  0  0  0  0  0  0  0  0  0  0  0
   29.5163  -19.1940  -14.6174 O   0  0  0  0  0  0  0  0  0  0  0  0
  2  1  1  1
  3  2  1  0
  4  3  1  0
  4  5  2  0
  6  2  1  0
  6 11  1  0
  7  6  2  0
  8  4  1  0
 10 11  1  0
 10 12  1  0
 10  9  1  6
 12 13  2  0
 14 15  1  0
 16 15  1  0
 17 16  1  0
 18 17  1  1
 18 20  1  0
 19 12  1  0
 19 18  1  0
 20 21  2  0
 20 22  1  0
M  END
$$$$
