DAM.pdb
     RDKit          3D

 22 21  0  0  1  0  0  0  0  0999 V2000
   16.8142  -11.4613  -17.3071 N   0  0  0  0  0  0  0  0  0  0  0  0
   16.7953  -10.6860  -16.0799 C   0  0  1  0  0  0  0  0  0  0  0  0
   17.1923  -11.5678  -14.9163 C   0  0  0  0  0  0  0  0  0  0  0  0
   16.0911  -12.5506  -14.7323 C   0  0  0  0  0  0  0  0  0  0  0  0
   14.8600  -12.1978  -14.7380 O   0  0  0  0  0  0  0  0  0  0  0  0
   17.6225   -9.4879  -16.2341 C   0  0  0  0  0  0  0  0  0  0  0  0
   18.7559   -9.6033  -16.7658 O   0  0  0  0  0  0  0  0  0  0  0  0
   16.3332  -13.9089  -14.5455 O   0  0  0  0  0  0  0  0  0  0  0  0
   17.3777   -5.7871  -15.7197 C   0  0  0  0  0  0  0  0  0  0  0  0
   18.1038   -7.0891  -15.9289 C   0  0  2  0  0  0  0  0  0  0  0  0
   17.2045   -8.1852  -15.8093 N   0  0  0  0  0  0  0  0  0  0  0  0
   19.2482   -7.1746  -14.9709 C   0  0  0  0  0  0  0  0  0  0  0  0
   19.1269   -7.5551  -13.7777 O   0  0  0  0  0  0  0  0  0  0  0  0
   26.3981   -9.8938  -14.5840 C   0  0  0  0  0  0  0  0  0  0  0  0
   24.8944   -9.4601  -15.4442 S   0  0  0  0  0  0  0  0  0  0  0  0
   23.9012   -8.2115  -14.5803 C   0  0  0  0  0  0  0  0  0  0  0  0
   22.6154   -7.9285  -15.2699 C   0  0  0  0  0  0  0  0  0  0  0  0
   21.7286   -6.9079  -14.6087 C   0  0  2  0  0  0  0  0  0  0  0  0
   20.5300   -6.8030  -15.4576 N   0  0  0  0  0  0  0  0  0  0  0  0
   22.4421   -5.6101  -14.5561 C   0  0  0  0  0  0  0  0  0  0  0  0
   22.4593   -4.7549  -15.4576 O   0  0  0  0  0  0  0  0  0  0  0  0
   23.1585   -5.3353  -13.3731 O   0  0  0  0  0  0  0  0  0  0  0  0
  2  1  1  6
  3  2  1  0
  4  3  1  0
  4  5  2  0
  6  2  1  0
  6 11  1  0
  7  6  2  0
  8  4  1  0
 10 11  1  0
 10 12  1  0
 10  9  1  1
 12 13  2  0
 14 15  1  0
 16 15  1  0
 17 16  1  0
 18 17  1  6
 18 20  1  0
 19 12  1  0
 19 18  1  0
 20 21  2  0
 20 22  1  0
M  END
$$$$
