SFA.pdb
     RDKit          3D

 23 23  0  0  1  0  0  0  0  0999 V2000
   11.7918  -18.7358   22.9338 O   0  0  0  0  0  0  0  0  0  0  0  0
   10.6193  -18.7505   22.2201 C   0  0  0  0  0  0  0  0  0  0  0  0
   10.3023  -17.4399   21.5411 C   0  0  2  0  0  0  0  0  0  0  0  0
   11.4341  -17.0941   20.7019 N   0  0  0  0  0  0  0  0  0  0  0  0
   10.1290  -16.3582   22.5437 C   0  0  0  0  0  0  0  0  0  0  0  0
   11.0617  -15.5015   22.6037 O   0  0  0  0  0  0  0  0  0  0  0  0
    9.0211  -16.2527   23.3900 N   0  0  0  0  0  0  0  0  0  0  0  0
    8.8889  -15.1086   24.2832 C   0  0  1  0  0  0  0  0  0  0  0  0
    7.4432  -14.6448   24.3173 C   0  0  0  0  0  0  0  0  0  0  0  0
    7.1623  -13.5445   25.2313 C   0  0  0  0  0  0  0  0  0  0  0  0
    7.7003  -12.2792   25.1140 C   0  0  0  0  0  0  0  0  0  0  0  0
    7.4001  -11.2601   25.9782 C   0  0  0  0  0  0  0  0  0  0  0  0
    6.5303  -11.4920   27.0076 C   0  0  0  0  0  0  0  0  0  0  0  0
    5.9755  -12.7432   27.1534 C   0  0  0  0  0  0  0  0  0  0  0  0
    6.2889  -13.7524   26.2764 C   0  0  0  0  0  0  0  0  0  0  0  0
    9.3098  -15.4076   25.6472 C   0  0  0  0  0  0  0  0  0  0  0  0
    8.6455  -16.1783   26.3771 O   0  0  0  0  0  0  0  0  0  0  0  0
    9.7784  -13.9986   28.3571 C   0  0  0  0  0  0  0  0  0  0  0  0
   10.7407  -14.9436   27.6321 C   0  0  2  0  0  0  0  0  0  0  0  0
   10.4885  -14.8419   26.2117 N   0  0  0  0  0  0  0  0  0  0  0  0
   10.4273  -16.3169   28.1090 C   0  0  0  0  0  0  0  0  0  0  0  0
   10.7084  -16.7403   29.3977 O   0  0  0  0  0  0  0  0  0  0  0  0
    9.8787  -17.1496   27.3148 O   0  0  0  0  0  0  0  0  0  0  0  0
  2  1  1  0
  3  4  1  6
  3  2  1  0
  5  3  1  0
  6  5  2  0
  7  5  1  0
  8  9  1  1
  8  7  1  0
  9 10  1  0
 10 15  2  0
 11 12  2  0
 11 10  1  0
 12 13  1  0
 13 14  2  0
 15 14  1  0
 16  8  1  0
 17 16  2  0
 19 18  1  1
 19 20  1  0
 20 16  1  0
 21 19  1  0
 21 22  1  0
 23 21  2  0
M  END
$$$$
