SFA.pdb
     RDKit          3D

 23 23  0  0  1  0  0  0  0  0999 V2000
    9.0964  -18.8184   20.4930 O   0  0  0  0  0  0  0  0  0  0  0  0
    8.1736  -18.0284   19.8536 C   0  0  0  0  0  0  0  0  0  0  0  0
    8.6197  -16.5982   19.6677 C   0  0  2  0  0  0  0  0  0  0  0  0
    9.8908  -16.6211   18.9687 N   0  0  0  0  0  0  0  0  0  0  0  0
    8.8323  -15.9400   20.9818 C   0  0  0  0  0  0  0  0  0  0  0  0
   10.0227  -15.9422   21.4184 O   0  0  0  0  0  0  0  0  0  0  0  0
    7.8109  -15.3421   21.7262 N   0  0  0  0  0  0  0  0  0  0  0  0
    8.1051  -14.7396   23.0203 C   0  0  1  0  0  0  0  0  0  0  0  0
    6.9178  -13.9163   23.4880 C   0  0  0  0  0  0  0  0  0  0  0  0
    7.0698  -13.2887   24.7950 C   0  0  0  0  0  0  0  0  0  0  0  0
    7.9977  -12.3092   25.0842 C   0  0  0  0  0  0  0  0  0  0  0  0
    8.1017  -11.7241   26.3181 C   0  0  0  0  0  0  0  0  0  0  0  0
    7.2552  -12.1179   27.3173 C   0  0  0  0  0  0  0  0  0  0  0  0
    6.3176  -13.0928   27.0623 C   0  0  0  0  0  0  0  0  0  0  0  0
    6.2288  -13.6677   25.8184 C   0  0  0  0  0  0  0  0  0  0  0  0
    8.4124  -15.7301   24.0457 C   0  0  0  0  0  0  0  0  0  0  0  0
    7.6129  -16.6557   24.3142 O   0  0  0  0  0  0  0  0  0  0  0  0
   11.4165  -17.1811   25.4241 C   0  0  0  0  0  0  0  0  0  0  0  0
    9.9660  -16.7698   25.6913 C   0  0  2  0  0  0  0  0  0  0  0  0
    9.6281  -15.6935   24.7864 N   0  0  0  0  0  0  0  0  0  0  0  0
    9.9130  -16.2896   27.0979 C   0  0  0  0  0  0  0  0  0  0  0  0
   10.1296  -17.1271   28.1797 O   0  0  0  0  0  0  0  0  0  0  0  0
    9.6598  -15.0629   27.3355 O   0  0  0  0  0  0  0  0  0  0  0  0
  2  1  1  0
  3  4  1  6
  3  2  1  0
  5  3  1  0
  6  5  2  0
  7  5  1  0
  8  9  1  1
  8  7  1  0
  9 10  1  0
 10 15  2  0
 11 12  2  0
 11 10  1  0
 12 13  1  0
 13 14  2  0
 15 14  1  0
 16  8  1  0
 17 16  2  0
 19 18  1  6
 19 20  1  0
 20 16  1  0
 21 19  1  0
 21 22  1  0
 23 21  2  0
M  END
$$$$
