SFA.pdb
     RDKit          3D

 23 23  0  0  1  0  0  0  0  0999 V2000
   10.3392  -18.0849   21.9560 O   0  0  0  0  0  0  0  0  0  0  0  0
    9.3256  -17.3137   21.4438 C   0  0  0  0  0  0  0  0  0  0  0  0
    9.4560  -15.8442   21.7641 C   0  0  2  0  0  0  0  0  0  0  0  0
   10.6508  -15.3540   21.1032 N   0  0  0  0  0  0  0  0  0  0  0  0
    9.6247  -15.6389   23.2252 C   0  0  0  0  0  0  0  0  0  0  0  0
   10.7273  -15.1311   23.5914 O   0  0  0  0  0  0  0  0  0  0  0  0
    8.6532  -15.9708   24.1743 N   0  0  0  0  0  0  0  0  0  0  0  0
    8.9243  -15.7861   25.5944 C   0  0  1  0  0  0  0  0  0  0  0  0
    7.6441  -15.4102   26.3196 C   0  0  0  0  0  0  0  0  0  0  0  0
    7.2540  -14.0098   26.2115 C   0  0  0  0  0  0  0  0  0  0  0  0
    7.5577  -13.0433   27.1485 C   0  0  0  0  0  0  0  0  0  0  0  0
    7.1941  -11.7304   27.0077 C   0  0  0  0  0  0  0  0  0  0  0  0
    6.4990  -11.3457   25.8946 C   0  0  0  0  0  0  0  0  0  0  0  0
    6.1799  -12.2848   24.9403 C   0  0  0  0  0  0  0  0  0  0  0  0
    6.5534  -13.5967   25.0994 C   0  0  0  0  0  0  0  0  0  0  0  0
    9.4765  -16.9810   26.2223 C   0  0  0  0  0  0  0  0  0  0  0  0
    9.6246  -17.0523   27.4636 O   0  0  0  0  0  0  0  0  0  0  0  0
   10.2757  -20.4800   25.1926 C   0  0  0  0  0  0  0  0  0  0  0  0
   10.4552  -19.2685   26.1117 C   0  0  2  0  0  0  0  0  0  0  0  0
    9.8713  -18.1171   25.4598 N   0  0  0  0  0  0  0  0  0  0  0  0
   11.9203  -19.0735   26.2762 C   0  0  0  0  0  0  0  0  0  0  0  0
   12.5918  -17.9861   25.7418 O   0  0  0  0  0  0  0  0  0  0  0  0
   12.6001  -19.9301   26.9314 O   0  0  0  0  0  0  0  0  0  0  0  0
  2  1  1  0
  3  4  1  6
  3  2  1  0
  5  3  1  0
  6  5  2  0
  7  5  1  0
  8  9  1  1
  8  7  1  0
  9 10  1  0
 10 15  2  0
 11 12  2  0
 11 10  1  0
 12 13  1  0
 13 14  2  0
 15 14  1  0
 16  8  1  0
 17 16  2  0
 19 18  1  6
 19 20  1  0
 20 16  1  0
 21 19  1  0
 21 22  1  0
 23 21  2  0
M  END
$$$$
