SFA.pdb
     RDKit          3D

 23 23  0  0  1  0  0  0  0  0999 V2000
    6.8947  -17.3466   19.4210 O   0  0  0  0  0  0  0  0  0  0  0  0
    7.8280  -16.7519   20.2333 C   0  0  0  0  0  0  0  0  0  0  0  0
    7.3975  -15.4109   20.7768 C   0  0  2  0  0  0  0  0  0  0  0  0
    7.7290  -14.4066   19.7836 N   0  0  0  0  0  0  0  0  0  0  0  0
    8.1404  -15.0862   22.0210 C   0  0  0  0  0  0  0  0  0  0  0  0
    9.1935  -14.3953   21.8753 O   0  0  0  0  0  0  0  0  0  0  0  0
    7.7390  -15.4969   23.2958 N   0  0  0  0  0  0  0  0  0  0  0  0
    8.4749  -15.0532   24.4730 C   0  0  1  0  0  0  0  0  0  0  0  0
    7.5263  -14.9070   25.6498 C   0  0  0  0  0  0  0  0  0  0  0  0
    7.2008  -13.5357   26.0223 C   0  0  0  0  0  0  0  0  0  0  0  0
    8.1336  -12.5325   26.1878 C   0  0  0  0  0  0  0  0  0  0  0  0
    7.7936  -11.2476   26.5184 C   0  0  0  0  0  0  0  0  0  0  0  0
    6.4752  -10.9303   26.6953 C   0  0  0  0  0  0  0  0  0  0  0  0
    5.5190  -11.9076   26.5377 C   0  0  0  0  0  0  0  0  0  0  0  0
    5.8797  -13.1905   26.2060 C   0  0  0  0  0  0  0  0  0  0  0  0
    9.5407  -15.9742   24.8510 C   0  0  0  0  0  0  0  0  0  0  0  0
   10.3227  -15.7102   25.7928 O   0  0  0  0  0  0  0  0  0  0  0  0
   12.1426  -17.4359   24.0868 C   0  0  0  0  0  0  0  0  0  0  0  0
   10.8335  -18.0814   24.5496 C   0  0  2  0  0  0  0  0  0  0  0  0
    9.7427  -17.2098   24.1726 N   0  0  0  0  0  0  0  0  0  0  0  0
   10.9130  -18.1880   26.0308 C   0  0  0  0  0  0  0  0  0  0  0  0
    9.8429  -18.6030   26.8064 O   0  0  0  0  0  0  0  0  0  0  0  0
   12.0002  -17.8901   26.6263 O   0  0  0  0  0  0  0  0  0  0  0  0
  2  1  1  0
  3  4  1  6
  3  2  1  0
  5  3  1  0
  6  5  2  0
  7  5  1  0
  8  9  1  1
  8  7  1  0
  9 10  1  0
 10 15  2  0
 11 12  2  0
 11 10  1  0
 12 13  1  0
 13 14  2  0
 15 14  1  0
 16  8  1  0
 17 16  2  0
 19 18  1  1
 19 20  1  0
 20 16  1  0
 21 19  1  0
 21 22  1  0
 23 21  2  0
M  END
$$$$
