SFA.pdb
     RDKit          3D

 23 23  0  0  1  0  0  0  0  0999 V2000
    9.0515  -19.3694   20.2569 O   0  0  0  0  0  0  0  0  0  0  0  0
    9.3259  -18.5950   21.3567 C   0  0  0  0  0  0  0  0  0  0  0  0
    9.5774  -17.1423   21.0322 C   0  0  2  0  0  0  0  0  0  0  0  0
   10.9238  -17.0366   20.5021 N   0  0  0  0  0  0  0  0  0  0  0  0
    9.5028  -16.3101   22.2599 C   0  0  0  0  0  0  0  0  0  0  0  0
   10.6021  -16.0972   22.8547 O   0  0  0  0  0  0  0  0  0  0  0  0
    8.3142  -15.7739   22.7646 N   0  0  0  0  0  0  0  0  0  0  0  0
    8.3419  -14.9068   23.9357 C   0  0  1  0  0  0  0  0  0  0  0  0
    7.1398  -13.9791   23.9195 C   0  0  0  0  0  0  0  0  0  0  0  0
    7.0017  -13.1162   25.0863 C   0  0  0  0  0  0  0  0  0  0  0  0
    7.8641  -12.0849   25.3974 C   0  0  0  0  0  0  0  0  0  0  0  0
    7.6951  -11.2781   26.4911 C   0  0  0  0  0  0  0  0  0  0  0  0
    6.6291  -11.4923   27.3205 C   0  0  0  0  0  0  0  0  0  0  0  0
    5.7495  -12.5128   27.0390 C   0  0  0  0  0  0  0  0  0  0  0  0
    5.9358  -13.3112   25.9373 C   0  0  0  0  0  0  0  0  0  0  0  0
    8.3324  -15.6527   25.1889 C   0  0  0  0  0  0  0  0  0  0  0  0
    8.5329  -15.0819   26.2853 O   0  0  0  0  0  0  0  0  0  0  0  0
    7.2754  -19.0679   26.2750 C   0  0  0  0  0  0  0  0  0  0  0  0
    8.0293  -17.7530   26.4926 C   0  0  2  0  0  0  0  0  0  0  0  0
    8.0962  -17.0565   25.2269 N   0  0  0  0  0  0  0  0  0  0  0  0
    9.3974  -18.1180   26.9471 C   0  0  0  0  0  0  0  0  0  0  0  0
   10.5291  -17.8479   26.1952 O   0  0  0  0  0  0  0  0  0  0  0  0
    9.5534  -18.7024   28.0694 O   0  0  0  0  0  0  0  0  0  0  0  0
  2  1  1  0
  3  4  1  1
  3  2  1  0
  5  3  1  0
  6  5  2  0
  7  5  1  0
  8  9  1  1
  8  7  1  0
  9 10  1  0
 10 15  2  0
 11 12  2  0
 11 10  1  0
 12 13  1  0
 13 14  2  0
 15 14  1  0
 16  8  1  0
 17 16  2  0
 19 18  1  6
 19 20  1  0
 20 16  1  0
 21 19  1  0
 21 22  1  0
 23 21  2  0
M  END
$$$$
