SFA.pdb
     RDKit          3D

 23 23  0  0  1  0  0  0  0  0999 V2000
    8.1761  -15.9974   19.9724 O   0  0  0  0  0  0  0  0  0  0  0  0
    7.1926  -15.0431   19.8925 C   0  0  0  0  0  0  0  0  0  0  0  0
    7.5427  -13.7473   20.5834 C   0  0  2  0  0  0  0  0  0  0  0  0
    8.3796  -12.9795   19.6807 N   0  0  0  0  0  0  0  0  0  0  0  0
    8.3223  -14.0065   21.8206 C   0  0  0  0  0  0  0  0  0  0  0  0
    9.5264  -13.6095   21.8121 O   0  0  0  0  0  0  0  0  0  0  0  0
    7.8000  -14.6458   22.9489 N   0  0  0  0  0  0  0  0  0  0  0  0
    8.6229  -14.8167   24.1396 C   0  0  1  0  0  0  0  0  0  0  0  0
    7.7406  -14.8608   25.3748 C   0  0  0  0  0  0  0  0  0  0  0  0
    7.2714  -13.5661   25.8530 C   0  0  0  0  0  0  0  0  0  0  0  0
    5.9419  -13.2222   25.9885 C   0  0  0  0  0  0  0  0  0  0  0  0
    5.5331  -12.0034   26.4608 C   0  0  0  0  0  0  0  0  0  0  0  0
    6.4728  -11.0763   26.8177 C   0  0  0  0  0  0  0  0  0  0  0  0
    7.8080  -11.3871   26.6951 C   0  0  0  0  0  0  0  0  0  0  0  0
    8.1983  -12.6148   26.2194 C   0  0  0  0  0  0  0  0  0  0  0  0
    9.4235  -16.0351   24.1007 C   0  0  0  0  0  0  0  0  0  0  0  0
   10.0661  -16.4217   25.1036 O   0  0  0  0  0  0  0  0  0  0  0  0
   10.1275  -18.7564   21.6004 C   0  0  0  0  0  0  0  0  0  0  0  0
   10.4058  -17.9762   22.8882 C   0  0  2  0  0  0  0  0  0  0  0  0
    9.5130  -16.8391   22.9288 N   0  0  0  0  0  0  0  0  0  0  0  0
   11.8171  -17.5143   22.8084 C   0  0  0  0  0  0  0  0  0  0  0  0
   12.1603  -16.1732   22.7569 O   0  0  0  0  0  0  0  0  0  0  0  0
   12.7602  -18.3718   22.7857 O   0  0  0  0  0  0  0  0  0  0  0  0
  2  1  1  0
  3  4  1  6
  3  2  1  0
  5  3  1  0
  6  5  2  0
  7  5  1  0
  8  9  1  1
  8  7  1  0
  9 10  1  0
 10 15  2  0
 11 12  2  0
 11 10  1  0
 12 13  1  0
 13 14  2  0
 15 14  1  0
 16  8  1  0
 17 16  2  0
 19 18  1  6
 19 20  1  0
 20 16  1  0
 21 19  1  0
 21 22  1  0
 23 21  2  0
M  END
$$$$
