SFA.pdb
     RDKit          3D

 23 23  0  0  1  0  0  0  0  0999 V2000
   10.0605  -20.0390   18.0190 O   0  0  0  0  0  0  0  0  0  0  0  0
   10.4548  -19.2074   19.0376 C   0  0  0  0  0  0  0  0  0  0  0  0
    9.9790  -17.7833   18.8809 C   0  0  2  0  0  0  0  0  0  0  0  0
   10.6640  -17.2139   17.7357 N   0  0  0  0  0  0  0  0  0  0  0  0
   10.3366  -16.9763   20.0752 C   0  0  0  0  0  0  0  0  0  0  0  0
   11.4302  -16.3383   20.0078 O   0  0  0  0  0  0  0  0  0  0  0  0
    9.5452  -16.8966   21.2250 N   0  0  0  0  0  0  0  0  0  0  0  0
    9.9187  -15.9974   22.3095 C   0  0  1  0  0  0  0  0  0  0  0  0
    8.7096  -15.1918   22.7515 C   0  0  0  0  0  0  0  0  0  0  0  0
    8.0857  -14.3819   21.7124 C   0  0  0  0  0  0  0  0  0  0  0  0
    8.5080  -13.1184   21.3525 C   0  0  0  0  0  0  0  0  0  0  0  0
    7.9127  -12.3906   20.3567 C   0  0  0  0  0  0  0  0  0  0  0  0
    6.8519  -12.9269   19.6805 C   0  0  0  0  0  0  0  0  0  0  0  0
    6.4054  -14.1853   20.0145 C   0  0  0  0  0  0  0  0  0  0  0  0
    7.0155  -14.8997   21.0162 C   0  0  0  0  0  0  0  0  0  0  0  0
   10.4511  -16.7042   23.4688 C   0  0  0  0  0  0  0  0  0  0  0  0
   10.7831  -16.0890   24.5078 O   0  0  0  0  0  0  0  0  0  0  0  0
   10.6392  -20.1557   24.7671 C   0  0  0  0  0  0  0  0  0  0  0  0
   11.2705  -18.7721   24.5891 C   0  0  2  0  0  0  0  0  0  0  0  0
   10.6183  -18.1184   23.4760 N   0  0  0  0  0  0  0  0  0  0  0  0
   12.7072  -18.9976   24.2779 C   0  0  0  0  0  0  0  0  0  0  0  0
   13.6289  -19.3701   25.2426 O   0  0  0  0  0  0  0  0  0  0  0  0
   13.1239  -18.8470   23.0825 O   0  0  0  0  0  0  0  0  0  0  0  0
  2  1  1  0
  3  4  1  6
  3  2  1  0
  5  3  1  0
  6  5  2  0
  7  5  1  0
  8  9  1  1
  8  7  1  0
  9 10  1  0
 10 15  2  0
 11 12  2  0
 11 10  1  0
 12 13  1  0
 13 14  2  0
 15 14  1  0
 16  8  1  0
 17 16  2  0
 19 18  1  6
 19 20  1  0
 20 16  1  0
 21 19  1  0
 21 22  1  0
 23 21  2  0
M  END
$$$$
