SFA.pdb
     RDKit          3D

 23 23  0  0  1  0  0  0  0  0999 V2000
    9.4845  -19.1392   22.7904 O   0  0  0  0  0  0  0  0  0  0  0  0
    9.0385  -18.6670   21.5810 C   0  0  0  0  0  0  0  0  0  0  0  0
    9.5370  -17.2821   21.2458 C   0  0  2  0  0  0  0  0  0  0  0  0
   10.9373  -17.3942   20.8833 N   0  0  0  0  0  0  0  0  0  0  0  0
    9.4410  -16.3894   22.4288 C   0  0  0  0  0  0  0  0  0  0  0  0
   10.5384  -16.0857   22.9864 O   0  0  0  0  0  0  0  0  0  0  0  0
    8.2350  -15.8912   22.9309 N   0  0  0  0  0  0  0  0  0  0  0  0
    8.2352  -14.9977   24.0823 C   0  0  1  0  0  0  0  0  0  0  0  0
    6.9857  -14.1348   24.0662 C   0  0  0  0  0  0  0  0  0  0  0  0
    6.8694  -13.1845   25.1655 C   0  0  0  0  0  0  0  0  0  0  0  0
    7.6421  -12.0487   25.2968 C   0  0  0  0  0  0  0  0  0  0  0  0
    7.4942  -11.1639   26.3316 C   0  0  0  0  0  0  0  0  0  0  0  0
    6.5429  -11.4035   27.2842 C   0  0  0  0  0  0  0  0  0  0  0  0
    5.7549  -12.5275   27.1832 C   0  0  0  0  0  0  0  0  0  0  0  0
    5.9182  -13.4031   26.1380 C   0  0  0  0  0  0  0  0  0  0  0  0
    8.2846  -15.7146   25.3514 C   0  0  0  0  0  0  0  0  0  0  0  0
    8.4989  -15.1132   26.4286 O   0  0  0  0  0  0  0  0  0  0  0  0
    7.4535  -19.1384   26.5891 C   0  0  0  0  0  0  0  0  0  0  0  0
    8.2087  -17.8106   26.6945 C   0  0  2  0  0  0  0  0  0  0  0  0
    8.0929  -17.1237   25.4271 N   0  0  0  0  0  0  0  0  0  0  0  0
    9.6314  -18.1513   26.9622 C   0  0  0  0  0  0  0  0  0  0  0  0
   10.6530  -17.8262   26.0850 O   0  0  0  0  0  0  0  0  0  0  0  0
    9.9407  -18.7659   28.0354 O   0  0  0  0  0  0  0  0  0  0  0  0
  2  1  1  0
  3  4  1  1
  3  2  1  0
  5  3  1  0
  6  5  2  0
  7  5  1  0
  8  9  1  1
  8  7  1  0
  9 10  1  0
 10 15  2  0
 11 12  2  0
 11 10  1  0
 12 13  1  0
 13 14  2  0
 15 14  1  0
 16  8  1  0
 17 16  2  0
 19 18  1  6
 19 20  1  0
 20 16  1  0
 21 19  1  0
 21 22  1  0
 23 21  2  0
M  END
$$$$
