SFA.pdb
     RDKit          3D

 23 23  0  0  1  0  0  0  0  0999 V2000
    7.9518  -17.0696   21.0773 O   0  0  0  0  0  0  0  0  0  0  0  0
    6.9206  -16.2062   20.8019 C   0  0  0  0  0  0  0  0  0  0  0  0
    7.1813  -14.7854   21.2404 C   0  0  2  0  0  0  0  0  0  0  0  0
    7.7937  -14.0863   20.1263 N   0  0  0  0  0  0  0  0  0  0  0  0
    8.1342  -14.7543   22.3790 C   0  0  0  0  0  0  0  0  0  0  0  0
    9.2823  -14.2774   22.1301 O   0  0  0  0  0  0  0  0  0  0  0  0
    7.8260  -15.2126   23.6635 N   0  0  0  0  0  0  0  0  0  0  0  0
    8.7936  -15.0679   24.7438 C   0  0  1  0  0  0  0  0  0  0  0  0
    8.0690  -14.9491   26.0731 C   0  0  0  0  0  0  0  0  0  0  0  0
    7.4861  -13.6423   26.3515 C   0  0  0  0  0  0  0  0  0  0  0  0
    8.2171  -12.4832   26.5132 C   0  0  0  0  0  0  0  0  0  0  0  0
    7.6377  -11.2658   26.7537 C   0  0  0  0  0  0  0  0  0  0  0  0
    6.2756  -11.1799   26.8399 C   0  0  0  0  0  0  0  0  0  0  0  0
    5.5166  -12.3173   26.6833 C   0  0  0  0  0  0  0  0  0  0  0  0
    6.1161  -13.5292   26.4427 C   0  0  0  0  0  0  0  0  0  0  0  0
    9.7215  -16.1903   24.8226 C   0  0  0  0  0  0  0  0  0  0  0  0
   10.5121  -16.3122   25.7860 O   0  0  0  0  0  0  0  0  0  0  0  0
   10.3029  -19.3661   22.9064 C   0  0  0  0  0  0  0  0  0  0  0  0
   10.7003  -18.2996   23.9307 C   0  0  2  0  0  0  0  0  0  0  0  0
    9.7734  -17.1955   23.8152 N   0  0  0  0  0  0  0  0  0  0  0  0
   12.0723  -17.8540   23.5692 C   0  0  0  0  0  0  0  0  0  0  0  0
   13.2048  -18.5710   23.9189 O   0  0  0  0  0  0  0  0  0  0  0  0
   12.2309  -16.7730   22.9123 O   0  0  0  0  0  0  0  0  0  0  0  0
  2  1  1  0
  3  4  1  6
  3  2  1  0
  5  3  1  0
  6  5  2  0
  7  5  1  0
  8  9  1  1
  8  7  1  0
  9 10  1  0
 10 15  2  0
 11 12  2  0
 11 10  1  0
 12 13  1  0
 13 14  2  0
 15 14  1  0
 16  8  1  0
 17 16  2  0
 19 18  1  6
 19 20  1  0
 20 16  1  0
 21 19  1  0
 21 22  1  0
 23 21  2  0
M  END
$$$$
