SFA.pdb
     RDKit          3D

 23 23  0  0  1  0  0  0  0  0999 V2000
    8.6681  -18.6129   20.6806 O   0  0  0  0  0  0  0  0  0  0  0  0
    8.2793  -17.6432   19.7901 C   0  0  0  0  0  0  0  0  0  0  0  0
    9.0890  -16.3723   19.8806 C   0  0  2  0  0  0  0  0  0  0  0  0
   10.4416  -16.6811   19.4564 N   0  0  0  0  0  0  0  0  0  0  0  0
    9.1491  -15.8874   21.2830 C   0  0  0  0  0  0  0  0  0  0  0  0
   10.2401  -16.0923   21.8956 O   0  0  0  0  0  0  0  0  0  0  0  0
    8.0910  -15.2395   21.9276 N   0  0  0  0  0  0  0  0  0  0  0  0
    8.2609  -14.7315   23.2831 C   0  0  1  0  0  0  0  0  0  0  0  0
    7.1341  -13.7705   23.6191 C   0  0  0  0  0  0  0  0  0  0  0  0
    7.1628  -13.2230   24.9698 C   0  0  0  0  0  0  0  0  0  0  0  0
    8.1427  -12.3755   25.4448 C   0  0  0  0  0  0  0  0  0  0  0  0
    8.1302  -11.8611   26.7140 C   0  0  0  0  0  0  0  0  0  0  0  0
    7.1077  -12.1934   27.5590 C   0  0  0  0  0  0  0  0  0  0  0  0
    6.1139  -13.0367   27.1168 C   0  0  0  0  0  0  0  0  0  0  0  0
    6.1439  -13.5423   25.8404 C   0  0  0  0  0  0  0  0  0  0  0  0
    8.2768  -15.7921   24.2840 C   0  0  0  0  0  0  0  0  0  0  0  0
    7.2760  -16.5205   24.4736 O   0  0  0  0  0  0  0  0  0  0  0  0
   10.4463  -18.1776   25.5801 C   0  0  0  0  0  0  0  0  0  0  0  0
    9.4192  -17.1392   26.0398 C   0  0  2  0  0  0  0  0  0  0  0  0
    9.4229  -16.0493   25.0891 N   0  0  0  0  0  0  0  0  0  0  0  0
    9.8708  -16.6560   27.3718 C   0  0  0  0  0  0  0  0  0  0  0  0
   10.1953  -15.3311   27.6130 O   0  0  0  0  0  0  0  0  0  0  0  0
    9.9687  -17.4791   28.3404 O   0  0  0  0  0  0  0  0  0  0  0  0
  2  1  1  0
  3  4  1  1
  3  2  1  0
  5  3  1  0
  6  5  2  0
  7  5  1  0
  8  9  1  1
  8  7  1  0
  9 10  1  0
 10 15  2  0
 11 12  2  0
 11 10  1  0
 12 13  1  0
 13 14  2  0
 15 14  1  0
 16  8  1  0
 17 16  2  0
 19 18  1  6
 19 20  1  0
 20 16  1  0
 21 19  1  0
 21 22  1  0
 23 21  2  0
M  END
$$$$
