SFA.pdb
     RDKit          3D

 23 23  0  0  1  0  0  0  0  0999 V2000
   10.1839  -18.8184   21.5351 O   0  0  0  0  0  0  0  0  0  0  0  0
    9.2688  -18.2198   20.7052 C   0  0  0  0  0  0  0  0  0  0  0  0
    9.5876  -16.7796   20.3841 C   0  0  2  0  0  0  0  0  0  0  0  0
   10.9353  -16.7359   19.8486 N   0  0  0  0  0  0  0  0  0  0  0  0
    9.5573  -15.9487   21.6146 C   0  0  0  0  0  0  0  0  0  0  0  0
   10.6757  -15.5018   22.0110 O   0  0  0  0  0  0  0  0  0  0  0  0
    8.3896  -15.6524   22.3241 N   0  0  0  0  0  0  0  0  0  0  0  0
    8.4502  -14.8174   23.5171 C   0  0  1  0  0  0  0  0  0  0  0  0
    7.0963  -14.1771   23.7683 C   0  0  0  0  0  0  0  0  0  0  0  0
    7.0419  -13.2541   24.8953 C   0  0  0  0  0  0  0  0  0  0  0  0
    7.8128  -12.1149   25.0055 C   0  0  0  0  0  0  0  0  0  0  0  0
    7.7233  -11.2561   26.0685 C   0  0  0  0  0  0  0  0  0  0  0  0
    6.8353  -11.5267   27.0726 C   0  0  0  0  0  0  0  0  0  0  0  0
    6.0510  -12.6550   26.9939 C   0  0  0  0  0  0  0  0  0  0  0  0
    6.1551  -13.5042   25.9197 C   0  0  0  0  0  0  0  0  0  0  0  0
    8.8353  -15.5649   24.7087 C   0  0  0  0  0  0  0  0  0  0  0  0
    8.9225  -15.0056   25.8257 O   0  0  0  0  0  0  0  0  0  0  0  0
    9.5261  -19.1623   25.5548 C   0  0  0  0  0  0  0  0  0  0  0  0
    9.5347  -17.6613   25.8572 C   0  0  2  0  0  0  0  0  0  0  0  0
    9.1290  -16.9575   24.6606 N   0  0  0  0  0  0  0  0  0  0  0  0
   10.9359  -17.3066   26.2075 C   0  0  0  0  0  0  0  0  0  0  0  0
   11.6985  -16.4397   25.4422 O   0  0  0  0  0  0  0  0  0  0  0  0
   11.4716  -17.8105   27.2488 O   0  0  0  0  0  0  0  0  0  0  0  0
  2  1  1  0
  3  4  1  1
  3  2  1  0
  5  3  1  0
  6  5  2  0
  7  5  1  0
  8  9  1  1
  8  7  1  0
  9 10  1  0
 10 15  2  0
 11 12  2  0
 11 10  1  0
 12 13  1  0
 13 14  2  0
 15 14  1  0
 16  8  1  0
 17 16  2  0
 19 18  1  6
 19 20  1  0
 20 16  1  0
 21 19  1  0
 21 22  1  0
 23 21  2  0
M  END
$$$$
