SFA.pdb
     RDKit          3D

 23 23  0  0  1  0  0  0  0  0999 V2000
    7.8909  -17.1505   21.0285 O   0  0  0  0  0  0  0  0  0  0  0  0
    6.8901  -16.2528   20.7505 C   0  0  0  0  0  0  0  0  0  0  0  0
    7.2203  -14.8319   21.1389 C   0  0  2  0  0  0  0  0  0  0  0  0
    7.8774  -14.2074   20.0062 N   0  0  0  0  0  0  0  0  0  0  0  0
    8.1638  -14.8073   22.2855 C   0  0  0  0  0  0  0  0  0  0  0  0
    9.3200  -14.3465   22.0439 O   0  0  0  0  0  0  0  0  0  0  0  0
    7.8389  -15.2550   23.5695 N   0  0  0  0  0  0  0  0  0  0  0  0
    8.7943  -15.1062   24.6600 C   0  0  1  0  0  0  0  0  0  0  0  0
    8.0543  -14.9481   25.9766 C   0  0  0  0  0  0  0  0  0  0  0  0
    7.4589  -13.6371   26.2042 C   0  0  0  0  0  0  0  0  0  0  0  0
    6.1013  -13.4020   26.2800 C   0  0  0  0  0  0  0  0  0  0  0  0
    5.5732  -12.1606   26.5158 C   0  0  0  0  0  0  0  0  0  0  0  0
    6.4166  -11.0976   26.6857 C   0  0  0  0  0  0  0  0  0  0  0  0
    7.7766  -11.2974   26.6163 C   0  0  0  0  0  0  0  0  0  0  0  0
    8.2871  -12.5500   26.3789 C   0  0  0  0  0  0  0  0  0  0  0  0
    9.7006  -16.2432   24.7737 C   0  0  0  0  0  0  0  0  0  0  0  0
   10.4738  -16.3615   25.7515 O   0  0  0  0  0  0  0  0  0  0  0  0
   10.4131  -19.3555   22.7767 C   0  0  0  0  0  0  0  0  0  0  0  0
   10.6634  -18.3793   23.9295 C   0  0  2  0  0  0  0  0  0  0  0  0
    9.7501  -17.2672   23.7853 N   0  0  0  0  0  0  0  0  0  0  0  0
   12.0671  -17.9083   23.7900 C   0  0  0  0  0  0  0  0  0  0  0  0
   12.3846  -16.6109   23.4228 O   0  0  0  0  0  0  0  0  0  0  0  0
   13.0277  -18.7162   24.0132 O   0  0  0  0  0  0  0  0  0  0  0  0
  2  1  1  0
  3  4  1  6
  3  2  1  0
  5  3  1  0
  6  5  2  0
  7  5  1  0
  8  9  1  1
  8  7  1  0
  9 10  1  0
 10 15  2  0
 11 12  2  0
 11 10  1  0
 12 13  1  0
 13 14  2  0
 15 14  1  0
 16  8  1  0
 17 16  2  0
 19 18  1  6
 19 20  1  0
 20 16  1  0
 21 19  1  0
 21 22  1  0
 23 21  2  0
M  END
$$$$
