SFA.pdb
     RDKit          3D

 23 23  0  0  1  0  0  0  0  0999 V2000
    8.8667  -18.7935   22.2893 O   0  0  0  0  0  0  0  0  0  0  0  0
    8.6562  -18.2527   21.0453 C   0  0  0  0  0  0  0  0  0  0  0  0
    9.3736  -16.9436   20.8201 C   0  0  2  0  0  0  0  0  0  0  0  0
   10.7627  -17.2470   20.5317 N   0  0  0  0  0  0  0  0  0  0  0  0
    9.3335  -16.1059   22.0458 C   0  0  0  0  0  0  0  0  0  0  0  0
   10.4577  -15.7768   22.5309 O   0  0  0  0  0  0  0  0  0  0  0  0
    8.1509  -15.6834   22.6604 N   0  0  0  0  0  0  0  0  0  0  0  0
    8.2043  -14.8473   23.8529 C   0  0  1  0  0  0  0  0  0  0  0  0
    6.9784  -13.9529   23.9115 C   0  0  0  0  0  0  0  0  0  0  0  0
    6.8636  -13.1292   25.1087 C   0  0  0  0  0  0  0  0  0  0  0  0
    5.8916  -13.2922   26.0746 C   0  0  0  0  0  0  0  0  0  0  0  0
    5.8230  -12.5143   27.1996 C   0  0  0  0  0  0  0  0  0  0  0  0
    6.7520  -11.5286   27.3875 C   0  0  0  0  0  0  0  0  0  0  0  0
    7.7353  -11.3392   26.4432 C   0  0  0  0  0  0  0  0  0  0  0  0
    7.7876  -12.1296   25.3214 C   0  0  0  0  0  0  0  0  0  0  0  0
    8.2665  -15.6262   25.0844 C   0  0  0  0  0  0  0  0  0  0  0  0
    8.4615  -15.0750   26.1917 O   0  0  0  0  0  0  0  0  0  0  0  0
    7.5149  -19.1714   26.0512 C   0  0  0  0  0  0  0  0  0  0  0  0
    8.0586  -17.7688   26.3368 C   0  0  2  0  0  0  0  0  0  0  0  0
    8.1095  -17.0416   25.0878 N   0  0  0  0  0  0  0  0  0  0  0  0
    9.4317  -17.9480   26.8793 C   0  0  0  0  0  0  0  0  0  0  0  0
   10.5586  -17.4792   26.2242 O   0  0  0  0  0  0  0  0  0  0  0  0
    9.5965  -18.5539   27.9888 O   0  0  0  0  0  0  0  0  0  0  0  0
  2  1  1  0
  3  4  1  1
  3  2  1  0
  5  3  1  0
  6  5  2  0
  7  5  1  0
  8  9  1  1
  8  7  1  0
  9 10  1  0
 10 15  2  0
 11 12  2  0
 11 10  1  0
 12 13  1  0
 13 14  2  0
 15 14  1  0
 16  8  1  0
 17 16  2  0
 19 18  1  6
 19 20  1  0
 20 16  1  0
 21 19  1  0
 21 22  1  0
 23 21  2  0
M  END
$$$$
