SFA.pdb
     RDKit          3D

 23 23  0  0  1  0  0  0  0  0999 V2000
    8.6741  -18.5182   20.6324 O   0  0  0  0  0  0  0  0  0  0  0  0
    8.1197  -17.5773   19.8006 C   0  0  0  0  0  0  0  0  0  0  0  0
    8.8812  -16.2745   19.7603 C   0  0  2  0  0  0  0  0  0  0  0  0
   10.2147  -16.5593   19.2648 N   0  0  0  0  0  0  0  0  0  0  0  0
    9.0128  -15.7015   21.1241 C   0  0  0  0  0  0  0  0  0  0  0  0
   10.1544  -15.8105   21.6649 O   0  0  0  0  0  0  0  0  0  0  0  0
    7.9679  -15.0718   21.8070 N   0  0  0  0  0  0  0  0  0  0  0  0
    8.1671  -14.5942   23.1695 C   0  0  1  0  0  0  0  0  0  0  0  0
    7.0255  -13.6747   23.5662 C   0  0  0  0  0  0  0  0  0  0  0  0
    7.0668  -13.1848   24.9385 C   0  0  0  0  0  0  0  0  0  0  0  0
    8.0103  -12.3007   25.4206 C   0  0  0  0  0  0  0  0  0  0  0  0
    8.0097  -11.8429   26.7114 C   0  0  0  0  0  0  0  0  0  0  0  0
    7.0373  -12.2722   27.5717 C   0  0  0  0  0  0  0  0  0  0  0  0
    6.0808  -13.1543   27.1230 C   0  0  0  0  0  0  0  0  0  0  0  0
    6.0981  -13.6021   25.8249 C   0  0  0  0  0  0  0  0  0  0  0  0
    8.2444  -15.6793   24.1409 C   0  0  0  0  0  0  0  0  0  0  0  0
    7.3031  -16.4932   24.2809 O   0  0  0  0  0  0  0  0  0  0  0  0
   10.6636  -17.8753   25.3522 C   0  0  0  0  0  0  0  0  0  0  0  0
    9.4843  -17.0241   25.8311 C   0  0  2  0  0  0  0  0  0  0  0  0
    9.3860  -15.8651   24.9717 N   0  0  0  0  0  0  0  0  0  0  0  0
    9.8015  -16.6029   27.2216 C   0  0  0  0  0  0  0  0  0  0  0  0
    9.9050  -17.5048   28.2680 O   0  0  0  0  0  0  0  0  0  0  0  0
    9.9887  -15.3684   27.4786 O   0  0  0  0  0  0  0  0  0  0  0  0
  2  1  1  0
  3  4  1  1
  3  2  1  0
  5  3  1  0
  6  5  2  0
  7  5  1  0
  8  9  1  1
  8  7  1  0
  9 10  1  0
 10 15  2  0
 11 12  2  0
 11 10  1  0
 12 13  1  0
 13 14  2  0
 15 14  1  0
 16  8  1  0
 17 16  2  0
 19 18  1  6
 19 20  1  0
 20 16  1  0
 21 19  1  0
 21 22  1  0
 23 21  2  0
M  END
$$$$
