HLW.pdb
     RDKit          3D

 33 35  0  0  1  0  0  0  0  0999 V2000
   27.5265  -21.2418  -14.6428 N   0  0  0  0  0  0  0  0  0  0  0  0
   27.2401  -20.4841  -13.4531 C   0  0  1  0  0  0  0  0  0  0  0  0
   26.6086  -19.1738  -13.7914 C   0  0  0  0  0  0  0  0  0  0  0  0
   27.3616  -18.4454  -14.8257 C   0  0  0  0  0  0  0  0  0  0  0  0
   28.4996  -18.7862  -15.5023 C   0  0  0  0  0  0  0  0  0  0  0  0
   28.8341  -17.7951  -16.3432 N   0  0  0  0  0  0  0  0  0  0  0  0
   27.9162  -16.8278  -16.2036 C   0  0  0  0  0  0  0  0  0  0  0  0
   27.0290  -17.2277  -15.2844 N   0  0  0  0  0  0  0  0  0  0  0  0
   26.5431  -21.2393  -12.3997 C   0  0  0  0  0  0  0  0  0  0  0  0
   25.7952  -22.2362  -12.6864 O   0  0  0  0  0  0  0  0  0  0  0  0
   26.2509  -20.3690   -6.3629 C   0  0  0  0  0  0  0  0  0  0  0  0
   26.4578  -20.2028   -7.8694 C   0  0  1  0  0  0  0  0  0  0  0  0
   27.6653  -19.3836   -8.1577 C   0  0  0  0  0  0  0  0  0  0  0  0
   26.2929  -21.4700   -8.6106 C   0  0  0  0  0  0  0  0  0  0  0  0
   25.7224  -21.3611  -10.0027 C   0  0  2  0  0  0  0  0  0  0  0  0
   26.6325  -20.9409  -11.0151 N   0  0  0  0  0  0  0  0  0  0  0  0
   24.4286  -20.6417  -10.0034 C   0  0  0  0  0  0  0  0  0  0  0  0
   24.3918  -19.4612   -9.5986 O   0  0  0  0  0  0  0  0  0  0  0  0
   23.2380  -21.2543  -10.4483 N   0  0  0  0  0  0  0  0  0  0  0  0
   22.3517  -20.6361  -11.4477 C   0  0  1  0  0  0  0  0  0  0  0  0
   23.1477  -20.1288  -12.5957 C   0  0  0  0  0  0  0  0  0  0  0  0
   22.3647  -19.4303  -13.6078 C   0  0  0  0  0  0  0  0  0  0  0  0
   21.1876  -18.7518  -13.3847 C   0  0  0  0  0  0  0  0  0  0  0  0
   20.7503  -18.2822  -14.5610 N   0  0  0  0  0  0  0  0  0  0  0  0
   21.5849  -18.6189  -15.5471 C   0  0  0  0  0  0  0  0  0  0  0  0
   21.5515  -18.3406  -16.9126 C   0  0  0  0  0  0  0  0  0  0  0  0
   22.5520  -18.7815  -17.7429 C   0  0  0  0  0  0  0  0  0  0  0  0
   23.5706  -19.5035  -17.1425 C   0  0  0  0  0  0  0  0  0  0  0  0
   23.6210  -19.7859  -15.8139 C   0  0  0  0  0  0  0  0  0  0  0  0
   22.6019  -19.3363  -14.9781 C   0  0  0  0  0  0  0  0  0  0  0  0
   21.2200  -21.4760  -11.8285 C   0  0  0  0  0  0  0  0  0  0  0  0
   19.8849  -21.0663  -11.6498 O   0  0  0  0  0  0  0  0  0  0  0  0
   21.3152  -22.6426  -12.3435 O   0  0  0  0  0  0  0  0  0  0  0  0
  2  9  1  0
  2  1  1  6
  2  3  1  0
  4  3  1  0
  4  5  2  0
  6  5  1  0
  7  6  1  0
  8  7  2  0
  8  4  1  0
  9 16  1  0
 10  9  2  0
 12 11  1  1
 12 13  1  0
 14 12  1  0
 15 14  1  1
 16 15  1  0
 17 15  1  0
 18 17  2  0
 19 17  1  0
 20 31  1  0
 20 19  1  0
 21 22  1  0
 20 21  1  6
 22 23  2  0
 22 30  1  0
 23 24  1  0
 24 25  1  0
 25 26  2  0
 27 26  1  0
 28 27  2  0
 29 28  1  0
 30 29  2  0
 30 25  1  0
 31 32  1  0
 33 31  2  0
M  END
$$$$
