HLW.pdb
     RDKit          3D

 33 35  0  0  1  0  0  0  0  0999 V2000
   28.5271  -20.7116  -17.4139 N   0  0  0  0  0  0  0  0  0  0  0  0
   28.0459  -19.7876  -16.4208 C   0  0  1  0  0  0  0  0  0  0  0  0
   27.1081  -18.7938  -17.0233 C   0  0  0  0  0  0  0  0  0  0  0  0
   27.7331  -18.0341  -18.1187 C   0  0  0  0  0  0  0  0  0  0  0  0
   27.4842  -18.0453  -19.4630 C   0  0  0  0  0  0  0  0  0  0  0  0
   28.3205  -17.1961  -20.0799 N   0  0  0  0  0  0  0  0  0  0  0  0
   29.0985  -16.6472  -19.1359 C   0  0  0  0  0  0  0  0  0  0  0  0
   28.7378  -17.1587  -17.9526 N   0  0  0  0  0  0  0  0  0  0  0  0
   27.5506  -20.4184  -15.1870 C   0  0  0  0  0  0  0  0  0  0  0  0
   26.6855  -21.3594  -15.2276 O   0  0  0  0  0  0  0  0  0  0  0  0
   30.6114  -20.7259  -10.4281 C   0  0  0  0  0  0  0  0  0  0  0  0
   29.6857  -21.0542  -11.6008 C   0  0  1  0  0  0  0  0  0  0  0  0
   29.7583  -22.4973  -11.9535 C   0  0  0  0  0  0  0  0  0  0  0  0
   28.3464  -20.4475  -11.4569 C   0  0  0  0  0  0  0  0  0  0  0  0
   27.4365  -20.5433  -12.6561 C   0  0  2  0  0  0  0  0  0  0  0  0
   27.9719  -20.0530  -13.8820 N   0  0  0  0  0  0  0  0  0  0  0  0
   26.0740  -20.0563  -12.3429 C   0  0  0  0  0  0  0  0  0  0  0  0
   25.8876  -18.8303  -12.1977 O   0  0  0  0  0  0  0  0  0  0  0  0
   24.9828  -20.9398  -12.2040 N   0  0  0  0  0  0  0  0  0  0  0  0
   23.6203  -20.4771  -11.8941 C   0  0  1  0  0  0  0  0  0  0  0  0
   22.6821  -20.8848  -12.9723 C   0  0  0  0  0  0  0  0  0  0  0  0
   22.4266  -19.8520  -13.9688 C   0  0  0  0  0  0  0  0  0  0  0  0
   23.2492  -19.5369  -15.0270 C   0  0  0  0  0  0  0  0  0  0  0  0
   22.6970  -18.5125  -15.6909 N   0  0  0  0  0  0  0  0  0  0  0  0
   21.5493  -18.1395  -15.1199 C   0  0  0  0  0  0  0  0  0  0  0  0
   20.6323  -17.1480  -15.4653 C   0  0  0  0  0  0  0  0  0  0  0  0
   19.4902  -16.9610  -14.7270 C   0  0  0  0  0  0  0  0  0  0  0  0
   19.3184  -17.8061  -13.6426 C   0  0  0  0  0  0  0  0  0  0  0  0
   20.2005  -18.7778  -13.2891 C   0  0  0  0  0  0  0  0  0  0  0  0
   21.3574  -18.9608  -14.0423 C   0  0  0  0  0  0  0  0  0  0  0  0
   23.1737  -20.8254  -10.5486 C   0  0  0  0  0  0  0  0  0  0  0  0
   21.9741  -20.3307  -10.0021 O   0  0  0  0  0  0  0  0  0  0  0  0
   23.8076  -21.5886   -9.7418 O   0  0  0  0  0  0  0  0  0  0  0  0
  2  9  1  0
  2  1  1  6
  2  3  1  0
  4  3  1  0
  4  5  2  0
  6  5  1  0
  7  6  1  0
  8  7  2  0
  8  4  1  0
  9 16  1  0
 10  9  2  0
 12 11  1  1
 12 13  1  0
 14 12  1  0
 15 14  1  1
 16 15  1  0
 17 15  1  0
 18 17  2  0
 19 17  1  0
 20 31  1  0
 20 19  1  0
 21 22  1  0
 20 21  1  6
 22 23  2  0
 22 30  1  0
 23 24  1  0
 24 25  1  0
 25 26  2  0
 27 26  1  0
 28 27  2  0
 29 28  1  0
 30 29  2  0
 30 25  1  0
 31 32  1  0
 33 31  2  0
M  END
$$$$
