HLW.pdb
     RDKit          3D

 33 35  0  0  1  0  0  0  0  0999 V2000
   28.5987  -36.5249   -7.6741 N   0  0  0  0  0  0  0  0  0  0  0  0
   28.9553  -35.4835   -6.7469 C   0  0  1  0  0  0  0  0  0  0  0  0
   27.7856  -34.6023   -6.4550 C   0  0  0  0  0  0  0  0  0  0  0  0
   27.2885  -33.9217   -7.6621 C   0  0  0  0  0  0  0  0  0  0  0  0
   27.7206  -33.9816   -8.9578 C   0  0  0  0  0  0  0  0  0  0  0  0
   26.9707  -33.1682   -9.7176 N   0  0  0  0  0  0  0  0  0  0  0  0
   26.0665  -32.5924   -8.9122 C   0  0  0  0  0  0  0  0  0  0  0  0
   26.2647  -33.0525   -7.6708 N   0  0  0  0  0  0  0  0  0  0  0  0
   29.6772  -35.9489   -5.5520 C   0  0  0  0  0  0  0  0  0  0  0  0
   29.6239  -37.1721   -5.1827 O   0  0  0  0  0  0  0  0  0  0  0  0
   34.9108  -35.5553   -5.0207 C   0  0  0  0  0  0  0  0  0  0  0  0
   33.5102  -36.0944   -4.7244 C   0  0  1  0  0  0  0  0  0  0  0  0
   33.5423  -37.5595   -4.4701 C   0  0  0  0  0  0  0  0  0  0  0  0
   32.7630  -35.2469   -3.7725 C   0  0  0  0  0  0  0  0  0  0  0  0
   31.2883  -35.5335   -3.6373 C   0  0  2  0  0  0  0  0  0  0  0  0
   30.4718  -35.1118   -4.7260 N   0  0  0  0  0  0  0  0  0  0  0  0
   30.7807  -35.1437   -2.3024 C   0  0  0  0  0  0  0  0  0  0  0  0
   31.0879  -35.8379   -1.3112 O   0  0  0  0  0  0  0  0  0  0  0  0
   29.9599  -34.0104   -2.1214 N   0  0  0  0  0  0  0  0  0  0  0  0
   28.4991  -34.1038   -1.9671 C   0  0  1  0  0  0  0  0  0  0  0  0
   27.8250  -33.7675   -3.2482 C   0  0  0  0  0  0  0  0  0  0  0  0
   26.3689  -33.7659   -3.1788 C   0  0  0  0  0  0  0  0  0  0  0  0
   25.6179  -34.0978   -2.0735 C   0  0  0  0  0  0  0  0  0  0  0  0
   24.3240  -34.0164   -2.4116 N   0  0  0  0  0  0  0  0  0  0  0  0
   24.1884  -33.6455   -3.6869 C   0  0  0  0  0  0  0  0  0  0  0  0
   23.0512  -33.4160   -4.4598 C   0  0  0  0  0  0  0  0  0  0  0  0
   23.1616  -33.0115   -5.7671 C   0  0  0  0  0  0  0  0  0  0  0  0
   24.4501  -32.8517   -6.2505 C   0  0  0  0  0  0  0  0  0  0  0  0
   25.5710  -33.0710   -5.5137 C   0  0  0  0  0  0  0  0  0  0  0  0
   25.4510  -33.4822   -4.1887 C   0  0  0  0  0  0  0  0  0  0  0  0
   28.0511  -35.3564   -1.3657 C   0  0  0  0  0  0  0  0  0  0  0  0
   28.0110  -36.5652   -2.0864 O   0  0  0  0  0  0  0  0  0  0  0  0
   27.6516  -35.4864   -0.1579 O   0  0  0  0  0  0  0  0  0  0  0  0
  2  9  1  0
  2  1  1  1
  2  3  1  0
  4  3  1  0
  4  5  2  0
  6  5  1  0
  7  6  1  0
  8  7  2  0
  8  4  1  0
  9 16  1  0
 10  9  2  0
 12 11  1  1
 12 13  1  0
 14 12  1  0
 15 14  1  6
 16 15  1  0
 17 15  1  0
 18 17  2  0
 19 17  1  0
 20 31  1  0
 20 19  1  0
 21 22  1  0
 20 21  1  6
 22 23  2  0
 22 30  1  0
 23 24  1  0
 24 25  1  0
 25 26  2  0
 27 26  1  0
 28 27  2  0
 29 28  1  0
 30 29  2  0
 30 25  1  0
 31 32  1  0
 33 31  2  0
M  END
$$$$
