HLW.pdb
     RDKit          3D

 33 35  0  0  1  0  0  0  0  0999 V2000
   23.2346  -11.5175  -18.6412 N   0  0  0  0  0  0  0  0  0  0  0  0
   22.3609  -10.4390  -19.0222 C   0  0  1  0  0  0  0  0  0  0  0  0
   21.1149  -10.9587  -19.6606 C   0  0  0  0  0  0  0  0  0  0  0  0
   21.3985  -11.7425  -20.8742 C   0  0  0  0  0  0  0  0  0  0  0  0
   21.2749  -13.0824  -21.1159 C   0  0  0  0  0  0  0  0  0  0  0  0
   21.6724  -13.3494  -22.3697 N   0  0  0  0  0  0  0  0  0  0  0  0
   22.0480  -12.1879  -22.9242 C   0  0  0  0  0  0  0  0  0  0  0  0
   21.8798  -11.2206  -22.0142 N   0  0  0  0  0  0  0  0  0  0  0  0
   22.1304   -9.4372  -17.9691 C   0  0  0  0  0  0  0  0  0  0  0  0
   21.6520   -9.7726  -16.8316 O   0  0  0  0  0  0  0  0  0  0  0  0
   25.1938   -4.7120  -17.1962 C   0  0  0  0  0  0  0  0  0  0  0  0
   24.3829   -5.9972  -17.0217 C   0  0  1  0  0  0  0  0  0  0  0  0
   24.8086   -6.7388  -15.8047 C   0  0  0  0  0  0  0  0  0  0  0  0
   22.9351   -5.7904  -17.2303 C   0  0  0  0  0  0  0  0  0  0  0  0
   22.0700   -7.0253  -17.1861 C   0  0  2  0  0  0  0  0  0  0  0  0
   22.4072   -8.0527  -18.1136 N   0  0  0  0  0  0  0  0  0  0  0  0
   20.6313   -6.6781  -17.1509 C   0  0  0  0  0  0  0  0  0  0  0  0
   20.0691   -6.3187  -18.2062 O   0  0  0  0  0  0  0  0  0  0  0  0
   19.8803   -6.7422  -15.9581 N   0  0  0  0  0  0  0  0  0  0  0  0
   18.4233   -6.5365  -15.9245 C   0  0  1  0  0  0  0  0  0  0  0  0
   17.7251   -7.7156  -16.5000 C   0  0  0  0  0  0  0  0  0  0  0  0
   17.8209   -8.9246  -15.6911 C   0  0  0  0  0  0  0  0  0  0  0  0
   17.7948   -8.9737  -14.3153 C   0  0  0  0  0  0  0  0  0  0  0  0
   17.9494  -10.2515  -13.9430 N   0  0  0  0  0  0  0  0  0  0  0  0
   18.0749  -11.0453  -15.0091 C   0  0  0  0  0  0  0  0  0  0  0  0
   18.2351  -12.4263  -15.1109 C   0  0  0  0  0  0  0  0  0  0  0  0
   18.3203  -13.0338  -16.3391 C   0  0  0  0  0  0  0  0  0  0  0  0
   18.2376  -12.1982  -17.4411 C   0  0  0  0  0  0  0  0  0  0  0  0
   18.0822  -10.8503  -17.3629 C   0  0  0  0  0  0  0  0  0  0  0  0
   17.9976  -10.2410  -16.1135 C   0  0  0  0  0  0  0  0  0  0  0  0
   17.9190   -6.1203  -14.6193 C   0  0  0  0  0  0  0  0  0  0  0  0
   18.6913   -6.2223  -13.4465 O   0  0  0  0  0  0  0  0  0  0  0  0
   16.7537   -5.6393  -14.4045 O   0  0  0  0  0  0  0  0  0  0  0  0
  2  9  1  0
  2  1  1  1
  2  3  1  0
  4  3  1  0
  4  5  2  0
  6  5  1  0
  7  6  1  0
  8  7  2  0
  8  4  1  0
  9 16  1  0
 10  9  2  0
 12 11  1  1
 12 13  1  0
 14 12  1  0
 15 14  1  6
 16 15  1  0
 17 15  1  0
 18 17  2  0
 19 17  1  0
 20 31  1  0
 20 19  1  0
 21 22  1  0
 20 21  1  1
 22 23  2  0
 22 30  1  0
 23 24  1  0
 24 25  1  0
 25 26  2  0
 27 26  1  0
 28 27  2  0
 29 28  1  0
 30 29  2  0
 30 25  1  0
 31 32  1  0
 33 31  2  0
M  END
$$$$
