HLW.pdb
     RDKit          3D

 33 35  0  0  1  0  0  0  0  0999 V2000
   23.5886  -20.6216  -16.3648 N   0  0  0  0  0  0  0  0  0  0  0  0
   23.4860  -20.3026  -14.9651 C   0  0  1  0  0  0  0  0  0  0  0  0
   22.0860  -20.4793  -14.4764 C   0  0  0  0  0  0  0  0  0  0  0  0
   21.1328  -19.6230  -15.2014 C   0  0  0  0  0  0  0  0  0  0  0  0
   21.2627  -18.3437  -15.6659 C   0  0  0  0  0  0  0  0  0  0  0  0
   20.1172  -17.9622  -16.2521 N   0  0  0  0  0  0  0  0  0  0  0  0
   19.2618  -18.9906  -16.1616 C   0  0  0  0  0  0  0  0  0  0  0  0
   19.8826  -19.9913  -15.5250 N   0  0  0  0  0  0  0  0  0  0  0  0
   24.5089  -20.9349  -14.1168 C   0  0  0  0  0  0  0  0  0  0  0  0
   24.3945  -22.1516  -13.7399 O   0  0  0  0  0  0  0  0  0  0  0  0
   29.7662  -19.1483  -14.2603 C   0  0  0  0  0  0  0  0  0  0  0  0
   28.3402  -19.7011  -14.2283 C   0  0  1  0  0  0  0  0  0  0  0  0
   27.9574  -20.2739  -15.5464 C   0  0  0  0  0  0  0  0  0  0  0  0
   28.0694  -20.5095  -13.0218 C   0  0  0  0  0  0  0  0  0  0  0  0
   26.6191  -20.7902  -12.7167 C   0  0  2  0  0  0  0  0  0  0  0  0
   25.6770  -20.2754  -13.6533 N   0  0  0  0  0  0  0  0  0  0  0  0
   26.2974  -20.5014  -11.3008 C   0  0  0  0  0  0  0  0  0  0  0  0
   26.5164  -19.3574  -10.8512 O   0  0  0  0  0  0  0  0  0  0  0  0
   25.7513  -21.4836  -10.4476 N   0  0  0  0  0  0  0  0  0  0  0  0
   25.0793  -21.1511   -9.1810 C   0  0  1  0  0  0  0  0  0  0  0  0
   25.8792  -20.1549   -8.4217 C   0  0  0  0  0  0  0  0  0  0  0  0
   26.5525  -20.6946   -7.2467 C   0  0  0  0  0  0  0  0  0  0  0  0
   26.4056  -21.9717   -6.7536 C   0  0  0  0  0  0  0  0  0  0  0  0
   27.1504  -22.0763   -5.6448 N   0  0  0  0  0  0  0  0  0  0  0  0
   27.7812  -20.9285   -5.3859 C   0  0  0  0  0  0  0  0  0  0  0  0
   28.6641  -20.5765   -4.3662 C   0  0  0  0  0  0  0  0  0  0  0  0
   29.2142  -19.3196   -4.3176 C   0  0  0  0  0  0  0  0  0  0  0  0
   28.8391  -18.4490   -5.3279 C   0  0  0  0  0  0  0  0  0  0  0  0
   27.9796  -18.7726   -6.3298 C   0  0  0  0  0  0  0  0  0  0  0  0
   27.4248  -20.0492   -6.3719 C   0  0  0  0  0  0  0  0  0  0  0  0
   23.6725  -20.7944   -9.3387 C   0  0  0  0  0  0  0  0  0  0  0  0
   22.7640  -20.8217   -8.2633 O   0  0  0  0  0  0  0  0  0  0  0  0
   23.1272  -20.4362  -10.4385 O   0  0  0  0  0  0  0  0  0  0  0  0
  2  9  1  0
  2  1  1  6
  2  3  1  0
  4  3  1  0
  4  5  2  0
  6  5  1  0
  7  6  1  0
  8  7  2  0
  8  4  1  0
  9 16  1  0
 10  9  2  0
 12 11  1  6
 12 13  1  0
 14 12  1  0
 15 14  1  6
 16 15  1  0
 17 15  1  0
 18 17  2  0
 19 17  1  0
 20 31  1  0
 20 19  1  0
 21 22  1  0
 20 21  1  6
 22 23  2  0
 22 30  1  0
 23 24  1  0
 24 25  1  0
 25 26  2  0
 27 26  1  0
 28 27  2  0
 29 28  1  0
 30 29  2  0
 30 25  1  0
 31 32  1  0
 33 31  2  0
M  END
$$$$
