HLW.pdb
     RDKit          3D

 33 35  0  0  1  0  0  0  0  0999 V2000
   27.2758  -35.6181   -5.5019 N   0  0  0  0  0  0  0  0  0  0  0  0
   28.1123  -34.5776   -4.9644 C   0  0  1  0  0  0  0  0  0  0  0  0
   27.3516  -33.3011   -4.8165 C   0  0  0  0  0  0  0  0  0  0  0  0
   26.8206  -32.8194   -6.1024 C   0  0  0  0  0  0  0  0  0  0  0  0
   25.5334  -32.7265   -6.5537 C   0  0  0  0  0  0  0  0  0  0  0  0
   25.5321  -32.2439   -7.8060 N   0  0  0  0  0  0  0  0  0  0  0  0
   26.8098  -32.0311   -8.1521 C   0  0  0  0  0  0  0  0  0  0  0  0
   27.5834  -32.3813   -7.1172 N   0  0  0  0  0  0  0  0  0  0  0  0
   28.8823  -34.9663   -3.7720 C   0  0  0  0  0  0  0  0  0  0  0  0
   28.4005  -35.7796   -2.9107 O   0  0  0  0  0  0  0  0  0  0  0  0
   34.5601  -35.0167   -3.6727 C   0  0  0  0  0  0  0  0  0  0  0  0
   33.1155  -35.4495   -3.4166 C   0  0  1  0  0  0  0  0  0  0  0  0
   33.0191  -36.9243   -3.2493 C   0  0  0  0  0  0  0  0  0  0  0  0
   32.4335  -34.5979   -2.4205 C   0  0  0  0  0  0  0  0  0  0  0  0
   30.9401  -34.7731   -2.3014 C   0  0  2  0  0  0  0  0  0  0  0  0
   30.1864  -34.4902   -3.4769 N   0  0  0  0  0  0  0  0  0  0  0  0
   30.4167  -34.1404   -1.0696 C   0  0  0  0  0  0  0  0  0  0  0  0
   30.3249  -32.8962   -1.0198 O   0  0  0  0  0  0  0  0  0  0  0  0
   30.0200  -34.9052    0.0478 N   0  0  0  0  0  0  0  0  0  0  0  0
   29.5343  -34.2953    1.2961 C   0  0  1  0  0  0  0  0  0  0  0  0
   28.1008  -34.6271    1.5058 C   0  0  0  0  0  0  0  0  0  0  0  0
   27.1875  -33.5126    1.2846 C   0  0  0  0  0  0  0  0  0  0  0  0
   26.5059  -33.2533    0.1167 C   0  0  0  0  0  0  0  0  0  0  0  0
   25.8033  -32.1254    0.2883 N   0  0  0  0  0  0  0  0  0  0  0  0
   25.9897  -31.6312    1.5144 C   0  0  0  0  0  0  0  0  0  0  0  0
   25.4591  -30.5040    2.1398 C   0  0  0  0  0  0  0  0  0  0  0  0
   25.7850  -30.2042    3.4393 C   0  0  0  0  0  0  0  0  0  0  0  0
   26.6559  -31.0791    4.0682 C   0  0  0  0  0  0  0  0  0  0  0  0
   27.1844  -32.1823    3.4759 C   0  0  0  0  0  0  0  0  0  0  0  0
   26.8500  -32.4794    2.1571 C   0  0  0  0  0  0  0  0  0  0  0  0
   30.3860  -34.5639    2.4510 C   0  0  0  0  0  0  0  0  0  0  0  0
   30.3069  -33.8083    3.6364 O   0  0  0  0  0  0  0  0  0  0  0  0
   31.2744  -35.4820    2.5073 O   0  0  0  0  0  0  0  0  0  0  0  0
  2  9  1  0
  2  1  1  1
  2  3  1  0
  4  3  1  0
  4  5  2  0
  6  5  1  0
  7  6  1  0
  8  7  2  0
  8  4  1  0
  9 16  1  0
 10  9  2  0
 12 11  1  1
 12 13  1  0
 14 12  1  0
 15 14  1  6
 16 15  1  0
 17 15  1  0
 18 17  2  0
 19 17  1  0
 20 31  1  0
 20 19  1  0
 21 22  1  0
 20 21  1  1
 22 23  2  0
 22 30  1  0
 23 24  1  0
 24 25  1  0
 25 26  2  0
 27 26  1  0
 28 27  2  0
 29 28  1  0
 30 29  2  0
 30 25  1  0
 31 32  1  0
 33 31  2  0
M  END
$$$$
