HLW.pdb
     RDKit          3D

 33 35  0  0  1  0  0  0  0  0999 V2000
   28.3332  -21.2318  -14.1053 N   0  0  0  0  0  0  0  0  0  0  0  0
   27.4224  -20.3516  -13.4218 C   0  0  1  0  0  0  0  0  0  0  0  0
   26.5210  -19.6572  -14.3889 C   0  0  0  0  0  0  0  0  0  0  0  0
   27.2721  -18.8684  -15.3796 C   0  0  0  0  0  0  0  0  0  0  0  0
   27.7617  -17.5937  -15.3142 C   0  0  0  0  0  0  0  0  0  0  0  0
   28.3659  -17.2865  -16.4726 N   0  0  0  0  0  0  0  0  0  0  0  0
   28.2618  -18.3577  -17.2723 C   0  0  0  0  0  0  0  0  0  0  0  0
   27.5992  -19.3103  -16.6049 N   0  0  0  0  0  0  0  0  0  0  0  0
   26.7286  -20.9594  -12.2752 C   0  0  0  0  0  0  0  0  0  0  0  0
   26.2698  -22.1515  -12.3369 O   0  0  0  0  0  0  0  0  0  0  0  0
   27.1004  -19.4284   -6.5986 C   0  0  0  0  0  0  0  0  0  0  0  0
   26.9577  -20.3656   -7.7990 C   0  0  1  0  0  0  0  0  0  0  0  0
   27.0974  -21.7882   -7.3883 C   0  0  0  0  0  0  0  0  0  0  0  0
   25.8174  -20.0090   -8.6681 C   0  0  0  0  0  0  0  0  0  0  0  0
   25.7002  -20.7720   -9.9640 C   0  0  2  0  0  0  0  0  0  0  0  0
   26.5109  -20.3012  -11.0368 N   0  0  0  0  0  0  0  0  0  0  0  0
   24.2848  -21.0135  -10.3245 C   0  0  0  0  0  0  0  0  0  0  0  0
   23.5119  -21.4817   -9.4630 O   0  0  0  0  0  0  0  0  0  0  0  0
   23.7876  -20.7296  -11.6140 N   0  0  0  0  0  0  0  0  0  0  0  0
   22.3532  -20.5503  -11.8908 C   0  0  1  0  0  0  0  0  0  0  0  0
   22.1095  -19.2129  -12.4915 C   0  0  0  0  0  0  0  0  0  0  0  0
   20.8387  -19.0929  -13.1956 C   0  0  0  0  0  0  0  0  0  0  0  0
   19.6428  -18.7072  -12.6327 C   0  0  0  0  0  0  0  0  0  0  0  0
   18.7010  -18.7583  -13.5843 N   0  0  0  0  0  0  0  0  0  0  0  0
   19.2212  -19.1583  -14.7470 C   0  0  0  0  0  0  0  0  0  0  0  0
   18.6372  -19.3390  -15.9998 C   0  0  0  0  0  0  0  0  0  0  0  0
   19.3914  -19.7426  -17.0735 C   0  0  0  0  0  0  0  0  0  0  0  0
   20.7390  -19.9518  -16.8295 C   0  0  0  0  0  0  0  0  0  0  0  0
   21.3270  -19.7820  -15.6160 C   0  0  0  0  0  0  0  0  0  0  0  0
   20.5553  -19.3735  -14.5312 C   0  0  0  0  0  0  0  0  0  0  0  0
   21.7552  -21.6571  -12.6314 C   0  0  0  0  0  0  0  0  0  0  0  0
   22.5099  -22.4907  -13.4786 O   0  0  0  0  0  0  0  0  0  0  0  0
   20.5171  -21.9757  -12.5980 O   0  0  0  0  0  0  0  0  0  0  0  0
  2  9  1  0
  2  1  1  6
  2  3  1  0
  4  3  1  0
  4  5  2  0
  6  5  1  0
  7  6  1  0
  8  7  2  0
  8  4  1  0
  9 16  1  0
 10  9  2  0
 12 11  1  1
 12 13  1  0
 14 12  1  0
 15 14  1  1
 16 15  1  0
 17 15  1  0
 18 17  2  0
 19 17  1  0
 20 31  1  0
 20 19  1  0
 21 22  1  0
 20 21  1  6
 22 23  2  0
 22 30  1  0
 23 24  1  0
 24 25  1  0
 25 26  2  0
 27 26  1  0
 28 27  2  0
 29 28  1  0
 30 29  2  0
 30 25  1  0
 31 32  1  0
 33 31  2  0
M  END
$$$$
