HLW.pdb
     RDKit          3D

 33 35  0  0  1  0  0  0  0  0999 V2000
   19.2657   -8.8749  -20.4759 N   0  0  0  0  0  0  0  0  0  0  0  0
   20.0919   -8.3828  -19.4050 C   0  0  1  0  0  0  0  0  0  0  0  0
   21.3858   -7.8510  -19.9274 C   0  0  0  0  0  0  0  0  0  0  0  0
   22.1979   -8.8984  -20.5687 C   0  0  0  0  0  0  0  0  0  0  0  0
   22.5036  -10.1647  -20.1538 C   0  0  0  0  0  0  0  0  0  0  0  0
   23.2968  -10.7538  -21.0622 N   0  0  0  0  0  0  0  0  0  0  0  0
   23.4966   -9.8692  -22.0497 C   0  0  0  0  0  0  0  0  0  0  0  0
   22.8293   -8.7496  -21.7445 N   0  0  0  0  0  0  0  0  0  0  0  0
   19.4031   -7.4853  -18.4638 C   0  0  0  0  0  0  0  0  0  0  0  0
   18.9404   -6.3561  -18.8462 O   0  0  0  0  0  0  0  0  0  0  0  0
   15.4768   -8.9857  -14.9424 C   0  0  0  0  0  0  0  0  0  0  0  0
   16.3441   -8.1594  -15.8936 C   0  0  1  0  0  0  0  0  0  0  0  0
   15.5142   -7.2278  -16.7034 C   0  0  0  0  0  0  0  0  0  0  0  0
   17.5495   -7.6134  -15.2367 C   0  0  0  0  0  0  0  0  0  0  0  0
   18.5538   -6.9381  -16.1371 C   0  0  2  0  0  0  0  0  0  0  0  0
   19.1963   -7.7792  -17.0908 N   0  0  0  0  0  0  0  0  0  0  0  0
   19.4725   -6.0686  -15.3681 C   0  0  0  0  0  0  0  0  0  0  0  0
   19.0131   -5.3765  -14.4360 O   0  0  0  0  0  0  0  0  0  0  0  0
   20.8512   -6.0013  -15.6608 N   0  0  0  0  0  0  0  0  0  0  0  0
   21.7834   -5.1500  -14.9041 C   0  0  1  0  0  0  0  0  0  0  0  0
   23.1358   -5.7659  -14.8788 C   0  0  0  0  0  0  0  0  0  0  0  0
   23.1582   -7.1478  -14.4151 C   0  0  0  0  0  0  0  0  0  0  0  0
   23.9180   -8.1624  -14.9528 C   0  0  0  0  0  0  0  0  0  0  0  0
   23.6355   -9.2899  -14.2863 N   0  0  0  0  0  0  0  0  0  0  0  0
   22.7265   -9.0645  -13.3348 C   0  0  0  0  0  0  0  0  0  0  0  0
   22.1505   -9.9183  -12.3954 C   0  0  0  0  0  0  0  0  0  0  0  0
   21.2377   -9.4461  -11.4852 C   0  0  0  0  0  0  0  0  0  0  0  0
   20.9379   -8.0958  -11.5647 C   0  0  0  0  0  0  0  0  0  0  0  0
   21.4877   -7.2474  -12.4732 C   0  0  0  0  0  0  0  0  0  0  0  0
   22.4121   -7.7340  -13.3940 C   0  0  0  0  0  0  0  0  0  0  0  0
   21.7706   -3.7508  -15.3202 C   0  0  0  0  0  0  0  0  0  0  0  0
   22.2353   -2.7140  -14.4887 O   0  0  0  0  0  0  0  0  0  0  0  0
   21.3422   -3.3267  -16.4480 O   0  0  0  0  0  0  0  0  0  0  0  0
  2  9  1  0
  2  1  1  6
  2  3  1  0
  4  3  1  0
  4  5  2  0
  6  5  1  0
  7  6  1  0
  8  7  2  0
  8  4  1  0
  9 16  1  0
 10  9  2  0
 12 11  1  1
 12 13  1  0
 14 12  1  0
 15 14  1  1
 16 15  1  0
 17 15  1  0
 18 17  2  0
 19 17  1  0
 20 31  1  0
 20 19  1  0
 21 22  1  0
 20 21  1  6
 22 23  2  0
 22 30  1  0
 23 24  1  0
 24 25  1  0
 25 26  2  0
 27 26  1  0
 28 27  2  0
 29 28  1  0
 30 29  2  0
 30 25  1  0
 31 32  1  0
 33 31  2  0
M  END
$$$$
