HLW.pdb
     RDKit          3D

 33 35  0  0  1  0  0  0  0  0999 V2000
   64.8084   15.2311  -50.1313 N   0  0  0  0  0  0  0  0  0  0  0  0
   65.4685   14.2015  -50.8901 C   0  0  1  0  0  0  0  0  0  0  0  0
   65.6014   12.9478  -50.0899 C   0  0  0  0  0  0  0  0  0  0  0  0
   64.4438   12.7274  -49.2072 C   0  0  0  0  0  0  0  0  0  0  0  0
   63.2294   12.1530  -49.4609 C   0  0  0  0  0  0  0  0  0  0  0  0
   62.4767   12.1890  -48.3503 N   0  0  0  0  0  0  0  0  0  0  0  0
   63.2055   12.7831  -47.3945 C   0  0  0  0  0  0  0  0  0  0  0  0
   64.3937   13.1061  -47.9197 N   0  0  0  0  0  0  0  0  0  0  0  0
   64.9323   14.0017  -52.2459 C   0  0  0  0  0  0  0  0  0  0  0  0
   63.7045   13.6966  -52.4324 O   0  0  0  0  0  0  0  0  0  0  0  0
   64.1986   16.8943  -53.7015 C   0  0  0  0  0  0  0  0  0  0  0  0
   64.9883   16.4395  -54.9302 C   0  0  1  0  0  0  0  0  0  0  0  0
   66.4441   16.6884  -54.7542 C   0  0  0  0  0  0  0  0  0  0  0  0
   64.5714   15.1076  -55.4146 C   0  0  0  0  0  0  0  0  0  0  0  0
   65.2362   13.9208  -54.7629 C   0  0  2  0  0  0  0  0  0  0  0  0
   65.7021   14.1240  -53.4320 N   0  0  0  0  0  0  0  0  0  0  0  0
   66.2213   13.2868  -55.6680 C   0  0  0  0  0  0  0  0  0  0  0  0
   67.4379   13.3924  -55.4084 O   0  0  0  0  0  0  0  0  0  0  0  0
   65.8219   12.5681  -56.8147 N   0  0  0  0  0  0  0  0  0  0  0  0
   66.6064   11.4512  -57.3655 C   0  0  1  0  0  0  0  0  0  0  0  0
   66.3242   10.2034  -56.6089 C   0  0  0  0  0  0  0  0  0  0  0  0
   65.0877   10.2350  -55.8375 C   0  0  0  0  0  0  0  0  0  0  0  0
   64.9973   10.3891  -54.4723 C   0  0  0  0  0  0  0  0  0  0  0  0
   63.7028   10.3252  -54.1325 N   0  0  0  0  0  0  0  0  0  0  0  0
   62.9373   10.1374  -55.2100 C   0  0  0  0  0  0  0  0  0  0  0  0
   61.5542   10.0290  -55.3453 C   0  0  0  0  0  0  0  0  0  0  0  0
   60.9816    9.8583  -56.5814 C   0  0  0  0  0  0  0  0  0  0  0  0
   61.8538    9.8032  -57.6564 C   0  0  0  0  0  0  0  0  0  0  0  0
   63.2044    9.9061  -57.5454 C   0  0  0  0  0  0  0  0  0  0  0  0
   63.7781   10.0780  -56.2881 C   0  0  0  0  0  0  0  0  0  0  0  0
   66.4921   11.3116  -58.8142 C   0  0  0  0  0  0  0  0  0  0  0  0
   65.5496   10.4561  -59.4159 O   0  0  0  0  0  0  0  0  0  0  0  0
   67.2184   11.9269  -59.6681 O   0  0  0  0  0  0  0  0  0  0  0  0
  2  9  1  0
  2  1  1  1
  2  3  1  0
  4  3  1  0
  4  5  2  0
  6  5  1  0
  7  6  1  0
  8  7  2  0
  8  4  1  0
  9 16  1  0
 10  9  2  0
 12 11  1  1
 12 13  1  0
 14 12  1  0
 15 14  1  6
 16 15  1  0
 17 15  1  0
 18 17  2  0
 19 17  1  0
 20 31  1  0
 20 19  1  0
 21 22  1  0
 20 21  1  1
 22 23  2  0
 22 30  1  0
 23 24  1  0
 24 25  1  0
 25 26  2  0
 27 26  1  0
 28 27  2  0
 29 28  1  0
 30 29  2  0
 30 25  1  0
 31 32  1  0
 33 31  2  0
M  END
$$$$
