HLW.pdb
     RDKit          3D

 33 35  0  0  1  0  0  0  0  0999 V2000
   18.8782  -18.7506  -17.4421 N   0  0  0  0  0  0  0  0  0  0  0  0
   20.2687  -19.0461  -17.6674 C   0  0  1  0  0  0  0  0  0  0  0  0
   20.9392  -17.9362  -18.4080 C   0  0  0  0  0  0  0  0  0  0  0  0
   20.3534  -17.7259  -19.7423 C   0  0  0  0  0  0  0  0  0  0  0  0
   19.3906  -18.4293  -20.4111 C   0  0  0  0  0  0  0  0  0  0  0  0
   19.1899  -17.8769  -21.6177 N   0  0  0  0  0  0  0  0  0  0  0  0
   20.0196  -16.8286  -21.7187 C   0  0  0  0  0  0  0  0  0  0  0  0
   20.7202  -16.7434  -20.5811 N   0  0  0  0  0  0  0  0  0  0  0  0
   20.9974  -19.5064  -16.4746 C   0  0  0  0  0  0  0  0  0  0  0  0
   20.7958  -18.9724  -15.3303 O   0  0  0  0  0  0  0  0  0  0  0  0
   24.2624  -24.3862  -14.2843 C   0  0  0  0  0  0  0  0  0  0  0  0
   23.9021  -22.9021  -14.1977 C   0  0  1  0  0  0  0  0  0  0  0  0
   25.0559  -22.0975  -13.7144 C   0  0  0  0  0  0  0  0  0  0  0  0
   23.1797  -22.4203  -15.3929 C   0  0  0  0  0  0  0  0  0  0  0  0
   22.7517  -20.9740  -15.3778 C   0  0  2  0  0  0  0  0  0  0  0  0
   21.9597  -20.5497  -16.4834 N   0  0  0  0  0  0  0  0  0  0  0  0
   23.8841  -20.0772  -15.0538 C   0  0  0  0  0  0  0  0  0  0  0  0
   24.5080  -20.2509  -13.9864 O   0  0  0  0  0  0  0  0  0  0  0  0
   24.2756  -19.0328  -15.9180 N   0  0  0  0  0  0  0  0  0  0  0  0
   25.5641  -18.3336  -15.7864 C   0  0  1  0  0  0  0  0  0  0  0  0
   25.7902  -17.9356  -14.3724 C   0  0  0  0  0  0  0  0  0  0  0  0
   26.5684  -18.8929  -13.5958 C   0  0  0  0  0  0  0  0  0  0  0  0
   27.8480  -19.3100  -13.8861 C   0  0  0  0  0  0  0  0  0  0  0  0
   28.2056  -20.2196  -12.9695 N   0  0  0  0  0  0  0  0  0  0  0  0
   27.2219  -20.4196  -12.0894 C   0  0  0  0  0  0  0  0  0  0  0  0
   27.1467  -21.2463  -10.9695 C   0  0  0  0  0  0  0  0  0  0  0  0
   26.0183  -21.2673  -10.1878 C   0  0  0  0  0  0  0  0  0  0  0  0
   24.9869  -20.4300  -10.5809 C   0  0  0  0  0  0  0  0  0  0  0  0
   25.0404  -19.6176  -11.6692 C   0  0  0  0  0  0  0  0  0  0  0  0
   26.1879  -19.6026  -12.4581 C   0  0  0  0  0  0  0  0  0  0  0  0
   26.6839  -19.0466  -16.3939 C   0  0  0  0  0  0  0  0  0  0  0  0
   26.6050  -20.4058  -16.7527 O   0  0  0  0  0  0  0  0  0  0  0  0
   27.8257  -18.5319  -16.6518 O   0  0  0  0  0  0  0  0  0  0  0  0
  2  9  1  0
  2  1  1  1
  2  3  1  0
  4  3  1  0
  4  5  2  0
  6  5  1  0
  7  6  1  0
  8  7  2  0
  8  4  1  0
  9 16  1  0
 10  9  2  0
 12 11  1  6
 12 13  1  0
 14 12  1  0
 15 14  1  6
 16 15  1  0
 17 15  1  0
 18 17  2  0
 19 17  1  0
 20 31  1  0
 20 19  1  0
 21 22  1  0
 20 21  1  1
 22 23  2  0
 22 30  1  0
 23 24  1  0
 24 25  1  0
 25 26  2  0
 27 26  1  0
 28 27  2  0
 29 28  1  0
 30 29  2  0
 30 25  1  0
 31 32  1  0
 33 31  2  0
M  END
$$$$
