HLW.pdb
     RDKit          3D

 33 35  0  0  1  0  0  0  0  0999 V2000
   22.6656  -20.5346  -16.1099 N   0  0  0  0  0  0  0  0  0  0  0  0
   22.9789  -19.9078  -14.8528 C   0  0  1  0  0  0  0  0  0  0  0  0
   21.7850  -19.8785  -13.9563 C   0  0  0  0  0  0  0  0  0  0  0  0
   20.7022  -19.0428  -14.5011 C   0  0  0  0  0  0  0  0  0  0  0  0
   19.6345  -19.3735  -15.2882 C   0  0  0  0  0  0  0  0  0  0  0  0
   18.9173  -18.2710  -15.5556 N   0  0  0  0  0  0  0  0  0  0  0  0
   19.5236  -17.2435  -14.9440 C   0  0  0  0  0  0  0  0  0  0  0  0
   20.6023  -17.7175  -14.3084 N   0  0  0  0  0  0  0  0  0  0  0  0
   24.2070  -20.4036  -14.2112 C   0  0  0  0  0  0  0  0  0  0  0  0
   24.3732  -21.6497  -13.9769 O   0  0  0  0  0  0  0  0  0  0  0  0
   29.1394  -18.4173  -15.4072 C   0  0  0  0  0  0  0  0  0  0  0  0
   28.0488  -19.4065  -14.9923 C   0  0  1  0  0  0  0  0  0  0  0  0
   28.2805  -20.7451  -15.5978 C   0  0  0  0  0  0  0  0  0  0  0  0
   27.7457  -19.3478  -13.5476 C   0  0  0  0  0  0  0  0  0  0  0  0
   26.4540  -19.9912  -13.1087 C   0  0  2  0  0  0  0  0  0  0  0  0
   25.2841  -19.5729  -13.8059 N   0  0  0  0  0  0  0  0  0  0  0  0
   26.3225  -19.9918  -11.6342 C   0  0  0  0  0  0  0  0  0  0  0  0
   26.6631  -18.9746  -10.9953 O   0  0  0  0  0  0  0  0  0  0  0  0
   25.8236  -21.1101  -10.9331 N   0  0  0  0  0  0  0  0  0  0  0  0
   25.6556  -21.1209   -9.4709 C   0  0  1  0  0  0  0  0  0  0  0  0
   26.9160  -20.6982   -8.8062 C   0  0  0  0  0  0  0  0  0  0  0  0
   26.8578  -20.7023   -7.3496 C   0  0  0  0  0  0  0  0  0  0  0  0
   25.8451  -21.2419   -6.5885 C   0  0  0  0  0  0  0  0  0  0  0  0
   26.1289  -21.0138   -5.2990 N   0  0  0  0  0  0  0  0  0  0  0  0
   27.2810  -20.3506   -5.1760 C   0  0  0  0  0  0  0  0  0  0  0  0
   27.9746  -19.9179   -4.0469 C   0  0  0  0  0  0  0  0  0  0  0  0
   29.1749  -19.2629   -4.1693 C   0  0  0  0  0  0  0  0  0  0  0  0
   29.6356  -19.0680   -5.4613 C   0  0  0  0  0  0  0  0  0  0  0  0
   28.9743  -19.4813   -6.5745 C   0  0  0  0  0  0  0  0  0  0  0  0
   27.7567  -20.1441   -6.4424 C   0  0  0  0  0  0  0  0  0  0  0  0
   24.4679  -20.4074   -9.0110 C   0  0  0  0  0  0  0  0  0  0  0  0
   23.5365  -19.8427   -9.9032 O   0  0  0  0  0  0  0  0  0  0  0  0
   24.1575  -20.2171   -7.7851 O   0  0  0  0  0  0  0  0  0  0  0  0
  2  9  1  0
  2  1  1  6
  2  3  1  0
  4  3  1  0
  4  5  2  0
  6  5  1  0
  7  6  1  0
  8  7  2  0
  8  4  1  0
  9 16  1  0
 10  9  2  0
 12 11  1  1
 12 13  1  0
 14 12  1  0
 15 14  1  1
 16 15  1  0
 17 15  1  0
 18 17  2  0
 19 17  1  0
 20 31  1  0
 20 19  1  0
 21 22  1  0
 20 21  1  1
 22 23  2  0
 22 30  1  0
 23 24  1  0
 24 25  1  0
 25 26  2  0
 27 26  1  0
 28 27  2  0
 29 28  1  0
 30 29  2  0
 30 25  1  0
 31 32  1  0
 33 31  2  0
M  END
$$$$
