HLW.pdb
     RDKit          3D

 33 35  0  0  1  0  0  0  0  0999 V2000
   28.2728  -21.2839  -14.4898 N   0  0  0  0  0  0  0  0  0  0  0  0
   27.5941  -20.4008  -13.5783 C   0  0  1  0  0  0  0  0  0  0  0  0
   26.7444  -19.4191  -14.3160 C   0  0  0  0  0  0  0  0  0  0  0  0
   27.5122  -18.6654  -15.3210 C   0  0  0  0  0  0  0  0  0  0  0  0
   27.4245  -18.6592  -16.6854 C   0  0  0  0  0  0  0  0  0  0  0  0
   28.3475  -17.8252  -17.1892 N   0  0  0  0  0  0  0  0  0  0  0  0
   29.0203  -17.3032  -16.1536 C   0  0  0  0  0  0  0  0  0  0  0  0
   28.5100  -17.8159  -15.0271 N   0  0  0  0  0  0  0  0  0  0  0  0
   26.9107  -21.0781  -12.4648 C   0  0  0  0  0  0  0  0  0  0  0  0
   26.3801  -22.2314  -12.6189 O   0  0  0  0  0  0  0  0  0  0  0  0
   27.9536  -19.4062   -7.2235 C   0  0  0  0  0  0  0  0  0  0  0  0
   27.7440  -20.2847   -8.4580 C   0  0  1  0  0  0  0  0  0  0  0  0
   28.6926  -21.4303   -8.4683 C   0  0  0  0  0  0  0  0  0  0  0  0
   26.3182  -20.5696   -8.7195 C   0  0  0  0  0  0  0  0  0  0  0  0
   25.9763  -21.0531  -10.1067 C   0  0  2  0  0  0  0  0  0  0  0  0
   26.7807  -20.5324  -11.1611 N   0  0  0  0  0  0  0  0  0  0  0  0
   24.5188  -20.9908  -10.3585 C   0  0  0  0  0  0  0  0  0  0  0  0
   23.7397  -21.5239   -9.5414 O   0  0  0  0  0  0  0  0  0  0  0  0
   23.9881  -20.3462  -11.4959 N   0  0  0  0  0  0  0  0  0  0  0  0
   22.5428  -20.2691  -11.7635 C   0  0  1  0  0  0  0  0  0  0  0  0
   22.2217  -19.0136  -12.4911 C   0  0  0  0  0  0  0  0  0  0  0  0
   20.7993  -18.8068  -12.7341 C   0  0  0  0  0  0  0  0  0  0  0  0
   19.9392  -18.1073  -11.9176 C   0  0  0  0  0  0  0  0  0  0  0  0
   18.7128  -18.1739  -12.4531 N   0  0  0  0  0  0  0  0  0  0  0  0
   18.7259  -18.8834  -13.5839 C   0  0  0  0  0  0  0  0  0  0  0  0
   17.7065  -19.1993  -14.4807 C   0  0  0  0  0  0  0  0  0  0  0  0
   17.9682  -19.9371  -15.6085 C   0  0  0  0  0  0  0  0  0  0  0  0
   19.2833  -20.3347  -15.7869 C   0  0  0  0  0  0  0  0  0  0  0  0
   20.2908  -20.0378  -14.9244 C   0  0  0  0  0  0  0  0  0  0  0  0
   20.0174  -19.2898  -13.7820 C   0  0  0  0  0  0  0  0  0  0  0  0
   21.9943  -21.4743  -12.3783 C   0  0  0  0  0  0  0  0  0  0  0  0
   20.6954  -21.9387  -12.0962 O   0  0  0  0  0  0  0  0  0  0  0  0
   22.6175  -22.2205  -13.2090 O   0  0  0  0  0  0  0  0  0  0  0  0
  2  9  1  0
  2  1  1  6
  2  3  1  0
  4  3  1  0
  4  5  2  0
  6  5  1  0
  7  6  1  0
  8  7  2  0
  8  4  1  0
  9 16  1  0
 10  9  2  0
 12 11  1  1
 12 13  1  0
 14 12  1  0
 15 14  1  1
 16 15  1  0
 17 15  1  0
 18 17  2  0
 19 17  1  0
 20 31  1  0
 20 19  1  0
 21 22  1  0
 20 21  1  6
 22 23  2  0
 22 30  1  0
 23 24  1  0
 24 25  1  0
 25 26  2  0
 27 26  1  0
 28 27  2  0
 29 28  1  0
 30 29  2  0
 30 25  1  0
 31 32  1  0
 33 31  2  0
M  END
$$$$
