HLW.pdb
     RDKit          3D

 33 35  0  0  1  0  0  0  0  0999 V2000
   24.3949  -23.3299  -18.3853 N   0  0  0  0  0  0  0  0  0  0  0  0
   24.2847  -21.9138  -18.1528 C   0  0  1  0  0  0  0  0  0  0  0  0
   23.1800  -21.3218  -18.9647 C   0  0  0  0  0  0  0  0  0  0  0  0
   23.5903  -21.0624  -20.3547 C   0  0  0  0  0  0  0  0  0  0  0  0
   24.0756  -19.9266  -20.9408 C   0  0  0  0  0  0  0  0  0  0  0  0
   24.2950  -20.1549  -22.2451 N   0  0  0  0  0  0  0  0  0  0  0  0
   23.9513  -21.4275  -22.4899 C   0  0  0  0  0  0  0  0  0  0  0  0
   23.5260  -21.9701  -21.3423 N   0  0  0  0  0  0  0  0  0  0  0  0
   24.2688  -21.5262  -16.7332 C   0  0  0  0  0  0  0  0  0  0  0  0
   23.8765  -22.3421  -15.8300 O   0  0  0  0  0  0  0  0  0  0  0  0
   28.0185  -17.8490  -14.9158 C   0  0  0  0  0  0  0  0  0  0  0  0
   27.0797  -19.0367  -15.1349 C   0  0  1  0  0  0  0  0  0  0  0  0
   27.7754  -20.3253  -14.8744 C   0  0  0  0  0  0  0  0  0  0  0  0
   25.7519  -18.8348  -14.5195 C   0  0  0  0  0  0  0  0  0  0  0  0
   24.6844  -19.8340  -14.8898 C   0  0  2  0  0  0  0  0  0  0  0  0
   24.6728  -20.2539  -16.2512 N   0  0  0  0  0  0  0  0  0  0  0  0
   23.3611  -19.4350  -14.3593 C   0  0  0  0  0  0  0  0  0  0  0  0
   23.3094  -18.6992  -13.3519 O   0  0  0  0  0  0  0  0  0  0  0  0
   22.1592  -19.8641  -14.9609 N   0  0  0  0  0  0  0  0  0  0  0  0
   20.8367  -19.3951  -14.5166 C   0  0  1  0  0  0  0  0  0  0  0  0
   20.7436  -17.9180  -14.6524 C   0  0  0  0  0  0  0  0  0  0  0  0
   20.6964  -17.4429  -16.0297 C   0  0  0  0  0  0  0  0  0  0  0  0
   19.6427  -17.6093  -16.9002 C   0  0  0  0  0  0  0  0  0  0  0  0
   19.9901  -17.0750  -18.0788 N   0  0  0  0  0  0  0  0  0  0  0  0
   21.2222  -16.5639  -18.0243 C   0  0  0  0  0  0  0  0  0  0  0  0
   21.9844  -15.9020  -18.9856 C   0  0  0  0  0  0  0  0  0  0  0  0
   23.2411  -15.4375  -18.6864 C   0  0  0  0  0  0  0  0  0  0  0  0
   23.6860  -15.6675  -17.3946 C   0  0  0  0  0  0  0  0  0  0  0  0
   22.9590  -16.3111  -16.4436 C   0  0  0  0  0  0  0  0  0  0  0  0
   21.6853  -16.7804  -16.7549 C   0  0  0  0  0  0  0  0  0  0  0  0
   19.7231  -20.1228  -15.1180 C   0  0  0  0  0  0  0  0  0  0  0  0
   19.8951  -20.9914  -16.2126 O   0  0  0  0  0  0  0  0  0  0  0  0
   18.5062  -20.0472  -14.7323 O   0  0  0  0  0  0  0  0  0  0  0  0
  2  9  1  0
  2  1  1  1
  2  3  1  0
  4  3  1  0
  4  5  2  0
  6  5  1  0
  7  6  1  0
  8  7  2  0
  8  4  1  0
  9 16  1  0
 10  9  2  0
 12 11  1  1
 12 13  1  0
 14 12  1  0
 15 14  1  6
 16 15  1  0
 17 15  1  0
 18 17  2  0
 19 17  1  0
 20 31  1  0
 20 19  1  0
 21 22  1  0
 20 21  1  6
 22 23  2  0
 22 30  1  0
 23 24  1  0
 24 25  1  0
 25 26  2  0
 27 26  1  0
 28 27  2  0
 29 28  1  0
 30 29  2  0
 30 25  1  0
 31 32  1  0
 33 31  2  0
M  END
$$$$
