SSW.pdb
     RDKit          3D

 27 28  0  0  1  0  0  0  0  0999 V2000
   28.0206  -20.0589  -14.6962 O   0  0  0  0  0  0  0  0  0  0  0  0
   27.4432  -20.1732  -15.9806 C   0  0  0  0  0  0  0  0  0  0  0  0
   26.1568  -19.3455  -16.0135 C   0  0  2  0  0  0  0  0  0  0  0  0
   26.4025  -18.0390  -16.5551 N   0  0  0  0  0  0  0  0  0  0  0  0
   25.7066  -19.2109  -14.6095 C   0  0  0  0  0  0  0  0  0  0  0  0
   26.1017  -18.2074  -13.9296 O   0  0  0  0  0  0  0  0  0  0  0  0
   22.8322  -21.7193  -12.6488 O   0  0  0  0  0  0  0  0  0  0  0  0
   22.8903  -20.3362  -12.5006 C   0  0  0  0  0  0  0  0  0  0  0  0
   24.3011  -19.8289  -12.6466 C   0  0  2  0  0  0  0  0  0  0  0  0
   24.8607  -20.1156  -13.9442 N   0  0  0  0  0  0  0  0  0  0  0  0
   25.2104  -20.3539  -11.6123 C   0  0  0  0  0  0  0  0  0  0  0  0
   26.0139  -21.2574  -11.9397 O   0  0  0  0  0  0  0  0  0  0  0  0
   25.2256  -19.8948  -10.2761 N   0  0  0  0  0  0  0  0  0  0  0  0
   26.0844  -20.5533   -9.2860 C   0  0  1  0  0  0  0  0  0  0  0  0
   27.0384  -19.4872   -8.7728 C   0  0  0  0  0  0  0  0  0  0  0  0
   27.9049  -20.0697   -7.7554 C   0  0  0  0  0  0  0  0  0  0  0  0
   28.6161  -21.2732   -7.8769 C   0  0  0  0  0  0  0  0  0  0  0  0
   29.3247  -21.4457   -6.7766 N   0  0  0  0  0  0  0  0  0  0  0  0
   29.1404  -20.4375   -5.9146 C   0  0  0  0  0  0  0  0  0  0  0  0
   29.6530  -20.1854   -4.6444 C   0  0  0  0  0  0  0  0  0  0  0  0
   29.2942  -19.0625   -3.9366 C   0  0  0  0  0  0  0  0  0  0  0  0
   28.4048  -18.1919   -4.5324 C   0  0  0  0  0  0  0  0  0  0  0  0
   27.9014  -18.4553   -5.8005 C   0  0  0  0  0  0  0  0  0  0  0  0
   28.2446  -19.5706   -6.5321 C   0  0  0  0  0  0  0  0  0  0  0  0
   25.3026  -21.2503   -8.2883 C   0  0  0  0  0  0  0  0  0  0  0  0
   24.0915  -20.7996   -7.7977 O   0  0  0  0  0  0  0  0  0  0  0  0
   25.7441  -22.3429   -7.8204 O   0  0  0  0  0  0  0  0  0  0  0  0
  1  2  1  0
  2  3  1  0
  3  4  1  1
  5  6  2  0
  5  3  1  0
  7  8  1  0
  9  8  1  6
  9 10  1  0
 10  5  1  0
 11 13  1  0
 11  9  1  0
 12 11  2  0
 14 25  1  0
 14 13  1  0
 15 16  1  0
 14 15  1  1
 16 17  2  0
 16 24  1  0
 17 18  1  0
 18 19  1  0
 19 20  2  0
 20 21  1  0
 22 21  2  0
 23 22  1  0
 24 23  2  0
 24 19  1  0
 25 26  1  0
 27 25  2  0
M  END
$$$$
