SSW.pdb
     RDKit          3D

 27 28  0  0  1  0  0  0  0  0999 V2000
   28.8006  -21.9008  -16.5753 O   0  0  0  0  0  0  0  0  0  0  0  0
   28.4166  -21.3219  -15.3450 C   0  0  0  0  0  0  0  0  0  0  0  0
   27.4404  -20.1780  -15.6266 C   0  0  2  0  0  0  0  0  0  0  0  0
   28.1221  -19.0535  -16.2025 N   0  0  0  0  0  0  0  0  0  0  0  0
   26.8691  -19.7806  -14.3199 C   0  0  0  0  0  0  0  0  0  0  0  0
   27.2453  -18.6831  -13.7914 O   0  0  0  0  0  0  0  0  0  0  0  0
   23.3122  -21.2433  -12.6697 O   0  0  0  0  0  0  0  0  0  0  0  0
   23.8592  -19.9959  -12.3815 C   0  0  0  0  0  0  0  0  0  0  0  0
   25.3642  -20.0518  -12.3521 C   0  0  2  0  0  0  0  0  0  0  0  0
   25.9247  -20.5264  -13.5930 N   0  0  0  0  0  0  0  0  0  0  0  0
   25.8871  -20.8784  -11.2496 C   0  0  0  0  0  0  0  0  0  0  0  0
   26.2606  -22.0442  -11.5151 O   0  0  0  0  0  0  0  0  0  0  0  0
   25.9902  -20.4289   -9.9140 N   0  0  0  0  0  0  0  0  0  0  0  0
   26.1843  -21.3969   -8.8292 C   0  0  1  0  0  0  0  0  0  0  0  0
   27.6303  -21.2539   -8.3838 C   0  0  0  0  0  0  0  0  0  0  0  0
   27.7261  -20.1762   -7.4068 C   0  0  0  0  0  0  0  0  0  0  0  0
   27.0920  -18.9278   -7.4999 C   0  0  0  0  0  0  0  0  0  0  0  0
   27.3744  -18.2402   -6.4090 N   0  0  0  0  0  0  0  0  0  0  0  0
   28.1601  -18.9402   -5.5808 C   0  0  0  0  0  0  0  0  0  0  0  0
   28.7184  -18.6389   -4.3409 C   0  0  0  0  0  0  0  0  0  0  0  0
   29.5209  -19.5377   -3.6786 C   0  0  0  0  0  0  0  0  0  0  0  0
   29.7540  -20.7529   -4.2893 C   0  0  0  0  0  0  0  0  0  0  0  0
   29.1903  -21.0409   -5.5264 C   0  0  0  0  0  0  0  0  0  0  0  0
   28.3820  -20.1605   -6.2107 C   0  0  0  0  0  0  0  0  0  0  0  0
   25.1774  -21.2478   -7.8013 C   0  0  0  0  0  0  0  0  0  0  0  0
   25.0852  -22.0548   -6.6828 O   0  0  0  0  0  0  0  0  0  0  0  0
   24.3145  -20.3265   -7.9208 O   0  0  0  0  0  0  0  0  0  0  0  0
  1  2  1  0
  2  3  1  0
  3  4  1  1
  5  6  2  0
  5  3  1  0
  7  8  1  0
  9  8  1  6
  9 10  1  0
 10  5  1  0
 11 13  1  0
 11  9  1  0
 12 11  2  0
 14 25  1  0
 14 13  1  0
 15 16  1  0
 14 15  1  1
 16 17  2  0
 16 24  1  0
 17 18  1  0
 18 19  1  0
 19 20  2  0
 20 21  1  0
 22 21  2  0
 23 22  1  0
 24 23  2  0
 24 19  1  0
 25 26  1  0
 27 25  2  0
M  END
$$$$
