SSW.pdb
     RDKit          3D

 27 28  0  0  1  0  0  0  0  0999 V2000
   13.0196   -7.1478  -17.3228 O   0  0  0  0  0  0  0  0  0  0  0  0
   14.0163   -7.4260  -16.3610 C   0  0  0  0  0  0  0  0  0  0  0  0
   13.9675   -8.9176  -16.0240 C   0  0  2  0  0  0  0  0  0  0  0  0
   12.8213   -9.2224  -15.2153 N   0  0  0  0  0  0  0  0  0  0  0  0
   15.1965   -9.2158  -15.2542 C   0  0  0  0  0  0  0  0  0  0  0  0
   15.3243   -8.7261  -14.0841 O   0  0  0  0  0  0  0  0  0  0  0  0
   17.2547  -12.6563  -15.7103 O   0  0  0  0  0  0  0  0  0  0  0  0
   17.2994  -11.9004  -14.5421 C   0  0  0  0  0  0  0  0  0  0  0  0
   17.3367  -10.4255  -14.8456 C   0  0  2  0  0  0  0  0  0  0  0  0
   16.2612  -10.0115  -15.7124 N   0  0  0  0  0  0  0  0  0  0  0  0
   18.6151   -9.9929  -15.4378 C   0  0  0  0  0  0  0  0  0  0  0  0
   18.6694   -9.8527  -16.6814 O   0  0  0  0  0  0  0  0  0  0  0  0
   19.7790   -9.7280  -14.6817 N   0  0  0  0  0  0  0  0  0  0  0  0
   21.0504   -9.4643  -15.3639 C   0  0  1  0  0  0  0  0  0  0  0  0
   21.9957   -8.9169  -14.3072 C   0  0  0  0  0  0  0  0  0  0  0  0
   23.2859   -8.6291  -14.9218 C   0  0  0  0  0  0  0  0  0  0  0  0
   23.6471   -7.4226  -15.5408 C   0  0  0  0  0  0  0  0  0  0  0  0
   24.9041   -7.5207  -15.9321 N   0  0  0  0  0  0  0  0  0  0  0  0
   25.4203   -8.7163  -15.6198 C   0  0  0  0  0  0  0  0  0  0  0  0
   26.6766   -9.2789  -15.8324 C   0  0  0  0  0  0  0  0  0  0  0  0
   26.9675  -10.5587  -15.4227 C   0  0  0  0  0  0  0  0  0  0  0  0
   25.9663  -11.2678  -14.7914 C   0  0  0  0  0  0  0  0  0  0  0  0
   24.7174  -10.6943  -14.5851 C   0  0  0  0  0  0  0  0  0  0  0  0
   24.3994   -9.4149  -14.9834 C   0  0  0  0  0  0  0  0  0  0  0  0
   21.5079  -10.6247  -16.0964 C   0  0  0  0  0  0  0  0  0  0  0  0
   22.1551  -10.5664  -17.3165 O   0  0  0  0  0  0  0  0  0  0  0  0
   21.3065  -11.7758  -15.6045 O   0  0  0  0  0  0  0  0  0  0  0  0
  1  2  1  0
  2  3  1  0
  3  4  1  1
  5  6  2  0
  5  3  1  0
  7  8  1  0
  9  8  1  6
  9 10  1  0
 10  5  1  0
 11 13  1  0
 11  9  1  0
 12 11  2  0
 14 25  1  0
 14 13  1  0
 15 16  1  0
 14 15  1  1
 16 17  2  0
 16 24  1  0
 17 18  1  0
 18 19  1  0
 19 20  2  0
 20 21  1  0
 22 21  2  0
 23 22  1  0
 24 23  2  0
 24 19  1  0
 25 26  1  0
 27 25  2  0
M  END
$$$$
