SSW.pdb
     RDKit          3D

 27 28  0  0  1  0  0  0  0  0999 V2000
   21.9640  -27.8597  -11.4306 O   0  0  0  0  0  0  0  0  0  0  0  0
   21.6620  -29.2043  -11.1193 C   0  0  0  0  0  0  0  0  0  0  0  0
   20.3742  -29.5968  -11.8462 C   0  0  2  0  0  0  0  0  0  0  0  0
   20.4146  -29.1813  -13.2196 N   0  0  0  0  0  0  0  0  0  0  0  0
   19.2702  -28.8894  -11.1586 C   0  0  0  0  0  0  0  0  0  0  0  0
   18.7780  -27.8443  -11.6978 O   0  0  0  0  0  0  0  0  0  0  0  0
   15.2475  -28.8774   -8.7581 O   0  0  0  0  0  0  0  0  0  0  0  0
   16.3247  -29.5044   -9.3786 C   0  0  0  0  0  0  0  0  0  0  0  0
   17.5451  -28.6215   -9.3800 C   0  0  2  0  0  0  0  0  0  0  0  0
   18.7034  -29.2793   -9.9324 N   0  0  0  0  0  0  0  0  0  0  0  0
   17.8854  -28.1094   -8.0406 C   0  0  0  0  0  0  0  0  0  0  0  0
   18.6664  -28.7867   -7.3332 O   0  0  0  0  0  0  0  0  0  0  0  0
   17.3809  -26.8997   -7.5128 N   0  0  0  0  0  0  0  0  0  0  0  0
   17.7548  -26.4803   -6.1579 C   0  0  1  0  0  0  0  0  0  0  0  0
   18.2601  -25.0520   -6.2778 C   0  0  0  0  0  0  0  0  0  0  0  0
   17.2456  -24.2390   -6.9374 C   0  0  0  0  0  0  0  0  0  0  0  0
   16.0792  -23.7398   -6.3378 C   0  0  0  0  0  0  0  0  0  0  0  0
   15.4361  -23.0115   -7.2315 N   0  0  0  0  0  0  0  0  0  0  0  0
   16.0896  -22.9842   -8.4001 C   0  0  0  0  0  0  0  0  0  0  0  0
   15.8057  -22.3713   -9.6182 C   0  0  0  0  0  0  0  0  0  0  0  0
   16.6432  -22.5054  -10.7004 C   0  0  0  0  0  0  0  0  0  0  0  0
   17.7785  -23.2720  -10.5353 C   0  0  0  0  0  0  0  0  0  0  0  0
   18.0500  -23.8776   -9.3144 C   0  0  0  0  0  0  0  0  0  0  0  0
   17.2300  -23.7589   -8.2142 C   0  0  0  0  0  0  0  0  0  0  0  0
   16.6774  -26.7043   -5.2190 C   0  0  0  0  0  0  0  0  0  0  0  0
   16.8076  -26.5915   -3.8474 O   0  0  0  0  0  0  0  0  0  0  0  0
   15.5362  -27.0297   -5.6654 O   0  0  0  0  0  0  0  0  0  0  0  0
  1  2  1  0
  2  3  1  0
  3  4  1  6
  5  6  2  0
  5  3  1  0
  7  8  1  0
  9  8  1  1
  9 10  1  0
 10  5  1  0
 11 13  1  0
 11  9  1  0
 12 11  2  0
 14 25  1  0
 14 13  1  0
 15 16  1  0
 14 15  1  6
 16 17  2  0
 16 24  1  0
 17 18  1  0
 18 19  1  0
 19 20  2  0
 20 21  1  0
 22 21  2  0
 23 22  1  0
 24 23  2  0
 24 19  1  0
 25 26  1  0
 27 25  2  0
M  END
$$$$
