SSW.pdb
     RDKit          3D

 27 28  0  0  1  0  0  0  0  0999 V2000
   15.0257   -7.8035  -15.8997 O   0  0  0  0  0  0  0  0  0  0  0  0
   15.0136   -8.5270  -17.1131 C   0  0  0  0  0  0  0  0  0  0  0  0
   15.6482   -7.6620  -18.2041 C   0  0  2  0  0  0  0  0  0  0  0  0
   15.5227   -8.2869  -19.4903 N   0  0  0  0  0  0  0  0  0  0  0  0
   17.0837   -7.5400  -17.8629 C   0  0  0  0  0  0  0  0  0  0  0  0
   17.8213   -8.5782  -17.9225 O   0  0  0  0  0  0  0  0  0  0  0  0
   21.2191   -5.2935  -17.8329 O   0  0  0  0  0  0  0  0  0  0  0  0
   19.8585   -5.3430  -18.1238 C   0  0  0  0  0  0  0  0  0  0  0  0
   19.1358   -6.2899  -17.2019 C   0  0  2  0  0  0  0  0  0  0  0  0
   17.7200   -6.3498  -17.4691 N   0  0  0  0  0  0  0  0  0  0  0  0
   19.3356   -5.9694  -15.7773 C   0  0  0  0  0  0  0  0  0  0  0  0
   18.6001   -5.0958  -15.2626 O   0  0  0  0  0  0  0  0  0  0  0  0
   20.3079   -6.5922  -14.9629 N   0  0  0  0  0  0  0  0  0  0  0  0
   20.4464   -6.1975  -13.5571 C   0  0  1  0  0  0  0  0  0  0  0  0
   20.2223   -7.4571  -12.7366 C   0  0  0  0  0  0  0  0  0  0  0  0
   20.5001   -7.1708  -11.3344 C   0  0  0  0  0  0  0  0  0  0  0  0
   19.8061   -6.2509  -10.5335 C   0  0  0  0  0  0  0  0  0  0  0  0
   20.3098   -6.3043   -9.3144 N   0  0  0  0  0  0  0  0  0  0  0  0
   21.3018   -7.2004   -9.2352 C   0  0  0  0  0  0  0  0  0  0  0  0
   22.1263   -7.5949   -8.1842 C   0  0  0  0  0  0  0  0  0  0  0  0
   23.1038   -8.5460   -8.3583 C   0  0  0  0  0  0  0  0  0  0  0  0
   23.2389   -9.0969   -9.6161 C   0  0  0  0  0  0  0  0  0  0  0  0
   22.4094   -8.6946  -10.6558 C   0  0  0  0  0  0  0  0  0  0  0  0
   21.4217   -7.7459  -10.5093 C   0  0  0  0  0  0  0  0  0  0  0  0
   21.6880   -5.4922  -13.3259 C   0  0  0  0  0  0  0  0  0  0  0  0
   21.8434   -4.4785  -12.3990 O   0  0  0  0  0  0  0  0  0  0  0  0
   22.7066   -5.8083  -14.0115 O   0  0  0  0  0  0  0  0  0  0  0  0
  1  2  1  0
  2  3  1  0
  3  4  1  6
  5  6  2  0
  5  3  1  0
  7  8  1  0
  9  8  1  6
  9 10  1  0
 10  5  1  0
 11 13  1  0
 11  9  1  0
 12 11  2  0
 14 25  1  0
 14 13  1  0
 15 16  1  0
 14 15  1  1
 16 17  2  0
 16 24  1  0
 17 18  1  0
 18 19  1  0
 19 20  2  0
 20 21  1  0
 22 21  2  0
 23 22  1  0
 24 23  2  0
 24 19  1  0
 25 26  1  0
 27 25  2  0
M  END
$$$$
