SSW.pdb
     RDKit          3D

 27 28  0  0  1  0  0  0  0  0999 V2000
   22.0329  -24.7989  -15.1894 O   0  0  0  0  0  0  0  0  0  0  0  0
   22.7876  -23.7535  -14.6118 C   0  0  0  0  0  0  0  0  0  0  0  0
   24.1483  -23.6904  -15.3084 C   0  0  2  0  0  0  0  0  0  0  0  0
   24.6997  -25.0053  -15.4748 N   0  0  0  0  0  0  0  0  0  0  0  0
   25.0370  -22.9008  -14.4259 C   0  0  0  0  0  0  0  0  0  0  0  0
   25.9238  -23.5092  -13.7413 O   0  0  0  0  0  0  0  0  0  0  0  0
   24.8111  -18.7197  -13.8806 O   0  0  0  0  0  0  0  0  0  0  0  0
   26.0608  -19.3332  -13.8869 C   0  0  0  0  0  0  0  0  0  0  0  0
   25.9607  -20.7832  -13.4914 C   0  0  2  0  0  0  0  0  0  0  0  0
   24.9868  -21.5040  -14.2731 N   0  0  0  0  0  0  0  0  0  0  0  0
   25.6521  -20.9690  -12.0623 C   0  0  0  0  0  0  0  0  0  0  0  0
   24.4707  -21.2403  -11.7465 O   0  0  0  0  0  0  0  0  0  0  0  0
   26.6131  -20.8587  -11.0324 N   0  0  0  0  0  0  0  0  0  0  0  0
   26.1973  -20.9615   -9.6295 C   0  0  1  0  0  0  0  0  0  0  0  0
   27.4564  -20.7827   -8.7974 C   0  0  0  0  0  0  0  0  0  0  0  0
   27.0821  -20.5117   -7.4147 C   0  0  0  0  0  0  0  0  0  0  0  0
   25.8439  -20.8137   -6.8274 C   0  0  0  0  0  0  0  0  0  0  0  0
   25.8962  -20.4667   -5.5548 N   0  0  0  0  0  0  0  0  0  0  0  0
   27.0897  -19.9475   -5.2394 C   0  0  0  0  0  0  0  0  0  0  0  0
   27.6058  -19.4402   -4.0494 C   0  0  0  0  0  0  0  0  0  0  0  0
   28.8842  -18.9390   -3.9786 C   0  0  0  0  0  0  0  0  0  0  0  0
   29.6395  -18.9567   -5.1332 C   0  0  0  0  0  0  0  0  0  0  0  0
   29.1124  -19.4662   -6.3137 C   0  0  0  0  0  0  0  0  0  0  0  0
   27.8367  -19.9756   -6.4127 C   0  0  0  0  0  0  0  0  0  0  0  0
   25.1003  -20.0652   -9.3363 C   0  0  0  0  0  0  0  0  0  0  0  0
   23.9858  -20.4185   -8.5989 O   0  0  0  0  0  0  0  0  0  0  0  0
   25.1462  -18.8784   -9.7801 O   0  0  0  0  0  0  0  0  0  0  0  0
  1  2  1  0
  2  3  1  0
  3  4  1  1
  5  6  2  0
  5  3  1  0
  7  8  1  0
  9  8  1  6
  9 10  1  0
 10  5  1  0
 11 13  1  0
 11  9  1  0
 12 11  2  0
 14 25  1  0
 14 13  1  0
 15 16  1  0
 14 15  1  1
 16 17  2  0
 16 24  1  0
 17 18  1  0
 18 19  1  0
 19 20  2  0
 20 21  1  0
 22 21  2  0
 23 22  1  0
 24 23  2  0
 24 19  1  0
 25 26  1  0
 27 25  2  0
M  END
$$$$
