SSW.pdb
     RDKit          3D

 27 28  0  0  1  0  0  0  0  0999 V2000
   26.4060  -22.7281  -18.0632 O   0  0  0  0  0  0  0  0  0  0  0  0
   27.2595  -21.7804  -18.6710 C   0  0  0  0  0  0  0  0  0  0  0  0
   28.6291  -21.8503  -17.9927 C   0  0  2  0  0  0  0  0  0  0  0  0
   29.1518  -23.1867  -18.0313 N   0  0  0  0  0  0  0  0  0  0  0  0
   28.4212  -21.4522  -16.5820 C   0  0  0  0  0  0  0  0  0  0  0  0
   28.7052  -22.2844  -15.6589 O   0  0  0  0  0  0  0  0  0  0  0  0
   26.8102  -17.7565  -15.2925 O   0  0  0  0  0  0  0  0  0  0  0  0
   27.8911  -18.3068  -14.6091 C   0  0  0  0  0  0  0  0  0  0  0  0
   27.9401  -19.8030  -14.7766 C   0  0  2  0  0  0  0  0  0  0  0  0
   27.9254  -20.2057  -16.1611 N   0  0  0  0  0  0  0  0  0  0  0  0
   26.8480  -20.4963  -14.0703 C   0  0  0  0  0  0  0  0  0  0  0  0
   25.8229  -20.7973  -14.7243 O   0  0  0  0  0  0  0  0  0  0  0  0
   26.8943  -20.8393  -12.7004 N   0  0  0  0  0  0  0  0  0  0  0  0
   25.7247  -21.4495  -12.0591 C   0  0  1  0  0  0  0  0  0  0  0  0
   26.2282  -22.0919  -10.7770 C   0  0  0  0  0  0  0  0  0  0  0  0
   26.3481  -21.0699   -9.7444 C   0  0  0  0  0  0  0  0  0  0  0  0
   25.3710  -20.1170   -9.4181 C   0  0  0  0  0  0  0  0  0  0  0  0
   25.8185  -19.3986   -8.4051 N   0  0  0  0  0  0  0  0  0  0  0  0
   27.0371  -19.8011   -8.0222 C   0  0  0  0  0  0  0  0  0  0  0  0
   27.9022  -19.3526   -7.0271 C   0  0  0  0  0  0  0  0  0  0  0  0
   29.1340  -19.9320   -6.8337 C   0  0  0  0  0  0  0  0  0  0  0  0
   29.4831  -20.9771   -7.6642 C   0  0  0  0  0  0  0  0  0  0  0  0
   28.6102  -21.4151   -8.6528 C   0  0  0  0  0  0  0  0  0  0  0  0
   27.3707  -20.8544   -8.8675 C   0  0  0  0  0  0  0  0  0  0  0  0
   24.6425  -20.4998  -11.9201 C   0  0  0  0  0  0  0  0  0  0  0  0
   23.3054  -20.8481  -11.8777 O   0  0  0  0  0  0  0  0  0  0  0  0
   24.9202  -19.2656  -11.8352 O   0  0  0  0  0  0  0  0  0  0  0  0
  1  2  1  0
  2  3  1  0
  3  4  1  1
  5  6  2  0
  5  3  1  0
  7  8  1  0
  9  8  1  6
  9 10  1  0
 10  5  1  0
 11 13  1  0
 11  9  1  0
 12 11  2  0
 14 25  1  0
 14 13  1  0
 15 16  1  0
 14 15  1  1
 16 17  2  0
 16 24  1  0
 17 18  1  0
 18 19  1  0
 19 20  2  0
 20 21  1  0
 22 21  2  0
 23 22  1  0
 24 23  2  0
 24 19  1  0
 25 26  1  0
 27 25  2  0
M  END
$$$$
