SSW.pdb
     RDKit          3D

 27 28  0  0  1  0  0  0  0  0999 V2000
   28.6745  -22.0803  -15.1237 O   0  0  0  0  0  0  0  0  0  0  0  0
   27.4705  -21.7812  -15.7998 C   0  0  0  0  0  0  0  0  0  0  0  0
   27.2479  -20.2682  -15.7552 C   0  0  2  0  0  0  0  0  0  0  0  0
   28.4742  -19.5629  -15.9993 N   0  0  0  0  0  0  0  0  0  0  0  0
   26.7715  -19.9527  -14.3894 C   0  0  0  0  0  0  0  0  0  0  0  0
   27.5909  -19.4500  -13.5520 O   0  0  0  0  0  0  0  0  0  0  0  0
   23.0278  -21.0617  -12.7544 O   0  0  0  0  0  0  0  0  0  0  0  0
   23.5578  -19.8193  -12.4169 C   0  0  0  0  0  0  0  0  0  0  0  0
   25.0539  -19.7970  -12.5904 C   0  0  2  0  0  0  0  0  0  0  0  0
   25.4619  -20.1646  -13.9237 N   0  0  0  0  0  0  0  0  0  0  0  0
   25.7572  -20.6606  -11.6251 C   0  0  0  0  0  0  0  0  0  0  0  0
   26.1290  -21.7927  -12.0114 O   0  0  0  0  0  0  0  0  0  0  0  0
   26.0346  -20.2822  -10.2924 N   0  0  0  0  0  0  0  0  0  0  0  0
   26.2261  -21.3109   -9.2645 C   0  0  1  0  0  0  0  0  0  0  0  0
   27.6319  -21.1145   -8.7214 C   0  0  0  0  0  0  0  0  0  0  0  0
   27.6084  -20.0797   -7.6948 C   0  0  0  0  0  0  0  0  0  0  0  0
   26.8335  -18.9102   -7.7285 C   0  0  0  0  0  0  0  0  0  0  0  0
   27.0412  -18.2461   -6.6067 N   0  0  0  0  0  0  0  0  0  0  0  0
   27.9079  -18.8882   -5.8130 C   0  0  0  0  0  0  0  0  0  0  0  0
   28.4353  -18.5823   -4.5608 C   0  0  0  0  0  0  0  0  0  0  0  0
   29.3406  -19.4120   -3.9422 C   0  0  0  0  0  0  0  0  0  0  0  0
   29.7090  -20.5621   -4.6096 C   0  0  0  0  0  0  0  0  0  0  0  0
   29.1747  -20.8556   -5.8584 C   0  0  0  0  0  0  0  0  0  0  0  0
   28.2656  -20.0438   -6.4999 C   0  0  0  0  0  0  0  0  0  0  0  0
   25.1538  -21.2941   -8.2936 C   0  0  0  0  0  0  0  0  0  0  0  0
   24.0843  -20.4193   -8.3340 O   0  0  0  0  0  0  0  0  0  0  0  0
   25.1839  -22.1249   -7.3363 O   0  0  0  0  0  0  0  0  0  0  0  0
  1  2  1  0
  2  3  1  0
  3  4  1  1
  5  6  2  0
  5  3  1  0
  7  8  1  0
  9  8  1  6
  9 10  1  0
 10  5  1  0
 11 13  1  0
 11  9  1  0
 12 11  2  0
 14 25  1  0
 14 13  1  0
 15 16  1  0
 14 15  1  1
 16 17  2  0
 16 24  1  0
 17 18  1  0
 18 19  1  0
 19 20  2  0
 20 21  1  0
 22 21  2  0
 23 22  1  0
 24 23  2  0
 24 19  1  0
 25 26  1  0
 27 25  2  0
M  END
$$$$
