SSW.pdb
     RDKit          3D

 27 28  0  0  1  0  0  0  0  0999 V2000
   28.8711  -23.2547  -17.9479 O   0  0  0  0  0  0  0  0  0  0  0  0
   29.5339  -22.2611  -18.7025 C   0  0  0  0  0  0  0  0  0  0  0  0
   28.8218  -20.9248  -18.4834 C   0  0  2  0  0  0  0  0  0  0  0  0
   29.4087  -19.8935  -19.2913 N   0  0  0  0  0  0  0  0  0  0  0  0
   29.0010  -20.5814  -17.0545 C   0  0  0  0  0  0  0  0  0  0  0  0
   30.0540  -19.9572  -16.6985 O   0  0  0  0  0  0  0  0  0  0  0  0
   27.1190  -17.8073  -14.2959 O   0  0  0  0  0  0  0  0  0  0  0  0
   27.5100  -18.6014  -15.3705 C   0  0  0  0  0  0  0  0  0  0  0  0
   27.8472  -19.9998  -14.9235 C   0  0  2  0  0  0  0  0  0  0  0  0
   28.0888  -20.8916  -16.0306 N   0  0  0  0  0  0  0  0  0  0  0  0
   26.8124  -20.5911  -14.0565 C   0  0  0  0  0  0  0  0  0  0  0  0
   25.6946  -20.8425  -14.5628 O   0  0  0  0  0  0  0  0  0  0  0  0
   27.0120  -20.8894  -12.6898 N   0  0  0  0  0  0  0  0  0  0  0  0
   25.9408  -21.5258  -11.9159 C   0  0  1  0  0  0  0  0  0  0  0  0
   26.5967  -22.0964  -10.6693 C   0  0  0  0  0  0  0  0  0  0  0  0
   26.6726  -21.0572   -9.6497 C   0  0  0  0  0  0  0  0  0  0  0  0
   25.6778  -20.1067   -9.3738 C   0  0  0  0  0  0  0  0  0  0  0  0
   26.0839  -19.3688   -8.3573 N   0  0  0  0  0  0  0  0  0  0  0  0
   27.2909  -19.7558   -7.9251 C   0  0  0  0  0  0  0  0  0  0  0  0
   28.1169  -19.2849   -6.9073 C   0  0  0  0  0  0  0  0  0  0  0  0
   29.3451  -19.8518   -6.6610 C   0  0  0  0  0  0  0  0  0  0  0  0
   29.7309  -20.9073   -7.4615 C   0  0  0  0  0  0  0  0  0  0  0  0
   28.8968  -21.3676   -8.4732 C   0  0  0  0  0  0  0  0  0  0  0  0
   27.6617  -20.8199   -8.7407 C   0  0  0  0  0  0  0  0  0  0  0  0
   24.8332  -20.6202  -11.7022 C   0  0  0  0  0  0  0  0  0  0  0  0
   23.5298  -21.0262  -11.4853 O   0  0  0  0  0  0  0  0  0  0  0  0
   25.0539  -19.3717  -11.7162 O   0  0  0  0  0  0  0  0  0  0  0  0
  1  2  1  0
  2  3  1  0
  3  4  1  6
  5  6  2  0
  5  3  1  0
  7  8  1  0
  9  8  1  6
  9 10  1  0
 10  5  1  0
 11 13  1  0
 11  9  1  0
 12 11  2  0
 14 25  1  0
 14 13  1  0
 15 16  1  0
 14 15  1  1
 16 17  2  0
 16 24  1  0
 17 18  1  0
 18 19  1  0
 19 20  2  0
 20 21  1  0
 22 21  2  0
 23 22  1  0
 24 23  2  0
 24 19  1  0
 25 26  1  0
 27 25  2  0
M  END
$$$$
