SSW.pdb
     RDKit          3D

 27 28  0  0  1  0  0  0  0  0999 V2000
   27.7414  -19.4862  -14.8735 O   0  0  0  0  0  0  0  0  0  0  0  0
   26.9229  -19.7663  -15.9905 C   0  0  0  0  0  0  0  0  0  0  0  0
   25.7003  -18.8478  -15.9430 C   0  0  2  0  0  0  0  0  0  0  0  0
   26.0699  -17.4887  -16.2202 N   0  0  0  0  0  0  0  0  0  0  0  0
   25.1633  -18.9324  -14.5659 C   0  0  0  0  0  0  0  0  0  0  0  0
   25.4626  -18.0167  -13.7309 O   0  0  0  0  0  0  0  0  0  0  0  0
   22.7022  -22.0704  -12.9136 O   0  0  0  0  0  0  0  0  0  0  0  0
   22.4755  -20.7178  -12.6744 C   0  0  0  0  0  0  0  0  0  0  0  0
   23.7523  -19.9241  -12.7669 C   0  0  2  0  0  0  0  0  0  0  0  0
   24.3318  -19.9599  -14.0868 N   0  0  0  0  0  0  0  0  0  0  0  0
   24.7693  -20.3561  -11.7916 C   0  0  0  0  0  0  0  0  0  0  0  0
   25.8215  -20.8752  -12.2304 O   0  0  0  0  0  0  0  0  0  0  0  0
   24.6230  -20.2166  -10.3932 N   0  0  0  0  0  0  0  0  0  0  0  0
   25.6408  -20.7681   -9.4924 C   0  0  1  0  0  0  0  0  0  0  0  0
   26.7215  -19.7066   -9.3693 C   0  0  0  0  0  0  0  0  0  0  0  0
   27.7878  -20.2063   -8.5100 C   0  0  0  0  0  0  0  0  0  0  0  0
   28.7396  -21.1745   -8.8650 C   0  0  0  0  0  0  0  0  0  0  0  0
   29.5674  -21.3302   -7.8485 N   0  0  0  0  0  0  0  0  0  0  0  0
   29.2392  -20.5311   -6.8252 C   0  0  0  0  0  0  0  0  0  0  0  0
   29.7961  -20.3506   -5.5615 C   0  0  0  0  0  0  0  0  0  0  0  0
   29.2586  -19.4607   -4.6617 C   0  0  0  0  0  0  0  0  0  0  0  0
   28.1435  -18.7509   -5.0576 C   0  0  0  0  0  0  0  0  0  0  0  0
   27.5981  -18.9403   -6.3216 C   0  0  0  0  0  0  0  0  0  0  0  0
   28.1167  -19.8232   -7.2427 C   0  0  0  0  0  0  0  0  0  0  0  0
   25.0546  -21.2350   -8.2551 C   0  0  0  0  0  0  0  0  0  0  0  0
   25.5178  -22.3230   -7.5392 O   0  0  0  0  0  0  0  0  0  0  0  0
   24.0489  -20.6215   -7.7862 O   0  0  0  0  0  0  0  0  0  0  0  0
  1  2  1  0
  2  3  1  0
  3  4  1  1
  5  6  2  0
  5  3  1  0
  7  8  1  0
  9  8  1  6
  9 10  1  0
 10  5  1  0
 11 13  1  0
 11  9  1  0
 12 11  2  0
 14 25  1  0
 14 13  1  0
 15 16  1  0
 14 15  1  1
 16 17  2  0
 16 24  1  0
 17 18  1  0
 18 19  1  0
 19 20  2  0
 20 21  1  0
 22 21  2  0
 23 22  1  0
 24 23  2  0
 24 19  1  0
 25 26  1  0
 27 25  2  0
M  END
$$$$
