SSW.pdb
     RDKit          3D

 27 28  0  0  1  0  0  0  0  0999 V2000
   25.2016  -14.8133  -14.7735 O   0  0  0  0  0  0  0  0  0  0  0  0
   25.8446  -14.4849  -15.9879 C   0  0  0  0  0  0  0  0  0  0  0  0
   24.9797  -14.9808  -17.1485 C   0  0  2  0  0  0  0  0  0  0  0  0
   23.6352  -14.4919  -17.0302 N   0  0  0  0  0  0  0  0  0  0  0  0
   24.9669  -16.4587  -17.0626 C   0  0  0  0  0  0  0  0  0  0  0  0
   23.9273  -17.0402  -16.6080 O   0  0  0  0  0  0  0  0  0  0  0  0
   28.1843  -19.1542  -18.0570 O   0  0  0  0  0  0  0  0  0  0  0  0
   26.8577  -19.3993  -18.4010 C   0  0  0  0  0  0  0  0  0  0  0  0
   25.9104  -18.7348  -17.4367 C   0  0  2  0  0  0  0  0  0  0  0  0
   26.0273  -17.2976  -17.4478 N   0  0  0  0  0  0  0  0  0  0  0  0
   26.0719  -19.2121  -16.0517 C   0  0  0  0  0  0  0  0  0  0  0  0
   26.7375  -18.5052  -15.2601 O   0  0  0  0  0  0  0  0  0  0  0  0
   25.5183  -20.4193  -15.5694 N   0  0  0  0  0  0  0  0  0  0  0  0
   25.7232  -20.8108  -14.1707 C   0  0  1  0  0  0  0  0  0  0  0  0
   25.1129  -19.7055  -13.3247 C   0  0  0  0  0  0  0  0  0  0  0  0
   25.1623  -20.0946  -11.9206 C   0  0  0  0  0  0  0  0  0  0  0  0
   26.3270  -20.2384  -11.1513 C   0  0  0  0  0  0  0  0  0  0  0  0
   25.9707  -20.5520   -9.9195 N   0  0  0  0  0  0  0  0  0  0  0  0
   24.6390  -20.6316   -9.8021 C   0  0  0  0  0  0  0  0  0  0  0  0
   23.8099  -20.9363   -8.7252 C   0  0  0  0  0  0  0  0  0  0  0  0
   22.4421  -20.9687   -8.8605 C   0  0  0  0  0  0  0  0  0  0  0  0
   21.9190  -20.6879  -10.1061 C   0  0  0  0  0  0  0  0  0  0  0  0
   22.7575  -20.3849  -11.1719 C   0  0  0  0  0  0  0  0  0  0  0  0
   24.1299  -20.3437  -11.0643 C   0  0  0  0  0  0  0  0  0  0  0  0
   25.2414  -22.1518  -13.9212 C   0  0  0  0  0  0  0  0  0  0  0  0
   24.0734  -22.6675  -14.4508 O   0  0  0  0  0  0  0  0  0  0  0  0
   25.9190  -22.9137  -13.1675 O   0  0  0  0  0  0  0  0  0  0  0  0
  1  2  1  0
  2  3  1  0
  3  4  1  1
  5  6  2  0
  5  3  1  0
  7  8  1  0
  9  8  1  6
  9 10  1  0
 10  5  1  0
 11 13  1  0
 11  9  1  0
 12 11  2  0
 14 25  1  0
 14 13  1  0
 15 16  1  0
 14 15  1  1
 16 17  2  0
 16 24  1  0
 17 18  1  0
 18 19  1  0
 19 20  2  0
 20 21  1  0
 22 21  2  0
 23 22  1  0
 24 23  2  0
 24 19  1  0
 25 26  1  0
 27 25  2  0
M  END
$$$$
