HCG.pdb
     RDKit          3D

 21 21  0  0  1  0  0  0  0  0999 V2000
   19.4307  -10.3980  -18.5355 N   0  0  0  0  0  0  0  0  0  0  0  0
   20.5328   -9.4821  -18.3573 C   0  0  1  0  0  0  0  0  0  0  0  0
   20.4901   -8.4892  -19.5177 C   0  0  0  0  0  0  0  0  0  0  0  0
   20.8914   -9.2355  -20.7335 C   0  0  0  0  0  0  0  0  0  0  0  0
   20.2184   -9.2836  -21.9214 C   0  0  0  0  0  0  0  0  0  0  0  0
   20.9265  -10.0714  -22.7533 N   0  0  0  0  0  0  0  0  0  0  0  0
   22.0100  -10.5000  -22.0974 C   0  0  0  0  0  0  0  0  0  0  0  0
   21.9943   -9.9878  -20.8507 N   0  0  0  0  0  0  0  0  0  0  0  0
   20.3517   -8.7481  -17.0847 C   0  0  0  0  0  0  0  0  0  0  0  0
   19.1750   -8.4935  -16.6953 O   0  0  0  0  0  0  0  0  0  0  0  0
   21.4571   -8.3228  -16.2911 N   0  0  0  0  0  0  0  0  0  0  0  0
   21.1838   -7.5641  -15.1017 C   0  0  1  0  0  0  0  0  0  0  0  0
   21.7820   -8.3204  -13.9075 C   0  0  0  0  0  0  0  0  0  0  0  0
   21.5669   -7.3438  -12.3845 S   0  0  0  0  0  0  0  0  0  0  0  0
   21.7998   -6.2015  -15.1662 C   0  0  0  0  0  0  0  0  0  0  0  0
   23.0317   -6.1615  -15.4071 O   0  0  0  0  0  0  0  0  0  0  0  0
   21.0734   -5.0054  -14.9733 N   0  0  0  0  0  0  0  0  0  0  0  0
   21.7412   -3.7379  -15.1326 C   0  0  0  0  0  0  0  0  0  0  0  0
   20.8092   -2.6278  -14.8368 C   0  0  0  0  0  0  0  0  0  0  0  0
   19.5953   -2.8777  -14.6932 O   0  0  0  0  0  0  0  0  0  0  0  0
   21.2639   -1.3267  -14.7187 O   0  0  0  0  0  0  0  0  0  0  0  0
  2  3  1  0
  2  1  1  6
  3  4  1  0
  4  5  2  0
  5  6  1  0
  7  6  1  0
  8  4  1  0
  8  7  2  0
  9  2  1  0
 10  9  2  0
 11  9  1  0
 12 13  1  1
 12 11  1  0
 13 14  1  0
 15 17  1  0
 15 12  1  0
 16 15  2  0
 18 17  1  0
 19 18  1  0
 20 19  2  0
 21 19  1  0
M  END
$$$$
