HCG.pdb
     RDKit          3D

 21 21  0  0  1  0  0  0  0  0999 V2000
-99163.5156-27422.7695-5752.3716 N   0  0  0  0  0  0  0  0  0  0  0  0
-99163.2500-27423.7012-5751.3086 C   0  0  1  0  0  0  0  0  0  0  0  0
-99164.5312-27424.4375-5750.9648 C   0  0  0  0  0  0  0  0  0  0  0  0
-99164.8438-27424.1934-5749.5366 C   0  0  0  0  0  0  0  0  0  0  0  0
-99165.7578-27424.7695-5748.7891 C   0  0  0  0  0  0  0  0  0  0  0  0
-99165.6953-27424.2168-5747.5308 N   0  0  0  0  0  0  0  0  0  0  0  0
-99164.7266-27423.3281-5747.5532 C   0  0  0  0  0  0  0  0  0  0  0  0
-99164.1797-27423.2500-5748.7607 N   0  0  0  0  0  0  0  0  0  0  0  0
-99162.2656-27424.7188-5751.8159 C   0  0  0  0  0  0  0  0  0  0  0  0
-99162.6172-27425.4844-5752.7427 O   0  0  0  0  0  0  0  0  0  0  0  0
-99160.9844-27424.8242-5751.2734 N   0  0  0  0  0  0  0  0  0  0  0  0
-99160.0859-27425.8633-5751.7754 C   0  0  1  0  0  0  0  0  0  0  0  0
-99160.7891-27427.2031-5751.5029 C   0  0  0  0  0  0  0  0  0  0  0  0
-99159.6719-27428.5723-5751.8560 S   0  0  0  0  0  0  0  0  0  0  0  0
-99159.8672-27425.7402-5753.2432 C   0  0  0  0  0  0  0  0  0  0  0  0
-99160.6562-27426.4277-5753.9741 O   0  0  0  0  0  0  0  0  0  0  0  0
-99158.9062-27424.9102-5753.8096 N   0  0  0  0  0  0  0  0  0  0  0  0
-99157.4922-27425.0781-5753.4668 C   0  0  0  0  0  0  0  0  0  0  0  0
-99157.2188-27424.2930-5752.2417 C   0  0  0  0  0  0  0  0  0  0  0  0
-99158.1562-27423.8457-5751.5811 O   0  0  0  0  0  0  0  0  0  0  0  0
-99155.8750-27424.0566-5751.8350 O   0  0  0  0  0  0  0  0  0  0  0  0
  2  3  1  0
  2  1  1  6
  3  4  1  0
  4  5  2  0
  5  6  1  0
  7  6  1  0
  8  4  1  0
  8  7  2  0
  9  2  1  0
 10  9  2  0
 11  9  1  0
 12 13  1  6
 12 11  1  0
 13 14  1  0
 15 17  1  0
 15 12  1  0
 16 15  2  0
 18 17  1  0
 19 18  1  0
 20 19  2  0
 21 19  1  0
M  END
$$$$
