HCG.pdb
     RDKit          3D

 21 21  0  0  1  0  0  0  0  0999 V2000
   20.2850  -10.8738  -16.1563 N   0  0  0  0  0  0  0  0  0  0  0  0
   21.2520  -10.1621  -15.3539 C   0  0  1  0  0  0  0  0  0  0  0  0
   22.4263   -9.8092  -16.2652 C   0  0  0  0  0  0  0  0  0  0  0  0
   23.1339  -11.0774  -16.5607 C   0  0  0  0  0  0  0  0  0  0  0  0
   23.3481  -11.6249  -17.7939 C   0  0  0  0  0  0  0  0  0  0  0  0
   24.0264  -12.7741  -17.6116 N   0  0  0  0  0  0  0  0  0  0  0  0
   24.2271  -12.9341  -16.2994 C   0  0  0  0  0  0  0  0  0  0  0  0
   23.6789  -11.8907  -15.6454 N   0  0  0  0  0  0  0  0  0  0  0  0
   20.6377   -8.9133  -14.8498 C   0  0  0  0  0  0  0  0  0  0  0  0
   19.7479   -8.3505  -15.5517 O   0  0  0  0  0  0  0  0  0  0  0  0
   21.0172   -8.3307  -13.6051 N   0  0  0  0  0  0  0  0  0  0  0  0
   20.2929   -7.1761  -13.1498 C   0  0  1  0  0  0  0  0  0  0  0  0
   19.8719   -7.4226  -11.6945 C   0  0  0  0  0  0  0  0  0  0  0  0
   18.7332   -8.8425  -11.6106 S   0  0  0  0  0  0  0  0  0  0  0  0
   21.1376   -5.9416  -13.2043 C   0  0  0  0  0  0  0  0  0  0  0  0
   22.3503   -6.0870  -12.9121 O   0  0  0  0  0  0  0  0  0  0  0  0
   20.6389   -4.6684  -13.5588 N   0  0  0  0  0  0  0  0  0  0  0  0
   21.5549   -3.5652  -13.7065 C   0  0  0  0  0  0  0  0  0  0  0  0
   21.3910   -2.9386  -15.0365 C   0  0  0  0  0  0  0  0  0  0  0  0
   20.6234   -3.4681  -15.8653 O   0  0  0  0  0  0  0  0  0  0  0  0
   22.0731   -1.7820  -15.3693 O   0  0  0  0  0  0  0  0  0  0  0  0
  2  3  1  0
  2  1  1  6
  3  4  1  0
  4  5  2  0
  5  6  1  0
  7  6  1  0
  8  4  1  0
  8  7  2  0
  9  2  1  0
 10  9  2  0
 11  9  1  0
 12 13  1  1
 12 11  1  0
 13 14  1  0
 15 17  1  0
 15 12  1  0
 16 15  2  0
 18 17  1  0
 19 18  1  0
 20 19  2  0
 21 19  1  0
M  END
$$$$
