HCG.pdb
     RDKit          3D

 21 21  0  0  1  0  0  0  0  0999 V2000
   18.4752  -11.0627  -16.1420 N   0  0  0  0  0  0  0  0  0  0  0  0
   19.3626  -10.1493  -16.8226 C   0  0  1  0  0  0  0  0  0  0  0  0
   18.7010   -9.7766  -18.1483 C   0  0  0  0  0  0  0  0  0  0  0  0
   18.9329  -10.9096  -19.0749 C   0  0  0  0  0  0  0  0  0  0  0  0
   19.6852  -10.8912  -20.2152 C   0  0  0  0  0  0  0  0  0  0  0  0
   19.6299  -12.1246  -20.7535 N   0  0  0  0  0  0  0  0  0  0  0  0
   18.8632  -12.8870  -19.9670 C   0  0  0  0  0  0  0  0  0  0  0  0
   18.4301  -12.1434  -18.9296 N   0  0  0  0  0  0  0  0  0  0  0  0
   19.5237   -8.9283  -16.0015 C   0  0  0  0  0  0  0  0  0  0  0  0
   18.5695   -8.5748  -15.2494 O   0  0  0  0  0  0  0  0  0  0  0  0
   20.7145   -8.1449  -16.0336 N   0  0  0  0  0  0  0  0  0  0  0  0
   20.8017   -7.0103  -15.1560 C   0  0  1  0  0  0  0  0  0  0  0  0
   22.1078   -7.1259  -14.3581 C   0  0  0  0  0  0  0  0  0  0  0  0
   22.3617   -5.6208  -13.3632 S   0  0  0  0  0  0  0  0  0  0  0  0
   20.8173   -5.7242  -15.9216 C   0  0  0  0  0  0  0  0  0  0  0  0
   21.6002   -5.6728  -16.9022 O   0  0  0  0  0  0  0  0  0  0  0  0
   20.0140   -4.6095  -15.5934 N   0  0  0  0  0  0  0  0  0  0  0  0
   20.1455   -3.3930  -16.3556 C   0  0  0  0  0  0  0  0  0  0  0  0
   21.0801   -2.4655  -15.6813 C   0  0  0  0  0  0  0  0  0  0  0  0
   21.6382   -2.8283  -14.6262 O   0  0  0  0  0  0  0  0  0  0  0  0
   21.3403   -1.2108  -16.2027 O   0  0  0  0  0  0  0  0  0  0  0  0
  2  3  1  0
  2  1  1  1
  3  4  1  0
  4  5  2  0
  5  6  1  0
  7  6  1  0
  8  4  1  0
  8  7  2  0
  9  2  1  0
 10  9  2  0
 11  9  1  0
 12 13  1  6
 12 11  1  0
 13 14  1  0
 15 17  1  0
 15 12  1  0
 16 15  2  0
 18 17  1  0
 19 18  1  0
 20 19  2  0
 21 19  1  0
M  END
$$$$
