HCG.pdb
     RDKit          3D

 21 21  0  0  1  0  0  0  0  0999 V2000
   18.0372  -10.7144  -15.0879 N   0  0  0  0  0  0  0  0  0  0  0  0
   18.4328   -9.4594  -15.6825 C   0  0  1  0  0  0  0  0  0  0  0  0
   17.1766   -8.5983  -15.8035 C   0  0  0  0  0  0  0  0  0  0  0  0
   16.3690   -9.1733  -16.9050 C   0  0  0  0  0  0  0  0  0  0  0  0
   16.8415   -9.8115  -18.0168 C   0  0  0  0  0  0  0  0  0  0  0  0
   15.7755  -10.1738  -18.7560 N   0  0  0  0  0  0  0  0  0  0  0  0
   14.6715   -9.7706  -18.1185 C   0  0  0  0  0  0  0  0  0  0  0  0
   15.0309   -9.1526  -16.9757 N   0  0  0  0  0  0  0  0  0  0  0  0
   19.3994   -8.7831  -14.7883 C   0  0  0  0  0  0  0  0  0  0  0  0
   19.1725   -8.7807  -13.5434 O   0  0  0  0  0  0  0  0  0  0  0  0
   20.5700   -8.1392  -15.2859 N   0  0  0  0  0  0  0  0  0  0  0  0
   21.4348   -7.4848  -14.3430 C   0  0  1  0  0  0  0  0  0  0  0  0
   22.6923   -8.3482  -14.1727 C   0  0  0  0  0  0  0  0  0  0  0  0
   22.3541  -10.0516  -14.7237 S   0  0  0  0  0  0  0  0  0  0  0  0
   21.8438   -6.1276  -14.8235 C   0  0  0  0  0  0  0  0  0  0  0  0
   21.7214   -5.9161  -16.0554 O   0  0  0  0  0  0  0  0  0  0  0  0
   22.3433   -5.1154  -13.9741 N   0  0  0  0  0  0  0  0  0  0  0  0
   22.6900   -3.8315  -14.5304 C   0  0  0  0  0  0  0  0  0  0  0  0
   21.5090   -2.9407  -14.5360 C   0  0  0  0  0  0  0  0  0  0  0  0
   20.4058   -3.3946  -14.1708 O   0  0  0  0  0  0  0  0  0  0  0  0
   21.6125   -1.6212  -14.9382 O   0  0  0  0  0  0  0  0  0  0  0  0
  2  3  1  0
  2  1  1  1
  3  4  1  0
  4  5  2  0
  5  6  1  0
  7  6  1  0
  8  4  1  0
  8  7  2  0
  9  2  1  0
 10  9  2  0
 11  9  1  0
 12 13  1  6
 12 11  1  0
 13 14  1  0
 15 17  1  0
 15 12  1  0
 16 15  2  0
 18 17  1  0
 19 18  1  0
 20 19  2  0
 21 19  1  0
M  END
$$$$
