HCG.pdb
     RDKit          3D

 21 21  0  0  1  0  0  0  0  0999 V2000
   26.3506  -21.3165  -13.0932 N   0  0  0  0  0  0  0  0  0  0  0  0
   25.3750  -20.5262  -12.3799 C   0  0  1  0  0  0  0  0  0  0  0  0
   24.0208  -20.7688  -13.0444 C   0  0  0  0  0  0  0  0  0  0  0  0
   24.0408  -20.0388  -14.3339 C   0  0  0  0  0  0  0  0  0  0  0  0
   23.9696  -18.6855  -14.5073 C   0  0  0  0  0  0  0  0  0  0  0  0
   24.0203  -18.4465  -15.8318 N   0  0  0  0  0  0  0  0  0  0  0  0
   24.1202  -19.6214  -16.4623 C   0  0  0  0  0  0  0  0  0  0  0  0
   24.1334  -20.6078  -15.5438 N   0  0  0  0  0  0  0  0  0  0  0  0
   25.3139  -20.9855  -10.9741 C   0  0  0  0  0  0  0  0  0  0  0  0
   25.0758  -22.2072  -10.7465 O   0  0  0  0  0  0  0  0  0  0  0  0
   25.5143  -20.0971   -9.8771 N   0  0  0  0  0  0  0  0  0  0  0  0
   25.4035  -20.6291   -8.5467 C   0  0  1  0  0  0  0  0  0  0  0  0
   26.1811  -19.7054   -7.5992 C   0  0  0  0  0  0  0  0  0  0  0  0
   27.9643  -19.8071   -7.9592 S   0  0  0  0  0  0  0  0  0  0  0  0
   23.9772  -20.6900   -8.0970 C   0  0  0  0  0  0  0  0  0  0  0  0
   23.1638  -19.9788   -8.7372 O   0  0  0  0  0  0  0  0  0  0  0  0
   23.5306  -21.4877   -7.0201 N   0  0  0  0  0  0  0  0  0  0  0  0
   22.1376  -21.4623   -6.6502 C   0  0  0  0  0  0  0  0  0  0  0  0
   21.5549  -22.8178   -6.7577 C   0  0  0  0  0  0  0  0  0  0  0  0
   22.2569  -23.7450   -7.2094 O   0  0  0  0  0  0  0  0  0  0  0  0
   20.2517  -23.0673   -6.3666 O   0  0  0  0  0  0  0  0  0  0  0  0
  2  3  1  0
  2  1  1  6
  3  4  1  0
  4  5  2  0
  5  6  1  0
  7  6  1  0
  8  4  1  0
  8  7  2  0
  9  2  1  0
 10  9  2  0
 11  9  1  0
 12 13  1  1
 12 11  1  0
 13 14  1  0
 15 17  1  0
 15 12  1  0
 16 15  2  0
 18 17  1  0
 19 18  1  0
 20 19  2  0
 21 19  1  0
M  END
$$$$
