HCG.pdb
     RDKit          3D

 21 21  0  0  1  0  0  0  0  0999 V2000
   23.0728  -13.4897  -18.4803 N   0  0  0  0  0  0  0  0  0  0  0  0
   23.4963  -12.1619  -18.8581 C   0  0  1  0  0  0  0  0  0  0  0  0
   22.3406  -11.5166  -19.6211 C   0  0  0  0  0  0  0  0  0  0  0  0
   22.2161  -12.2463  -20.9049 C   0  0  0  0  0  0  0  0  0  0  0  0
   23.0988  -12.2211  -21.9474 C   0  0  0  0  0  0  0  0  0  0  0  0
   22.6049  -13.0208  -22.9121 N   0  0  0  0  0  0  0  0  0  0  0  0
   21.4463  -13.5281  -22.4782 C   0  0  0  0  0  0  0  0  0  0  0  0
   21.2008  -13.0542  -21.2405 N   0  0  0  0  0  0  0  0  0  0  0  0
   23.7688  -11.3741  -17.6348 C   0  0  0  0  0  0  0  0  0  0  0  0
   23.1282  -11.6535  -16.5800 O   0  0  0  0  0  0  0  0  0  0  0  0
   24.7256  -10.3173  -17.6114 N   0  0  0  0  0  0  0  0  0  0  0  0
   24.9754   -9.6586  -16.3589 C   0  0  1  0  0  0  0  0  0  0  0  0
   26.4940   -9.5058  -16.1968 C   0  0  0  0  0  0  0  0  0  0  0  0
   27.1676  -10.9350  -15.2894 S   0  0  0  0  0  0  0  0  0  0  0  0
   24.3476   -8.3005  -16.3182 C   0  0  0  0  0  0  0  0  0  0  0  0
   24.4111   -7.6291  -17.3777 O   0  0  0  0  0  0  0  0  0  0  0  0
   23.7110   -7.7676  -15.1753 N   0  0  0  0  0  0  0  0  0  0  0  0
   23.2130   -6.4152  -15.2081 C   0  0  0  0  0  0  0  0  0  0  0  0
   21.7462   -6.4147  -15.4008 C   0  0  0  0  0  0  0  0  0  0  0  0
   21.1712   -7.4863  -15.6791 O   0  0  0  0  0  0  0  0  0  0  0  0
   21.0107   -5.2496  -15.2770 O   0  0  0  0  0  0  0  0  0  0  0  0
  2  3  1  0
  2  1  1  1
  3  4  1  0
  4  5  2  0
  5  6  1  0
  7  6  1  0
  8  4  1  0
  8  7  2  0
  9  2  1  0
 10  9  2  0
 11  9  1  0
 12 13  1  6
 12 11  1  0
 13 14  1  0
 15 17  1  0
 15 12  1  0
 16 15  2  0
 18 17  1  0
 19 18  1  0
 20 19  2  0
 21 19  1  0
M  END
$$$$
