HCG.pdb
     RDKit          3D

 21 21  0  0  1  0  0  0  0  0999 V2000
   24.6407  -15.1742  -19.3436 N   0  0  0  0  0  0  0  0  0  0  0  0
   25.1173  -13.8204  -19.5021 C   0  0  1  0  0  0  0  0  0  0  0  0
   24.5145  -13.2755  -20.7959 C   0  0  0  0  0  0  0  0  0  0  0  0
   25.3222  -13.8276  -21.9091 C   0  0  0  0  0  0  0  0  0  0  0  0
   24.9381  -14.7932  -22.7960 C   0  0  0  0  0  0  0  0  0  0  0  0
   25.9682  -14.9974  -23.6393 N   0  0  0  0  0  0  0  0  0  0  0  0
   26.9644  -14.1795  -23.2838 C   0  0  0  0  0  0  0  0  0  0  0  0
   26.5722  -13.4551  -22.2170 N   0  0  0  0  0  0  0  0  0  0  0  0
   24.6407  -13.0028  -18.3638 C   0  0  0  0  0  0  0  0  0  0  0  0
   23.5705  -13.3429  -17.7808 O   0  0  0  0  0  0  0  0  0  0  0  0
   25.3481  -11.8514  -17.9091 N   0  0  0  0  0  0  0  0  0  0  0  0
   24.8455  -11.1617  -16.7529 C   0  0  1  0  0  0  0  0  0  0  0  0
   26.0263  -10.8913  -15.8102 C   0  0  0  0  0  0  0  0  0  0  0  0
   26.7971  -12.4661  -15.3147 S   0  0  0  0  0  0  0  0  0  0  0  0
   24.2163   -9.8552  -17.1236 C   0  0  0  0  0  0  0  0  0  0  0  0
   24.8565   -9.1429  -17.9361 O   0  0  0  0  0  0  0  0  0  0  0  0
   22.9764   -9.4118  -16.6123 N   0  0  0  0  0  0  0  0  0  0  0  0
   22.4173   -8.1710  -17.0877 C   0  0  0  0  0  0  0  0  0  0  0  0
   22.6485   -7.0941  -16.1001 C   0  0  0  0  0  0  0  0  0  0  0  0
   23.3269   -7.3405  -15.0825 O   0  0  0  0  0  0  0  0  0  0  0  0
   22.1255   -5.8276  -16.2901 O   0  0  0  0  0  0  0  0  0  0  0  0
  2  3  1  0
  2  1  1  1
  3  4  1  0
  4  5  2  0
  5  6  1  0
  7  6  1  0
  8  4  1  0
  8  7  2  0
  9  2  1  0
 10  9  2  0
 11  9  1  0
 12 13  1  1
 12 11  1  0
 13 14  1  0
 15 17  1  0
 15 12  1  0
 16 15  2  0
 18 17  1  0
 19 18  1  0
 20 19  2  0
 21 19  1  0
M  END
$$$$
