HCG.pdb
     RDKit          3D

 21 21  0  0  1  0  0  0  0  0999 V2000
   23.6591  -21.2069  -14.6504 N   0  0  0  0  0  0  0  0  0  0  0  0
   23.4425  -20.1965  -13.6418 C   0  0  1  0  0  0  0  0  0  0  0  0
   22.0328  -19.6447  -13.8474 C   0  0  0  0  0  0  0  0  0  0  0  0
   22.0863  -18.7706  -15.0430 C   0  0  0  0  0  0  0  0  0  0  0  0
   22.9958  -17.7820  -15.2916 C   0  0  0  0  0  0  0  0  0  0  0  0
   22.6835  -17.2388  -16.4839 N   0  0  0  0  0  0  0  0  0  0  0  0
   21.6084  -17.8745  -16.9611 C   0  0  0  0  0  0  0  0  0  0  0  0
   21.2350  -18.8208  -16.0768 N   0  0  0  0  0  0  0  0  0  0  0  0
   23.5273  -20.8225  -12.3031 C   0  0  0  0  0  0  0  0  0  0  0  0
   23.1053  -22.0069  -12.1612 O   0  0  0  0  0  0  0  0  0  0  0  0
   24.0668  -20.1340  -11.1773 N   0  0  0  0  0  0  0  0  0  0  0  0
   24.1225  -20.8303   -9.9214 C   0  0  1  0  0  0  0  0  0  0  0  0
   25.2600  -20.2211   -9.0902 C   0  0  0  0  0  0  0  0  0  0  0  0
   25.2244  -20.8994   -7.3996 S   0  0  0  0  0  0  0  0  0  0  0  0
   22.8416  -20.6915   -9.1596 C   0  0  0  0  0  0  0  0  0  0  0  0
   22.3116  -19.5530   -9.1701 O   0  0  0  0  0  0  0  0  0  0  0  0
   22.2313  -21.7539   -8.4566 N   0  0  0  0  0  0  0  0  0  0  0  0
   21.0473  -21.4981   -7.6752 C   0  0  0  0  0  0  0  0  0  0  0  0
   20.6633  -22.7089   -6.9169 C   0  0  0  0  0  0  0  0  0  0  0  0
   21.2789  -23.7742   -7.1238 O   0  0  0  0  0  0  0  0  0  0  0  0
   19.6382  -22.6742   -5.9887 O   0  0  0  0  0  0  0  0  0  0  0  0
  2  3  1  0
  2  1  1  6
  3  4  1  0
  4  5  2  0
  5  6  1  0
  7  6  1  0
  8  4  1  0
  8  7  2  0
  9  2  1  0
 10  9  2  0
 11  9  1  0
 12 13  1  1
 12 11  1  0
 13 14  1  0
 15 17  1  0
 15 12  1  0
 16 15  2  0
 18 17  1  0
 19 18  1  0
 20 19  2  0
 21 19  1  0
M  END
$$$$
