HCG.pdb
     RDKit          3D

 21 21  0  0  1  0  0  0  0  0999 V2000
   20.0050  -14.1056  -16.3603 N   0  0  0  0  0  0  0  0  0  0  0  0
   20.1940  -12.8943  -17.1234 C   0  0  1  0  0  0  0  0  0  0  0  0
   18.8185  -12.4502  -17.6183 C   0  0  0  0  0  0  0  0  0  0  0  0
   18.4114  -13.4124  -18.6693 C   0  0  0  0  0  0  0  0  0  0  0  0
   17.2660  -14.1565  -18.6958 C   0  0  0  0  0  0  0  0  0  0  0  0
   17.2918  -14.8947  -19.8221 N   0  0  0  0  0  0  0  0  0  0  0  0
   18.4240  -14.6149  -20.4761 C   0  0  0  0  0  0  0  0  0  0  0  0
   19.1192  -13.7011  -19.7701 N   0  0  0  0  0  0  0  0  0  0  0  0
   20.7520  -11.8468  -16.2389 C   0  0  0  0  0  0  0  0  0  0  0  0
   20.3024  -11.7474  -15.0604 O   0  0  0  0  0  0  0  0  0  0  0  0
   21.7743  -10.9531  -16.6738 N   0  0  0  0  0  0  0  0  0  0  0  0
   22.2750   -9.9888  -15.7333 C   0  0  1  0  0  0  0  0  0  0  0  0
   23.8061  -10.0942  -15.7142 C   0  0  0  0  0  0  0  0  0  0  0  0
   24.3123  -11.6120  -14.8426 S   0  0  0  0  0  0  0  0  0  0  0  0
   21.8929   -8.5945  -16.1208 C   0  0  0  0  0  0  0  0  0  0  0  0
   21.8114   -8.3647  -17.3528 O   0  0  0  0  0  0  0  0  0  0  0  0
   21.6310   -7.5676  -15.1867 N   0  0  0  0  0  0  0  0  0  0  0  0
   21.2987   -6.2474  -15.6605 C   0  0  0  0  0  0  0  0  0  0  0  0
   20.9817   -5.3595  -14.5205 C   0  0  0  0  0  0  0  0  0  0  0  0
   20.8976   -5.8492  -13.3761 O   0  0  0  0  0  0  0  0  0  0  0  0
   20.7790   -4.0038  -14.7069 O   0  0  0  0  0  0  0  0  0  0  0  0
  2  3  1  0
  2  1  1  1
  3  4  1  0
  4  5  2  0
  5  6  1  0
  7  6  1  0
  8  4  1  0
  8  7  2  0
  9  2  1  0
 10  9  2  0
 11  9  1  0
 12 13  1  6
 12 11  1  0
 13 14  1  0
 15 17  1  0
 15 12  1  0
 16 15  2  0
 18 17  1  0
 19 18  1  0
 20 19  2  0
 21 19  1  0
M  END
$$$$
