HCG.pdb
     RDKit          3D

 21 21  0  0  1  0  0  0  0  0999 V2000
   18.0376  -10.3792  -14.7219 N   0  0  0  0  0  0  0  0  0  0  0  0
   19.2804   -9.9043  -15.2831 C   0  0  1  0  0  0  0  0  0  0  0  0
   19.1469   -9.9713  -16.8036 C   0  0  0  0  0  0  0  0  0  0  0  0
   19.1148  -11.4078  -17.1666 C   0  0  0  0  0  0  0  0  0  0  0  0
   18.0865  -12.0747  -17.7703 C   0  0  0  0  0  0  0  0  0  0  0  0
   18.4703  -13.3573  -17.9173 N   0  0  0  0  0  0  0  0  0  0  0  0
   19.7043  -13.4815  -17.4177 C   0  0  0  0  0  0  0  0  0  0  0  0
   20.1077  -12.2822  -16.9530 N   0  0  0  0  0  0  0  0  0  0  0  0
   19.4885   -8.4962  -14.8768 C   0  0  0  0  0  0  0  0  0  0  0  0
   18.4795   -7.8040  -14.5548 O   0  0  0  0  0  0  0  0  0  0  0  0
   20.7840   -7.9020  -14.8383 N   0  0  0  0  0  0  0  0  0  0  0  0
   20.8970   -6.5572  -14.3444 C   0  0  1  0  0  0  0  0  0  0  0  0
   22.1494   -6.4792  -13.4604 C   0  0  0  0  0  0  0  0  0  0  0  0
   22.4301   -4.7578  -12.9337 S   0  0  0  0  0  0  0  0  0  0  0  0
   21.0346   -5.5717  -15.4625 C   0  0  0  0  0  0  0  0  0  0  0  0
   21.8793   -5.8532  -16.3481 O   0  0  0  0  0  0  0  0  0  0  0  0
   20.2777   -4.3824  -15.5536 N   0  0  0  0  0  0  0  0  0  0  0  0
   20.5724   -3.4339  -16.5984 C   0  0  0  0  0  0  0  0  0  0  0  0
   19.5779   -2.3388  -16.5904 C   0  0  0  0  0  0  0  0  0  0  0  0
   18.6018   -2.4121  -15.8169 O   0  0  0  0  0  0  0  0  0  0  0  0
   19.7163   -1.2433  -17.4238 O   0  0  0  0  0  0  0  0  0  0  0  0
  2  3  1  0
  2  1  1  1
  3  4  1  0
  4  5  2  0
  5  6  1  0
  7  6  1  0
  8  4  1  0
  8  7  2  0
  9  2  1  0
 10  9  2  0
 11  9  1  0
 12 13  1  1
 12 11  1  0
 13 14  1  0
 15 17  1  0
 15 12  1  0
 16 15  2  0
 18 17  1  0
 19 18  1  0
 20 19  2  0
 21 19  1  0
M  END
$$$$
