HCG.pdb
     RDKit          3D

 21 21  0  0  1  0  0  0  0  0999 V2000
   18.4671  -11.4046  -15.7627 N   0  0  0  0  0  0  0  0  0  0  0  0
   18.8352  -10.0888  -16.2303 C   0  0  1  0  0  0  0  0  0  0  0  0
   17.6040   -9.1955  -16.0876 C   0  0  0  0  0  0  0  0  0  0  0  0
   16.6545   -9.6039  -17.1496 C   0  0  0  0  0  0  0  0  0  0  0  0
   15.4650  -10.2530  -16.9760 C   0  0  0  0  0  0  0  0  0  0  0  0
   14.9219  -10.4306  -18.1957 N   0  0  0  0  0  0  0  0  0  0  0  0
   15.7537   -9.9051  -19.1012 C   0  0  0  0  0  0  0  0  0  0  0  0
   16.8245   -9.3934  -18.4622 N   0  0  0  0  0  0  0  0  0  0  0  0
   19.9209   -9.5574  -15.3759 C   0  0  0  0  0  0  0  0  0  0  0  0
   19.7978   -9.6410  -14.1194 O   0  0  0  0  0  0  0  0  0  0  0  0
   21.0927   -8.9585  -15.9244 N   0  0  0  0  0  0  0  0  0  0  0  0
   22.1106   -8.5075  -15.0158 C   0  0  1  0  0  0  0  0  0  0  0  0
   23.4556   -9.0761  -15.4887 C   0  0  0  0  0  0  0  0  0  0  0  0
   23.5244  -10.8657  -15.1535 S   0  0  0  0  0  0  0  0  0  0  0  0
   22.2013   -7.0137  -14.9907 C   0  0  0  0  0  0  0  0  0  0  0  0
   21.8302   -6.4188  -16.0326 O   0  0  0  0  0  0  0  0  0  0  0  0
   22.6711   -6.2777  -13.8802 N   0  0  0  0  0  0  0  0  0  0  0  0
   21.7383   -5.5099  -13.0939 C   0  0  0  0  0  0  0  0  0  0  0  0
   21.0002   -4.5621  -13.9572 C   0  0  0  0  0  0  0  0  0  0  0  0
   21.4210   -3.3933  -14.0723 O   0  0  0  0  0  0  0  0  0  0  0  0
   19.8582   -4.9533  -14.6329 O   0  0  0  0  0  0  0  0  0  0  0  0
  2  3  1  0
  2  1  1  1
  3  4  1  0
  4  5  2  0
  5  6  1  0
  7  6  1  0
  8  4  1  0
  8  7  2  0
  9  2  1  0
 10  9  2  0
 11  9  1  0
 12 13  1  6
 12 11  1  0
 13 14  1  0
 15 17  1  0
 15 12  1  0
 16 15  2  0
 18 17  1  0
 19 18  1  0
 20 19  2  0
 21 19  1  0
M  END
$$$$
