VFK.pdb
     RDKit          3D

 28 28  0  0  1  0  0  0  0  0999 V2000
   24.7503  -24.2046  -17.6920 C   0  0  0  0  0  0  0  0  0  0  0  0
   25.6837  -23.0181  -17.5846 C   0  0  2  0  0  0  0  0  0  0  0  0
   26.7569  -23.2206  -18.6416 C   0  0  0  0  0  0  0  0  0  0  0  0
   26.3075  -22.9976  -16.2136 C   0  0  2  0  0  0  0  0  0  0  0  0
   27.0643  -24.2026  -15.9654 N   0  0  0  0  0  0  0  0  0  0  0  0
   25.3206  -22.8122  -15.1359 C   0  0  0  0  0  0  0  0  0  0  0  0
   25.0275  -23.8132  -14.4301 O   0  0  0  0  0  0  0  0  0  0  0  0
   24.6800  -21.5974  -14.8361 N   0  0  0  0  0  0  0  0  0  0  0  0
   23.7219  -21.4250  -13.7445 C   0  0  1  0  0  0  0  0  0  0  0  0
   24.0768  -20.1395  -13.0718 C   0  0  0  0  0  0  0  0  0  0  0  0
   23.2154  -19.8439  -11.9130 C   0  0  0  0  0  0  0  0  0  0  0  0
   21.9819  -19.2040  -12.0210 C   0  0  0  0  0  0  0  0  0  0  0  0
   21.1953  -18.9426  -10.9070 C   0  0  0  0  0  0  0  0  0  0  0  0
   21.6331  -19.3182   -9.6702 C   0  0  0  0  0  0  0  0  0  0  0  0
   22.8504  -19.9504   -9.5571 C   0  0  0  0  0  0  0  0  0  0  0  0
   23.6456  -20.2193  -10.6471 C   0  0  0  0  0  0  0  0  0  0  0  0
   22.3337  -21.5150  -14.2222 C   0  0  0  0  0  0  0  0  0  0  0  0
   21.9792  -20.8658  -15.2392 O   0  0  0  0  0  0  0  0  0  0  0  0
   21.4102  -22.3303  -13.5346 N   0  0  0  0  0  0  0  0  0  0  0  0
   20.0206  -22.4823  -13.9751 C   0  0  1  0  0  0  0  0  0  0  0  0
   19.4720  -23.7781  -13.4208 C   0  0  0  0  0  0  0  0  0  0  0  0
   20.0962  -25.0102  -13.9600 C   0  0  0  0  0  0  0  0  0  0  0  0
   19.4457  -26.2563  -13.3992 C   0  0  0  0  0  0  0  0  0  0  0  0
   20.0799  -27.5008  -13.9235 C   0  0  0  0  0  0  0  0  0  0  0  0
   19.4699  -28.6945  -13.3619 N   0  0  0  0  0  0  0  0  0  0  0  0
   19.2251  -21.2923  -13.6376 C   0  0  0  0  0  0  0  0  0  0  0  0
   19.3873  -20.5835  -12.6199 O   0  0  0  0  0  0  0  0  0  0  0  0
   18.1834  -20.8661  -14.4889 O   0  0  0  0  0  0  0  0  0  0  0  0
  2  1  1  1
  3  2  1  0
  4  2  1  0
  4  5  1  1
  6  7  2  0
  6  4  1  0
  8  6  1  0
  9  8  1  0
  9 10  1  6
 10 11  1  0
 11 16  2  0
 11 12  1  0
 12 13  2  0
 13 14  1  0
 15 14  2  0
 16 15  1  0
 17  9  1  0
 18 17  2  0
 19 17  1  0
 20 21  1  1
 20 19  1  0
 21 22  1  0
 22 23  1  0
 23 24  1  0
 25 24  1  0
 26 28  1  0
 26 20  1  0
 27 26  2  0
M  END
$$$$
