VFK.pdb
     RDKit          3D

 28 28  0  0  1  0  0  0  0  0999 V2000
   26.0637  -21.3282  -18.7653 C   0  0  0  0  0  0  0  0  0  0  0  0
   27.2758  -20.5409  -18.3162 C   0  0  2  0  0  0  0  0  0  0  0  0
   28.0933  -20.2629  -19.5669 C   0  0  0  0  0  0  0  0  0  0  0  0
   28.0787  -21.3714  -17.3492 C   0  0  2  0  0  0  0  0  0  0  0  0
   28.5064  -22.6111  -17.9545 N   0  0  0  0  0  0  0  0  0  0  0  0
   27.3520  -21.6641  -16.1019 C   0  0  0  0  0  0  0  0  0  0  0  0
   26.7806  -22.7823  -16.0043 O   0  0  0  0  0  0  0  0  0  0  0  0
   27.2486  -20.7856  -15.0095 N   0  0  0  0  0  0  0  0  0  0  0  0
   26.4116  -21.0338  -13.8359 C   0  0  1  0  0  0  0  0  0  0  0  0
   27.0189  -20.2572  -12.7138 C   0  0  0  0  0  0  0  0  0  0  0  0
   26.2909  -20.4245  -11.4433 C   0  0  0  0  0  0  0  0  0  0  0  0
   25.1821  -19.6571  -11.0908 C   0  0  0  0  0  0  0  0  0  0  0  0
   24.5192  -19.8431   -9.8850 C   0  0  0  0  0  0  0  0  0  0  0  0
   24.9575  -20.7997   -9.0160 C   0  0  0  0  0  0  0  0  0  0  0  0
   26.0520  -21.5608   -9.3584 C   0  0  0  0  0  0  0  0  0  0  0  0
   26.7235  -21.3935  -10.5474 C   0  0  0  0  0  0  0  0  0  0  0  0
   24.9970  -20.7348  -14.1058 C   0  0  0  0  0  0  0  0  0  0  0  0
   24.6821  -19.6528  -14.6639 O   0  0  0  0  0  0  0  0  0  0  0  0
   24.0037  -21.6660  -13.7361 N   0  0  0  0  0  0  0  0  0  0  0  0
   22.5769  -21.4202  -13.9632 C   0  0  1  0  0  0  0  0  0  0  0  0
   21.8931  -22.7396  -14.2444 C   0  0  0  0  0  0  0  0  0  0  0  0
   20.4397  -22.6507  -14.5241 C   0  0  0  0  0  0  0  0  0  0  0  0
   19.8545  -24.0031  -14.8689 C   0  0  0  0  0  0  0  0  0  0  0  0
   18.4085  -23.9109  -15.2248 C   0  0  0  0  0  0  0  0  0  0  0  0
   17.8853  -25.1849  -15.6890 N   0  0  0  0  0  0  0  0  0  0  0  0
   21.9882  -20.6554  -12.8535 C   0  0  0  0  0  0  0  0  0  0  0  0
   21.2873  -19.6273  -12.9806 O   0  0  0  0  0  0  0  0  0  0  0  0
   22.1943  -21.0631  -11.5182 O   0  0  0  0  0  0  0  0  0  0  0  0
  2  1  1  6
  3  2  1  0
  4  2  1  0
  4  5  1  6
  6  7  2  0
  6  4  1  0
  8  6  1  0
  9  8  1  0
  9 10  1  1
 10 11  1  0
 11 16  2  0
 11 12  1  0
 12 13  2  0
 13 14  1  0
 15 14  2  0
 16 15  1  0
 17  9  1  0
 18 17  2  0
 19 17  1  0
 20 21  1  1
 20 19  1  0
 21 22  1  0
 22 23  1  0
 23 24  1  0
 25 24  1  0
 26 28  1  0
 26 20  1  0
 27 26  2  0
M  END
$$$$
