VFK.pdb
     RDKit          3D

 28 28  0  0  1  0  0  0  0  0999 V2000
   25.2021  -20.1132  -17.8947 C   0  0  0  0  0  0  0  0  0  0  0  0
   26.0329  -19.0022  -17.2896 C   0  0  2  0  0  0  0  0  0  0  0  0
   26.8027  -18.3695  -18.4373 C   0  0  0  0  0  0  0  0  0  0  0  0
   26.9919  -19.5875  -16.2861 C   0  0  2  0  0  0  0  0  0  0  0  0
   27.8989  -20.5211  -16.9123 N   0  0  0  0  0  0  0  0  0  0  0  0
   26.3118  -20.2505  -15.1603 C   0  0  0  0  0  0  0  0  0  0  0  0
   25.9706  -21.4539  -15.3073 O   0  0  0  0  0  0  0  0  0  0  0  0
   26.0147  -19.6380  -13.9304 N   0  0  0  0  0  0  0  0  0  0  0  0
   25.2807  -20.2912  -12.8469 C   0  0  1  0  0  0  0  0  0  0  0  0
   25.9589  -19.8907  -11.5777 C   0  0  0  0  0  0  0  0  0  0  0  0
   27.3354  -20.4079  -11.4775 C   0  0  0  0  0  0  0  0  0  0  0  0
   27.6887  -21.4902  -10.6734 C   0  0  0  0  0  0  0  0  0  0  0  0
   28.9963  -21.9520  -10.6043 C   0  0  0  0  0  0  0  0  0  0  0  0
   29.9677  -21.3364  -11.3390 C   0  0  0  0  0  0  0  0  0  0  0  0
   29.6251  -20.2671  -12.1349 C   0  0  0  0  0  0  0  0  0  0  0  0
   28.3363  -19.7933  -12.2185 C   0  0  0  0  0  0  0  0  0  0  0  0
   23.8427  -19.9885  -12.9065 C   0  0  0  0  0  0  0  0  0  0  0  0
   23.4553  -18.7921  -12.9129 O   0  0  0  0  0  0  0  0  0  0  0  0
   22.9084  -21.0444  -12.9564 N   0  0  0  0  0  0  0  0  0  0  0  0
   21.4645  -20.8087  -13.0435 C   0  0  1  0  0  0  0  0  0  0  0  0
   21.0845  -20.6392  -14.4976 C   0  0  0  0  0  0  0  0  0  0  0  0
   19.6623  -20.2997  -14.7433 C   0  0  0  0  0  0  0  0  0  0  0  0
   19.0042  -21.2949  -15.6743 C   0  0  0  0  0  0  0  0  0  0  0  0
   17.5916  -20.9237  -15.9794 C   0  0  0  0  0  0  0  0  0  0  0  0
   16.9300  -21.9367  -16.7845 N   0  0  0  0  0  0  0  0  0  0  0  0
   20.7133  -21.8577  -12.3378 C   0  0  0  0  0  0  0  0  0  0  0  0
   19.6187  -21.6908  -11.7560 O   0  0  0  0  0  0  0  0  0  0  0  0
   21.2145  -23.1755  -12.2771 O   0  0  0  0  0  0  0  0  0  0  0  0
  2  1  1  6
  3  2  1  0
  4  2  1  0
  4  5  1  6
  6  7  2  0
  6  4  1  0
  8  6  1  0
  9  8  1  0
  9 10  1  1
 10 11  1  0
 11 16  2  0
 11 12  1  0
 12 13  2  0
 13 14  1  0
 15 14  2  0
 16 15  1  0
 17  9  1  0
 18 17  2  0
 19 17  1  0
 20 21  1  6
 20 19  1  0
 21 22  1  0
 22 23  1  0
 23 24  1  0
 25 24  1  0
 26 28  1  0
 26 20  1  0
 27 26  2  0
M  END
$$$$
