VFK.pdb
     RDKit          3D

 28 28  0  0  1  0  0  0  0  0999 V2000
   25.9057  -19.8369  -17.7541 C   0  0  0  0  0  0  0  0  0  0  0  0
   27.3328  -19.6220  -17.2984 C   0  0  2  0  0  0  0  0  0  0  0  0
   28.1375  -19.3019  -18.5474 C   0  0  0  0  0  0  0  0  0  0  0  0
   27.8484  -20.8867  -16.6628 C   0  0  2  0  0  0  0  0  0  0  0  0
   27.8326  -21.9865  -17.5990 N   0  0  0  0  0  0  0  0  0  0  0  0
   27.1009  -21.2674  -15.4521 C   0  0  0  0  0  0  0  0  0  0  0  0
   26.1644  -22.1000  -15.5782 O   0  0  0  0  0  0  0  0  0  0  0  0
   27.3561  -20.7689  -14.1627 N   0  0  0  0  0  0  0  0  0  0  0  0
   26.4905  -21.0055  -13.0076 C   0  0  1  0  0  0  0  0  0  0  0  0
   27.2928  -20.6466  -11.7998 C   0  0  0  0  0  0  0  0  0  0  0  0
   26.4924  -20.6440  -10.5623 C   0  0  0  0  0  0  0  0  0  0  0  0
   26.0179  -21.8060   -9.9563 C   0  0  0  0  0  0  0  0  0  0  0  0
   25.2672  -21.7661   -8.7889 C   0  0  0  0  0  0  0  0  0  0  0  0
   24.9815  -20.5625   -8.2126 C   0  0  0  0  0  0  0  0  0  0  0  0
   25.4472  -19.4114   -8.8063 C   0  0  0  0  0  0  0  0  0  0  0  0
   26.1925  -19.4278   -9.9625 C   0  0  0  0  0  0  0  0  0  0  0  0
   25.2084  -20.2965  -13.1365 C   0  0  0  0  0  0  0  0  0  0  0  0
   25.1858  -19.1220  -13.5854 O   0  0  0  0  0  0  0  0  0  0  0  0
   24.0127  -20.9409  -12.7552 N   0  0  0  0  0  0  0  0  0  0  0  0
   22.6948  -20.3377  -12.9721 C   0  0  1  0  0  0  0  0  0  0  0  0
   22.4683  -20.1818  -14.4593 C   0  0  0  0  0  0  0  0  0  0  0  0
   21.1792  -19.5556  -14.8396 C   0  0  0  0  0  0  0  0  0  0  0  0
   21.0090  -19.4982  -16.3423 C   0  0  0  0  0  0  0  0  0  0  0  0
   19.7309  -18.8355  -16.7340 C   0  0  0  0  0  0  0  0  0  0  0  0
   19.6253  -18.6773  -18.1749 N   0  0  0  0  0  0  0  0  0  0  0  0
   21.6447  -21.0946  -12.2739 C   0  0  0  0  0  0  0  0  0  0  0  0
   21.6433  -22.3338  -12.1043 O   0  0  0  0  0  0  0  0  0  0  0  0
   20.5262  -20.4272  -11.7308 O   0  0  0  0  0  0  0  0  0  0  0  0
  2  1  1  6
  3  2  1  0
  4  2  1  0
  4  5  1  6
  6  7  2  0
  6  4  1  0
  8  6  1  0
  9  8  1  0
  9 10  1  1
 10 11  1  0
 11 16  2  0
 11 12  1  0
 12 13  2  0
 13 14  1  0
 15 14  2  0
 16 15  1  0
 17  9  1  0
 18 17  2  0
 19 17  1  0
 20 21  1  6
 20 19  1  0
 21 22  1  0
 22 23  1  0
 23 24  1  0
 25 24  1  0
 26 28  1  0
 26 20  1  0
 27 26  2  0
M  END
$$$$
