VFK.pdb
     RDKit          3D

 28 28  0  0  1  0  0  0  0  0999 V2000
   28.4080  -19.4434  -18.4998 C   0  0  0  0  0  0  0  0  0  0  0  0
   27.3362  -19.7014  -17.4629 C   0  0  2  0  0  0  0  0  0  0  0  0
   27.1388  -18.3924  -16.7162 C   0  0  0  0  0  0  0  0  0  0  0  0
   27.8094  -20.7707  -16.5131 C   0  0  2  0  0  0  0  0  0  0  0  0
   28.0757  -22.0079  -17.2093 N   0  0  0  0  0  0  0  0  0  0  0  0
   26.8611  -21.0246  -15.4150 C   0  0  0  0  0  0  0  0  0  0  0  0
   25.8040  -21.6532  -15.6861 O   0  0  0  0  0  0  0  0  0  0  0  0
   27.0492  -20.6162  -14.0831 N   0  0  0  0  0  0  0  0  0  0  0  0
   26.0266  -20.7213  -13.0426 C   0  0  1  0  0  0  0  0  0  0  0  0
   26.7481  -20.6650  -11.7359 C   0  0  0  0  0  0  0  0  0  0  0  0
   25.8370  -20.6994  -10.5780 C   0  0  0  0  0  0  0  0  0  0  0  0
   25.4047  -21.8819   -9.9802 C   0  0  0  0  0  0  0  0  0  0  0  0
   24.5463  -21.8767   -8.8889 C   0  0  0  0  0  0  0  0  0  0  0  0
   24.1093  -20.6877   -8.3814 C   0  0  0  0  0  0  0  0  0  0  0  0
   24.5326  -19.5164   -8.9673 C   0  0  0  0  0  0  0  0  0  0  0  0
   25.3825  -19.4984  -10.0490 C   0  0  0  0  0  0  0  0  0  0  0  0
   24.9716  -19.7112  -13.2152 C   0  0  0  0  0  0  0  0  0  0  0  0
   25.2269  -18.6371  -13.8174 O   0  0  0  0  0  0  0  0  0  0  0  0
   23.6800  -19.9560  -12.7031 N   0  0  0  0  0  0  0  0  0  0  0  0
   22.4734  -19.8169  -13.5233 C   0  0  1  0  0  0  0  0  0  0  0  0
   22.8223  -20.1285  -14.9615 C   0  0  0  0  0  0  0  0  0  0  0  0
   21.7360  -19.8875  -15.9414 C   0  0  0  0  0  0  0  0  0  0  0  0
   20.7856  -21.0625  -16.0208 C   0  0  0  0  0  0  0  0  0  0  0  0
   19.5273  -20.7144  -16.7430 C   0  0  0  0  0  0  0  0  0  0  0  0
   18.6124  -21.8419  -16.8059 N   0  0  0  0  0  0  0  0  0  0  0  0
   21.3678  -20.6194  -12.9789 C   0  0  0  0  0  0  0  0  0  0  0  0
   21.1031  -21.7965  -13.3087 O   0  0  0  0  0  0  0  0  0  0  0  0
   20.5032  -20.0747  -12.0056 O   0  0  0  0  0  0  0  0  0  0  0  0
  2  1  1  6
  3  2  1  0
  4  2  1  0
  4  5  1  6
  6  7  2  0
  6  4  1  0
  8  6  1  0
  9  8  1  0
  9 10  1  1
 10 11  1  0
 11 16  2  0
 11 12  1  0
 12 13  2  0
 13 14  1  0
 15 14  2  0
 16 15  1  0
 17  9  1  0
 18 17  2  0
 19 17  1  0
 20 21  1  6
 20 19  1  0
 21 22  1  0
 22 23  1  0
 23 24  1  0
 25 24  1  0
 26 28  1  0
 26 20  1  0
 27 26  2  0
M  END
$$$$
