VFK.pdb
     RDKit          3D

 28 28  0  0  1  0  0  0  0  0999 V2000
   20.4624  -12.8767  -21.2901 C   0  0  0  0  0  0  0  0  0  0  0  0
   20.1024  -12.0320  -20.0870 C   0  0  2  0  0  0  0  0  0  0  0  0
   20.2127  -10.5831  -20.5326 C   0  0  0  0  0  0  0  0  0  0  0  0
   21.0816  -12.3057  -18.9754 C   0  0  2  0  0  0  0  0  0  0  0  0
   21.0654  -13.6992  -18.5956 N   0  0  0  0  0  0  0  0  0  0  0  0
   20.8450  -11.4736  -17.7833 C   0  0  0  0  0  0  0  0  0  0  0  0
   19.9275  -11.8247  -16.9953 O   0  0  0  0  0  0  0  0  0  0  0  0
   21.5695  -10.3134  -17.4590 N   0  0  0  0  0  0  0  0  0  0  0  0
   21.2417   -9.4296  -16.3406 C   0  0  1  0  0  0  0  0  0  0  0  0
   22.5311   -9.1306  -15.6484 C   0  0  0  0  0  0  0  0  0  0  0  0
   22.3681   -8.2093  -14.5096 C   0  0  0  0  0  0  0  0  0  0  0  0
   22.0546   -8.6356  -13.2202 C   0  0  0  0  0  0  0  0  0  0  0  0
   21.9098   -7.7389  -12.1700 C   0  0  0  0  0  0  0  0  0  0  0  0
   22.0768   -6.4035  -12.3966 C   0  0  0  0  0  0  0  0  0  0  0  0
   22.3864   -5.9763  -13.6678 C   0  0  0  0  0  0  0  0  0  0  0  0
   22.5345   -6.8471  -14.7226 C   0  0  0  0  0  0  0  0  0  0  0  0
   20.4859   -8.2491  -16.7859 C   0  0  0  0  0  0  0  0  0  0  0  0
   20.8818   -7.5928  -17.7830 O   0  0  0  0  0  0  0  0  0  0  0  0
   19.3212   -7.8623  -16.0900 N   0  0  0  0  0  0  0  0  0  0  0  0
   18.5810   -6.6413  -16.4204 C   0  0  1  0  0  0  0  0  0  0  0  0
   17.1160   -6.9850  -16.5729 C   0  0  0  0  0  0  0  0  0  0  0  0
   16.5272   -6.6673  -17.8960 C   0  0  0  0  0  0  0  0  0  0  0  0
   16.1709   -7.9220  -18.6636 C   0  0  0  0  0  0  0  0  0  0  0  0
   15.5385   -7.6109  -19.9786 C   0  0  0  0  0  0  0  0  0  0  0  0
   15.2473   -8.8169  -20.7355 N   0  0  0  0  0  0  0  0  0  0  0  0
   18.8565   -5.5751  -15.4458 C   0  0  0  0  0  0  0  0  0  0  0  0
   18.8920   -5.7266  -14.2047 O   0  0  0  0  0  0  0  0  0  0  0  0
   19.1081   -4.2570  -15.8829 O   0  0  0  0  0  0  0  0  0  0  0  0
  2  1  1  6
  3  2  1  0
  4  2  1  0
  4  5  1  1
  6  7  2  0
  6  4  1  0
  8  6  1  0
  9  8  1  0
  9 10  1  6
 10 11  1  0
 11 16  2  0
 11 12  1  0
 12 13  2  0
 13 14  1  0
 15 14  2  0
 16 15  1  0
 17  9  1  0
 18 17  2  0
 19 17  1  0
 20 21  1  1
 20 19  1  0
 21 22  1  0
 22 23  1  0
 23 24  1  0
 25 24  1  0
 26 28  1  0
 26 20  1  0
 27 26  2  0
M  END
$$$$
