VFK.pdb
     RDKit          3D

 28 28  0  0  1  0  0  0  0  0999 V2000
   17.3884  -12.7601  -20.0541 C   0  0  0  0  0  0  0  0  0  0  0  0
   17.4868  -11.7522  -18.9293 C   0  0  2  0  0  0  0  0  0  0  0  0
   17.7000  -10.3980  -19.5855 C   0  0  0  0  0  0  0  0  0  0  0  0
   18.6660  -12.0938  -18.0564 C   0  0  2  0  0  0  0  0  0  0  0  0
   18.5002  -13.3877  -17.4363 N   0  0  0  0  0  0  0  0  0  0  0  0
   18.9216  -11.0842  -17.0148 C   0  0  0  0  0  0  0  0  0  0  0  0
   18.2011  -11.1110  -15.9822 O   0  0  0  0  0  0  0  0  0  0  0  0
   19.9128  -10.0901  -17.0882 N   0  0  0  0  0  0  0  0  0  0  0  0
   20.0300   -8.9798  -16.1432 C   0  0  1  0  0  0  0  0  0  0  0  0
   21.4000   -9.0703  -15.5551 C   0  0  0  0  0  0  0  0  0  0  0  0
   21.7027   -7.9575  -14.6374 C   0  0  0  0  0  0  0  0  0  0  0  0
   22.2818   -6.7598  -15.0532 C   0  0  0  0  0  0  0  0  0  0  0  0
   22.5520   -5.7312  -14.1605 C   0  0  0  0  0  0  0  0  0  0  0  0
   22.2462   -5.8878  -12.8398 C   0  0  0  0  0  0  0  0  0  0  0  0
   21.6742   -7.0682  -12.4230 C   0  0  0  0  0  0  0  0  0  0  0  0
   21.3979   -8.1001  -13.2901 C   0  0  0  0  0  0  0  0  0  0  0  0
   19.7085   -7.6921  -16.7770 C   0  0  0  0  0  0  0  0  0  0  0  0
   20.2640   -7.3717  -17.8588 O   0  0  0  0  0  0  0  0  0  0  0  0
   18.7779   -6.8259  -16.1653 N   0  0  0  0  0  0  0  0  0  0  0  0
   18.4971   -5.4850  -16.6860 C   0  0  1  0  0  0  0  0  0  0  0  0
   17.0182   -5.3770  -16.9837 C   0  0  0  0  0  0  0  0  0  0  0  0
   16.5098   -6.3198  -18.0089 C   0  0  0  0  0  0  0  0  0  0  0  0
   15.0133   -6.1894  -18.1932 C   0  0  0  0  0  0  0  0  0  0  0  0
   14.4796   -7.1986  -19.1538 C   0  0  0  0  0  0  0  0  0  0  0  0
   13.0599   -7.0097  -19.4006 N   0  0  0  0  0  0  0  0  0  0  0  0
   19.0117   -4.4469  -15.7803 C   0  0  0  0  0  0  0  0  0  0  0  0
   18.7024   -4.3267  -14.5743 O   0  0  0  0  0  0  0  0  0  0  0  0
   19.9289   -3.4824  -16.2492 O   0  0  0  0  0  0  0  0  0  0  0  0
  2  1  1  6
  3  2  1  0
  4  2  1  0
  4  5  1  1
  6  7  2  0
  6  4  1  0
  8  6  1  0
  9  8  1  0
  9 10  1  6
 10 11  1  0
 11 16  2  0
 11 12  1  0
 12 13  2  0
 13 14  1  0
 15 14  2  0
 16 15  1  0
 17  9  1  0
 18 17  2  0
 19 17  1  0
 20 21  1  1
 20 19  1  0
 21 22  1  0
 22 23  1  0
 23 24  1  0
 25 24  1  0
 26 28  1  0
 26 20  1  0
 27 26  2  0
M  END
$$$$
