VFK.pdb
     RDKit          3D

 28 28  0  0  1  0  0  0  0  0999 V2000
   26.1824  -21.5607  -18.6487 C   0  0  0  0  0  0  0  0  0  0  0  0
   27.4211  -20.8727  -18.1168 C   0  0  2  0  0  0  0  0  0  0  0  0
   28.3467  -20.6777  -19.3064 C   0  0  0  0  0  0  0  0  0  0  0  0
   28.0797  -21.7569  -17.0903 C   0  0  2  0  0  0  0  0  0  0  0  0
   28.4470  -23.0333  -17.6580 N   0  0  0  0  0  0  0  0  0  0  0  0
   27.2420  -21.9771  -15.8990 C   0  0  0  0  0  0  0  0  0  0  0  0
   26.5661  -23.0385  -15.8450 O   0  0  0  0  0  0  0  0  0  0  0  0
   27.1406  -21.0880  -14.8150 N   0  0  0  0  0  0  0  0  0  0  0  0
   26.2064  -21.2571  -13.7023 C   0  0  1  0  0  0  0  0  0  0  0  0
   26.8072  -20.5432  -12.5359 C   0  0  0  0  0  0  0  0  0  0  0  0
   25.9377  -20.5597  -11.3461 C   0  0  0  0  0  0  0  0  0  0  0  0
   26.1184  -21.4383  -10.2792 C   0  0  0  0  0  0  0  0  0  0  0  0
   25.2800  -21.4249   -9.1726 C   0  0  0  0  0  0  0  0  0  0  0  0
   24.2494  -20.5319   -9.1191 C   0  0  0  0  0  0  0  0  0  0  0  0
   24.0657  -19.6617  -10.1695 C   0  0  0  0  0  0  0  0  0  0  0  0
   24.8841  -19.6576  -11.2753 C   0  0  0  0  0  0  0  0  0  0  0  0
   24.8480  -20.8248  -14.0643 C   0  0  0  0  0  0  0  0  0  0  0  0
   24.6585  -19.6624  -14.5052 O   0  0  0  0  0  0  0  0  0  0  0  0
   23.7673  -21.7192  -13.9141 N   0  0  0  0  0  0  0  0  0  0  0  0
   22.3964  -21.3603  -14.2877 C   0  0  1  0  0  0  0  0  0  0  0  0
   21.6422  -22.6213  -14.6460 C   0  0  0  0  0  0  0  0  0  0  0  0
   21.1762  -23.4279  -13.4925 C   0  0  0  0  0  0  0  0  0  0  0  0
   19.6780  -23.3219  -13.3067 C   0  0  0  0  0  0  0  0  0  0  0  0
   19.1875  -24.2088  -12.2117 C   0  0  0  0  0  0  0  0  0  0  0  0
   17.7853  -23.9707  -11.9126 N   0  0  0  0  0  0  0  0  0  0  0  0
   21.7581  -20.5475  -13.2414 C   0  0  0  0  0  0  0  0  0  0  0  0
   20.7552  -19.8190  -13.4081 O   0  0  0  0  0  0  0  0  0  0  0  0
   22.2708  -20.5473  -11.9266 O   0  0  0  0  0  0  0  0  0  0  0  0
  2  1  1  6
  3  2  1  0
  4  2  1  0
  4  5  1  6
  6  7  2  0
  6  4  1  0
  8  6  1  0
  9  8  1  0
  9 10  1  1
 10 11  1  0
 11 16  2  0
 11 12  1  0
 12 13  2  0
 13 14  1  0
 15 14  2  0
 16 15  1  0
 17  9  1  0
 18 17  2  0
 19 17  1  0
 20 21  1  1
 20 19  1  0
 21 22  1  0
 22 23  1  0
 23 24  1  0
 25 24  1  0
 26 28  1  0
 26 20  1  0
 27 26  2  0
M  END
$$$$
