VFK.pdb
     RDKit          3D

 28 28  0  0  1  0  0  0  0  0999 V2000
   25.0610  -23.4535  -16.9466 C   0  0  0  0  0  0  0  0  0  0  0  0
   25.9640  -24.0332  -15.8793 C   0  0  2  0  0  0  0  0  0  0  0  0
   26.3481  -25.4252  -16.3531 C   0  0  0  0  0  0  0  0  0  0  0  0
   25.2065  -24.1213  -14.5801 C   0  0  2  0  0  0  0  0  0  0  0  0
   24.0196  -24.9322  -14.7208 N   0  0  0  0  0  0  0  0  0  0  0  0
   24.8335  -22.8020  -14.0418 C   0  0  0  0  0  0  0  0  0  0  0  0
   23.6116  -22.4972  -14.0299 O   0  0  0  0  0  0  0  0  0  0  0  0
   25.7428  -21.8553  -13.5388 N   0  0  0  0  0  0  0  0  0  0  0  0
   25.3793  -20.4880  -13.1677 C   0  0  1  0  0  0  0  0  0  0  0  0
   26.4521  -20.0017  -12.2491 C   0  0  0  0  0  0  0  0  0  0  0  0
   26.1815  -20.3194  -10.8357 C   0  0  0  0  0  0  0  0  0  0  0  0
   25.7437  -19.3740   -9.9099 C   0  0  0  0  0  0  0  0  0  0  0  0
   25.4972  -19.7092   -8.5852 C   0  0  0  0  0  0  0  0  0  0  0  0
   25.6857  -20.9954   -8.1697 C   0  0  0  0  0  0  0  0  0  0  0  0
   26.1179  -21.9336   -9.0791 C   0  0  0  0  0  0  0  0  0  0  0  0
   26.3681  -21.6234  -10.3959 C   0  0  0  0  0  0  0  0  0  0  0  0
   25.1465  -19.6482  -14.3526 C   0  0  0  0  0  0  0  0  0  0  0  0
   26.0712  -19.4738  -15.1867 O   0  0  0  0  0  0  0  0  0  0  0  0
   23.8857  -19.0448  -14.5438 N   0  0  0  0  0  0  0  0  0  0  0  0
   23.4661  -18.5016  -15.8388 C   0  0  1  0  0  0  0  0  0  0  0  0
   23.6126  -19.5788  -16.8903 C   0  0  0  0  0  0  0  0  0  0  0  0
   23.1733  -19.1947  -18.2534 C   0  0  0  0  0  0  0  0  0  0  0  0
   23.2921  -20.3498  -19.2238 C   0  0  0  0  0  0  0  0  0  0  0  0
   22.8643  -19.9676  -20.6011 C   0  0  0  0  0  0  0  0  0  0  0  0
   22.9385  -21.0912  -21.5199 N   0  0  0  0  0  0  0  0  0  0  0  0
   22.1209  -17.9133  -15.7553 C   0  0  0  0  0  0  0  0  0  0  0  0
   21.3289  -18.0620  -14.7987 O   0  0  0  0  0  0  0  0  0  0  0  0
   21.6282  -17.1087  -16.8048 O   0  0  0  0  0  0  0  0  0  0  0  0
  2  1  1  6
  3  2  1  0
  4  2  1  0
  4  5  1  6
  6  7  2  0
  6  4  1  0
  8  6  1  0
  9  8  1  0
  9 10  1  6
 10 11  1  0
 11 16  2  0
 11 12  1  0
 12 13  2  0
 13 14  1  0
 15 14  2  0
 16 15  1  0
 17  9  1  0
 18 17  2  0
 19 17  1  0
 20 21  1  6
 20 19  1  0
 21 22  1  0
 22 23  1  0
 23 24  1  0
 25 24  1  0
 26 28  1  0
 26 20  1  0
 27 26  2  0
M  END
$$$$
