VFK.pdb
     RDKit          3D

 28 28  0  0  1  0  0  0  0  0999 V2000
   26.6420  -19.5996  -14.0318 C   0  0  0  0  0  0  0  0  0  0  0  0
   28.0768  -19.2258  -13.7276 C   0  0  2  0  0  0  0  0  0  0  0  0
   28.6998  -18.8081  -15.0494 C   0  0  0  0  0  0  0  0  0  0  0  0
   28.7977  -20.4273  -13.1744 C   0  0  2  0  0  0  0  0  0  0  0  0
   28.7280  -21.5449  -14.0869 N   0  0  0  0  0  0  0  0  0  0  0  0
   28.2921  -20.8439  -11.8552 C   0  0  0  0  0  0  0  0  0  0  0  0
   27.4006  -21.7328  -11.8224 O   0  0  0  0  0  0  0  0  0  0  0  0
   28.7323  -20.3214  -10.6267 N   0  0  0  0  0  0  0  0  0  0  0  0
   28.1306  -20.6503   -9.3347 C   0  0  1  0  0  0  0  0  0  0  0  0
   29.0890  -20.1772   -8.2913 C   0  0  0  0  0  0  0  0  0  0  0  0
   28.5238  -20.2277   -6.9311 C   0  0  0  0  0  0  0  0  0  0  0  0
   27.8109  -19.1750   -6.3599 C   0  0  0  0  0  0  0  0  0  0  0  0
   27.2909  -19.2578   -5.0751 C   0  0  0  0  0  0  0  0  0  0  0  0
   27.4777  -20.3955   -4.3450 C   0  0  0  0  0  0  0  0  0  0  0  0
   28.1809  -21.4386   -4.9034 C   0  0  0  0  0  0  0  0  0  0  0  0
   28.7045  -21.3780   -6.1742 C   0  0  0  0  0  0  0  0  0  0  0  0
   26.7674  -20.1105   -9.2183 C   0  0  0  0  0  0  0  0  0  0  0  0
   26.5573  -18.8901   -9.4371 O   0  0  0  0  0  0  0  0  0  0  0  0
   25.7051  -20.9678   -8.8619 N   0  0  0  0  0  0  0  0  0  0  0  0
   24.3092  -20.5215   -8.8500 C   0  0  1  0  0  0  0  0  0  0  0  0
   23.6615  -20.9097  -10.1604 C   0  0  0  0  0  0  0  0  0  0  0  0
   22.2190  -20.5858  -10.2723 C   0  0  0  0  0  0  0  0  0  0  0  0
   21.6207  -21.1381  -11.5480 C   0  0  0  0  0  0  0  0  0  0  0  0
   20.1989  -20.7212  -11.7235 C   0  0  0  0  0  0  0  0  0  0  0  0
   19.6621  -21.1606  -13.0007 N   0  0  0  0  0  0  0  0  0  0  0  0
   23.6062  -21.0136   -7.6557 C   0  0  0  0  0  0  0  0  0  0  0  0
   24.0675  -21.8416   -6.8396 O   0  0  0  0  0  0  0  0  0  0  0  0
   22.3069  -20.5533   -7.3528 O   0  0  0  0  0  0  0  0  0  0  0  0
  2  1  1  6
  3  2  1  0
  4  2  1  0
  4  5  1  6
  6  7  2  0
  6  4  1  0
  8  6  1  0
  9  8  1  0
  9 10  1  1
 10 11  1  0
 11 16  2  0
 11 12  1  0
 12 13  2  0
 13 14  1  0
 15 14  2  0
 16 15  1  0
 17  9  1  0
 18 17  2  0
 19 17  1  0
 20 21  1  6
 20 19  1  0
 21 22  1  0
 22 23  1  0
 23 24  1  0
 25 24  1  0
 26 28  1  0
 26 20  1  0
 27 26  2  0
M  END
$$$$
