VFK.pdb
     RDKit          3D

 28 28  0  0  1  0  0  0  0  0999 V2000
   25.8413  -19.2314  -13.7934 C   0  0  0  0  0  0  0  0  0  0  0  0
   27.3481  -19.2048  -13.6540 C   0  0  2  0  0  0  0  0  0  0  0  0
   27.8993  -18.8625  -15.0284 C   0  0  0  0  0  0  0  0  0  0  0  0
   27.8329  -20.5661  -13.2282 C   0  0  2  0  0  0  0  0  0  0  0  0
   27.4033  -21.5875  -14.1548 N   0  0  0  0  0  0  0  0  0  0  0  0
   27.4012  -20.9303  -11.8679 C   0  0  0  0  0  0  0  0  0  0  0  0
   26.4387  -21.7343  -11.7533 O   0  0  0  0  0  0  0  0  0  0  0  0
   27.9857  -20.4456  -10.6849 N   0  0  0  0  0  0  0  0  0  0  0  0
   27.4835  -20.7410   -9.3432 C   0  0  1  0  0  0  0  0  0  0  0  0
   28.5638  -20.3421   -8.3920 C   0  0  0  0  0  0  0  0  0  0  0  0
   28.0707  -20.1455   -7.0171 C   0  0  0  0  0  0  0  0  0  0  0  0
   28.8230  -19.5349   -6.0152 C   0  0  0  0  0  0  0  0  0  0  0  0
   28.3257  -19.3650   -4.7300 C   0  0  0  0  0  0  0  0  0  0  0  0
   27.0687  -19.8041   -4.4306 C   0  0  0  0  0  0  0  0  0  0  0  0
   26.3209  -20.4079   -5.4157 C   0  0  0  0  0  0  0  0  0  0  0  0
   26.7937  -20.5864   -6.6953 C   0  0  0  0  0  0  0  0  0  0  0  0
   26.1772  -20.1095   -9.1020 C   0  0  0  0  0  0  0  0  0  0  0  0
   26.0650  -18.8589   -9.1715 O   0  0  0  0  0  0  0  0  0  0  0  0
   25.0593  -20.9132   -8.7945 N   0  0  0  0  0  0  0  0  0  0  0  0
   23.6833  -20.4477   -8.9888 C   0  0  1  0  0  0  0  0  0  0  0  0
   23.2702  -20.7278  -10.4165 C   0  0  0  0  0  0  0  0  0  0  0  0
   21.9232  -20.2354  -10.7925 C   0  0  0  0  0  0  0  0  0  0  0  0
   21.5936  -20.5584  -12.2338 C   0  0  0  0  0  0  0  0  0  0  0  0
   20.2541  -20.0344  -12.6306 C   0  0  0  0  0  0  0  0  0  0  0  0
   19.8828  -20.4625  -13.9689 N   0  0  0  0  0  0  0  0  0  0  0  0
   22.7838  -21.0161   -7.9736 C   0  0  0  0  0  0  0  0  0  0  0  0
   21.5678  -20.7468   -7.8583 O   0  0  0  0  0  0  0  0  0  0  0  0
   23.2713  -21.9430   -7.0278 O   0  0  0  0  0  0  0  0  0  0  0  0
  2  1  1  6
  3  2  1  0
  4  2  1  0
  4  5  1  6
  6  7  2  0
  6  4  1  0
  8  6  1  0
  9  8  1  0
  9 10  1  1
 10 11  1  0
 11 16  2  0
 11 12  1  0
 12 13  2  0
 13 14  1  0
 15 14  2  0
 16 15  1  0
 17  9  1  0
 18 17  2  0
 19 17  1  0
 20 21  1  6
 20 19  1  0
 21 22  1  0
 22 23  1  0
 23 24  1  0
 25 24  1  0
 26 28  1  0
 26 20  1  0
 27 26  2  0
M  END
$$$$
