VFK.pdb
     RDKit          3D

 28 28  0  0  1  0  0  0  0  0999 V2000
   14.1259  -19.9685    2.9909 C   0  0  0  0  0  0  0  0  0  0  0  0
   15.2152  -19.2620    3.7687 C   0  0  2  0  0  0  0  0  0  0  0  0
   14.5198  -18.5058    4.8888 C   0  0  0  0  0  0  0  0  0  0  0  0
   15.9294  -18.2959    2.8599 C   0  0  2  0  0  0  0  0  0  0  0  0
   16.5359  -18.9806    1.7420 N   0  0  0  0  0  0  0  0  0  0  0  0
   16.9542  -17.5009    3.5578 C   0  0  0  0  0  0  0  0  0  0  0  0
   18.0861  -18.0252    3.7313 O   0  0  0  0  0  0  0  0  0  0  0  0
   16.7620  -16.1967    4.0459 N   0  0  0  0  0  0  0  0  0  0  0  0
   17.7709  -15.4450    4.7919 C   0  0  1  0  0  0  0  0  0  0  0  0
   17.5317  -14.0024    4.4873 C   0  0  0  0  0  0  0  0  0  0  0  0
   18.4330  -13.1043    5.2310 C   0  0  0  0  0  0  0  0  0  0  0  0
   18.0964  -12.5234    6.4524 C   0  0  0  0  0  0  0  0  0  0  0  0
   18.9717  -11.6824    7.1265 C   0  0  0  0  0  0  0  0  0  0  0  0
   20.1955  -11.4114    6.5869 C   0  0  0  0  0  0  0  0  0  0  0  0
   20.5338  -11.9820    5.3809 C   0  0  0  0  0  0  0  0  0  0  0  0
   19.6823  -12.8179    4.6962 C   0  0  0  0  0  0  0  0  0  0  0  0
   17.7569  -15.7900    6.2216 C   0  0  0  0  0  0  0  0  0  0  0  0
   16.6609  -15.9813    6.8079 O   0  0  0  0  0  0  0  0  0  0  0  0
   18.9749  -15.9039    6.9244 N   0  0  0  0  0  0  0  0  0  0  0  0
   19.0256  -16.1646    8.3657 C   0  0  1  0  0  0  0  0  0  0  0  0
   19.9855  -17.3050    8.6219 C   0  0  0  0  0  0  0  0  0  0  0  0
   19.4673  -18.3816    9.4998 C   0  0  0  0  0  0  0  0  0  0  0  0
   20.4864  -19.4838    9.6916 C   0  0  0  0  0  0  0  0  0  0  0  0
   20.0010  -20.5348   10.6328 C   0  0  0  0  0  0  0  0  0  0  0  0
   21.0299  -21.5214   10.9162 N   0  0  0  0  0  0  0  0  0  0  0  0
   19.3280  -14.9362    9.1156 C   0  0  0  0  0  0  0  0  0  0  0  0
   20.2881  -14.1691    8.8825 O   0  0  0  0  0  0  0  0  0  0  0  0
   18.5080  -14.5384   10.1930 O   0  0  0  0  0  0  0  0  0  0  0  0
  2  1  1  6
  3  2  1  0
  4  2  1  0
  4  5  1  6
  6  7  2  0
  6  4  1  0
  8  6  1  0
  9  8  1  0
  9 10  1  1
 10 11  1  0
 11 16  2  0
 11 12  1  0
 12 13  2  0
 13 14  1  0
 15 14  2  0
 16 15  1  0
 17  9  1  0
 18 17  2  0
 19 17  1  0
 20 21  1  6
 20 19  1  0
 21 22  1  0
 22 23  1  0
 23 24  1  0
 25 24  1  0
 26 28  1  0
 26 20  1  0
 27 26  2  0
M  END
$$$$
