VFK.pdb
     RDKit          3D

 28 28  0  0  1  0  0  0  0  0999 V2000
   27.1703  -24.0354  -19.7058 C   0  0  0  0  0  0  0  0  0  0  0  0
   26.3190  -24.0384  -18.4545 C   0  0  2  0  0  0  0  0  0  0  0  0
   25.3757  -22.8528  -18.5755 C   0  0  0  0  0  0  0  0  0  0  0  0
   27.2060  -23.8707  -17.2484 C   0  0  2  0  0  0  0  0  0  0  0  0
   28.0663  -25.0170  -17.0687 N   0  0  0  0  0  0  0  0  0  0  0  0
   26.4495  -23.6307  -16.0076 C   0  0  0  0  0  0  0  0  0  0  0  0
   25.8641  -24.6121  -15.4781 O   0  0  0  0  0  0  0  0  0  0  0  0
   26.3322  -22.3840  -15.3689 N   0  0  0  0  0  0  0  0  0  0  0  0
   25.5569  -22.1591  -14.1491 C   0  0  1  0  0  0  0  0  0  0  0  0
   26.2770  -21.0987  -13.3821 C   0  0  0  0  0  0  0  0  0  0  0  0
   25.6573  -20.8188  -12.0745 C   0  0  0  0  0  0  0  0  0  0  0  0
   24.5688  -19.9637  -11.9118 C   0  0  0  0  0  0  0  0  0  0  0  0
   24.0091  -19.7240  -10.6639 C   0  0  0  0  0  0  0  0  0  0  0  0
   24.5316  -20.3370   -9.5624 C   0  0  0  0  0  0  0  0  0  0  0  0
   25.6066  -21.1825   -9.7165 C   0  0  0  0  0  0  0  0  0  0  0  0
   26.1766  -21.4343  -10.9431 C   0  0  0  0  0  0  0  0  0  0  0  0
   24.1480  -21.8621  -14.4492 C   0  0  0  0  0  0  0  0  0  0  0  0
   23.8621  -20.9734  -15.2919 O   0  0  0  0  0  0  0  0  0  0  0  0
   23.1275  -22.5779  -13.7885 N   0  0  0  0  0  0  0  0  0  0  0  0
   21.7058  -22.3068  -14.0193 C   0  0  1  0  0  0  0  0  0  0  0  0
   20.9240  -23.5829  -13.8006 C   0  0  0  0  0  0  0  0  0  0  0  0
   19.4779  -23.4997  -14.1173 C   0  0  0  0  0  0  0  0  0  0  0  0
   18.7871  -24.8324  -13.9243 C   0  0  0  0  0  0  0  0  0  0  0  0
   17.6121  -24.9880  -14.8304 C   0  0  0  0  0  0  0  0  0  0  0  0
   17.0611  -26.3316  -14.7726 N   0  0  0  0  0  0  0  0  0  0  0  0
   21.2463  -21.1670  -13.2115 C   0  0  0  0  0  0  0  0  0  0  0  0
   21.6397  -20.9002  -12.0546 O   0  0  0  0  0  0  0  0  0  0  0  0
   20.2876  -20.2685  -13.7266 O   0  0  0  0  0  0  0  0  0  0  0  0
  2  1  1  6
  3  2  1  0
  4  2  1  0
  4  5  1  1
  6  7  2  0
  6  4  1  0
  8  6  1  0
  9  8  1  0
  9 10  1  6
 10 11  1  0
 11 16  2  0
 11 12  1  0
 12 13  2  0
 13 14  1  0
 15 14  2  0
 16 15  1  0
 17  9  1  0
 18 17  2  0
 19 17  1  0
 20 21  1  1
 20 19  1  0
 21 22  1  0
 22 23  1  0
 23 24  1  0
 25 24  1  0
 26 28  1  0
 26 20  1  0
 27 26  2  0
M  END
$$$$
