YHD.pdb
     RDKit          3D

 31 32  0  0  1  0  0  0  0  0999 V2000
   21.2041    1.7744  -14.7297 O   0  0  0  0  0  0  0  0  0  0  0  0
   21.4845    0.4269  -14.9243 C   0  0  0  0  0  0  0  0  0  0  0  0
   20.8365   -0.2682  -15.9252 C   0  0  0  0  0  0  0  0  0  0  0  0
   21.0907   -1.6001  -16.1437 C   0  0  0  0  0  0  0  0  0  0  0  0
   22.0117   -2.2954  -15.3621 C   0  0  0  0  0  0  0  0  0  0  0  0
   22.3242   -3.7145  -15.5475 C   0  0  0  0  0  0  0  0  0  0  0  0
   21.1763   -4.4686  -16.1771 C   0  0  2  0  0  0  0  0  0  0  0  0
   20.0385   -4.4130  -15.3140 N   0  0  0  0  0  0  0  0  0  0  0  0
   21.6398   -5.8927  -16.3822 C   0  0  0  0  0  0  0  0  0  0  0  0
   22.7495   -6.1195  -16.9241 O   0  0  0  0  0  0  0  0  0  0  0  0
   22.6438   -1.5870  -14.3741 C   0  0  0  0  0  0  0  0  0  0  0  0
   22.3978   -0.2532  -14.1456 C   0  0  0  0  0  0  0  0  0  0  0  0
   20.8394   -6.9833  -15.9714 N   0  0  0  0  0  0  0  0  0  0  0  0
   21.2761   -8.3950  -16.1719 C   0  0  1  0  0  0  0  0  0  0  0  0
   22.5761   -8.5929  -15.4556 C   0  0  0  0  0  0  0  0  0  0  0  0
   23.1681   -9.9001  -15.6510 C   0  0  0  0  0  0  0  0  0  0  0  0
   22.6333  -10.9760  -16.3147 C   0  0  0  0  0  0  0  0  0  0  0  0
   23.4642  -12.0022  -16.2213 N   0  0  0  0  0  0  0  0  0  0  0  0
   24.5229  -11.5938  -15.5054 C   0  0  0  0  0  0  0  0  0  0  0  0
   24.3486  -10.3171  -15.1560 N   0  0  0  0  0  0  0  0  0  0  0  0
   20.1786   -9.3018  -15.8413 C   0  0  0  0  0  0  0  0  0  0  0  0
   19.6496   -9.2175  -14.6846 O   0  0  0  0  0  0  0  0  0  0  0  0
   19.6315  -10.2798  -16.7116 N   0  0  0  0  0  0  0  0  0  0  0  0
   18.5536  -11.1643  -16.3039 C   0  0  1  0  0  0  0  0  0  0  0  0
   18.9150  -11.9731  -15.0903 C   0  0  0  0  0  0  0  0  0  0  0  0
   18.1678  -13.2393  -14.9791 C   0  0  0  0  0  0  0  0  0  0  0  0
   17.5174  -13.6882  -15.9493 O   0  0  0  0  0  0  0  0  0  0  0  0
   17.2437  -10.5087  -16.1656 C   0  0  0  0  0  0  0  0  0  0  0  0
   16.8872   -9.7213  -15.2650 O   0  0  0  0  0  0  0  0  0  0  0  0
   18.1433  -13.9923  -13.8131 O   0  0  0  0  0  0  0  0  0  0  0  0
   16.2490  -10.7684  -17.1338 O   0  0  0  0  0  0  0  0  0  0  0  0
  2 12  2  0
  2  1  1  0
  3  2  1  0
  4  5  1  0
  4  3  2  0
  5 11  2  0
  6  5  1  0
  6  7  1  0
  7  9  1  0
  7  8  1  1
  9 13  1  0
 10  9  2  0
 11 12  1  0
 13 14  1  0
 14 15  1  1
 15 16  1  0
 16 17  2  0
 18 17  1  0
 19 18  1  0
 20 19  2  0
 20 16  1  0
 21 22  2  0
 21 14  1  0
 23 21  1  0
 24 23  1  0
 24 28  1  0
 24 25  1  1
 26 25  1  0
 26 27  2  0
 28 31  1  0
 29 28  2  0
 30 26  1  0
M  END
$$$$
