YHD.pdb
     RDKit          3D

 31 32  0  0  1  0  0  0  0  0999 V2000
   17.4718  -16.5777  -18.8309 O   0  0  0  0  0  0  0  0  0  0  0  0
   18.1636  -15.5149  -18.2618 C   0  0  0  0  0  0  0  0  0  0  0  0
   18.3691  -15.4857  -16.8973 C   0  0  0  0  0  0  0  0  0  0  0  0
   19.0486  -14.4502  -16.3037 C   0  0  0  0  0  0  0  0  0  0  0  0
   19.5539  -13.3934  -17.0589 C   0  0  0  0  0  0  0  0  0  0  0  0
   20.2859  -12.2628  -16.4828 C   0  0  0  0  0  0  0  0  0  0  0  0
   21.7301  -12.2395  -16.9259 C   0  0  2  0  0  0  0  0  0  0  0  0
   22.3752  -13.4463  -16.5133 N   0  0  0  0  0  0  0  0  0  0  0  0
   22.3713  -11.0289  -16.2869 C   0  0  0  0  0  0  0  0  0  0  0  0
   22.5640  -11.0024  -15.0464 O   0  0  0  0  0  0  0  0  0  0  0  0
   19.3392  -13.4416  -18.4113 C   0  0  0  0  0  0  0  0  0  0  0  0
   18.6604  -14.4730  -19.0173 C   0  0  0  0  0  0  0  0  0  0  0  0
   22.7612   -9.9165  -17.0674 N   0  0  0  0  0  0  0  0  0  0  0  0
   23.5183   -8.7740  -16.4800 C   0  0  1  0  0  0  0  0  0  0  0  0
   24.8754   -8.7327  -17.1116 C   0  0  0  0  0  0  0  0  0  0  0  0
   25.7272   -9.8503  -16.7608 C   0  0  0  0  0  0  0  0  0  0  0  0
   26.1447  -10.8773  -17.5700 C   0  0  0  0  0  0  0  0  0  0  0  0
   26.8666  -11.7276  -16.8571 N   0  0  0  0  0  0  0  0  0  0  0  0
   26.9142  -11.2552  -15.6022 C   0  0  0  0  0  0  0  0  0  0  0  0
   26.2236  -10.1145  -15.5375 N   0  0  0  0  0  0  0  0  0  0  0  0
   22.7068   -7.5601  -16.5443 C   0  0  0  0  0  0  0  0  0  0  0  0
   21.9980   -7.3589  -17.5845 O   0  0  0  0  0  0  0  0  0  0  0  0
   22.6274   -6.5711  -15.5300 N   0  0  0  0  0  0  0  0  0  0  0  0
   21.7436   -5.4229  -15.6343 C   0  0  1  0  0  0  0  0  0  0  0  0
   20.3139   -5.8289  -15.8548 C   0  0  0  0  0  0  0  0  0  0  0  0
   19.3738   -4.6932  -15.8820 C   0  0  0  0  0  0  0  0  0  0  0  0
   19.5523   -3.7307  -16.6614 O   0  0  0  0  0  0  0  0  0  0  0  0
   21.8821   -4.4436  -14.5450 C   0  0  0  0  0  0  0  0  0  0  0  0
   22.3388   -4.6488  -13.4016 O   0  0  0  0  0  0  0  0  0  0  0  0
   18.2573   -4.6279  -15.0596 O   0  0  0  0  0  0  0  0  0  0  0  0
   21.4660   -3.1132  -14.7714 O   0  0  0  0  0  0  0  0  0  0  0  0
  2 12  2  0
  2  1  1  0
  3  2  1  0
  4  5  1  0
  4  3  2  0
  5 11  2  0
  6  5  1  0
  6  7  1  0
  7  9  1  0
  7  8  1  1
  9 13  1  0
 10  9  2  0
 11 12  1  0
 13 14  1  0
 14 15  1  6
 15 16  1  0
 16 17  2  0
 18 17  1  0
 19 18  1  0
 20 19  2  0
 20 16  1  0
 21 22  2  0
 21 14  1  0
 23 21  1  0
 24 23  1  0
 24 28  1  0
 24 25  1  1
 26 25  1  0
 26 27  2  0
 28 31  1  0
 29 28  2  0
 30 26  1  0
M  END
$$$$
