YHD.pdb
     RDKit          3D

 31 32  0  0  1  0  0  0  0  0999 V2000
   29.6835  -19.8582   -3.4873 O   0  0  0  0  0  0  0  0  0  0  0  0
   28.9990  -19.7481   -4.6920 C   0  0  0  0  0  0  0  0  0  0  0  0
   27.8242  -20.4486   -4.8768 C   0  0  0  0  0  0  0  0  0  0  0  0
   27.1237  -20.3617   -6.0550 C   0  0  0  0  0  0  0  0  0  0  0  0
   27.5751  -19.5632   -7.1044 C   0  0  0  0  0  0  0  0  0  0  0  0
   26.8720  -19.4308   -8.3826 C   0  0  0  0  0  0  0  0  0  0  0  0
   26.9048  -20.7129   -9.1813 C   0  0  2  0  0  0  0  0  0  0  0  0
   28.2567  -21.1572   -9.3149 N   0  0  0  0  0  0  0  0  0  0  0  0
   26.2909  -20.4121  -10.5295 C   0  0  0  0  0  0  0  0  0  0  0  0
   26.7363  -19.4662  -11.2248 O   0  0  0  0  0  0  0  0  0  0  0  0
   28.7431  -18.8763   -6.9005 C   0  0  0  0  0  0  0  0  0  0  0  0
   29.4534  -18.9552   -5.7254 C   0  0  0  0  0  0  0  0  0  0  0  0
   25.2150  -21.1833  -11.0259 N   0  0  0  0  0  0  0  0  0  0  0  0
   24.5393  -20.8487  -12.3125 C   0  0  1  0  0  0  0  0  0  0  0  0
   25.2012  -21.6250  -13.4088 C   0  0  0  0  0  0  0  0  0  0  0  0
   26.5492  -21.1912  -13.7123 C   0  0  0  0  0  0  0  0  0  0  0  0
   27.7257  -21.8404  -13.4325 C   0  0  0  0  0  0  0  0  0  0  0  0
   28.7421  -21.0874  -13.8230 N   0  0  0  0  0  0  0  0  0  0  0  0
   28.2277  -19.9652  -14.3485 C   0  0  0  0  0  0  0  0  0  0  0  0
   26.8955  -20.0225  -14.2840 N   0  0  0  0  0  0  0  0  0  0  0  0
   23.0928  -20.9934  -12.1615 C   0  0  0  0  0  0  0  0  0  0  0  0
   22.6045  -21.0089  -10.9841 O   0  0  0  0  0  0  0  0  0  0  0  0
   22.1638  -21.1107  -13.2275 N   0  0  0  0  0  0  0  0  0  0  0  0
   20.8187  -20.5681  -13.1468 C   0  0  1  0  0  0  0  0  0  0  0  0
   20.8105  -19.1497  -12.6512 C   0  0  0  0  0  0  0  0  0  0  0  0
   19.4601  -18.5669  -12.5478 C   0  0  0  0  0  0  0  0  0  0  0  0
   18.7348  -18.7995  -11.5549 O   0  0  0  0  0  0  0  0  0  0  0  0
   20.0177  -20.7347  -14.3696 C   0  0  0  0  0  0  0  0  0  0  0  0
   20.4108  -20.6198  -15.5488 O   0  0  0  0  0  0  0  0  0  0  0  0
   18.9255  -17.7417  -13.5279 O   0  0  0  0  0  0  0  0  0  0  0  0
   18.6492  -21.0605  -14.2456 O   0  0  0  0  0  0  0  0  0  0  0  0
  2 12  2  0
  2  1  1  0
  3  2  1  0
  4  5  1  0
  4  3  2  0
  5 11  2  0
  6  5  1  0
  6  7  1  0
  7  9  1  0
  7  8  1  6
  9 13  1  0
 10  9  2  0
 11 12  1  0
 13 14  1  0
 14 15  1  6
 15 16  1  0
 16 17  2  0
 18 17  1  0
 19 18  1  0
 20 19  2  0
 20 16  1  0
 21 22  2  0
 21 14  1  0
 23 21  1  0
 24 23  1  0
 24 28  1  0
 24 25  1  6
 26 25  1  0
 26 27  2  0
 28 31  1  0
 29 28  2  0
 30 26  1  0
M  END
$$$$
