YHD.pdb
     RDKit          3D

 31 32  0  0  1  0  0  0  0  0999 V2000
   12.0961  -10.5022  -16.0146 O   0  0  0  0  0  0  0  0  0  0  0  0
   13.2146   -9.7695  -15.6350 C   0  0  0  0  0  0  0  0  0  0  0  0
   13.4359   -9.5034  -14.2990 C   0  0  0  0  0  0  0  0  0  0  0  0
   14.5313   -8.7823  -13.8907 C   0  0  0  0  0  0  0  0  0  0  0  0
   15.4568   -8.2946  -14.8116 C   0  0  0  0  0  0  0  0  0  0  0  0
   16.6425   -7.5205  -14.4366 C   0  0  0  0  0  0  0  0  0  0  0  0
   17.8789   -8.3848  -14.3533 C   0  0  2  0  0  0  0  0  0  0  0  0
   17.8027   -9.2159  -13.1930 N   0  0  0  0  0  0  0  0  0  0  0  0
   19.0678   -7.4538  -14.2837 C   0  0  0  0  0  0  0  0  0  0  0  0
   19.4427   -6.9967  -13.1760 O   0  0  0  0  0  0  0  0  0  0  0  0
   15.2185   -8.5697  -16.1326 C   0  0  0  0  0  0  0  0  0  0  0  0
   14.1255   -9.2906  -16.5538 C   0  0  0  0  0  0  0  0  0  0  0  0
   19.7711   -7.0854  -15.4534 N   0  0  0  0  0  0  0  0  0  0  0  0
   20.9120   -6.1260  -15.4121 C   0  0  1  0  0  0  0  0  0  0  0  0
   22.0659   -6.7332  -16.1485 C   0  0  0  0  0  0  0  0  0  0  0  0
   22.5726   -7.9532  -15.5550 C   0  0  0  0  0  0  0  0  0  0  0  0
   22.2052   -8.5254  -14.3627 C   0  0  0  0  0  0  0  0  0  0  0  0
   22.9418   -9.6050  -14.1524 N   0  0  0  0  0  0  0  0  0  0  0  0
   23.7753   -9.7282  -15.1966 C   0  0  0  0  0  0  0  0  0  0  0  0
   23.5556   -8.7272  -16.0523 N   0  0  0  0  0  0  0  0  0  0  0  0
   20.4595   -4.8036  -15.8392 C   0  0  0  0  0  0  0  0  0  0  0  0
   19.6376   -4.7283  -16.8107 O   0  0  0  0  0  0  0  0  0  0  0  0
   20.8520   -3.5726  -15.2528 N   0  0  0  0  0  0  0  0  0  0  0  0
   20.4027   -2.2906  -15.7673 C   0  0  1  0  0  0  0  0  0  0  0  0
   20.0265   -1.3404  -14.6658 C   0  0  0  0  0  0  0  0  0  0  0  0
   19.5024   -0.0503  -15.1506 C   0  0  0  0  0  0  0  0  0  0  0  0
   19.3488    0.1611  -16.3744 O   0  0  0  0  0  0  0  0  0  0  0  0
   21.3088   -1.6738  -16.7487 C   0  0  0  0  0  0  0  0  0  0  0  0
   22.4483   -2.0673  -17.0727 O   0  0  0  0  0  0  0  0  0  0  0  0
   19.1555    0.9848  -14.2931 O   0  0  0  0  0  0  0  0  0  0  0  0
   20.8865   -0.5072  -17.4232 O   0  0  0  0  0  0  0  0  0  0  0  0
  2 12  2  0
  2  1  1  0
  3  2  1  0
  4  5  1  0
  4  3  2  0
  5 11  2  0
  6  5  1  0
  6  7  1  0
  7  9  1  0
  7  8  1  1
  9 13  1  0
 10  9  2  0
 11 12  1  0
 13 14  1  0
 14 15  1  6
 15 16  1  0
 16 17  2  0
 18 17  1  0
 19 18  1  0
 20 19  2  0
 20 16  1  0
 21 22  2  0
 21 14  1  0
 23 21  1  0
 24 23  1  0
 24 28  1  0
 24 25  1  1
 26 25  1  0
 26 27  2  0
 28 31  1  0
 29 28  2  0
 30 26  1  0
M  END
$$$$
