YHD.pdb
     RDKit          3D

 31 32  0  0  1  0  0  0  0  0999 V2000
   21.7911   -0.0967  -13.1891 O   0  0  0  0  0  0  0  0  0  0  0  0
   21.6798   -1.3555  -13.7678 C   0  0  0  0  0  0  0  0  0  0  0  0
   20.4421   -1.9598  -13.8566 C   0  0  0  0  0  0  0  0  0  0  0  0
   20.2980   -3.2028  -14.4226 C   0  0  0  0  0  0  0  0  0  0  0  0
   21.3965   -3.8967  -14.9267 C   0  0  0  0  0  0  0  0  0  0  0  0
   21.3050   -5.2235  -15.5407 C   0  0  0  0  0  0  0  0  0  0  0  0
   21.4699   -5.1645  -17.0414 C   0  0  2  0  0  0  0  0  0  0  0  0
   20.7877   -4.0168  -17.5515 N   0  0  0  0  0  0  0  0  0  0  0  0
   20.8888   -6.4422  -17.6026 C   0  0  0  0  0  0  0  0  0  0  0  0
   19.6436   -6.5860  -17.6758 O   0  0  0  0  0  0  0  0  0  0  0  0
   22.6159   -3.2793  -14.8287 C   0  0  0  0  0  0  0  0  0  0  0  0
   22.7730   -2.0350  -14.2642 C   0  0  0  0  0  0  0  0  0  0  0  0
   21.7293   -7.4870  -18.0505 N   0  0  0  0  0  0  0  0  0  0  0  0
   21.1765   -8.7294  -18.6627 C   0  0  1  0  0  0  0  0  0  0  0  0
   22.2848   -9.4344  -19.3818 C   0  0  0  0  0  0  0  0  0  0  0  0
   21.8650  -10.6175  -20.1040 C   0  0  0  0  0  0  0  0  0  0  0  0
   21.2604  -10.6826  -21.3345 C   0  0  0  0  0  0  0  0  0  0  0  0
   20.9868  -11.9462  -21.6189 N   0  0  0  0  0  0  0  0  0  0  0  0
   21.4096  -12.6881  -20.5840 C   0  0  0  0  0  0  0  0  0  0  0  0
   21.9442  -11.8861  -19.6603 N   0  0  0  0  0  0  0  0  0  0  0  0
   20.4357   -9.4871  -17.6561 C   0  0  0  0  0  0  0  0  0  0  0  0
   20.8079   -9.4048  -16.4396 O   0  0  0  0  0  0  0  0  0  0  0  0
   19.3121  -10.3142  -17.9138 N   0  0  0  0  0  0  0  0  0  0  0  0
   18.6744  -11.1020  -16.8732 C   0  0  1  0  0  0  0  0  0  0  0  0
   18.3492  -10.2776  -15.6598 C   0  0  0  0  0  0  0  0  0  0  0  0
   17.6083  -11.0184  -14.6224 C   0  0  0  0  0  0  0  0  0  0  0  0
   17.9258  -12.1904  -14.3201 O   0  0  0  0  0  0  0  0  0  0  0  0
   17.5249  -11.8999  -17.3278 C   0  0  0  0  0  0  0  0  0  0  0  0
   17.0079  -11.8960  -18.4640 O   0  0  0  0  0  0  0  0  0  0  0  0
   16.5355  -10.4683  -13.9340 O   0  0  0  0  0  0  0  0  0  0  0  0
   16.9060  -12.7808  -16.4139 O   0  0  0  0  0  0  0  0  0  0  0  0
  2 12  2  0
  2  1  1  0
  3  2  1  0
  4  5  1  0
  4  3  2  0
  5 11  2  0
  6  5  1  0
  6  7  1  0
  7  9  1  0
  7  8  1  6
  9 13  1  0
 10  9  2  0
 11 12  1  0
 13 14  1  0
 14 15  1  1
 15 16  1  0
 16 17  2  0
 18 17  1  0
 19 18  1  0
 20 19  2  0
 20 16  1  0
 21 22  2  0
 21 14  1  0
 23 21  1  0
 24 23  1  0
 24 28  1  0
 24 25  1  1
 26 25  1  0
 26 27  2  0
 28 31  1  0
 29 28  2  0
 30 26  1  0
M  END
$$$$
