YHD.pdb
     RDKit          3D

 31 32  0  0  1  0  0  0  0  0999 V2000
   22.5146  -12.6390  -24.6117 O   0  0  0  0  0  0  0  0  0  0  0  0
   21.9925  -12.0245  -23.4795 C   0  0  0  0  0  0  0  0  0  0  0  0
   22.8242  -11.2987  -22.6511 C   0  0  0  0  0  0  0  0  0  0  0  0
   22.3400  -10.6793  -21.5249 C   0  0  0  0  0  0  0  0  0  0  0  0
   20.9922  -10.7626  -21.1799 C   0  0  0  0  0  0  0  0  0  0  0  0
   20.4184  -10.1243  -19.9929 C   0  0  0  0  0  0  0  0  0  0  0  0
   21.1155  -10.5586  -18.7248 C   0  0  2  0  0  0  0  0  0  0  0  0
   20.6658  -11.8643  -18.3564 N   0  0  0  0  0  0  0  0  0  0  0  0
   20.7753   -9.5409  -17.6600 C   0  0  0  0  0  0  0  0  0  0  0  0
   19.6975   -9.6360  -17.0229 O   0  0  0  0  0  0  0  0  0  0  0  0
   20.1838  -11.4877  -22.0155 C   0  0  0  0  0  0  0  0  0  0  0  0
   20.6568  -12.1123  -23.1460 C   0  0  0  0  0  0  0  0  0  0  0  0
   21.6562   -8.4750  -17.3662 N   0  0  0  0  0  0  0  0  0  0  0  0
   21.3126   -7.4291  -16.3603 C   0  0  1  0  0  0  0  0  0  0  0  0
   22.3535   -7.4495  -15.2840 C   0  0  0  0  0  0  0  0  0  0  0  0
   22.2643   -8.5887  -14.3941 C   0  0  0  0  0  0  0  0  0  0  0  0
   21.3164   -9.5813  -14.3894 C   0  0  0  0  0  0  0  0  0  0  0  0
   21.5566  -10.4081  -13.3838 N   0  0  0  0  0  0  0  0  0  0  0  0
   22.6467   -9.9542  -12.7466 C   0  0  0  0  0  0  0  0  0  0  0  0
   23.0812   -8.8487  -13.3560 N   0  0  0  0  0  0  0  0  0  0  0  0
   21.0660   -6.1572  -17.0367 C   0  0  0  0  0  0  0  0  0  0  0  0
   21.9746   -5.6894  -17.7987 O   0  0  0  0  0  0  0  0  0  0  0  0
   19.8802   -5.3858  -16.9276 N   0  0  0  0  0  0  0  0  0  0  0  0
   19.7118   -4.1206  -17.6214 C   0  0  1  0  0  0  0  0  0  0  0  0
   18.2634   -3.7666  -17.8070 C   0  0  0  0  0  0  0  0  0  0  0  0
   17.4822   -4.8116  -18.4938 C   0  0  0  0  0  0  0  0  0  0  0  0
   16.4436   -5.2807  -17.9769 O   0  0  0  0  0  0  0  0  0  0  0  0
   20.4890   -3.0058  -17.0576 C   0  0  0  0  0  0  0  0  0  0  0  0
   20.5909   -1.8502  -17.5184 O   0  0  0  0  0  0  0  0  0  0  0  0
   17.8472   -5.3256  -19.7307 O   0  0  0  0  0  0  0  0  0  0  0  0
   21.2156   -3.2192  -15.8657 O   0  0  0  0  0  0  0  0  0  0  0  0
  2 12  2  0
  2  1  1  0
  3  2  1  0
  4  5  1  0
  4  3  2  0
  5 11  2  0
  6  5  1  0
  6  7  1  0
  7  9  1  0
  7  8  1  1
  9 13  1  0
 10  9  2  0
 11 12  1  0
 13 14  1  0
 14 15  1  1
 15 16  1  0
 16 17  2  0
 18 17  1  0
 19 18  1  0
 20 19  2  0
 20 16  1  0
 21 22  2  0
 21 14  1  0
 23 21  1  0
 24 23  1  0
 24 28  1  0
 24 25  1  1
 26 25  1  0
 26 27  2  0
 28 31  1  0
 29 28  2  0
 30 26  1  0
M  END
$$$$
