YHD.pdb
     RDKit          3D

 31 32  0  0  1  0  0  0  0  0999 V2000
   15.9846  -29.4439  -15.3750 O   0  0  0  0  0  0  0  0  0  0  0  0
   17.0266  -28.7799  -16.0116 C   0  0  0  0  0  0  0  0  0  0  0  0
   16.7808  -27.5878  -16.6624 C   0  0  0  0  0  0  0  0  0  0  0  0
   17.7882  -26.9068  -17.3010 C   0  0  0  0  0  0  0  0  0  0  0  0
   19.0931  -27.3961  -17.3137 C   0  0  0  0  0  0  0  0  0  0  0  0
   20.2076  -26.7152  -17.9772 C   0  0  0  0  0  0  0  0  0  0  0  0
   20.8122  -25.6394  -17.1056 C   0  0  2  0  0  0  0  0  0  0  0  0
   19.8586  -24.5933  -16.9083 N   0  0  0  0  0  0  0  0  0  0  0  0
   22.0444  -25.1307  -17.8183 C   0  0  0  0  0  0  0  0  0  0  0  0
   21.9262  -24.3739  -18.8132 O   0  0  0  0  0  0  0  0  0  0  0  0
   19.3157  -28.5807  -16.6620 C   0  0  0  0  0  0  0  0  0  0  0  0
   18.3154  -29.2718  -16.0190 C   0  0  0  0  0  0  0  0  0  0  0  0
   23.3386  -25.4949  -17.3811 N   0  0  0  0  0  0  0  0  0  0  0  0
   24.5664  -24.9723  -18.0467 C   0  0  1  0  0  0  0  0  0  0  0  0
   24.5034  -23.4762  -18.0451 C   0  0  0  0  0  0  0  0  0  0  0  0
   25.7041  -22.8314  -18.5352 C   0  0  0  0  0  0  0  0  0  0  0  0
   26.2240  -22.8732  -19.8048 C   0  0  0  0  0  0  0  0  0  0  0  0
   27.3627  -22.1987  -19.8316 N   0  0  0  0  0  0  0  0  0  0  0  0
   27.5756  -21.7271  -18.5936 C   0  0  0  0  0  0  0  0  0  0  0  0
   26.5710  -22.1085  -17.8014 N   0  0  0  0  0  0  0  0  0  0  0  0
   25.7495  -25.5986  -17.4600 C   0  0  0  0  0  0  0  0  0  0  0  0
   25.8588  -25.6177  -16.1901 O   0  0  0  0  0  0  0  0  0  0  0  0
   26.8029  -26.2078  -18.1896 N   0  0  0  0  0  0  0  0  0  0  0  0
   27.9632  -26.7890  -17.5367 C   0  0  1  0  0  0  0  0  0  0  0  0
   28.5260  -27.9471  -18.3109 C   0  0  0  0  0  0  0  0  0  0  0  0
   29.7100  -28.5602  -17.6815 C   0  0  0  0  0  0  0  0  0  0  0  0
   29.6344  -29.0873  -16.5490 O   0  0  0  0  0  0  0  0  0  0  0  0
   29.0008  -25.8180  -17.1555 C   0  0  0  0  0  0  0  0  0  0  0  0
   29.4733  -24.9044  -17.8628 O   0  0  0  0  0  0  0  0  0  0  0  0
   30.9537  -28.5876  -18.2976 O   0  0  0  0  0  0  0  0  0  0  0  0
   29.5522  -25.8882  -15.8573 O   0  0  0  0  0  0  0  0  0  0  0  0
  2 12  2  0
  2  1  1  0
  3  2  1  0
  4  5  1  0
  4  3  2  0
  5 11  2  0
  6  5  1  0
  6  7  1  0
  7  9  1  0
  7  8  1  6
  9 13  1  0
 10  9  2  0
 11 12  1  0
 13 14  1  0
 14 15  1  1
 15 16  1  0
 16 17  2  0
 18 17  1  0
 19 18  1  0
 20 19  2  0
 20 16  1  0
 21 22  2  0
 21 14  1  0
 23 21  1  0
 24 23  1  0
 24 28  1  0
 24 25  1  6
 26 25  1  0
 26 27  2  0
 28 31  1  0
 29 28  2  0
 30 26  1  0
M  END
$$$$
