YHD.pdb
     RDKit          3D

 31 32  0  0  1  0  0  0  0  0999 V2000
   31.2038    6.1039  -13.0109 O   0  0  0  0  0  0  0  0  0  0  0  0
   30.4236    5.8841  -11.8817 C   0  0  0  0  0  0  0  0  0  0  0  0
   29.1870    6.4881  -11.7775 C   0  0  0  0  0  0  0  0  0  0  0  0
   28.3916    6.2916  -10.6752 C   0  0  0  0  0  0  0  0  0  0  0  0
   28.8059    5.4756   -9.6240 C   0  0  0  0  0  0  0  0  0  0  0  0
   28.0024    5.2286   -8.4244 C   0  0  0  0  0  0  0  0  0  0  0  0
   27.4261    3.8320   -8.4077 C   0  0  2  0  0  0  0  0  0  0  0  0
   26.4698    3.6979   -9.4614 N   0  0  0  0  0  0  0  0  0  0  0  0
   26.7824    3.6333   -7.0545 C   0  0  0  0  0  0  0  0  0  0  0  0
   25.5913    3.9843   -6.8687 O   0  0  0  0  0  0  0  0  0  0  0  0
   30.0365    4.8855   -9.7473 C   0  0  0  0  0  0  0  0  0  0  0  0
   30.8420    5.0745  -10.8460 C   0  0  0  0  0  0  0  0  0  0  0  0
   27.5037    3.0544   -5.9852 N   0  0  0  0  0  0  0  0  0  0  0  0
   26.8842    2.8448   -4.6450 C   0  0  1  0  0  0  0  0  0  0  0  0
   26.3805    1.4364   -4.5732 C   0  0  0  0  0  0  0  0  0  0  0  0
   25.8775    1.0519   -3.2707 C   0  0  0  0  0  0  0  0  0  0  0  0
   26.5752    0.4891   -2.2312 C   0  0  0  0  0  0  0  0  0  0  0  0
   25.7422    0.2369   -1.2337 N   0  0  0  0  0  0  0  0  0  0  0  0
   24.5211    0.6319   -1.6248 C   0  0  0  0  0  0  0  0  0  0  0  0
   24.5970    1.1280   -2.8619 N   0  0  0  0  0  0  0  0  0  0  0  0
   27.8073    3.2854   -3.6011 C   0  0  0  0  0  0  0  0  0  0  0  0
   29.0587    3.2420   -3.8403 O   0  0  0  0  0  0  0  0  0  0  0  0
   27.4293    3.7757   -2.3245 N   0  0  0  0  0  0  0  0  0  0  0  0
   28.4057    4.2111   -1.3410 C   0  0  1  0  0  0  0  0  0  0  0  0
   29.5075    3.2065   -1.1558 C   0  0  0  0  0  0  0  0  0  0  0  0
   30.2132    3.3330    0.1327 C   0  0  0  0  0  0  0  0  0  0  0  0
   31.4620    3.3993    0.1768 O   0  0  0  0  0  0  0  0  0  0  0  0
   28.9235    5.5717   -1.5540 C   0  0  0  0  0  0  0  0  0  0  0  0
   29.8963    5.9048   -2.2617 O   0  0  0  0  0  0  0  0  0  0  0  0
   29.5450    3.3848    1.3484 O   0  0  0  0  0  0  0  0  0  0  0  0
   28.2820    6.6511   -0.9078 O   0  0  0  0  0  0  0  0  0  0  0  0
  2 12  2  0
  2  1  1  0
  3  2  1  0
  4  5  1  0
  4  3  2  0
  5 11  2  0
  6  5  1  0
  6  7  1  0
  7  9  1  0
  7  8  1  6
  9 13  1  0
 10  9  2  0
 11 12  1  0
 13 14  1  0
 14 15  1  1
 15 16  1  0
 16 17  2  0
 18 17  1  0
 19 18  1  0
 20 19  2  0
 20 16  1  0
 21 22  2  0
 21 14  1  0
 23 21  1  0
 24 23  1  0
 24 28  1  0
 24 25  1  6
 26 25  1  0
 26 27  2  0
 28 31  1  0
 29 28  2  0
 30 26  1  0
M  END
$$$$
