YHD.pdb
     RDKit          3D

 31 32  0  0  1  0  0  0  0  0999 V2000
   38.0532  -36.0328  -10.4548 O   0  0  0  0  0  0  0  0  0  0  0  0
   37.2928  -35.2267  -11.2939 C   0  0  0  0  0  0  0  0  0  0  0  0
   36.6533  -34.1168  -10.7800 C   0  0  0  0  0  0  0  0  0  0  0  0
   35.8945  -33.2999  -11.5820 C   0  0  0  0  0  0  0  0  0  0  0  0
   35.7442  -33.5637  -12.9423 C   0  0  0  0  0  0  0  0  0  0  0  0
   34.9487  -32.7299  -13.8466 C   0  0  0  0  0  0  0  0  0  0  0  0
   35.8177  -31.8611  -14.7257 C   0  0  2  0  0  0  0  0  0  0  0  0
   36.5068  -30.9039  -13.9184 N   0  0  0  0  0  0  0  0  0  0  0  0
   34.9046  -31.1828  -15.7212 C   0  0  0  0  0  0  0  0  0  0  0  0
   34.3194  -30.1162  -15.4104 O   0  0  0  0  0  0  0  0  0  0  0  0
   36.3871  -34.6701  -13.4323 C   0  0  0  0  0  0  0  0  0  0  0  0
   37.1497  -35.4957  -12.6394 C   0  0  0  0  0  0  0  0  0  0  0  0
   34.6959  -31.7323  -17.0070 N   0  0  0  0  0  0  0  0  0  0  0  0
   33.8659  -31.0356  -18.0315 C   0  0  1  0  0  0  0  0  0  0  0  0
   34.7317  -30.7364  -19.2160 C   0  0  0  0  0  0  0  0  0  0  0  0
   35.5528  -29.5527  -19.0669 C   0  0  0  0  0  0  0  0  0  0  0  0
   35.2073  -28.3554  -18.4916 C   0  0  0  0  0  0  0  0  0  0  0  0
   36.2202  -27.5104  -18.6030 N   0  0  0  0  0  0  0  0  0  0  0  0
   37.2079  -28.1546  -19.2430 C   0  0  0  0  0  0  0  0  0  0  0  0
   36.8081  -29.3962  -19.5275 N   0  0  0  0  0  0  0  0  0  0  0  0
   32.6373  -31.7913  -18.2672 C   0  0  0  0  0  0  0  0  0  0  0  0
   32.7296  -33.0404  -18.5041 O   0  0  0  0  0  0  0  0  0  0  0  0
   31.3251  -31.2520  -18.2461 N   0  0  0  0  0  0  0  0  0  0  0  0
   30.1428  -32.0835  -18.3915 C   0  0  1  0  0  0  0  0  0  0  0  0
   28.9888  -31.5719  -17.5766 C   0  0  0  0  0  0  0  0  0  0  0  0
   29.1182  -31.8420  -16.1328 C   0  0  0  0  0  0  0  0  0  0  0  0
   29.9430  -32.6819  -15.7083 O   0  0  0  0  0  0  0  0  0  0  0  0
   29.7595  -32.3634  -19.7841 C   0  0  0  0  0  0  0  0  0  0  0  0
   29.5338  -33.4807  -20.2929 O   0  0  0  0  0  0  0  0  0  0  0  0
   28.3468  -31.1920  -15.1792 O   0  0  0  0  0  0  0  0  0  0  0  0
   29.6193  -31.2811  -20.6803 O   0  0  0  0  0  0  0  0  0  0  0  0
  2 12  2  0
  2  1  1  0
  3  2  1  0
  4  5  1  0
  4  3  2  0
  5 11  2  0
  6  5  1  0
  6  7  1  0
  7  9  1  0
  7  8  1  1
  9 13  1  0
 10  9  2  0
 11 12  1  0
 13 14  1  0
 14 15  1  6
 15 16  1  0
 16 17  2  0
 18 17  1  0
 19 18  1  0
 20 19  2  0
 20 16  1  0
 21 22  2  0
 21 14  1  0
 23 21  1  0
 24 23  1  0
 24 28  1  0
 24 25  1  6
 26 25  1  0
 26 27  2  0
 28 31  1  0
 29 28  2  0
 30 26  1  0
M  END
$$$$
