YHD.pdb
     RDKit          3D

 31 32  0  0  1  0  0  0  0  0999 V2000
    8.9740  -11.9506  -10.8058 O   0  0  0  0  0  0  0  0  0  0  0  0
   10.2110  -11.3534  -11.0186 C   0  0  0  0  0  0  0  0  0  0  0  0
   10.9413  -10.8921   -9.9421 C   0  0  0  0  0  0  0  0  0  0  0  0
   12.1667  -10.2974  -10.1180 C   0  0  0  0  0  0  0  0  0  0  0  0
   12.7148  -10.1393  -11.3897 C   0  0  0  0  0  0  0  0  0  0  0  0
   14.0156   -9.5137  -11.6395 C   0  0  0  0  0  0  0  0  0  0  0  0
   15.0772  -10.5333  -11.9802 C   0  0  2  0  0  0  0  0  0  0  0  0
   15.3210  -11.3659  -10.8443 N   0  0  0  0  0  0  0  0  0  0  0  0
   16.3189   -9.7669  -12.3748 C   0  0  0  0  0  0  0  0  0  0  0  0
   16.9543   -9.1140  -11.5107 O   0  0  0  0  0  0  0  0  0  0  0  0
   11.9739  -10.6039  -12.4445 C   0  0  0  0  0  0  0  0  0  0  0  0
   10.7457  -11.2011  -12.2811 C   0  0  0  0  0  0  0  0  0  0  0  0
   16.7816   -9.7718  -13.7107 N   0  0  0  0  0  0  0  0  0  0  0  0
   18.0062   -9.0251  -14.1185 C   0  0  1  0  0  0  0  0  0  0  0  0
   18.7782   -9.8743  -15.0804 C   0  0  0  0  0  0  0  0  0  0  0  0
   19.9950   -9.2598  -15.5698 C   0  0  0  0  0  0  0  0  0  0  0  0
   21.2798   -9.4750  -15.1375 C   0  0  0  0  0  0  0  0  0  0  0  0
   22.1021   -8.6786  -15.8024 N   0  0  0  0  0  0  0  0  0  0  0  0
   21.3568   -7.9576  -16.6538 C   0  0  0  0  0  0  0  0  0  0  0  0
   20.0754   -8.3064  -16.5169 N   0  0  0  0  0  0  0  0  0  0  0  0
   17.6405   -7.6777  -14.5509 C   0  0  0  0  0  0  0  0  0  0  0  0
   16.4394   -7.4644  -14.9206 O   0  0  0  0  0  0  0  0  0  0  0  0
   18.5159   -6.5616  -14.5879 N   0  0  0  0  0  0  0  0  0  0  0  0
   18.0923   -5.2600  -15.0743 C   0  0  1  0  0  0  0  0  0  0  0  0
   16.8539   -4.7720  -14.3773 C   0  0  0  0  0  0  0  0  0  0  0  0
   16.4527   -3.4084  -14.7692 C   0  0  0  0  0  0  0  0  0  0  0  0
   16.6755   -2.9806  -15.9239 O   0  0  0  0  0  0  0  0  0  0  0  0
   19.1539   -4.2416  -15.1002 C   0  0  0  0  0  0  0  0  0  0  0  0
   19.0559   -3.0618  -15.4960 O   0  0  0  0  0  0  0  0  0  0  0  0
   15.8163   -2.5369  -13.8959 O   0  0  0  0  0  0  0  0  0  0  0  0
   20.4411   -4.5910  -14.6363 O   0  0  0  0  0  0  0  0  0  0  0  0
  2 12  2  0
  2  1  1  0
  3  2  1  0
  4  5  1  0
  4  3  2  0
  5 11  2  0
  6  5  1  0
  6  7  1  0
  7  9  1  0
  7  8  1  1
  9 13  1  0
 10  9  2  0
 11 12  1  0
 13 14  1  0
 14 15  1  6
 15 16  1  0
 16 17  2  0
 18 17  1  0
 19 18  1  0
 20 19  2  0
 20 16  1  0
 21 22  2  0
 21 14  1  0
 23 21  1  0
 24 23  1  0
 24 28  1  0
 24 25  1  1
 26 25  1  0
 26 27  2  0
 28 31  1  0
 29 28  2  0
 30 26  1  0
M  END
$$$$
