YHD.pdb
     RDKit          3D

 31 32  0  0  1  0  0  0  0  0999 V2000
   30.3830  -39.1998   -6.2030 O   0  0  0  0  0  0  0  0  0  0  0  0
   29.4141  -38.2039   -6.2407 C   0  0  0  0  0  0  0  0  0  0  0  0
   29.7974  -36.8781   -6.2592 C   0  0  0  0  0  0  0  0  0  0  0  0
   28.8653  -35.8701   -6.2964 C   0  0  0  0  0  0  0  0  0  0  0  0
   27.5004  -36.1514   -6.3168 C   0  0  0  0  0  0  0  0  0  0  0  0
   26.4608  -35.1201   -6.3565 C   0  0  0  0  0  0  0  0  0  0  0  0
   25.6676  -35.1662   -7.6416 C   0  0  2  0  0  0  0  0  0  0  0  0
   26.4302  -34.5723   -8.6944 N   0  0  0  0  0  0  0  0  0  0  0  0
   24.3837  -34.4062   -7.3986 C   0  0  0  0  0  0  0  0  0  0  0  0
   24.3995  -33.1524   -7.3338 O   0  0  0  0  0  0  0  0  0  0  0  0
   27.1412  -37.4736   -6.2979 C   0  0  0  0  0  0  0  0  0  0  0  0
   28.0651  -38.4918   -6.2606 C   0  0  0  0  0  0  0  0  0  0  0  0
   23.1550  -35.0876   -7.2416 N   0  0  0  0  0  0  0  0  0  0  0  0
   21.8767  -34.3550   -7.0113 C   0  0  1  0  0  0  0  0  0  0  0  0
   20.8798  -34.8140   -8.0300 C   0  0  0  0  0  0  0  0  0  0  0  0
   19.5962  -34.1486   -7.9457 C   0  0  0  0  0  0  0  0  0  0  0  0
   19.1715  -33.2557   -6.9936 C   0  0  0  0  0  0  0  0  0  0  0  0
   17.9153  -32.9198   -7.2412 N   0  0  0  0  0  0  0  0  0  0  0  0
   17.5332  -33.5882   -8.3401 C   0  0  0  0  0  0  0  0  0  0  0  0
   18.5506  -34.3367   -8.7727 N   0  0  0  0  0  0  0  0  0  0  0  0
   21.4980  -34.4557   -5.6033 C   0  0  0  0  0  0  0  0  0  0  0  0
   21.8210  -35.5090   -4.9621 O   0  0  0  0  0  0  0  0  0  0  0  0
   20.7983  -33.4638   -4.8685 N   0  0  0  0  0  0  0  0  0  0  0  0
   20.4317  -33.6460   -3.4747 C   0  0  1  0  0  0  0  0  0  0  0  0
   19.7593  -34.9682   -3.2357 C   0  0  0  0  0  0  0  0  0  0  0  0
   18.5913  -34.8847   -2.3397 C   0  0  0  0  0  0  0  0  0  0  0  0
   17.9900  -35.9183   -1.9708 O   0  0  0  0  0  0  0  0  0  0  0  0
   21.5208  -33.3947   -2.5179 C   0  0  0  0  0  0  0  0  0  0  0  0
   22.6847  -33.0285   -2.7812 O   0  0  0  0  0  0  0  0  0  0  0  0
   18.1005  -33.6769   -1.8627 O   0  0  0  0  0  0  0  0  0  0  0  0
   21.2688  -33.5745   -1.1400 O   0  0  0  0  0  0  0  0  0  0  0  0
  2 12  2  0
  2  1  1  0
  3  2  1  0
  4  5  1  0
  4  3  2  0
  5 11  2  0
  6  5  1  0
  6  7  1  0
  7  9  1  0
  7  8  1  6
  9 13  1  0
 10  9  2  0
 11 12  1  0
 13 14  1  0
 14 15  1  6
 15 16  1  0
 16 17  2  0
 18 17  1  0
 19 18  1  0
 20 19  2  0
 20 16  1  0
 21 22  2  0
 21 14  1  0
 23 21  1  0
 24 23  1  0
 24 28  1  0
 24 25  1  6
 26 25  1  0
 26 27  2  0
 28 31  1  0
 29 28  2  0
 30 26  1  0
M  END
$$$$
