DAA.pdb
     RDKit          3D

 19 18  0  0  1  0  0  0  0  0999 V2000
   14.8015   -8.1100   -8.8073 N   0  0  0  0  0  0  0  0  0  0  0  0
   15.2651   -7.0167   -9.6138 C   0  0  1  0  0  0  0  0  0  0  0  0
   15.6879   -5.9028   -8.7012 C   0  0  0  0  0  0  0  0  0  0  0  0
   14.5654   -5.2297   -8.0421 C   0  0  0  0  0  0  0  0  0  0  0  0
   13.5644   -4.8853   -8.7034 O   0  0  0  0  0  0  0  0  0  0  0  0
   16.3241   -7.4249  -10.5526 C   0  0  0  0  0  0  0  0  0  0  0  0
   17.2509   -8.1761  -10.1874 O   0  0  0  0  0  0  0  0  0  0  0  0
   14.6138   -4.9754   -6.6868 O   0  0  0  0  0  0  0  0  0  0  0  0
   16.8085   -6.9396  -14.2416 C   0  0  0  0  0  0  0  0  0  0  0  0
   17.2844   -7.4383  -12.8739 C   0  0  2  0  0  0  0  0  0  0  0  0
   16.3154   -6.9719  -11.9000 N   0  0  0  0  0  0  0  0  0  0  0  0
   18.5872   -6.7861  -12.6263 C   0  0  0  0  0  0  0  0  0  0  0  0
   18.5914   -5.6405  -12.0888 O   0  0  0  0  0  0  0  0  0  0  0  0
   22.1817   -7.7223  -12.8134 C   0  0  0  0  0  0  0  0  0  0  0  0
   21.0463   -6.7475  -12.5907 C   0  0  2  0  0  0  0  0  0  0  0  0
   19.8265   -7.4040  -12.9719 N   0  0  0  0  0  0  0  0  0  0  0  0
   21.2431   -5.4959  -13.3659 C   0  0  0  0  0  0  0  0  0  0  0  0
   20.6714   -5.3893  -14.4805 O   0  0  0  0  0  0  0  0  0  0  0  0
   22.0118   -4.4447  -12.9419 O   0  0  0  0  0  0  0  0  0  0  0  0
  2  1  1  1
  3  2  1  0
  3  4  1  0
  4  8  1  0
  4  5  2  0
  6  7  2  0
  6  2  1  0
 10  9  1  6
 10 12  1  0
 10 11  1  0
 11  6  1  0
 12 16  1  0
 13 12  2  0
 15 14  1  6
 15 17  1  0
 16 15  1  0
 17 18  2  0
 17 19  1  0
M  END
$$$$
