DAA.pdb
     RDKit          3D

 19 18  0  0  1  0  0  0  0  0999 V2000
   20.3258  -11.5687  -18.4629 N   0  0  0  0  0  0  0  0  0  0  0  0
   21.3451  -10.6640  -18.0122 C   0  0  1  0  0  0  0  0  0  0  0  0
   21.7542   -9.7995  -19.1688 C   0  0  0  0  0  0  0  0  0  0  0  0
   22.3526  -10.5502  -20.2761 C   0  0  0  0  0  0  0  0  0  0  0  0
   21.7983  -10.5677  -21.3943 O   0  0  0  0  0  0  0  0  0  0  0  0
   20.9215   -9.8872  -16.8347 C   0  0  0  0  0  0  0  0  0  0  0  0
   19.8154   -9.3103  -16.8103 O   0  0  0  0  0  0  0  0  0  0  0  0
   23.5319  -11.2399  -20.0833 O   0  0  0  0  0  0  0  0  0  0  0  0
   22.2988   -9.4613  -13.3840 C   0  0  0  0  0  0  0  0  0  0  0  0
   21.3738   -9.0182  -14.5214 C   0  0  2  0  0  0  0  0  0  0  0  0
   21.7644   -9.7759  -15.6954 N   0  0  0  0  0  0  0  0  0  0  0  0
   21.6504   -7.5837  -14.7445 C   0  0  0  0  0  0  0  0  0  0  0  0
   22.6885   -7.2677  -15.3954 O   0  0  0  0  0  0  0  0  0  0  0  0
   19.8354   -4.3778  -14.3753 C   0  0  0  0  0  0  0  0  0  0  0  0
   21.0911   -5.1933  -14.5928 C   0  0  2  0  0  0  0  0  0  0  0  0
   20.7903   -6.5564  -14.2526 N   0  0  0  0  0  0  0  0  0  0  0  0
   22.2227   -4.6780  -13.7804 C   0  0  0  0  0  0  0  0  0  0  0  0
   22.4778   -5.2442  -12.6873 O   0  0  0  0  0  0  0  0  0  0  0  0
   23.0104   -3.6197  -14.1479 O   0  0  0  0  0  0  0  0  0  0  0  0
  2  1  1  6
  3  2  1  0
  3  4  1  0
  4  8  1  0
  4  5  2  0
  6  7  2  0
  6  2  1  0
 10  9  1  1
 10 12  1  0
 10 11  1  0
 11  6  1  0
 12 16  1  0
 13 12  2  0
 15 14  1  1
 15 17  1  0
 16 15  1  0
 17 18  2  0
 17 19  1  0
M  END
$$$$
