DAA.pdb
     RDKit          3D

 19 18  0  0  1  0  0  0  0  0999 V2000
   18.5744  -10.0538  -15.2938 N   0  0  0  0  0  0  0  0  0  0  0  0
   18.5993   -9.1723  -14.1612 C   0  0  1  0  0  0  0  0  0  0  0  0
   19.2882   -7.9021  -14.5666 C   0  0  0  0  0  0  0  0  0  0  0  0
   20.6715   -8.1027  -15.0067 C   0  0  0  0  0  0  0  0  0  0  0  0
   21.1329   -7.4310  -15.9522 O   0  0  0  0  0  0  0  0  0  0  0  0
   17.2562   -8.9450  -13.6008 C   0  0  0  0  0  0  0  0  0  0  0  0
   16.2571   -8.8589  -14.3432 O   0  0  0  0  0  0  0  0  0  0  0  0
   21.4672   -9.0364  -14.3751 O   0  0  0  0  0  0  0  0  0  0  0  0
   15.9153   -8.8355  -10.0994 C   0  0  0  0  0  0  0  0  0  0  0  0
   15.7476   -8.6628  -11.6120 C   0  0  2  0  0  0  0  0  0  0  0  0
   17.0659   -8.8179  -12.1978 N   0  0  0  0  0  0  0  0  0  0  0  0
   15.2740   -7.2785  -11.8203 C   0  0  0  0  0  0  0  0  0  0  0  0
   16.1256   -6.3430  -11.7918 O   0  0  0  0  0  0  0  0  0  0  0  0
   12.1068   -5.6424  -12.8849 C   0  0  0  0  0  0  0  0  0  0  0  0
   13.5587   -5.6355  -12.4591 C   0  0  2  0  0  0  0  0  0  0  0  0
   13.8995   -6.9699  -12.0500 N   0  0  0  0  0  0  0  0  0  0  0  0
   13.8000   -4.6634  -11.3624 C   0  0  0  0  0  0  0  0  0  0  0  0
   13.8399   -5.0945  -10.1821 O   0  0  0  0  0  0  0  0  0  0  0  0
   13.9827   -3.3199  -11.5557 O   0  0  0  0  0  0  0  0  0  0  0  0
  2  1  1  6
  3  2  1  0
  3  4  1  0
  4  8  1  0
  4  5  2  0
  6  7  2  0
  6  2  1  0
 10  9  1  1
 10 12  1  0
 10 11  1  0
 11  6  1  0
 12 16  1  0
 13 12  2  0
 15 14  1  1
 15 17  1  0
 16 15  1  0
 17 18  2  0
 17 19  1  0
M  END
$$$$
