DAA.pdb
     RDKit          3D

 19 18  0  0  1  0  0  0  0  0999 V2000
   23.0088  -19.7236  -15.1855 N   0  0  0  0  0  0  0  0  0  0  0  0
   22.1227  -18.9404  -15.9992 C   0  0  1  0  0  0  0  0  0  0  0  0
   20.7168  -19.3978  -15.7415 C   0  0  0  0  0  0  0  0  0  0  0  0
   20.5017  -20.8176  -16.0339 C   0  0  0  0  0  0  0  0  0  0  0  0
   20.7971  -21.2792  -17.1553 O   0  0  0  0  0  0  0  0  0  0  0  0
   22.3047  -17.4938  -15.7903 C   0  0  0  0  0  0  0  0  0  0  0  0
   22.0264  -16.9634  -14.6957 O   0  0  0  0  0  0  0  0  0  0  0  0
   19.9713  -21.6476  -15.0676 O   0  0  0  0  0  0  0  0  0  0  0  0
   24.1019  -14.8286  -17.6483 C   0  0  0  0  0  0  0  0  0  0  0  0
   23.0195  -15.2430  -16.6471 C   0  0  2  0  0  0  0  0  0  0  0  0
   22.8028  -16.6656  -16.8328 N   0  0  0  0  0  0  0  0  0  0  0  0
   21.7983  -14.5033  -17.0284 C   0  0  0  0  0  0  0  0  0  0  0  0
   21.0870  -14.9643  -17.9680 O   0  0  0  0  0  0  0  0  0  0  0  0
   19.3800  -12.2707  -15.6483 C   0  0  0  0  0  0  0  0  0  0  0  0
   20.2306  -12.6163  -16.8509 C   0  0  2  0  0  0  0  0  0  0  0  0
   21.4026  -13.2976  -16.3750 N   0  0  0  0  0  0  0  0  0  0  0  0
   20.5967  -11.4031  -17.6258 C   0  0  0  0  0  0  0  0  0  0  0  0
   21.7771  -10.9781  -17.5447 O   0  0  0  0  0  0  0  0  0  0  0  0
   19.7258  -10.7141  -18.4273 O   0  0  0  0  0  0  0  0  0  0  0  0
  2  1  1  1
  3  2  1  0
  3  4  1  0
  4  8  1  0
  4  5  2  0
  6  7  2  0
  6  2  1  0
 10  9  1  6
 10 12  1  0
 10 11  1  0
 11  6  1  0
 12 16  1  0
 13 12  2  0
 15 14  1  1
 15 17  1  0
 16 15  1  0
 17 18  2  0
 17 19  1  0
M  END
$$$$
