DAA.pdb
     RDKit          3D

 19 18  0  0  1  0  0  0  0  0999 V2000
   21.9183  -33.4925   -5.0292 N   0  0  0  0  0  0  0  0  0  0  0  0
   22.6477  -34.3775   -5.8926 C   0  0  1  0  0  0  0  0  0  0  0  0
   22.2577  -34.0808   -7.3112 C   0  0  0  0  0  0  0  0  0  0  0  0
   20.8297  -34.2746   -7.5771 C   0  0  0  0  0  0  0  0  0  0  0  0
   20.2564  -35.3163   -7.1973 O   0  0  0  0  0  0  0  0  0  0  0  0
   24.1015  -34.3042   -5.6681 C   0  0  0  0  0  0  0  0  0  0  0  0
   24.8936  -34.9641   -6.3708 O   0  0  0  0  0  0  0  0  0  0  0  0
   20.1157  -33.3037   -8.2489 O   0  0  0  0  0  0  0  0  0  0  0  0
   26.2714  -32.1120   -3.5506 C   0  0  0  0  0  0  0  0  0  0  0  0
   26.0673  -33.3505   -4.4282 C   0  0  2  0  0  0  0  0  0  0  0  0
   24.6381  -33.4780   -4.6432 N   0  0  0  0  0  0  0  0  0  0  0  0
   26.5529  -34.5015   -3.6386 C   0  0  0  0  0  0  0  0  0  0  0  0
   25.7376  -35.0859   -2.8673 O   0  0  0  0  0  0  0  0  0  0  0  0
   29.6308  -36.5638   -3.3623 C   0  0  0  0  0  0  0  0  0  0  0  0
   28.3028  -36.0435   -2.8575 C   0  0  2  0  0  0  0  0  0  0  0  0
   27.8995  -34.9677   -3.7201 N   0  0  0  0  0  0  0  0  0  0  0  0
   28.3967  -35.5891   -1.4465 C   0  0  0  0  0  0  0  0  0  0  0  0
   28.5253  -34.3584   -1.2242 O   0  0  0  0  0  0  0  0  0  0  0  0
   28.3520  -36.4297   -0.3663 O   0  0  0  0  0  0  0  0  0  0  0  0
  2  1  1  1
  3  2  1  0
  3  4  1  0
  4  8  1  0
  4  5  2  0
  6  7  2  0
  6  2  1  0
 10  9  1  1
 10 12  1  0
 10 11  1  0
 11  6  1  0
 12 16  1  0
 13 12  2  0
 15 14  1  6
 15 17  1  0
 16 15  1  0
 17 18  2  0
 17 19  1  0
M  END
$$$$
