DAA.pdb
     RDKit          3D

 19 18  0  0  1  0  0  0  0  0999 V2000
   18.2873  -10.3153  -15.8109 N   0  0  0  0  0  0  0  0  0  0  0  0
   18.9886   -9.2108  -16.4015 C   0  0  1  0  0  0  0  0  0  0  0  0
   18.3460   -8.8943  -17.7203 C   0  0  0  0  0  0  0  0  0  0  0  0
   18.4386   -9.9871  -18.6923 C   0  0  0  0  0  0  0  0  0  0  0  0
   17.4021  -10.4814  -19.1814 O   0  0  0  0  0  0  0  0  0  0  0  0
   19.0575   -8.0473  -15.5010 C   0  0  0  0  0  0  0  0  0  0  0  0
   18.0187   -7.5014  -15.0770 O   0  0  0  0  0  0  0  0  0  0  0  0
   19.6744  -10.4719  -19.0687 O   0  0  0  0  0  0  0  0  0  0  0  0
   21.8411   -6.3626  -13.6590 C   0  0  0  0  0  0  0  0  0  0  0  0
   20.4106   -6.3729  -14.2061 C   0  0  2  0  0  0  0  0  0  0  0  0
   20.3117   -7.5173  -15.0925 N   0  0  0  0  0  0  0  0  0  0  0  0
   20.2575   -5.1279  -14.9873 C   0  0  0  0  0  0  0  0  0  0  0  0
   20.7483   -5.0876  -16.1530 O   0  0  0  0  0  0  0  0  0  0  0  0
   18.2157   -2.0571  -14.7938 C   0  0  0  0  0  0  0  0  0  0  0  0
   19.3741   -2.8602  -15.3437 C   0  0  2  0  0  0  0  0  0  0  0  0
   19.5798   -3.9828  -14.4710 N   0  0  0  0  0  0  0  0  0  0  0  0
   20.6052   -2.0363  -15.4521 C   0  0  0  0  0  0  0  0  0  0  0  0
   21.4655   -2.1278  -14.5400 O   0  0  0  0  0  0  0  0  0  0  0  0
   20.8644   -1.1786  -16.4878 O   0  0  0  0  0  0  0  0  0  0  0  0
  2  1  1  1
  3  2  1  0
  3  4  1  0
  4  8  1  0
  4  5  2  0
  6  7  2  0
  6  2  1  0
 10  9  1  6
 10 12  1  0
 10 11  1  0
 11  6  1  0
 12 16  1  0
 13 12  2  0
 15 14  1  1
 15 17  1  0
 16 15  1  0
 17 18  2  0
 17 19  1  0
M  END
$$$$
