DAA.pdb
     RDKit          3D

 19 18  0  0  1  0  0  0  0  0999 V2000
   19.1606  -12.7710  -16.2919 N   0  0  0  0  0  0  0  0  0  0  0  0
   18.5811  -11.4603  -16.2090 C   0  0  1  0  0  0  0  0  0  0  0  0
   17.6689  -11.4218  -15.0179 C   0  0  0  0  0  0  0  0  0  0  0  0
   16.5239  -12.3297  -15.1295 C   0  0  0  0  0  0  0  0  0  0  0  0
   15.9467  -12.4798  -16.2260 O   0  0  0  0  0  0  0  0  0  0  0  0
   19.6019  -10.3987  -16.1866 C   0  0  0  0  0  0  0  0  0  0  0  0
   20.5628  -10.4490  -15.3924 O   0  0  0  0  0  0  0  0  0  0  0  0
   16.0817  -13.0210  -14.0204 O   0  0  0  0  0  0  0  0  0  0  0  0
   20.2949   -7.4443  -18.3818 C   0  0  0  0  0  0  0  0  0  0  0  0
   20.5281   -8.2496  -17.1000 C   0  0  2  0  0  0  0  0  0  0  0  0
   19.5165   -9.2893  -17.0713 N   0  0  0  0  0  0  0  0  0  0  0  0
   20.3071   -7.3139  -15.9777 C   0  0  0  0  0  0  0  0  0  0  0  0
   19.1230   -7.1399  -15.5668 O   0  0  0  0  0  0  0  0  0  0  0  0
   22.3722   -5.6111  -13.4303 C   0  0  0  0  0  0  0  0  0  0  0  0
   21.0834   -5.8022  -14.1994 C   0  0  2  0  0  0  0  0  0  0  0  0
   21.3784   -6.6089  -15.3512 N   0  0  0  0  0  0  0  0  0  0  0  0
   20.4889   -4.5007  -14.5979 C   0  0  0  0  0  0  0  0  0  0  0  0
   20.0291   -3.7548  -13.6964 O   0  0  0  0  0  0  0  0  0  0  0  0
   20.4090   -4.0589  -15.8917 O   0  0  0  0  0  0  0  0  0  0  0  0
  2  1  1  1
  3  2  1  0
  3  4  1  0
  4  8  1  0
  4  5  2  0
  6  7  2  0
  6  2  1  0
 10  9  1  6
 10 12  1  0
 10 11  1  0
 11  6  1  0
 12 16  1  0
 13 12  2  0
 15 14  1  6
 15 17  1  0
 16 15  1  0
 17 18  2  0
 17 19  1  0
M  END
$$$$
