DAA.pdb
     RDKit          3D

 19 18  0  0  1  0  0  0  0  0999 V2000
   17.8034  -12.0937  -15.7162 N   0  0  0  0  0  0  0  0  0  0  0  0
   17.4569  -10.7038  -15.8086 C   0  0  1  0  0  0  0  0  0  0  0  0
   16.4678  -10.3906  -14.7242 C   0  0  0  0  0  0  0  0  0  0  0  0
   15.2066  -11.1255  -14.8539 C   0  0  0  0  0  0  0  0  0  0  0  0
   14.8839  -11.9742  -13.9974 O   0  0  0  0  0  0  0  0  0  0  0  0
   18.6418   -9.8295  -15.7768 C   0  0  0  0  0  0  0  0  0  0  0  0
   19.5433  -10.0007  -14.9314 O   0  0  0  0  0  0  0  0  0  0  0  0
   14.3726  -10.8797  -15.9253 O   0  0  0  0  0  0  0  0  0  0  0  0
   19.9370   -7.2175  -18.1257 C   0  0  0  0  0  0  0  0  0  0  0  0
   20.0064   -7.9868  -16.8031 C   0  0  2  0  0  0  0  0  0  0  0  0
   18.7870   -8.7675  -16.7106 N   0  0  0  0  0  0  0  0  0  0  0  0
   20.0235   -6.9682  -15.7326 C   0  0  0  0  0  0  0  0  0  0  0  0
   18.9172   -6.5092  -15.3243 O   0  0  0  0  0  0  0  0  0  0  0  0
   22.4135   -5.6444  -13.2627 C   0  0  0  0  0  0  0  0  0  0  0  0
   21.1555   -5.5240  -14.0946 C   0  0  2  0  0  0  0  0  0  0  0  0
   21.2378   -6.4927  -15.1525 N   0  0  0  0  0  0  0  0  0  0  0  0
   20.9921   -4.1519  -14.6394 C   0  0  0  0  0  0  0  0  0  0  0  0
   20.7745   -3.2126  -13.8326 O   0  0  0  0  0  0  0  0  0  0  0  0
   21.0638   -3.8429  -15.9716 O   0  0  0  0  0  0  0  0  0  0  0  0
  2  1  1  1
  3  2  1  0
  3  4  1  0
  4  8  1  0
  4  5  2  0
  6  7  2  0
  6  2  1  0
 10  9  1  6
 10 12  1  0
 10 11  1  0
 11  6  1  0
 12 16  1  0
 13 12  2  0
 15 14  1  6
 15 17  1  0
 16 15  1  0
 17 18  2  0
 17 19  1  0
M  END
$$$$
