DAA.pdb
     RDKit          3D

 19 18  0  0  1  0  0  0  0  0999 V2000
   23.0460  -33.5882   -6.9872 N   0  0  0  0  0  0  0  0  0  0  0  0
   23.3456  -33.8598   -5.6098 C   0  0  1  0  0  0  0  0  0  0  0  0
   22.4120  -34.9305   -5.1258 C   0  0  0  0  0  0  0  0  0  0  0  0
   22.5440  -35.2174   -3.6947 C   0  0  0  0  0  0  0  0  0  0  0  0
   23.3501  -34.5687   -2.9965 O   0  0  0  0  0  0  0  0  0  0  0  0
   24.7645  -34.1967   -5.4028 C   0  0  0  0  0  0  0  0  0  0  0  0
   25.3340  -35.0445   -6.1194 O   0  0  0  0  0  0  0  0  0  0  0  0
   21.7758  -36.2069   -3.1164 O   0  0  0  0  0  0  0  0  0  0  0  0
   27.5124  -32.5126   -3.5688 C   0  0  0  0  0  0  0  0  0  0  0  0
   26.9497  -33.7693   -4.2396 C   0  0  2  0  0  0  0  0  0  0  0  0
   25.5204  -33.5625   -4.3795 N   0  0  0  0  0  0  0  0  0  0  0  0
   27.1983  -34.8848   -3.3027 C   0  0  0  0  0  0  0  0  0  0  0  0
   26.3765  -35.0686   -2.3581 O   0  0  0  0  0  0  0  0  0  0  0  0
   29.5660  -37.7311   -2.9693 C   0  0  0  0  0  0  0  0  0  0  0  0
   28.5097  -36.7819   -2.4475 C   0  0  2  0  0  0  0  0  0  0  0  0
   28.3255  -35.7509   -3.4310 N   0  0  0  0  0  0  0  0  0  0  0  0
   28.8971  -36.2041   -1.1352 C   0  0  0  0  0  0  0  0  0  0  0  0
   29.4752  -35.0877   -1.1231 O   0  0  0  0  0  0  0  0  0  0  0  0
   28.6635  -36.8129    0.0691 O   0  0  0  0  0  0  0  0  0  0  0  0
  2  1  1  6
  3  2  1  0
  3  4  1  0
  4  8  1  0
  4  5  2  0
  6  7  2  0
  6  2  1  0
 10  9  1  1
 10 12  1  0
 10 11  1  0
 11  6  1  0
 12 16  1  0
 13 12  2  0
 15 14  1  6
 15 17  1  0
 16 15  1  0
 17 18  2  0
 17 19  1  0
M  END
$$$$
