DAA.pdb
     RDKit          3D

 19 18  0  0  1  0  0  0  0  0999 V2000
   18.2294  -11.8660  -17.6410 N   0  0  0  0  0  0  0  0  0  0  0  0
   19.1368  -10.7708  -17.8351 C   0  0  1  0  0  0  0  0  0  0  0  0
   18.4834   -9.7718  -18.7447 C   0  0  0  0  0  0  0  0  0  0  0  0
   18.2740  -10.2713  -20.1064 C   0  0  0  0  0  0  0  0  0  0  0  0
   19.1843  -10.8902  -20.6948 O   0  0  0  0  0  0  0  0  0  0  0  0
   19.5833  -10.1828  -16.5605 C   0  0  0  0  0  0  0  0  0  0  0  0
   18.7610   -9.8631  -15.6783 O   0  0  0  0  0  0  0  0  0  0  0  0
   17.0676  -10.0576  -20.7410 O   0  0  0  0  0  0  0  0  0  0  0  0
   22.9021   -9.7756  -14.9128 C   0  0  0  0  0  0  0  0  0  0  0  0
   21.4326   -9.3722  -15.0659 C   0  0  2  0  0  0  0  0  0  0  0  0
   20.9646   -9.9651  -16.3047 N   0  0  0  0  0  0  0  0  0  0  0  0
   21.4184   -7.8994  -15.1866 C   0  0  0  0  0  0  0  0  0  0  0  0
   21.7510   -7.3856  -16.2942 O   0  0  0  0  0  0  0  0  0  0  0  0
   19.6918   -5.0974  -13.9231 C   0  0  0  0  0  0  0  0  0  0  0  0
   21.0532   -5.6286  -14.3147 C   0  0  2  0  0  0  0  0  0  0  0  0
   21.0447   -7.0495  -14.1025 N   0  0  0  0  0  0  0  0  0  0  0  0
   22.1366   -4.9791  -13.5332 C   0  0  0  0  0  0  0  0  0  0  0  0
   22.6300   -5.6076  -12.5626 O   0  0  0  0  0  0  0  0  0  0  0  0
   22.6352   -3.7326  -13.8039 O   0  0  0  0  0  0  0  0  0  0  0  0
  2  1  1  1
  3  2  1  0
  3  4  1  0
  4  8  1  0
  4  5  2  0
  6  7  2  0
  6  2  1  0
 10  9  1  6
 10 12  1  0
 10 11  1  0
 11  6  1  0
 12 16  1  0
 13 12  2  0
 15 14  1  1
 15 17  1  0
 16 15  1  0
 17 18  2  0
 17 19  1  0
M  END
$$$$
