DAA.pdb
     RDKit          3D

 19 18  0  0  1  0  0  0  0  0999 V2000
   18.7790  -12.7245  -16.5386 N   0  0  0  0  0  0  0  0  0  0  0  0
   19.5697  -11.5873  -16.9156 C   0  0  1  0  0  0  0  0  0  0  0  0
   18.9071  -10.9180  -18.0841 C   0  0  0  0  0  0  0  0  0  0  0  0
   19.1214  -11.6151  -19.3551 C   0  0  0  0  0  0  0  0  0  0  0  0
   19.9503  -12.5454  -19.4286 O   0  0  0  0  0  0  0  0  0  0  0  0
   19.8058  -10.6720  -15.7860 C   0  0  0  0  0  0  0  0  0  0  0  0
   18.8603  -10.2662  -15.0803 O   0  0  0  0  0  0  0  0  0  0  0  0
   18.4055  -11.2432  -20.4745 O   0  0  0  0  0  0  0  0  0  0  0  0
   22.8024   -9.6165  -13.8846 C   0  0  0  0  0  0  0  0  0  0  0  0
   21.3812   -9.3192  -14.3721 C   0  0  2  0  0  0  0  0  0  0  0  0
   21.1193  -10.2281  -15.4723 N   0  0  0  0  0  0  0  0  0  0  0  0
   21.3980   -7.9290  -14.8729 C   0  0  0  0  0  0  0  0  0  0  0  0
   21.9222   -7.7052  -16.0027 O   0  0  0  0  0  0  0  0  0  0  0  0
   19.7255   -4.7432  -14.1897 C   0  0  0  0  0  0  0  0  0  0  0  0
   20.9229   -5.5228  -14.6872 C   0  0  2  0  0  0  0  0  0  0  0  0
   20.8464   -6.8439  -14.1276 N   0  0  0  0  0  0  0  0  0  0  0  0
   22.1982   -4.8587  -14.3145 C   0  0  0  0  0  0  0  0  0  0  0  0
   22.7358   -5.1718  -13.2221 O   0  0  0  0  0  0  0  0  0  0  0  0
   22.8293   -3.9221  -15.0891 O   0  0  0  0  0  0  0  0  0  0  0  0
  2  1  1  1
  3  2  1  0
  3  4  1  0
  4  8  1  0
  4  5  2  0
  6  7  2  0
  6  2  1  0
 10  9  1  6
 10 12  1  0
 10 11  1  0
 11  6  1  0
 12 16  1  0
 13 12  2  0
 15 14  1  1
 15 17  1  0
 16 15  1  0
 17 18  2  0
 17 19  1  0
M  END
$$$$
