DAA.pdb
     RDKit          3D

 19 18  0  0  1  0  0  0  0  0999 V2000
   16.0689  -10.2981  -11.6332 N   0  0  0  0  0  0  0  0  0  0  0  0
   16.1416   -8.8657  -11.6935 C   0  0  1  0  0  0  0  0  0  0  0  0
   16.2797   -8.3406  -10.2944 C   0  0  0  0  0  0  0  0  0  0  0  0
   15.1391   -8.6653   -9.4334 C   0  0  0  0  0  0  0  0  0  0  0  0
   13.9798   -8.6510   -9.8957 O   0  0  0  0  0  0  0  0  0  0  0  0
   17.2109   -8.3980  -12.5919 C   0  0  0  0  0  0  0  0  0  0  0  0
   18.3362   -8.9370  -12.5853 O   0  0  0  0  0  0  0  0  0  0  0  0
   15.3459   -8.9879   -8.1079 O   0  0  0  0  0  0  0  0  0  0  0  0
   17.2520   -6.0623  -15.5090 C   0  0  0  0  0  0  0  0  0  0  0  0
   17.9824   -6.9069  -14.4607 C   0  0  2  0  0  0  0  0  0  0  0  0
   16.9860   -7.3192  -13.4899 N   0  0  0  0  0  0  0  0  0  0  0  0
   18.9605   -6.0078  -13.8136 C   0  0  0  0  0  0  0  0  0  0  0  0
   18.5479   -5.2245  -12.9094 O   0  0  0  0  0  0  0  0  0  0  0  0
   22.6397   -5.5484  -13.7399 C   0  0  0  0  0  0  0  0  0  0  0  0
   21.2196   -5.0905  -13.4892 C   0  0  2  0  0  0  0  0  0  0  0  0
   20.3413   -5.9976  -14.1748 N   0  0  0  0  0  0  0  0  0  0  0  0
   21.0085   -3.6940  -13.9489 C   0  0  0  0  0  0  0  0  0  0  0  0
   20.4896   -3.5108  -15.0793 O   0  0  0  0  0  0  0  0  0  0  0  0
   21.3449   -2.5870  -13.2162 O   0  0  0  0  0  0  0  0  0  0  0  0
  2  1  1  1
  3  2  1  0
  3  4  1  0
  4  8  1  0
  4  5  2  0
  6  7  2  0
  6  2  1  0
 10  9  1  6
 10 12  1  0
 10 11  1  0
 11  6  1  0
 12 16  1  0
 13 12  2  0
 15 14  1  6
 15 17  1  0
 16 15  1  0
 17 18  2  0
 17 19  1  0
M  END
$$$$
