DAA.pdb
     RDKit          3D

 19 18  0  0  1  0  0  0  0  0999 V2000
   14.8297   -9.6643  -13.7525 N   0  0  0  0  0  0  0  0  0  0  0  0
   16.1298   -9.6563  -13.1441 C   0  0  1  0  0  0  0  0  0  0  0  0
   17.0520  -10.4851  -13.9898 C   0  0  0  0  0  0  0  0  0  0  0  0
   16.7479  -11.9182  -13.9532 C   0  0  0  0  0  0  0  0  0  0  0  0
   15.8071  -12.3424  -13.2511 O   0  0  0  0  0  0  0  0  0  0  0  0
   16.6309   -8.2903  -12.9152 C   0  0  0  0  0  0  0  0  0  0  0  0
   16.5562   -7.4213  -13.8074 O   0  0  0  0  0  0  0  0  0  0  0  0
   17.5029  -12.8021  -14.6965 O   0  0  0  0  0  0  0  0  0  0  0  0
   18.0224   -6.5085   -9.9217 C   0  0  0  0  0  0  0  0  0  0  0  0
   17.7372   -6.5983  -11.4238 C   0  0  2  0  0  0  0  0  0  0  0  0
   17.2127   -7.9285  -11.6696 N   0  0  0  0  0  0  0  0  0  0  0  0
   19.0416   -6.4483  -12.1022 C   0  0  0  0  0  0  0  0  0  0  0  0
   19.8354   -7.4337  -12.0995 O   0  0  0  0  0  0  0  0  0  0  0  0
   20.6373   -4.0754  -14.4433 C   0  0  0  0  0  0  0  0  0  0  0  0
   20.6910   -5.2025  -13.4354 C   0  0  2  0  0  0  0  0  0  0  0  0
   19.4273   -5.2378  -12.7527 N   0  0  0  0  0  0  0  0  0  0  0  0
   21.8106   -5.0224  -12.4761 C   0  0  0  0  0  0  0  0  0  0  0  0
   22.9857   -5.0346  -12.9227 O   0  0  0  0  0  0  0  0  0  0  0  0
   21.6437   -4.8429  -11.1287 O   0  0  0  0  0  0  0  0  0  0  0  0
  2  1  1  6
  3  2  1  0
  3  4  1  0
  4  8  1  0
  4  5  2  0
  6  7  2  0
  6  2  1  0
 10  9  1  1
 10 12  1  0
 10 11  1  0
 11  6  1  0
 12 16  1  0
 13 12  2  0
 15 14  1  6
 15 17  1  0
 16 15  1  0
 17 18  2  0
 17 19  1  0
M  END
$$$$
