DAA.pdb
     RDKit          3D

 19 18  0  0  1  0  0  0  0  0999 V2000
   18.9528  -10.4746  -17.6487 N   0  0  0  0  0  0  0  0  0  0  0  0
   19.9378   -9.4404  -17.7930 C   0  0  1  0  0  0  0  0  0  0  0  0
   19.9617   -9.0084  -19.2300 C   0  0  0  0  0  0  0  0  0  0  0  0
   20.3126  -10.0866  -20.1583 C   0  0  0  0  0  0  0  0  0  0  0  0
   19.7032  -10.2055  -21.2412 O   0  0  0  0  0  0  0  0  0  0  0  0
   19.7152   -8.3230  -16.8596 C   0  0  0  0  0  0  0  0  0  0  0  0
   18.5821   -7.8194  -16.7199 O   0  0  0  0  0  0  0  0  0  0  0  0
   21.3192  -10.9735  -19.8358 O   0  0  0  0  0  0  0  0  0  0  0  0
   21.8065   -6.6847  -14.2320 C   0  0  0  0  0  0  0  0  0  0  0  0
   20.6018   -6.6811  -15.1777 C   0  0  2  0  0  0  0  0  0  0  0  0
   20.7881   -7.7903  -16.0941 N   0  0  0  0  0  0  0  0  0  0  0  0
   20.6657   -5.4072  -15.9241 C   0  0  0  0  0  0  0  0  0  0  0  0
   21.4613   -5.3265  -16.9048 O   0  0  0  0  0  0  0  0  0  0  0  0
   18.5918   -2.4522  -16.4212 C   0  0  0  0  0  0  0  0  0  0  0  0
   19.9601   -3.0967  -16.3865 C   0  0  2  0  0  0  0  0  0  0  0  0
   19.8653   -4.2783  -15.5747 N   0  0  0  0  0  0  0  0  0  0  0  0
   20.9875   -2.1653  -15.8546 C   0  0  0  0  0  0  0  0  0  0  0  0
   21.3571   -2.3045  -14.6610 O   0  0  0  0  0  0  0  0  0  0  0  0
   21.5612   -1.1589  -16.5851 O   0  0  0  0  0  0  0  0  0  0  0  0
  2  1  1  6
  3  2  1  0
  3  4  1  0
  4  8  1  0
  4  5  2  0
  6  7  2  0
  6  2  1  0
 10  9  1  1
 10 12  1  0
 10 11  1  0
 11  6  1  0
 12 16  1  0
 13 12  2  0
 15 14  1  1
 15 17  1  0
 16 15  1  0
 17 18  2  0
 17 19  1  0
M  END
$$$$
