SYC.pdb
     RDKit          3D

 25 25  0  0  1  0  0  0  0  0999 V2000
   24.0639  -14.1762  -15.3467 O   0  0  0  0  0  0  0  0  0  0  0  0
   23.7825  -12.8809  -15.7131 C   0  0  0  0  0  0  0  0  0  0  0  0
   24.2009  -12.5800  -17.1363 C   0  0  2  0  0  0  0  0  0  0  0  0
   25.6120  -12.7799  -17.3132 N   0  0  0  0  0  0  0  0  0  0  0  0
   23.8247  -11.2135  -17.5490 C   0  0  0  0  0  0  0  0  0  0  0  0
   24.6891  -10.3116  -17.5230 O   0  0  0  0  0  0  0  0  0  0  0  0
   18.8590   -4.7222  -20.7261 O   0  0  0  0  0  0  0  0  0  0  0  0
   19.3511   -5.9533  -20.3407 C   0  0  0  0  0  0  0  0  0  0  0  0
   20.4295   -6.4954  -20.9950 C   0  0  0  0  0  0  0  0  0  0  0  0
   20.8695   -7.7360  -20.5533 C   0  0  0  0  0  0  0  0  0  0  0  0
   20.2685   -8.4036  -19.5144 C   0  0  0  0  0  0  0  0  0  0  0  0
   20.7696   -9.7058  -19.0881 C   0  0  0  0  0  0  0  0  0  0  0  0
   22.0898   -9.6092  -18.3249 C   0  0  2  0  0  0  0  0  0  0  0  0
   22.5036  -10.9435  -17.9650 N   0  0  0  0  0  0  0  0  0  0  0  0
   21.7853   -8.8622  -17.0861 C   0  0  0  0  0  0  0  0  0  0  0  0
   21.3482   -9.5113  -16.1101 O   0  0  0  0  0  0  0  0  0  0  0  0
   19.1900   -7.8418  -18.8738 C   0  0  0  0  0  0  0  0  0  0  0  0
   18.7293   -6.5984  -19.2977 C   0  0  0  0  0  0  0  0  0  0  0  0
   21.9698   -7.4522  -16.9689 N   0  0  0  0  0  0  0  0  0  0  0  0
   21.8273   -6.7620  -15.6957 C   0  0  1  0  0  0  0  0  0  0  0  0
   22.9844   -7.0351  -14.7674 C   0  0  0  0  0  0  0  0  0  0  0  0
   22.7159   -6.0415  -13.2689 S   0  0  0  0  0  0  0  0  0  0  0  0
   21.7830   -5.3016  -15.9358 C   0  0  0  0  0  0  0  0  0  0  0  0
   21.4255   -4.3792  -14.9685 O   0  0  0  0  0  0  0  0  0  0  0  0
   22.0878   -4.8759  -17.0843 O   0  0  0  0  0  0  0  0  0  0  0  0
  1  2  1  0
  2  3  1  0
  3  4  1  1
  5  3  1  0
  5  6  2  0
  7  8  1  0
  8  9  2  0
  8 18  1  0
  9 10  1  0
 10 11  2  0
 11 12  1  0
 13 12  1  6
 13 14  1  0
 13 15  1  0
 14  5  1  0
 15 19  1  0
 16 15  2  0
 17 11  1  0
 18 17  2  0
 19 20  1  0
 20 23  1  0
 21 22  1  0
 20 21  1  1
 23 25  2  0
 23 24  1  0
M  END
$$$$
