SYC.pdb
     RDKit          3D

 25 25  0  0  1  0  0  0  0  0999 V2000
   13.7621  -10.3171  -10.6150 O   0  0  0  0  0  0  0  0  0  0  0  0
   14.4064  -10.1596   -9.4103 C   0  0  0  0  0  0  0  0  0  0  0  0
   14.4121   -8.7199   -8.9428 C   0  0  2  0  0  0  0  0  0  0  0  0
   13.0755   -8.2050   -8.8399 N   0  0  0  0  0  0  0  0  0  0  0  0
   15.2250   -7.8542   -9.8195 C   0  0  0  0  0  0  0  0  0  0  0  0
   14.6482   -7.0627  -10.5955 O   0  0  0  0  0  0  0  0  0  0  0  0
   22.4906   -4.7706  -13.6766 O   0  0  0  0  0  0  0  0  0  0  0  0
   21.5933   -5.3544  -12.8046 C   0  0  0  0  0  0  0  0  0  0  0  0
   20.7322   -4.5684  -12.0798 C   0  0  0  0  0  0  0  0  0  0  0  0
   19.8581   -5.2243  -11.2232 C   0  0  0  0  0  0  0  0  0  0  0  0
   19.8409   -6.5914  -11.0937 C   0  0  0  0  0  0  0  0  0  0  0  0
   18.9023   -7.2325  -10.1791 C   0  0  0  0  0  0  0  0  0  0  0  0
   17.4557   -7.1500  -10.6644 C   0  0  2  0  0  0  0  0  0  0  0  0
   16.6333   -7.9296   -9.7717 N   0  0  0  0  0  0  0  0  0  0  0  0
   17.4404   -7.7910  -11.9964 C   0  0  0  0  0  0  0  0  0  0  0  0
   17.5675   -9.0346  -12.0430 O   0  0  0  0  0  0  0  0  0  0  0  0
   20.7123   -7.3587  -11.8295 C   0  0  0  0  0  0  0  0  0  0  0  0
   21.5989   -6.7251  -12.6958 C   0  0  0  0  0  0  0  0  0  0  0  0
   17.2883   -7.0522  -13.2077 N   0  0  0  0  0  0  0  0  0  0  0  0
   17.3070   -7.7006  -14.5103 C   0  0  1  0  0  0  0  0  0  0  0  0
   15.9422   -7.7285  -15.1521 C   0  0  0  0  0  0  0  0  0  0  0  0
   15.2819   -6.0361  -15.0822 S   0  0  0  0  0  0  0  0  0  0  0  0
   18.2097   -6.9517  -15.4141 C   0  0  0  0  0  0  0  0  0  0  0  0
   18.6759   -7.4543  -16.6160 O   0  0  0  0  0  0  0  0  0  0  0  0
   18.5730   -5.7932  -15.0692 O   0  0  0  0  0  0  0  0  0  0  0  0
  1  2  1  0
  2  3  1  0
  3  4  1  6
  5  3  1  0
  5  6  2  0
  7  8  1  0
  8  9  2  0
  8 18  1  0
  9 10  1  0
 10 11  2  0
 11 12  1  0
 13 12  1  1
 13 14  1  0
 13 15  1  0
 14  5  1  0
 15 19  1  0
 16 15  2  0
 17 11  1  0
 18 17  2  0
 19 20  1  0
 20 23  1  0
 21 22  1  0
 20 21  1  6
 23 25  2  0
 23 24  1  0
M  END
$$$$
