SYC.pdb
     RDKit          3D

 25 25  0  0  1  0  0  0  0  0999 V2000
   28.0804  -18.5874  -14.9813 O   0  0  0  0  0  0  0  0  0  0  0  0
   27.6993  -19.8819  -14.7162 C   0  0  0  0  0  0  0  0  0  0  0  0
   27.2447  -20.6157  -15.9597 C   0  0  2  0  0  0  0  0  0  0  0  0
   28.2767  -20.6286  -16.9583 N   0  0  0  0  0  0  0  0  0  0  0  0
   26.0029  -20.0459  -16.5185 C   0  0  0  0  0  0  0  0  0  0  0  0
   26.0351  -19.5075  -17.6455 O   0  0  0  0  0  0  0  0  0  0  0  0
   18.3011  -19.0964  -19.8167 O   0  0  0  0  0  0  0  0  0  0  0  0
   19.5170  -19.4360  -19.2577 C   0  0  0  0  0  0  0  0  0  0  0  0
   20.6602  -18.7915  -19.6607 C   0  0  0  0  0  0  0  0  0  0  0  0
   21.8461  -19.1852  -19.0552 C   0  0  0  0  0  0  0  0  0  0  0  0
   21.8933  -20.1690  -18.0983 C   0  0  0  0  0  0  0  0  0  0  0  0
   23.1657  -20.5461  -17.4922 C   0  0  0  0  0  0  0  0  0  0  0  0
   23.5569  -19.6377  -16.3275 C   0  0  2  0  0  0  0  0  0  0  0  0
   24.8028  -20.1153  -15.7792 N   0  0  0  0  0  0  0  0  0  0  0  0
   22.4993  -19.8104  -15.3090 C   0  0  0  0  0  0  0  0  0  0  0  0
   22.5187  -20.8574  -14.6247 O   0  0  0  0  0  0  0  0  0  0  0  0
   20.7361  -20.8009  -17.7100 C   0  0  0  0  0  0  0  0  0  0  0  0
   19.5336  -20.4245  -18.3020 C   0  0  0  0  0  0  0  0  0  0  0  0
   21.4767  -18.8409  -15.0850 N   0  0  0  0  0  0  0  0  0  0  0  0
   20.5049  -18.9836  -14.0114 C   0  0  1  0  0  0  0  0  0  0  0  0
   20.4441  -17.7596  -13.1319 C   0  0  0  0  0  0  0  0  0  0  0  0
   19.7987  -16.3989  -14.1503 S   0  0  0  0  0  0  0  0  0  0  0  0
   19.1587  -19.1801  -14.5960 C   0  0  0  0  0  0  0  0  0  0  0  0
   18.0861  -19.6926  -13.8880 O   0  0  0  0  0  0  0  0  0  0  0  0
   18.9808  -18.8632  -15.8047 O   0  0  0  0  0  0  0  0  0  0  0  0
  1  2  1  0
  2  3  1  0
  3  4  1  6
  5  3  1  0
  5  6  2  0
  7  8  1  0
  8  9  2  0
  8 18  1  0
  9 10  1  0
 10 11  2  0
 11 12  1  0
 13 12  1  6
 13 14  1  0
 13 15  1  0
 14  5  1  0
 15 19  1  0
 16 15  2  0
 17 11  1  0
 18 17  2  0
 19 20  1  0
 20 23  1  0
 21 22  1  0
 20 21  1  1
 23 25  2  0
 23 24  1  0
M  END
$$$$
