SYC.pdb
     RDKit          3D

 25 25  0  0  1  0  0  0  0  0999 V2000
   45.9230  -10.7811   -4.7538 O   0  0  0  0  0  0  0  0  0  0  0  0
   44.9438  -10.2249   -5.5432 C   0  0  0  0  0  0  0  0  0  0  0  0
   44.2037  -11.2617   -6.3608 C   0  0  2  0  0  0  0  0  0  0  0  0
   45.0939  -11.9442   -7.2575 N   0  0  0  0  0  0  0  0  0  0  0  0
   43.0757  -10.6758   -7.1115 C   0  0  0  0  0  0  0  0  0  0  0  0
   43.2271  -10.4044   -8.3217 O   0  0  0  0  0  0  0  0  0  0  0  0
   35.5690   -6.1676   -7.7074 O   0  0  0  0  0  0  0  0  0  0  0  0
   36.5504   -7.0592   -7.3219 C   0  0  0  0  0  0  0  0  0  0  0  0
   37.1291   -6.9471   -6.0821 C   0  0  0  0  0  0  0  0  0  0  0  0
   38.1085   -7.8783   -5.7631 C   0  0  0  0  0  0  0  0  0  0  0  0
   38.4929   -8.8699   -6.6319 C   0  0  0  0  0  0  0  0  0  0  0  0
   39.5275   -9.8244   -6.2485 C   0  0  0  0  0  0  0  0  0  0  0  0
   40.7818   -9.7147   -7.1144 C   0  0  2  0  0  0  0  0  0  0  0  0
   41.8487  -10.4309   -6.4588 N   0  0  0  0  0  0  0  0  0  0  0  0
   41.1284   -8.2779   -7.1412 C   0  0  0  0  0  0  0  0  0  0  0  0
   41.5711   -7.7683   -6.0880 O   0  0  0  0  0  0  0  0  0  0  0  0
   37.8996   -8.9632   -7.8683 C   0  0  0  0  0  0  0  0  0  0  0  0
   36.9147   -8.0414   -8.2125 C   0  0  0  0  0  0  0  0  0  0  0  0
   40.9776   -7.4683   -8.3065 N   0  0  0  0  0  0  0  0  0  0  0  0
   41.3543   -6.0628   -8.3193 C   0  0  1  0  0  0  0  0  0  0  0  0
   42.3026   -5.7377   -9.4463 C   0  0  0  0  0  0  0  0  0  0  0  0
   43.7904   -6.7544   -9.2056 S   0  0  0  0  0  0  0  0  0  0  0  0
   40.1406   -5.2350   -8.5047 C   0  0  0  0  0  0  0  0  0  0  0  0
   38.9609   -5.7192   -9.0419 O   0  0  0  0  0  0  0  0  0  0  0  0
   40.1850   -4.0234   -8.1540 O   0  0  0  0  0  0  0  0  0  0  0  0
  1  2  1  0
  2  3  1  0
  3  4  1  6
  5  3  1  0
  5  6  2  0
  7  8  1  0
  8  9  2  0
  8 18  1  0
  9 10  1  0
 10 11  2  0
 11 12  1  0
 13 12  1  1
 13 14  1  0
 13 15  1  0
 14  5  1  0
 15 19  1  0
 16 15  2  0
 17 11  1  0
 18 17  2  0
 19 20  1  0
 20 23  1  0
 21 22  1  0
 20 21  1  6
 23 25  2  0
 23 24  1  0
M  END
$$$$
