SYC.pdb
     RDKit          3D

 25 25  0  0  1  0  0  0  0  0999 V2000
   25.9475  -25.0178  -17.6985 O   0  0  0  0  0  0  0  0  0  0  0  0
   26.6277  -24.4689  -16.6367 C   0  0  0  0  0  0  0  0  0  0  0  0
   27.2747  -23.1462  -16.9876 C   0  0  2  0  0  0  0  0  0  0  0  0
   28.5635  -23.3451  -17.5890 N   0  0  0  0  0  0  0  0  0  0  0  0
   27.3917  -22.2566  -15.8155 C   0  0  0  0  0  0  0  0  0  0  0  0
   28.5236  -22.0242  -15.3400 O   0  0  0  0  0  0  0  0  0  0  0  0
   28.7215  -16.6799  -18.4304 O   0  0  0  0  0  0  0  0  0  0  0  0
   27.9485  -17.3685  -17.5168 C   0  0  0  0  0  0  0  0  0  0  0  0
   26.9113  -18.1554  -17.9523 C   0  0  0  0  0  0  0  0  0  0  0  0
   26.1775  -18.8180  -16.9773 C   0  0  0  0  0  0  0  0  0  0  0  0
   26.4602  -18.7043  -15.6382 C   0  0  0  0  0  0  0  0  0  0  0  0
   25.6585  -19.4218  -14.6529 C   0  0  0  0  0  0  0  0  0  0  0  0
   26.3205  -20.7162  -14.1829 C   0  0  2  0  0  0  0  0  0  0  0  0
   26.2331  -21.6831  -15.2498 N   0  0  0  0  0  0  0  0  0  0  0  0
   25.5054  -21.1961  -13.0468 C   0  0  0  0  0  0  0  0  0  0  0  0
   24.4630  -21.8356  -13.3102 O   0  0  0  0  0  0  0  0  0  0  0  0
   27.5037  -17.9107  -15.2250 C   0  0  0  0  0  0  0  0  0  0  0  0
   28.2550  -17.2356  -16.1830 C   0  0  0  0  0  0  0  0  0  0  0  0
   25.8614  -20.9586  -11.6856 N   0  0  0  0  0  0  0  0  0  0  0  0
   25.0007  -21.3641  -10.5845 C   0  0  1  0  0  0  0  0  0  0  0  0
   25.6453  -21.1285   -9.2413 C   0  0  0  0  0  0  0  0  0  0  0  0
   26.0412  -19.3571   -9.1397 S   0  0  0  0  0  0  0  0  0  0  0  0
   23.7514  -20.5702  -10.6253 C   0  0  0  0  0  0  0  0  0  0  0  0
   22.6250  -20.8804   -9.8841 O   0  0  0  0  0  0  0  0  0  0  0  0
   23.7125  -19.5566  -11.3764 O   0  0  0  0  0  0  0  0  0  0  0  0
  1  2  1  0
  2  3  1  0
  3  4  1  1
  5  3  1  0
  5  6  2  0
  7  8  1  0
  8  9  2  0
  8 18  1  0
  9 10  1  0
 10 11  2  0
 11 12  1  0
 13 12  1  6
 13 14  1  0
 13 15  1  0
 14  5  1  0
 15 19  1  0
 16 15  2  0
 17 11  1  0
 18 17  2  0
 19 20  1  0
 20 23  1  0
 21 22  1  0
 20 21  1  1
 23 25  2  0
 23 24  1  0
M  END
$$$$
