SYC.pdb
     RDKit          3D

 25 25  0  0  1  0  0  0  0  0999 V2000
   25.5757  -12.3015  -15.4630 O   0  0  0  0  0  0  0  0  0  0  0  0
   24.6220  -11.3245  -15.6279 C   0  0  0  0  0  0  0  0  0  0  0  0
   23.3673  -11.8493  -16.2926 C   0  0  2  0  0  0  0  0  0  0  0  0
   23.6486  -12.3400  -17.6126 N   0  0  0  0  0  0  0  0  0  0  0  0
   22.2989  -10.8321  -16.3446 C   0  0  0  0  0  0  0  0  0  0  0  0
   22.1078  -10.2059  -17.4088 O   0  0  0  0  0  0  0  0  0  0  0  0
   16.2117  -13.8481  -17.3256 O   0  0  0  0  0  0  0  0  0  0  0  0
   16.9528  -12.9218  -16.6191 C   0  0  0  0  0  0  0  0  0  0  0  0
   16.6973  -11.5814  -16.7696 C   0  0  0  0  0  0  0  0  0  0  0  0
   17.4819  -10.7085  -16.0277 C   0  0  0  0  0  0  0  0  0  0  0  0
   18.4699  -11.1455  -15.1797 C   0  0  0  0  0  0  0  0  0  0  0  0
   19.2670  -10.1870  -14.4220 C   0  0  0  0  0  0  0  0  0  0  0  0
   20.4345   -9.6213  -15.2293 C   0  0  2  0  0  0  0  0  0  0  0  0
   21.5117  -10.5803  -15.2007 N   0  0  0  0  0  0  0  0  0  0  0  0
   20.8698   -8.4052  -14.5102 C   0  0  0  0  0  0  0  0  0  0  0  0
   21.5232   -8.5584  -13.4545 O   0  0  0  0  0  0  0  0  0  0  0  0
   18.7083  -12.4924  -15.0448 C   0  0  0  0  0  0  0  0  0  0  0  0
   17.9352  -13.3886  -15.7778 C   0  0  0  0  0  0  0  0  0  0  0  0
   20.5750   -7.0876  -14.9717 N   0  0  0  0  0  0  0  0  0  0  0  0
   21.0478   -5.9040  -14.2693 C   0  0  1  0  0  0  0  0  0  0  0  0
   22.3935   -5.4434  -14.7715 C   0  0  0  0  0  0  0  0  0  0  0  0
   22.8397   -3.9575  -13.8238 S   0  0  0  0  0  0  0  0  0  0  0  0
   20.0889   -4.7960  -14.4823 C   0  0  0  0  0  0  0  0  0  0  0  0
   19.8954   -3.7688  -13.5757 O   0  0  0  0  0  0  0  0  0  0  0  0
   19.4123   -4.7886  -15.5478 O   0  0  0  0  0  0  0  0  0  0  0  0
  1  2  1  0
  2  3  1  0
  3  4  1  6
  5  3  1  0
  5  6  2  0
  7  8  1  0
  8  9  2  0
  8 18  1  0
  9 10  1  0
 10 11  2  0
 11 12  1  0
 13 12  1  1
 13 14  1  0
 13 15  1  0
 14  5  1  0
 15 19  1  0
 16 15  2  0
 17 11  1  0
 18 17  2  0
 19 20  1  0
 20 23  1  0
 21 22  1  0
 20 21  1  6
 23 25  2  0
 23 24  1  0
M  END
$$$$
