SYC.pdb
     RDKit          3D

 25 25  0  0  1  0  0  0  0  0999 V2000
   27.3414  -11.3494  -15.5452 O   0  0  0  0  0  0  0  0  0  0  0  0
   26.3192  -10.5001  -15.8989 C   0  0  0  0  0  0  0  0  0  0  0  0
   25.0178  -11.2337  -16.1428 C   0  0  2  0  0  0  0  0  0  0  0  0
   25.1400  -12.1514  -17.2406 N   0  0  0  0  0  0  0  0  0  0  0  0
   23.8929  -10.3069  -16.3769 C   0  0  0  0  0  0  0  0  0  0  0  0
   23.5650  -10.0341  -17.5513 O   0  0  0  0  0  0  0  0  0  0  0  0
   18.4145  -13.5489  -17.7845 O   0  0  0  0  0  0  0  0  0  0  0  0
   19.0321  -12.5799  -17.0189 C   0  0  0  0  0  0  0  0  0  0  0  0
   19.8391  -12.9464  -15.9705 C   0  0  0  0  0  0  0  0  0  0  0  0
   20.4268  -11.9185  -15.2452 C   0  0  0  0  0  0  0  0  0  0  0  0
   20.2228  -10.5943  -15.5466 C   0  0  0  0  0  0  0  0  0  0  0  0
   20.8639   -9.5514  -14.7530 C   0  0  0  0  0  0  0  0  0  0  0  0
   22.0475   -8.9061  -15.4724 C   0  0  2  0  0  0  0  0  0  0  0  0
   23.2060   -9.7440  -15.2803 N   0  0  0  0  0  0  0  0  0  0  0  0
   22.2817   -7.6175  -14.7867 C   0  0  0  0  0  0  0  0  0  0  0  0
   22.9403   -7.6377  -13.7233 O   0  0  0  0  0  0  0  0  0  0  0  0
   19.4107  -10.2505  -16.6009 C   0  0  0  0  0  0  0  0  0  0  0  0
   18.8095  -11.2626  -17.3441 C   0  0  0  0  0  0  0  0  0  0  0  0
   21.7909   -6.3750  -15.2882 N   0  0  0  0  0  0  0  0  0  0  0  0
   22.0341   -5.1178  -14.5969 C   0  0  1  0  0  0  0  0  0  0  0  0
   22.6963   -4.0968  -15.4883 C   0  0  0  0  0  0  0  0  0  0  0  0
   22.8512   -2.5633  -14.5243 S   0  0  0  0  0  0  0  0  0  0  0  0
   20.7417   -4.5494  -14.1509 C   0  0  0  0  0  0  0  0  0  0  0  0
   20.5942   -3.8018  -12.9960 O   0  0  0  0  0  0  0  0  0  0  0  0
   19.7204   -4.7581  -14.8626 O   0  0  0  0  0  0  0  0  0  0  0  0
  1  2  1  0
  2  3  1  0
  3  4  1  6
  5  3  1  0
  5  6  2  0
  7  8  1  0
  8  9  2  0
  8 18  1  0
  9 10  1  0
 10 11  2  0
 11 12  1  0
 13 12  1  1
 13 14  1  0
 13 15  1  0
 14  5  1  0
 15 19  1  0
 16 15  2  0
 17 11  1  0
 18 17  2  0
 19 20  1  0
 20 23  1  0
 21 22  1  0
 20 21  1  6
 23 25  2  0
 23 24  1  0
M  END
$$$$
