SYC.pdb
     RDKit          3D

 25 25  0  0  1  0  0  0  0  0999 V2000
   26.3705  -15.1027  -18.7654 O   0  0  0  0  0  0  0  0  0  0  0  0
   26.4288  -13.7359  -18.6242 C   0  0  0  0  0  0  0  0  0  0  0  0
   25.6276  -13.2437  -17.4380 C   0  0  2  0  0  0  0  0  0  0  0  0
   24.4085  -13.9887  -17.2931 N   0  0  0  0  0  0  0  0  0  0  0  0
   25.3343  -11.7997  -17.5262 C   0  0  0  0  0  0  0  0  0  0  0  0
   26.2836  -10.9897  -17.5886 O   0  0  0  0  0  0  0  0  0  0  0  0
   21.6060   -4.5552  -20.3081 O   0  0  0  0  0  0  0  0  0  0  0  0
   22.0289   -5.8410  -20.0351 C   0  0  0  0  0  0  0  0  0  0  0  0
   23.3670   -6.1450  -20.0750 C   0  0  0  0  0  0  0  0  0  0  0  0
   23.7184   -7.4577  -19.7895 C   0  0  0  0  0  0  0  0  0  0  0  0
   22.7874   -8.4188  -19.4803 C   0  0  0  0  0  0  0  0  0  0  0  0
   23.2085   -9.7846  -19.1879 C   0  0  0  0  0  0  0  0  0  0  0  0
   23.6712   -9.9630  -17.7426 C   0  0  2  0  0  0  0  0  0  0  0  0
   23.9954  -11.3539  -17.5391 N   0  0  0  0  0  0  0  0  0  0  0  0
   22.5035   -9.6255  -16.9012 C   0  0  0  0  0  0  0  0  0  0  0  0
   21.5733  -10.4596  -16.8387 O   0  0  0  0  0  0  0  0  0  0  0  0
   21.4528   -8.0917  -19.4463 C   0  0  0  0  0  0  0  0  0  0  0  0
   21.0743   -6.7820  -19.7288 C   0  0  0  0  0  0  0  0  0  0  0  0
   22.4042   -8.4031  -16.1718 N   0  0  0  0  0  0  0  0  0  0  0  0
   21.2502   -8.0966  -15.3400 C   0  0  1  0  0  0  0  0  0  0  0  0
   21.1637   -8.9962  -14.1324 C   0  0  0  0  0  0  0  0  0  0  0  0
   19.8076   -8.3723  -13.0947 S   0  0  0  0  0  0  0  0  0  0  0  0
   21.3586   -6.7030  -14.8513 C   0  0  0  0  0  0  0  0  0  0  0  0
   20.2945   -5.9944  -14.3222 O   0  0  0  0  0  0  0  0  0  0  0  0
   22.4818   -6.1316  -14.9214 O   0  0  0  0  0  0  0  0  0  0  0  0
  1  2  1  0
  2  3  1  0
  3  4  1  6
  5  3  1  0
  5  6  2  0
  7  8  1  0
  8  9  2  0
  8 18  1  0
  9 10  1  0
 10 11  2  0
 11 12  1  0
 13 12  1  6
 13 14  1  0
 13 15  1  0
 14  5  1  0
 15 19  1  0
 16 15  2  0
 17 11  1  0
 18 17  2  0
 19 20  1  0
 20 23  1  0
 21 22  1  0
 20 21  1  1
 23 25  2  0
 23 24  1  0
M  END
$$$$
