SYC.pdb
     RDKit          3D

 25 25  0  0  1  0  0  0  0  0999 V2000
   26.8902  -20.6505  -18.4189 O   0  0  0  0  0  0  0  0  0  0  0  0
   28.1338  -20.3728  -17.9016 C   0  0  0  0  0  0  0  0  0  0  0  0
   28.6118  -21.4421  -16.9428 C   0  0  2  0  0  0  0  0  0  0  0  0
   28.9492  -22.6500  -17.6425 N   0  0  0  0  0  0  0  0  0  0  0  0
   27.6199  -21.7256  -15.8871 C   0  0  0  0  0  0  0  0  0  0  0  0
   27.0262  -22.8251  -15.8909 O   0  0  0  0  0  0  0  0  0  0  0  0
   23.7396  -20.8967   -8.0726 O   0  0  0  0  0  0  0  0  0  0  0  0
   24.4828  -20.6798   -9.2158 C   0  0  0  0  0  0  0  0  0  0  0  0
   23.9119  -20.0529  -10.2955 C   0  0  0  0  0  0  0  0  0  0  0  0
   24.7191  -19.8689  -11.4102 C   0  0  0  0  0  0  0  0  0  0  0  0
   26.0268  -20.2865  -11.4497 C   0  0  0  0  0  0  0  0  0  0  0  0
   26.8333  -20.0692  -12.6458 C   0  0  0  0  0  0  0  0  0  0  0  0
   26.5091  -21.0588  -13.7640 C   0  0  2  0  0  0  0  0  0  0  0  0
   27.3553  -20.7593  -14.8933 N   0  0  0  0  0  0  0  0  0  0  0  0
   25.1060  -20.7908  -14.1450 C   0  0  0  0  0  0  0  0  0  0  0  0
   24.8491  -19.6856  -14.6716 O   0  0  0  0  0  0  0  0  0  0  0  0
   26.5777  -20.9122  -10.3568 C   0  0  0  0  0  0  0  0  0  0  0  0
   25.7892  -21.1088   -9.2264 C   0  0  0  0  0  0  0  0  0  0  0  0
   24.0551  -21.7331  -13.9358 N   0  0  0  0  0  0  0  0  0  0  0  0
   22.7116  -21.5117  -14.4490 C   0  0  1  0  0  0  0  0  0  0  0  0
   22.0762  -22.7849  -14.9493 C   0  0  0  0  0  0  0  0  0  0  0  0
   22.4758  -24.0912  -13.7497 S   0  0  0  0  0  0  0  0  0  0  0  0
   21.8561  -20.9833  -13.3620 C   0  0  0  0  0  0  0  0  0  0  0  0
   22.2417  -20.9522  -12.0335 O   0  0  0  0  0  0  0  0  0  0  0  0
   20.7144  -20.5378  -13.6639 O   0  0  0  0  0  0  0  0  0  0  0  0
  1  2  1  0
  2  3  1  0
  3  4  1  6
  5  3  1  0
  5  6  2  0
  7  8  1  0
  8  9  2  0
  8 18  1  0
  9 10  1  0
 10 11  2  0
 11 12  1  0
 13 12  1  1
 13 14  1  0
 13 15  1  0
 14  5  1  0
 15 19  1  0
 16 15  2  0
 17 11  1  0
 18 17  2  0
 19 20  1  0
 20 23  1  0
 21 22  1  0
 20 21  1  1
 23 25  2  0
 23 24  1  0
M  END
$$$$
