SYC.pdb
     RDKit          3D

 25 25  0  0  1  0  0  0  0  0999 V2000
   23.7121   -9.3453  -19.7242 O   0  0  0  0  0  0  0  0  0  0  0  0
   23.8666  -10.3870  -18.8397 C   0  0  0  0  0  0  0  0  0  0  0  0
   22.5680  -11.1198  -18.5788 C   0  0  2  0  0  0  0  0  0  0  0  0
   22.0269  -11.6606  -19.7941 N   0  0  0  0  0  0  0  0  0  0  0  0
   21.5684  -10.2601  -17.9148 C   0  0  0  0  0  0  0  0  0  0  0  0
   20.6978   -9.6933  -18.6091 O   0  0  0  0  0  0  0  0  0  0  0  0
   16.0977  -13.6632  -16.5300 O   0  0  0  0  0  0  0  0  0  0  0  0
   17.0473  -12.7695  -16.0763 C   0  0  0  0  0  0  0  0  0  0  0  0
   16.6780  -11.4922  -15.7345 C   0  0  0  0  0  0  0  0  0  0  0  0
   17.6860  -10.6489  -15.2865 C   0  0  0  0  0  0  0  0  0  0  0  0
   18.9940  -11.0544  -15.1836 C   0  0  0  0  0  0  0  0  0  0  0  0
   20.0163  -10.1291  -14.7069 C   0  0  0  0  0  0  0  0  0  0  0  0
   20.6217   -9.2886  -15.8302 C   0  0  2  0  0  0  0  0  0  0  0  0
   21.6072  -10.0895  -16.5146 N   0  0  0  0  0  0  0  0  0  0  0  0
   21.3117   -8.1634  -15.1644 C   0  0  0  0  0  0  0  0  0  0  0  0
   22.4628   -8.3700  -14.7205 O   0  0  0  0  0  0  0  0  0  0  0  0
   19.3410  -12.3381  -15.5314 C   0  0  0  0  0  0  0  0  0  0  0  0
   18.3487  -13.2035  -15.9836 C   0  0  0  0  0  0  0  0  0  0  0  0
   20.7194   -6.8739  -15.0142 N   0  0  0  0  0  0  0  0  0  0  0  0
   21.4722   -5.7375  -14.5047 C   0  0  1  0  0  0  0  0  0  0  0  0
   22.5807   -5.3233  -15.4401 C   0  0  0  0  0  0  0  0  0  0  0  0
   23.3396   -3.8258  -14.7425 S   0  0  0  0  0  0  0  0  0  0  0  0
   20.5618   -4.5798  -14.3513 C   0  0  0  0  0  0  0  0  0  0  0  0
   20.7196   -3.6079  -13.3792 O   0  0  0  0  0  0  0  0  0  0  0  0
   19.5904   -4.4744  -15.1502 O   0  0  0  0  0  0  0  0  0  0  0  0
  1  2  1  0
  2  3  1  0
  3  4  1  6
  5  3  1  0
  5  6  2  0
  7  8  1  0
  8  9  2  0
  8 18  1  0
  9 10  1  0
 10 11  2  0
 11 12  1  0
 13 12  1  1
 13 14  1  0
 13 15  1  0
 14  5  1  0
 15 19  1  0
 16 15  2  0
 17 11  1  0
 18 17  2  0
 19 20  1  0
 20 23  1  0
 21 22  1  0
 20 21  1  6
 23 25  2  0
 23 24  1  0
M  END
$$$$
