SYC.pdb
     RDKit          3D

 25 25  0  0  1  0  0  0  0  0999 V2000
   28.2025  -18.6564  -15.9067 O   0  0  0  0  0  0  0  0  0  0  0  0
   27.2402  -19.4805  -15.3720 C   0  0  0  0  0  0  0  0  0  0  0  0
   27.7492  -20.2655  -14.1820 C   0  0  2  0  0  0  0  0  0  0  0  0
   28.7580  -21.2078  -14.5780 N   0  0  0  0  0  0  0  0  0  0  0  0
   26.6597  -20.9574  -13.4655 C   0  0  0  0  0  0  0  0  0  0  0  0
   26.6030  -22.2050  -13.5051 O   0  0  0  0  0  0  0  0  0  0  0  0
   27.8545  -20.2228   -6.6102 O   0  0  0  0  0  0  0  0  0  0  0  0
   26.9530  -20.1832   -7.6553 C   0  0  0  0  0  0  0  0  0  0  0  0
   26.2162  -21.2988   -7.9671 C   0  0  0  0  0  0  0  0  0  0  0  0
   25.3298  -21.1854   -9.0298 C   0  0  0  0  0  0  0  0  0  0  0  0
   25.1833  -20.0228   -9.7459 C   0  0  0  0  0  0  0  0  0  0  0  0
   24.2374  -19.9552  -10.8546 C   0  0  0  0  0  0  0  0  0  0  0  0
   24.6348  -20.8536  -12.0250 C   0  0  2  0  0  0  0  0  0  0  0  0
   25.7021  -20.2079  -12.7496 N   0  0  0  0  0  0  0  0  0  0  0  0
   23.4467  -20.9219  -12.9020 C   0  0  0  0  0  0  0  0  0  0  0  0
   23.1954  -19.9264  -13.6167 O   0  0  0  0  0  0  0  0  0  0  0  0
   25.9315  -18.9180   -9.4160 C   0  0  0  0  0  0  0  0  0  0  0  0
   26.8277  -19.0057   -8.3543 C   0  0  0  0  0  0  0  0  0  0  0  0
   22.5932  -22.0640  -12.9592 N   0  0  0  0  0  0  0  0  0  0  0  0
   21.4853  -22.1486  -13.8989 C   0  0  1  0  0  0  0  0  0  0  0  0
   21.1692  -23.5735  -14.2795 C   0  0  0  0  0  0  0  0  0  0  0  0
   22.6957  -24.3020  -14.9459 S   0  0  0  0  0  0  0  0  0  0  0  0
   20.2720  -21.5741  -13.2741 C   0  0  0  0  0  0  0  0  0  0  0  0
   19.0780  -21.3931  -13.9494 O   0  0  0  0  0  0  0  0  0  0  0  0
   20.3306  -21.2313  -12.0608 O   0  0  0  0  0  0  0  0  0  0  0  0
  1  2  1  0
  2  3  1  0
  3  4  1  6
  5  3  1  0
  5  6  2  0
  7  8  1  0
  8  9  2  0
  8 18  1  0
  9 10  1  0
 10 11  2  0
 11 12  1  0
 13 12  1  1
 13 14  1  0
 13 15  1  0
 14  5  1  0
 15 19  1  0
 16 15  2  0
 17 11  1  0
 18 17  2  0
 19 20  1  0
 20 23  1  0
 21 22  1  0
 20 21  1  1
 23 25  2  0
 23 24  1  0
M  END
$$$$
