SYC.pdb
     RDKit          3D

 25 25  0  0  1  0  0  0  0  0999 V2000
   27.4928  -18.9018  -19.6610 O   0  0  0  0  0  0  0  0  0  0  0  0
   26.5398  -19.8600  -19.4064 C   0  0  0  0  0  0  0  0  0  0  0  0
   27.1481  -21.1855  -19.0011 C   0  0  2  0  0  0  0  0  0  0  0  0
   27.7882  -21.8230  -20.1174 N   0  0  0  0  0  0  0  0  0  0  0  0
   26.1519  -22.0933  -18.3991 C   0  0  0  0  0  0  0  0  0  0  0  0
   25.4207  -22.7754  -19.1484 O   0  0  0  0  0  0  0  0  0  0  0  0
   28.8951  -28.0473  -17.2680 O   0  0  0  0  0  0  0  0  0  0  0  0
   28.1516  -26.9911  -16.7800 C   0  0  0  0  0  0  0  0  0  0  0  0
   28.6845  -25.7260  -16.7680 C   0  0  0  0  0  0  0  0  0  0  0  0
   27.8795  -24.7135  -16.2631 C   0  0  0  0  0  0  0  0  0  0  0  0
   26.6099  -24.9466  -15.7943 C   0  0  0  0  0  0  0  0  0  0  0  0
   25.8040  -23.8476  -15.2736 C   0  0  0  0  0  0  0  0  0  0  0  0
   25.0858  -23.0691  -16.3750 C   0  0  2  0  0  0  0  0  0  0  0  0
   26.0373  -22.1798  -16.9953 N   0  0  0  0  0  0  0  0  0  0  0  0
   24.0602  -22.2545  -15.6893 C   0  0  0  0  0  0  0  0  0  0  0  0
   24.4394  -21.2131  -15.1090 O   0  0  0  0  0  0  0  0  0  0  0  0
   26.0967  -26.2216  -15.8160 C   0  0  0  0  0  0  0  0  0  0  0  0
   26.8839  -27.2546  -16.3174 C   0  0  0  0  0  0  0  0  0  0  0  0
   22.6785  -22.6099  -15.6679 N   0  0  0  0  0  0  0  0  0  0  0  0
   21.6777  -21.7645  -15.0342 C   0  0  1  0  0  0  0  0  0  0  0  0
   21.1729  -20.6870  -15.9612 C   0  0  0  0  0  0  0  0  0  0  0  0
   20.8799  -21.4646  -17.5782 S   0  0  0  0  0  0  0  0  0  0  0  0
   20.5166  -22.5953  -14.6416 C   0  0  0  0  0  0  0  0  0  0  0  0
   20.3830  -23.9300  -14.9812 O   0  0  0  0  0  0  0  0  0  0  0  0
   19.6002  -22.0569  -13.9610 O   0  0  0  0  0  0  0  0  0  0  0  0
  1  2  1  0
  2  3  1  0
  3  4  1  6
  5  3  1  0
  5  6  2  0
  7  8  1  0
  8  9  2  0
  8 18  1  0
  9 10  1  0
 10 11  2  0
 11 12  1  0
 13 12  1  1
 13 14  1  0
 13 15  1  0
 14  5  1  0
 15 19  1  0
 16 15  2  0
 17 11  1  0
 18 17  2  0
 19 20  1  0
 20 23  1  0
 21 22  1  0
 20 21  1  6
 23 25  2  0
 23 24  1  0
M  END
$$$$
