SYC.pdb
     RDKit          3D

 25 25  0  0  1  0  0  0  0  0999 V2000
   20.8247  -23.6105  -14.5223 O   0  0  0  0  0  0  0  0  0  0  0  0
   21.6298  -22.5267  -14.7837 C   0  0  0  0  0  0  0  0  0  0  0  0
   21.8725  -21.6782  -13.5538 C   0  0  2  0  0  0  0  0  0  0  0  0
   20.6583  -21.0531  -13.1096 N   0  0  0  0  0  0  0  0  0  0  0  0
   22.9168  -20.6595  -13.7787 C   0  0  0  0  0  0  0  0  0  0  0  0
   22.6278  -19.4521  -13.6375 O   0  0  0  0  0  0  0  0  0  0  0  0
   25.6695  -20.2751   -7.8470 O   0  0  0  0  0  0  0  0  0  0  0  0
   25.8602  -20.4084   -9.2080 C   0  0  0  0  0  0  0  0  0  0  0  0
   25.6834  -21.6304   -9.8081 C   0  0  0  0  0  0  0  0  0  0  0  0
   25.8925  -21.6893  -11.1796 C   0  0  0  0  0  0  0  0  0  0  0  0
   26.2587  -20.5899  -11.9166 C   0  0  0  0  0  0  0  0  0  0  0  0
   26.4663  -20.7045  -13.3561 C   0  0  0  0  0  0  0  0  0  0  0  0
   25.3126  -20.1166  -14.1675 C   0  0  2  0  0  0  0  0  0  0  0  0
   24.2193  -21.0576  -14.1477 N   0  0  0  0  0  0  0  0  0  0  0  0
   25.8112  -20.0057  -15.5548 C   0  0  0  0  0  0  0  0  0  0  0  0
   25.8986  -21.0581  -16.2254 O   0  0  0  0  0  0  0  0  0  0  0  0
   26.4301  -19.3762  -11.2946 C   0  0  0  0  0  0  0  0  0  0  0  0
   26.2265  -19.2906   -9.9201 C   0  0  0  0  0  0  0  0  0  0  0  0
   26.1887  -18.7618  -16.1430 N   0  0  0  0  0  0  0  0  0  0  0  0
   26.6489  -18.6718  -17.5206 C   0  0  1  0  0  0  0  0  0  0  0  0
   26.1192  -17.4443  -18.2189 C   0  0  0  0  0  0  0  0  0  0  0  0
   26.7285  -17.4961  -19.9310 S   0  0  0  0  0  0  0  0  0  0  0  0
   28.1274  -18.5906  -17.5357 C   0  0  0  0  0  0  0  0  0  0  0  0
   28.8636  -17.8965  -16.5919 O   0  0  0  0  0  0  0  0  0  0  0  0
   28.7486  -19.1863  -18.4588 O   0  0  0  0  0  0  0  0  0  0  0  0
  1  2  1  0
  2  3  1  0
  3  4  1  6
  5  3  1  0
  5  6  2  0
  7  8  1  0
  8  9  2  0
  8 18  1  0
  9 10  1  0
 10 11  2  0
 11 12  1  0
 13 12  1  1
 13 14  1  0
 13 15  1  0
 14  5  1  0
 15 19  1  0
 16 15  2  0
 17 11  1  0
 18 17  2  0
 19 20  1  0
 20 23  1  0
 21 22  1  0
 20 21  1  1
 23 25  2  0
 23 24  1  0
M  END
$$$$
