IPS.pdb
     RDKit          3D

 22 22  0  0  1  0  0  0  0  0999 V2000
   20.7568  -14.3414  -20.5513 C   0  0  0  0  0  0  0  0  0  0  0  0
   21.0913  -14.2277  -19.1137 C   0  0  0  0  0  0  0  0  0  0  0  0
   20.7578  -12.9362  -18.4377 C   0  0  2  0  0  0  0  0  0  0  0  0
   21.7406  -11.9106  -19.0490 C   0  0  0  0  0  0  0  0  0  0  0  0
   20.9056  -12.9016  -16.9626 C   0  0  2  0  0  0  0  0  0  0  0  0
   20.0564  -13.9815  -16.4296 N   0  0  0  0  0  0  0  0  0  0  0  0
   20.5875  -11.6323  -16.2857 C   0  0  0  0  0  0  0  0  0  0  0  0
   19.4001  -11.1660  -16.4079 O   0  0  0  0  0  0  0  0  0  0  0  0
   21.5298  -10.9132  -15.5063 N   0  0  0  0  0  0  0  0  0  0  0  0
   22.8709  -11.4013  -15.1738 C   0  0  0  0  0  0  0  0  0  0  0  0
   23.2342  -10.5972  -13.9192 C   0  0  0  0  0  0  0  0  0  0  0  0
   22.7353   -9.2219  -14.3938 C   0  0  0  0  0  0  0  0  0  0  0  0
   21.3775   -9.6349  -14.9186 C   0  0  1  0  0  0  0  0  0  0  0  0
   20.8368   -8.5669  -15.7745 C   0  0  0  0  0  0  0  0  0  0  0  0
   21.1402   -8.3903  -16.9781 O   0  0  0  0  0  0  0  0  0  0  0  0
   17.3429   -6.6842  -14.9080 O   0  0  0  0  0  0  0  0  0  0  0  0
   17.9361   -6.5739  -16.1636 C   0  0  0  0  0  0  0  0  0  0  0  0
   19.4622   -6.4670  -16.0227 C   0  0  2  0  0  0  0  0  0  0  0  0
   19.8831   -7.6102  -15.2714 N   0  0  0  0  0  0  0  0  0  0  0  0
   19.8287   -5.1950  -15.3621 C   0  0  0  0  0  0  0  0  0  0  0  0
   20.3414   -5.2159  -14.2220 O   0  0  0  0  0  0  0  0  0  0  0  0
   19.6106   -4.0017  -15.9895 O   0  0  0  0  0  0  0  0  0  0  0  0
  2  1  1  0
  2  3  1  0
  3  4  1  6
  5  3  1  0
  5  7  1  0
  5  6  1  1
  7  8  2  0
  9  7  1  0
  9 13  1  0
 10 11  1  0
 10  9  1  0
 11 12  1  0
 12 13  1  0
 13 14  1  6
 14 15  2  0
 16 17  1  0
 18 17  1  1
 18 20  1  0
 19 18  1  0
 19 14  1  0
 20 21  2  0
 20 22  1  0
M  END
$$$$
