IPS.pdb
     RDKit          3D

 22 22  0  0  1  0  0  0  0  0999 V2000
   26.3156  -16.9802  -17.9535 C   0  0  0  0  0  0  0  0  0  0  0  0
   27.3380  -17.6184  -17.0939 C   0  0  0  0  0  0  0  0  0  0  0  0
   26.8658  -18.2256  -15.8115 C   0  0  2  0  0  0  0  0  0  0  0  0
   27.4803  -17.3337  -14.7078 C   0  0  0  0  0  0  0  0  0  0  0  0
   27.2682  -19.6295  -15.5542 C   0  0  2  0  0  0  0  0  0  0  0  0
   26.7210  -20.4334  -16.6614 N   0  0  0  0  0  0  0  0  0  0  0  0
   26.8692  -20.2162  -14.2629 C   0  0  0  0  0  0  0  0  0  0  0  0
   25.6340  -20.5116  -14.0920 O   0  0  0  0  0  0  0  0  0  0  0  0
   27.7871  -20.4712  -13.2118 N   0  0  0  0  0  0  0  0  0  0  0  0
   29.2409  -20.3312  -13.3325 C   0  0  0  0  0  0  0  0  0  0  0  0
   29.7728  -21.2296  -12.2088 C   0  0  0  0  0  0  0  0  0  0  0  0
   28.7920  -20.7971  -11.1059 C   0  0  0  0  0  0  0  0  0  0  0  0
   27.5019  -20.8912  -11.8910 C   0  0  1  0  0  0  0  0  0  0  0  0
   26.4385  -20.1682  -11.1755 C   0  0  0  0  0  0  0  0  0  0  0  0
   26.3981  -18.9251  -11.0176 O   0  0  0  0  0  0  0  0  0  0  0  0
   22.6368  -21.2398  -10.9441 O   0  0  0  0  0  0  0  0  0  0  0  0
   23.1016  -20.0257  -10.4436 C   0  0  0  0  0  0  0  0  0  0  0  0
   24.4139  -20.2361   -9.6731 C   0  0  2  0  0  0  0  0  0  0  0  0
   25.3240  -20.8638  -10.5821 N   0  0  0  0  0  0  0  0  0  0  0  0
   24.1737  -21.0546   -8.4644 C   0  0  0  0  0  0  0  0  0  0  0  0
   23.3845  -20.6434   -7.5862 O   0  0  0  0  0  0  0  0  0  0  0  0
   24.8078  -22.2534   -8.3034 O   0  0  0  0  0  0  0  0  0  0  0  0
  2  1  1  0
  2  3  1  0
  3  4  1  1
  5  3  1  0
  5  7  1  0
  5  6  1  6
  7  8  2  0
  9  7  1  0
  9 13  1  0
 10 11  1  0
 10  9  1  0
 11 12  1  0
 12 13  1  0
 13 14  1  1
 14 15  2  0
 16 17  1  0
 18 17  1  6
 18 20  1  0
 19 18  1  0
 19 14  1  0
 20 21  2  0
 20 22  1  0
M  END
$$$$
