IPS.pdb
     RDKit          3D

 22 22  0  0  1  0  0  0  0  0999 V2000
   20.0532  -11.5323    6.2252 C   0  0  0  0  0  0  0  0  0  0  0  0
   19.1119  -12.0175    5.1909 C   0  0  0  0  0  0  0  0  0  0  0  0
   18.3680  -13.2805    5.4868 C   0  0  2  0  0  0  0  0  0  0  0  0
   19.4700  -14.3521    5.6559 C   0  0  0  0  0  0  0  0  0  0  0  0
   17.4172  -13.7493    4.4498 C   0  0  2  0  0  0  0  0  0  0  0  0
   16.3033  -12.7847    4.4339 N   0  0  0  0  0  0  0  0  0  0  0  0
   16.8931  -15.1192    4.5896 C   0  0  0  0  0  0  0  0  0  0  0  0
   16.3011  -15.4284    5.6832 O   0  0  0  0  0  0  0  0  0  0  0  0
   17.0098  -16.1004    3.5718 N   0  0  0  0  0  0  0  0  0  0  0  0
   17.5394  -15.8402    2.2304 C   0  0  0  0  0  0  0  0  0  0  0  0
   16.9406  -16.9765    1.3920 C   0  0  0  0  0  0  0  0  0  0  0  0
   17.1864  -18.1268    2.3829 C   0  0  0  0  0  0  0  0  0  0  0  0
   16.6579  -17.4693    3.6391 C   0  0  1  0  0  0  0  0  0  0  0  0
   17.1201  -18.2202    4.8173 C   0  0  0  0  0  0  0  0  0  0  0  0
   18.1918  -18.0029    5.4306 O   0  0  0  0  0  0  0  0  0  0  0  0
   14.6573  -21.1876    6.4774 O   0  0  0  0  0  0  0  0  0  0  0  0
   15.5564  -20.4870    7.2783 C   0  0  0  0  0  0  0  0  0  0  0  0
   16.8024  -20.1016    6.4665 C   0  0  2  0  0  0  0  0  0  0  0  0
   16.3441  -19.3009    5.3723 N   0  0  0  0  0  0  0  0  0  0  0  0
   17.5157  -21.3160    6.0137 C   0  0  0  0  0  0  0  0  0  0  0  0
   17.4967  -21.6288    4.8033 O   0  0  0  0  0  0  0  0  0  0  0  0
   18.1927  -22.0948    6.9083 O   0  0  0  0  0  0  0  0  0  0  0  0
  2  1  1  0
  2  3  1  0
  3  4  1  6
  5  3  1  0
  5  7  1  0
  5  6  1  1
  7  8  2  0
  9  7  1  0
  9 13  1  0
 10 11  1  0
 10  9  1  0
 11 12  1  0
 12 13  1  0
 13 14  1  1
 14 15  2  0
 16 17  1  0
 18 17  1  6
 18 20  1  0
 19 18  1  0
 19 14  1  0
 20 21  2  0
 20 22  1  0
M  END
$$$$
