IPS.pdb
     RDKit          3D

 22 22  0  0  1  0  0  0  0  0999 V2000
   17.0657  -13.5481  -15.3387 C   0  0  0  0  0  0  0  0  0  0  0  0
   17.5827  -12.7848  -16.4970 C   0  0  0  0  0  0  0  0  0  0  0  0
   18.3674  -11.5469  -16.2004 C   0  0  2  0  0  0  0  0  0  0  0  0
   17.3405  -10.3966  -16.3171 C   0  0  0  0  0  0  0  0  0  0  0  0
   19.5049  -11.2498  -17.1042 C   0  0  2  0  0  0  0  0  0  0  0  0
   20.4552  -12.3674  -16.9654 N   0  0  0  0  0  0  0  0  0  0  0  0
   20.2043   -9.9685  -16.9041 C   0  0  0  0  0  0  0  0  0  0  0  0
   20.9019   -9.8234  -15.8390 O   0  0  0  0  0  0  0  0  0  0  0  0
   20.1435   -8.8997  -17.8349 N   0  0  0  0  0  0  0  0  0  0  0  0
   19.4385   -8.9610  -19.1182 C   0  0  0  0  0  0  0  0  0  0  0  0
   20.1241   -7.8667  -19.9460 C   0  0  0  0  0  0  0  0  0  0  0  0
   20.1785   -6.7788  -18.8603 C   0  0  0  0  0  0  0  0  0  0  0  0
   20.7218   -7.6133  -17.7209 C   0  0  1  0  0  0  0  0  0  0  0  0
   20.5181   -6.9001  -16.4500 C   0  0  0  0  0  0  0  0  0  0  0  0
   19.4670   -6.9375  -15.7676 O   0  0  0  0  0  0  0  0  0  0  0  0
   22.5323   -4.8888  -12.6064 O   0  0  0  0  0  0  0  0  0  0  0  0
   22.6379   -5.5589  -13.8232 C   0  0  0  0  0  0  0  0  0  0  0  0
   21.3708   -5.3376  -14.6632 C   0  0  2  0  0  0  0  0  0  0  0  0
   21.5520   -6.0756  -15.8761 N   0  0  0  0  0  0  0  0  0  0  0  0
   21.1643   -3.8937  -14.9100 C   0  0  0  0  0  0  0  0  0  0  0  0
   21.7049   -3.3520  -15.8988 O   0  0  0  0  0  0  0  0  0  0  0  0
   20.3885   -3.1515  -14.0659 O   0  0  0  0  0  0  0  0  0  0  0  0
  2  1  1  0
  2  3  1  0
  3  4  1  6
  5  3  1  0
  5  7  1  0
  5  6  1  1
  7  8  2  0
  9  7  1  0
  9 13  1  0
 10 11  1  0
 10  9  1  0
 11 12  1  0
 12 13  1  0
 13 14  1  1
 14 15  2  0
 16 17  1  0
 18 17  1  1
 18 20  1  0
 19 18  1  0
 19 14  1  0
 20 21  2  0
 20 22  1  0
M  END
$$$$
