IPS.pdb
     RDKit          3D

 22 22  0  0  1  0  0  0  0  0999 V2000
   15.2378  -12.1679  -15.3381 C   0  0  0  0  0  0  0  0  0  0  0  0
   16.3788  -12.0097  -16.2677 C   0  0  0  0  0  0  0  0  0  0  0  0
   17.4087  -10.9853  -15.9127 C   0  0  2  0  0  0  0  0  0  0  0  0
   16.7389   -9.6298  -16.2372 C   0  0  0  0  0  0  0  0  0  0  0  0
   18.6958  -11.0565  -16.6456 C   0  0  2  0  0  0  0  0  0  0  0  0
   19.2841  -12.3715  -16.3355 N   0  0  0  0  0  0  0  0  0  0  0  0
   19.6791   -9.9917  -16.3805 C   0  0  0  0  0  0  0  0  0  0  0  0
   20.2042   -9.9344  -15.2129 O   0  0  0  0  0  0  0  0  0  0  0  0
   20.0702   -9.0387  -17.3558 N   0  0  0  0  0  0  0  0  0  0  0  0
   19.6851   -9.0969  -18.7685 C   0  0  0  0  0  0  0  0  0  0  0  0
   20.7655   -8.2559  -19.4600 C   0  0  0  0  0  0  0  0  0  0  0  0
   20.8037   -7.0897  -18.4579 C   0  0  0  0  0  0  0  0  0  0  0  0
   20.8730   -7.8877  -17.1741 C   0  0  1  0  0  0  0  0  0  0  0  0
   20.5417   -7.0156  -16.0360 C   0  0  0  0  0  0  0  0  0  0  0  0
   19.3796   -6.7752  -15.6318 O   0  0  0  0  0  0  0  0  0  0  0  0
   22.2401   -4.7031  -12.1293 O   0  0  0  0  0  0  0  0  0  0  0  0
   22.4739   -5.5086  -13.2415 C   0  0  0  0  0  0  0  0  0  0  0  0
   21.2771   -5.4473  -14.2028 C   0  0  2  0  0  0  0  0  0  0  0  0
   21.5689   -6.3495  -15.2750 N   0  0  0  0  0  0  0  0  0  0  0  0
   21.0696   -4.0612  -14.6762 C   0  0  0  0  0  0  0  0  0  0  0  0
   21.6490   -3.6684  -15.7122 O   0  0  0  0  0  0  0  0  0  0  0  0
   20.2508   -3.2108  -13.9894 O   0  0  0  0  0  0  0  0  0  0  0  0
  2  1  1  0
  2  3  1  0
  3  4  1  6
  5  3  1  0
  5  7  1  0
  5  6  1  1
  7  8  2  0
  9  7  1  0
  9 13  1  0
 10 11  1  0
 10  9  1  0
 11 12  1  0
 12 13  1  0
 13 14  1  1
 14 15  2  0
 16 17  1  0
 18 17  1  1
 18 20  1  0
 19 18  1  0
 19 14  1  0
 20 21  2  0
 20 22  1  0
M  END
$$$$
