IPS.pdb
     RDKit          3D

 22 22  0  0  1  0  0  0  0  0999 V2000
   18.2893  -12.5862  -20.4014 C   0  0  0  0  0  0  0  0  0  0  0  0
   19.3006  -12.9026  -19.3676 C   0  0  0  0  0  0  0  0  0  0  0  0
   19.5745  -11.8517  -18.3397 C   0  0  2  0  0  0  0  0  0  0  0  0
   20.5408  -10.8661  -19.0370 C   0  0  0  0  0  0  0  0  0  0  0  0
   20.2043  -12.3069  -17.0767 C   0  0  2  0  0  0  0  0  0  0  0  0
   19.3011  -13.3164  -16.4966 N   0  0  0  0  0  0  0  0  0  0  0  0
   20.5154  -11.2752  -16.0718 C   0  0  0  0  0  0  0  0  0  0  0  0
   19.5533  -10.5491  -15.6368 O   0  0  0  0  0  0  0  0  0  0  0  0
   21.8224  -11.0569  -15.5655 N   0  0  0  0  0  0  0  0  0  0  0  0
   22.9654  -11.9375  -15.8219 C   0  0  0  0  0  0  0  0  0  0  0  0
   23.9150  -11.6251  -14.6586 C   0  0  0  0  0  0  0  0  0  0  0  0
   23.7802  -10.0931  -14.6771 C   0  0  0  0  0  0  0  0  0  0  0  0
   22.2721   -9.9925  -14.7486 C   0  0  1  0  0  0  0  0  0  0  0  0
   21.8901   -8.6311  -15.1560 C   0  0  0  0  0  0  0  0  0  0  0  0
   21.8285   -8.2285  -16.3418 O   0  0  0  0  0  0  0  0  0  0  0  0
   19.5378   -4.6243  -14.3545 O   0  0  0  0  0  0  0  0  0  0  0  0
   19.8851   -5.9290  -14.0113 C   0  0  0  0  0  0  0  0  0  0  0  0
   21.2897   -6.2608  -14.5378 C   0  0  2  0  0  0  0  0  0  0  0  0
   21.5460   -7.6238  -14.1839 N   0  0  0  0  0  0  0  0  0  0  0  0
   22.2868   -5.3335  -13.9594 C   0  0  0  0  0  0  0  0  0  0  0  0
   22.8290   -5.6113  -12.8676 O   0  0  0  0  0  0  0  0  0  0  0  0
   22.6171   -4.1791  -14.6101 O   0  0  0  0  0  0  0  0  0  0  0  0
  2  1  1  0
  2  3  1  0
  3  4  1  6
  5  3  1  0
  5  7  1  0
  5  6  1  1
  7  8  2  0
  9  7  1  0
  9 13  1  0
 10 11  1  0
 10  9  1  0
 11 12  1  0
 12 13  1  0
 13 14  1  6
 14 15  2  0
 16 17  1  0
 18 17  1  1
 18 20  1  0
 19 18  1  0
 19 14  1  0
 20 21  2  0
 20 22  1  0
M  END
$$$$
