IPS.pdb
     RDKit          3D

 22 22  0  0  1  0  0  0  0  0999 V2000
   12.5753   -8.1214  -10.1732 C   0  0  0  0  0  0  0  0  0  0  0  0
   13.5056   -9.0606  -10.8393 C   0  0  0  0  0  0  0  0  0  0  0  0
   14.8533   -8.5321  -11.2143 C   0  0  2  0  0  0  0  0  0  0  0  0
   14.5598   -7.3857  -12.2097 C   0  0  0  0  0  0  0  0  0  0  0  0
   15.7834   -9.4869  -11.8640 C   0  0  2  0  0  0  0  0  0  0  0  0
   16.0986  -10.5171  -10.8586 N   0  0  0  0  0  0  0  0  0  0  0  0
   17.0292   -8.9347  -12.4244 C   0  0  0  0  0  0  0  0  0  0  0  0
   17.9574   -8.5953  -11.6087 O   0  0  0  0  0  0  0  0  0  0  0  0
   17.2453   -8.7693  -13.8166 N   0  0  0  0  0  0  0  0  0  0  0  0
   16.3213   -9.2301  -14.8565 C   0  0  0  0  0  0  0  0  0  0  0  0
   17.2191   -9.3474  -16.0946 C   0  0  0  0  0  0  0  0  0  0  0  0
   17.9919   -8.0285  -15.9249 C   0  0  0  0  0  0  0  0  0  0  0  0
   18.3450   -8.1521  -14.4587 C   0  0  1  0  0  0  0  0  0  0  0  0
   18.7682   -6.8402  -13.9437 C   0  0  0  0  0  0  0  0  0  0  0  0
   17.9952   -5.9691  -13.4795 O   0  0  0  0  0  0  0  0  0  0  0  0
   22.2197   -6.2363  -12.1357 O   0  0  0  0  0  0  0  0  0  0  0  0
   22.0698   -5.2812  -13.1388 C   0  0  0  0  0  0  0  0  0  0  0  0
   20.5895   -5.1461  -13.5268 C   0  0  2  0  0  0  0  0  0  0  0  0
   20.1551   -6.4472  -13.9358 N   0  0  0  0  0  0  0  0  0  0  0  0
   20.4297   -4.1384  -14.5980 C   0  0  0  0  0  0  0  0  0  0  0  0
   20.3993   -4.5056  -15.7928 O   0  0  0  0  0  0  0  0  0  0  0  0
   20.3154   -2.8129  -14.2895 O   0  0  0  0  0  0  0  0  0  0  0  0
  2  1  1  0
  2  3  1  0
  3  4  1  6
  5  3  1  0
  5  7  1  0
  5  6  1  1
  7  8  2  0
  9  7  1  0
  9 13  1  0
 10 11  1  0
 10  9  1  0
 11 12  1  0
 12 13  1  0
 13 14  1  1
 14 15  2  0
 16 17  1  0
 18 17  1  6
 18 20  1  0
 19 18  1  0
 19 14  1  0
 20 21  2  0
 20 22  1  0
M  END
$$$$
