IPS.pdb
     RDKit          3D

 22 22  0  0  1  0  0  0  0  0999 V2000
   18.4742  -11.3183  -21.4165 C   0  0  0  0  0  0  0  0  0  0  0  0
   19.4844  -11.8420  -20.4695 C   0  0  0  0  0  0  0  0  0  0  0  0
   19.8056  -10.9947  -19.2800 C   0  0  2  0  0  0  0  0  0  0  0  0
   20.5049   -9.7467  -19.8672 C   0  0  0  0  0  0  0  0  0  0  0  0
   20.7003  -11.5939  -18.2605 C   0  0  2  0  0  0  0  0  0  0  0  0
   20.0712  -12.8584  -17.8401 N   0  0  0  0  0  0  0  0  0  0  0  0
   21.0156  -10.7729  -17.0783 C   0  0  0  0  0  0  0  0  0  0  0  0
   20.0404  -10.2592  -16.4247 O   0  0  0  0  0  0  0  0  0  0  0  0
   22.3411  -10.5336  -16.6333 N   0  0  0  0  0  0  0  0  0  0  0  0
   23.5256  -11.2164  -17.1608 C   0  0  0  0  0  0  0  0  0  0  0  0
   24.5502  -11.0623  -16.0298 C   0  0  0  0  0  0  0  0  0  0  0  0
   24.2846   -9.5839  -15.6995 C   0  0  0  0  0  0  0  0  0  0  0  0
   22.7734   -9.6268  -15.6366 C   0  0  1  0  0  0  0  0  0  0  0  0
   22.2405   -8.2568  -15.7041 C   0  0  0  0  0  0  0  0  0  0  0  0
   22.0117   -7.6283  -16.7644 O   0  0  0  0  0  0  0  0  0  0  0  0
   19.6391   -4.7710  -13.9609 O   0  0  0  0  0  0  0  0  0  0  0  0
   20.1074   -6.0830  -13.9661 C   0  0  0  0  0  0  0  0  0  0  0  0
   21.5326   -6.1360  -14.5370 C   0  0  2  0  0  0  0  0  0  0  0  0
   21.9314   -7.5104  -14.5102 N   0  0  0  0  0  0  0  0  0  0  0  0
   22.4358   -5.2738  -13.7437 C   0  0  0  0  0  0  0  0  0  0  0  0
   22.6168   -4.0856  -14.0883 O   0  0  0  0  0  0  0  0  0  0  0  0
   23.0709   -5.7675  -12.6400 O   0  0  0  0  0  0  0  0  0  0  0  0
  2  1  1  0
  2  3  1  0
  3  4  1  6
  5  3  1  0
  5  7  1  0
  5  6  1  1
  7  8  2  0
  9  7  1  0
  9 13  1  0
 10 11  1  0
 10  9  1  0
 11 12  1  0
 12 13  1  0
 13 14  1  6
 14 15  2  0
 16 17  1  0
 18 17  1  1
 18 20  1  0
 19 18  1  0
 19 14  1  0
 20 21  2  0
 20 22  1  0
M  END
$$$$
