IPS.pdb
     RDKit          3D

 22 22  0  0  1  0  0  0  0  0999 V2000
   16.3951  -13.2092  -14.7465 C   0  0  0  0  0  0  0  0  0  0  0  0
   16.8579  -12.4749  -15.9457 C   0  0  0  0  0  0  0  0  0  0  0  0
   17.7106  -11.2680  -15.7173 C   0  0  2  0  0  0  0  0  0  0  0  0
   16.7107  -10.1479  -15.3473 C   0  0  0  0  0  0  0  0  0  0  0  0
   18.5258  -10.8043  -16.8660 C   0  0  2  0  0  0  0  0  0  0  0  0
   19.4326  -11.9129  -17.2127 N   0  0  0  0  0  0  0  0  0  0  0  0
   19.2978   -9.5627  -16.6836 C   0  0  0  0  0  0  0  0  0  0  0  0
   20.3313   -9.6022  -15.9270 O   0  0  0  0  0  0  0  0  0  0  0  0
   18.9521   -8.3372  -17.3088 N   0  0  0  0  0  0  0  0  0  0  0  0
   17.8524   -8.1787  -18.2643 C   0  0  0  0  0  0  0  0  0  0  0  0
   18.2441   -6.9157  -19.0414 C   0  0  0  0  0  0  0  0  0  0  0  0
   18.6911   -6.0580  -17.8456 C   0  0  0  0  0  0  0  0  0  0  0  0
   19.5673   -7.0734  -17.1450 C   0  0  1  0  0  0  0  0  0  0  0  0
   19.8248   -6.6303  -15.7655 C   0  0  0  0  0  0  0  0  0  0  0  0
   19.1043   -6.9069  -14.7775 O   0  0  0  0  0  0  0  0  0  0  0  0
   22.2791   -6.1873  -12.0915 O   0  0  0  0  0  0  0  0  0  0  0  0
   21.9886   -6.5273  -13.4109 C   0  0  0  0  0  0  0  0  0  0  0  0
   21.2495   -5.3740  -14.1063 C   0  0  2  0  0  0  0  0  0  0  0  0
   20.9678   -5.8150  -15.4385 N   0  0  0  0  0  0  0  0  0  0  0  0
   22.0760   -4.1472  -14.0840 C   0  0  0  0  0  0  0  0  0  0  0  0
   22.1858   -3.4951  -13.0229 O   0  0  0  0  0  0  0  0  0  0  0  0
   22.7177   -3.7247  -15.2130 O   0  0  0  0  0  0  0  0  0  0  0  0
  2  1  1  0
  2  3  1  0
  3  4  1  6
  5  3  1  0
  5  7  1  0
  5  6  1  1
  7  8  2  0
  9  7  1  0
  9 13  1  0
 10 11  1  0
 10  9  1  0
 11 12  1  0
 12 13  1  0
 13 14  1  1
 14 15  2  0
 16 17  1  0
 18 17  1  1
 18 20  1  0
 19 18  1  0
 19 14  1  0
 20 21  2  0
 20 22  1  0
M  END
$$$$
