IPS.pdb
     RDKit          3D

 22 22  0  0  1  0  0  0  0  0999 V2000
   20.6877  -21.8111  -11.5266 C   0  0  0  0  0  0  0  0  0  0  0  0
   22.1140  -21.7497  -11.1353 C   0  0  0  0  0  0  0  0  0  0  0  0
   22.9919  -20.8177  -11.9077 C   0  0  2  0  0  0  0  0  0  0  0  0
   22.9014  -21.3170  -13.3685 C   0  0  0  0  0  0  0  0  0  0  0  0
   24.4218  -20.7760  -11.5171 C   0  0  2  0  0  0  0  0  0  0  0  0
   24.4544  -20.5024  -10.0695 N   0  0  0  0  0  0  0  0  0  0  0  0
   25.2845  -19.8167  -12.2288 C   0  0  0  0  0  0  0  0  0  0  0  0
   25.0342  -18.5672  -12.0940 O   0  0  0  0  0  0  0  0  0  0  0  0
   26.3744  -20.2136  -13.0454 N   0  0  0  0  0  0  0  0  0  0  0  0
   26.9842  -21.5459  -13.0190 C   0  0  0  0  0  0  0  0  0  0  0  0
   28.3851  -21.3003  -13.5932 C   0  0  0  0  0  0  0  0  0  0  0  0
   27.9810  -20.3838  -14.7604 C   0  0  0  0  0  0  0  0  0  0  0  0
   27.0640  -19.4421  -14.0107 C   0  0  1  0  0  0  0  0  0  0  0  0
   26.2441  -18.6872  -14.9716 C   0  0  0  0  0  0  0  0  0  0  0  0
   25.1892  -19.1099  -15.5012 O   0  0  0  0  0  0  0  0  0  0  0  0
   26.3009  -14.6126  -15.0951 O   0  0  0  0  0  0  0  0  0  0  0  0
   25.2738  -15.3998  -15.6110 C   0  0  0  0  0  0  0  0  0  0  0  0
   25.8556  -16.6129  -16.3526 C   0  0  2  0  0  0  0  0  0  0  0  0
   26.6089  -17.3566  -15.3893 N   0  0  0  0  0  0  0  0  0  0  0  0
   26.6864  -16.1675  -17.4927 C   0  0  0  0  0  0  0  0  0  0  0  0
   27.9271  -16.3163  -17.4489 O   0  0  0  0  0  0  0  0  0  0  0  0
   26.1070  -15.5962  -18.5895 O   0  0  0  0  0  0  0  0  0  0  0  0
  2  1  1  0
  2  3  1  0
  3  4  1  6
  5  3  1  0
  5  7  1  0
  5  6  1  1
  7  8  2  0
  9  7  1  0
  9 13  1  0
 10 11  1  0
 10  9  1  0
 11 12  1  0
 12 13  1  0
 13 14  1  6
 14 15  2  0
 16 17  1  0
 18 17  1  1
 18 20  1  0
 19 18  1  0
 19 14  1  0
 20 21  2  0
 20 22  1  0
M  END
$$$$
