IPS.pdb
     RDKit          3D

 22 22  0  0  1  0  0  0  0  0999 V2000
   18.2822  -11.9859  -20.7742 C   0  0  0  0  0  0  0  0  0  0  0  0
   19.1238  -12.4278  -19.6395 C   0  0  0  0  0  0  0  0  0  0  0  0
   19.4748  -11.3997  -18.6119 C   0  0  2  0  0  0  0  0  0  0  0  0
   20.5809  -10.5466  -19.2752 C   0  0  0  0  0  0  0  0  0  0  0  0
   19.9898  -11.9050  -17.3163 C   0  0  2  0  0  0  0  0  0  0  0  0
   18.9400  -12.7750  -16.7572 N   0  0  0  0  0  0  0  0  0  0  0  0
   20.3943  -10.9008  -16.3170 C   0  0  0  0  0  0  0  0  0  0  0  0
   19.5309  -10.0228  -15.9622 O   0  0  0  0  0  0  0  0  0  0  0  0
   21.6860  -10.8678  -15.7316 N   0  0  0  0  0  0  0  0  0  0  0  0
   22.7047  -11.9045  -15.9193 C   0  0  0  0  0  0  0  0  0  0  0  0
   23.6170  -11.7225  -14.6998 C   0  0  0  0  0  0  0  0  0  0  0  0
   23.7042  -10.1872  -14.7241 C   0  0  0  0  0  0  0  0  0  0  0  0
   22.2331   -9.8727  -14.8872 C   0  0  1  0  0  0  0  0  0  0  0  0
   22.0750   -8.4736  -15.3150 C   0  0  0  0  0  0  0  0  0  0  0  0
   22.2151   -8.0637  -16.4916 O   0  0  0  0  0  0  0  0  0  0  0  0
   19.4501   -5.9448  -14.0270 O   0  0  0  0  0  0  0  0  0  0  0  0
   20.3076   -5.6692  -15.0898 C   0  0  0  0  0  0  0  0  0  0  0  0
   21.7505   -6.0445  -14.7194 C   0  0  2  0  0  0  0  0  0  0  0  0
   21.7349   -7.4339  -14.3762 N   0  0  0  0  0  0  0  0  0  0  0  0
   22.2317   -5.1967  -13.6066 C   0  0  0  0  0  0  0  0  0  0  0  0
   22.4084   -5.7015  -12.4765 O   0  0  0  0  0  0  0  0  0  0  0  0
   22.4832   -3.8694  -13.8069 O   0  0  0  0  0  0  0  0  0  0  0  0
  2  1  1  0
  2  3  1  0
  3  4  1  6
  5  3  1  0
  5  7  1  0
  5  6  1  1
  7  8  2  0
  9  7  1  0
  9 13  1  0
 10 11  1  0
 10  9  1  0
 11 12  1  0
 12 13  1  0
 13 14  1  6
 14 15  2  0
 16 17  1  0
 18 17  1  1
 18 20  1  0
 19 18  1  0
 19 14  1  0
 20 21  2  0
 20 22  1  0
M  END
$$$$
