IPS.pdb
     RDKit          3D

 22 22  0  0  1  0  0  0  0  0999 V2000
   18.9582  -16.6167  -19.8992 C   0  0  0  0  0  0  0  0  0  0  0  0
   19.9136  -16.5791  -18.7691 C   0  0  0  0  0  0  0  0  0  0  0  0
   20.0083  -15.2999  -18.0005 C   0  0  2  0  0  0  0  0  0  0  0  0
   20.7012  -14.3132  -18.9688 C   0  0  0  0  0  0  0  0  0  0  0  0
   20.7869  -15.3395  -16.7391 C   0  0  2  0  0  0  0  0  0  0  0  0
   20.1445  -16.3498  -15.8800 N   0  0  0  0  0  0  0  0  0  0  0  0
   20.9338  -14.0730  -16.0008 C   0  0  0  0  0  0  0  0  0  0  0  0
   19.8682  -13.4609  -15.6376 O   0  0  0  0  0  0  0  0  0  0  0  0
   22.1938  -13.5097  -15.6728 N   0  0  0  0  0  0  0  0  0  0  0  0
   23.4762  -14.1976  -15.8453 C   0  0  0  0  0  0  0  0  0  0  0  0
   24.4001  -13.4654  -14.8639 C   0  0  0  0  0  0  0  0  0  0  0  0
   23.9595  -12.0276  -15.1866 C   0  0  0  0  0  0  0  0  0  0  0  0
   22.4603  -12.2267  -15.1386 C   0  0  1  0  0  0  0  0  0  0  0  0
   21.7928  -11.0840  -15.7821 C   0  0  0  0  0  0  0  0  0  0  0  0
   21.6319  -10.9511  -17.0183 O   0  0  0  0  0  0  0  0  0  0  0  0
   19.1570   -8.6914  -13.7614 O   0  0  0  0  0  0  0  0  0  0  0  0
   19.2276   -8.7573  -15.1511 C   0  0  0  0  0  0  0  0  0  0  0  0
   20.6935   -8.8209  -15.6062 C   0  0  2  0  0  0  0  0  0  0  0  0
   21.2555   -9.9933  -15.0076 N   0  0  0  0  0  0  0  0  0  0  0  0
   21.4087   -7.5889  -15.2072 C   0  0  0  0  0  0  0  0  0  0  0  0
   22.3330   -7.6550  -14.3678 O   0  0  0  0  0  0  0  0  0  0  0  0
   21.0654   -6.3833  -15.7493 O   0  0  0  0  0  0  0  0  0  0  0  0
  2  1  1  0
  2  3  1  0
  3  4  1  6
  5  3  1  0
  5  7  1  0
  5  6  1  1
  7  8  2  0
  9  7  1  0
  9 13  1  0
 10 11  1  0
 10  9  1  0
 11 12  1  0
 12 13  1  0
 13 14  1  6
 14 15  2  0
 16 17  1  0
 18 17  1  1
 18 20  1  0
 19 18  1  0
 19 14  1  0
 20 21  2  0
 20 22  1  0
M  END
$$$$
