IPS.pdb
     RDKit          3D

 22 22  0  0  1  0  0  0  0  0999 V2000
   18.1998  -13.1828  -20.1359 C   0  0  0  0  0  0  0  0  0  0  0  0
   19.3464  -13.3712  -19.2188 C   0  0  0  0  0  0  0  0  0  0  0  0
   19.5886  -12.3004  -18.2035 C   0  0  2  0  0  0  0  0  0  0  0  0
   20.3213  -11.1830  -18.9820 C   0  0  0  0  0  0  0  0  0  0  0  0
   20.4173  -12.6722  -17.0313 C   0  0  2  0  0  0  0  0  0  0  0  0
   19.7231  -13.7867  -16.3623 N   0  0  0  0  0  0  0  0  0  0  0  0
   20.7161  -11.6091  -16.0560 C   0  0  0  0  0  0  0  0  0  0  0  0
   19.7364  -10.9267  -15.5904 O   0  0  0  0  0  0  0  0  0  0  0  0
   22.0301  -11.3148  -15.6098 N   0  0  0  0  0  0  0  0  0  0  0  0
   23.2042  -12.1444  -15.8941 C   0  0  0  0  0  0  0  0  0  0  0  0
   24.1836  -11.7575  -14.7789 C   0  0  0  0  0  0  0  0  0  0  0  0
   23.9719  -10.2348  -14.8260 C   0  0  0  0  0  0  0  0  0  0  0  0
   22.4589  -10.2100  -14.8365 C   0  0  1  0  0  0  0  0  0  0  0  0
   21.9931   -8.8792  -15.2579 C   0  0  0  0  0  0  0  0  0  0  0  0
   21.7583   -8.5442  -16.4430 O   0  0  0  0  0  0  0  0  0  0  0  0
   19.5780   -4.9920  -14.8043 O   0  0  0  0  0  0  0  0  0  0  0  0
   19.9669   -6.2701  -14.4093 C   0  0  0  0  0  0  0  0  0  0  0  0
   21.4629   -6.4802  -14.6885 C   0  0  2  0  0  0  0  0  0  0  0  0
   21.7647   -7.8248  -14.3019 N   0  0  0  0  0  0  0  0  0  0  0  0
   22.2684   -5.4876  -13.9438 C   0  0  0  0  0  0  0  0  0  0  0  0
   22.6943   -5.7684  -12.8023 O   0  0  0  0  0  0  0  0  0  0  0  0
   22.5481   -4.2698  -14.4950 O   0  0  0  0  0  0  0  0  0  0  0  0
  2  1  1  0
  2  3  1  0
  3  4  1  6
  5  3  1  0
  5  7  1  0
  5  6  1  1
  7  8  2  0
  9  7  1  0
  9 13  1  0
 10 11  1  0
 10  9  1  0
 11 12  1  0
 12 13  1  0
 13 14  1  6
 14 15  2  0
 16 17  1  0
 18 17  1  1
 18 20  1  0
 19 18  1  0
 19 14  1  0
 20 21  2  0
 20 22  1  0
M  END
$$$$
