IPS.pdb
     RDKit          3D

 22 22  0  0  1  0  0  0  0  0999 V2000
   15.8483   -9.8661  -20.0303 C   0  0  0  0  0  0  0  0  0  0  0  0
   17.1784  -10.4396  -19.7247 C   0  0  0  0  0  0  0  0  0  0  0  0
   18.0322   -9.6954  -18.7483 C   0  0  2  0  0  0  0  0  0  0  0  0
   18.4728   -8.4218  -19.5066 C   0  0  0  0  0  0  0  0  0  0  0  0
   19.2475  -10.3929  -18.2630 C   0  0  2  0  0  0  0  0  0  0  0  0
   18.7890  -11.6334  -17.6131 N   0  0  0  0  0  0  0  0  0  0  0  0
   20.1313   -9.6456  -17.3512 C   0  0  0  0  0  0  0  0  0  0  0  0
   19.6680   -9.3097  -16.2047 O   0  0  0  0  0  0  0  0  0  0  0  0
   21.4638   -9.2901  -17.6833 N   0  0  0  0  0  0  0  0  0  0  0  0
   22.1726   -9.7638  -18.8753 C   0  0  0  0  0  0  0  0  0  0  0  0
   23.6487   -9.5992  -18.4925 C   0  0  0  0  0  0  0  0  0  0  0  0
   23.5493   -8.2062  -17.8482 C   0  0  0  0  0  0  0  0  0  0  0  0
   22.3419   -8.4424  -16.9672 C   0  0  1  0  0  0  0  0  0  0  0  0
   21.8025   -7.1493  -16.5174 C   0  0  0  0  0  0  0  0  0  0  0  0
   20.9268   -6.4880  -17.1239 O   0  0  0  0  0  0  0  0  0  0  0  0
   21.5284   -6.2109  -12.7230 O   0  0  0  0  0  0  0  0  0  0  0  0
   22.1041   -5.1271  -13.3823 C   0  0  0  0  0  0  0  0  0  0  0  0
   21.8368   -5.2209  -14.8923 C   0  0  2  0  0  0  0  0  0  0  0  0
   22.2594   -6.5260  -15.3006 N   0  0  0  0  0  0  0  0  0  0  0  0
   22.5591   -4.1471  -15.6090 C   0  0  0  0  0  0  0  0  0  0  0  0
   23.6140   -4.4155  -16.2241 O   0  0  0  0  0  0  0  0  0  0  0  0
   22.0809   -2.8678  -15.6021 O   0  0  0  0  0  0  0  0  0  0  0  0
  2  1  1  0
  2  3  1  0
  3  4  1  6
  5  3  1  0
  5  7  1  0
  5  6  1  1
  7  8  2  0
  9  7  1  0
  9 13  1  0
 10 11  1  0
 10  9  1  0
 11 12  1  0
 12 13  1  0
 13 14  1  6
 14 15  2  0
 16 17  1  0
 18 17  1  1
 18 20  1  0
 19 18  1  0
 19 14  1  0
 20 21  2  0
 20 22  1  0
M  END
$$$$
