PSM.pdb
     RDKit          3D

 22 22  0  0  1  0  0  0  0  0999 V2000
   25.0580  -22.6357  -15.3977 N   0  0  0  0  0  0  0  0  0  0  0  0
   24.7581  -22.8268  -16.7987 C   0  0  0  0  0  0  0  0  0  0  0  0
   25.5338  -21.7548  -17.5656 C   0  0  0  0  0  0  0  0  0  0  0  0
   25.9216  -20.7867  -16.4364 C   0  0  0  0  0  0  0  0  0  0  0  0
   26.2460  -21.8073  -15.3619 C   0  0  1  0  0  0  0  0  0  0  0  0
   26.4644  -21.2120  -14.0409 C   0  0  0  0  0  0  0  0  0  0  0  0
   27.4537  -20.4527  -13.8912 O   0  0  0  0  0  0  0  0  0  0  0  0
   23.2085  -20.7901  -11.7534 O   0  0  0  0  0  0  0  0  0  0  0  0
   24.1763  -19.7843  -11.8379 C   0  0  0  0  0  0  0  0  0  0  0  0
   25.5332  -20.4422  -11.8932 C   0  0  2  0  0  0  0  0  0  0  0  0
   25.6330  -21.4358  -12.9171 N   0  0  0  0  0  0  0  0  0  0  0  0
   25.7755  -21.0148  -10.5311 C   0  0  0  0  0  0  0  0  0  0  0  0
   25.4558  -22.2146  -10.3575 O   0  0  0  0  0  0  0  0  0  0  0  0
   28.4763  -17.6882   -5.1181 C   0  0  0  0  0  0  0  0  0  0  0  0
   28.8769  -19.4523   -5.0001 S   0  0  0  0  0  0  0  0  0  0  0  0
   27.6218  -20.4003   -5.9074 C   0  0  0  0  0  0  0  0  0  0  0  0
   27.4309  -19.8949   -7.3154 C   0  0  0  0  0  0  0  0  0  0  0  0
   26.4821  -20.7341   -8.1308 C   0  0  2  0  0  0  0  0  0  0  0  0
   26.3396  -20.2466   -9.4773 N   0  0  0  0  0  0  0  0  0  0  0  0
   25.1734  -20.9573   -7.4748 C   0  0  0  0  0  0  0  0  0  0  0  0
   24.1498  -20.3025   -7.8642 O   0  0  0  0  0  0  0  0  0  0  0  0
   24.9680  -21.8509   -6.4379 O   0  0  0  0  0  0  0  0  0  0  0  0
  1  5  1  0
  2  1  1  0
  3  2  1  0
  3  4  1  0
  4  5  1  0
  5  6  1  1
  6 11  1  0
  7  6  2  0
  8  9  1  0
 10 11  1  0
 10  9  1  1
 12 10  1  0
 12 19  1  0
 13 12  2  0
 15 14  1  0
 16 15  1  0
 17 16  1  0
 18 19  1  0
 18 17  1  1
 20 18  1  0
 21 20  2  0
 22 20  1  0
M  END
$$$$
