PSM.pdb
     RDKit          3D

 22 22  0  0  1  0  0  0  0  0999 V2000
   25.4995  -35.0018  -14.6054 N   0  0  0  0  0  0  0  0  0  0  0  0
   25.5869  -34.5481  -15.9749 C   0  0  0  0  0  0  0  0  0  0  0  0
   26.0460  -33.0900  -15.9277 C   0  0  0  0  0  0  0  0  0  0  0  0
   25.8036  -32.7375  -14.4513 C   0  0  0  0  0  0  0  0  0  0  0  0
   26.2576  -34.0435  -13.8271 C   0  0  1  0  0  0  0  0  0  0  0  0
   25.9619  -34.1376  -12.3951 C   0  0  0  0  0  0  0  0  0  0  0  0
   24.9120  -34.7324  -12.0463 O   0  0  0  0  0  0  0  0  0  0  0  0
   27.0578  -33.6370   -7.7501 O   0  0  0  0  0  0  0  0  0  0  0  0
   27.4517  -33.2631   -9.0387 C   0  0  0  0  0  0  0  0  0  0  0  0
   26.3826  -33.7112  -10.0048 C   0  0  2  0  0  0  0  0  0  0  0  0
   26.7824  -33.6012  -11.3736 N   0  0  0  0  0  0  0  0  0  0  0  0
   25.1741  -32.8795   -9.7054 C   0  0  0  0  0  0  0  0  0  0  0  0
   24.8517  -32.0224  -10.5617 O   0  0  0  0  0  0  0  0  0  0  0  0
   20.6048  -29.3205   -9.0718 C   0  0  0  0  0  0  0  0  0  0  0  0
   20.7482  -30.6747  -10.2685 S   0  0  0  0  0  0  0  0  0  0  0  0
   20.8099  -32.2496   -9.3668 C   0  0  0  0  0  0  0  0  0  0  0  0
   22.1654  -32.9051   -9.4534 C   0  0  0  0  0  0  0  0  0  0  0  0
   23.0944  -32.5124   -8.3343 C   0  0  2  0  0  0  0  0  0  0  0  0
   24.4201  -33.0434   -8.5122 N   0  0  0  0  0  0  0  0  0  0  0  0
   22.5533  -32.7980   -6.9858 C   0  0  0  0  0  0  0  0  0  0  0  0
   22.9728  -33.8134   -6.3369 O   0  0  0  0  0  0  0  0  0  0  0  0
   21.5963  -32.0228   -6.3541 O   0  0  0  0  0  0  0  0  0  0  0  0
  1  5  1  0
  2  1  1  0
  3  2  1  0
  3  4  1  0
  4  5  1  0
  5  6  1  1
  6 11  1  0
  7  6  2  0
  8  9  1  0
 10 11  1  0
 10  9  1  1
 12 10  1  0
 12 19  1  0
 13 12  2  0
 15 14  1  0
 16 15  1  0
 17 16  1  0
 18 19  1  0
 18 17  1  6
 20 18  1  0
 21 20  2  0
 22 20  1  0
M  END
$$$$
