PSM.pdb
     RDKit          3D

 22 22  0  0  1  0  0  0  0  0999 V2000
   30.5010  -20.7201   -9.9943 N   0  0  0  0  0  0  0  0  0  0  0  0
   31.9161  -21.0141  -10.0066 C   0  0  0  0  0  0  0  0  0  0  0  0
   32.0999  -22.2599  -10.8744 C   0  0  0  0  0  0  0  0  0  0  0  0
   30.6589  -22.7866  -10.9680 C   0  0  0  0  0  0  0  0  0  0  0  0
   29.9389  -21.4586  -11.1067 C   0  0  1  0  0  0  0  0  0  0  0  0
   28.4812  -21.5744  -11.0124 C   0  0  0  0  0  0  0  0  0  0  0  0
   27.8849  -22.2548  -11.8836 O   0  0  0  0  0  0  0  0  0  0  0  0
   26.2237  -19.6390   -8.2030 O   0  0  0  0  0  0  0  0  0  0  0  0
   25.6894  -20.8701   -8.5958 C   0  0  0  0  0  0  0  0  0  0  0  0
   26.2939  -21.2406   -9.9278 C   0  0  2  0  0  0  0  0  0  0  0  0
   27.6960  -20.9685  -10.0021 N   0  0  0  0  0  0  0  0  0  0  0  0
   25.5205  -20.4832  -10.9624 C   0  0  0  0  0  0  0  0  0  0  0  0
   25.8409  -19.2845  -11.1422 O   0  0  0  0  0  0  0  0  0  0  0  0
   25.3640  -21.4040  -16.7278 C   0  0  0  0  0  0  0  0  0  0  0  0
   23.9168  -20.3171  -16.8327 S   0  0  0  0  0  0  0  0  0  0  0  0
   23.3404  -19.9447  -15.1516 C   0  0  0  0  0  0  0  0  0  0  0  0
   24.1051  -20.7116  -14.1021 C   0  0  0  0  0  0  0  0  0  0  0  0
   23.6949  -20.3722  -12.6928 C   0  0  2  0  0  0  0  0  0  0  0  0
   24.4718  -21.0819  -11.7111 N   0  0  0  0  0  0  0  0  0  0  0  0
   22.2392  -20.4972  -12.4520 C   0  0  0  0  0  0  0  0  0  0  0  0
   21.7673  -21.5816  -11.9728 O   0  0  0  0  0  0  0  0  0  0  0  0
   21.3208  -19.4956  -12.7148 O   0  0  0  0  0  0  0  0  0  0  0  0
  1  5  1  0
  2  1  1  0
  3  2  1  0
  3  4  1  0
  4  5  1  0
  5  6  1  1
  6 11  1  0
  7  6  2  0
  8  9  1  0
 10 11  1  0
 10  9  1  1
 12 10  1  0
 12 19  1  0
 13 12  2  0
 15 14  1  0
 16 15  1  0
 17 16  1  0
 18 19  1  0
 18 17  1  6
 20 18  1  0
 21 20  2  0
 22 20  1  0
M  END
$$$$
