PSM.pdb
     RDKit          3D

 22 22  0  0  1  0  0  0  0  0999 V2000
   26.8906  -19.9893  -15.5762 N   0  0  0  0  0  0  0  0  0  0  0  0
   27.4540  -19.5596  -16.8360 C   0  0  0  0  0  0  0  0  0  0  0  0
   28.2649  -18.2953  -16.5478 C   0  0  0  0  0  0  0  0  0  0  0  0
   27.7504  -17.9099  -15.1515 C   0  0  0  0  0  0  0  0  0  0  0  0
   27.6505  -19.3003  -14.5531 C   0  0  1  0  0  0  0  0  0  0  0  0
   26.9762  -19.3269  -13.2524 C   0  0  0  0  0  0  0  0  0  0  0  0
   27.4089  -18.5716  -12.3469 O   0  0  0  0  0  0  0  0  0  0  0  0
   22.9508  -19.5746  -12.4871 O   0  0  0  0  0  0  0  0  0  0  0  0
   23.7364  -20.4877  -11.7769 C   0  0  0  0  0  0  0  0  0  0  0  0
   25.1465  -19.9530  -11.7251 C   0  0  2  0  0  0  0  0  0  0  0  0
   25.8657  -20.1497  -12.9456 N   0  0  0  0  0  0  0  0  0  0  0  0
   25.8092  -20.6342  -10.5681 C   0  0  0  0  0  0  0  0  0  0  0  0
   26.1379  -21.8331  -10.7310 O   0  0  0  0  0  0  0  0  0  0  0  0
   27.9619  -18.0273   -4.5492 C   0  0  0  0  0  0  0  0  0  0  0  0
   28.8066  -19.5857   -4.9296 S   0  0  0  0  0  0  0  0  0  0  0  0
   27.7297  -20.5926   -5.9896 C   0  0  0  0  0  0  0  0  0  0  0  0
   27.3070  -19.8580   -7.2370 C   0  0  0  0  0  0  0  0  0  0  0  0
   26.3757  -20.6527   -8.1149 C   0  0  2  0  0  0  0  0  0  0  0  0
   26.0593  -19.9660   -9.3394 N   0  0  0  0  0  0  0  0  0  0  0  0
   25.1635  -21.1328   -7.4129 C   0  0  0  0  0  0  0  0  0  0  0  0
   24.0374  -20.5781   -7.6419 O   0  0  0  0  0  0  0  0  0  0  0  0
   25.1574  -22.1711   -6.4977 O   0  0  0  0  0  0  0  0  0  0  0  0
  1  5  1  0
  2  1  1  0
  3  2  1  0
  3  4  1  0
  4  5  1  0
  5  6  1  1
  6 11  1  0
  7  6  2  0
  8  9  1  0
 10 11  1  0
 10  9  1  6
 12 10  1  0
 12 19  1  0
 13 12  2  0
 15 14  1  0
 16 15  1  0
 17 16  1  0
 18 19  1  0
 18 17  1  1
 20 18  1  0
 21 20  2  0
 22 20  1  0
M  END
$$$$
