PSM.pdb
     RDKit          3D

 22 22  0  0  1  0  0  0  0  0999 V2000
   25.6878  -22.3233  -15.4676 N   0  0  0  0  0  0  0  0  0  0  0  0
   25.6849  -22.5487  -16.8952 C   0  0  0  0  0  0  0  0  0  0  0  0
   26.4429  -21.3806  -17.5275 C   0  0  0  0  0  0  0  0  0  0  0  0
   26.4800  -20.3725  -16.3676 C   0  0  0  0  0  0  0  0  0  0  0  0
   26.7280  -21.3435  -15.2288 C   0  0  1  0  0  0  0  0  0  0  0  0
   26.6133  -20.7281  -13.9040 C   0  0  0  0  0  0  0  0  0  0  0  0
   27.4416  -19.8365  -13.5929 O   0  0  0  0  0  0  0  0  0  0  0  0
   23.1381  -20.8602  -11.8634 O   0  0  0  0  0  0  0  0  0  0  0  0
   23.9762  -19.7522  -11.7049 C   0  0  0  0  0  0  0  0  0  0  0  0
   25.4050  -20.2246  -11.8162 C   0  0  2  0  0  0  0  0  0  0  0  0
   25.6286  -21.0718  -12.9466 N   0  0  0  0  0  0  0  0  0  0  0  0
   25.7174  -20.9174  -10.5261 C   0  0  0  0  0  0  0  0  0  0  0  0
   25.5361  -22.1575  -10.4923 O   0  0  0  0  0  0  0  0  0  0  0  0
   28.5839  -17.9542   -5.4495 C   0  0  0  0  0  0  0  0  0  0  0  0
   28.2738  -19.5545   -4.6559 S   0  0  0  0  0  0  0  0  0  0  0  0
   27.2307  -20.5594   -5.7510 C   0  0  0  0  0  0  0  0  0  0  0  0
   27.1305  -19.9764   -7.1383 C   0  0  0  0  0  0  0  0  0  0  0  0
   26.2899  -20.8022   -8.0769 C   0  0  2  0  0  0  0  0  0  0  0  0
   26.1967  -20.2153   -9.3876 N   0  0  0  0  0  0  0  0  0  0  0  0
   24.9617  -21.1578   -7.5271 C   0  0  0  0  0  0  0  0  0  0  0  0
   23.9254  -20.5204   -7.9119 O   0  0  0  0  0  0  0  0  0  0  0  0
   24.7506  -22.1615   -6.5977 O   0  0  0  0  0  0  0  0  0  0  0  0
  1  5  1  0
  2  1  1  0
  3  2  1  0
  3  4  1  0
  4  5  1  0
  5  6  1  1
  6 11  1  0
  7  6  2  0
  8  9  1  0
 10 11  1  0
 10  9  1  1
 12 10  1  0
 12 19  1  0
 13 12  2  0
 15 14  1  0
 16 15  1  0
 17 16  1  0
 18 19  1  0
 18 17  1  1
 20 18  1  0
 21 20  2  0
 22 20  1  0
M  END
$$$$
