PSM.pdb
     RDKit          3D

 22 22  0  0  1  0  0  0  0  0999 V2000
   23.0610  -12.0868  -18.2660 N   0  0  0  0  0  0  0  0  0  0  0  0
   23.4663  -13.4632  -18.4409 C   0  0  0  0  0  0  0  0  0  0  0  0
   24.5471  -13.7407  -17.3950 C   0  0  0  0  0  0  0  0  0  0  0  0
   24.9249  -12.3169  -16.9560 C   0  0  0  0  0  0  0  0  0  0  0  0
   23.5377  -11.7030  -16.9529 C   0  0  1  0  0  0  0  0  0  0  0  0
   23.5452  -10.2491  -16.7713 C   0  0  0  0  0  0  0  0  0  0  0  0
   23.9391   -9.7931  -15.6692 O   0  0  0  0  0  0  0  0  0  0  0  0
   21.7146   -7.5049  -19.3112 O   0  0  0  0  0  0  0  0  0  0  0  0
   22.8701   -7.0562  -18.6640 C   0  0  0  0  0  0  0  0  0  0  0  0
   23.0946   -7.9233  -17.4496 C   0  0  2  0  0  0  0  0  0  0  0  0
   23.1364   -9.3193  -17.7576 N   0  0  0  0  0  0  0  0  0  0  0  0
   21.9921   -7.5936  -16.4916 C   0  0  0  0  0  0  0  0  0  0  0  0
   20.9026   -8.1915  -16.6565 O   0  0  0  0  0  0  0  0  0  0  0  0
   18.2360   -7.9556  -10.1513 C   0  0  0  0  0  0  0  0  0  0  0  0
   19.5854   -8.4153  -11.2714 S   0  0  0  0  0  0  0  0  0  0  0  0
   19.8202   -7.0839  -12.4836 C   0  0  0  0  0  0  0  0  0  0  0  0
   20.8776   -7.4207  -13.5049 C   0  0  0  0  0  0  0  0  0  0  0  0
   21.1203   -6.3187  -14.5030 C   0  0  2  0  0  0  0  0  0  0  0  0
   22.1592   -6.6505  -15.4421 N   0  0  0  0  0  0  0  0  0  0  0  0
   21.3303   -4.9910  -13.8819 C   0  0  0  0  0  0  0  0  0  0  0  0
   22.5019   -4.4867  -13.8454 O   0  0  0  0  0  0  0  0  0  0  0  0
   20.3205   -4.2294  -13.3197 O   0  0  0  0  0  0  0  0  0  0  0  0
  1  5  1  0
  2  1  1  0
  3  2  1  0
  3  4  1  0
  4  5  1  0
  5  6  1  6
  6 11  1  0
  7  6  2  0
  8  9  1  0
 10 11  1  0
 10  9  1  6
 12 10  1  0
 12 19  1  0
 13 12  2  0
 15 14  1  0
 16 15  1  0
 17 16  1  0
 18 19  1  0
 18 17  1  1
 20 18  1  0
 21 20  2  0
 22 20  1  0
M  END
$$$$
