PSM.pdb
     RDKit          3D

 22 22  0  0  1  0  0  0  0  0999 V2000
   43.7391  -13.3982   -8.1737 N   0  0  0  0  0  0  0  0  0  0  0  0
   44.6195  -14.4728   -7.7746 C   0  0  0  0  0  0  0  0  0  0  0  0
   45.9994  -13.8522   -7.5514 C   0  0  0  0  0  0  0  0  0  0  0  0
   45.8386  -12.4865   -8.2382 C   0  0  0  0  0  0  0  0  0  0  0  0
   44.4202  -12.1756   -7.7992 C   0  0  1  0  0  0  0  0  0  0  0  0
   43.8501  -11.0003   -8.4631 C   0  0  0  0  0  0  0  0  0  0  0  0
   44.3187   -9.8718   -8.1721 O   0  0  0  0  0  0  0  0  0  0  0  0
   41.0429  -11.1937  -11.4985 O   0  0  0  0  0  0  0  0  0  0  0  0
   41.9833  -10.1599  -11.5470 C   0  0  0  0  0  0  0  0  0  0  0  0
   42.4371   -9.8717  -10.1371 C   0  0  2  0  0  0  0  0  0  0  0  0
   42.8023  -11.0503   -9.4139 N   0  0  0  0  0  0  0  0  0  0  0  0
   41.3115   -9.1362   -9.4782 C   0  0  0  0  0  0  0  0  0  0  0  0
   40.4705   -9.8288   -8.8578 O   0  0  0  0  0  0  0  0  0  0  0  0
   43.2691   -3.6903   -7.5871 C   0  0  0  0  0  0  0  0  0  0  0  0
   41.7770   -4.0600   -6.6260 S   0  0  0  0  0  0  0  0  0  0  0  0
   41.1409   -5.6836   -7.1326 C   0  0  0  0  0  0  0  0  0  0  0  0
   40.4700   -5.6388   -8.4826 C   0  0  0  0  0  0  0  0  0  0  0  0
   40.0732   -6.9966   -9.0007 C   0  0  2  0  0  0  0  0  0  0  0  0
   41.1904   -7.7221   -9.5453 N   0  0  0  0  0  0  0  0  0  0  0  0
   38.9206   -6.9636   -9.9299 C   0  0  0  0  0  0  0  0  0  0  0  0
   39.0818   -7.2959  -11.1513 O   0  0  0  0  0  0  0  0  0  0  0  0
   37.6397   -6.5882   -9.5636 O   0  0  0  0  0  0  0  0  0  0  0  0
  1  5  1  0
  2  1  1  0
  3  2  1  0
  3  4  1  0
  4  5  1  0
  5  6  1  6
  6 11  1  0
  7  6  2  0
  8  9  1  0
 10 11  1  0
 10  9  1  6
 12 10  1  0
 12 19  1  0
 13 12  2  0
 15 14  1  0
 16 15  1  0
 17 16  1  0
 18 19  1  0
 18 17  1  6
 20 18  1  0
 21 20  2  0
 22 20  1  0
M  END
$$$$
