PSM.pdb
     RDKit          3D

 22 22  0  0  1  0  0  0  0  0999 V2000
   31.3979  -22.3492  -12.3572 N   0  0  0  0  0  0  0  0  0  0  0  0
   32.6138  -22.7639  -11.6949 C   0  0  0  0  0  0  0  0  0  0  0  0
   32.6571  -22.0308  -10.3535 C   0  0  0  0  0  0  0  0  0  0  0  0
   31.5945  -20.9400  -10.5631 C   0  0  0  0  0  0  0  0  0  0  0  0
   30.5706  -21.7617  -11.3232 C   0  0  1  0  0  0  0  0  0  0  0  0
   29.4778  -20.9595  -11.8795 C   0  0  0  0  0  0  0  0  0  0  0  0
   28.7489  -20.3196  -11.0815 O   0  0  0  0  0  0  0  0  0  0  0  0
   29.3201  -18.8307  -15.2763 O   0  0  0  0  0  0  0  0  0  0  0  0
   28.1901  -19.6439  -15.1454 C   0  0  0  0  0  0  0  0  0  0  0  0
   28.0794  -20.0646  -13.7005 C   0  0  2  0  0  0  0  0  0  0  0  0
   29.1862  -20.8568  -13.2611 N   0  0  0  0  0  0  0  0  0  0  0  0
   26.7807  -20.7996  -13.5779 C   0  0  0  0  0  0  0  0  0  0  0  0
   26.8301  -22.0502  -13.6507 O   0  0  0  0  0  0  0  0  0  0  0  0
   26.2540  -19.9072   -8.3038 C   0  0  0  0  0  0  0  0  0  0  0  0
   24.5008  -20.3685   -8.2901 S   0  0  0  0  0  0  0  0  0  0  0  0
   23.9846  -20.7602   -9.9864 C   0  0  0  0  0  0  0  0  0  0  0  0
   24.9857  -20.2896  -11.0116 C   0  0  0  0  0  0  0  0  0  0  0  0
   24.5533  -20.5421  -12.4324 C   0  0  2  0  0  0  0  0  0  0  0  0
   25.5449  -20.1246  -13.3882 N   0  0  0  0  0  0  0  0  0  0  0  0
   23.2100  -20.0051  -12.7484 C   0  0  0  0  0  0  0  0  0  0  0  0
   23.0986  -18.8522  -13.2839 O   0  0  0  0  0  0  0  0  0  0  0  0
   22.0271  -20.6794  -12.4999 O   0  0  0  0  0  0  0  0  0  0  0  0
  1  5  1  0
  2  1  1  0
  3  2  1  0
  3  4  1  0
  4  5  1  0
  5  6  1  6
  6 11  1  0
  7  6  2  0
  8  9  1  0
 10 11  1  0
 10  9  1  6
 12 10  1  0
 12 19  1  0
 13 12  2  0
 15 14  1  0
 16 15  1  0
 17 16  1  0
 18 19  1  0
 18 17  1  1
 20 18  1  0
 21 20  2  0
 22 20  1  0
M  END
$$$$
