PSM.pdb
     RDKit          3D

 22 22  0  0  1  0  0  0  0  0999 V2000
   26.2393  -21.4938  -15.2792 N   0  0  0  0  0  0  0  0  0  0  0  0
   26.5623  -21.4696  -16.6878 C   0  0  0  0  0  0  0  0  0  0  0  0
   27.5919  -20.3560  -16.8847 C   0  0  0  0  0  0  0  0  0  0  0  0
   27.4650  -19.5807  -15.5635 C   0  0  0  0  0  0  0  0  0  0  0  0
   27.3009  -20.7589  -14.6221 C   0  0  1  0  0  0  0  0  0  0  0  0
   26.9387  -20.3672  -13.2574 C   0  0  0  0  0  0  0  0  0  0  0  0
   27.7632  -19.6847  -12.6000 O   0  0  0  0  0  0  0  0  0  0  0  0
   23.2040  -21.0755  -11.5302 O   0  0  0  0  0  0  0  0  0  0  0  0
   23.8037  -19.8218  -11.3754 C   0  0  0  0  0  0  0  0  0  0  0  0
   25.2995  -20.0042  -11.4536 C   0  0  2  0  0  0  0  0  0  0  0  0
   25.7178  -20.7075  -12.6267 N   0  0  0  0  0  0  0  0  0  0  0  0
   25.6993  -20.7183  -10.1997 C   0  0  0  0  0  0  0  0  0  0  0  0
   25.6983  -21.9715  -10.2383 O   0  0  0  0  0  0  0  0  0  0  0  0
   28.9334  -17.9723   -5.3213 C   0  0  0  0  0  0  0  0  0  0  0  0
   28.5855  -19.5424   -4.4844 S   0  0  0  0  0  0  0  0  0  0  0  0
   27.4854  -20.5349   -5.5342 C   0  0  0  0  0  0  0  0  0  0  0  0
   27.1704  -19.8500   -6.8403 C   0  0  0  0  0  0  0  0  0  0  0  0
   26.3021  -20.6734   -7.7555 C   0  0  2  0  0  0  0  0  0  0  0  0
   26.0641  -20.0216   -9.0164 N   0  0  0  0  0  0  0  0  0  0  0  0
   25.0482  -21.1413   -7.1218 C   0  0  0  0  0  0  0  0  0  0  0  0
   25.0795  -22.1169   -6.2999 O   0  0  0  0  0  0  0  0  0  0  0  0
   23.8040  -20.5836   -7.3598 O   0  0  0  0  0  0  0  0  0  0  0  0
  1  5  1  0
  2  1  1  0
  3  2  1  0
  3  4  1  0
  4  5  1  0
  5  6  1  1
  6 11  1  0
  7  6  2  0
  8  9  1  0
 10 11  1  0
 10  9  1  6
 12 10  1  0
 12 19  1  0
 13 12  2  0
 15 14  1  0
 16 15  1  0
 17 16  1  0
 18 19  1  0
 18 17  1  1
 20 18  1  0
 21 20  2  0
 22 20  1  0
M  END
$$$$
