PSM.pdb
     RDKit          3D

 22 22  0  0  1  0  0  0  0  0999 V2000
   31.9066  -22.4377  -12.3476 N   0  0  0  0  0  0  0  0  0  0  0  0
   33.2339  -22.8316  -11.9324 C   0  0  0  0  0  0  0  0  0  0  0  0
   33.4170  -22.3236  -10.5015 C   0  0  0  0  0  0  0  0  0  0  0  0
   32.2561  -21.3237  -10.3778 C   0  0  0  0  0  0  0  0  0  0  0  0
   31.1971  -22.1092  -11.1280 C   0  0  1  0  0  0  0  0  0  0  0  0
   29.9776  -21.3398  -11.3887 C   0  0  0  0  0  0  0  0  0  0  0  0
   29.2180  -21.0899  -10.4201 O   0  0  0  0  0  0  0  0  0  0  0  0
   28.2993  -20.4396  -15.1363 O   0  0  0  0  0  0  0  0  0  0  0  0
   28.2691  -19.4383  -14.1607 C   0  0  0  0  0  0  0  0  0  0  0  0
   28.3931  -20.0964  -12.8085 C   0  0  2  0  0  0  0  0  0  0  0  0
   29.5955  -20.8572  -12.6637 N   0  0  0  0  0  0  0  0  0  0  0  0
   27.1701  -20.9444  -12.6431 C   0  0  0  0  0  0  0  0  0  0  0  0
   27.3501  -22.1802  -12.5325 O   0  0  0  0  0  0  0  0  0  0  0  0
   26.2860  -19.1011   -7.5347 C   0  0  0  0  0  0  0  0  0  0  0  0
   25.1605  -20.5199   -7.4514 S   0  0  0  0  0  0  0  0  0  0  0  0
   24.4735  -20.8209   -9.1051 C   0  0  0  0  0  0  0  0  0  0  0  0
   25.4600  -20.5023  -10.2005 C   0  0  0  0  0  0  0  0  0  0  0  0
   24.8991  -20.6893  -11.5861 C   0  0  2  0  0  0  0  0  0  0  0  0
   25.8630  -20.3882  -12.6115 N   0  0  0  0  0  0  0  0  0  0  0  0
   23.6122  -19.9902  -11.8049 C   0  0  0  0  0  0  0  0  0  0  0  0
   23.5985  -18.8573  -12.3920 O   0  0  0  0  0  0  0  0  0  0  0  0
   22.3826  -20.4872  -11.4089 O   0  0  0  0  0  0  0  0  0  0  0  0
  1  5  1  0
  2  1  1  0
  3  2  1  0
  3  4  1  0
  4  5  1  0
  5  6  1  6
  6 11  1  0
  7  6  2  0
  8  9  1  0
 10 11  1  0
 10  9  1  6
 12 10  1  0
 12 19  1  0
 13 12  2  0
 15 14  1  0
 16 15  1  0
 17 16  1  0
 18 19  1  0
 18 17  1  1
 20 18  1  0
 21 20  2  0
 22 20  1  0
M  END
$$$$
