PSM.pdb
     RDKit          3D

 22 22  0  0  1  0  0  0  0  0999 V2000
   20.4053  -11.4496  -17.4915 N   0  0  0  0  0  0  0  0  0  0  0  0
   20.0572  -12.6151  -18.2723 C   0  0  0  0  0  0  0  0  0  0  0  0
   18.5534  -12.8308  -18.0957 C   0  0  0  0  0  0  0  0  0  0  0  0
   18.2546  -11.9413  -16.8782 C   0  0  0  0  0  0  0  0  0  0  0  0
   19.1540  -10.7699  -17.2249 C   0  0  1  0  0  0  0  0  0  0  0  0
   19.2774   -9.7906  -16.1419 C   0  0  0  0  0  0  0  0  0  0  0  0
   18.2670   -9.1051  -15.8471 O   0  0  0  0  0  0  0  0  0  0  0  0
   22.4808   -9.5074  -13.5781 O   0  0  0  0  0  0  0  0  0  0  0  0
   21.2650   -8.9522  -13.1670 C   0  0  0  0  0  0  0  0  0  0  0  0
   20.4948   -8.5447  -14.3990 C   0  0  2  0  0  0  0  0  0  0  0  0
   20.4631   -9.5632  -15.4025 N   0  0  0  0  0  0  0  0  0  0  0  0
   21.1379   -7.2874  -14.8966 C   0  0  0  0  0  0  0  0  0  0  0  0
   22.0392   -7.4166  -15.7585 O   0  0  0  0  0  0  0  0  0  0  0  0
   18.4299   -2.8058  -17.8595 C   0  0  0  0  0  0  0  0  0  0  0  0
   19.6258   -1.6773  -17.0960 S   0  0  0  0  0  0  0  0  0  0  0  0
   20.8723   -2.6562  -16.2100 C   0  0  0  0  0  0  0  0  0  0  0  0
   20.3001   -3.9304  -15.6413 C   0  0  0  0  0  0  0  0  0  0  0  0
   21.3176   -4.7761  -14.9208 C   0  0  2  0  0  0  0  0  0  0  0  0
   20.7548   -6.0036  -14.4233 N   0  0  0  0  0  0  0  0  0  0  0  0
   22.0684   -4.0410  -13.8774 C   0  0  0  0  0  0  0  0  0  0  0  0
   21.8386   -4.2794  -12.6451 O   0  0  0  0  0  0  0  0  0  0  0  0
   23.0323   -3.0842  -14.1444 O   0  0  0  0  0  0  0  0  0  0  0  0
  1  5  1  0
  2  1  1  0
  3  2  1  0
  3  4  1  0
  4  5  1  0
  5  6  1  1
  6 11  1  0
  7  6  2  0
  8  9  1  0
 10 11  1  0
 10  9  1  1
 12 10  1  0
 12 19  1  0
 13 12  2  0
 15 14  1  0
 16 15  1  0
 17 16  1  0
 18 19  1  0
 18 17  1  1
 20 18  1  0
 21 20  2  0
 22 20  1  0
M  END
$$$$
