PSM.pdb
     RDKit          3D

 22 22  0  0  1  0  0  0  0  0999 V2000
   20.3554  -13.1237  -16.8365 N   0  0  0  0  0  0  0  0  0  0  0  0
   20.2577  -14.4158  -17.4768 C   0  0  0  0  0  0  0  0  0  0  0  0
   20.3375  -14.1680  -18.9839 C   0  0  0  0  0  0  0  0  0  0  0  0
   20.0884  -12.6532  -19.0615 C   0  0  0  0  0  0  0  0  0  0  0  0
   20.8864  -12.2277  -17.8435 C   0  0  1  0  0  0  0  0  0  0  0  0
   20.6957  -10.8197  -17.4858 C   0  0  0  0  0  0  0  0  0  0  0  0
   21.3472   -9.9547  -18.1222 O   0  0  0  0  0  0  0  0  0  0  0  0
   18.6118   -9.4204  -14.2061 O   0  0  0  0  0  0  0  0  0  0  0  0
   18.4372   -8.6661  -15.3705 C   0  0  0  0  0  0  0  0  0  0  0  0
   19.5874   -8.9653  -16.3003 C   0  0  2  0  0  0  0  0  0  0  0  0
   19.8237  -10.3660  -16.4669 N   0  0  0  0  0  0  0  0  0  0  0  0
   20.7791   -8.2597  -15.7309 C   0  0  0  0  0  0  0  0  0  0  0  0
   21.4591   -8.8901  -14.8872 O   0  0  0  0  0  0  0  0  0  0  0  0
   27.0732   -3.9234  -16.9194 C   0  0  0  0  0  0  0  0  0  0  0  0
   25.5179   -4.5537  -17.6054 S   0  0  0  0  0  0  0  0  0  0  0  0
   24.4672   -5.1310  -16.2417 C   0  0  0  0  0  0  0  0  0  0  0  0
   23.1868   -5.7588  -16.7329 C   0  0  0  0  0  0  0  0  0  0  0  0
   22.2967   -6.2536  -15.6227 C   0  0  2  0  0  0  0  0  0  0  0  0
   21.1331   -6.9397  -16.1193 N   0  0  0  0  0  0  0  0  0  0  0  0
   21.9506   -5.2108  -14.6300 C   0  0  0  0  0  0  0  0  0  0  0  0
   22.8480   -4.7660  -13.8394 O   0  0  0  0  0  0  0  0  0  0  0  0
   20.6873   -4.6630  -14.4892 O   0  0  0  0  0  0  0  0  0  0  0  0
  1  5  1  0
  2  1  1  0
  3  2  1  0
  3  4  1  0
  4  5  1  0
  5  6  1  1
  6 11  1  0
  7  6  2  0
  8  9  1  0
 10 11  1  0
 10  9  1  1
 12 10  1  0
 12 19  1  0
 13 12  2  0
 15 14  1  0
 16 15  1  0
 17 16  1  0
 18 19  1  0
 18 17  1  6
 20 18  1  0
 21 20  2  0
 22 20  1  0
M  END
$$$$
