PSM.pdb
     RDKit          3D

 22 22  0  0  1  0  0  0  0  0999 V2000
   23.4099  -17.4138  -17.0908 N   0  0  0  0  0  0  0  0  0  0  0  0
   22.4896  -16.8742  -18.0660 C   0  0  0  0  0  0  0  0  0  0  0  0
   21.2509  -17.7708  -18.0464 C   0  0  0  0  0  0  0  0  0  0  0  0
   21.7731  -19.0027  -17.2897 C   0  0  0  0  0  0  0  0  0  0  0  0
   22.6196  -18.2910  -16.2513 C   0  0  1  0  0  0  0  0  0  0  0  0
   23.4548  -19.1985  -15.4602 C   0  0  0  0  0  0  0  0  0  0  0  0
   22.9000  -19.8833  -14.5653 O   0  0  0  0  0  0  0  0  0  0  0  0
   27.7235  -19.5752  -15.4885 O   0  0  0  0  0  0  0  0  0  0  0  0
   26.8915  -20.6960  -15.4042 C   0  0  0  0  0  0  0  0  0  0  0  0
   25.5782  -20.2613  -14.8015 C   0  0  2  0  0  0  0  0  0  0  0  0
   24.8507  -19.3563  -15.6365 N   0  0  0  0  0  0  0  0  0  0  0  0
   25.9088  -19.6554  -13.4728 C   0  0  0  0  0  0  0  0  0  0  0  0
   25.6687  -18.4328  -13.3338 O   0  0  0  0  0  0  0  0  0  0  0  0
   21.5614  -20.0719  -10.8681 C   0  0  0  0  0  0  0  0  0  0  0  0
   22.3244  -20.4011   -9.2568 S   0  0  0  0  0  0  0  0  0  0  0  0
   24.1282  -20.2806   -9.4268 C   0  0  0  0  0  0  0  0  0  0  0  0
   24.5720  -20.3435  -10.8668 C   0  0  0  0  0  0  0  0  0  0  0  0
   26.0672  -20.2747  -11.0374 C   0  0  2  0  0  0  0  0  0  0  0  0
   26.4680  -20.4179  -12.4122 N   0  0  0  0  0  0  0  0  0  0  0  0
   26.8097  -21.1889  -10.1397 C   0  0  0  0  0  0  0  0  0  0  0  0
   27.2967  -20.7461   -9.0466 O   0  0  0  0  0  0  0  0  0  0  0  0
   27.0228  -22.5308  -10.4034 O   0  0  0  0  0  0  0  0  0  0  0  0
  1  5  1  0
  2  1  1  0
  3  2  1  0
  3  4  1  0
  4  5  1  0
  5  6  1  6
  6 11  1  0
  7  6  2  0
  8  9  1  0
 10 11  1  0
 10  9  1  6
 12 10  1  0
 12 19  1  0
 13 12  2  0
 15 14  1  0
 16 15  1  0
 17 16  1  0
 18 19  1  0
 18 17  1  6
 20 18  1  0
 21 20  2  0
 22 20  1  0
M  END
$$$$
