PSM.pdb
     RDKit          3D

 22 22  0  0  1  0  0  0  0  0999 V2000
   18.6320  -12.1234  -17.4907 N   0  0  0  0  0  0  0  0  0  0  0  0
   19.0256  -13.0967  -18.4841 C   0  0  0  0  0  0  0  0  0  0  0  0
   20.1872  -12.4826  -19.2668 C   0  0  0  0  0  0  0  0  0  0  0  0
   20.0861  -11.0037  -18.8601 C   0  0  0  0  0  0  0  0  0  0  0  0
   19.7383  -11.1928  -17.3957 C   0  0  1  0  0  0  0  0  0  0  0  0
   19.3568   -9.9483  -16.7229 C   0  0  0  0  0  0  0  0  0  0  0  0
   18.1617   -9.5715  -16.8105 O   0  0  0  0  0  0  0  0  0  0  0  0
   21.5985   -8.1075  -13.9103 O   0  0  0  0  0  0  0  0  0  0  0  0
   20.2586   -7.7138  -13.9818 C   0  0  0  0  0  0  0  0  0  0  0  0
   19.7859   -7.9135  -15.4009 C   0  0  2  0  0  0  0  0  0  0  0  0
   20.2474   -9.1379  -15.9782 N   0  0  0  0  0  0  0  0  0  0  0  0
   20.2574   -6.7185  -16.1701 C   0  0  0  0  0  0  0  0  0  0  0  0
   21.3964   -6.7937  -16.6887 O   0  0  0  0  0  0  0  0  0  0  0  0
   18.2317   -0.0351  -19.9057 C   0  0  0  0  0  0  0  0  0  0  0  0
   17.6816   -1.2942  -18.7231 S   0  0  0  0  0  0  0  0  0  0  0  0
   19.1188   -2.2706  -18.1956 C   0  0  0  0  0  0  0  0  0  0  0  0
   18.7233   -3.4717  -17.3736 C   0  0  0  0  0  0  0  0  0  0  0  0
   19.8703   -4.4044  -17.0836 C   0  0  2  0  0  0  0  0  0  0  0  0
   19.4626   -5.5495  -16.3131 N   0  0  0  0  0  0  0  0  0  0  0  0
   21.0516   -3.7287  -16.5000 C   0  0  0  0  0  0  0  0  0  0  0  0
   21.1684   -3.6393  -15.2325 O   0  0  0  0  0  0  0  0  0  0  0  0
   22.0727   -3.1685  -17.2479 O   0  0  0  0  0  0  0  0  0  0  0  0
  1  5  1  0
  2  1  1  0
  3  2  1  0
  3  4  1  0
  4  5  1  0
  5  6  1  6
  6 11  1  0
  7  6  2  0
  8  9  1  0
 10 11  1  0
 10  9  1  1
 12 10  1  0
 12 19  1  0
 13 12  2  0
 15 14  1  0
 16 15  1  0
 17 16  1  0
 18 19  1  0
 18 17  1  1
 20 18  1  0
 21 20  2  0
 22 20  1  0
M  END
$$$$
