TAV.pdb
     RDKit          3D

 20 19  0  0  1  0  0  0  0  0999 V2000
   16.2401  -12.0420  -18.6947 C   0  0  0  0  0  0  0  0  0  0  0  0
   16.2030  -13.2288  -17.7276 C   0  0  1  0  0  0  0  0  0  0  0  0
   15.8409  -14.4011  -18.3601 O   0  0  0  0  0  0  0  0  0  0  0  0
   17.5873  -13.3307  -17.0987 C   0  0  2  0  0  0  0  0  0  0  0  0
   17.6327  -14.5115  -16.2656 N   0  0  0  0  0  0  0  0  0  0  0  0
   17.8511  -12.1420  -16.2585 C   0  0  0  0  0  0  0  0  0  0  0  0
   17.0441  -11.8226  -15.3631 O   0  0  0  0  0  0  0  0  0  0  0  0
   20.6337   -9.7263  -15.4684 C   0  0  0  0  0  0  0  0  0  0  0  0
   19.1931  -10.1695  -15.5622 C   0  0  2  0  0  0  0  0  0  0  0  0
   18.9983  -11.3097  -16.4041 N   0  0  0  0  0  0  0  0  0  0  0  0
   18.3748   -8.9982  -16.0160 C   0  0  0  0  0  0  0  0  0  0  0  0
   18.2445   -8.7383  -17.2334 O   0  0  0  0  0  0  0  0  0  0  0  0
   14.9950   -8.3934  -16.1880 C   0  0  0  0  0  0  0  0  0  0  0  0
   15.4798   -7.2366  -15.3757 C   0  0  1  0  0  0  0  0  0  0  0  0
   15.0678   -7.3503  -13.9453 C   0  0  0  0  0  0  0  0  0  0  0  0
   16.9742   -7.0232  -15.4734 C   0  0  2  0  0  0  0  0  0  0  0  0
   17.7304   -8.1595  -15.0701 N   0  0  0  0  0  0  0  0  0  0  0  0
   17.3960   -5.7660  -14.8117 C   0  0  0  0  0  0  0  0  0  0  0  0
   17.0893   -4.5634  -15.4266 O   0  0  0  0  0  0  0  0  0  0  0  0
   18.0170   -5.6976  -13.7248 O   0  0  0  0  0  0  0  0  0  0  0  0
  2  1  1  6
  2  3  1  0
  4  5  1  1
  4  2  1  0
  6 10  1  0
  6  4  1  0
  7  6  2  0
  9 10  1  0
  9  8  1  6
 11  9  1  0
 12 11  2  0
 14 13  1  6
 14 15  1  0
 16 17  1  1
 16 14  1  0
 17 11  1  0
 18 16  1  0
 19 18  1  0
 20 18  2  0
M  END
$$$$
