TAV.pdb
     RDKit          3D

 20 19  0  0  1  0  0  0  0  0999 V2000
   21.0230   -9.0131  -20.2926 C   0  0  0  0  0  0  0  0  0  0  0  0
   19.8588   -9.9700  -20.0200 C   0  0  1  0  0  0  0  0  0  0  0  0
   19.3053  -10.4577  -21.1867 O   0  0  0  0  0  0  0  0  0  0  0  0
   20.4028  -11.0901  -19.1417 C   0  0  2  0  0  0  0  0  0  0  0  0
   19.3860  -12.1090  -19.0062 N   0  0  0  0  0  0  0  0  0  0  0  0
   20.7360  -10.5652  -17.7993 C   0  0  0  0  0  0  0  0  0  0  0  0
   19.8609   -9.9899  -17.1224 O   0  0  0  0  0  0  0  0  0  0  0  0
   23.5802  -10.6275  -15.2974 C   0  0  0  0  0  0  0  0  0  0  0  0
   22.2873  -10.1381  -15.9051 C   0  0  2  0  0  0  0  0  0  0  0  0
   22.0267  -10.6740  -17.2058 N   0  0  0  0  0  0  0  0  0  0  0  0
   22.3175   -8.6393  -15.9182 C   0  0  0  0  0  0  0  0  0  0  0  0
   22.8697   -8.0159  -16.8525 O   0  0  0  0  0  0  0  0  0  0  0  0
   19.2271   -6.2982  -14.8282 C   0  0  0  0  0  0  0  0  0  0  0  0
   20.4978   -5.8619  -15.4825 C   0  0  1  0  0  0  0  0  0  0  0  0
   20.6221   -4.3746  -15.5188 C   0  0  0  0  0  0  0  0  0  0  0  0
   21.7319   -6.4740  -14.8575 C   0  0  2  0  0  0  0  0  0  0  0  0
   21.7184   -7.8971  -14.8677 N   0  0  0  0  0  0  0  0  0  0  0  0
   22.0202   -5.8940  -13.5246 C   0  0  0  0  0  0  0  0  0  0  0  0
   22.5037   -4.5977  -13.4613 O   0  0  0  0  0  0  0  0  0  0  0  0
   21.8610   -6.4870  -12.4316 O   0  0  0  0  0  0  0  0  0  0  0  0
  2  1  1  6
  2  3  1  0
  4  5  1  1
  4  2  1  0
  6 10  1  0
  6  4  1  0
  7  6  2  0
  9 10  1  0
  9  8  1  6
 11  9  1  0
 12 11  2  0
 14 13  1  1
 14 15  1  0
 16 17  1  1
 16 14  1  0
 17 11  1  0
 18 16  1  0
 19 18  1  0
 20 18  2  0
M  END
$$$$
