TAV.pdb
     RDKit          3D

 20 19  0  0  1  0  0  0  0  0999 V2000
   14.9246   -8.2662  -14.3941 C   0  0  0  0  0  0  0  0  0  0  0  0
   14.4622   -9.6954  -14.0962 C   0  0  1  0  0  0  0  0  0  0  0  0
   13.1161   -9.7522  -13.7955 O   0  0  0  0  0  0  0  0  0  0  0  0
   14.8031  -10.5353  -15.3211 C   0  0  2  0  0  0  0  0  0  0  0  0
   14.4400  -11.9096  -15.0571 N   0  0  0  0  0  0  0  0  0  0  0  0
   16.2556  -10.4681  -15.5935 C   0  0  0  0  0  0  0  0  0  0  0  0
   17.0459  -11.1630  -14.9246 O   0  0  0  0  0  0  0  0  0  0  0  0
   18.6052   -9.0805  -18.2130 C   0  0  0  0  0  0  0  0  0  0  0  0
   18.2341   -9.7000  -16.8866 C   0  0  2  0  0  0  0  0  0  0  0  0
   16.8341   -9.6396  -16.5980 N   0  0  0  0  0  0  0  0  0  0  0  0
   19.0501   -9.0359  -15.8186 C   0  0  0  0  0  0  0  0  0  0  0  0
   18.5733   -8.1052  -15.1309 O   0  0  0  0  0  0  0  0  0  0  0  0
   21.7755  -10.8549  -13.3582 C   0  0  0  0  0  0  0  0  0  0  0  0
   22.3032   -9.6426  -14.0545 C   0  0  1  0  0  0  0  0  0  0  0  0
   23.2992   -9.9967  -15.1087 C   0  0  0  0  0  0  0  0  0  0  0  0
   21.2153   -8.7676  -14.6368 C   0  0  2  0  0  0  0  0  0  0  0  0
   20.3831   -9.4519  -15.5668 N   0  0  0  0  0  0  0  0  0  0  0  0
   21.7549   -7.4882  -15.1547 C   0  0  0  0  0  0  0  0  0  0  0  0
   22.2114   -6.5496  -14.2442 O   0  0  0  0  0  0  0  0  0  0  0  0
   21.8346   -7.1784  -16.3668 O   0  0  0  0  0  0  0  0  0  0  0  0
  2  1  1  6
  2  3  1  0
  4  5  1  1
  4  2  1  0
  6 10  1  0
  6  4  1  0
  7  6  2  0
  9 10  1  0
  9  8  1  6
 11  9  1  0
 12 11  2  0
 14 13  1  6
 14 15  1  0
 16 17  1  6
 16 14  1  0
 17 11  1  0
 18 16  1  0
 19 18  1  0
 20 18  2  0
M  END
$$$$
