TAV.pdb
     RDKit          3D

 20 19  0  0  1  0  0  0  0  0999 V2000
   17.6535  -11.2097  -14.2220 C   0  0  0  0  0  0  0  0  0  0  0  0
   18.2567  -11.8913  -15.4535 C   0  0  1  0  0  0  0  0  0  0  0  0
   18.1094  -13.2631  -15.4104 O   0  0  0  0  0  0  0  0  0  0  0  0
   17.5716  -11.2878  -16.6735 C   0  0  2  0  0  0  0  0  0  0  0  0
   18.0144  -11.9974  -17.8528 N   0  0  0  0  0  0  0  0  0  0  0  0
   17.9394   -9.8611  -16.8074 C   0  0  0  0  0  0  0  0  0  0  0  0
   19.1181   -9.5447  -17.0633 O   0  0  0  0  0  0  0  0  0  0  0  0
   16.2988   -6.4375  -16.8000 C   0  0  0  0  0  0  0  0  0  0  0  0
   17.4391   -7.4270  -16.7661 C   0  0  2  0  0  0  0  0  0  0  0  0
   17.0129   -8.7887  -16.6603 N   0  0  0  0  0  0  0  0  0  0  0  0
   18.3547   -7.0432  -15.6427 C   0  0  0  0  0  0  0  0  0  0  0  0
   18.1393   -7.4380  -14.4747 O   0  0  0  0  0  0  0  0  0  0  0  0
   22.6814   -5.6861  -13.9393 C   0  0  0  0  0  0  0  0  0  0  0  0
   21.7773   -6.2040  -15.0105 C   0  0  1  0  0  0  0  0  0  0  0  0
   21.8741   -7.6871  -15.1506 C   0  0  0  0  0  0  0  0  0  0  0  0
   20.3342   -5.7900  -14.8254 C   0  0  2  0  0  0  0  0  0  0  0  0
   19.4866   -6.2223  -15.8839 N   0  0  0  0  0  0  0  0  0  0  0  0
   20.2099   -4.3453  -14.5197 C   0  0  0  0  0  0  0  0  0  0  0  0
   19.5988   -3.5249  -15.4535 O   0  0  0  0  0  0  0  0  0  0  0  0
   20.6176   -3.7937  -13.4703 O   0  0  0  0  0  0  0  0  0  0  0  0
  2  1  1  1
  2  3  1  0
  4  5  1  6
  4  2  1  0
  6 10  1  0
  6  4  1  0
  7  6  2  0
  9 10  1  0
  9  8  1  1
 11  9  1  0
 12 11  2  0
 14 13  1  1
 14 15  1  0
 16 17  1  6
 16 14  1  0
 17 11  1  0
 18 16  1  0
 19 18  1  0
 20 18  2  0
M  END
$$$$
