TAV.pdb
     RDKit          3D

 20 19  0  0  1  0  0  0  0  0999 V2000
   19.1087   -9.9449  -18.6640 C   0  0  0  0  0  0  0  0  0  0  0  0
   18.4345  -11.0673  -17.8698 C   0  0  1  0  0  0  0  0  0  0  0  0
   17.7018  -11.9089  -18.6825 O   0  0  0  0  0  0  0  0  0  0  0  0
   19.5399  -11.8144  -17.1337 C   0  0  2  0  0  0  0  0  0  0  0  0
   18.9567  -12.9415  -16.4410 N   0  0  0  0  0  0  0  0  0  0  0  0
   20.1808  -10.9230  -16.1421 C   0  0  0  0  0  0  0  0  0  0  0  0
   19.4797  -10.3125  -15.3110 O   0  0  0  0  0  0  0  0  0  0  0  0
   23.6146  -10.0974  -14.8114 C   0  0  0  0  0  0  0  0  0  0  0  0
   22.1474   -9.8484  -15.0676 C   0  0  2  0  0  0  0  0  0  0  0  0
   21.5868  -10.7057  -16.0665 N   0  0  0  0  0  0  0  0  0  0  0  0
   21.9755   -8.4010  -15.4185 C   0  0  0  0  0  0  0  0  0  0  0  0
   22.0780   -8.0104  -16.6032 O   0  0  0  0  0  0  0  0  0  0  0  0
   19.5342   -6.3269  -16.1097 C   0  0  0  0  0  0  0  0  0  0  0  0
   20.1817   -5.5981  -14.9771 C   0  0  1  0  0  0  0  0  0  0  0  0
   19.3669   -5.6752  -13.7286 C   0  0  0  0  0  0  0  0  0  0  0  0
   21.5980   -6.0546  -14.7055 C   0  0  2  0  0  0  0  0  0  0  0  0
   21.6925   -7.4437  -14.4102 N   0  0  0  0  0  0  0  0  0  0  0  0
   22.2744   -5.1902  -13.7098 C   0  0  0  0  0  0  0  0  0  0  0  0
   22.5197   -5.7066  -12.4483 O   0  0  0  0  0  0  0  0  0  0  0  0
   22.6496   -4.0118  -13.9160 O   0  0  0  0  0  0  0  0  0  0  0  0
  2  1  1  6
  2  3  1  0
  4  5  1  1
  4  2  1  0
  6 10  1  0
  6  4  1  0
  7  6  2  0
  9 10  1  0
  9  8  1  6
 11  9  1  0
 12 11  2  0
 14 13  1  6
 14 15  1  0
 16 17  1  1
 16 14  1  0
 17 11  1  0
 18 16  1  0
 19 18  1  0
 20 18  2  0
M  END
$$$$
