TAV.pdb
     RDKit          3D

 20 19  0  0  1  0  0  0  0  0999 V2000
   27.2084  -22.1818  -18.8220 C   0  0  0  0  0  0  0  0  0  0  0  0
   28.1497  -23.2367  -18.2337 C   0  0  1  0  0  0  0  0  0  0  0  0
   28.9460  -23.8172  -19.2004 O   0  0  0  0  0  0  0  0  0  0  0  0
   28.9795  -22.5410  -17.1616 C   0  0  2  0  0  0  0  0  0  0  0  0
   29.8181  -23.5241  -16.5130 N   0  0  0  0  0  0  0  0  0  0  0  0
   28.0903  -21.9287  -16.1502 C   0  0  0  0  0  0  0  0  0  0  0  0
   27.4279  -22.6558  -15.3836 O   0  0  0  0  0  0  0  0  0  0  0  0
   27.1920  -18.4896  -14.8107 C   0  0  0  0  0  0  0  0  0  0  0  0
   27.1082  -19.9917  -14.9418 C   0  0  2  0  0  0  0  0  0  0  0  0
   27.9320  -20.5225  -15.9842 N   0  0  0  0  0  0  0  0  0  0  0  0
   25.6678  -20.3625  -15.1297 C   0  0  0  0  0  0  0  0  0  0  0  0
   25.1562  -20.3952  -16.2715 O   0  0  0  0  0  0  0  0  0  0  0  0
   21.5333  -22.3719  -13.3904 C   0  0  0  0  0  0  0  0  0  0  0  0
   22.9601  -21.9892  -13.1650 C   0  0  1  0  0  0  0  0  0  0  0  0
   23.8596  -23.1805  -13.1512 C   0  0  0  0  0  0  0  0  0  0  0  0
   23.4666  -20.9638  -14.1550 C   0  0  2  0  0  0  0  0  0  0  0  0
   24.8548  -20.6844  -14.0122 N   0  0  0  0  0  0  0  0  0  0  0  0
   22.6171  -19.7496  -14.1745 C   0  0  0  0  0  0  0  0  0  0  0  0
   21.5279  -19.7217  -15.0295 O   0  0  0  0  0  0  0  0  0  0  0  0
   22.8039  -18.7288  -13.4710 O   0  0  0  0  0  0  0  0  0  0  0  0
  2  1  1  6
  2  3  1  0
  4  5  1  1
  4  2  1  0
  6 10  1  0
  6  4  1  0
  7  6  2  0
  9 10  1  0
  9  8  1  6
 11  9  1  0
 12 11  2  0
 14 13  1  6
 14 15  1  0
 16 17  1  1
 16 14  1  0
 17 11  1  0
 18 16  1  0
 19 18  1  0
 20 18  2  0
M  END
$$$$
