TAV.pdb
     RDKit          3D

 20 19  0  0  1  0  0  0  0  0999 V2000
   17.1366  -10.8508  -14.2743 C   0  0  0  0  0  0  0  0  0  0  0  0
   17.7547  -11.7945  -15.3099 C   0  0  1  0  0  0  0  0  0  0  0  0
   17.4342  -13.1145  -15.0643 O   0  0  0  0  0  0  0  0  0  0  0  0
   17.2589  -11.3379  -16.6766 C   0  0  2  0  0  0  0  0  0  0  0  0
   17.7310  -12.2693  -17.6765 N   0  0  0  0  0  0  0  0  0  0  0  0
   17.7922   -9.9931  -16.9859 C   0  0  0  0  0  0  0  0  0  0  0  0
   19.0060   -9.8475  -17.2319 O   0  0  0  0  0  0  0  0  0  0  0  0
   16.5695   -6.4581  -17.5939 C   0  0  0  0  0  0  0  0  0  0  0  0
   17.5789   -7.5331  -17.2686 C   0  0  2  0  0  0  0  0  0  0  0  0
   16.9921   -8.8148  -17.0241 N   0  0  0  0  0  0  0  0  0  0  0  0
   18.3968   -7.0656  -16.1024 C   0  0  0  0  0  0  0  0  0  0  0  0
   18.0227   -7.2811  -14.9276 O   0  0  0  0  0  0  0  0  0  0  0  0
   22.6970   -5.7933  -14.2003 C   0  0  0  0  0  0  0  0  0  0  0  0
   21.8642   -6.2867  -15.3387 C   0  0  1  0  0  0  0  0  0  0  0  0
   21.9983   -7.7616  -15.5271 C   0  0  0  0  0  0  0  0  0  0  0  0
   20.4051   -5.9060  -15.2199 C   0  0  2  0  0  0  0  0  0  0  0  0
   19.6146   -6.3676  -16.3097 N   0  0  0  0  0  0  0  0  0  0  0  0
   20.2336   -4.4621  -14.9337 C   0  0  0  0  0  0  0  0  0  0  0  0
   20.4662   -4.0144  -13.6438 O   0  0  0  0  0  0  0  0  0  0  0  0
   19.8901   -3.5973  -15.7739 O   0  0  0  0  0  0  0  0  0  0  0  0
  2  1  1  1
  2  3  1  0
  4  5  1  6
  4  2  1  0
  6 10  1  0
  6  4  1  0
  7  6  2  0
  9 10  1  0
  9  8  1  1
 11  9  1  0
 12 11  2  0
 14 13  1  1
 14 15  1  0
 16 17  1  6
 16 14  1  0
 17 11  1  0
 18 16  1  0
 19 18  1  0
 20 18  2  0
M  END
$$$$
