TAV.pdb
     RDKit          3D

 20 19  0  0  1  0  0  0  0  0999 V2000
   19.4351  -14.5762  -15.1317 C   0  0  0  0  0  0  0  0  0  0  0  0
   19.6962  -15.2592  -16.4772 C   0  0  1  0  0  0  0  0  0  0  0  0
   19.4342  -16.6137  -16.4300 O   0  0  0  0  0  0  0  0  0  0  0  0
   18.8265  -14.5515  -17.5091 C   0  0  2  0  0  0  0  0  0  0  0  0
   19.0409  -15.1690  -18.7987 N   0  0  0  0  0  0  0  0  0  0  0  0
   19.2020  -13.1231  -17.5944 C   0  0  0  0  0  0  0  0  0  0  0  0
   20.3701  -12.8045  -17.8925 O   0  0  0  0  0  0  0  0  0  0  0  0
   17.6395   -9.6832  -17.4927 C   0  0  0  0  0  0  0  0  0  0  0  0
   18.7480  -10.6946  -17.3236 C   0  0  2  0  0  0  0  0  0  0  0  0
   18.2948  -12.0514  -17.3527 N   0  0  0  0  0  0  0  0  0  0  0  0
   19.4750  -10.3796  -16.0509 C   0  0  0  0  0  0  0  0  0  0  0  0
   19.0444  -10.7847  -14.9477 O   0  0  0  0  0  0  0  0  0  0  0  0
   23.1423  -11.1218  -15.2895 C   0  0  0  0  0  0  0  0  0  0  0  0
   22.8806   -9.6759  -15.0176 C   0  0  1  0  0  0  0  0  0  0  0  0
   23.5150   -8.7941  -16.0416 C   0  0  0  0  0  0  0  0  0  0  0  0
   21.4093   -9.3498  -14.8870 C   0  0  2  0  0  0  0  0  0  0  0  0
   20.6690   -9.6134  -16.0737 N   0  0  0  0  0  0  0  0  0  0  0  0
   21.1925   -7.9880  -14.3441 C   0  0  0  0  0  0  0  0  0  0  0  0
   20.5371   -7.0600  -15.1364 O   0  0  0  0  0  0  0  0  0  0  0  0
   21.5579   -7.5984  -13.2099 O   0  0  0  0  0  0  0  0  0  0  0  0
  2  1  1  1
  2  3  1  0
  4  5  1  6
  4  2  1  0
  6 10  1  0
  6  4  1  0
  7  6  2  0
  9 10  1  0
  9  8  1  1
 11  9  1  0
 12 11  2  0
 14 13  1  6
 14 15  1  0
 16 17  1  6
 16 14  1  0
 17 11  1  0
 18 16  1  0
 19 18  1  0
 20 18  2  0
M  END
$$$$
