TAV.pdb
     RDKit          3D

 20 19  0  0  1  0  0  0  0  0999 V2000
   19.5983   -9.2995  -19.7266 C   0  0  0  0  0  0  0  0  0  0  0  0
   18.6172  -10.2152  -18.9890 C   0  0  1  0  0  0  0  0  0  0  0  0
   17.7571  -10.8583  -19.8563 O   0  0  0  0  0  0  0  0  0  0  0  0
   19.4531  -11.2042  -18.1859 C   0  0  2  0  0  0  0  0  0  0  0  0
   18.5720  -12.1925  -17.6052 N   0  0  0  0  0  0  0  0  0  0  0  0
   20.1650  -10.4995  -17.0972 C   0  0  0  0  0  0  0  0  0  0  0  0
   19.5182   -9.8607  -16.2436 O   0  0  0  0  0  0  0  0  0  0  0  0
   23.6710  -10.1242  -15.7034 C   0  0  0  0  0  0  0  0  0  0  0  0
   22.2120   -9.7795  -15.8856 C   0  0  2  0  0  0  0  0  0  0  0  0
   21.5821  -10.4988  -16.9499 N   0  0  0  0  0  0  0  0  0  0  0  0
   22.1050   -8.2966  -16.0784 C   0  0  0  0  0  0  0  0  0  0  0  0
   22.0247   -7.8019  -17.2252 O   0  0  0  0  0  0  0  0  0  0  0  0
   19.4616   -6.0442  -14.9142 C   0  0  0  0  0  0  0  0  0  0  0  0
   20.6406   -5.5991  -15.7172 C   0  0  1  0  0  0  0  0  0  0  0  0
   20.6240   -4.1261  -15.9593 C   0  0  0  0  0  0  0  0  0  0  0  0
   21.9644   -6.0145  -15.1147 C   0  0  2  0  0  0  0  0  0  0  0  0
   22.0927   -7.4235  -14.9600 N   0  0  0  0  0  0  0  0  0  0  0  0
   22.2718   -5.2529  -13.8811 C   0  0  0  0  0  0  0  0  0  0  0  0
   22.6503   -3.9262  -14.0035 O   0  0  0  0  0  0  0  0  0  0  0  0
   22.2174   -5.7153  -12.7171 O   0  0  0  0  0  0  0  0  0  0  0  0
  2  1  1  6
  2  3  1  0
  4  5  1  1
  4  2  1  0
  6 10  1  0
  6  4  1  0
  7  6  2  0
  9 10  1  0
  9  8  1  6
 11  9  1  0
 12 11  2  0
 14 13  1  1
 14 15  1  0
 16 17  1  1
 16 14  1  0
 17 11  1  0
 18 16  1  0
 19 18  1  0
 20 18  2  0
M  END
$$$$
