TAV.pdb
     RDKit          3D

 20 19  0  0  1  0  0  0  0  0999 V2000
   19.3553  -14.0401  -15.8433 C   0  0  0  0  0  0  0  0  0  0  0  0
   18.0909  -14.4844  -16.5844 C   0  0  1  0  0  0  0  0  0  0  0  0
   18.0821  -15.8437  -16.8246 O   0  0  0  0  0  0  0  0  0  0  0  0
   16.9037  -14.0539  -15.7316 C   0  0  2  0  0  0  0  0  0  0  0  0
   15.6885  -14.5301  -16.3538 N   0  0  0  0  0  0  0  0  0  0  0  0
   16.8503  -12.5781  -15.6453 C   0  0  0  0  0  0  0  0  0  0  0  0
   16.8679  -11.8937  -16.6875 O   0  0  0  0  0  0  0  0  0  0  0  0
   16.5181   -9.8304  -13.0491 C   0  0  0  0  0  0  0  0  0  0  0  0
   16.8576  -10.4318  -14.3921 C   0  0  2  0  0  0  0  0  0  0  0  0
   16.7776  -11.8601  -14.4168 N   0  0  0  0  0  0  0  0  0  0  0  0
   18.2189   -9.9453  -14.7889 C   0  0  0  0  0  0  0  0  0  0  0  0
   19.2437  -10.6101  -14.5162 O   0  0  0  0  0  0  0  0  0  0  0  0
   18.7420   -7.0248  -17.8933 C   0  0  0  0  0  0  0  0  0  0  0  0
   19.7444   -8.0111  -17.3878 C   0  0  1  0  0  0  0  0  0  0  0  0
   21.1381   -7.6282  -17.7613 C   0  0  0  0  0  0  0  0  0  0  0  0
   19.6496   -8.2474  -15.8967 C   0  0  2  0  0  0  0  0  0  0  0  0
   18.3713   -8.7175  -15.4836 N   0  0  0  0  0  0  0  0  0  0  0  0
   20.1298   -7.0791  -15.1217 C   0  0  0  0  0  0  0  0  0  0  0  0
   19.1949   -6.2930  -14.4686 O   0  0  0  0  0  0  0  0  0  0  0  0
   21.3300   -6.7363  -15.0052 O   0  0  0  0  0  0  0  0  0  0  0  0
  2  1  1  1
  2  3  1  0
  4  5  1  6
  4  2  1  0
  6 10  1  0
  6  4  1  0
  7  6  2  0
  9 10  1  0
  9  8  1  1
 11  9  1  0
 12 11  2  0
 14 13  1  1
 14 15  1  0
 16 17  1  1
 16 14  1  0
 17 11  1  0
 18 16  1  0
 19 18  1  0
 20 18  2  0
M  END
$$$$
