TAV.pdb
     RDKit          3D

 20 19  0  0  1  0  0  0  0  0999 V2000
   23.6907   -9.3693  -18.8672 C   0  0  0  0  0  0  0  0  0  0  0  0
   22.8178  -10.6102  -19.0756 C   0  0  1  0  0  0  0  0  0  0  0  0
   23.5052  -11.6267  -19.7079 O   0  0  0  0  0  0  0  0  0  0  0  0
   22.3185  -11.0363  -17.7004 C   0  0  2  0  0  0  0  0  0  0  0  0
   21.6349  -12.3040  -17.8272 N   0  0  0  0  0  0  0  0  0  0  0  0
   21.3695  -10.0319  -17.1721 C   0  0  0  0  0  0  0  0  0  0  0  0
   20.3841   -9.6888  -17.8548 O   0  0  0  0  0  0  0  0  0  0  0  0
   20.6931   -8.0726  -13.9977 C   0  0  0  0  0  0  0  0  0  0  0  0
   20.5838   -8.4033  -15.4671 C   0  0  2  0  0  0  0  0  0  0  0  0
   21.5057   -9.4090  -15.8979 N   0  0  0  0  0  0  0  0  0  0  0  0
   20.7471   -7.1313  -16.2435 C   0  0  0  0  0  0  0  0  0  0  0  0
   21.8798   -6.7394  -16.6040 O   0  0  0  0  0  0  0  0  0  0  0  0
   17.6609   -5.3958  -18.6583 C   0  0  0  0  0  0  0  0  0  0  0  0
   19.1353   -5.1526  -18.6725 C   0  0  1  0  0  0  0  0  0  0  0  0
   19.4868   -3.9121  -19.4251 C   0  0  0  0  0  0  0  0  0  0  0  0
   19.7475   -5.1156  -17.2898 C   0  0  2  0  0  0  0  0  0  0  0  0
   19.6162   -6.3454  -16.5854 N   0  0  0  0  0  0  0  0  0  0  0  0
   19.2897   -3.9379  -16.5154 C   0  0  0  0  0  0  0  0  0  0  0  0
   19.9598   -2.7377  -16.6847 O   0  0  0  0  0  0  0  0  0  0  0  0
   18.3316   -3.9359  -15.7069 O   0  0  0  0  0  0  0  0  0  0  0  0
  2  1  1  1
  2  3  1  0
  4  5  1  6
  4  2  1  0
  6 10  1  0
  6  4  1  0
  7  6  2  0
  9 10  1  0
  9  8  1  1
 11  9  1  0
 12 11  2  0
 14 13  1  1
 14 15  1  0
 16 17  1  1
 16 14  1  0
 17 11  1  0
 18 16  1  0
 19 18  1  0
 20 18  2  0
M  END
$$$$
