VAM.pdb
     RDKit          3D

 21 20  0  0  1  0  0  0  0  0999 V2000
   17.9773   -9.9834  -17.9636 C   0  0  0  0  0  0  0  0  0  0  0  0
   18.9201  -11.1122  -18.2934 C   0  0  2  0  0  0  0  0  0  0  0  0
   18.2713  -12.0481  -19.2823 C   0  0  0  0  0  0  0  0  0  0  0  0
   19.3657  -11.8674  -17.0751 C   0  0  2  0  0  0  0  0  0  0  0  0
   18.3225  -12.6781  -16.5073 N   0  0  0  0  0  0  0  0  0  0  0  0
   20.0076  -10.9862  -16.0671 C   0  0  0  0  0  0  0  0  0  0  0  0
   19.2819  -10.2926  -15.3076 O   0  0  0  0  0  0  0  0  0  0  0  0
   23.5091  -10.3345  -14.9136 C   0  0  0  0  0  0  0  0  0  0  0  0
   22.0378   -9.9283  -15.0149 C   0  0  2  0  0  0  0  0  0  0  0  0
   21.4065  -10.8760  -15.9049 N   0  0  0  0  0  0  0  0  0  0  0  0
   21.9817   -8.5462  -15.5131 C   0  0  0  0  0  0  0  0  0  0  0  0
   22.0978   -8.3185  -16.7296 O   0  0  0  0  0  0  0  0  0  0  0  0
   18.1935   -3.1505  -18.0542 C   0  0  0  0  0  0  0  0  0  0  0  0
   18.3221   -4.3781  -16.7360 S   0  0  0  0  0  0  0  0  0  0  0  0
   20.0421   -4.7171  -16.3371 C   0  0  0  0  0  0  0  0  0  0  0  0
   20.3095   -5.8152  -15.4016 C   0  0  0  0  0  0  0  0  0  0  0  0
   21.7391   -6.0952  -15.1291 C   0  0  2  0  0  0  0  0  0  0  0  0
   21.7964   -7.4880  -14.6078 N   0  0  0  0  0  0  0  0  0  0  0  0
   22.3470   -5.2726  -14.0941 C   0  0  0  0  0  0  0  0  0  0  0  0
   22.6499   -4.0524  -14.3796 O   0  0  0  0  0  0  0  0  0  0  0  0
   22.6393   -5.6676  -12.7905 O   0  0  0  0  0  0  0  0  0  0  0  0
  2  1  1  1
  3  2  1  0
  4  2  1  0
  4  5  1  1
  6  4  1  0
  6  7  2  0
  9  8  1  6
  9 11  1  0
  9 10  1  0
 10  6  1  0
 11 18  1  0
 12 11  2  0
 14 13  1  0
 15 14  1  0
 16 15  1  0
 17 16  1  1
 18 17  1  0
 19 17  1  0
 20 19  2  0
 21 19  1  0
M  END
$$$$
