VAM.pdb
     RDKit          3D

 21 20  0  0  1  0  0  0  0  0999 V2000
   18.4939  -14.9404  -19.5338 C   0  0  0  0  0  0  0  0  0  0  0  0
   19.5939  -15.4745  -18.6526 C   0  0  2  0  0  0  0  0  0  0  0  0
   19.4013  -16.9544  -18.4343 C   0  0  0  0  0  0  0  0  0  0  0  0
   19.6777  -14.7594  -17.3355 C   0  0  2  0  0  0  0  0  0  0  0  0
   18.5379  -15.0033  -16.4933 N   0  0  0  0  0  0  0  0  0  0  0  0
   19.9613  -13.3108  -17.4959 C   0  0  0  0  0  0  0  0  0  0  0  0
   21.0643  -12.9520  -17.9853 O   0  0  0  0  0  0  0  0  0  0  0  0
   18.0139  -10.1460  -17.0471 C   0  0  0  0  0  0  0  0  0  0  0  0
   19.3392  -10.8813  -17.2538 C   0  0  2  0  0  0  0  0  0  0  0  0
   19.0545  -12.2925  -17.1270 N   0  0  0  0  0  0  0  0  0  0  0  0
   20.2910  -10.3938  -16.2447 C   0  0  0  0  0  0  0  0  0  0  0  0
   20.2750  -10.8664  -15.0952 O   0  0  0  0  0  0  0  0  0  0  0  0
   26.4809  -11.5415  -15.0687 C   0  0  0  0  0  0  0  0  0  0  0  0
   26.2776   -9.8763  -15.7374 S   0  0  0  0  0  0  0  0  0  0  0  0
   24.6984   -9.1725  -15.2443 C   0  0  0  0  0  0  0  0  0  0  0  0
   23.5263   -9.5228  -16.0542 C   0  0  0  0  0  0  0  0  0  0  0  0
   22.2317   -8.9761  -15.5832 C   0  0  2  0  0  0  0  0  0  0  0  0
   21.2159   -9.3934  -16.5876 N   0  0  0  0  0  0  0  0  0  0  0  0
   22.1509   -7.5240  -15.5359 C   0  0  0  0  0  0  0  0  0  0  0  0
   21.8087   -6.8936  -16.6072 O   0  0  0  0  0  0  0  0  0  0  0  0
   22.4027   -6.7183  -14.4276 O   0  0  0  0  0  0  0  0  0  0  0  0
  2  1  1  6
  3  2  1  0
  4  2  1  0
  4  5  1  6
  6  4  1  0
  6  7  2  0
  9  8  1  1
  9 11  1  0
  9 10  1  0
 10  6  1  0
 11 18  1  0
 12 11  2  0
 14 13  1  0
 15 14  1  0
 16 15  1  0
 17 16  1  6
 18 17  1  0
 19 17  1  0
 20 19  2  0
 21 19  1  0
M  END
$$$$
