VAM.pdb
     RDKit          3D

 21 20  0  0  1  0  0  0  0  0999 V2000
   28.8353  -17.9838  -15.7961 C   0  0  0  0  0  0  0  0  0  0  0  0
   27.9397  -18.7665  -16.7218 C   0  0  2  0  0  0  0  0  0  0  0  0
   28.6362  -18.9880  -18.0411 C   0  0  0  0  0  0  0  0  0  0  0  0
   26.6109  -18.1028  -16.9383 C   0  0  2  0  0  0  0  0  0  0  0  0
   26.7185  -16.8510  -17.6379 N   0  0  0  0  0  0  0  0  0  0  0  0
   25.8281  -17.9820  -15.6824 C   0  0  0  0  0  0  0  0  0  0  0  0
   26.0690  -17.0268  -14.8988 O   0  0  0  0  0  0  0  0  0  0  0  0
   22.6032  -18.7205  -14.4177 C   0  0  0  0  0  0  0  0  0  0  0  0
   24.0875  -18.8067  -14.0581 C   0  0  2  0  0  0  0  0  0  0  0  0
   24.8122  -18.8884  -15.3059 N   0  0  0  0  0  0  0  0  0  0  0  0
   24.2796  -19.9874  -13.2032 C   0  0  0  0  0  0  0  0  0  0  0  0
   24.3757  -21.1163  -13.7144 O   0  0  0  0  0  0  0  0  0  0  0  0
   26.5791  -18.5892   -7.5355 C   0  0  0  0  0  0  0  0  0  0  0  0
   27.2198  -20.2418   -7.8815 S   0  0  0  0  0  0  0  0  0  0  0  0
   26.4851  -20.9174   -9.3769 C   0  0  0  0  0  0  0  0  0  0  0  0
   25.0967  -20.5445   -9.6692 C   0  0  0  0  0  0  0  0  0  0  0  0
   24.5559  -21.0359  -10.9587 C   0  0  2  0  0  0  0  0  0  0  0  0
   24.3537  -19.8313  -11.8090 N   0  0  0  0  0  0  0  0  0  0  0  0
   23.2509  -21.6750  -10.8819 C   0  0  0  0  0  0  0  0  0  0  0  0
   22.2005  -20.9470  -11.0515 O   0  0  0  0  0  0  0  0  0  0  0  0
   23.0053  -23.0259  -10.6458 O   0  0  0  0  0  0  0  0  0  0  0  0
  2  1  1  1
  3  2  1  0
  4  2  1  0
  4  5  1  1
  6  4  1  0
  6  7  2  0
  9  8  1  6
  9 11  1  0
  9 10  1  0
 10  6  1  0
 11 18  1  0
 12 11  2  0
 14 13  1  0
 15 14  1  0
 16 15  1  0
 17 16  1  1
 18 17  1  0
 19 17  1  0
 20 19  2  0
 21 19  1  0
M  END
$$$$
