VAM.pdb
     RDKit          3D

 21 20  0  0  1  0  0  0  0  0999 V2000
   18.4890  -16.3786  -15.2340 C   0  0  0  0  0  0  0  0  0  0  0  0
   19.1509  -15.0579  -15.5335 C   0  0  2  0  0  0  0  0  0  0  0  0
   18.9272  -14.1025  -14.3881 C   0  0  0  0  0  0  0  0  0  0  0  0
   18.6731  -14.4508  -16.8204 C   0  0  2  0  0  0  0  0  0  0  0  0
   18.9083  -15.2969  -17.9591 N   0  0  0  0  0  0  0  0  0  0  0  0
   19.1922  -13.0745  -17.0230 C   0  0  0  0  0  0  0  0  0  0  0  0
   20.4105  -12.9121  -17.2951 O   0  0  0  0  0  0  0  0  0  0  0  0
   17.6916   -9.6828  -17.3994 C   0  0  0  0  0  0  0  0  0  0  0  0
   18.8976  -10.5733  -17.0956 C   0  0  2  0  0  0  0  0  0  0  0  0
   18.3897  -11.9159  -16.9277 N   0  0  0  0  0  0  0  0  0  0  0  0
   19.5542  -10.0517  -15.8878 C   0  0  0  0  0  0  0  0  0  0  0  0
   19.0756  -10.2931  -14.7664 O   0  0  0  0  0  0  0  0  0  0  0  0
   24.8292  -13.0412  -14.6568 C   0  0  0  0  0  0  0  0  0  0  0  0
   24.7324  -11.2549  -14.9033 S   0  0  0  0  0  0  0  0  0  0  0  0
   23.0512  -10.6624  -14.6681 C   0  0  0  0  0  0  0  0  0  0  0  0
   22.8096   -9.2306  -14.8777 C   0  0  0  0  0  0  0  0  0  0  0  0
   21.3968   -8.7944  -14.7754 C   0  0  2  0  0  0  0  0  0  0  0  0
   20.7225   -9.2811  -16.0097 N   0  0  0  0  0  0  0  0  0  0  0  0
   21.1904   -7.3540  -14.7677 C   0  0  0  0  0  0  0  0  0  0  0  0
   21.5203   -6.6927  -13.7113 O   0  0  0  0  0  0  0  0  0  0  0  0
   20.6676   -6.5889  -15.8081 O   0  0  0  0  0  0  0  0  0  0  0  0
  2  1  1  1
  3  2  1  0
  4  2  1  0
  4  5  1  6
  6  4  1  0
  6  7  2  0
  9  8  1  1
  9 11  1  0
  9 10  1  0
 10  6  1  0
 11 18  1  0
 12 11  2  0
 14 13  1  0
 15 14  1  0
 16 15  1  0
 17 16  1  6
 18 17  1  0
 19 17  1  0
 20 19  2  0
 21 19  1  0
M  END
$$$$
