VAM.pdb
     RDKit          3D

 21 20  0  0  1  0  0  0  0  0999 V2000
   18.5945  -22.1088  -16.2974 C   0  0  0  0  0  0  0  0  0  0  0  0
   19.7276  -22.2872  -15.3195 C   0  0  2  0  0  0  0  0  0  0  0  0
   20.8652  -21.3655  -15.6813 C   0  0  0  0  0  0  0  0  0  0  0  0
   20.2094  -23.7069  -15.2463 C   0  0  2  0  0  0  0  0  0  0  0  0
   19.1880  -24.6225  -14.8145 N   0  0  0  0  0  0  0  0  0  0  0  0
   21.4582  -23.8398  -14.4542 C   0  0  0  0  0  0  0  0  0  0  0  0
   21.4098  -23.6992  -13.2042 O   0  0  0  0  0  0  0  0  0  0  0  0
   25.0284  -24.6938  -15.2113 C   0  0  0  0  0  0  0  0  0  0  0  0
   23.9533  -24.1405  -14.2744 C   0  0  2  0  0  0  0  0  0  0  0  0
   22.7192  -24.1190  -15.0263 N   0  0  0  0  0  0  0  0  0  0  0  0
   24.3803  -22.8048  -13.8321 C   0  0  0  0  0  0  0  0  0  0  0  0
   24.0879  -21.8031  -14.5074 O   0  0  0  0  0  0  0  0  0  0  0  0
   25.2789  -21.0015   -7.4438 C   0  0  0  0  0  0  0  0  0  0  0  0
   26.6856  -20.3070   -8.3382 S   0  0  0  0  0  0  0  0  0  0  0  0
   26.3478  -20.2192  -10.1020 C   0  0  0  0  0  0  0  0  0  0  0  0
   25.8491  -21.4371  -10.7504 C   0  0  0  0  0  0  0  0  0  0  0  0
   25.4996  -21.3059  -12.1847 C   0  0  2  0  0  0  0  0  0  0  0  0
   25.1187  -22.6691  -12.6446 N   0  0  0  0  0  0  0  0  0  0  0  0
   26.5919  -20.8982  -13.0554 C   0  0  0  0  0  0  0  0  0  0  0  0
   27.4336  -21.7941  -13.4440 O   0  0  0  0  0  0  0  0  0  0  0  0
   26.8305  -19.6118  -13.5343 O   0  0  0  0  0  0  0  0  0  0  0  0
  2  1  1  6
  3  2  1  0
  4  2  1  0
  4  5  1  1
  6  4  1  0
  6  7  2  0
  9  8  1  6
  9 11  1  0
  9 10  1  0
 10  6  1  0
 11 18  1  0
 12 11  2  0
 14 13  1  0
 15 14  1  0
 16 15  1  0
 17 16  1  1
 18 17  1  0
 19 17  1  0
 20 19  2  0
 21 19  1  0
M  END
$$$$
