VAM.pdb
     RDKit          3D

 21 20  0  0  1  0  0  0  0  0999 V2000
   19.0869  -13.8589  -17.7632 C   0  0  0  0  0  0  0  0  0  0  0  0
   20.3804  -14.5929  -18.0083 C   0  0  2  0  0  0  0  0  0  0  0  0
   20.1002  -15.9092  -18.6893 C   0  0  0  0  0  0  0  0  0  0  0  0
   21.1669  -14.8140  -16.7492 C   0  0  2  0  0  0  0  0  0  0  0  0
   20.5821  -15.8097  -15.8921 N   0  0  0  0  0  0  0  0  0  0  0  0
   21.4505  -13.5463  -16.0300 C   0  0  0  0  0  0  0  0  0  0  0  0
   20.5164  -12.9667  -15.4166 O   0  0  0  0  0  0  0  0  0  0  0  0
   24.4988  -11.4404  -15.4388 C   0  0  0  0  0  0  0  0  0  0  0  0
   22.9876  -11.6648  -15.3626 C   0  0  2  0  0  0  0  0  0  0  0  0
   22.7256  -12.9397  -15.9908 N   0  0  0  0  0  0  0  0  0  0  0  0
   22.3271  -10.5416  -16.0439 C   0  0  0  0  0  0  0  0  0  0  0  0
   22.1598  -10.5728  -17.2752 O   0  0  0  0  0  0  0  0  0  0  0  0
   16.0478   -6.8542  -17.2321 C   0  0  0  0  0  0  0  0  0  0  0  0
   17.0260   -8.0857  -16.3445 S   0  0  0  0  0  0  0  0  0  0  0  0
   18.7789   -7.6932  -16.4214 C   0  0  0  0  0  0  0  0  0  0  0  0
   19.7143   -8.6994  -15.9066 C   0  0  0  0  0  0  0  0  0  0  0  0
   21.1509   -8.3445  -15.9886 C   0  0  2  0  0  0  0  0  0  0  0  0
   21.8875   -9.4366  -15.2960 N   0  0  0  0  0  0  0  0  0  0  0  0
   21.5301   -7.1242  -15.2927 C   0  0  0  0  0  0  0  0  0  0  0  0
   21.9401   -7.2154  -14.0738 O   0  0  0  0  0  0  0  0  0  0  0  0
   21.5049   -5.8331  -15.8157 O   0  0  0  0  0  0  0  0  0  0  0  0
  2  1  1  1
  3  2  1  0
  4  2  1  0
  4  5  1  1
  6  4  1  0
  6  7  2  0
  9  8  1  6
  9 11  1  0
  9 10  1  0
 10  6  1  0
 11 18  1  0
 12 11  2  0
 14 13  1  0
 15 14  1  0
 16 15  1  0
 17 16  1  1
 18 17  1  0
 19 17  1  0
 20 19  2  0
 21 19  1  0
M  END
$$$$
