VAM.pdb
     RDKit          3D

 21 20  0  0  1  0  0  0  0  0999 V2000
   16.8538  -11.2368  -18.6705 C   0  0  0  0  0  0  0  0  0  0  0  0
   17.9283  -12.0353  -17.9779 C   0  0  2  0  0  0  0  0  0  0  0  0
   17.5336  -13.4902  -17.9300 C   0  0  0  0  0  0  0  0  0  0  0  0
   18.2243  -11.5291  -16.5962 C   0  0  2  0  0  0  0  0  0  0  0  0
   17.1566  -11.7834  -15.6669 N   0  0  0  0  0  0  0  0  0  0  0  0
   18.6473  -10.1059  -16.5941 C   0  0  0  0  0  0  0  0  0  0  0  0
   19.7134   -9.7818  -17.1799 O   0  0  0  0  0  0  0  0  0  0  0  0
   17.2022   -6.8808  -15.3528 C   0  0  0  0  0  0  0  0  0  0  0  0
   18.3860   -7.7136  -15.8478 C   0  0  2  0  0  0  0  0  0  0  0  0
   17.9150   -9.0750  -15.9646 N   0  0  0  0  0  0  0  0  0  0  0  0
   19.4819   -7.5655  -14.8788 C   0  0  0  0  0  0  0  0  0  0  0  0
   19.4864   -8.2431  -13.8368 O   0  0  0  0  0  0  0  0  0  0  0  0
   26.4914   -9.6202  -14.7577 C   0  0  0  0  0  0  0  0  0  0  0  0
   24.8832   -9.3728  -15.5410 S   0  0  0  0  0  0  0  0  0  0  0  0
   23.9331   -8.1140  -14.6777 C   0  0  0  0  0  0  0  0  0  0  0  0
   22.5833   -7.8318  -15.1785 C   0  0  0  0  0  0  0  0  0  0  0  0
   21.8147   -6.8161  -14.4208 C   0  0  2  0  0  0  0  0  0  0  0  0
   20.5206   -6.6558  -15.1381 N   0  0  0  0  0  0  0  0  0  0  0  0
   22.4043   -5.4860  -14.3907 C   0  0  0  0  0  0  0  0  0  0  0  0
   22.0302   -4.6292  -15.2784 O   0  0  0  0  0  0  0  0  0  0  0  0
   23.3494   -5.0218  -13.4784 O   0  0  0  0  0  0  0  0  0  0  0  0
  2  1  1  1
  3  2  1  0
  4  2  1  0
  4  5  1  1
  6  4  1  0
  6  7  2  0
  9  8  1  1
  9 11  1  0
  9 10  1  0
 10  6  1  0
 11 18  1  0
 12 11  2  0
 14 13  1  0
 15 14  1  0
 16 15  1  0
 17 16  1  6
 18 17  1  0
 19 17  1  0
 20 19  2  0
 21 19  1  0
M  END
$$$$
