VAM.pdb
     RDKit          3D

 21 20  0  0  1  0  0  0  0  0999 V2000
   16.5183  -15.7780  -17.2101 C   0  0  0  0  0  0  0  0  0  0  0  0
   17.1296  -14.4176  -17.4277 C   0  0  2  0  0  0  0  0  0  0  0  0
   18.3359  -14.5366  -18.3252 C   0  0  0  0  0  0  0  0  0  0  0  0
   17.5011  -13.7387  -16.1416 C   0  0  2  0  0  0  0  0  0  0  0  0
   16.4478  -13.7790  -15.1634 N   0  0  0  0  0  0  0  0  0  0  0  0
   18.0189  -12.3638  -16.3572 C   0  0  0  0  0  0  0  0  0  0  0  0
   19.1407  -12.2099  -16.9070 O   0  0  0  0  0  0  0  0  0  0  0  0
   16.7646   -8.9020  -15.6302 C   0  0  0  0  0  0  0  0  0  0  0  0
   17.8601   -9.8630  -16.0950 C   0  0  2  0  0  0  0  0  0  0  0  0
   17.3183  -11.1976  -15.9768 N   0  0  0  0  0  0  0  0  0  0  0  0
   19.0432   -9.6458  -15.2495 C   0  0  0  0  0  0  0  0  0  0  0  0
   19.1755  -10.2819  -14.1898 O   0  0  0  0  0  0  0  0  0  0  0  0
   26.2970  -10.7056  -14.5432 C   0  0  0  0  0  0  0  0  0  0  0  0
   24.7478  -10.7583  -15.4697 S   0  0  0  0  0  0  0  0  0  0  0  0
   23.5420   -9.6207  -14.7736 C   0  0  0  0  0  0  0  0  0  0  0  0
   22.2074   -9.6034  -15.3825 C   0  0  0  0  0  0  0  0  0  0  0  0
   21.2662   -8.5941  -14.8420 C   0  0  2  0  0  0  0  0  0  0  0  0
   20.0200   -8.7172  -15.6462 N   0  0  0  0  0  0  0  0  0  0  0  0
   21.6859   -7.2091  -14.9939 C   0  0  0  0  0  0  0  0  0  0  0  0
   21.3725   -6.5889  -16.0798 O   0  0  0  0  0  0  0  0  0  0  0  0
   22.4028   -6.4567  -14.0660 O   0  0  0  0  0  0  0  0  0  0  0  0
  2  1  1  1
  3  2  1  0
  4  2  1  0
  4  5  1  1
  6  4  1  0
  6  7  2  0
  9  8  1  1
  9 11  1  0
  9 10  1  0
 10  6  1  0
 11 18  1  0
 12 11  2  0
 14 13  1  0
 15 14  1  0
 16 15  1  0
 17 16  1  6
 18 17  1  0
 19 17  1  0
 20 19  2  0
 21 19  1  0
M  END
$$$$
