VAM.pdb
     RDKit          3D

 21 20  0  0  1  0  0  0  0  0999 V2000
   21.8001  -18.6788  -15.6955 C   0  0  0  0  0  0  0  0  0  0  0  0
   23.2825  -18.7720  -15.9516 C   0  0  2  0  0  0  0  0  0  0  0  0
   23.5331  -19.0331  -17.4157 C   0  0  0  0  0  0  0  0  0  0  0  0
   23.9488  -19.8233  -15.1126 C   0  0  2  0  0  0  0  0  0  0  0  0
   23.4532  -21.1471  -15.3773 N   0  0  0  0  0  0  0  0  0  0  0  0
   23.9252  -19.4907  -13.6657 C   0  0  0  0  0  0  0  0  0  0  0  0
   24.5464  -18.4739  -13.2597 O   0  0  0  0  0  0  0  0  0  0  0  0
   21.8087  -20.3879  -10.7920 C   0  0  0  0  0  0  0  0  0  0  0  0
   23.1705  -19.9096  -11.2987 C   0  0  2  0  0  0  0  0  0  0  0  0
   23.2370  -20.2580  -12.6998 N   0  0  0  0  0  0  0  0  0  0  0  0
   24.2106  -20.5659  -10.4930 C   0  0  0  0  0  0  0  0  0  0  0  0
   24.5591  -21.7297  -10.7560 O   0  0  0  0  0  0  0  0  0  0  0  0
   29.6080  -19.4758   -4.8096 C   0  0  0  0  0  0  0  0  0  0  0  0
   28.4705  -18.7202   -5.9913 S   0  0  0  0  0  0  0  0  0  0  0  0
   27.4999  -19.9721   -6.8418 C   0  0  0  0  0  0  0  0  0  0  0  0
   26.5658  -19.5093   -7.8741 C   0  0  0  0  0  0  0  0  0  0  0  0
   25.8121  -20.5705   -8.5828 C   0  0  2  0  0  0  0  0  0  0  0  0
   24.8062  -19.8707   -9.4273 N   0  0  0  0  0  0  0  0  0  0  0  0
   25.0424  -21.4621   -7.7283 C   0  0  0  0  0  0  0  0  0  0  0  0
   25.6670  -22.3953   -7.0949 O   0  0  0  0  0  0  0  0  0  0  0  0
   23.6676  -21.4123   -7.5079 O   0  0  0  0  0  0  0  0  0  0  0  0
  2  1  1  6
  3  2  1  0
  4  2  1  0
  4  5  1  1
  6  4  1  0
  6  7  2  0
  9  8  1  1
  9 11  1  0
  9 10  1  0
 10  6  1  0
 11 18  1  0
 12 11  2  0
 14 13  1  0
 15 14  1  0
 16 15  1  0
 17 16  1  1
 18 17  1  0
 19 17  1  0
 20 19  2  0
 21 19  1  0
M  END
$$$$
