VAM.pdb
     RDKit          3D

 21 20  0  0  1  0  0  0  0  0999 V2000
   17.5440   -9.6337  -17.3738 C   0  0  0  0  0  0  0  0  0  0  0  0
   18.6313  -10.5841  -17.8057 C   0  0  2  0  0  0  0  0  0  0  0  0
   18.1837  -11.3540  -19.0230 C   0  0  0  0  0  0  0  0  0  0  0  0
   19.0415  -11.5279  -16.7131 C   0  0  2  0  0  0  0  0  0  0  0  0
   17.9820  -12.4142  -16.3128 N   0  0  0  0  0  0  0  0  0  0  0  0
   19.6548  -10.8238  -15.5586 C   0  0  0  0  0  0  0  0  0  0  0  0
   18.9190  -10.4432  -14.6108 O   0  0  0  0  0  0  0  0  0  0  0  0
   23.1261  -10.1660  -14.3681 C   0  0  0  0  0  0  0  0  0  0  0  0
   21.6324   -9.8365  -14.3494 C   0  0  2  0  0  0  0  0  0  0  0  0
   21.0368  -10.5499  -15.4562 N   0  0  0  0  0  0  0  0  0  0  0  0
   21.4880   -8.3776  -14.4612 C   0  0  0  0  0  0  0  0  0  0  0  0
   21.9131   -7.6395  -13.5559 O   0  0  0  0  0  0  0  0  0  0  0  0
   21.0463   -2.2899  -19.3161 C   0  0  0  0  0  0  0  0  0  0  0  0
   21.3883   -4.0436  -19.0538 S   0  0  0  0  0  0  0  0  0  0  0  0
   20.9056   -4.5535  -17.3986 C   0  0  0  0  0  0  0  0  0  0  0  0
   21.1313   -5.9573  -17.0370 C   0  0  0  0  0  0  0  0  0  0  0  0
   20.6973   -6.3491  -15.6752 C   0  0  2  0  0  0  0  0  0  0  0  0
   20.8683   -7.8254  -15.5946 N   0  0  0  0  0  0  0  0  0  0  0  0
   19.2935   -6.1084  -15.3771 C   0  0  0  0  0  0  0  0  0  0  0  0
   18.9778   -5.0353  -14.7361 O   0  0  0  0  0  0  0  0  0  0  0  0
   18.2227   -6.9294  -15.7243 O   0  0  0  0  0  0  0  0  0  0  0  0
  2  1  1  1
  3  2  1  0
  4  2  1  0
  4  5  1  1
  6  4  1  0
  6  7  2  0
  9  8  1  6
  9 11  1  0
  9 10  1  0
 10  6  1  0
 11 18  1  0
 12 11  2  0
 14 13  1  0
 15 14  1  0
 16 15  1  0
 17 16  1  6
 18 17  1  0
 19 17  1  0
 20 19  2  0
 21 19  1  0
M  END
$$$$
