VAM.pdb
     RDKit          3D

 21 20  0  0  1  0  0  0  0  0999 V2000
   20.8820  -14.8581  -14.9244 C   0  0  0  0  0  0  0  0  0  0  0  0
   19.4569  -14.8198  -15.4138 C   0  0  2  0  0  0  0  0  0  0  0  0
   18.7675  -16.1197  -15.0829 C   0  0  0  0  0  0  0  0  0  0  0  0
   19.3585  -14.5366  -16.8845 C   0  0  2  0  0  0  0  0  0  0  0  0
   19.8746  -15.6061  -17.6956 N   0  0  0  0  0  0  0  0  0  0  0  0
   19.9428  -13.2207  -17.2472 C   0  0  0  0  0  0  0  0  0  0  0  0
   21.1235  -13.1722  -17.6811 O   0  0  0  0  0  0  0  0  0  0  0  0
   18.7066   -9.7789  -17.8275 C   0  0  0  0  0  0  0  0  0  0  0  0
   19.8406  -10.7072  -17.3890 C   0  0  2  0  0  0  0  0  0  0  0  0
   19.2438  -11.9984  -17.1333 N   0  0  0  0  0  0  0  0  0  0  0  0
   20.4730  -10.1202  -16.1985 C   0  0  0  0  0  0  0  0  0  0  0  0
   19.9881  -10.3242  -15.0723 O   0  0  0  0  0  0  0  0  0  0  0  0
   26.7688  -11.7670  -15.1824 C   0  0  0  0  0  0  0  0  0  0  0  0
   26.1513  -10.0773  -15.3402 S   0  0  0  0  0  0  0  0  0  0  0  0
   24.3718  -10.0159  -15.0914 C   0  0  0  0  0  0  0  0  0  0  0  0
   23.7020   -8.7373  -15.3537 C   0  0  0  0  0  0  0  0  0  0  0  0
   22.2370   -8.7201  -15.1299 C   0  0  2  0  0  0  0  0  0  0  0  0
   21.6255   -9.3298  -16.3421 N   0  0  0  0  0  0  0  0  0  0  0  0
   21.6403   -7.3973  -15.0230 C   0  0  0  0  0  0  0  0  0  0  0  0
   21.5951   -6.8368  -13.8628 O   0  0  0  0  0  0  0  0  0  0  0  0
   21.1040   -6.6461  -16.0666 O   0  0  0  0  0  0  0  0  0  0  0  0
  2  1  1  6
  3  2  1  0
  4  2  1  0
  4  5  1  6
  6  4  1  0
  6  7  2  0
  9  8  1  1
  9 11  1  0
  9 10  1  0
 10  6  1  0
 11 18  1  0
 12 11  2  0
 14 13  1  0
 15 14  1  0
 16 15  1  0
 17 16  1  6
 18 17  1  0
 19 17  1  0
 20 19  2  0
 21 19  1  0
M  END
$$$$
