VAM.pdb
     RDKit          3D

 21 20  0  0  1  0  0  0  0  0999 V2000
   29.4478  -20.3514  -15.4724 C   0  0  0  0  0  0  0  0  0  0  0  0
   28.7275  -20.0692  -14.1788 C   0  0  2  0  0  0  0  0  0  0  0  0
   28.6266  -21.3340  -13.3633 C   0  0  0  0  0  0  0  0  0  0  0  0
   27.3652  -19.4767  -14.3933 C   0  0  2  0  0  0  0  0  0  0  0  0
   27.4002  -18.2528  -15.1474 N   0  0  0  0  0  0  0  0  0  0  0  0
   26.6034  -19.3376  -13.1264 C   0  0  0  0  0  0  0  0  0  0  0  0
   26.9593  -18.4680  -12.2888 O   0  0  0  0  0  0  0  0  0  0  0  0
   23.3663  -20.6298  -11.8151 C   0  0  0  0  0  0  0  0  0  0  0  0
   24.7370  -19.9974  -11.5679 C   0  0  2  0  0  0  0  0  0  0  0  0
   25.4845  -20.1345  -12.7971 N   0  0  0  0  0  0  0  0  0  0  0  0
   25.3612  -20.6957  -10.4344 C   0  0  0  0  0  0  0  0  0  0  0  0
   25.9399  -21.7808  -10.6150 O   0  0  0  0  0  0  0  0  0  0  0  0
   29.8884  -19.6169   -5.1965 C   0  0  0  0  0  0  0  0  0  0  0  0
   28.1360  -19.2664   -4.9365 S   0  0  0  0  0  0  0  0  0  0  0  0
   27.1062  -20.3856   -5.8954 C   0  0  0  0  0  0  0  0  0  0  0  0
   26.6532  -19.9190   -7.2105 C   0  0  0  0  0  0  0  0  0  0  0  0
   25.8590  -20.8901   -7.9997 C   0  0  2  0  0  0  0  0  0  0  0  0
   25.2993  -20.1296   -9.1501 N   0  0  0  0  0  0  0  0  0  0  0  0
   24.7055  -21.4524   -7.3136 C   0  0  0  0  0  0  0  0  0  0  0  0
   23.5367  -20.9881   -7.5973 O   0  0  0  0  0  0  0  0  0  0  0  0
   24.7252  -22.4705   -6.3628 O   0  0  0  0  0  0  0  0  0  0  0  0
  2  1  1  6
  3  2  1  0
  4  2  1  0
  4  5  1  1
  6  4  1  0
  6  7  2  0
  9  8  1  6
  9 11  1  0
  9 10  1  0
 10  6  1  0
 11 18  1  0
 12 11  2  0
 14 13  1  0
 15 14  1  0
 16 15  1  0
 17 16  1  1
 18 17  1  0
 19 17  1  0
 20 19  2  0
 21 19  1  0
M  END
$$$$
