VAM.pdb
     RDKit          3D

 21 20  0  0  1  0  0  0  0  0999 V2000
   29.0455  -21.1190  -17.8917 C   0  0  0  0  0  0  0  0  0  0  0  0
   27.7375  -21.3384  -17.1755 C   0  0  2  0  0  0  0  0  0  0  0  0
   27.1652  -20.0132  -16.7385 C   0  0  0  0  0  0  0  0  0  0  0  0
   27.8703  -22.2625  -16.0001 C   0  0  2  0  0  0  0  0  0  0  0  0
   28.3499  -23.5678  -16.3664 N   0  0  0  0  0  0  0  0  0  0  0  0
   26.6294  -22.3247  -15.1870 C   0  0  0  0  0  0  0  0  0  0  0  0
   25.6126  -22.8948  -15.6621 O   0  0  0  0  0  0  0  0  0  0  0  0
   25.6622  -21.2396  -11.7277 C   0  0  0  0  0  0  0  0  0  0  0  0
   25.3255  -21.8718  -13.0793 C   0  0  2  0  0  0  0  0  0  0  0  0
   26.5173  -21.7742  -13.8910 N   0  0  0  0  0  0  0  0  0  0  0  0
   24.1813  -21.1444  -13.6481 C   0  0  0  0  0  0  0  0  0  0  0  0
   24.3498  -20.0269  -14.1656 O   0  0  0  0  0  0  0  0  0  0  0  0
   17.3599  -22.2313  -17.2906 C   0  0  0  0  0  0  0  0  0  0  0  0
   18.7813  -22.9516  -16.4410 S   0  0  0  0  0  0  0  0  0  0  0  0
   19.7921  -21.6742  -15.6801 C   0  0  0  0  0  0  0  0  0  0  0  0
   21.0136  -22.1070  -14.9922 C   0  0  0  0  0  0  0  0  0  0  0  0
   21.7796  -21.0389  -14.3074 C   0  0  2  0  0  0  0  0  0  0  0  0
   22.9002  -21.7194  -13.6031 N   0  0  0  0  0  0  0  0  0  0  0  0
   21.0538  -20.3212  -13.2703 C   0  0  0  0  0  0  0  0  0  0  0  0
   21.1308  -20.7522  -12.0576 O   0  0  0  0  0  0  0  0  0  0  0  0
   20.2688  -19.1839  -13.4476 O   0  0  0  0  0  0  0  0  0  0  0  0
  2  1  1  1
  3  2  1  0
  4  2  1  0
  4  5  1  6
  6  4  1  0
  6  7  2  0
  9  8  1  1
  9 11  1  0
  9 10  1  0
 10  6  1  0
 11 18  1  0
 12 11  2  0
 14 13  1  0
 15 14  1  0
 16 15  1  0
 17 16  1  1
 18 17  1  0
 19 17  1  0
 20 19  2  0
 21 19  1  0
M  END
$$$$
