VAM.pdb
     RDKit          3D

 21 20  0  0  1  0  0  0  0  0999 V2000
   25.9692  -23.0959  -17.7368 C   0  0  0  0  0  0  0  0  0  0  0  0
   25.4968  -24.3237  -17.0011 C   0  0  2  0  0  0  0  0  0  0  0  0
   24.7466  -25.2289  -17.9459 C   0  0  0  0  0  0  0  0  0  0  0  0
   24.6456  -23.9919  -15.8101 C   0  0  2  0  0  0  0  0  0  0  0  0
   23.3121  -23.5917  -16.1700 N   0  0  0  0  0  0  0  0  0  0  0  0
   25.3010  -23.0184  -14.9006 C   0  0  0  0  0  0  0  0  0  0  0  0
   26.4220  -23.3021  -14.4030 O   0  0  0  0  0  0  0  0  0  0  0  0
   24.6754  -19.4894  -13.8576 C   0  0  0  0  0  0  0  0  0  0  0  0
   25.3440  -20.8455  -13.6259 C   0  0  2  0  0  0  0  0  0  0  0  0
   24.7347  -21.7719  -14.5529 N   0  0  0  0  0  0  0  0  0  0  0  0
   25.1363  -21.2195  -12.2192 C   0  0  0  0  0  0  0  0  0  0  0  0
   24.2472  -22.0339  -11.9170 O   0  0  0  0  0  0  0  0  0  0  0  0
   29.1619  -18.9710   -7.5441 C   0  0  0  0  0  0  0  0  0  0  0  0
   27.7263  -19.4209   -6.5452 S   0  0  0  0  0  0  0  0  0  0  0  0
   26.4722  -20.2303   -7.5476 C   0  0  0  0  0  0  0  0  0  0  0  0
   26.6749  -20.2340   -9.0006 C   0  0  0  0  0  0  0  0  0  0  0  0
   25.6349  -20.9308   -9.7939 C   0  0  2  0  0  0  0  0  0  0  0  0
   25.9473  -20.6521  -11.2221 N   0  0  0  0  0  0  0  0  0  0  0  0
   24.2762  -20.4485   -9.5969 C   0  0  0  0  0  0  0  0  0  0  0  0
   23.8609  -19.4700  -10.3264 O   0  0  0  0  0  0  0  0  0  0  0  0
   23.3468  -20.9466   -8.6864 O   0  0  0  0  0  0  0  0  0  0  0  0
  2  1  1  6
  3  2  1  0
  4  2  1  0
  4  5  1  6
  6  4  1  0
  6  7  2  0
  9  8  1  1
  9 11  1  0
  9 10  1  0
 10  6  1  0
 11 18  1  0
 12 11  2  0
 14 13  1  0
 15 14  1  0
 16 15  1  0
 17 16  1  1
 18 17  1  0
 19 17  1  0
 20 19  2  0
 21 19  1  0
M  END
$$$$
