VAM.pdb
     RDKit          3D

 21 20  0  0  1  0  0  0  0  0999 V2000
   27.8943  -17.6801  -17.4199 C   0  0  0  0  0  0  0  0  0  0  0  0
   27.2683  -17.5513  -16.0548 C   0  0  2  0  0  0  0  0  0  0  0  0
   27.9099  -16.4117  -15.3035 C   0  0  0  0  0  0  0  0  0  0  0  0
   27.3581  -18.8190  -15.2561 C   0  0  2  0  0  0  0  0  0  0  0  0
   27.0117  -19.9870  -16.0202 N   0  0  0  0  0  0  0  0  0  0  0  0
   26.6059  -18.7366  -13.9786 C   0  0  0  0  0  0  0  0  0  0  0  0
   26.9131  -17.8478  -13.1419 O   0  0  0  0  0  0  0  0  0  0  0  0
   23.4705  -20.2074  -12.6276 C   0  0  0  0  0  0  0  0  0  0  0  0
   24.8281  -19.5450  -12.3867 C   0  0  2  0  0  0  0  0  0  0  0  0
   25.5485  -19.6092  -13.6380 N   0  0  0  0  0  0  0  0  0  0  0  0
   25.5002  -20.2702  -11.2985 C   0  0  0  0  0  0  0  0  0  0  0  0
   26.1348  -21.3105  -11.5435 O   0  0  0  0  0  0  0  0  0  0  0  0
   29.1815  -19.6154   -4.4751 C   0  0  0  0  0  0  0  0  0  0  0  0
   28.4050  -18.8189   -5.8977 S   0  0  0  0  0  0  0  0  0  0  0  0
   27.4727  -20.0078   -6.8722 C   0  0  0  0  0  0  0  0  0  0  0  0
   26.8690  -19.5258   -8.1195 C   0  0  0  0  0  0  0  0  0  0  0  0
   26.1015  -20.5301   -8.8934 C   0  0  2  0  0  0  0  0  0  0  0  0
   25.4206  -19.7806   -9.9840 N   0  0  0  0  0  0  0  0  0  0  0  0
   25.0347  -21.1959   -8.1611 C   0  0  0  0  0  0  0  0  0  0  0  0
   23.8169  -20.8444   -8.3968 O   0  0  0  0  0  0  0  0  0  0  0  0
   25.1886  -22.2044   -7.2122 O   0  0  0  0  0  0  0  0  0  0  0  0
  2  1  1  6
  3  2  1  0
  4  2  1  0
  4  5  1  6
  6  4  1  0
  6  7  2  0
  9  8  1  6
  9 11  1  0
  9 10  1  0
 10  6  1  0
 11 18  1  0
 12 11  2  0
 14 13  1  0
 15 14  1  0
 16 15  1  0
 17 16  1  1
 18 17  1  0
 19 17  1  0
 20 19  2  0
 21 19  1  0
M  END
$$$$
