VAM.pdb
     RDKit          3D

 21 20  0  0  1  0  0  0  0  0999 V2000
   17.7053  -11.5292  -19.2185 C   0  0  0  0  0  0  0  0  0  0  0  0
   18.3785  -10.6465  -18.1989 C   0  0  2  0  0  0  0  0  0  0  0  0
   19.3282   -9.7000  -18.8894 C   0  0  0  0  0  0  0  0  0  0  0  0
   19.1002  -11.4310  -17.1421 C   0  0  2  0  0  0  0  0  0  0  0  0
   18.2491  -12.3721  -16.4654 N   0  0  0  0  0  0  0  0  0  0  0  0
   19.8403  -10.5578  -16.1964 C   0  0  0  0  0  0  0  0  0  0  0  0
   19.1968   -9.7568  -15.4691 O   0  0  0  0  0  0  0  0  0  0  0  0
   23.4066  -10.2319  -15.1036 C   0  0  0  0  0  0  0  0  0  0  0  0
   21.9714   -9.7054  -15.1574 C   0  0  2  0  0  0  0  0  0  0  0  0
   21.2462  -10.5703  -16.0600 N   0  0  0  0  0  0  0  0  0  0  0  0
   22.0174   -8.3080  -15.6127 C   0  0  0  0  0  0  0  0  0  0  0  0
   22.0768   -8.0514  -16.8275 O   0  0  0  0  0  0  0  0  0  0  0  0
   18.7116   -1.9741  -17.0535 C   0  0  0  0  0  0  0  0  0  0  0  0
   18.7560   -3.6709  -16.4370 S   0  0  0  0  0  0  0  0  0  0  0  0
   20.4100   -4.1142  -15.8893 C   0  0  0  0  0  0  0  0  0  0  0  0
   20.6514   -5.5228  -15.5577 C   0  0  0  0  0  0  0  0  0  0  0  0
   22.0348   -5.8594  -15.1463 C   0  0  2  0  0  0  0  0  0  0  0  0
   21.9936   -7.2682  -14.6683 N   0  0  0  0  0  0  0  0  0  0  0  0
   22.5548   -5.0892  -14.0265 C   0  0  0  0  0  0  0  0  0  0  0  0
   22.4143   -5.5653  -12.8367 O   0  0  0  0  0  0  0  0  0  0  0  0
   23.2124   -3.8632  -14.1017 O   0  0  0  0  0  0  0  0  0  0  0  0
  2  1  1  6
  3  2  1  0
  4  2  1  0
  4  5  1  1
  6  4  1  0
  6  7  2  0
  9  8  1  6
  9 11  1  0
  9 10  1  0
 10  6  1  0
 11 18  1  0
 12 11  2  0
 14 13  1  0
 15 14  1  0
 16 15  1  0
 17 16  1  1
 18 17  1  0
 19 17  1  0
 20 19  2  0
 21 19  1  0
M  END
$$$$
