VAM.pdb
     RDKit          3D

 21 20  0  0  1  0  0  0  0  0999 V2000
   24.2305  -10.7825  -15.6852 C   0  0  0  0  0  0  0  0  0  0  0  0
   23.2899  -11.9258  -15.4021 C   0  0  2  0  0  0  0  0  0  0  0  0
   24.0711  -13.2084  -15.2630 C   0  0  0  0  0  0  0  0  0  0  0  0
   22.2274  -12.0734  -16.4521 C   0  0  2  0  0  0  0  0  0  0  0  0
   22.7433  -12.5516  -17.7063 N   0  0  0  0  0  0  0  0  0  0  0  0
   21.4133  -10.8416  -16.6095 C   0  0  0  0  0  0  0  0  0  0  0  0
   21.9104   -9.8494  -17.2037 O   0  0  0  0  0  0  0  0  0  0  0  0
   17.9029   -9.8295  -15.7747 C   0  0  0  0  0  0  0  0  0  0  0  0
   19.3362   -9.4817  -16.1804 C   0  0  2  0  0  0  0  0  0  0  0  0
   20.0927  -10.7119  -16.1252 N   0  0  0  0  0  0  0  0  0  0  0  0
   19.8352   -8.4577  -15.2508 C   0  0  0  0  0  0  0  0  0  0  0  0
   20.6331   -8.7708  -14.3507 O   0  0  0  0  0  0  0  0  0  0  0  0
   24.0389   -5.5670  -17.1763 C   0  0  0  0  0  0  0  0  0  0  0  0
   24.0152   -4.8307  -15.5276 S   0  0  0  0  0  0  0  0  0  0  0  0
   22.3748   -4.9350  -14.7991 C   0  0  0  0  0  0  0  0  0  0  0  0
   21.5011   -6.0167  -15.2671 C   0  0  0  0  0  0  0  0  0  0  0  0
   20.1456   -6.0538  -14.6689 C   0  0  2  0  0  0  0  0  0  0  0  0
   19.4053   -7.1270  -15.3865 N   0  0  0  0  0  0  0  0  0  0  0  0
   19.3511   -4.8489  -14.8551 C   0  0  0  0  0  0  0  0  0  0  0  0
   18.7005   -4.7079  -15.9592 O   0  0  0  0  0  0  0  0  0  0  0  0
   19.2067   -3.8055  -13.9433 O   0  0  0  0  0  0  0  0  0  0  0  0
  2  1  1  6
  3  2  1  0
  4  2  1  0
  4  5  1  6
  6  4  1  0
  6  7  2  0
  9  8  1  1
  9 11  1  0
  9 10  1  0
 10  6  1  0
 11 18  1  0
 12 11  2  0
 14 13  1  0
 15 14  1  0
 16 15  1  0
 17 16  1  6
 18 17  1  0
 19 17  1  0
 20 19  2  0
 21 19  1  0
M  END
$$$$
