VAM.pdb
     RDKit          3D

 21 20  0  0  1  0  0  0  0  0999 V2000
   26.5945  -15.0142  -15.7781 C   0  0  0  0  0  0  0  0  0  0  0  0
   25.5038  -15.9242  -15.2739 C   0  0  2  0  0  0  0  0  0  0  0  0
   26.0943  -17.2479  -14.8570 C   0  0  0  0  0  0  0  0  0  0  0  0
   24.4135  -16.1342  -16.2839 C   0  0  2  0  0  0  0  0  0  0  0  0
   24.8390  -16.9197  -17.4108 N   0  0  0  0  0  0  0  0  0  0  0  0
   23.7703  -14.8604  -16.6944 C   0  0  0  0  0  0  0  0  0  0  0  0
   24.3345  -14.1384  -17.5576 O   0  0  0  0  0  0  0  0  0  0  0  0
   20.5385  -13.1268  -15.9311 C   0  0  0  0  0  0  0  0  0  0  0  0
   21.9612  -13.1184  -16.4930 C   0  0  2  0  0  0  0  0  0  0  0  0
   22.5432  -14.4005  -16.1672 N   0  0  0  0  0  0  0  0  0  0  0  0
   22.6819  -11.9892  -15.8869 C   0  0  0  0  0  0  0  0  0  0  0  0
   23.6142  -12.2008  -15.0926 O   0  0  0  0  0  0  0  0  0  0  0  0
   28.1857   -7.8799  -17.2345 C   0  0  0  0  0  0  0  0  0  0  0  0
   27.0900   -9.3043  -17.0561 S   0  0  0  0  0  0  0  0  0  0  0  0
   25.3726   -8.8300  -17.2967 C   0  0  0  0  0  0  0  0  0  0  0  0
   24.3570   -9.8724  -17.1113 C   0  0  0  0  0  0  0  0  0  0  0  0
   23.3222   -9.5886  -16.0889 C   0  0  2  0  0  0  0  0  0  0  0  0
   22.3108  -10.6735  -16.2109 N   0  0  0  0  0  0  0  0  0  0  0  0
   22.5822   -8.3505  -16.2810 C   0  0  0  0  0  0  0  0  0  0  0  0
   21.7253   -8.2910  -17.2423 O   0  0  0  0  0  0  0  0  0  0  0  0
   22.6961   -7.1926  -15.5145 O   0  0  0  0  0  0  0  0  0  0  0  0
  2  1  1  6
  3  2  1  0
  4  2  1  0
  4  5  1  6
  6  4  1  0
  6  7  2  0
  9  8  1  1
  9 11  1  0
  9 10  1  0
 10  6  1  0
 11 18  1  0
 12 11  2  0
 14 13  1  0
 15 14  1  0
 16 15  1  0
 17 16  1  6
 18 17  1  0
 19 17  1  0
 20 19  2  0
 21 19  1  0
M  END
$$$$
