AQC.pdb
     RDKit          3D

 21 20  0  0  1  0  0  0  0  0999 V2000
    9.9824  -21.1183   27.5419 C   0  0  0  0  0  0  0  0  0  0  0  0
   10.2164  -21.0531   26.0551 C   0  0  2  0  0  0  0  0  0  0  0  0
   10.7878  -22.3493   25.6651 N   0  0  0  0  0  0  0  0  0  0  0  0
   11.1828  -20.0121   25.6700 C   0  0  0  0  0  0  0  0  0  0  0  0
   12.4130  -20.3339   25.7124 O   0  0  0  0  0  0  0  0  0  0  0  0
   11.3869  -16.8386   20.8225 N   0  0  0  0  0  0  0  0  0  0  0  0
   10.2556  -16.6038   21.6295 C   0  0  0  0  0  0  0  0  0  0  0  0
    9.2179  -16.1750   21.0752 O   0  0  0  0  0  0  0  0  0  0  0  0
   10.3188  -16.8692   23.1151 C   0  0  0  0  0  0  0  0  0  0  0  0
   11.6618  -17.4527   23.4032 C   0  0  0  0  0  0  0  0  0  0  0  0
   11.8887  -17.7339   24.8673 C   0  0  2  0  0  0  0  0  0  0  0  0
   10.8528  -18.7099   25.2656 N   0  0  0  0  0  0  0  0  0  0  0  0
   11.7911  -16.5348   25.7018 C   0  0  0  0  0  0  0  0  0  0  0  0
   12.5179  -15.5465   25.4812 O   0  0  0  0  0  0  0  0  0  0  0  0
   10.8713  -16.4621   26.7808 N   0  0  0  0  0  0  0  0  0  0  0  0
   10.7805  -15.2801   27.6274 C   0  0  1  0  0  0  0  0  0  0  0  0
    9.6108  -14.4675   27.1316 C   0  0  0  0  0  0  0  0  0  0  0  0
    9.2734  -13.0589   28.2032 S   0  0  0  0  0  0  0  0  0  0  0  0
   10.6146  -15.6402   29.0503 C   0  0  0  0  0  0  0  0  0  0  0  0
   10.4099  -16.9255   29.4908 O   0  0  0  0  0  0  0  0  0  0  0  0
   10.6650  -14.7125   29.8973 O   0  0  0  0  0  0  0  0  0  0  0  0
  2  1  1  1
  3  2  1  0
  4  2  1  0
  4  5  2  0
  6  7  1  0
  7  9  1  0
  8  7  2  0
  9 10  1  0
 11 10  1  6
 11 12  1  0
 12  4  1  0
 13 11  1  0
 13 15  1  0
 14 13  2  0
 16 15  1  0
 16 19  1  0
 17 18  1  0
 16 17  1  6
 19 21  2  0
 19 20  1  0
M  END
$$$$
