AQC.pdb
     RDKit          3D

 21 20  0  0  1  0  0  0  0  0999 V2000
    8.1262  -12.4973   19.3652 C   0  0  0  0  0  0  0  0  0  0  0  0
    8.2821  -13.9952   19.3255 C   0  0  2  0  0  0  0  0  0  0  0  0
    7.1996  -14.5051   18.4728 N   0  0  0  0  0  0  0  0  0  0  0  0
    8.1344  -14.6241   20.6478 C   0  0  0  0  0  0  0  0  0  0  0  0
    6.9458  -14.8540   21.0392 O   0  0  0  0  0  0  0  0  0  0  0  0
   11.6528  -19.1836   24.6423 N   0  0  0  0  0  0  0  0  0  0  0  0
   10.4274  -18.7038   24.1382 C   0  0  0  0  0  0  0  0  0  0  0  0
    9.6953  -19.5052   23.5140 O   0  0  0  0  0  0  0  0  0  0  0  0
   10.0324  -17.2626   24.3576 C   0  0  0  0  0  0  0  0  0  0  0  0
   10.0832  -16.5832   23.0299 C   0  0  0  0  0  0  0  0  0  0  0  0
    8.9527  -15.6087   22.8144 C   0  0  2  0  0  0  0  0  0  0  0  0
    9.1920  -14.9837   21.4967 N   0  0  0  0  0  0  0  0  0  0  0  0
    8.8821  -14.5765   23.8503 C   0  0  0  0  0  0  0  0  0  0  0  0
    9.7929  -13.7343   23.9711 O   0  0  0  0  0  0  0  0  0  0  0  0
    7.7806  -14.5042   24.7432 N   0  0  0  0  0  0  0  0  0  0  0  0
    7.6987  -13.4761   25.7720 C   0  0  1  0  0  0  0  0  0  0  0  0
    6.2663  -13.0068   25.8177 C   0  0  0  0  0  0  0  0  0  0  0  0
    5.9789  -11.8694   27.1853 S   0  0  0  0  0  0  0  0  0  0  0  0
    8.1351  -13.9858   27.0879 C   0  0  0  0  0  0  0  0  0  0  0  0
    8.6337  -13.1847   28.0866 O   0  0  0  0  0  0  0  0  0  0  0  0
    8.0411  -15.2221   27.2958 O   0  0  0  0  0  0  0  0  0  0  0  0
  2  1  1  1
  3  2  1  0
  4  2  1  0
  4  5  2  0
  6  7  1  0
  7  9  1  0
  8  7  2  0
  9 10  1  0
 11 10  1  1
 11 12  1  0
 12  4  1  0
 13 11  1  0
 13 15  1  0
 14 13  2  0
 16 15  1  0
 16 19  1  0
 17 18  1  0
 16 17  1  1
 19 21  2  0
 19 20  1  0
M  END
$$$$
