AQC.pdb
     RDKit          3D

 21 20  0  0  1  0  0  0  0  0999 V2000
   -0.2603  -23.2037   25.7450 C   0  0  0  0  0  0  0  0  0  0  0  0
   -0.7670  -24.6224   25.7527 C   0  0  2  0  0  0  0  0  0  0  0  0
   -0.7367  -25.0842   24.3583 N   0  0  0  0  0  0  0  0  0  0  0  0
   -2.1570  -24.7342   26.2234 C   0  0  0  0  0  0  0  0  0  0  0  0
   -3.0679  -24.5950   25.3462 O   0  0  0  0  0  0  0  0  0  0  0  0
   -3.9788  -27.5454   31.3200 N   0  0  0  0  0  0  0  0  0  0  0  0
   -5.2534  -27.1798   30.8428 C   0  0  0  0  0  0  0  0  0  0  0  0
   -6.2562  -27.6430   31.4327 O   0  0  0  0  0  0  0  0  0  0  0  0
   -5.3792  -26.2560   29.6546 C   0  0  0  0  0  0  0  0  0  0  0  0
   -4.0024  -26.0236   29.1276 C   0  0  0  0  0  0  0  0  0  0  0  0
   -3.9685  -25.1081   27.9298 C   0  0  2  0  0  0  0  0  0  0  0  0
   -2.5464  -24.9793   27.5488 N   0  0  0  0  0  0  0  0  0  0  0  0
   -4.5328  -23.7854   28.2047 C   0  0  0  0  0  0  0  0  0  0  0  0
   -3.8695  -22.9267   28.8181 O   0  0  0  0  0  0  0  0  0  0  0  0
   -5.8446  -23.4429   27.7833 N   0  0  0  0  0  0  0  0  0  0  0  0
   -6.3763  -22.0984   27.9610 C   0  0  1  0  0  0  0  0  0  0  0  0
   -6.8141  -21.6109   26.6027 C   0  0  0  0  0  0  0  0  0  0  0  0
   -8.4961  -20.9657   26.6344 S   0  0  0  0  0  0  0  0  0  0  0  0
   -7.4982  -22.0784   28.9218 C   0  0  0  0  0  0  0  0  0  0  0  0
   -7.8966  -20.9535   29.6026 O   0  0  0  0  0  0  0  0  0  0  0  0
   -8.1161  -23.1550   29.1206 O   0  0  0  0  0  0  0  0  0  0  0  0
  2  1  1  6
  3  2  1  0
  4  2  1  0
  4  5  2  0
  6  7  1  0
  7  9  1  0
  8  7  2  0
  9 10  1  0
 11 10  1  1
 11 12  1  0
 12  4  1  0
 13 11  1  0
 13 15  1  0
 14 13  2  0
 16 15  1  0
 16 19  1  0
 17 18  1  0
 16 17  1  6
 19 21  2  0
 19 20  1  0
M  END
$$$$
