AQC.pdb
     RDKit          3D

 21 20  0  0  1  0  0  0  0  0999 V2000
    6.5823  -17.5002   16.8516 C   0  0  0  0  0  0  0  0  0  0  0  0
    6.3209  -18.9760   17.0045 C   0  0  2  0  0  0  0  0  0  0  0  0
    4.9248  -19.1966   16.6035 N   0  0  0  0  0  0  0  0  0  0  0  0
    6.4593  -19.4438   18.3931 C   0  0  0  0  0  0  0  0  0  0  0  0
    5.4232  -19.3625   19.1270 O   0  0  0  0  0  0  0  0  0  0  0  0
    9.4588  -24.6726   21.5176 N   0  0  0  0  0  0  0  0  0  0  0  0
    9.8409  -23.3178   21.5861 C   0  0  0  0  0  0  0  0  0  0  0  0
   11.0631  -23.0495   21.5402 O   0  0  0  0  0  0  0  0  0  0  0  0
    8.7889  -22.2413   21.7108 C   0  0  0  0  0  0  0  0  0  0  0  0
    8.6399  -21.6109   20.3663 C   0  0  0  0  0  0  0  0  0  0  0  0
    7.6711  -20.4553   20.3531 C   0  0  2  0  0  0  0  0  0  0  0  0
    7.6323  -19.9651   18.9594 N   0  0  0  0  0  0  0  0  0  0  0  0
    8.0640  -19.3691   21.2528 C   0  0  0  0  0  0  0  0  0  0  0  0
    8.8898  -18.5096   20.8883 O   0  0  0  0  0  0  0  0  0  0  0  0
    7.5196  -19.2628   22.5597 N   0  0  0  0  0  0  0  0  0  0  0  0
    7.8425  -18.1415   23.4317 C   0  0  1  0  0  0  0  0  0  0  0  0
    6.5416  -17.6305   23.9980 C   0  0  0  0  0  0  0  0  0  0  0  0
    6.8057  -16.3001   25.1841 S   0  0  0  0  0  0  0  0  0  0  0  0
    8.7732  -18.5382   24.5079 C   0  0  0  0  0  0  0  0  0  0  0  0
    9.7099  -17.6938   25.0531 O   0  0  0  0  0  0  0  0  0  0  0  0
    8.6962  -19.7155   24.9422 O   0  0  0  0  0  0  0  0  0  0  0  0
  2  1  1  1
  3  2  1  0
  4  2  1  0
  4  5  2  0
  6  7  1  0
  7  9  1  0
  8  7  2  0
  9 10  1  0
 11 10  1  6
 11 12  1  0
 12  4  1  0
 13 11  1  0
 13 15  1  0
 14 13  2  0
 16 15  1  0
 16 19  1  0
 17 18  1  0
 16 17  1  1
 19 21  2  0
 19 20  1  0
M  END
$$$$
