AQC.pdb
     RDKit          3D

 21 20  0  0  1  0  0  0  0  0999 V2000
    7.6522  -12.4306   19.4078 C   0  0  0  0  0  0  0  0  0  0  0  0
    8.4433  -13.2628   18.4325 C   0  0  2  0  0  0  0  0  0  0  0  0
    7.4637  -13.9712   17.5974 N   0  0  0  0  0  0  0  0  0  0  0  0
    9.2788  -14.2804   19.0901 C   0  0  0  0  0  0  0  0  0  0  0  0
    8.7398  -15.4147   19.2937 O   0  0  0  0  0  0  0  0  0  0  0  0
   15.0721  -14.1175   17.3218 N   0  0  0  0  0  0  0  0  0  0  0  0
   14.6617  -14.9608   18.3738 C   0  0  0  0  0  0  0  0  0  0  0  0
   15.5406  -15.4039   19.1479 O   0  0  0  0  0  0  0  0  0  0  0  0
   13.2005  -15.3044   18.5408 C   0  0  0  0  0  0  0  0  0  0  0  0
   12.8100  -14.9131   19.9270 C   0  0  0  0  0  0  0  0  0  0  0  0
   11.3505  -15.1486   20.2248 C   0  0  2  0  0  0  0  0  0  0  0  0
   10.6067  -14.0949   19.5032 N   0  0  0  0  0  0  0  0  0  0  0  0
   11.0413  -15.0871   21.6546 C   0  0  0  0  0  0  0  0  0  0  0  0
   11.3292  -14.0757   22.3238 O   0  0  0  0  0  0  0  0  0  0  0  0
   10.4081  -16.1710   22.3178 N   0  0  0  0  0  0  0  0  0  0  0  0
   10.1119  -16.1249   23.7434 C   0  0  1  0  0  0  0  0  0  0  0  0
    8.6105  -16.1238   23.8851 C   0  0  0  0  0  0  0  0  0  0  0  0
    7.8809  -14.6010   23.2561 S   0  0  0  0  0  0  0  0  0  0  0  0
   10.7145  -17.2657   24.4626 C   0  0  0  0  0  0  0  0  0  0  0  0
   10.6744  -17.4107   25.8282 O   0  0  0  0  0  0  0  0  0  0  0  0
   11.2937  -18.1472   23.7785 O   0  0  0  0  0  0  0  0  0  0  0  0
  2  1  1  1
  3  2  1  0
  4  2  1  0
  4  5  2  0
  6  7  1  0
  7  9  1  0
  8  7  2  0
  9 10  1  0
 11 10  1  1
 11 12  1  0
 12  4  1  0
 13 11  1  0
 13 15  1  0
 14 13  2  0
 16 15  1  0
 16 19  1  0
 17 18  1  0
 16 17  1  6
 19 21  2  0
 19 20  1  0
M  END
$$$$
