AQC.pdb
     RDKit          3D

 21 20  0  0  1  0  0  0  0  0999 V2000
    8.1766  -19.5159   19.3433 C   0  0  0  0  0  0  0  0  0  0  0  0
    8.2971  -19.0037   20.7549 C   0  0  2  0  0  0  0  0  0  0  0  0
    6.9273  -18.8734   21.2702 N   0  0  0  0  0  0  0  0  0  0  0  0
    8.9251  -17.6750   20.8331 C   0  0  0  0  0  0  0  0  0  0  0  0
   10.1536  -17.6062   20.5093 O   0  0  0  0  0  0  0  0  0  0  0  0
    6.9789  -12.5863   18.7504 N   0  0  0  0  0  0  0  0  0  0  0  0
    7.6699  -13.6339   18.1093 C   0  0  0  0  0  0  0  0  0  0  0  0
    7.5785  -13.7214   16.8635 O   0  0  0  0  0  0  0  0  0  0  0  0
    8.4888  -14.6081   18.9226 C   0  0  0  0  0  0  0  0  0  0  0  0
    8.2754  -14.2721   20.3609 C   0  0  0  0  0  0  0  0  0  0  0  0
    8.9934  -15.2039   21.3044 C   0  0  2  0  0  0  0  0  0  0  0  0
    8.2788  -16.4956   21.2323 N   0  0  0  0  0  0  0  0  0  0  0  0
    9.0089  -14.7190   22.6858 C   0  0  0  0  0  0  0  0  0  0  0  0
    8.7270  -13.5331   22.9459 O   0  0  0  0  0  0  0  0  0  0  0  0
    9.3435  -15.5798   23.7641 N   0  0  0  0  0  0  0  0  0  0  0  0
    8.7971  -15.3778   25.0993 C   0  0  1  0  0  0  0  0  0  0  0  0
    7.2951  -15.4345   24.9776 C   0  0  0  0  0  0  0  0  0  0  0  0
    6.5192  -13.9184   25.5660 S   0  0  0  0  0  0  0  0  0  0  0  0
    9.2937  -16.3926   26.0508 C   0  0  0  0  0  0  0  0  0  0  0  0
    9.1884  -16.2718   27.4153 O   0  0  0  0  0  0  0  0  0  0  0  0
    9.8414  -17.4199   25.5760 O   0  0  0  0  0  0  0  0  0  0  0  0
  2  1  1  6
  3  2  1  0
  4  2  1  0
  4  5  2  0
  6  7  1  0
  7  9  1  0
  8  7  2  0
  9 10  1  0
 11 10  1  6
 11 12  1  0
 12  4  1  0
 13 11  1  0
 13 15  1  0
 14 13  2  0
 16 15  1  0
 16 19  1  0
 17 18  1  0
 16 17  1  6
 19 21  2  0
 19 20  1  0
M  END
$$$$
