AQC.pdb
     RDKit          3D

 21 20  0  0  1  0  0  0  0  0999 V2000
    7.6432  -12.0812   19.6348 C   0  0  0  0  0  0  0  0  0  0  0  0
    8.1398  -13.0596   18.6025 C   0  0  2  0  0  0  0  0  0  0  0  0
    6.9667  -13.8186   18.1482 N   0  0  0  0  0  0  0  0  0  0  0  0
    9.1069  -14.0271   19.1452 C   0  0  0  0  0  0  0  0  0  0  0  0
    8.6299  -15.1171   19.5957 O   0  0  0  0  0  0  0  0  0  0  0  0
   15.0603  -14.2394   17.6924 N   0  0  0  0  0  0  0  0  0  0  0  0
   15.0912  -15.1486   18.7688 C   0  0  0  0  0  0  0  0  0  0  0  0
   16.2085  -15.5545   19.1624 O   0  0  0  0  0  0  0  0  0  0  0  0
   13.8022  -15.6041   19.4106 C   0  0  0  0  0  0  0  0  0  0  0  0
   12.7503  -14.6115   19.0428 C   0  0  0  0  0  0  0  0  0  0  0  0
   11.4070  -14.9089   19.6602 C   0  0  2  0  0  0  0  0  0  0  0  0
   10.4961  -13.8391   19.2019 N   0  0  0  0  0  0  0  0  0  0  0  0
   11.4442  -14.9392   21.1235 C   0  0  0  0  0  0  0  0  0  0  0  0
   11.7791  -13.9285   21.7715 O   0  0  0  0  0  0  0  0  0  0  0  0
   11.1020  -16.1136   21.8442 N   0  0  0  0  0  0  0  0  0  0  0  0
   11.2445  -16.1890   23.2919 C   0  0  1  0  0  0  0  0  0  0  0  0
    9.8658  -16.4054   23.8632 C   0  0  0  0  0  0  0  0  0  0  0  0
    9.9161  -16.6881   25.6420 S   0  0  0  0  0  0  0  0  0  0  0  0
   12.1643  -17.2728   23.6935 C   0  0  0  0  0  0  0  0  0  0  0  0
   13.0092  -17.1922   24.7739 O   0  0  0  0  0  0  0  0  0  0  0  0
   12.1666  -18.3229   23.0022 O   0  0  0  0  0  0  0  0  0  0  0  0
  2  1  1  1
  3  2  1  0
  4  2  1  0
  4  5  2  0
  6  7  1  0
  7  9  1  0
  8  7  2  0
  9 10  1  0
 11 10  1  6
 11 12  1  0
 12  4  1  0
 13 11  1  0
 13 15  1  0
 14 13  2  0
 16 15  1  0
 16 19  1  0
 17 18  1  0
 16 17  1  1
 19 21  2  0
 19 20  1  0
M  END
$$$$
