AQC.pdb
     RDKit          3D

 21 20  0  0  1  0  0  0  0  0999 V2000
    7.7704  -12.6515   19.6592 C   0  0  0  0  0  0  0  0  0  0  0  0
    8.4013  -13.1696   18.3930 C   0  0  2  0  0  0  0  0  0  0  0  0
    7.3594  -13.9282   17.6875 N   0  0  0  0  0  0  0  0  0  0  0  0
    9.5223  -14.0897   18.6437 C   0  0  0  0  0  0  0  0  0  0  0  0
    9.2568  -15.3334   18.6080 O   0  0  0  0  0  0  0  0  0  0  0  0
   13.5815  -15.7242   16.4241 N   0  0  0  0  0  0  0  0  0  0  0  0
   14.4961  -15.8659   17.4869 C   0  0  0  0  0  0  0  0  0  0  0  0
   15.4105  -16.7128   17.3655 O   0  0  0  0  0  0  0  0  0  0  0  0
   14.3558  -15.0106   18.7238 C   0  0  0  0  0  0  0  0  0  0  0  0
   13.1581  -14.1422   18.5273 C   0  0  0  0  0  0  0  0  0  0  0  0
   11.9086  -14.6957   19.1648 C   0  0  2  0  0  0  0  0  0  0  0  0
   10.8431  -13.7024   18.9153 N   0  0  0  0  0  0  0  0  0  0  0  0
   12.0526  -14.9216   20.6042 C   0  0  0  0  0  0  0  0  0  0  0  0
   12.5729  -14.0555   21.3341 O   0  0  0  0  0  0  0  0  0  0  0  0
   11.6068  -16.1266   21.2082 N   0  0  0  0  0  0  0  0  0  0  0  0
   11.8000  -16.3847   22.6288 C   0  0  1  0  0  0  0  0  0  0  0  0
   10.5035  -16.9436   23.1589 C   0  0  0  0  0  0  0  0  0  0  0  0
    9.2109  -15.6899   23.2206 S   0  0  0  0  0  0  0  0  0  0  0  0
   12.9197  -17.3186   22.8658 C   0  0  0  0  0  0  0  0  0  0  0  0
   13.4583  -17.5611   24.1063 O   0  0  0  0  0  0  0  0  0  0  0  0
   13.3993  -17.9197   21.8713 O   0  0  0  0  0  0  0  0  0  0  0  0
  2  1  1  1
  3  2  1  0
  4  2  1  0
  4  5  2  0
  6  7  1  0
  7  9  1  0
  8  7  2  0
  9 10  1  0
 11 10  1  1
 11 12  1  0
 12  4  1  0
 13 11  1  0
 13 15  1  0
 14 13  2  0
 16 15  1  0
 16 19  1  0
 17 18  1  0
 16 17  1  6
 19 21  2  0
 19 20  1  0
M  END
$$$$
