AQC.pdb
     RDKit          3D

 21 20  0  0  1  0  0  0  0  0999 V2000
    8.2584  -12.7474   19.6386 C   0  0  0  0  0  0  0  0  0  0  0  0
    8.0343  -14.2302   19.7826 C   0  0  2  0  0  0  0  0  0  0  0  0
    6.9885  -14.5903   18.8154 N   0  0  0  0  0  0  0  0  0  0  0  0
    7.5486  -14.6115   21.1185 C   0  0  0  0  0  0  0  0  0  0  0  0
    6.3162  -14.4036   21.3569 O   0  0  0  0  0  0  0  0  0  0  0  0
    6.7569  -19.9553   24.6573 N   0  0  0  0  0  0  0  0  0  0  0  0
    7.7741  -19.0244   24.9488 C   0  0  0  0  0  0  0  0  0  0  0  0
    8.9122  -19.4664   25.2270 O   0  0  0  0  0  0  0  0  0  0  0  0
    7.4750  -17.5442   24.9197 C   0  0  0  0  0  0  0  0  0  0  0  0
    7.9994  -17.0126   23.6276 C   0  0  0  0  0  0  0  0  0  0  0  0
    7.7614  -15.5340   23.4502 C   0  0  2  0  0  0  0  0  0  0  0  0
    8.3326  -15.1791   22.1341 N   0  0  0  0  0  0  0  0  0  0  0  0
    8.3846  -14.7245   24.4990 C   0  0  0  0  0  0  0  0  0  0  0  0
    9.6081  -14.4875   24.4758 O   0  0  0  0  0  0  0  0  0  0  0  0
    7.6188  -14.1882   25.5674 N   0  0  0  0  0  0  0  0  0  0  0  0
    8.2180  -13.3282   26.5789 C   0  0  1  0  0  0  0  0  0  0  0  0
    7.2192  -12.2407   26.8854 C   0  0  0  0  0  0  0  0  0  0  0  0
    5.5332  -12.8747   26.9290 S   0  0  0  0  0  0  0  0  0  0  0  0
    8.5731  -14.0847   27.7969 C   0  0  0  0  0  0  0  0  0  0  0  0
    8.2969  -15.4194   27.9708 O   0  0  0  0  0  0  0  0  0  0  0  0
    9.1601  -13.4644   28.7194 O   0  0  0  0  0  0  0  0  0  0  0  0
  2  1  1  1
  3  2  1  0
  4  2  1  0
  4  5  2  0
  6  7  1  0
  7  9  1  0
  8  7  2  0
  9 10  1  0
 11 10  1  1
 11 12  1  0
 12  4  1  0
 13 11  1  0
 13 15  1  0
 14 13  2  0
 16 15  1  0
 16 19  1  0
 17 18  1  0
 16 17  1  1
 19 21  2  0
 19 20  1  0
M  END
$$$$
