AQC.pdb
     RDKit          3D

 21 20  0  0  1  0  0  0  0  0999 V2000
    8.3869  -14.7567   19.5506 C   0  0  0  0  0  0  0  0  0  0  0  0
    8.5624  -16.1298   20.1453 C   0  0  2  0  0  0  0  0  0  0  0  0
    7.5654  -16.9948   19.5000 N   0  0  0  0  0  0  0  0  0  0  0  0
    8.3054  -16.1663   21.5939 C   0  0  0  0  0  0  0  0  0  0  0  0
    7.0907  -16.2837   21.9537 O   0  0  0  0  0  0  0  0  0  0  0  0
   11.6896  -19.0005   25.5098 N   0  0  0  0  0  0  0  0  0  0  0  0
   10.7818  -18.4930   26.4607 C   0  0  0  0  0  0  0  0  0  0  0  0
   10.8835  -18.8949   27.6423 O   0  0  0  0  0  0  0  0  0  0  0  0
    9.7276  -17.4956   26.0421 C   0  0  0  0  0  0  0  0  0  0  0  0
    9.8943  -17.2649   24.5771 C   0  0  0  0  0  0  0  0  0  0  0  0
    8.9512  -16.2255   24.0255 C   0  0  2  0  0  0  0  0  0  0  0  0
    9.2865  -16.0824   22.5933 N   0  0  0  0  0  0  0  0  0  0  0  0
    9.0710  -14.9303   24.6975 C   0  0  0  0  0  0  0  0  0  0  0  0
   10.0855  -14.2237   24.5388 O   0  0  0  0  0  0  0  0  0  0  0  0
    8.0415  -14.4430   25.5451 N   0  0  0  0  0  0  0  0  0  0  0  0
    8.1695  -13.1739   26.2487 C   0  0  1  0  0  0  0  0  0  0  0  0
    6.8171  -12.5075   26.2120 C   0  0  0  0  0  0  0  0  0  0  0  0
    5.5171  -13.6002   26.8140 S   0  0  0  0  0  0  0  0  0  0  0  0
    8.6321  -13.3652   27.6384 C   0  0  0  0  0  0  0  0  0  0  0  0
    8.9902  -12.3318   28.4699 O   0  0  0  0  0  0  0  0  0  0  0  0
    8.6983  -14.5423   28.0750 O   0  0  0  0  0  0  0  0  0  0  0  0
  2  1  1  6
  3  2  1  0
  4  2  1  0
  4  5  2  0
  6  7  1  0
  7  9  1  0
  8  7  2  0
  9 10  1  0
 11 10  1  1
 11 12  1  0
 12  4  1  0
 13 11  1  0
 13 15  1  0
 14 13  2  0
 16 15  1  0
 16 19  1  0
 17 18  1  0
 16 17  1  1
 19 21  2  0
 19 20  1  0
M  END
$$$$
