AQC.pdb
     RDKit          3D

 21 20  0  0  1  0  0  0  0  0999 V2000
    8.6212  -12.5818   20.4246 C   0  0  0  0  0  0  0  0  0  0  0  0
    8.0563  -13.9729   20.3015 C   0  0  2  0  0  0  0  0  0  0  0  0
    6.8432  -13.8598   19.4802 N   0  0  0  0  0  0  0  0  0  0  0  0
    7.6592  -14.5492   21.5962 C   0  0  0  0  0  0  0  0  0  0  0  0
    6.5080  -14.2286   22.0328 O   0  0  0  0  0  0  0  0  0  0  0  0
    7.1865  -19.9347   23.3102 N   0  0  0  0  0  0  0  0  0  0  0  0
    7.0200  -19.4131   24.6088 C   0  0  0  0  0  0  0  0  0  0  0  0
    6.5640  -20.1737   25.4929 O   0  0  0  0  0  0  0  0  0  0  0  0
    7.3878  -17.9774   24.8995 C   0  0  0  0  0  0  0  0  0  0  0  0
    7.7166  -17.3324   23.5945 C   0  0  0  0  0  0  0  0  0  0  0  0
    8.0148  -15.8591   23.7154 C   0  0  2  0  0  0  0  0  0  0  0  0
    8.4448  -15.4135   22.3734 N   0  0  0  0  0  0  0  0  0  0  0  0
    9.0608  -15.5659   24.6970 C   0  0  0  0  0  0  0  0  0  0  0  0
   10.2602  -15.7720   24.4280 O   0  0  0  0  0  0  0  0  0  0  0  0
    8.7423  -15.0411   25.9772 N   0  0  0  0  0  0  0  0  0  0  0  0
    9.7739  -14.7736   26.9702 C   0  0  1  0  0  0  0  0  0  0  0  0
    9.2732  -13.6467   27.8382 C   0  0  0  0  0  0  0  0  0  0  0  0
   10.4563  -13.2205   29.1286 S   0  0  0  0  0  0  0  0  0  0  0  0
   10.0783  -15.9731   27.7767 C   0  0  0  0  0  0  0  0  0  0  0  0
   11.3284  -16.2623   28.2679 O   0  0  0  0  0  0  0  0  0  0  0  0
    9.1347  -16.7670   28.0218 O   0  0  0  0  0  0  0  0  0  0  0  0
  2  1  1  1
  3  2  1  0
  4  2  1  0
  4  5  2  0
  6  7  1  0
  7  9  1  0
  8  7  2  0
  9 10  1  0
 11 10  1  6
 11 12  1  0
 12  4  1  0
 13 11  1  0
 13 15  1  0
 14 13  2  0
 16 15  1  0
 16 19  1  0
 17 18  1  0
 16 17  1  1
 19 21  2  0
 19 20  1  0
M  END
$$$$
