AQC.pdb
     RDKit          3D

 21 20  0  0  1  0  0  0  0  0999 V2000
    7.5988  -12.5461   19.3244 C   0  0  0  0  0  0  0  0  0  0  0  0
    8.1108  -13.9626   19.2905 C   0  0  2  0  0  0  0  0  0  0  0  0
    7.2056  -14.7127   18.4092 N   0  0  0  0  0  0  0  0  0  0  0  0
    8.0831  -14.6159   20.6090 C   0  0  0  0  0  0  0  0  0  0  0  0
    6.9839  -15.1562   20.9535 O   0  0  0  0  0  0  0  0  0  0  0  0
   11.4669  -19.6883   22.1643 N   0  0  0  0  0  0  0  0  0  0  0  0
   11.4202  -18.3018   22.4122 C   0  0  0  0  0  0  0  0  0  0  0  0
   12.4694  -17.7392   22.8002 O   0  0  0  0  0  0  0  0  0  0  0  0
   10.1317  -17.5406   22.2084 C   0  0  0  0  0  0  0  0  0  0  0  0
   10.2636  -16.2451   22.9374 C   0  0  0  0  0  0  0  0  0  0  0  0
    9.0476  -15.3624   22.8103 C   0  0  2  0  0  0  0  0  0  0  0  0
    9.1634  -14.6860   21.5013 N   0  0  0  0  0  0  0  0  0  0  0  0
    8.9494  -14.3665   23.8791 C   0  0  0  0  0  0  0  0  0  0  0  0
    9.1153  -13.1553   23.6360 O   0  0  0  0  0  0  0  0  0  0  0  0
    8.6642  -14.7481   25.2165 N   0  0  0  0  0  0  0  0  0  0  0  0
    8.3649  -13.7603   26.2444 C   0  0  1  0  0  0  0  0  0  0  0  0
    7.1776  -12.9646   25.7633 C   0  0  0  0  0  0  0  0  0  0  0  0
    6.6115  -11.7905   27.0073 S   0  0  0  0  0  0  0  0  0  0  0  0
    8.0873  -14.3969   27.5480 C   0  0  0  0  0  0  0  0  0  0  0  0
    8.4798  -13.8658   28.7528 O   0  0  0  0  0  0  0  0  0  0  0  0
    7.4566  -15.4845   27.5443 O   0  0  0  0  0  0  0  0  0  0  0  0
  2  1  1  1
  3  2  1  0
  4  2  1  0
  4  5  2  0
  6  7  1  0
  7  9  1  0
  8  7  2  0
  9 10  1  0
 11 10  1  1
 11 12  1  0
 12  4  1  0
 13 11  1  0
 13 15  1  0
 14 13  2  0
 16 15  1  0
 16 19  1  0
 17 18  1  0
 16 17  1  6
 19 21  2  0
 19 20  1  0
M  END
$$$$
