AQC.pdb
     RDKit          3D

 21 20  0  0  1  0  0  0  0  0999 V2000
    6.9694  -13.1932   19.5313 C   0  0  0  0  0  0  0  0  0  0  0  0
    8.1191  -13.7827   20.3062 C   0  0  2  0  0  0  0  0  0  0  0  0
    8.4731  -15.0410   19.6355 N   0  0  0  0  0  0  0  0  0  0  0  0
    7.7676  -14.1091   21.6976 C   0  0  0  0  0  0  0  0  0  0  0  0
    7.3683  -13.1447   22.4250 O   0  0  0  0  0  0  0  0  0  0  0  0
    7.5673  -19.7985   24.0889 N   0  0  0  0  0  0  0  0  0  0  0  0
    7.0478  -19.1049   25.2002 C   0  0  0  0  0  0  0  0  0  0  0  0
    6.6758  -19.7761   26.1897 O   0  0  0  0  0  0  0  0  0  0  0  0
    6.9530  -17.5977   25.1736 C   0  0  0  0  0  0  0  0  0  0  0  0
    7.4132  -17.1496   23.8265 C   0  0  0  0  0  0  0  0  0  0  0  0
    7.3253  -15.6568   23.6320 C   0  0  2  0  0  0  0  0  0  0  0  0
    7.8393  -15.3866   22.2730 N   0  0  0  0  0  0  0  0  0  0  0  0
    8.1035  -14.9046   24.6181 C   0  0  0  0  0  0  0  0  0  0  0  0
    9.3410  -14.8042   24.5081 O   0  0  0  0  0  0  0  0  0  0  0  0
    7.4758  -14.2709   25.7226 N   0  0  0  0  0  0  0  0  0  0  0  0
    8.2404  -13.5073   26.6996 C   0  0  1  0  0  0  0  0  0  0  0  0
    7.2801  -12.5583   27.3714 C   0  0  0  0  0  0  0  0  0  0  0  0
    6.1614  -11.7894   26.1866 S   0  0  0  0  0  0  0  0  0  0  0  0
    8.8977  -14.3882   27.6864 C   0  0  0  0  0  0  0  0  0  0  0  0
    9.7543  -13.9339   28.6598 O   0  0  0  0  0  0  0  0  0  0  0  0
    8.6534  -15.6198   27.6240 O   0  0  0  0  0  0  0  0  0  0  0  0
  2  1  1  6
  3  2  1  0
  4  2  1  0
  4  5  2  0
  6  7  1  0
  7  9  1  0
  8  7  2  0
  9 10  1  0
 11 10  1  1
 11 12  1  0
 12  4  1  0
 13 11  1  0
 13 15  1  0
 14 13  2  0
 16 15  1  0
 16 19  1  0
 17 18  1  0
 16 17  1  1
 19 21  2  0
 19 20  1  0
M  END
$$$$
