AQC.pdb
     RDKit          3D

 21 20  0  0  1  0  0  0  0  0999 V2000
    7.3950  -13.5587   18.2473 C   0  0  0  0  0  0  0  0  0  0  0  0
    8.3864  -13.2295   19.3329 C   0  0  2  0  0  0  0  0  0  0  0  0
    9.7140  -13.5690   18.8028 N   0  0  0  0  0  0  0  0  0  0  0  0
    8.1846  -14.0229   20.5559 C   0  0  0  0  0  0  0  0  0  0  0  0
    7.0479  -13.9223   21.1186 O   0  0  0  0  0  0  0  0  0  0  0  0
   11.6894  -18.6840   22.5127 N   0  0  0  0  0  0  0  0  0  0  0  0
   10.7858  -18.7564   21.4336 C   0  0  0  0  0  0  0  0  0  0  0  0
   10.9129  -19.7031   20.6240 O   0  0  0  0  0  0  0  0  0  0  0  0
    9.7059  -17.7115   21.2808 C   0  0  0  0  0  0  0  0  0  0  0  0
    9.8505  -16.7567   22.4185 C   0  0  0  0  0  0  0  0  0  0  0  0
    8.8552  -15.6245   22.3776 C   0  0  2  0  0  0  0  0  0  0  0  0
    9.1391  -14.8699   21.1390 N   0  0  0  0  0  0  0  0  0  0  0  0
    8.9524  -14.7352   23.5366 C   0  0  0  0  0  0  0  0  0  0  0  0
    9.8756  -13.9021   23.6224 O   0  0  0  0  0  0  0  0  0  0  0  0
    8.0040  -14.7946   24.5914 N   0  0  0  0  0  0  0  0  0  0  0  0
    8.1153  -13.9409   25.7664 C   0  0  1  0  0  0  0  0  0  0  0  0
    6.9192  -13.0226   25.7631 C   0  0  0  0  0  0  0  0  0  0  0  0
    6.8759  -11.9760   27.2291 S   0  0  0  0  0  0  0  0  0  0  0  0
    8.1761  -14.7329   27.0118 C   0  0  0  0  0  0  0  0  0  0  0  0
    8.7601  -14.2833   28.1713 O   0  0  0  0  0  0  0  0  0  0  0  0
    7.6623  -15.8802   27.0000 O   0  0  0  0  0  0  0  0  0  0  0  0
  2  1  1  6
  3  2  1  0
  4  2  1  0
  4  5  2  0
  6  7  1  0
  7  9  1  0
  8  7  2  0
  9 10  1  0
 11 10  1  1
 11 12  1  0
 12  4  1  0
 13 11  1  0
 13 15  1  0
 14 13  2  0
 16 15  1  0
 16 19  1  0
 17 18  1  0
 16 17  1  1
 19 21  2  0
 19 20  1  0
M  END
$$$$
