KLF.pdb
     RDKit          3D

 29 29  0  0  1  0  0  0  0  0999 V2000
    8.0772  -18.7096   20.4098 N   0  0  0  0  0  0  0  0  0  0  0  0
    9.4735  -18.4175   20.1400 C   0  0  1  0  0  0  0  0  0  0  0  0
    9.7768  -18.4792   18.6796 C   0  0  0  0  0  0  0  0  0  0  0  0
    9.4087  -19.8421   18.1517 C   0  0  0  0  0  0  0  0  0  0  0  0
    9.8000  -20.0521   16.7264 C   0  0  0  0  0  0  0  0  0  0  0  0
    9.2617  -21.4102   16.2528 C   0  0  0  0  0  0  0  0  0  0  0  0
    9.6553  -21.6491   14.8723 N   0  0  0  0  0  0  0  0  0  0  0  0
    9.8557  -17.0893   20.7287 C   0  0  0  0  0  0  0  0  0  0  0  0
   11.0575  -16.7512   20.6081 O   0  0  0  0  0  0  0  0  0  0  0  0
    9.0431  -13.1074   19.4973 C   0  0  0  0  0  0  0  0  0  0  0  0
    7.8383  -13.7227   20.2341 C   0  0  2  0  0  0  0  0  0  0  0  0
    6.7124  -12.7417   20.0222 C   0  0  0  0  0  0  0  0  0  0  0  0
    8.2684  -13.8962   21.6455 C   0  0  0  0  0  0  0  0  0  0  0  0
    9.2556  -14.9710   21.9229 C   0  0  2  0  0  0  0  0  0  0  0  0
    8.9215  -16.2504   21.3883 N   0  0  0  0  0  0  0  0  0  0  0  0
    9.4686  -15.0340   23.4084 C   0  0  0  0  0  0  0  0  0  0  0  0
   10.1125  -14.1634   24.0461 O   0  0  0  0  0  0  0  0  0  0  0  0
    8.9297  -16.1148   24.1548 N   0  0  0  0  0  0  0  0  0  0  0  0
    9.0797  -16.2043   25.6034 C   0  0  1  0  0  0  0  0  0  0  0  0
    7.7976  -15.9402   26.3127 C   0  0  0  0  0  0  0  0  0  0  0  0
    7.3294  -14.5445   26.2603 C   0  0  0  0  0  0  0  0  0  0  0  0
    6.1040  -14.1906   25.7252 C   0  0  0  0  0  0  0  0  0  0  0  0
    5.6576  -12.9039   25.6815 C   0  0  0  0  0  0  0  0  0  0  0  0
    6.4161  -11.8693   26.1758 C   0  0  0  0  0  0  0  0  0  0  0  0
    7.6588  -12.1993   26.7218 C   0  0  0  0  0  0  0  0  0  0  0  0
    8.0956  -13.5056   26.7587 C   0  0  0  0  0  0  0  0  0  0  0  0
    9.5837  -17.5464   25.9348 C   0  0  0  0  0  0  0  0  0  0  0  0
    9.9634  -17.8201   27.2403 O   0  0  0  0  0  0  0  0  0  0  0  0
    9.6878  -18.4726   25.0734 O   0  0  0  0  0  0  0  0  0  0  0  0
  2  1  1  6
  2  3  1  0
  3  4  1  0
  5  4  1  0
  5  6  1  0
  7  6  1  0
  8  9  2  0
  8  2  1  0
 11 10  1  6
 11 13  1  0
 12 11  1  0
 14 13  1  1
 14 16  1  0
 14 15  1  0
 15  8  1  0
 16 18  1  0
 17 16  2  0
 18 19  1  0
 19 20  1  1
 20 21  1  0
 21 26  2  0
 21 22  1  0
 22 23  2  0
 23 24  1  0
 25 24  2  0
 26 25  1  0
 27 19  1  0
 28 27  1  0
 29 27  2  0
M  END
$$$$
