KLF.pdb
     RDKit          3D

 29 29  0  0  1  0  0  0  0  0999 V2000
    7.5440  -18.1298   21.2386 N   0  0  0  0  0  0  0  0  0  0  0  0
    8.6203  -17.3779   20.6192 C   0  0  1  0  0  0  0  0  0  0  0  0
    8.2785  -16.9757   19.2227 C   0  0  0  0  0  0  0  0  0  0  0  0
    8.0070  -18.2101   18.4014 C   0  0  0  0  0  0  0  0  0  0  0  0
    7.6222  -17.9112   16.9903 C   0  0  0  0  0  0  0  0  0  0  0  0
    7.3836  -19.2322   16.2442 C   0  0  0  0  0  0  0  0  0  0  0  0
    7.1445  -18.9720   14.8326 N   0  0  0  0  0  0  0  0  0  0  0  0
    8.9850  -16.1899   21.4633 C   0  0  0  0  0  0  0  0  0  0  0  0
    9.9431  -15.4900   21.0565 O   0  0  0  0  0  0  0  0  0  0  0  0
    8.7861  -13.0532   25.9068 C   0  0  0  0  0  0  0  0  0  0  0  0
    7.5621  -12.9415   24.9782 C   0  0  2  0  0  0  0  0  0  0  0  0
    6.4186  -12.5673   25.8878 C   0  0  0  0  0  0  0  0  0  0  0  0
    7.4336  -14.2631   24.3119 C   0  0  0  0  0  0  0  0  0  0  0  0
    8.5359  -14.6710   23.4035 C   0  0  2  0  0  0  0  0  0  0  0  0
    8.2943  -15.8627   22.6581 N   0  0  0  0  0  0  0  0  0  0  0  0
    9.7937  -14.7768   24.2177 C   0  0  0  0  0  0  0  0  0  0  0  0
   10.5224  -13.7885   24.4850 O   0  0  0  0  0  0  0  0  0  0  0  0
   10.2050  -16.0382   24.7229 N   0  0  0  0  0  0  0  0  0  0  0  0
   11.4499  -16.2047   25.4657 C   0  0  1  0  0  0  0  0  0  0  0  0
   11.2224  -16.8232   26.8008 C   0  0  0  0  0  0  0  0  0  0  0  0
   10.5097  -15.9740   27.7708 C   0  0  0  0  0  0  0  0  0  0  0  0
   10.6612  -14.5997   27.8084 C   0  0  0  0  0  0  0  0  0  0  0  0
    9.9988  -13.8046   28.6948 C   0  0  0  0  0  0  0  0  0  0  0  0
    9.1283  -14.3363   29.6167 C   0  0  0  0  0  0  0  0  0  0  0  0
    8.9572  -15.7225   29.6005 C   0  0  0  0  0  0  0  0  0  0  0  0
    9.6345  -16.5126   28.6974 C   0  0  0  0  0  0  0  0  0  0  0  0
   12.3609  -17.0352   24.6626 C   0  0  0  0  0  0  0  0  0  0  0  0
   11.9114  -17.5583   23.4593 O   0  0  0  0  0  0  0  0  0  0  0  0
   13.5491  -17.2971   25.0237 O   0  0  0  0  0  0  0  0  0  0  0  0
  2  1  1  1
  2  3  1  0
  3  4  1  0
  5  4  1  0
  5  6  1  0
  7  6  1  0
  8  9  2  0
  8  2  1  0
 11 10  1  1
 11 13  1  0
 12 11  1  0
 14 13  1  1
 14 16  1  0
 14 15  1  0
 15  8  1  0
 16 18  1  0
 17 16  2  0
 18 19  1  0
 19 20  1  1
 20 21  1  0
 21 26  2  0
 21 22  1  0
 22 23  2  0
 23 24  1  0
 25 24  2  0
 26 25  1  0
 27 19  1  0
 28 27  1  0
 29 27  2  0
M  END
$$$$
