KLF.pdb
     RDKit          3D

 29 29  0  0  1  0  0  0  0  0999 V2000
    8.3080  -19.0179   20.8027 N   0  0  0  0  0  0  0  0  0  0  0  0
    9.4531  -18.7127   19.9641 C   0  0  1  0  0  0  0  0  0  0  0  0
    9.1379  -18.8898   18.5157 C   0  0  0  0  0  0  0  0  0  0  0  0
    7.9779  -19.8414   18.3714 C   0  0  0  0  0  0  0  0  0  0  0  0
    7.9412  -20.5363   17.0507 C   0  0  0  0  0  0  0  0  0  0  0  0
    6.5240  -20.4329   16.4680 C   0  0  0  0  0  0  0  0  0  0  0  0
    6.4787  -21.0534   15.1525 N   0  0  0  0  0  0  0  0  0  0  0  0
    9.9630  -17.3296   20.2541 C   0  0  0  0  0  0  0  0  0  0  0  0
   11.1262  -17.0709   19.8627 O   0  0  0  0  0  0  0  0  0  0  0  0
    8.7064  -13.2518   18.8719 C   0  0  0  0  0  0  0  0  0  0  0  0
    7.7660  -13.8661   19.9261 C   0  0  2  0  0  0  0  0  0  0  0  0
    6.6008  -12.9119   20.0088 C   0  0  0  0  0  0  0  0  0  0  0  0
    8.5713  -13.9898   21.1684 C   0  0  0  0  0  0  0  0  0  0  0  0
    9.6349  -15.0267   21.1827 C   0  0  2  0  0  0  0  0  0  0  0  0
    9.1849  -16.3567   20.9322 N   0  0  0  0  0  0  0  0  0  0  0  0
   10.3610  -14.9293   22.4939 C   0  0  0  0  0  0  0  0  0  0  0  0
   11.1041  -13.9619   22.7959 O   0  0  0  0  0  0  0  0  0  0  0  0
   10.2215  -15.9622   23.4579 N   0  0  0  0  0  0  0  0  0  0  0  0
   10.6004  -15.7726   24.8542 C   0  0  1  0  0  0  0  0  0  0  0  0
    9.4124  -15.7118   25.7496 C   0  0  0  0  0  0  0  0  0  0  0  0
    9.7065  -15.4027   27.1596 C   0  0  0  0  0  0  0  0  0  0  0  0
    9.7145  -14.1102   27.6517 C   0  0  0  0  0  0  0  0  0  0  0  0
    9.9752  -13.8149   28.9561 C   0  0  0  0  0  0  0  0  0  0  0  0
   10.2499  -14.8049   29.8697 C   0  0  0  0  0  0  0  0  0  0  0  0
   10.2486  -16.1199   29.3986 C   0  0  0  0  0  0  0  0  0  0  0  0
    9.9827  -16.4018   28.0763 C   0  0  0  0  0  0  0  0  0  0  0  0
   11.4853  -16.8800   25.2485 C   0  0  0  0  0  0  0  0  0  0  0  0
   11.4956  -18.0384   24.4860 O   0  0  0  0  0  0  0  0  0  0  0  0
   12.2460  -16.8231   26.2629 O   0  0  0  0  0  0  0  0  0  0  0  0
  2  1  1  1
  2  3  1  0
  3  4  1  0
  5  4  1  0
  5  6  1  0
  7  6  1  0
  8  9  2  0
  8  2  1  0
 11 10  1  6
 11 13  1  0
 12 11  1  0
 14 13  1  1
 14 16  1  0
 14 15  1  0
 15  8  1  0
 16 18  1  0
 17 16  2  0
 18 19  1  0
 19 20  1  1
 20 21  1  0
 21 26  2  0
 21 22  1  0
 22 23  2  0
 23 24  1  0
 25 24  2  0
 26 25  1  0
 27 19  1  0
 28 27  1  0
 29 27  2  0
M  END
$$$$
