KLF.pdb
     RDKit          3D

 29 29  0  0  1  0  0  0  0  0999 V2000
    6.6364  -18.2938   23.3088 N   0  0  0  0  0  0  0  0  0  0  0  0
    6.8018  -17.7538   21.9714 C   0  0  1  0  0  0  0  0  0  0  0  0
    5.5586  -17.9051   21.1588 C   0  0  0  0  0  0  0  0  0  0  0  0
    4.7692  -19.0826   21.6710 C   0  0  0  0  0  0  0  0  0  0  0  0
    3.3023  -18.9687   21.4184 C   0  0  0  0  0  0  0  0  0  0  0  0
    2.6126  -20.2635   21.8725 C   0  0  0  0  0  0  0  0  0  0  0  0
    1.1775  -20.1689   21.6504 N   0  0  0  0  0  0  0  0  0  0  0  0
    7.2501  -16.3213   22.0349 C   0  0  0  0  0  0  0  0  0  0  0  0
    7.3433  -15.7174   20.9395 O   0  0  0  0  0  0  0  0  0  0  0  0
    6.4748  -14.3010   25.4846 C   0  0  0  0  0  0  0  0  0  0  0  0
    7.6862  -13.3562   25.3709 C   0  0  2  0  0  0  0  0  0  0  0  0
    7.1914  -12.0281   25.8869 C   0  0  0  0  0  0  0  0  0  0  0  0
    8.0817  -13.3706   23.9390 C   0  0  0  0  0  0  0  0  0  0  0  0
    8.5568  -14.6635   23.3830 C   0  0  2  0  0  0  0  0  0  0  0  0
    7.5554  -15.6714   23.2580 N   0  0  0  0  0  0  0  0  0  0  0  0
    9.7098  -15.1346   24.2225 C   0  0  0  0  0  0  0  0  0  0  0  0
   10.6950  -14.4072   24.5041 O   0  0  0  0  0  0  0  0  0  0  0  0
    9.7159  -16.4580   24.7366 N   0  0  0  0  0  0  0  0  0  0  0  0
   10.7383  -16.9199   25.6696 C   0  0  1  0  0  0  0  0  0  0  0  0
   10.1715  -17.2158   27.0142 C   0  0  0  0  0  0  0  0  0  0  0  0
    9.8280  -16.0331   27.8226 C   0  0  0  0  0  0  0  0  0  0  0  0
   10.4859  -15.7191   28.9980 C   0  0  0  0  0  0  0  0  0  0  0  0
   10.1826  -14.6221   29.7473 C   0  0  0  0  0  0  0  0  0  0  0  0
    9.1874  -13.7529   29.3678 C   0  0  0  0  0  0  0  0  0  0  0  0
    8.5065  -14.0471   28.1841 C   0  0  0  0  0  0  0  0  0  0  0  0
    8.8255  -15.1605   27.4376 C   0  0  0  0  0  0  0  0  0  0  0  0
   11.3732  -18.1206   25.1037 C   0  0  0  0  0  0  0  0  0  0  0  0
   10.8620  -18.6660   23.9355 O   0  0  0  0  0  0  0  0  0  0  0  0
   12.3756  -18.6846   25.6402 O   0  0  0  0  0  0  0  0  0  0  0  0
  2  1  1  1
  2  3  1  0
  3  4  1  0
  5  4  1  0
  5  6  1  0
  7  6  1  0
  8  9  2  0
  8  2  1  0
 11 10  1  6
 11 13  1  0
 12 11  1  0
 14 13  1  1
 14 16  1  0
 14 15  1  0
 15  8  1  0
 16 18  1  0
 17 16  2  0
 18 19  1  0
 19 20  1  1
 20 21  1  0
 21 26  2  0
 21 22  1  0
 22 23  2  0
 23 24  1  0
 25 24  2  0
 26 25  1  0
 27 19  1  0
 28 27  1  0
 29 27  2  0
M  END
$$$$
