KLF.pdb
     RDKit          3D

 29 29  0  0  1  0  0  0  0  0999 V2000
    8.7217  -15.6424   18.8716 N   0  0  0  0  0  0  0  0  0  0  0  0
    8.8963  -16.6375   19.9141 C   0  0  1  0  0  0  0  0  0  0  0  0
    9.8811  -17.6862   19.5151 C   0  0  0  0  0  0  0  0  0  0  0  0
    9.3649  -18.4184   18.3030 C   0  0  0  0  0  0  0  0  0  0  0  0
   10.2249  -19.5677   17.8930 C   0  0  0  0  0  0  0  0  0  0  0  0
    9.6570  -20.1863   16.6072 C   0  0  0  0  0  0  0  0  0  0  0  0
   10.4085  -21.3814   16.2542 N   0  0  0  0  0  0  0  0  0  0  0  0
    9.2824  -15.9802   21.2086 C   0  0  0  0  0  0  0  0  0  0  0  0
   10.4064  -15.4242   21.2380 O   0  0  0  0  0  0  0  0  0  0  0  0
    6.5321  -13.6859   26.1110 C   0  0  0  0  0  0  0  0  0  0  0  0
    7.9087  -13.9929   25.4915 C   0  0  2  0  0  0  0  0  0  0  0  0
    8.3732  -12.6808   24.9103 C   0  0  0  0  0  0  0  0  0  0  0  0
    7.6781  -15.0765   24.5017 C   0  0  0  0  0  0  0  0  0  0  0  0
    8.8101  -15.4230   23.6044 C   0  0  2  0  0  0  0  0  0  0  0  0
    8.4346  -15.9785   22.3456 N   0  0  0  0  0  0  0  0  0  0  0  0
    9.7351  -16.3375   24.3554 C   0  0  0  0  0  0  0  0  0  0  0  0
   10.5072  -17.1496   23.7866 O   0  0  0  0  0  0  0  0  0  0  0  0
    9.7619  -16.3064   25.7745 N   0  0  0  0  0  0  0  0  0  0  0  0
   10.6815  -17.1337   26.5485 C   0  0  1  0  0  0  0  0  0  0  0  0
   10.6259  -16.8166   28.0022 C   0  0  0  0  0  0  0  0  0  0  0  0
   10.4042  -15.3964   28.3248 C   0  0  0  0  0  0  0  0  0  0  0  0
   11.4325  -14.4721   28.3585 C   0  0  0  0  0  0  0  0  0  0  0  0
   11.2363  -13.1546   28.6458 C   0  0  0  0  0  0  0  0  0  0  0  0
    9.9819  -12.6648   28.9230 C   0  0  0  0  0  0  0  0  0  0  0  0
    8.9250  -13.5778   28.8960 C   0  0  0  0  0  0  0  0  0  0  0  0
    9.1402  -14.9070   28.6035 C   0  0  0  0  0  0  0  0  0  0  0  0
   10.3406  -18.5462   26.3169 C   0  0  0  0  0  0  0  0  0  0  0  0
    9.2050  -18.8535   25.5825 O   0  0  0  0  0  0  0  0  0  0  0  0
   11.0440  -19.5041   26.7623 O   0  0  0  0  0  0  0  0  0  0  0  0
  2  1  1  6
  2  3  1  0
  3  4  1  0
  5  4  1  0
  5  6  1  0
  7  6  1  0
  8  9  2  0
  8  2  1  0
 11 10  1  6
 11 13  1  0
 12 11  1  0
 14 13  1  1
 14 16  1  0
 14 15  1  0
 15  8  1  0
 16 18  1  0
 17 16  2  0
 18 19  1  0
 19 20  1  1
 20 21  1  0
 21 26  2  0
 21 22  1  0
 22 23  2  0
 23 24  1  0
 25 24  2  0
 26 25  1  0
 27 19  1  0
 28 27  1  0
 29 27  2  0
M  END
$$$$
