KLF.pdb
     RDKit          3D

 29 29  0  0  1  0  0  0  0  0999 V2000
    7.7384  -18.6087   20.4535 N   0  0  0  0  0  0  0  0  0  0  0  0
    9.0981  -18.3551   20.0124 C   0  0  1  0  0  0  0  0  0  0  0  0
    9.1927  -18.3004   18.5235 C   0  0  0  0  0  0  0  0  0  0  0  0
    8.8291  -19.6468   17.9517 C   0  0  0  0  0  0  0  0  0  0  0  0
    9.5776  -19.9837   16.7048 C   0  0  0  0  0  0  0  0  0  0  0  0
    9.1298  -21.3663   16.2083 C   0  0  0  0  0  0  0  0  0  0  0  0
    9.9481  -21.7800   15.0784 N   0  0  0  0  0  0  0  0  0  0  0  0
    9.6313  -17.1021   20.6468 C   0  0  0  0  0  0  0  0  0  0  0  0
   10.8786  -16.9701   20.6577 O   0  0  0  0  0  0  0  0  0  0  0  0
    9.0617  -13.0743   19.3012 C   0  0  0  0  0  0  0  0  0  0  0  0
    7.8844  -13.5393   20.1792 C   0  0  2  0  0  0  0  0  0  0  0  0
    6.8421  -12.4589   20.0333 C   0  0  0  0  0  0  0  0  0  0  0  0
    8.4369  -13.7040   21.5484 C   0  0  0  0  0  0  0  0  0  0  0  0
    9.2697  -14.9081   21.7997 C   0  0  2  0  0  0  0  0  0  0  0  0
    8.7849  -16.1119   21.2078 N   0  0  0  0  0  0  0  0  0  0  0  0
    9.4385  -15.0545   23.2850 C   0  0  0  0  0  0  0  0  0  0  0  0
    9.9920  -14.1829   24.0012 O   0  0  0  0  0  0  0  0  0  0  0  0
    8.9607  -16.2203   23.9395 N   0  0  0  0  0  0  0  0  0  0  0  0
    8.9414  -16.3372   25.3938 C   0  0  1  0  0  0  0  0  0  0  0  0
    7.5617  -16.2263   25.9424 C   0  0  0  0  0  0  0  0  0  0  0  0
    7.0933  -14.8508   26.1850 C   0  0  0  0  0  0  0  0  0  0  0  0
    7.9063  -13.8736   26.7302 C   0  0  0  0  0  0  0  0  0  0  0  0
    7.4857  -12.5961   26.9490 C   0  0  0  0  0  0  0  0  0  0  0  0
    6.2064  -12.2032   26.6338 C   0  0  0  0  0  0  0  0  0  0  0  0
    5.3642  -13.1713   26.0819 C   0  0  0  0  0  0  0  0  0  0  0  0
    5.8049  -14.4590   25.8667 C   0  0  0  0  0  0  0  0  0  0  0  0
    9.5390  -17.6301   25.7626 C   0  0  0  0  0  0  0  0  0  0  0  0
    9.9606  -18.4884   24.7581 O   0  0  0  0  0  0  0  0  0  0  0  0
    9.6875  -17.9989   26.9679 O   0  0  0  0  0  0  0  0  0  0  0  0
  2  1  1  6
  2  3  1  0
  3  4  1  0
  5  4  1  0
  5  6  1  0
  7  6  1  0
  8  9  2  0
  8  2  1  0
 11 10  1  6
 11 13  1  0
 12 11  1  0
 14 13  1  1
 14 16  1  0
 14 15  1  0
 15  8  1  0
 16 18  1  0
 17 16  2  0
 18 19  1  0
 19 20  1  6
 20 21  1  0
 21 26  2  0
 21 22  1  0
 22 23  2  0
 23 24  1  0
 25 24  2  0
 26 25  1  0
 27 19  1  0
 28 27  1  0
 29 27  2  0
M  END
$$$$
