KLF.pdb
     RDKit          3D

 29 29  0  0  1  0  0  0  0  0999 V2000
   10.2963  -18.5446   18.7973 N   0  0  0  0  0  0  0  0  0  0  0  0
   11.5213  -18.1651   19.4777 C   0  0  1  0  0  0  0  0  0  0  0  0
   12.4685  -17.4677   18.5583 C   0  0  0  0  0  0  0  0  0  0  0  0
   13.1596  -18.4868   17.6889 C   0  0  0  0  0  0  0  0  0  0  0  0
   12.8110  -18.3668   16.2423 C   0  0  0  0  0  0  0  0  0  0  0  0
   13.5978  -19.4190   15.4471 C   0  0  0  0  0  0  0  0  0  0  0  0
   13.3316  -19.2712   14.0242 N   0  0  0  0  0  0  0  0  0  0  0  0
   11.2130  -17.3325   20.6896 C   0  0  0  0  0  0  0  0  0  0  0  0
   12.1981  -16.9110   21.3416 O   0  0  0  0  0  0  0  0  0  0  0  0
    8.4034  -13.6372   21.0697 C   0  0  0  0  0  0  0  0  0  0  0  0
    7.6618  -14.9873   21.0771 C   0  0  2  0  0  0  0  0  0  0  0  0
    6.1983  -14.6252   21.1229 C   0  0  0  0  0  0  0  0  0  0  0  0
    8.1682  -15.7244   22.2634 C   0  0  0  0  0  0  0  0  0  0  0  0
    9.5726  -16.2055   22.2101 C   0  0  2  0  0  0  0  0  0  0  0  0
    9.8863  -17.0298   21.0893 N   0  0  0  0  0  0  0  0  0  0  0  0
    9.8748  -16.9013   23.5065 C   0  0  0  0  0  0  0  0  0  0  0  0
    9.5645  -18.0983   23.7307 O   0  0  0  0  0  0  0  0  0  0  0  0
   10.5411  -16.2011   24.5463 N   0  0  0  0  0  0  0  0  0  0  0  0
   11.0648  -16.8830   25.7253 C   0  0  1  0  0  0  0  0  0  0  0  0
   11.7161  -15.9362   26.6720 C   0  0  0  0  0  0  0  0  0  0  0  0
   10.7909  -15.1050   27.4614 C   0  0  0  0  0  0  0  0  0  0  0  0
   10.0506  -14.0794   26.9018 C   0  0  0  0  0  0  0  0  0  0  0  0
    9.1847  -13.3117   27.6214 C   0  0  0  0  0  0  0  0  0  0  0  0
    8.9977  -13.5195   28.9675 C   0  0  0  0  0  0  0  0  0  0  0  0
    9.7338  -14.5494   29.5579 C   0  0  0  0  0  0  0  0  0  0  0  0
   10.6053  -15.3169   28.8162 C   0  0  0  0  0  0  0  0  0  0  0  0
    9.9537  -17.5868   26.3848 C   0  0  0  0  0  0  0  0  0  0  0  0
   10.2356  -18.4897   27.3992 O   0  0  0  0  0  0  0  0  0  0  0  0
    8.7391  -17.4040   26.0653 O   0  0  0  0  0  0  0  0  0  0  0  0
  2  1  1  6
  2  3  1  0
  3  4  1  0
  5  4  1  0
  5  6  1  0
  7  6  1  0
  8  9  2  0
  8  2  1  0
 11 10  1  1
 11 13  1  0
 12 11  1  0
 14 13  1  1
 14 16  1  0
 14 15  1  0
 15  8  1  0
 16 18  1  0
 17 16  2  0
 18 19  1  0
 19 20  1  1
 20 21  1  0
 21 26  2  0
 21 22  1  0
 22 23  2  0
 23 24  1  0
 25 24  2  0
 26 25  1  0
 27 19  1  0
 28 27  1  0
 29 27  2  0
M  END
$$$$
