KLF.pdb
     RDKit          3D

 29 29  0  0  1  0  0  0  0  0999 V2000
    7.5807  -18.7117   20.4881 N   0  0  0  0  0  0  0  0  0  0  0  0
    8.9500  -18.5632   20.0291 C   0  0  1  0  0  0  0  0  0  0  0  0
    9.0496  -18.6865   18.5447 C   0  0  0  0  0  0  0  0  0  0  0  0
    7.7287  -19.1606   17.9947 C   0  0  0  0  0  0  0  0  0  0  0  0
    7.8676  -20.1893   16.9218 C   0  0  0  0  0  0  0  0  0  0  0  0
    6.4733  -20.5495   16.3880 C   0  0  0  0  0  0  0  0  0  0  0  0
    6.5657  -21.6749   15.4702 N   0  0  0  0  0  0  0  0  0  0  0  0
    9.5298  -17.2659   20.5166 C   0  0  0  0  0  0  0  0  0  0  0  0
   10.7101  -17.0184   20.1718 O   0  0  0  0  0  0  0  0  0  0  0  0
    8.7898  -13.3074   19.3641 C   0  0  0  0  0  0  0  0  0  0  0  0
    7.7174  -13.7880   20.3600 C   0  0  2  0  0  0  0  0  0  0  0  0
    6.6562  -12.7165   20.3337 C   0  0  0  0  0  0  0  0  0  0  0  0
    8.4147  -13.9554   21.6611 C   0  0  0  0  0  0  0  0  0  0  0  0
    9.3269  -15.1204   21.7929 C   0  0  2  0  0  0  0  0  0  0  0  0
    8.7969  -16.3585   21.3234 N   0  0  0  0  0  0  0  0  0  0  0  0
    9.7554  -15.2148   23.2294 C   0  0  0  0  0  0  0  0  0  0  0  0
   10.6389  -14.4754   23.7312 O   0  0  0  0  0  0  0  0  0  0  0  0
    9.1528  -16.1737   24.0855 N   0  0  0  0  0  0  0  0  0  0  0  0
    9.4627  -16.2411   25.5098 C   0  0  1  0  0  0  0  0  0  0  0  0
    8.2386  -16.1353   26.3509 C   0  0  0  0  0  0  0  0  0  0  0  0
    7.5288  -14.8475   26.2636 C   0  0  0  0  0  0  0  0  0  0  0  0
    8.0611  -13.6699   26.7566 C   0  0  0  0  0  0  0  0  0  0  0  0
    7.4170  -12.4721   26.6715 C   0  0  0  0  0  0  0  0  0  0  0  0
    6.1800  -12.3685   26.0804 C   0  0  0  0  0  0  0  0  0  0  0  0
    5.6193  -13.5435   25.5743 C   0  0  0  0  0  0  0  0  0  0  0  0
    6.2838  -14.7470   25.6680 C   0  0  0  0  0  0  0  0  0  0  0  0
   10.1592  -17.5102   25.7727 C   0  0  0  0  0  0  0  0  0  0  0  0
   10.6994  -17.7343   27.0303 O   0  0  0  0  0  0  0  0  0  0  0  0
   10.2893  -18.4167   24.8940 O   0  0  0  0  0  0  0  0  0  0  0  0
  2  1  1  6
  2  3  1  0
  3  4  1  0
  5  4  1  0
  5  6  1  0
  7  6  1  0
  8  9  2  0
  8  2  1  0
 11 10  1  6
 11 13  1  0
 12 11  1  0
 14 13  1  1
 14 16  1  0
 14 15  1  0
 15  8  1  0
 16 18  1  0
 17 16  2  0
 18 19  1  0
 19 20  1  1
 20 21  1  0
 21 26  2  0
 21 22  1  0
 22 23  2  0
 23 24  1  0
 25 24  2  0
 26 25  1  0
 27 19  1  0
 28 27  1  0
 29 27  2  0
M  END
$$$$
