KLF.pdb
     RDKit          3D

 29 29  0  0  1  0  0  0  0  0999 V2000
    7.9907  -18.2599   19.8323 N   0  0  0  0  0  0  0  0  0  0  0  0
    8.1769  -18.3257   21.2706 C   0  0  1  0  0  0  0  0  0  0  0  0
    8.8902  -19.5725   21.6770 C   0  0  0  0  0  0  0  0  0  0  0  0
    8.0072  -20.7630   21.4034 C   0  0  0  0  0  0  0  0  0  0  0  0
    7.8042  -21.6378   22.5958 C   0  0  0  0  0  0  0  0  0  0  0  0
    6.8970  -22.8144   22.2069 C   0  0  0  0  0  0  0  0  0  0  0  0
    6.7896  -23.7499   23.3163 N   0  0  0  0  0  0  0  0  0  0  0  0
    8.8854  -17.0968   21.7654 C   0  0  0  0  0  0  0  0  0  0  0  0
    9.8766  -16.7176   21.0968 O   0  0  0  0  0  0  0  0  0  0  0  0
    7.0767  -13.3777   22.0839 C   0  0  0  0  0  0  0  0  0  0  0  0
    6.8859  -14.0646   23.4494 C   0  0  2  0  0  0  0  0  0  0  0  0
    5.9565  -13.1554   24.2139 C   0  0  0  0  0  0  0  0  0  0  0  0
    8.2469  -14.2082   24.0275 C   0  0  0  0  0  0  0  0  0  0  0  0
    9.1352  -15.2302   23.4167 C   0  0  2  0  0  0  0  0  0  0  0  0
    8.4698  -16.3914   22.9235 N   0  0  0  0  0  0  0  0  0  0  0  0
   10.1924  -15.5873   24.4220 C   0  0  0  0  0  0  0  0  0  0  0  0
   11.0945  -14.7894   24.7810 O   0  0  0  0  0  0  0  0  0  0  0  0
   10.1998  -16.8785   25.0121 N   0  0  0  0  0  0  0  0  0  0  0  0
   11.1824  -17.2619   26.0204 C   0  0  1  0  0  0  0  0  0  0  0  0
   10.5971  -17.2787   27.3893 C   0  0  0  0  0  0  0  0  0  0  0  0
   10.1720  -15.9657   27.9043 C   0  0  0  0  0  0  0  0  0  0  0  0
   10.9528  -15.2163   28.7657 C   0  0  0  0  0  0  0  0  0  0  0  0
   10.5730  -13.9964   29.2394 C   0  0  0  0  0  0  0  0  0  0  0  0
    9.3706  -13.4351   28.8798 C   0  0  0  0  0  0  0  0  0  0  0  0
    8.5623  -14.1716   28.0107 C   0  0  0  0  0  0  0  0  0  0  0  0
    8.9609  -15.4038   27.5404 C   0  0  0  0  0  0  0  0  0  0  0  0
   11.7108  -18.5899   25.6707 C   0  0  0  0  0  0  0  0  0  0  0  0
   12.6880  -19.1590   26.4736 O   0  0  0  0  0  0  0  0  0  0  0  0
   11.3099  -19.2437   24.6595 O   0  0  0  0  0  0  0  0  0  0  0  0
  2  1  1  6
  2  3  1  0
  3  4  1  0
  5  4  1  0
  5  6  1  0
  7  6  1  0
  8  9  2  0
  8  2  1  0
 11 10  1  6
 11 13  1  0
 12 11  1  0
 14 13  1  1
 14 16  1  0
 14 15  1  0
 15  8  1  0
 16 18  1  0
 17 16  2  0
 18 19  1  0
 19 20  1  1
 20 21  1  0
 21 26  2  0
 21 22  1  0
 22 23  2  0
 23 24  1  0
 25 24  2  0
 26 25  1  0
 27 19  1  0
 28 27  1  0
 29 27  2  0
M  END
$$$$
