KLF.pdb
     RDKit          3D

 29 29  0  0  1  0  0  0  0  0999 V2000
    7.5854  -18.6406   20.5035 N   0  0  0  0  0  0  0  0  0  0  0  0
    8.9406  -18.4524   20.0183 C   0  0  1  0  0  0  0  0  0  0  0  0
    8.9999  -18.4769   18.5268 C   0  0  0  0  0  0  0  0  0  0  0  0
    8.2123  -19.6565   18.0166 C   0  0  0  0  0  0  0  0  0  0  0  0
    8.7084  -20.1807   16.7098 C   0  0  0  0  0  0  0  0  0  0  0  0
    7.6439  -21.1070   16.1036 C   0  0  0  0  0  0  0  0  0  0  0  0
    8.1091  -21.6358   14.8302 N   0  0  0  0  0  0  0  0  0  0  0  0
    9.5267  -17.1858   20.5743 C   0  0  0  0  0  0  0  0  0  0  0  0
   10.7437  -16.9870   20.3448 O   0  0  0  0  0  0  0  0  0  0  0  0
    8.7896  -13.2870   19.3569 C   0  0  0  0  0  0  0  0  0  0  0  0
    7.7134  -13.7023   20.3779 C   0  0  2  0  0  0  0  0  0  0  0  0
    6.6845  -12.6007   20.3259 C   0  0  0  0  0  0  0  0  0  0  0  0
    8.4185  -13.8480   21.6773 C   0  0  0  0  0  0  0  0  0  0  0  0
    9.2925  -15.0379   21.8412 C   0  0  2  0  0  0  0  0  0  0  0  0
    8.7603  -16.2543   21.3204 N   0  0  0  0  0  0  0  0  0  0  0  0
    9.6342  -15.1662   23.2982 C   0  0  0  0  0  0  0  0  0  0  0  0
   10.5350  -14.4883   23.8533 O   0  0  0  0  0  0  0  0  0  0  0  0
    8.9244  -16.0873   24.1126 N   0  0  0  0  0  0  0  0  0  0  0  0
    9.2297  -16.2618   25.5287 C   0  0  1  0  0  0  0  0  0  0  0  0
    8.0144  -16.1354   26.3795 C   0  0  0  0  0  0  0  0  0  0  0  0
    7.4965  -14.7647   26.5312 C   0  0  0  0  0  0  0  0  0  0  0  0
    6.1601  -14.4515   26.3612 C   0  0  0  0  0  0  0  0  0  0  0  0
    5.6697  -13.1887   26.5094 C   0  0  0  0  0  0  0  0  0  0  0  0
    6.4930  -12.1390   26.8417 C   0  0  0  0  0  0  0  0  0  0  0  0
    7.8481  -12.4280   27.0190 C   0  0  0  0  0  0  0  0  0  0  0  0
    8.3282  -13.7105   26.8656 C   0  0  0  0  0  0  0  0  0  0  0  0
    9.8486  -17.5844   25.7095 C   0  0  0  0  0  0  0  0  0  0  0  0
   10.3645  -17.9228   26.9516 O   0  0  0  0  0  0  0  0  0  0  0  0
    9.9328  -18.4367   24.7729 O   0  0  0  0  0  0  0  0  0  0  0  0
  2  1  1  6
  2  3  1  0
  3  4  1  0
  5  4  1  0
  5  6  1  0
  7  6  1  0
  8  9  2  0
  8  2  1  0
 11 10  1  6
 11 13  1  0
 12 11  1  0
 14 13  1  1
 14 16  1  0
 14 15  1  0
 15  8  1  0
 16 18  1  0
 17 16  2  0
 18 19  1  0
 19 20  1  1
 20 21  1  0
 21 26  2  0
 21 22  1  0
 22 23  2  0
 23 24  1  0
 25 24  2  0
 26 25  1  0
 27 19  1  0
 28 27  1  0
 29 27  2  0
M  END
$$$$
