KLF.pdb
     RDKit          3D

 29 29  0  0  1  0  0  0  0  0999 V2000
    7.1651  -16.3794   20.1858 N   0  0  0  0  0  0  0  0  0  0  0  0
    8.4399  -15.6920   20.0861 C   0  0  1  0  0  0  0  0  0  0  0  0
    8.3678  -14.5311   19.1502 C   0  0  0  0  0  0  0  0  0  0  0  0
    7.7049  -14.9655   17.8682 C   0  0  0  0  0  0  0  0  0  0  0  0
    7.7124  -13.9127   16.8098 C   0  0  0  0  0  0  0  0  0  0  0  0
    6.9566  -14.4331   15.5784 C   0  0  0  0  0  0  0  0  0  0  0  0
    6.8541  -13.3838   14.5754 N   0  0  0  0  0  0  0  0  0  0  0  0
    8.9206  -15.2761   21.4473 C   0  0  0  0  0  0  0  0  0  0  0  0
   10.0696  -14.7763   21.5041 O   0  0  0  0  0  0  0  0  0  0  0  0
    7.7652  -12.3654   24.8316 C   0  0  0  0  0  0  0  0  0  0  0  0
    6.7518  -13.5141   24.6694 C   0  0  2  0  0  0  0  0  0  0  0  0
    5.6733  -13.2253   25.6835 C   0  0  0  0  0  0  0  0  0  0  0  0
    7.5158  -14.7675   24.8986 C   0  0  0  0  0  0  0  0  0  0  0  0
    8.5879  -15.0923   23.9229 C   0  0  2  0  0  0  0  0  0  0  0  0
    8.1313  -15.4327   22.6153 N   0  0  0  0  0  0  0  0  0  0  0  0
    9.4361  -16.1835   24.5109 C   0  0  0  0  0  0  0  0  0  0  0  0
    9.3860  -17.3767   24.1199 O   0  0  0  0  0  0  0  0  0  0  0  0
   10.3467  -15.8846   25.5584 N   0  0  0  0  0  0  0  0  0  0  0  0
   11.3461  -16.8464   26.0116 C   0  0  1  0  0  0  0  0  0  0  0  0
   12.2565  -16.2621   27.0346 C   0  0  0  0  0  0  0  0  0  0  0  0
   11.5868  -15.6976   28.2190 C   0  0  0  0  0  0  0  0  0  0  0  0
   11.5527  -16.3525   29.4368 C   0  0  0  0  0  0  0  0  0  0  0  0
   10.9448  -15.8342   30.5407 C   0  0  0  0  0  0  0  0  0  0  0  0
   10.3209  -14.6097   30.5019 C   0  0  0  0  0  0  0  0  0  0  0  0
   10.3404  -13.9270   29.2834 C   0  0  0  0  0  0  0  0  0  0  0  0
   10.9597  -14.4648   28.1762 C   0  0  0  0  0  0  0  0  0  0  0  0
   10.6457  -18.0199   26.5568 C   0  0  0  0  0  0  0  0  0  0  0  0
    9.2618  -17.9981   26.6444 O   0  0  0  0  0  0  0  0  0  0  0  0
   11.2553  -19.0599   26.9539 O   0  0  0  0  0  0  0  0  0  0  0  0
  2  1  1  1
  2  3  1  0
  3  4  1  0
  5  4  1  0
  5  6  1  0
  7  6  1  0
  8  9  2  0
  8  2  1  0
 11 10  1  1
 11 13  1  0
 12 11  1  0
 14 13  1  1
 14 16  1  0
 14 15  1  0
 15  8  1  0
 16 18  1  0
 17 16  2  0
 18 19  1  0
 19 20  1  1
 20 21  1  0
 21 26  2  0
 21 22  1  0
 22 23  2  0
 23 24  1  0
 25 24  2  0
 26 25  1  0
 27 19  1  0
 28 27  1  0
 29 27  2  0
M  END
$$$$
