KLF.pdb
     RDKit          3D

 29 29  0  0  1  0  0  0  0  0999 V2000
    7.6485  -18.9189   21.0452 N   0  0  0  0  0  0  0  0  0  0  0  0
    8.7775  -18.4983   20.2352 C   0  0  1  0  0  0  0  0  0  0  0  0
    8.3825  -18.2770   18.8126 C   0  0  0  0  0  0  0  0  0  0  0  0
    8.0765  -19.6049   18.1685 C   0  0  0  0  0  0  0  0  0  0  0  0
    8.5255  -19.6927   16.7475 C   0  0  0  0  0  0  0  0  0  0  0  0
    7.3118  -19.9907   15.8549 C   0  0  0  0  0  0  0  0  0  0  0  0
    7.7115  -20.0002   14.4557 N   0  0  0  0  0  0  0  0  0  0  0  0
    9.4224  -17.2771   20.8265 C   0  0  0  0  0  0  0  0  0  0  0  0
   10.6765  -17.2511   20.8211 O   0  0  0  0  0  0  0  0  0  0  0  0
    8.9677  -13.3012   19.3169 C   0  0  0  0  0  0  0  0  0  0  0  0
    7.8294  -13.6220   20.3038 C   0  0  2  0  0  0  0  0  0  0  0  0
    6.8704  -12.4645   20.1787 C   0  0  0  0  0  0  0  0  0  0  0  0
    8.4727  -13.7689   21.6348 C   0  0  0  0  0  0  0  0  0  0  0  0
    9.2596  -15.0065   21.8711 C   0  0  2  0  0  0  0  0  0  0  0  0
    8.6698  -16.2028   21.3658 N   0  0  0  0  0  0  0  0  0  0  0  0
    9.5344  -15.1082   23.3442 C   0  0  0  0  0  0  0  0  0  0  0  0
   10.2123  -14.2589   23.9753 O   0  0  0  0  0  0  0  0  0  0  0  0
    9.0178  -16.2030   24.0860 N   0  0  0  0  0  0  0  0  0  0  0  0
    9.1824  -16.3029   25.5324 C   0  0  1  0  0  0  0  0  0  0  0  0
    7.8921  -16.1219   26.2528 C   0  0  0  0  0  0  0  0  0  0  0  0
    7.4021  -14.7343   26.3199 C   0  0  0  0  0  0  0  0  0  0  0  0
    6.1487  -14.3654   25.8663 C   0  0  0  0  0  0  0  0  0  0  0  0
    5.6824  -13.0867   25.9334 C   0  0  0  0  0  0  0  0  0  0  0  0
    6.4479  -12.0760   26.4652 C   0  0  0  0  0  0  0  0  0  0  0  0
    7.7188  -12.4217   26.9306 C   0  0  0  0  0  0  0  0  0  0  0  0
    8.1755  -13.7195   26.8558 C   0  0  0  0  0  0  0  0  0  0  0  0
    9.7644  -17.6182   25.8425 C   0  0  0  0  0  0  0  0  0  0  0  0
   10.0031  -18.5103   24.8077 O   0  0  0  0  0  0  0  0  0  0  0  0
   10.0604  -17.9768   27.0234 O   0  0  0  0  0  0  0  0  0  0  0  0
  2  1  1  1
  2  3  1  0
  3  4  1  0
  5  4  1  0
  5  6  1  0
  7  6  1  0
  8  9  2  0
  8  2  1  0
 11 10  1  6
 11 13  1  0
 12 11  1  0
 14 13  1  1
 14 16  1  0
 14 15  1  0
 15  8  1  0
 16 18  1  0
 17 16  2  0
 18 19  1  0
 19 20  1  1
 20 21  1  0
 21 26  2  0
 21 22  1  0
 22 23  2  0
 23 24  1  0
 25 24  2  0
 26 25  1  0
 27 19  1  0
 28 27  1  0
 29 27  2  0
M  END
$$$$
