KLF.pdb
     RDKit          3D

 29 29  0  0  1  0  0  0  0  0999 V2000
    8.8706  -18.9159   20.7738 N   0  0  0  0  0  0  0  0  0  0  0  0
   10.0760  -18.2958   20.2540 C   0  0  1  0  0  0  0  0  0  0  0  0
   10.0705  -18.2467   18.7619 C   0  0  0  0  0  0  0  0  0  0  0  0
   10.7561  -19.4752   18.2209 C   0  0  0  0  0  0  0  0  0  0  0  0
   10.9115  -19.4627   16.7362 C   0  0  0  0  0  0  0  0  0  0  0  0
   11.4056  -20.8404   16.2714 C   0  0  0  0  0  0  0  0  0  0  0  0
   11.3537  -20.9257   14.8196 N   0  0  0  0  0  0  0  0  0  0  0  0
   10.2640  -16.9304   20.8516 C   0  0  0  0  0  0  0  0  0  0  0  0
   11.3920  -16.4043   20.6959 O   0  0  0  0  0  0  0  0  0  0  0  0
    8.8459  -13.2407   19.6224 C   0  0  0  0  0  0  0  0  0  0  0  0
    7.7461  -13.9590   20.4270 C   0  0  2  0  0  0  0  0  0  0  0  0
    6.5082  -13.1213   20.2245 C   0  0  0  0  0  0  0  0  0  0  0  0
    8.2421  -14.0264   21.8257 C   0  0  0  0  0  0  0  0  0  0  0  0
    9.3775  -14.9454   22.0956 C   0  0  2  0  0  0  0  0  0  0  0  0
    9.2332  -16.2580   21.5566 N   0  0  0  0  0  0  0  0  0  0  0  0
    9.6029  -14.9820   23.5801 C   0  0  0  0  0  0  0  0  0  0  0  0
   10.1571  -14.0482   24.2126 O   0  0  0  0  0  0  0  0  0  0  0  0
    9.1812  -16.1101   24.3318 N   0  0  0  0  0  0  0  0  0  0  0  0
    9.3266  -16.1706   25.7824 C   0  0  1  0  0  0  0  0  0  0  0  0
    8.0128  -16.0829   26.4773 C   0  0  0  0  0  0  0  0  0  0  0  0
    7.3704  -14.7579   26.4362 C   0  0  0  0  0  0  0  0  0  0  0  0
    7.9496  -13.6328   26.9947 C   0  0  0  0  0  0  0  0  0  0  0  0
    7.3683  -12.4011   26.9530 C   0  0  0  0  0  0  0  0  0  0  0  0
    6.1518  -12.2076   26.3422 C   0  0  0  0  0  0  0  0  0  0  0  0
    5.5446  -13.3280   25.7702 C   0  0  0  0  0  0  0  0  0  0  0  0
    6.1458  -14.5668   25.8208 C   0  0  0  0  0  0  0  0  0  0  0  0
   10.0079  -17.4282   26.1276 C   0  0  0  0  0  0  0  0  0  0  0  0
   10.3739  -18.2974   25.1106 O   0  0  0  0  0  0  0  0  0  0  0  0
   10.2782  -17.7568   27.3233 O   0  0  0  0  0  0  0  0  0  0  0  0
  2  1  1  1
  2  3  1  0
  3  4  1  0
  5  4  1  0
  5  6  1  0
  7  6  1  0
  8  9  2  0
  8  2  1  0
 11 10  1  6
 11 13  1  0
 12 11  1  0
 14 13  1  1
 14 16  1  0
 14 15  1  0
 15  8  1  0
 16 18  1  0
 17 16  2  0
 18 19  1  0
 19 20  1  1
 20 21  1  0
 21 26  2  0
 21 22  1  0
 22 23  2  0
 23 24  1  0
 25 24  2  0
 26 25  1  0
 27 19  1  0
 28 27  1  0
 29 27  2  0
M  END
$$$$
