KLF.pdb
     RDKit          3D

 29 29  0  0  1  0  0  0  0  0999 V2000
    7.8539  -16.0571   19.5342 N   0  0  0  0  0  0  0  0  0  0  0  0
    8.3042  -17.0979   20.4406 C   0  0  1  0  0  0  0  0  0  0  0  0
    9.2888  -18.0096   19.7865 C   0  0  0  0  0  0  0  0  0  0  0  0
    8.6081  -18.7589   18.6698 C   0  0  0  0  0  0  0  0  0  0  0  0
    9.4761  -19.7937   18.0340 C   0  0  0  0  0  0  0  0  0  0  0  0
    8.6471  -20.5858   17.0123 C   0  0  0  0  0  0  0  0  0  0  0  0
    9.4843  -21.5738   16.3487 N   0  0  0  0  0  0  0  0  0  0  0  0
    8.8603  -16.4944   21.6989 C   0  0  0  0  0  0  0  0  0  0  0  0
   10.0396  -16.0713   21.6403 O   0  0  0  0  0  0  0  0  0  0  0  0
    7.6088  -12.9814   24.4583 C   0  0  0  0  0  0  0  0  0  0  0  0
    6.6702  -14.1931   24.6124 C   0  0  2  0  0  0  0  0  0  0  0  0
    5.6420  -13.7601   25.6274 C   0  0  0  0  0  0  0  0  0  0  0  0
    7.5336  -15.3272   25.0312 C   0  0  0  0  0  0  0  0  0  0  0  0
    8.5873  -15.7611   24.0783 C   0  0  2  0  0  0  0  0  0  0  0  0
    8.1070  -16.4000   22.8969 N   0  0  0  0  0  0  0  0  0  0  0  0
    9.5549  -16.6362   24.8224 C   0  0  0  0  0  0  0  0  0  0  0  0
    9.4571  -17.8885   24.8606 O   0  0  0  0  0  0  0  0  0  0  0  0
   10.6412  -16.0514   25.5249 N   0  0  0  0  0  0  0  0  0  0  0  0
   11.5812  -16.8533   26.3011 C   0  0  1  0  0  0  0  0  0  0  0  0
   12.4184  -16.0130   27.2009 C   0  0  0  0  0  0  0  0  0  0  0  0
   11.6690  -15.0997   28.0808 C   0  0  0  0  0  0  0  0  0  0  0  0
   11.4240  -15.3836   29.4121 C   0  0  0  0  0  0  0  0  0  0  0  0
   10.7409  -14.5408   30.2366 C   0  0  0  0  0  0  0  0  0  0  0  0
   10.2492  -13.3407   29.7802 C   0  0  0  0  0  0  0  0  0  0  0  0
   10.4825  -13.0295   28.4386 C   0  0  0  0  0  0  0  0  0  0  0  0
   11.1754  -13.8926   27.6179 C   0  0  0  0  0  0  0  0  0  0  0  0
   10.8155  -17.8377   27.0820 C   0  0  0  0  0  0  0  0  0  0  0  0
    9.4345  -17.7242   27.1404 O   0  0  0  0  0  0  0  0  0  0  0  0
   11.3656  -18.7938   27.7097 O   0  0  0  0  0  0  0  0  0  0  0  0
  2  1  1  6
  2  3  1  0
  3  4  1  0
  5  4  1  0
  5  6  1  0
  7  6  1  0
  8  9  2  0
  8  2  1  0
 11 10  1  1
 11 13  1  0
 12 11  1  0
 14 13  1  1
 14 16  1  0
 14 15  1  0
 15  8  1  0
 16 18  1  0
 17 16  2  0
 18 19  1  0
 19 20  1  1
 20 21  1  0
 21 26  2  0
 21 22  1  0
 22 23  2  0
 23 24  1  0
 25 24  2  0
 26 25  1  0
 27 19  1  0
 28 27  1  0
 29 27  2  0
M  END
$$$$
