KLF.pdb
     RDKit          3D

 29 29  0  0  1  0  0  0  0  0999 V2000
    6.0076  -15.9697   20.1920 N   0  0  0  0  0  0  0  0  0  0  0  0
    7.3732  -16.4542   20.2809 C   0  0  1  0  0  0  0  0  0  0  0  0
    8.1154  -16.2468   19.0024 C   0  0  0  0  0  0  0  0  0  0  0  0
    8.7511  -17.5463   18.5793 C   0  0  0  0  0  0  0  0  0  0  0  0
    9.5649  -17.4308   17.3330 C   0  0  0  0  0  0  0  0  0  0  0  0
   10.1502  -18.8076   16.9860 C   0  0  0  0  0  0  0  0  0  0  0  0
   10.9076  -18.7298   15.7459 N   0  0  0  0  0  0  0  0  0  0  0  0
    8.0824  -15.8167   21.4418 C   0  0  0  0  0  0  0  0  0  0  0  0
    9.1702  -15.2471   21.1858 O   0  0  0  0  0  0  0  0  0  0  0  0
    7.7392  -12.4632   24.5300 C   0  0  0  0  0  0  0  0  0  0  0  0
    6.6646  -13.5510   24.7163 C   0  0  2  0  0  0  0  0  0  0  0  0
    5.8057  -13.0565   25.8533 C   0  0  0  0  0  0  0  0  0  0  0  0
    7.4028  -14.8121   24.9837 C   0  0  0  0  0  0  0  0  0  0  0  0
    8.2655  -15.3335   23.8926 C   0  0  2  0  0  0  0  0  0  0  0  0
    7.5645  -15.8475   22.7618 N   0  0  0  0  0  0  0  0  0  0  0  0
    9.1890  -16.3614   24.4813 C   0  0  0  0  0  0  0  0  0  0  0  0
    9.0603  -17.5948   24.2784 O   0  0  0  0  0  0  0  0  0  0  0  0
   10.2669  -15.9519   25.3096 N   0  0  0  0  0  0  0  0  0  0  0  0
   11.2151  -16.9073   25.8727 C   0  0  1  0  0  0  0  0  0  0  0  0
   12.2433  -16.2387   26.7169 C   0  0  0  0  0  0  0  0  0  0  0  0
   11.7142  -15.4750   27.8602 C   0  0  0  0  0  0  0  0  0  0  0  0
   11.1797  -14.2067   27.7239 C   0  0  0  0  0  0  0  0  0  0  0  0
   10.6785  -13.4964   28.7733 C   0  0  0  0  0  0  0  0  0  0  0  0
   10.6780  -14.0125   30.0476 C   0  0  0  0  0  0  0  0  0  0  0  0
   11.2128  -15.2923   30.2132 C   0  0  0  0  0  0  0  0  0  0  0  0
   11.7155  -15.9976   29.1415 C   0  0  0  0  0  0  0  0  0  0  0  0
   10.4635  -17.8947   26.6633 C   0  0  0  0  0  0  0  0  0  0  0  0
   11.0998  -19.0584   27.0689 O   0  0  0  0  0  0  0  0  0  0  0  0
    9.2493  -17.7289   26.9936 O   0  0  0  0  0  0  0  0  0  0  0  0
  2  1  1  6
  2  3  1  0
  3  4  1  0
  5  4  1  0
  5  6  1  0
  7  6  1  0
  8  9  2  0
  8  2  1  0
 11 10  1  1
 11 13  1  0
 12 11  1  0
 14 13  1  1
 14 16  1  0
 14 15  1  0
 15  8  1  0
 16 18  1  0
 17 16  2  0
 18 19  1  0
 19 20  1  1
 20 21  1  0
 21 26  2  0
 21 22  1  0
 22 23  2  0
 23 24  1  0
 25 24  2  0
 26 25  1  0
 27 19  1  0
 28 27  1  0
 29 27  2  0
M  END
$$$$
