KLF.pdb
     RDKit          3D

 29 29  0  0  1  0  0  0  0  0999 V2000
    9.9988  -18.5936   17.4784 N   0  0  0  0  0  0  0  0  0  0  0  0
    9.1545  -18.5941   18.6594 C   0  0  1  0  0  0  0  0  0  0  0  0
    9.1085  -19.9405   19.3028 C   0  0  0  0  0  0  0  0  0  0  0  0
    8.5165  -20.9342   18.3363 C   0  0  0  0  0  0  0  0  0  0  0  0
    8.3922  -22.3102   18.9018 C   0  0  0  0  0  0  0  0  0  0  0  0
    7.8618  -23.2545   17.8130 C   0  0  0  0  0  0  0  0  0  0  0  0
    7.9348  -24.6341   18.2700 N   0  0  0  0  0  0  0  0  0  0  0  0
    9.6019  -17.5344   19.6256 C   0  0  0  0  0  0  0  0  0  0  0  0
   10.8396  -17.4192   19.7929 O   0  0  0  0  0  0  0  0  0  0  0  0
    8.9799  -12.9908   19.9492 C   0  0  0  0  0  0  0  0  0  0  0  0
    7.7403  -13.8277   20.3179 C   0  0  2  0  0  0  0  0  0  0  0  0
    6.6454  -12.8167   20.5502 C   0  0  0  0  0  0  0  0  0  0  0  0
    8.1269  -14.6260   21.5096 C   0  0  0  0  0  0  0  0  0  0  0  0
    9.0874  -15.7386   21.2941 C   0  0  2  0  0  0  0  0  0  0  0  0
    8.6883  -16.7005   20.3195 N   0  0  0  0  0  0  0  0  0  0  0  0
    9.3586  -16.3824   22.6237 C   0  0  0  0  0  0  0  0  0  0  0  0
    8.6094  -17.2565   23.1276 O   0  0  0  0  0  0  0  0  0  0  0  0
   10.5067  -16.0075   23.3698 N   0  0  0  0  0  0  0  0  0  0  0  0
   10.4903  -15.9303   24.8269 C   0  0  1  0  0  0  0  0  0  0  0  0
    9.9391  -14.6339   25.3090 C   0  0  0  0  0  0  0  0  0  0  0  0
    9.8025  -14.5171   26.7711 C   0  0  0  0  0  0  0  0  0  0  0  0
   10.8625  -14.7209   27.6358 C   0  0  0  0  0  0  0  0  0  0  0  0
   10.7487  -14.6052   28.9888 C   0  0  0  0  0  0  0  0  0  0  0  0
    9.5513  -14.2737   29.5774 C   0  0  0  0  0  0  0  0  0  0  0  0
    8.4639  -14.0626   28.7264 C   0  0  0  0  0  0  0  0  0  0  0  0
    8.5956  -14.1834   27.3601 C   0  0  0  0  0  0  0  0  0  0  0  0
    9.6898  -17.0526   25.3412 C   0  0  0  0  0  0  0  0  0  0  0  0
    8.4020  -17.2375   24.8607 O   0  0  0  0  0  0  0  0  0  0  0  0
   10.1276  -17.8659   26.2116 O   0  0  0  0  0  0  0  0  0  0  0  0
  2  1  1  6
  2  3  1  0
  3  4  1  0
  5  4  1  0
  5  6  1  0
  7  6  1  0
  8  9  2  0
  8  2  1  0
 11 10  1  1
 11 13  1  0
 12 11  1  0
 14 13  1  1
 14 16  1  0
 14 15  1  0
 15  8  1  0
 16 18  1  0
 17 16  2  0
 18 19  1  0
 19 20  1  6
 20 21  1  0
 21 26  2  0
 21 22  1  0
 22 23  2  0
 23 24  1  0
 25 24  2  0
 26 25  1  0
 27 19  1  0
 28 27  1  0
 29 27  2  0
M  END
$$$$
