KLF.pdb
     RDKit          3D

 29 29  0  0  1  0  0  0  0  0999 V2000
    7.4703  -18.9280   20.8556 N   0  0  0  0  0  0  0  0  0  0  0  0
    8.9055  -18.9673   20.6406 C   0  0  1  0  0  0  0  0  0  0  0  0
    9.2419  -19.3510   19.2376 C   0  0  0  0  0  0  0  0  0  0  0  0
    8.3379  -20.4742   18.7983 C   0  0  0  0  0  0  0  0  0  0  0  0
    7.6196  -20.1926   17.5203 C   0  0  0  0  0  0  0  0  0  0  0  0
    6.7488  -21.4041   17.1561 C   0  0  0  0  0  0  0  0  0  0  0  0
    5.9986  -21.1318   15.9394 N   0  0  0  0  0  0  0  0  0  0  0  0
    9.5298  -17.6545   21.0198 C   0  0  0  0  0  0  0  0  0  0  0  0
   10.7634  -17.5458   20.8209 O   0  0  0  0  0  0  0  0  0  0  0  0
    8.9042  -13.5132   19.4289 C   0  0  0  0  0  0  0  0  0  0  0  0
    7.7756  -13.9859   20.3646 C   0  0  2  0  0  0  0  0  0  0  0  0
    6.7269  -12.9049   20.2836 C   0  0  0  0  0  0  0  0  0  0  0  0
    8.4003  -14.1617   21.7009 C   0  0  0  0  0  0  0  0  0  0  0  0
    9.3357  -15.3043   21.8635 C   0  0  2  0  0  0  0  0  0  0  0  0
    8.7801  -16.5855   21.5736 N   0  0  0  0  0  0  0  0  0  0  0  0
    9.8974  -15.2503   23.2555 C   0  0  0  0  0  0  0  0  0  0  0  0
   10.8399  -14.4874   23.5854 O   0  0  0  0  0  0  0  0  0  0  0  0
    9.3596  -16.0878   24.2680 N   0  0  0  0  0  0  0  0  0  0  0  0
    9.9707  -16.1938   25.5887 C   0  0  1  0  0  0  0  0  0  0  0  0
   10.0329  -14.8766   26.2801 C   0  0  0  0  0  0  0  0  0  0  0  0
    8.7629  -14.1313   26.3221 C   0  0  0  0  0  0  0  0  0  0  0  0
    7.5846  -14.6401   25.8068 C   0  0  0  0  0  0  0  0  0  0  0  0
    6.4028  -13.9630   25.8499 C   0  0  0  0  0  0  0  0  0  0  0  0
    6.3175  -12.7141   26.4185 C   0  0  0  0  0  0  0  0  0  0  0  0
    7.4938  -12.1766   26.9464 C   0  0  0  0  0  0  0  0  0  0  0  0
    8.6808  -12.8743   26.8950 C   0  0  0  0  0  0  0  0  0  0  0  0
    9.1913  -17.1556   26.3839 C   0  0  0  0  0  0  0  0  0  0  0  0
    8.1649  -17.8601   25.7725 O   0  0  0  0  0  0  0  0  0  0  0  0
    9.4172  -17.3719   27.6139 O   0  0  0  0  0  0  0  0  0  0  0  0
  2  1  1  6
  2  3  1  0
  3  4  1  0
  5  4  1  0
  5  6  1  0
  7  6  1  0
  8  9  2  0
  8  2  1  0
 11 10  1  6
 11 13  1  0
 12 11  1  0
 14 13  1  1
 14 16  1  0
 14 15  1  0
 15  8  1  0
 16 18  1  0
 17 16  2  0
 18 19  1  0
 19 20  1  1
 20 21  1  0
 21 26  2  0
 21 22  1  0
 22 23  2  0
 23 24  1  0
 25 24  2  0
 26 25  1  0
 27 19  1  0
 28 27  1  0
 29 27  2  0
M  END
$$$$
