VNS.pdb
     RDKit          3D

 22 21  0  0  1  0  0  0  0  0999 V2000
   25.0292  -19.7494  -20.3387 C   0  0  0  0  0  0  0  0  0  0  0  0
   25.6763  -18.3888  -20.2003 C   0  0  2  0  0  0  0  0  0  0  0  0
   27.1572  -18.5628  -20.4612 C   0  0  0  0  0  0  0  0  0  0  0  0
   25.4088  -17.8564  -18.8186 C   0  0  2  0  0  0  0  0  0  0  0  0
   26.2266  -18.5900  -17.8924 N   0  0  0  0  0  0  0  0  0  0  0  0
   23.9677  -17.9066  -18.4654 C   0  0  0  0  0  0  0  0  0  0  0  0
   23.1276  -17.3805  -19.2432 O   0  0  0  0  0  0  0  0  0  0  0  0
   19.1694  -20.4771  -17.1685 N   0  0  0  0  0  0  0  0  0  0  0  0
   20.0983  -19.9452  -16.2410 C   0  0  0  0  0  0  0  0  0  0  0  0
   19.7116  -19.5095  -15.1322 O   0  0  0  0  0  0  0  0  0  0  0  0
   21.5345  -19.8982  -16.5713 C   0  0  0  0  0  0  0  0  0  0  0  0
   22.0753  -18.5617  -16.8904 C   0  0  2  0  0  0  0  0  0  0  0  0
   23.4703  -18.5210  -17.2860 N   0  0  0  0  0  0  0  0  0  0  0  0
   21.6578  -17.4049  -16.1136 C   0  0  0  0  0  0  0  0  0  0  0  0
   22.5289  -16.9668  -15.2560 O   0  0  0  0  0  0  0  0  0  0  0  0
   21.6079  -13.4387  -17.3347 O   0  0  0  0  0  0  0  0  0  0  0  0
   21.7201  -14.7763  -17.0270 C   0  0  0  0  0  0  0  0  0  0  0  0
   20.4034  -15.2414  -16.4444 C   0  0  2  0  0  0  0  0  0  0  0  0
   20.4638  -16.6815  -16.1320 N   0  0  0  0  0  0  0  0  0  0  0  0
   19.2567  -14.9390  -17.2993 C   0  0  0  0  0  0  0  0  0  0  0  0
   18.8327  -15.7191  -18.3724 O   0  0  0  0  0  0  0  0  0  0  0  0
   18.5772  -13.9015  -17.0773 O   0  0  0  0  0  0  0  0  0  0  0  0
  2  1  1  1
  2  3  1  0
  2  4  1  0
  4  6  1  0
  4  5  1  1
  6 13  1  0
  6  7  2  0
  8  9  1  0
  9 11  1  0
 10  9  2  0
 12 11  1  1
 12 14  1  0
 13 12  1  0
 14 15  2  0
 14 19  1  0
 16 17  1  0
 18 17  1  6
 18 20  1  0
 19 18  1  0
 20 21  1  0
 22 20  2  0
M  END
$$$$
