VNS.pdb
     RDKit          3D

 22 21  0  0  1  0  0  0  0  0999 V2000
   14.1438  -11.6516  -12.1980 C   0  0  0  0  0  0  0  0  0  0  0  0
   15.2378  -11.6967  -11.1536 C   0  0  2  0  0  0  0  0  0  0  0  0
   14.5684  -11.6881   -9.7959 C   0  0  0  0  0  0  0  0  0  0  0  0
   16.1436  -10.5098  -11.3402 C   0  0  2  0  0  0  0  0  0  0  0  0
   17.3619  -10.7617  -10.6211 N   0  0  0  0  0  0  0  0  0  0  0  0
   15.4964   -9.2380  -10.9306 C   0  0  0  0  0  0  0  0  0  0  0  0
   14.4027   -8.9083  -11.4622 O   0  0  0  0  0  0  0  0  0  0  0  0
   14.5224   -4.5313   -8.7872 N   0  0  0  0  0  0  0  0  0  0  0  0
   14.6236   -5.5532   -7.8117 C   0  0  0  0  0  0  0  0  0  0  0  0
   14.2793   -5.3378   -6.6269 O   0  0  0  0  0  0  0  0  0  0  0  0
   15.1367   -6.8852   -8.1810 C   0  0  0  0  0  0  0  0  0  0  0  0
   15.4918   -7.0635   -9.6032 C   0  0  2  0  0  0  0  0  0  0  0  0
   16.0430   -8.3567   -9.9610 N   0  0  0  0  0  0  0  0  0  0  0  0
   16.0704   -5.9583  -10.3512 C   0  0  0  0  0  0  0  0  0  0  0  0
   17.3204   -5.7110  -10.1008 O   0  0  0  0  0  0  0  0  0  0  0  0
   15.9279   -5.0861  -14.0644 O   0  0  0  0  0  0  0  0  0  0  0  0
   15.7665   -3.8859  -13.4089 C   0  0  0  0  0  0  0  0  0  0  0  0
   16.2640   -4.0497  -11.9894 C   0  0  2  0  0  0  0  0  0  0  0  0
   15.5009   -5.1068  -11.2999 N   0  0  0  0  0  0  0  0  0  0  0  0
   16.2415   -2.8043  -11.2241 C   0  0  0  0  0  0  0  0  0  0  0  0
   16.9886   -1.6681  -11.5252 O   0  0  0  0  0  0  0  0  0  0  0  0
   15.5011   -2.7166  -10.2083 O   0  0  0  0  0  0  0  0  0  0  0  0
  2  1  1  6
  2  3  1  0
  2  4  1  0
  4  6  1  0
  4  5  1  1
  6 13  1  0
  6  7  2  0
  8  9  1  0
  9 11  1  0
 10  9  2  0
 12 11  1  1
 12 14  1  0
 13 12  1  0
 14 15  2  0
 14 19  1  0
 16 17  1  0
 18 17  1  6
 18 20  1  0
 19 18  1  0
 20 21  1  0
 22 20  2  0
M  END
$$$$
