VNS.pdb
     RDKit          3D

 22 21  0  0  1  0  0  0  0  0999 V2000
   18.5635  -11.4730  -20.1991 C   0  0  0  0  0  0  0  0  0  0  0  0
   19.7068  -11.7538  -19.2486 C   0  0  2  0  0  0  0  0  0  0  0  0
   19.1056  -12.0425  -17.8897 C   0  0  0  0  0  0  0  0  0  0  0  0
   20.6217  -10.5598  -19.2152 C   0  0  2  0  0  0  0  0  0  0  0  0
   21.8289  -10.9423  -18.5360 N   0  0  0  0  0  0  0  0  0  0  0  0
   19.9763   -9.3733  -18.5990 C   0  0  0  0  0  0  0  0  0  0  0  0
   18.9258   -8.9091  -19.1171 O   0  0  0  0  0  0  0  0  0  0  0  0
   22.1421   -7.1781  -15.1693 N   0  0  0  0  0  0  0  0  0  0  0  0
   20.9061   -7.4304  -14.5253 C   0  0  0  0  0  0  0  0  0  0  0  0
   20.8280   -7.4276  -13.2753 O   0  0  0  0  0  0  0  0  0  0  0  0
   19.6947   -7.6999  -15.3213 C   0  0  0  0  0  0  0  0  0  0  0  0
   19.8518   -7.5884  -16.7853 C   0  0  2  0  0  0  0  0  0  0  0  0
   20.4782   -8.7194  -17.4431 N   0  0  0  0  0  0  0  0  0  0  0  0
   20.1920   -6.3069  -17.3836 C   0  0  0  0  0  0  0  0  0  0  0  0
   21.4594   -6.1044  -17.5816 O   0  0  0  0  0  0  0  0  0  0  0  0
   18.7634   -4.5429  -20.4103 O   0  0  0  0  0  0  0  0  0  0  0  0
   18.9381   -3.5383  -19.4848 C   0  0  0  0  0  0  0  0  0  0  0  0
   19.9036   -4.0289  -18.4282 C   0  0  2  0  0  0  0  0  0  0  0  0
   19.3772   -5.2450  -17.7809 N   0  0  0  0  0  0  0  0  0  0  0  0
   20.2365   -3.0095  -17.4346 C   0  0  0  0  0  0  0  0  0  0  0  0
   20.1174   -3.1688  -16.0560 O   0  0  0  0  0  0  0  0  0  0  0  0
   20.6669   -1.8894  -17.8189 O   0  0  0  0  0  0  0  0  0  0  0  0
  2  1  1  6
  2  3  1  0
  2  4  1  0
  4  6  1  0
  4  5  1  1
  6 13  1  0
  6  7  2  0
  8  9  1  0
  9 11  1  0
 10  9  2  0
 12 11  1  1
 12 14  1  0
 13 12  1  0
 14 15  2  0
 14 19  1  0
 16 17  1  0
 18 17  1  6
 18 20  1  0
 19 18  1  0
 20 21  1  0
 22 20  2  0
M  END
$$$$
