VNS.pdb
     RDKit          3D

 22 21  0  0  1  0  0  0  0  0999 V2000
   27.8180  -33.4902   -3.3274 C   0  0  0  0  0  0  0  0  0  0  0  0
   26.6390  -34.4269   -3.1790 C   0  0  2  0  0  0  0  0  0  0  0  0
   26.2967  -34.9464   -4.5591 C   0  0  0  0  0  0  0  0  0  0  0  0
   25.4905  -33.6763   -2.5613 C   0  0  2  0  0  0  0  0  0  0  0  0
   25.0396  -32.6939   -3.5081 N   0  0  0  0  0  0  0  0  0  0  0  0
   25.8492  -33.0778   -1.2508 C   0  0  0  0  0  0  0  0  0  0  0  0
   26.3505  -31.9223   -1.2218 O   0  0  0  0  0  0  0  0  0  0  0  0
   25.4944  -30.5602    3.3920 N   0  0  0  0  0  0  0  0  0  0  0  0
   25.2478  -31.9536    3.3283 C   0  0  0  0  0  0  0  0  0  0  0  0
   25.3362  -32.6628    4.3568 O   0  0  0  0  0  0  0  0  0  0  0  0
   24.8835  -32.5861    2.0472 C   0  0  0  0  0  0  0  0  0  0  0  0
   25.9988  -33.1888    1.2900 C   0  0  2  0  0  0  0  0  0  0  0  0
   25.6586  -33.7383   -0.0086 N   0  0  0  0  0  0  0  0  0  0  0  0
   27.0268  -33.9439    1.9892 C   0  0  0  0  0  0  0  0  0  0  0  0
   27.0203  -35.2244    1.7732 O   0  0  0  0  0  0  0  0  0  0  0  0
   30.7436  -32.8885    3.2952 O   0  0  0  0  0  0  0  0  0  0  0  0
   30.0706  -33.6647    4.2123 C   0  0  0  0  0  0  0  0  0  0  0  0
   28.9995  -34.4432    3.4801 C   0  0  2  0  0  0  0  0  0  0  0  0
   28.0271  -33.5199    2.8660 N   0  0  0  0  0  0  0  0  0  0  0  0
   28.3250  -35.4280    4.3241 C   0  0  0  0  0  0  0  0  0  0  0  0
   28.8505  -36.6673    4.6817 O   0  0  0  0  0  0  0  0  0  0  0  0
   27.1794  -35.1693    4.7805 O   0  0  0  0  0  0  0  0  0  0  0  0
  2  1  1  6
  2  3  1  0
  2  4  1  0
  4  6  1  0
  4  5  1  6
  6 13  1  0
  6  7  2  0
  8  9  1  0
  9 11  1  0
 10  9  2  0
 12 11  1  1
 12 14  1  0
 13 12  1  0
 14 15  2  0
 14 19  1  0
 16 17  1  0
 18 17  1  1
 18 20  1  0
 19 18  1  0
 20 21  1  0
 22 20  2  0
M  END
$$$$
