VNS.pdb
     RDKit          3D

 22 21  0  0  1  0  0  0  0  0999 V2000
   22.2984  -12.9003  -19.2870 C   0  0  0  0  0  0  0  0  0  0  0  0
   21.4290  -13.5740  -18.2479 C   0  0  2  0  0  0  0  0  0  0  0  0
   20.2936  -14.2563  -18.9807 C   0  0  0  0  0  0  0  0  0  0  0  0
   20.9288  -12.5369  -17.2794 C   0  0  2  0  0  0  0  0  0  0  0  0
   19.6741  -12.0373  -17.7702 N   0  0  0  0  0  0  0  0  0  0  0  0
   21.9197  -11.4551  -17.0517 C   0  0  0  0  0  0  0  0  0  0  0  0
   23.0192  -11.7367  -16.5047 O   0  0  0  0  0  0  0  0  0  0  0  0
   23.9188   -6.5466  -19.1782 N   0  0  0  0  0  0  0  0  0  0  0  0
   23.4123   -7.8687  -19.2225 C   0  0  0  0  0  0  0  0  0  0  0  0
   22.7171   -8.2513  -20.1914 O   0  0  0  0  0  0  0  0  0  0  0  0
   23.6986   -8.8114  -18.1255 C   0  0  0  0  0  0  0  0  0  0  0  0
   22.6105   -9.0047  -17.1462 C   0  0  2  0  0  0  0  0  0  0  0  0
   21.7007  -10.1012  -17.4186 N   0  0  0  0  0  0  0  0  0  0  0  0
   21.9644   -7.8503  -16.5413 C   0  0  0  0  0  0  0  0  0  0  0  0
   21.0201   -7.3073  -17.2484 O   0  0  0  0  0  0  0  0  0  0  0  0
   20.9435   -7.1966  -12.8181 O   0  0  0  0  0  0  0  0  0  0  0  0
   20.3184   -6.5754  -13.8763 C   0  0  0  0  0  0  0  0  0  0  0  0
   21.3817   -6.0860  -14.8350 C   0  0  2  0  0  0  0  0  0  0  0  0
   22.1940   -7.2185  -15.3177 N   0  0  0  0  0  0  0  0  0  0  0  0
   22.2293   -5.0381  -14.2687 C   0  0  0  0  0  0  0  0  0  0  0  0
   23.6042   -5.1420  -14.0719 O   0  0  0  0  0  0  0  0  0  0  0  0
   21.7098   -3.9440  -13.9209 O   0  0  0  0  0  0  0  0  0  0  0  0
  2  1  1  6
  2  3  1  0
  2  4  1  0
  4  6  1  0
  4  5  1  6
  6 13  1  0
  6  7  2  0
  8  9  1  0
  9 11  1  0
 10  9  2  0
 12 11  1  6
 12 14  1  0
 13 12  1  0
 14 15  2  0
 14 19  1  0
 16 17  1  0
 18 17  1  1
 18 20  1  0
 19 18  1  0
 20 21  1  0
 22 20  2  0
M  END
$$$$
