VNS.pdb
     RDKit          3D

 22 21  0  0  1  0  0  0  0  0999 V2000
   18.2877  -12.2872  -18.2647 C   0  0  0  0  0  0  0  0  0  0  0  0
   19.5881  -12.7847  -17.6726 C   0  0  2  0  0  0  0  0  0  0  0  0
   19.3716  -14.2210  -17.2463 C   0  0  0  0  0  0  0  0  0  0  0  0
   19.9668  -11.9059  -16.5115 C   0  0  2  0  0  0  0  0  0  0  0  0
   19.1013  -12.2256  -15.4099 N   0  0  0  0  0  0  0  0  0  0  0  0
   19.9294  -10.4637  -16.8616 C   0  0  0  0  0  0  0  0  0  0  0  0
   20.6466  -10.0444  -17.8088 O   0  0  0  0  0  0  0  0  0  0  0  0
   17.3842   -7.5889  -19.3393 N   0  0  0  0  0  0  0  0  0  0  0  0
   17.1451   -8.1519  -18.0618 C   0  0  0  0  0  0  0  0  0  0  0  0
   16.4132   -9.1607  -17.9381 O   0  0  0  0  0  0  0  0  0  0  0  0
   17.7566   -7.5551  -16.8603 C   0  0  0  0  0  0  0  0  0  0  0  0
   19.0777   -8.0933  -16.4788 C   0  0  2  0  0  0  0  0  0  0  0  0
   19.1220   -9.5128  -16.1836 N   0  0  0  0  0  0  0  0  0  0  0  0
   19.9739   -7.2998  -15.6524 C   0  0  0  0  0  0  0  0  0  0  0  0
   19.8727   -7.4980  -14.3730 O   0  0  0  0  0  0  0  0  0  0  0  0
   23.9279   -4.6960  -14.7565 O   0  0  0  0  0  0  0  0  0  0  0  0
   23.0886   -5.2201  -15.7142 C   0  0  0  0  0  0  0  0  0  0  0  0
   21.8353   -5.7161  -15.0268 C   0  0  2  0  0  0  0  0  0  0  0  0
   20.9317   -6.3477  -16.0066 N   0  0  0  0  0  0  0  0  0  0  0  0
   21.1420   -4.6740  -14.2715 C   0  0  0  0  0  0  0  0  0  0  0  0
   21.4047   -4.3399  -12.9452 O   0  0  0  0  0  0  0  0  0  0  0  0
   20.2314   -4.0071  -14.8317 O   0  0  0  0  0  0  0  0  0  0  0  0
  2  1  1  1
  2  3  1  0
  2  4  1  0
  4  6  1  0
  4  5  1  1
  6 13  1  0
  6  7  2  0
  8  9  1  0
  9 11  1  0
 10  9  2  0
 12 11  1  1
 12 14  1  0
 13 12  1  0
 14 15  2  0
 14 19  1  0
 16 17  1  0
 18 17  1  6
 18 20  1  0
 19 18  1  0
 20 21  1  0
 22 20  2  0
M  END
$$$$
