VNS.pdb
     RDKit          3D

 22 21  0  0  1  0  0  0  0  0999 V2000
   17.1858  -11.3234  -13.9851 C   0  0  0  0  0  0  0  0  0  0  0  0
   17.0022  -10.8561  -15.4125 C   0  0  2  0  0  0  0  0  0  0  0  0
   16.8868  -12.0900  -16.2817 C   0  0  0  0  0  0  0  0  0  0  0  0
   18.1772  -10.0018  -15.8042 C   0  0  2  0  0  0  0  0  0  0  0  0
   19.3307  -10.8522  -15.9105 N   0  0  0  0  0  0  0  0  0  0  0  0
   18.3903   -8.8725  -14.8643 C   0  0  0  0  0  0  0  0  0  0  0  0
   17.4479   -8.0626  -14.6562 O   0  0  0  0  0  0  0  0  0  0  0  0
   20.0494   -6.5034   -9.9456 N   0  0  0  0  0  0  0  0  0  0  0  0
   20.8144   -6.7229  -11.1172 C   0  0  0  0  0  0  0  0  0  0  0  0
   21.7541   -5.9511  -11.4171 O   0  0  0  0  0  0  0  0  0  0  0  0
   20.5122   -7.8652  -11.9991 C   0  0  0  0  0  0  0  0  0  0  0  0
   19.8727   -7.5290  -13.2869 C   0  0  2  0  0  0  0  0  0  0  0  0
   19.6103   -8.6460  -14.1744 N   0  0  0  0  0  0  0  0  0  0  0  0
   20.2429   -6.3074  -13.9844 C   0  0  0  0  0  0  0  0  0  0  0  0
   21.1486   -6.4449  -14.9049 O   0  0  0  0  0  0  0  0  0  0  0  0
   19.4049   -1.9525  -15.7891 O   0  0  0  0  0  0  0  0  0  0  0  0
   18.9894   -2.9878  -14.9817 C   0  0  0  0  0  0  0  0  0  0  0  0
   20.1711   -3.8994  -14.7328 C   0  0  2  0  0  0  0  0  0  0  0  0
   19.7868   -4.9973  -13.8262 N   0  0  0  0  0  0  0  0  0  0  0  0
   21.3475   -3.1925  -14.2292 C   0  0  0  0  0  0  0  0  0  0  0  0
   22.2581   -2.4937  -15.0182 O   0  0  0  0  0  0  0  0  0  0  0  0
   21.5869   -3.1946  -12.9922 O   0  0  0  0  0  0  0  0  0  0  0  0
  2  1  1  1
  2  3  1  0
  2  4  1  0
  4  6  1  0
  4  5  1  1
  6 13  1  0
  6  7  2  0
  8  9  1  0
  9 11  1  0
 10  9  2  0
 12 11  1  1
 12 14  1  0
 13 12  1  0
 14 15  2  0
 14 19  1  0
 16 17  1  0
 18 17  1  1
 18 20  1  0
 19 18  1  0
 20 21  1  0
 22 20  2  0
M  END
$$$$
