VNS.pdb
     RDKit          3D

 22 21  0  0  1  0  0  0  0  0999 V2000
   27.8215  -21.6264  -15.4668 C   0  0  0  0  0  0  0  0  0  0  0  0
   27.9336  -20.3829  -14.6121 C   0  0  2  0  0  0  0  0  0  0  0  0
   28.2231  -20.8315  -13.1956 C   0  0  0  0  0  0  0  0  0  0  0  0
   26.6476  -19.6072  -14.7032 C   0  0  2  0  0  0  0  0  0  0  0  0
   26.8571  -18.3238  -14.0918 N   0  0  0  0  0  0  0  0  0  0  0  0
   25.5043  -20.3406  -14.1040 C   0  0  0  0  0  0  0  0  0  0  0  0
   25.0890  -21.3903  -14.6635 O   0  0  0  0  0  0  0  0  0  0  0  0
   26.2072  -21.4661  -10.8819 N   0  0  0  0  0  0  0  0  0  0  0  0
   25.1214  -20.7715  -10.2948 C   0  0  0  0  0  0  0  0  0  0  0  0
   25.2929  -20.0734   -9.2691 O   0  0  0  0  0  0  0  0  0  0  0  0
   23.7738  -20.8629  -10.8859 C   0  0  0  0  0  0  0  0  0  0  0  0
   23.6887  -20.5844  -12.3335 C   0  0  2  0  0  0  0  0  0  0  0  0
   24.8397  -19.9249  -12.9203 N   0  0  0  0  0  0  0  0  0  0  0  0
   22.4225  -20.1751  -12.9210 C   0  0  0  0  0  0  0  0  0  0  0  0
   22.1498  -18.9089  -12.8285 O   0  0  0  0  0  0  0  0  0  0  0  0
   19.4002  -22.5144  -14.4251 O   0  0  0  0  0  0  0  0  0  0  0  0
   19.5050  -21.2835  -15.0335 C   0  0  0  0  0  0  0  0  0  0  0  0
   20.1821  -20.3338  -14.0697 C   0  0  2  0  0  0  0  0  0  0  0  0
   21.4386  -20.9231  -13.5705 N   0  0  0  0  0  0  0  0  0  0  0  0
   19.3196  -19.9252  -12.9624 C   0  0  0  0  0  0  0  0  0  0  0  0
   18.1775  -19.1379  -13.0879 O   0  0  0  0  0  0  0  0  0  0  0  0
   19.6007  -20.2954  -11.7912 O   0  0  0  0  0  0  0  0  0  0  0  0
  2  1  1  6
  2  3  1  0
  2  4  1  0
  4  6  1  0
  4  5  1  1
  6 13  1  0
  6  7  2  0
  8  9  1  0
  9 11  1  0
 10  9  2  0
 12 11  1  1
 12 14  1  0
 13 12  1  0
 14 15  2  0
 14 19  1  0
 16 17  1  0
 18 17  1  1
 18 20  1  0
 19 18  1  0
 20 21  1  0
 22 20  2  0
M  END
$$$$
