VNS.pdb
     RDKit          3D

 22 21  0  0  1  0  0  0  0  0999 V2000
   15.7710  -11.2395  -14.8484 C   0  0  0  0  0  0  0  0  0  0  0  0
   14.5647  -11.2622  -13.9352 C   0  0  2  0  0  0  0  0  0  0  0  0
   13.5886  -10.2252  -14.4484 C   0  0  0  0  0  0  0  0  0  0  0  0
   15.0087  -10.9669  -12.5282 C   0  0  2  0  0  0  0  0  0  0  0  0
   14.0483  -11.5429  -11.6278 N   0  0  0  0  0  0  0  0  0  0  0  0
   15.2059   -9.5144  -12.2933 C   0  0  0  0  0  0  0  0  0  0  0  0
   14.4510   -8.6915  -12.8768 O   0  0  0  0  0  0  0  0  0  0  0  0
   14.5798   -7.1902   -8.6049 N   0  0  0  0  0  0  0  0  0  0  0  0
   15.8734   -7.7368   -8.7895 C   0  0  0  0  0  0  0  0  0  0  0  0
   16.2690   -8.6888   -8.0784 O   0  0  0  0  0  0  0  0  0  0  0  0
   16.7709   -7.1894   -9.8233 C   0  0  0  0  0  0  0  0  0  0  0  0
   16.4580   -7.5760  -11.2136 C   0  0  2  0  0  0  0  0  0  0  0  0
   16.2088   -8.9874  -11.4377 N   0  0  0  0  0  0  0  0  0  0  0  0
   17.1412   -6.9239  -12.3199 C   0  0  0  0  0  0  0  0  0  0  0  0
   17.9488   -7.6809  -12.9989 O   0  0  0  0  0  0  0  0  0  0  0  0
   17.8664   -5.4823  -16.3280 O   0  0  0  0  0  0  0  0  0  0  0  0
   17.3393   -6.0256  -15.1777 C   0  0  0  0  0  0  0  0  0  0  0  0
   17.7452   -5.1520  -14.0109 C   0  0  2  0  0  0  0  0  0  0  0  0
   17.0775   -5.6061  -12.7767 N   0  0  0  0  0  0  0  0  0  0  0  0
   17.5016   -3.7296  -14.2445 C   0  0  0  0  0  0  0  0  0  0  0  0
   18.3895   -2.8597  -14.8729 O   0  0  0  0  0  0  0  0  0  0  0  0
   16.4159   -3.2176  -13.8613 O   0  0  0  0  0  0  0  0  0  0  0  0
  2  1  1  6
  2  3  1  0
  2  4  1  0
  4  6  1  0
  4  5  1  1
  6 13  1  0
  6  7  2  0
  8  9  1  0
  9 11  1  0
 10  9  2  0
 12 11  1  1
 12 14  1  0
 13 12  1  0
 14 15  2  0
 14 19  1  0
 16 17  1  0
 18 17  1  6
 18 20  1  0
 19 18  1  0
 20 21  1  0
 22 20  2  0
M  END
$$$$
