VNS.pdb
     RDKit          3D

 22 21  0  0  1  0  0  0  0  0999 V2000
   13.5828   -8.1197   -9.9712 C   0  0  0  0  0  0  0  0  0  0  0  0
   14.4197   -8.1448   -8.7109 C   0  0  2  0  0  0  0  0  0  0  0  0
   13.5783   -7.5596   -7.5968 C   0  0  0  0  0  0  0  0  0  0  0  0
   15.6769   -7.3508   -8.9408 C   0  0  2  0  0  0  0  0  0  0  0  0
   15.3287   -5.9566   -8.9463 N   0  0  0  0  0  0  0  0  0  0  0  0
   16.3845   -7.7632  -10.1790 C   0  0  0  0  0  0  0  0  0  0  0  0
   16.8645   -8.9258  -10.2520 O   0  0  0  0  0  0  0  0  0  0  0  0
   15.8736   -9.9798  -14.0311 N   0  0  0  0  0  0  0  0  0  0  0  0
   15.5176   -8.6946  -13.5539 C   0  0  0  0  0  0  0  0  0  0  0  0
   14.4071   -8.5043  -13.0068 O   0  0  0  0  0  0  0  0  0  0  0  0
   16.4528   -7.5636  -13.6961 C   0  0  0  0  0  0  0  0  0  0  0  0
   17.2809   -7.2636  -12.5109 C   0  0  2  0  0  0  0  0  0  0  0  0
   16.5560   -6.9142  -11.3040 N   0  0  0  0  0  0  0  0  0  0  0  0
   18.5349   -6.5428  -12.6648 C   0  0  0  0  0  0  0  0  0  0  0  0
   18.5127   -5.3008  -12.2861 O   0  0  0  0  0  0  0  0  0  0  0  0
   23.1303   -5.9109  -14.0934 O   0  0  0  0  0  0  0  0  0  0  0  0
   22.1157   -6.8112  -13.8559 C   0  0  0  0  0  0  0  0  0  0  0  0
   20.8946   -6.0414  -13.4025 C   0  0  2  0  0  0  0  0  0  0  0  0
   19.7701   -6.9645  -13.1604 N   0  0  0  0  0  0  0  0  0  0  0  0
   20.5082   -4.9776  -14.3279 C   0  0  0  0  0  0  0  0  0  0  0  0
   20.9043   -3.6463  -14.2248 O   0  0  0  0  0  0  0  0  0  0  0  0
   19.7605   -5.2499  -15.3048 O   0  0  0  0  0  0  0  0  0  0  0  0
  2  1  1  6
  2  3  1  0
  2  4  1  0
  4  6  1  0
  4  5  1  6
  6 13  1  0
  6  7  2  0
  8  9  1  0
  9 11  1  0
 10  9  2  0
 12 11  1  6
 12 14  1  0
 13 12  1  0
 14 15  2  0
 14 19  1  0
 16 17  1  0
 18 17  1  6
 18 20  1  0
 19 18  1  0
 20 21  1  0
 22 20  2  0
M  END
$$$$
