VNS.pdb
     RDKit          3D

 22 21  0  0  1  0  0  0  0  0999 V2000
   26.6670  -20.8737  -18.4118 C   0  0  0  0  0  0  0  0  0  0  0  0
   27.3161  -20.2481  -17.1966 C   0  0  2  0  0  0  0  0  0  0  0  0
   28.8074  -20.2030  -17.4524 C   0  0  0  0  0  0  0  0  0  0  0  0
   26.9798  -21.0707  -15.9824 C   0  0  2  0  0  0  0  0  0  0  0  0
   27.6051  -22.3563  -16.1280 N   0  0  0  0  0  0  0  0  0  0  0  0
   25.5155  -21.1744  -15.7608 C   0  0  0  0  0  0  0  0  0  0  0  0
   24.9020  -22.1893  -16.1862 O   0  0  0  0  0  0  0  0  0  0  0  0
   20.5975  -20.7181  -14.2263 N   0  0  0  0  0  0  0  0  0  0  0  0
   21.4497  -20.2460  -13.1982 C   0  0  0  0  0  0  0  0  0  0  0  0
   20.9913  -19.9827  -12.0628 O   0  0  0  0  0  0  0  0  0  0  0  0
   22.8896  -20.0586  -13.4539 C   0  0  0  0  0  0  0  0  0  0  0  0
   23.3223  -20.2493  -14.8528 C   0  0  2  0  0  0  0  0  0  0  0  0
   24.7522  -20.1844  -15.0879 N   0  0  0  0  0  0  0  0  0  0  0  0
   22.5291  -19.6972  -15.9399 C   0  0  0  0  0  0  0  0  0  0  0  0
   22.9078  -18.5313  -16.3684 O   0  0  0  0  0  0  0  0  0  0  0  0
   21.7860  -20.8358  -19.3864 O   0  0  0  0  0  0  0  0  0  0  0  0
   20.5529  -20.4861  -18.8828 C   0  0  0  0  0  0  0  0  0  0  0  0
   20.7646  -19.5238  -17.7345 C   0  0  2  0  0  0  0  0  0  0  0  0
   21.4147  -20.2131  -16.6042 N   0  0  0  0  0  0  0  0  0  0  0  0
   19.5348  -18.8602  -17.3052 C   0  0  0  0  0  0  0  0  0  0  0  0
   18.6533  -18.1884  -18.1487 O   0  0  0  0  0  0  0  0  0  0  0  0
   19.2168  -18.8772  -16.0861 O   0  0  0  0  0  0  0  0  0  0  0  0
  2  1  1  6
  2  3  1  0
  2  4  1  0
  4  6  1  0
  4  5  1  6
  6 13  1  0
  6  7  2  0
  8  9  1  0
  9 11  1  0
 10  9  2  0
 12 11  1  1
 12 14  1  0
 13 12  1  0
 14 15  2  0
 14 19  1  0
 16 17  1  0
 18 17  1  6
 18 20  1  0
 19 18  1  0
 20 21  1  0
 22 20  2  0
M  END
$$$$
