VNS.pdb
     RDKit          3D

 22 21  0  0  1  0  0  0  0  0999 V2000
   17.2477  -11.7549  -14.6082 C   0  0  0  0  0  0  0  0  0  0  0  0
   16.6305  -11.3861  -15.9395 C   0  0  2  0  0  0  0  0  0  0  0  0
   16.2962  -12.6765  -16.6568 C   0  0  0  0  0  0  0  0  0  0  0  0
   17.6080  -10.5483  -16.7183 C   0  0  2  0  0  0  0  0  0  0  0  0
   18.7015  -11.3922  -17.1145 N   0  0  0  0  0  0  0  0  0  0  0  0
   18.0590   -9.3561  -15.9572 C   0  0  0  0  0  0  0  0  0  0  0  0
   17.1964   -8.5682  -15.4853 O   0  0  0  0  0  0  0  0  0  0  0  0
   20.8977   -5.4734  -13.8800 N   0  0  0  0  0  0  0  0  0  0  0  0
   21.7400   -6.6109  -13.9329 C   0  0  0  0  0  0  0  0  0  0  0  0
   22.8962   -6.5691  -13.4531 O   0  0  0  0  0  0  0  0  0  0  0  0
   21.2640   -7.8600  -14.5550 C   0  0  0  0  0  0  0  0  0  0  0  0
   19.9117   -7.8070  -15.1458 C   0  0  2  0  0  0  0  0  0  0  0  0
   19.4245   -9.0446  -15.7247 N   0  0  0  0  0  0  0  0  0  0  0  0
   19.4801   -6.6192  -15.8660 C   0  0  0  0  0  0  0  0  0  0  0  0
   19.5778   -6.6865  -17.1592 O   0  0  0  0  0  0  0  0  0  0  0  0
   16.7034   -3.2601  -17.2647 O   0  0  0  0  0  0  0  0  0  0  0  0
   17.0625   -4.3536  -16.5087 C   0  0  0  0  0  0  0  0  0  0  0  0
   18.5591   -4.3094  -16.2909 C   0  0  2  0  0  0  0  0  0  0  0  0
   18.9773   -5.4045  -15.3959 N   0  0  0  0  0  0  0  0  0  0  0  0
   19.0306   -3.0181  -15.7935 C   0  0  0  0  0  0  0  0  0  0  0  0
   19.2210   -1.8818  -16.5761 O   0  0  0  0  0  0  0  0  0  0  0  0
   19.2948   -2.8870  -14.5685 O   0  0  0  0  0  0  0  0  0  0  0  0
  2  1  1  1
  2  3  1  0
  2  4  1  0
  4  6  1  0
  4  5  1  1
  6 13  1  0
  6  7  2  0
  8  9  1  0
  9 11  1  0
 10  9  2  0
 12 11  1  6
 12 14  1  0
 13 12  1  0
 14 15  2  0
 14 19  1  0
 16 17  1  0
 18 17  1  1
 18 20  1  0
 19 18  1  0
 20 21  1  0
 22 20  2  0
M  END
$$$$
