TLC.pdb
     RDKit          3D

 22 21  0  0  1  0  0  0  0  0999 V2000
    9.8192  -19.9962   18.0032 C   0  0  0  0  0  0  0  0  0  0  0  0
   10.0113  -18.8305   18.9778 C   0  0  1  0  0  0  0  0  0  0  0  0
   11.0631  -19.1796   19.8103 O   0  0  0  0  0  0  0  0  0  0  0  0
   10.3864  -17.5729   18.2611 C   0  0  2  0  0  0  0  0  0  0  0  0
   11.5553  -17.7325   17.4311 N   0  0  0  0  0  0  0  0  0  0  0  0
   10.5177  -16.4819   19.2405 C   0  0  0  0  0  0  0  0  0  0  0  0
   11.6268  -16.0545   19.6287 O   0  0  0  0  0  0  0  0  0  0  0  0
    9.1472  -12.2894   19.2456 C   0  0  0  0  0  0  0  0  0  0  0  0
    8.0213  -13.3135   19.4975 C   0  0  2  0  0  0  0  0  0  0  0  0
    6.7321  -12.5542   19.4006 C   0  0  0  0  0  0  0  0  0  0  0  0
    8.2202  -13.9870   20.8227 C   0  0  0  0  0  0  0  0  0  0  0  0
    9.3949  -14.8761   20.8128 C   0  0  2  0  0  0  0  0  0  0  0  0
    9.3503  -15.8863   19.7684 N   0  0  0  0  0  0  0  0  0  0  0  0
    9.5731  -15.5523   22.1026 C   0  0  0  0  0  0  0  0  0  0  0  0
    8.6528  -16.0238   22.8138 O   0  0  0  0  0  0  0  0  0  0  0  0
   10.9119  -15.7068   22.6306 N   0  0  0  0  0  0  0  0  0  0  0  0
   11.1743  -16.4523   23.8299 C   0  0  1  0  0  0  0  0  0  0  0  0
   10.9033  -17.9190   23.5285 C   0  0  0  0  0  0  0  0  0  0  0  0
    9.3486  -18.4639   24.2740 S   0  0  0  0  0  0  0  0  0  0  0  0
   12.5304  -16.2854   24.3431 C   0  0  0  0  0  0  0  0  0  0  0  0
   12.8589  -16.7884   25.4394 O   0  0  0  0  0  0  0  0  0  0  0  0
   13.4618  -15.5686   23.6182 O   0  0  0  0  0  0  0  0  0  0  0  0
  2  1  1  6
  2  4  1  0
  2  3  1  0
  4  6  1  0
  4  5  1  1
  6  7  2  0
  9  8  1  1
  9 11  1  0
  9 10  1  0
 12 11  1  1
 12 14  1  0
 13 12  1  0
 13  6  1  0
 14 15  2  0
 16 14  1  0
 16 17  1  0
 17 20  1  0
 17 18  1  6
 19 18  1  0
 20 21  2  0
 20 22  1  0
M  END
$$$$
