TLC.pdb
     RDKit          3D

 22 21  0  0  1  0  0  0  0  0999 V2000
   10.1621  -18.1754   21.7675 C   0  0  0  0  0  0  0  0  0  0  0  0
    8.9371  -17.4534   21.1987 C   0  0  1  0  0  0  0  0  0  0  0  0
    7.8797  -17.7376   22.0487 O   0  0  0  0  0  0  0  0  0  0  0  0
    9.1326  -15.9711   21.1832 C   0  0  2  0  0  0  0  0  0  0  0  0
   10.1949  -15.5588   20.2986 N   0  0  0  0  0  0  0  0  0  0  0  0
    9.3133  -15.4951   22.5644 C   0  0  0  0  0  0  0  0  0  0  0  0
   10.4275  -15.4805   23.1318 O   0  0  0  0  0  0  0  0  0  0  0  0
    5.9945  -12.6724   27.0348 C   0  0  0  0  0  0  0  0  0  0  0  0
    7.2951  -13.3288   26.5277 C   0  0  2  0  0  0  0  0  0  0  0  0
    8.3586  -12.2751   26.6109 C   0  0  0  0  0  0  0  0  0  0  0  0
    7.0970  -13.8699   25.1430 C   0  0  0  0  0  0  0  0  0  0  0  0
    8.2716  -14.6293   24.6801 C   0  0  2  0  0  0  0  0  0  0  0  0
    8.1900  -15.0334   23.2861 N   0  0  0  0  0  0  0  0  0  0  0  0
    8.4979  -15.8274   25.4962 C   0  0  0  0  0  0  0  0  0  0  0  0
    7.6876  -16.7743   25.6443 O   0  0  0  0  0  0  0  0  0  0  0  0
    9.7523  -15.9622   26.2054 N   0  0  0  0  0  0  0  0  0  0  0  0
   10.0474  -17.1108   27.0157 C   0  0  1  0  0  0  0  0  0  0  0  0
   11.3035  -17.7602   26.4533 C   0  0  0  0  0  0  0  0  0  0  0  0
   11.1488  -18.0534   24.6757 S   0  0  0  0  0  0  0  0  0  0  0  0
   10.2296  -16.8032   28.4308 C   0  0  0  0  0  0  0  0  0  0  0  0
   10.3739  -17.7229   29.2652 O   0  0  0  0  0  0  0  0  0  0  0  0
   10.2437  -15.4901   28.8577 O   0  0  0  0  0  0  0  0  0  0  0  0
  2  1  1  1
  2  4  1  0
  2  3  1  0
  4  6  1  0
  4  5  1  6
  6  7  2  0
  9  8  1  6
  9 11  1  0
  9 10  1  0
 12 11  1  1
 12 14  1  0
 13 12  1  0
 13  6  1  0
 14 15  2  0
 16 14  1  0
 16 17  1  0
 17 20  1  0
 17 18  1  6
 19 18  1  0
 20 21  2  0
 20 22  1  0
M  END
$$$$
