TLC.pdb
     RDKit          3D

 22 21  0  0  1  0  0  0  0  0999 V2000
    9.2084  -20.0882   19.1869 C   0  0  0  0  0  0  0  0  0  0  0  0
    9.3245  -18.8830   20.1248 C   0  0  1  0  0  0  0  0  0  0  0  0
   10.0798  -19.2975   21.2106 O   0  0  0  0  0  0  0  0  0  0  0  0
   10.0411  -17.7458   19.4698 C   0  0  2  0  0  0  0  0  0  0  0  0
   11.3362  -18.1238   18.9592 N   0  0  0  0  0  0  0  0  0  0  0  0
   10.0976  -16.6103   20.4049 C   0  0  0  0  0  0  0  0  0  0  0  0
   11.1603  -16.2365   20.9477 O   0  0  0  0  0  0  0  0  0  0  0  0
    9.2206  -12.3592   19.6164 C   0  0  0  0  0  0  0  0  0  0  0  0
    7.9712  -13.2558   19.7382 C   0  0  2  0  0  0  0  0  0  0  0  0
    6.8108  -12.4258   19.2767 C   0  0  0  0  0  0  0  0  0  0  0  0
    7.8268  -13.7554   21.1449 C   0  0  0  0  0  0  0  0  0  0  0  0
    8.9051  -14.6923   21.5052 C   0  0  2  0  0  0  0  0  0  0  0  0
    8.9100  -15.9075   20.7072 N   0  0  0  0  0  0  0  0  0  0  0  0
    8.8437  -15.0699   22.9216 C   0  0  0  0  0  0  0  0  0  0  0  0
    8.1936  -14.4683   23.8107 O   0  0  0  0  0  0  0  0  0  0  0  0
    9.5843  -16.2308   23.3673 N   0  0  0  0  0  0  0  0  0  0  0  0
    9.3773  -16.8122   24.6643 C   0  0  1  0  0  0  0  0  0  0  0  0
    7.9381  -17.3026   24.7244 C   0  0  0  0  0  0  0  0  0  0  0  0
    7.6022  -18.1565   26.2824 S   0  0  0  0  0  0  0  0  0  0  0  0
   10.2950  -17.9040   24.9743 C   0  0  0  0  0  0  0  0  0  0  0  0
   10.8818  -18.5178   24.0568 O   0  0  0  0  0  0  0  0  0  0  0  0
   10.5212  -18.2668   26.2874 O   0  0  0  0  0  0  0  0  0  0  0  0
  2  1  1  6
  2  4  1  0
  2  3  1  0
  4  6  1  0
  4  5  1  1
  6  7  2  0
  9  8  1  1
  9 11  1  0
  9 10  1  0
 12 11  1  6
 12 14  1  0
 13 12  1  0
 13  6  1  0
 14 15  2  0
 16 14  1  0
 16 17  1  0
 17 20  1  0
 17 18  1  6
 19 18  1  0
 20 21  2  0
 20 22  1  0
M  END
$$$$
