TLC.pdb
     RDKit          3D

 22 21  0  0  1  0  0  0  0  0999 V2000
    6.5395  -14.4200   18.6867 C   0  0  0  0  0  0  0  0  0  0  0  0
    7.2088  -14.6492   20.0450 C   0  0  1  0  0  0  0  0  0  0  0  0
    8.3605  -15.3805   19.8007 O   0  0  0  0  0  0  0  0  0  0  0  0
    7.6077  -13.3577   20.6844 C   0  0  2  0  0  0  0  0  0  0  0  0
    8.4695  -12.5630   19.8438 N   0  0  0  0  0  0  0  0  0  0  0  0
    8.1881  -13.6354   22.0084 C   0  0  0  0  0  0  0  0  0  0  0  0
    9.4167  -13.7829   22.1882 O   0  0  0  0  0  0  0  0  0  0  0  0
    7.8330  -11.6744   26.3072 C   0  0  0  0  0  0  0  0  0  0  0  0
    6.5854  -12.3604   25.7134 C   0  0  2  0  0  0  0  0  0  0  0  0
    5.4555  -12.0668   26.6544 C   0  0  0  0  0  0  0  0  0  0  0  0
    6.8403  -13.8263   25.5246 C   0  0  0  0  0  0  0  0  0  0  0  0
    7.8211  -14.0766   24.4542 C   0  0  2  0  0  0  0  0  0  0  0  0
    7.3318  -13.7404   23.1272 N   0  0  0  0  0  0  0  0  0  0  0  0
    8.2649  -15.4750   24.4426 C   0  0  0  0  0  0  0  0  0  0  0  0
    7.5788  -16.4563   24.0663 O   0  0  0  0  0  0  0  0  0  0  0  0
    9.6032  -15.7865   24.8973 N   0  0  0  0  0  0  0  0  0  0  0  0
   10.0897  -17.1365   24.9593 C   0  0  1  0  0  0  0  0  0  0  0  0
   11.4351  -17.1738   24.2494 C   0  0  0  0  0  0  0  0  0  0  0  0
   12.2089  -18.8012   24.3986 S   0  0  0  0  0  0  0  0  0  0  0  0
   10.2222  -17.6537   26.3177 C   0  0  0  0  0  0  0  0  0  0  0  0
   10.0532  -16.9008   27.3013 O   0  0  0  0  0  0  0  0  0  0  0  0
   10.5361  -18.9823   26.5252 O   0  0  0  0  0  0  0  0  0  0  0  0
  2  1  1  6
  2  4  1  0
  2  3  1  0
  4  6  1  0
  4  5  1  6
  6  7  2  0
  9  8  1  1
  9 11  1  0
  9 10  1  0
 12 11  1  1
 12 14  1  0
 13 12  1  0
 13  6  1  0
 14 15  2  0
 16 14  1  0
 16 17  1  0
 17 20  1  0
 17 18  1  1
 19 18  1  0
 20 21  2  0
 20 22  1  0
M  END
$$$$
