TLC.pdb
     RDKit          3D

 22 21  0  0  1  0  0  0  0  0999 V2000
    6.4651  -15.6372   19.5288 C   0  0  0  0  0  0  0  0  0  0  0  0
    6.9973  -15.7410   20.9612 C   0  0  1  0  0  0  0  0  0  0  0  0
    7.7095  -16.9278   21.0340 O   0  0  0  0  0  0  0  0  0  0  0  0
    7.9331  -14.6195   21.2809 C   0  0  2  0  0  0  0  0  0  0  0  0
    9.0480  -14.5473   20.3684 N   0  0  0  0  0  0  0  0  0  0  0  0
    8.3456  -14.7239   22.6901 C   0  0  0  0  0  0  0  0  0  0  0  0
    9.4764  -15.1331   23.0327 O   0  0  0  0  0  0  0  0  0  0  0  0
    8.0428  -11.7520   26.3283 C   0  0  0  0  0  0  0  0  0  0  0  0
    6.7009  -12.3605   25.8716 C   0  0  2  0  0  0  0  0  0  0  0  0
    5.6390  -11.7165   26.7118 C   0  0  0  0  0  0  0  0  0  0  0  0
    6.7392  -13.8544   25.9985 C   0  0  0  0  0  0  0  0  0  0  0  0
    7.7578  -14.4515   25.1173 C   0  0  2  0  0  0  0  0  0  0  0  0
    7.4356  -14.3485   23.7035 N   0  0  0  0  0  0  0  0  0  0  0  0
    7.9892  -15.8646   25.4369 C   0  0  0  0  0  0  0  0  0  0  0  0
    7.1217  -16.7712   25.4110 O   0  0  0  0  0  0  0  0  0  0  0  0
    9.3205  -16.2850   25.8188 N   0  0  0  0  0  0  0  0  0  0  0  0
    9.6265  -17.6546   26.1243 C   0  0  1  0  0  0  0  0  0  0  0  0
   10.6586  -18.1321   25.1132 C   0  0  0  0  0  0  0  0  0  0  0  0
   12.1368  -17.0912   25.1457 S   0  0  0  0  0  0  0  0  0  0  0  0
   10.1193  -17.8599   27.4827 C   0  0  0  0  0  0  0  0  0  0  0  0
   10.3682  -19.0123   27.8986 O   0  0  0  0  0  0  0  0  0  0  0  0
   10.3142  -16.7789   28.3195 O   0  0  0  0  0  0  0  0  0  0  0  0
  2  1  1  6
  2  4  1  0
  2  3  1  0
  4  6  1  0
  4  5  1  6
  6  7  2  0
  9  8  1  1
  9 11  1  0
  9 10  1  0
 12 11  1  1
 12 14  1  0
 13 12  1  0
 13  6  1  0
 14 15  2  0
 16 14  1  0
 16 17  1  0
 17 20  1  0
 17 18  1  6
 19 18  1  0
 20 21  2  0
 20 22  1  0
M  END
$$$$
