TLC.pdb
     RDKit          3D

 22 21  0  0  1  0  0  0  0  0999 V2000
    7.4865  -18.6068   20.7603 C   0  0  0  0  0  0  0  0  0  0  0  0
    7.9412  -17.5568   21.7782 C   0  0  1  0  0  0  0  0  0  0  0  0
    9.2883  -17.7870   22.0098 O   0  0  0  0  0  0  0  0  0  0  0  0
    7.7950  -16.1702   21.2380 C   0  0  2  0  0  0  0  0  0  0  0  0
    8.4661  -15.9915   19.9737 N   0  0  0  0  0  0  0  0  0  0  0  0
    8.2276  -15.2064   22.2631 C   0  0  0  0  0  0  0  0  0  0  0  0
    9.3365  -14.6301   22.2211 O   0  0  0  0  0  0  0  0  0  0  0  0
    5.7156  -12.1179   27.0604 C   0  0  0  0  0  0  0  0  0  0  0  0
    6.9436  -12.4931   26.2054 C   0  0  2  0  0  0  0  0  0  0  0  0
    7.5353  -11.2005   25.7285 C   0  0  0  0  0  0  0  0  0  0  0  0
    6.5383  -13.4119   25.0913 C   0  0  0  0  0  0  0  0  0  0  0  0
    7.7077  -13.9549   24.3785 C   0  0  2  0  0  0  0  0  0  0  0  0
    7.3626  -14.9128   23.3409 N   0  0  0  0  0  0  0  0  0  0  0  0
    8.6553  -14.5924   25.2994 C   0  0  0  0  0  0  0  0  0  0  0  0
    8.8999  -14.2170   26.4718 O   0  0  0  0  0  0  0  0  0  0  0  0
    9.3887  -15.7568   24.8509 N   0  0  0  0  0  0  0  0  0  0  0  0
   10.3434  -16.4239   25.6914 C   0  0  1  0  0  0  0  0  0  0  0  0
    9.5738  -17.3725   26.5988 C   0  0  0  0  0  0  0  0  0  0  0  0
   10.6460  -18.0687   27.8777 S   0  0  0  0  0  0  0  0  0  0  0  0
   11.3699  -17.1537   24.9539 C   0  0  0  0  0  0  0  0  0  0  0  0
   11.2609  -17.3271   23.7207 O   0  0  0  0  0  0  0  0  0  0  0  0
   12.4713  -17.6587   25.6163 O   0  0  0  0  0  0  0  0  0  0  0  0
  2  1  1  6
  2  4  1  0
  2  3  1  0
  4  6  1  0
  4  5  1  6
  6  7  2  0
  9  8  1  6
  9 11  1  0
  9 10  1  0
 12 11  1  1
 12 14  1  0
 13 12  1  0
 13  6  1  0
 14 15  2  0
 16 14  1  0
 16 17  1  0
 17 20  1  0
 17 18  1  1
 19 18  1  0
 20 21  2  0
 20 22  1  0
M  END
$$$$
