TLC.pdb
     RDKit          3D

 22 21  0  0  1  0  0  0  0  0999 V2000
    8.7109  -19.4713   22.0763 C   0  0  0  0  0  0  0  0  0  0  0  0
    8.9816  -18.2041   22.8925 C   0  0  1  0  0  0  0  0  0  0  0  0
   10.3205  -18.2411   23.2490 O   0  0  0  0  0  0  0  0  0  0  0  0
    8.7530  -16.9695   22.0803 C   0  0  2  0  0  0  0  0  0  0  0  0
    9.5097  -16.9630   20.8522 N   0  0  0  0  0  0  0  0  0  0  0  0
    9.0050  -15.7874   22.9205 C   0  0  0  0  0  0  0  0  0  0  0  0
   10.0754  -15.1427   22.8732 O   0  0  0  0  0  0  0  0  0  0  0  0
    5.8949  -12.2926   27.0772 C   0  0  0  0  0  0  0  0  0  0  0  0
    7.1642  -12.5984   26.2555 C   0  0  2  0  0  0  0  0  0  0  0  0
    7.4578  -11.3625   25.4589 C   0  0  0  0  0  0  0  0  0  0  0  0
    6.9525  -13.8185   25.4094 C   0  0  0  0  0  0  0  0  0  0  0  0
    8.1723  -14.1896   24.6713 C   0  0  2  0  0  0  0  0  0  0  0  0
    8.0038  -15.3550   23.8186 N   0  0  0  0  0  0  0  0  0  0  0  0
    9.2989  -14.4390   25.5775 C   0  0  0  0  0  0  0  0  0  0  0  0
   10.1464  -13.5878   25.9411 O   0  0  0  0  0  0  0  0  0  0  0  0
    9.4790  -15.7697   26.1176 N   0  0  0  0  0  0  0  0  0  0  0  0
   10.4198  -16.0425   27.1680 C   0  0  1  0  0  0  0  0  0  0  0  0
    9.8880  -15.3995   28.4405 C   0  0  0  0  0  0  0  0  0  0  0  0
   10.6824  -13.8047   28.7492 S   0  0  0  0  0  0  0  0  0  0  0  0
   10.6640  -17.4648   27.3862 C   0  0  0  0  0  0  0  0  0  0  0  0
   10.0693  -18.3223   26.6979 O   0  0  0  0  0  0  0  0  0  0  0  0
   11.5564  -17.8731   28.3577 O   0  0  0  0  0  0  0  0  0  0  0  0
  2  1  1  6
  2  4  1  0
  2  3  1  0
  4  6  1  0
  4  5  1  6
  6  7  2  0
  9  8  1  6
  9 11  1  0
  9 10  1  0
 12 11  1  1
 12 14  1  0
 13 12  1  0
 13  6  1  0
 14 15  2  0
 16 14  1  0
 16 17  1  0
 17 20  1  0
 17 18  1  1
 19 18  1  0
 20 21  2  0
 20 22  1  0
M  END
$$$$
