TLC.pdb
     RDKit          3D

 22 21  0  0  1  0  0  0  0  0999 V2000
    6.3570  -17.0810   20.3401 C   0  0  0  0  0  0  0  0  0  0  0  0
    7.1340  -16.7118   21.6072 C   0  0  1  0  0  0  0  0  0  0  0  0
    8.2190  -17.5720   21.6710 O   0  0  0  0  0  0  0  0  0  0  0  0
    7.6563  -15.3123   21.5417 C   0  0  2  0  0  0  0  0  0  0  0  0
    8.4790  -15.0787   20.3801 N   0  0  0  0  0  0  0  0  0  0  0  0
    8.3388  -14.9939   22.8066 C   0  0  0  0  0  0  0  0  0  0  0  0
    9.5840  -14.9364   22.9046 O   0  0  0  0  0  0  0  0  0  0  0  0
    7.6730  -11.4551   25.3410 C   0  0  0  0  0  0  0  0  0  0  0  0
    6.6067  -12.5444   25.5777 C   0  0  2  0  0  0  0  0  0  0  0  0
    5.5547  -11.9220   26.4462 C   0  0  0  0  0  0  0  0  0  0  0  0
    7.2365  -13.7637   26.1827 C   0  0  0  0  0  0  0  0  0  0  0  0
    8.1652  -14.4203   25.2463 C   0  0  2  0  0  0  0  0  0  0  0  0
    7.5654  -14.7404   23.9614 N   0  0  0  0  0  0  0  0  0  0  0  0
    8.7262  -15.6514   25.8139 C   0  0  0  0  0  0  0  0  0  0  0  0
    8.0987  -16.4886   26.5072 O   0  0  0  0  0  0  0  0  0  0  0  0
   10.1200  -15.9589   25.5739 N   0  0  0  0  0  0  0  0  0  0  0  0
   10.7031  -17.2079   25.9777 C   0  0  1  0  0  0  0  0  0  0  0  0
    9.9658  -18.3184   25.2438 C   0  0  0  0  0  0  0  0  0  0  0  0
    9.9387  -19.8412   26.2184 S   0  0  0  0  0  0  0  0  0  0  0  0
   12.1369  -17.2997   25.7210 C   0  0  0  0  0  0  0  0  0  0  0  0
   12.7042  -16.4599   24.9889 O   0  0  0  0  0  0  0  0  0  0  0  0
   12.8780  -18.3181   26.2870 O   0  0  0  0  0  0  0  0  0  0  0  0
  2  1  1  6
  2  4  1  0
  2  3  1  0
  4  6  1  0
  4  5  1  6
  6  7  2  0
  9  8  1  1
  9 11  1  0
  9 10  1  0
 12 11  1  1
 12 14  1  0
 13 12  1  0
 13  6  1  0
 14 15  2  0
 16 14  1  0
 16 17  1  0
 17 20  1  0
 17 18  1  6
 19 18  1  0
 20 21  2  0
 20 22  1  0
M  END
$$$$
