TLC.pdb
     RDKit          3D

 22 21  0  0  1  0  0  0  0  0999 V2000
    6.3756  -16.5667   19.7470 C   0  0  0  0  0  0  0  0  0  0  0  0
    7.1232  -16.3900   21.0720 C   0  0  1  0  0  0  0  0  0  0  0  0
    8.1814  -17.2850   21.0520 O   0  0  0  0  0  0  0  0  0  0  0  0
    7.6861  -15.0110   21.2041 C   0  0  2  0  0  0  0  0  0  0  0  0
    8.5732  -14.6654   20.1204 N   0  0  0  0  0  0  0  0  0  0  0  0
    8.3114  -14.8716   22.5295 C   0  0  0  0  0  0  0  0  0  0  0  0
    9.5468  -14.9545   22.7039 O   0  0  0  0  0  0  0  0  0  0  0  0
    7.9315  -11.6187   25.7025 C   0  0  0  0  0  0  0  0  0  0  0  0
    6.7055  -12.5492   25.5996 C   0  0  2  0  0  0  0  0  0  0  0  0
    5.6532  -11.9591   26.4901 C   0  0  0  0  0  0  0  0  0  0  0  0
    7.0861  -13.9512   25.9721 C   0  0  0  0  0  0  0  0  0  0  0  0
    8.0288  -14.5370   25.0032 C   0  0  2  0  0  0  0  0  0  0  0  0
    7.4922  -14.6334   23.6556 N   0  0  0  0  0  0  0  0  0  0  0  0
    8.4742  -15.8714   25.4199 C   0  0  0  0  0  0  0  0  0  0  0  0
    7.7738  -16.9127   25.4068 O   0  0  0  0  0  0  0  0  0  0  0  0
    9.8322  -16.0381   25.8921 N   0  0  0  0  0  0  0  0  0  0  0  0
   10.3431  -17.3169   26.3003 C   0  0  1  0  0  0  0  0  0  0  0  0
   11.7739  -17.4238   25.7935 C   0  0  0  0  0  0  0  0  0  0  0  0
   12.1617  -19.1135   25.2795 S   0  0  0  0  0  0  0  0  0  0  0  0
   10.3017  -17.5354   27.7428 C   0  0  0  0  0  0  0  0  0  0  0  0
    9.9468  -16.6164   28.5125 O   0  0  0  0  0  0  0  0  0  0  0  0
   10.6557  -18.7626   28.2677 O   0  0  0  0  0  0  0  0  0  0  0  0
  2  1  1  6
  2  4  1  0
  2  3  1  0
  4  6  1  0
  4  5  1  6
  6  7  2  0
  9  8  1  1
  9 11  1  0
  9 10  1  0
 12 11  1  1
 12 14  1  0
 13 12  1  0
 13  6  1  0
 14 15  2  0
 16 14  1  0
 16 17  1  0
 17 20  1  0
 17 18  1  1
 19 18  1  0
 20 21  2  0
 20 22  1  0
M  END
$$$$
