TLC.pdb
     RDKit          3D

 22 21  0  0  1  0  0  0  0  0999 V2000
    9.7163  -20.3314   18.5568 C   0  0  0  0  0  0  0  0  0  0  0  0
    9.9418  -19.0998   19.4386 C   0  0  1  0  0  0  0  0  0  0  0  0
   11.0108  -19.3977   20.2691 O   0  0  0  0  0  0  0  0  0  0  0  0
   10.3093  -17.9015   18.6232 C   0  0  2  0  0  0  0  0  0  0  0  0
   11.4417  -18.1399   17.7621 N   0  0  0  0  0  0  0  0  0  0  0  0
   10.4974  -16.7490   19.5194 C   0  0  0  0  0  0  0  0  0  0  0  0
   11.5947  -16.1618   19.6410 O   0  0  0  0  0  0  0  0  0  0  0  0
    8.8186  -12.7289   19.3398 C   0  0  0  0  0  0  0  0  0  0  0  0
    7.8124  -13.7992   19.8106 C   0  0  2  0  0  0  0  0  0  0  0  0
    6.4644  -13.1426   19.8015 C   0  0  0  0  0  0  0  0  0  0  0  0
    8.2102  -14.3285   21.1564 C   0  0  0  0  0  0  0  0  0  0  0  0
    9.4757  -15.0803   21.0952 C   0  0  2  0  0  0  0  0  0  0  0  0
    9.4008  -16.2789   20.2760 N   0  0  0  0  0  0  0  0  0  0  0  0
    9.9435  -15.4629   22.4322 C   0  0  0  0  0  0  0  0  0  0  0  0
   10.0598  -14.6904   23.4144 O   0  0  0  0  0  0  0  0  0  0  0  0
   10.3110  -16.8416   22.6751 N   0  0  0  0  0  0  0  0  0  0  0  0
   10.8929  -17.2651   23.9181 C   0  0  1  0  0  0  0  0  0  0  0  0
    9.9235  -18.2393   24.5716 C   0  0  0  0  0  0  0  0  0  0  0  0
    8.4377  -17.3908   25.1563 S   0  0  0  0  0  0  0  0  0  0  0  0
   12.2073  -17.8829   23.7737 C   0  0  0  0  0  0  0  0  0  0  0  0
   12.6608  -18.1488   22.6394 O   0  0  0  0  0  0  0  0  0  0  0  0
   12.9603  -18.1783   24.8928 O   0  0  0  0  0  0  0  0  0  0  0  0
  2  1  1  6
  2  4  1  0
  2  3  1  0
  4  6  1  0
  4  5  1  1
  6  7  2  0
  9  8  1  1
  9 11  1  0
  9 10  1  0
 12 11  1  1
 12 14  1  0
 13 12  1  0
 13  6  1  0
 14 15  2  0
 16 14  1  0
 16 17  1  0
 17 20  1  0
 17 18  1  6
 19 18  1  0
 20 21  2  0
 20 22  1  0
M  END
$$$$
