TLC.pdb
     RDKit          3D

 22 21  0  0  1  0  0  0  0  0999 V2000
    6.8215  -16.9169   19.7633 C   0  0  0  0  0  0  0  0  0  0  0  0
    7.4532  -16.7149   21.1438 C   0  0  1  0  0  0  0  0  0  0  0  0
    8.4539  -17.6663   21.2645 O   0  0  0  0  0  0  0  0  0  0  0  0
    8.0821  -15.3639   21.2665 C   0  0  2  0  0  0  0  0  0  0  0  0
    9.0979  -15.1298   20.2694 N   0  0  0  0  0  0  0  0  0  0  0  0
    8.5714  -15.1842   22.6432 C   0  0  0  0  0  0  0  0  0  0  0  0
    9.7814  -15.2739   22.9454 O   0  0  0  0  0  0  0  0  0  0  0  0
    8.1936  -11.8513   25.9459 C   0  0  0  0  0  0  0  0  0  0  0  0
    6.8887  -12.5879   25.5796 C   0  0  2  0  0  0  0  0  0  0  0  0
    5.7937  -11.9129   26.3500 C   0  0  0  0  0  0  0  0  0  0  0  0
    7.0173  -14.0514   25.8814 C   0  0  0  0  0  0  0  0  0  0  0  0
    8.0526  -14.6914   25.0514 C   0  0  2  0  0  0  0  0  0  0  0  0
    7.6455  -14.8977   23.6711 N   0  0  0  0  0  0  0  0  0  0  0  0
    8.4710  -15.9829   25.6077 C   0  0  0  0  0  0  0  0  0  0  0  0
    7.7563  -17.0119   25.6835 O   0  0  0  0  0  0  0  0  0  0  0  0
    9.8169  -16.1182   26.1225 N   0  0  0  0  0  0  0  0  0  0  0  0
   10.3110  -17.3637   26.6398 C   0  0  1  0  0  0  0  0  0  0  0  0
   11.7341  -17.5410   26.1310 C   0  0  0  0  0  0  0  0  0  0  0  0
   12.5169  -18.9941   26.8696 S   0  0  0  0  0  0  0  0  0  0  0  0
   10.2822  -17.4501   28.0965 C   0  0  0  0  0  0  0  0  0  0  0  0
   10.0964  -16.4254   28.7881 O   0  0  0  0  0  0  0  0  0  0  0  0
   10.4607  -18.6684   28.7216 O   0  0  0  0  0  0  0  0  0  0  0  0
  2  1  1  6
  2  4  1  0
  2  3  1  0
  4  6  1  0
  4  5  1  6
  6  7  2  0
  9  8  1  1
  9 11  1  0
  9 10  1  0
 12 11  1  1
 12 14  1  0
 13 12  1  0
 13  6  1  0
 14 15  2  0
 16 14  1  0
 16 17  1  0
 17 20  1  0
 17 18  1  1
 19 18  1  0
 20 21  2  0
 20 22  1  0
M  END
$$$$
