KQE.pdb
     RDKit          3D

 28 27  0  0  1  0  0  0  0  0999 V2000
   28.1717  -21.8642  -16.0253 N   0  0  0  0  0  0  0  0  0  0  0  0
   27.6949  -20.8549  -15.1386 C   0  0  1  0  0  0  0  0  0  0  0  0
   27.6942  -19.4600  -15.6780 C   0  0  0  0  0  0  0  0  0  0  0  0
   26.9569  -19.2720  -16.9652 C   0  0  0  0  0  0  0  0  0  0  0  0
   27.1565  -17.9178  -17.5354 C   0  0  0  0  0  0  0  0  0  0  0  0
   26.2708  -17.8303  -18.7999 C   0  0  0  0  0  0  0  0  0  0  0  0
   26.4609  -16.5304  -19.4199 N   0  0  0  0  0  0  0  0  0  0  0  0
   26.3496  -21.1734  -14.5803 C   0  0  0  0  0  0  0  0  0  0  0  0
   25.5808  -21.8910  -15.2619 O   0  0  0  0  0  0  0  0  0  0  0  0
   25.0254  -20.9716   -8.5230 N   0  0  0  0  0  0  0  0  0  0  0  0
   26.2649  -20.9969   -9.2440 C   0  0  0  0  0  0  0  0  0  0  0  0
   27.3615  -20.9632   -8.6467 O   0  0  0  0  0  0  0  0  0  0  0  0
   26.2378  -21.0639  -10.7211 C   0  0  0  0  0  0  0  0  0  0  0  0
   24.8126  -20.9592  -11.1863 C   0  0  0  0  0  0  0  0  0  0  0  0
   24.6954  -21.1545  -12.6827 C   0  0  2  0  0  0  0  0  0  0  0  0
   25.9350  -20.6915  -13.3243 N   0  0  0  0  0  0  0  0  0  0  0  0
   23.5586  -20.4004  -13.2478 C   0  0  0  0  0  0  0  0  0  0  0  0
   23.6685  -19.1810  -13.4911 O   0  0  0  0  0  0  0  0  0  0  0  0
   22.3471  -21.0758  -13.5089 N   0  0  0  0  0  0  0  0  0  0  0  0
   21.2088  -20.3919  -14.0375 C   0  0  1  0  0  0  0  0  0  0  0  0
   21.0357  -20.8254  -15.4569 C   0  0  0  0  0  0  0  0  0  0  0  0
   22.0633  -20.4346  -16.4393 C   0  0  0  0  0  0  0  0  0  0  0  0
   21.8637  -20.7951  -17.8334 C   0  0  0  0  0  0  0  0  0  0  0  0
   20.8614  -21.3925  -18.2510 O   0  0  0  0  0  0  0  0  0  0  0  0
   20.0249  -20.3533  -13.1921 C   0  0  0  0  0  0  0  0  0  0  0  0
   19.8917  -20.9370  -12.0820 O   0  0  0  0  0  0  0  0  0  0  0  0
   22.8412  -20.4672  -18.8110 O   0  0  0  0  0  0  0  0  0  0  0  0
   18.9367  -19.5868  -13.6644 O   0  0  0  0  0  0  0  0  0  0  0  0
  2  1  1  6
  3  2  1  0
  4  5  1  0
  4  3  1  0
  6  5  1  0
  7  6  1  0
  8  9  2  0
  8  2  1  0
 10 11  1  0
 11 12  2  0
 13 14  1  0
 13 11  1  0
 15 14  1  1
 15 16  1  0
 16  8  1  0
 17 15  1  0
 18 17  2  0
 19 17  1  0
 20 19  1  0
 21 22  1  0
 20 21  1  6
 23 22  1  0
 23 24  2  0
 25 20  1  0
 25 28  1  0
 26 25  2  0
 27 23  1  0
M  END
$$$$
