KQE.pdb
     RDKit          3D

 28 27  0  0  1  0  0  0  0  0999 V2000
   24.5394  -21.0663  -17.0165 N   0  0  0  0  0  0  0  0  0  0  0  0
   23.8998  -19.9858  -16.3416 C   0  0  1  0  0  0  0  0  0  0  0  0
   23.5302  -18.8126  -17.1922 C   0  0  0  0  0  0  0  0  0  0  0  0
   23.9873  -18.8838  -18.6141 C   0  0  0  0  0  0  0  0  0  0  0  0
   23.6823  -17.6428  -19.3661 C   0  0  0  0  0  0  0  0  0  0  0  0
   24.0416  -17.9164  -20.8449 C   0  0  0  0  0  0  0  0  0  0  0  0
   23.9361  -16.6759  -21.5935 N   0  0  0  0  0  0  0  0  0  0  0  0
   22.7110  -20.4256  -15.5564 C   0  0  0  0  0  0  0  0  0  0  0  0
   22.0759  -21.4292  -15.9565 O   0  0  0  0  0  0  0  0  0  0  0  0
   21.7008  -19.3080   -9.5771 N   0  0  0  0  0  0  0  0  0  0  0  0
   20.4781  -19.9841   -9.9009 C   0  0  0  0  0  0  0  0  0  0  0  0
   19.6535  -20.2898   -9.0138 O   0  0  0  0  0  0  0  0  0  0  0  0
   20.1942  -20.3228  -11.3122 C   0  0  0  0  0  0  0  0  0  0  0  0
   21.3430  -19.8603  -12.1636 C   0  0  0  0  0  0  0  0  0  0  0  0
   21.1134  -20.1643  -13.6285 C   0  0  2  0  0  0  0  0  0  0  0  0
   22.2967  -19.7464  -14.3952 N   0  0  0  0  0  0  0  0  0  0  0  0
   19.9309  -19.4560  -14.1578 C   0  0  0  0  0  0  0  0  0  0  0  0
   19.9879  -18.2354  -14.4128 O   0  0  0  0  0  0  0  0  0  0  0  0
   18.7362  -20.1766  -14.3715 N   0  0  0  0  0  0  0  0  0  0  0  0
   17.5672  -19.5464  -14.8997 C   0  0  1  0  0  0  0  0  0  0  0  0
   17.0625  -20.3918  -16.0236 C   0  0  0  0  0  0  0  0  0  0  0  0
   15.8565  -19.9489  -16.7469 C   0  0  0  0  0  0  0  0  0  0  0  0
   15.3204  -20.8049  -17.7924 C   0  0  0  0  0  0  0  0  0  0  0  0
   15.7857  -21.9188  -18.0731 O   0  0  0  0  0  0  0  0  0  0  0  0
   16.5975  -19.0606  -13.9294 C   0  0  0  0  0  0  0  0  0  0  0  0
   15.7601  -18.1372  -14.1221 O   0  0  0  0  0  0  0  0  0  0  0  0
   14.2023  -20.3886  -18.5639 O   0  0  0  0  0  0  0  0  0  0  0  0
   16.6000  -19.6900  -12.6651 O   0  0  0  0  0  0  0  0  0  0  0  0
  2  1  1  6
  3  2  1  0
  4  5  1  0
  4  3  1  0
  6  5  1  0
  7  6  1  0
  8  9  2  0
  8  2  1  0
 10 11  1  0
 11 12  2  0
 13 14  1  0
 13 11  1  0
 15 14  1  1
 15 16  1  0
 16  8  1  0
 17 15  1  0
 18 17  2  0
 19 17  1  0
 20 19  1  0
 21 22  1  0
 20 21  1  6
 23 22  1  0
 23 24  2  0
 25 20  1  0
 25 28  1  0
 26 25  2  0
 27 23  1  0
M  END
$$$$
