KQE.pdb
     RDKit          3D

 28 27  0  0  1  0  0  0  0  0999 V2000
   21.6793  -22.0098  -15.7651 N   0  0  0  0  0  0  0  0  0  0  0  0
   21.2840  -20.7117  -15.3282 C   0  0  1  0  0  0  0  0  0  0  0  0
   20.7906  -20.6196  -13.9194 C   0  0  0  0  0  0  0  0  0  0  0  0
   19.8435  -21.6985  -13.5013 C   0  0  0  0  0  0  0  0  0  0  0  0
   18.6380  -21.7542  -14.3631 C   0  0  0  0  0  0  0  0  0  0  0  0
   17.7137  -22.8421  -13.7691 C   0  0  0  0  0  0  0  0  0  0  0  0
   16.5156  -22.9401  -14.5847 N   0  0  0  0  0  0  0  0  0  0  0  0
   22.3423  -19.6859  -15.5531 C   0  0  0  0  0  0  0  0  0  0  0  0
   22.1618  -18.5371  -15.0858 O   0  0  0  0  0  0  0  0  0  0  0  0
   28.2793  -20.8249  -17.0927 N   0  0  0  0  0  0  0  0  0  0  0  0
   27.5348  -21.2404  -15.9395 C   0  0  0  0  0  0  0  0  0  0  0  0
   27.9227  -22.1902  -15.2268 O   0  0  0  0  0  0  0  0  0  0  0  0
   26.2861  -20.5278  -15.5930 C   0  0  0  0  0  0  0  0  0  0  0  0
   25.8787  -19.6677  -16.7561 C   0  0  0  0  0  0  0  0  0  0  0  0
   24.5611  -18.9677  -16.5014 C   0  0  2  0  0  0  0  0  0  0  0  0
   23.5192  -19.9789  -16.2677 N   0  0  0  0  0  0  0  0  0  0  0  0
   24.1564  -18.1254  -17.6447 C   0  0  0  0  0  0  0  0  0  0  0  0
   23.8699  -18.6463  -18.7423 O   0  0  0  0  0  0  0  0  0  0  0  0
   24.0980  -16.7248  -17.4804 N   0  0  0  0  0  0  0  0  0  0  0  0
   23.4272  -15.8885  -18.4255 C   0  0  1  0  0  0  0  0  0  0  0  0
   22.0587  -16.4492  -18.6390 C   0  0  0  0  0  0  0  0  0  0  0  0
   20.9053  -15.7086  -18.0959 C   0  0  0  0  0  0  0  0  0  0  0  0
   19.6539  -15.7333  -18.8351 C   0  0  0  0  0  0  0  0  0  0  0  0
   19.2838  -16.6935  -19.5259 O   0  0  0  0  0  0  0  0  0  0  0  0
   23.5463  -14.4526  -18.2205 C   0  0  0  0  0  0  0  0  0  0  0  0
   23.7979  -13.8823  -17.1240 O   0  0  0  0  0  0  0  0  0  0  0  0
   18.7706  -14.6211  -18.7970 O   0  0  0  0  0  0  0  0  0  0  0  0
   23.3676  -13.6356  -19.3586 O   0  0  0  0  0  0  0  0  0  0  0  0
  2  1  1  1
  3  2  1  0
  4  5  1  0
  4  3  1  0
  6  5  1  0
  7  6  1  0
  8  9  2  0
  8  2  1  0
 10 11  1  0
 11 12  2  0
 13 14  1  0
 13 11  1  0
 15 14  1  6
 15 16  1  0
 16  8  1  0
 17 15  1  0
 18 17  2  0
 19 17  1  0
 20 19  1  0
 21 22  1  0
 20 21  1  1
 23 22  1  0
 23 24  2  0
 25 20  1  0
 25 28  1  0
 26 25  2  0
 27 23  1  0
M  END
$$$$
