KQE.pdb
     RDKit          3D

 28 27  0  0  1  0  0  0  0  0999 V2000
   23.9841  -13.2195  -17.4969 N   0  0  0  0  0  0  0  0  0  0  0  0
   23.9394  -12.1385  -16.5687 C   0  0  1  0  0  0  0  0  0  0  0  0
   25.1687  -11.2899  -16.4959 C   0  0  0  0  0  0  0  0  0  0  0  0
   26.3644  -11.9470  -15.8841 C   0  0  0  0  0  0  0  0  0  0  0  0
   27.3353  -12.4110  -16.9043 C   0  0  0  0  0  0  0  0  0  0  0  0
   28.5411  -13.0021  -16.1379 C   0  0  0  0  0  0  0  0  0  0  0  0
   29.5070  -13.5095  -17.0970 N   0  0  0  0  0  0  0  0  0  0  0  0
   22.7444  -11.2680  -16.7620 C   0  0  0  0  0  0  0  0  0  0  0  0
   22.4229  -10.9555  -17.9323 O   0  0  0  0  0  0  0  0  0  0  0  0
   17.4653  -12.4251  -14.8236 N   0  0  0  0  0  0  0  0  0  0  0  0
   17.1709  -11.0494  -15.1023 C   0  0  0  0  0  0  0  0  0  0  0  0
   16.0010  -10.6146  -15.0492 O   0  0  0  0  0  0  0  0  0  0  0  0
   18.2765  -10.1339  -15.4583 C   0  0  0  0  0  0  0  0  0  0  0  0
   19.5693  -10.8997  -15.4314 C   0  0  0  0  0  0  0  0  0  0  0  0
   20.7389  -10.0409  -15.8622 C   0  0  2  0  0  0  0  0  0  0  0  0
   21.9846  -10.7993  -15.6736 N   0  0  0  0  0  0  0  0  0  0  0  0
   20.8211   -8.7917  -15.0792 C   0  0  0  0  0  0  0  0  0  0  0  0
   21.6486   -8.6817  -14.1511 O   0  0  0  0  0  0  0  0  0  0  0  0
   19.9523   -7.7246  -15.3935 N   0  0  0  0  0  0  0  0  0  0  0  0
   20.1570   -6.4131  -14.8637 C   0  0  1  0  0  0  0  0  0  0  0  0
   21.5331   -5.9762  -15.2483 C   0  0  0  0  0  0  0  0  0  0  0  0
   21.9807   -4.6314  -14.8420 C   0  0  0  0  0  0  0  0  0  0  0  0
   23.3339   -4.2195  -15.1771 C   0  0  0  0  0  0  0  0  0  0  0  0
   24.1415   -4.9410  -15.7798 O   0  0  0  0  0  0  0  0  0  0  0  0
   19.0695   -5.4632  -15.0451 C   0  0  0  0  0  0  0  0  0  0  0  0
   18.1536   -5.5463  -15.9083 O   0  0  0  0  0  0  0  0  0  0  0  0
   23.8059   -2.9287  -14.8167 O   0  0  0  0  0  0  0  0  0  0  0  0
   19.0446   -4.3569  -14.1674 O   0  0  0  0  0  0  0  0  0  0  0  0
  2  1  1  6
  3  2  1  0
  4  5  1  0
  4  3  1  0
  6  5  1  0
  7  6  1  0
  8  9  2  0
  8  2  1  0
 10 11  1  0
 11 12  2  0
 13 14  1  0
 13 11  1  0
 15 14  1  1
 15 16  1  0
 16  8  1  0
 17 15  1  0
 18 17  2  0
 19 17  1  0
 20 19  1  0
 21 22  1  0
 20 21  1  6
 23 22  1  0
 23 24  2  0
 25 20  1  0
 25 28  1  0
 26 25  2  0
 27 23  1  0
M  END
$$$$
