KQE.pdb
     RDKit          3D

 28 27  0  0  1  0  0  0  0  0999 V2000
   27.7326  -20.6020  -15.5419 N   0  0  0  0  0  0  0  0  0  0  0  0
   26.8656  -21.7237  -15.6914 C   0  0  1  0  0  0  0  0  0  0  0  0
   27.5187  -23.0672  -15.6196 C   0  0  0  0  0  0  0  0  0  0  0  0
   27.9168  -23.6562  -16.9350 C   0  0  0  0  0  0  0  0  0  0  0  0
   28.8255  -22.7669  -17.6979 C   0  0  0  0  0  0  0  0  0  0  0  0
   29.0342  -23.4225  -19.0827 C   0  0  0  0  0  0  0  0  0  0  0  0
   30.4178  -23.8494  -19.1989 N   0  0  0  0  0  0  0  0  0  0  0  0
   25.7090  -21.6815  -14.7515 C   0  0  0  0  0  0  0  0  0  0  0  0
   24.8339  -22.5733  -14.8496 O   0  0  0  0  0  0  0  0  0  0  0  0
   25.2394  -21.5152   -8.4847 N   0  0  0  0  0  0  0  0  0  0  0  0
   24.6713  -20.8456   -9.6186 C   0  0  0  0  0  0  0  0  0  0  0  0
   23.4366  -20.6886   -9.7255 O   0  0  0  0  0  0  0  0  0  0  0  0
   25.5685  -20.3341  -10.6772 C   0  0  0  0  0  0  0  0  0  0  0  0
   24.7387  -19.6619  -11.7346 C   0  0  0  0  0  0  0  0  0  0  0  0
   24.4201  -20.6006  -12.8784 C   0  0  2  0  0  0  0  0  0  0  0  0
   25.5843  -20.6766  -13.7737 N   0  0  0  0  0  0  0  0  0  0  0  0
   23.2524  -20.1417  -13.6569 C   0  0  0  0  0  0  0  0  0  0  0  0
   23.3511  -19.1630  -14.4253 O   0  0  0  0  0  0  0  0  0  0  0  0
   22.0241  -20.8236  -13.5207 N   0  0  0  0  0  0  0  0  0  0  0  0
   20.8561  -20.4093  -14.2327 C   0  0  1  0  0  0  0  0  0  0  0  0
   20.9609  -20.9377  -15.6264 C   0  0  0  0  0  0  0  0  0  0  0  0
   19.8385  -20.7000  -16.5524 C   0  0  0  0  0  0  0  0  0  0  0  0
   19.7489  -21.5089  -17.7568 C   0  0  0  0  0  0  0  0  0  0  0  0
   20.4852  -21.3567  -18.7421 O   0  0  0  0  0  0  0  0  0  0  0  0
   19.5850  -20.5681  -13.5421 C   0  0  0  0  0  0  0  0  0  0  0  0
   18.6144  -19.7639  -13.5889 O   0  0  0  0  0  0  0  0  0  0  0  0
   18.7813  -22.5442  -17.8610 O   0  0  0  0  0  0  0  0  0  0  0  0
   19.4342  -21.7325  -12.7571 O   0  0  0  0  0  0  0  0  0  0  0  0
  2  1  1  1
  3  2  1  0
  4  5  1  0
  4  3  1  0
  6  5  1  0
  7  6  1  0
  8  9  2  0
  8  2  1  0
 10 11  1  0
 11 12  2  0
 13 14  1  0
 13 11  1  0
 15 14  1  1
 15 16  1  0
 16  8  1  0
 17 15  1  0
 18 17  2  0
 19 17  1  0
 20 19  1  0
 21 22  1  0
 20 21  1  6
 23 22  1  0
 23 24  2  0
 25 20  1  0
 25 28  1  0
 26 25  2  0
 27 23  1  0
M  END
$$$$
