KQE.pdb
     RDKit          3D

 28 27  0  0  1  0  0  0  0  0999 V2000
   21.1551  -28.3835  -11.2064 N   0  0  0  0  0  0  0  0  0  0  0  0
   19.9186  -27.6792  -11.2915 C   0  0  1  0  0  0  0  0  0  0  0  0
   18.7065  -28.5175  -11.5459 C   0  0  0  0  0  0  0  0  0  0  0  0
   18.5225  -28.9634  -12.9612 C   0  0  0  0  0  0  0  0  0  0  0  0
   17.9317  -27.9031  -13.8130 C   0  0  0  0  0  0  0  0  0  0  0  0
   17.6291  -28.5487  -15.1850 C   0  0  0  0  0  0  0  0  0  0  0  0
   16.9304  -27.5840  -16.0166 N   0  0  0  0  0  0  0  0  0  0  0  0
   19.6781  -26.8017  -10.1104 C   0  0  0  0  0  0  0  0  0  0  0  0
   20.2661  -27.0776   -9.0386 O   0  0  0  0  0  0  0  0  0  0  0  0
   17.3310  -21.1346  -10.7180 N   0  0  0  0  0  0  0  0  0  0  0  0
   18.7437  -21.3633  -10.8112 C   0  0  0  0  0  0  0  0  0  0  0  0
   19.5016  -20.5224  -11.3394 O   0  0  0  0  0  0  0  0  0  0  0  0
   19.3074  -22.6191  -10.2705 C   0  0  0  0  0  0  0  0  0  0  0  0
   18.2052  -23.4054   -9.6184 C   0  0  0  0  0  0  0  0  0  0  0  0
   18.7056  -24.7250   -9.0714 C   0  0  2  0  0  0  0  0  0  0  0  0
   18.8180  -25.6893  -10.1760 N   0  0  0  0  0  0  0  0  0  0  0  0
   17.7935  -25.2778   -8.0503 C   0  0  0  0  0  0  0  0  0  0  0  0
   16.6709  -25.7151   -8.3769 O   0  0  0  0  0  0  0  0  0  0  0  0
   18.2072  -25.3051   -6.7011 N   0  0  0  0  0  0  0  0  0  0  0  0
   17.3255  -25.7240   -5.6571 C   0  0  1  0  0  0  0  0  0  0  0  0
   18.1630  -26.1107   -4.4816 C   0  0  0  0  0  0  0  0  0  0  0  0
   17.4949  -26.7101   -3.3119 C   0  0  0  0  0  0  0  0  0  0  0  0
   18.3169  -27.1897   -2.2131 C   0  0  0  0  0  0  0  0  0  0  0  0
   19.5554  -27.1443   -2.2120 O   0  0  0  0  0  0  0  0  0  0  0  0
   16.1633  -24.8829   -5.4131 C   0  0  0  0  0  0  0  0  0  0  0  0
   16.1261  -23.6267   -5.5203 O   0  0  0  0  0  0  0  0  0  0  0  0
   17.7168  -27.7501   -1.0535 O   0  0  0  0  0  0  0  0  0  0  0  0
   14.9758  -25.5434   -5.0278 O   0  0  0  0  0  0  0  0  0  0  0  0
  2  1  1  1
  3  2  1  0
  4  5  1  0
  4  3  1  0
  6  5  1  0
  7  6  1  0
  8  9  2  0
  8  2  1  0
 10 11  1  0
 11 12  2  0
 13 14  1  0
 13 11  1  0
 15 14  1  6
 15 16  1  0
 16  8  1  0
 17 15  1  0
 18 17  2  0
 19 17  1  0
 20 19  1  0
 21 22  1  0
 20 21  1  1
 23 22  1  0
 23 24  2  0
 25 20  1  0
 25 28  1  0
 26 25  2  0
 27 23  1  0
M  END
$$$$
