KQE.pdb
     RDKit          3D

 28 27  0  0  1  0  0  0  0  0999 V2000
   19.2537  -14.1040  -16.2392 N   0  0  0  0  0  0  0  0  0  0  0  0
   18.2496  -13.0946  -16.3095 C   0  0  1  0  0  0  0  0  0  0  0  0
   17.3305  -13.0056  -15.1331 C   0  0  0  0  0  0  0  0  0  0  0  0
   16.4882  -14.2161  -14.8861 C   0  0  0  0  0  0  0  0  0  0  0  0
   15.3823  -14.3417  -15.8659 C   0  0  0  0  0  0  0  0  0  0  0  0
   14.5297  -15.5539  -15.4247 C   0  0  0  0  0  0  0  0  0  0  0  0
   13.3338  -15.6139  -16.2472 N   0  0  0  0  0  0  0  0  0  0  0  0
   18.8140  -11.7463  -16.6034 C   0  0  0  0  0  0  0  0  0  0  0  0
   19.8193  -11.3715  -15.9558 O   0  0  0  0  0  0  0  0  0  0  0  0
   16.5038   -7.4353  -20.3144 N   0  0  0  0  0  0  0  0  0  0  0  0
   17.8668   -6.9890  -20.3020 C   0  0  0  0  0  0  0  0  0  0  0  0
   18.1871   -5.8757  -20.7695 O   0  0  0  0  0  0  0  0  0  0  0  0
   18.9071   -7.8670  -19.7242 C   0  0  0  0  0  0  0  0  0  0  0  0
   18.2610   -9.1373  -19.2473 C   0  0  0  0  0  0  0  0  0  0  0  0
   18.8575   -9.6134  -17.9402 C   0  0  2  0  0  0  0  0  0  0  0  0
   18.2484  -10.9019  -17.5774 N   0  0  0  0  0  0  0  0  0  0  0  0
   18.6200   -8.6516  -16.8453 C   0  0  0  0  0  0  0  0  0  0  0  0
   17.6383   -8.7885  -16.0867 O   0  0  0  0  0  0  0  0  0  0  0  0
   19.5169   -7.5763  -16.6680 N   0  0  0  0  0  0  0  0  0  0  0  0
   19.3243   -6.6041  -15.6382 C   0  0  1  0  0  0  0  0  0  0  0  0
   20.6654   -6.2710  -15.0698 C   0  0  0  0  0  0  0  0  0  0  0  0
   20.7338   -5.3162  -13.9484 C   0  0  0  0  0  0  0  0  0  0  0  0
   22.0362   -4.9959  -13.3878 C   0  0  0  0  0  0  0  0  0  0  0  0
   22.8534   -5.8512  -13.0182 O   0  0  0  0  0  0  0  0  0  0  0  0
   18.4268   -5.5010  -15.9472 C   0  0  0  0  0  0  0  0  0  0  0  0
   18.3276   -4.9209  -17.0628 O   0  0  0  0  0  0  0  0  0  0  0  0
   22.4433   -3.6433  -13.2341 O   0  0  0  0  0  0  0  0  0  0  0  0
   17.5939   -5.0522  -14.8986 O   0  0  0  0  0  0  0  0  0  0  0  0
  2  1  1  1
  3  2  1  0
  4  5  1  0
  4  3  1  0
  6  5  1  0
  7  6  1  0
  8  9  2  0
  8  2  1  0
 10 11  1  0
 11 12  2  0
 13 14  1  0
 13 11  1  0
 15 14  1  6
 15 16  1  0
 16  8  1  0
 17 15  1  0
 18 17  2  0
 19 17  1  0
 20 19  1  0
 21 22  1  0
 20 21  1  6
 23 22  1  0
 23 24  2  0
 25 20  1  0
 25 28  1  0
 26 25  2  0
 27 23  1  0
M  END
$$$$
