KQE.pdb
     RDKit          3D

 28 27  0  0  1  0  0  0  0  0999 V2000
   19.4748  -11.1332  -17.4561 N   0  0  0  0  0  0  0  0  0  0  0  0
   18.4644  -10.6533  -16.5724 C   0  0  1  0  0  0  0  0  0  0  0  0
   17.9767  -11.6280  -15.5483 C   0  0  0  0  0  0  0  0  0  0  0  0
   17.4044  -12.8970  -16.0942 C   0  0  0  0  0  0  0  0  0  0  0  0
   16.9954  -13.8367  -15.0225 C   0  0  0  0  0  0  0  0  0  0  0  0
   16.5242  -15.1333  -15.7207 C   0  0  0  0  0  0  0  0  0  0  0  0
   16.3056  -16.1582  -14.7147 N   0  0  0  0  0  0  0  0  0  0  0  0
   18.8494   -9.3782  -15.9025 C   0  0  0  0  0  0  0  0  0  0  0  0
   18.0201   -8.8409  -15.1316 O   0  0  0  0  0  0  0  0  0  0  0  0
   21.9424   -7.3973  -12.6364 N   0  0  0  0  0  0  0  0  0  0  0  0
   22.3560   -6.1781  -13.2684 C   0  0  0  0  0  0  0  0  0  0  0  0
   22.6789   -5.1772  -12.5941 O   0  0  0  0  0  0  0  0  0  0  0  0
   22.3990   -6.1107  -14.7451 C   0  0  0  0  0  0  0  0  0  0  0  0
   21.9588   -7.4340  -15.3050 C   0  0  0  0  0  0  0  0  0  0  0  0
   20.4610   -7.4829  -15.5171 C   0  0  2  0  0  0  0  0  0  0  0  0
   20.1045   -8.7778  -16.1163 N   0  0  0  0  0  0  0  0  0  0  0  0
   19.9971   -6.4031  -16.4110 C   0  0  0  0  0  0  0  0  0  0  0  0
   20.3327   -6.3908  -17.6132 O   0  0  0  0  0  0  0  0  0  0  0  0
   19.1699   -5.3856  -15.8886 N   0  0  0  0  0  0  0  0  0  0  0  0
   18.8026   -4.2462  -16.6693 C   0  0  1  0  0  0  0  0  0  0  0  0
   17.7750   -3.4801  -15.9014 C   0  0  0  0  0  0  0  0  0  0  0  0
   17.2427   -2.2374  -16.4897 C   0  0  0  0  0  0  0  0  0  0  0  0
   16.2210   -1.5056  -15.7592 C   0  0  0  0  0  0  0  0  0  0  0  0
   15.8243   -1.8243  -14.6292 O   0  0  0  0  0  0  0  0  0  0  0  0
   19.8927   -3.4967  -17.2759 C   0  0  0  0  0  0  0  0  0  0  0  0
   20.9141   -3.0639  -16.6756 O   0  0  0  0  0  0  0  0  0  0  0  0
   15.6121   -0.3543  -16.3274 O   0  0  0  0  0  0  0  0  0  0  0  0
   19.7894   -3.2420  -18.6612 O   0  0  0  0  0  0  0  0  0  0  0  0
  2  1  1  1
  3  2  1  0
  4  5  1  0
  4  3  1  0
  6  5  1  0
  7  6  1  0
  8  9  2  0
  8  2  1  0
 10 11  1  0
 11 12  2  0
 13 14  1  0
 13 11  1  0
 15 14  1  6
 15 16  1  0
 16  8  1  0
 17 15  1  0
 18 17  2  0
 19 17  1  0
 20 19  1  0
 21 22  1  0
 20 21  1  1
 23 22  1  0
 23 24  2  0
 25 20  1  0
 25 28  1  0
 26 25  2  0
 27 23  1  0
M  END
$$$$
