KQE.pdb
     RDKit          3D

 28 27  0  0  1  0  0  0  0  0999 V2000
   23.8273  -17.5540  -17.7366 N   0  0  0  0  0  0  0  0  0  0  0  0
   22.6382  -17.3701  -18.5010 C   0  0  1  0  0  0  0  0  0  0  0  0
   22.5363  -18.1801  -19.7540 C   0  0  0  0  0  0  0  0  0  0  0  0
   23.7564  -18.1780  -20.6183 C   0  0  0  0  0  0  0  0  0  0  0  0
   24.1756  -16.8070  -20.9968 C   0  0  0  0  0  0  0  0  0  0  0  0
   25.3760  -16.9564  -21.9600 C   0  0  0  0  0  0  0  0  0  0  0  0
   25.8753  -15.6353  -22.3002 N   0  0  0  0  0  0  0  0  0  0  0  0
   21.4019  -17.5531  -17.6880 C   0  0  0  0  0  0  0  0  0  0  0  0
   20.3212  -17.7519  -18.2907 O   0  0  0  0  0  0  0  0  0  0  0  0
   21.1275  -19.2983  -11.7564 N   0  0  0  0  0  0  0  0  0  0  0  0
   19.7500  -18.9561  -11.9622 C   0  0  0  0  0  0  0  0  0  0  0  0
   18.9020  -19.1155  -11.0589 O   0  0  0  0  0  0  0  0  0  0  0  0
   19.3321  -18.4052  -13.2695 C   0  0  0  0  0  0  0  0  0  0  0  0
   20.5466  -18.2448  -14.1399 C   0  0  0  0  0  0  0  0  0  0  0  0
   20.2005  -17.6251  -15.4768 C   0  0  2  0  0  0  0  0  0  0  0  0
   21.4260  -17.5074  -16.2813 N   0  0  0  0  0  0  0  0  0  0  0  0
   19.6039  -16.2833  -15.3224 C   0  0  0  0  0  0  0  0  0  0  0  0
   20.3077  -15.3169  -14.9633 O   0  0  0  0  0  0  0  0  0  0  0  0
   18.2284  -16.1078  -15.5858 N   0  0  0  0  0  0  0  0  0  0  0  0
   17.5797  -14.8529  -15.3685 C   0  0  1  0  0  0  0  0  0  0  0  0
   16.8342  -14.5038  -16.6155 C   0  0  0  0  0  0  0  0  0  0  0  0
   16.0550  -13.2523  -16.6390 C   0  0  0  0  0  0  0  0  0  0  0  0
   15.3356  -12.9052  -17.8536 C   0  0  0  0  0  0  0  0  0  0  0  0
   14.6646  -11.8711  -17.9819 O   0  0  0  0  0  0  0  0  0  0  0  0
   16.8879  -14.6916  -14.0984 C   0  0  0  0  0  0  0  0  0  0  0  0
   16.4419  -15.6255  -13.3774 O   0  0  0  0  0  0  0  0  0  0  0  0
   15.3715  -13.7645  -18.9846 O   0  0  0  0  0  0  0  0  0  0  0  0
   16.7109  -13.3675  -13.6397 O   0  0  0  0  0  0  0  0  0  0  0  0
  2  1  1  1
  3  2  1  0
  4  5  1  0
  4  3  1  0
  6  5  1  0
  7  6  1  0
  8  9  2  0
  8  2  1  0
 10 11  1  0
 11 12  2  0
 13 14  1  0
 13 11  1  0
 15 14  1  1
 15 16  1  0
 16  8  1  0
 17 15  1  0
 18 17  2  0
 19 17  1  0
 20 19  1  0
 21 22  1  0
 20 21  1  6
 23 22  1  0
 23 24  2  0
 25 20  1  0
 25 28  1  0
 26 25  2  0
 27 23  1  0
M  END
$$$$
