KQE.pdb
     RDKit          3D

 28 27  0  0  1  0  0  0  0  0999 V2000
   23.4527  -15.5477  -16.9635 N   0  0  0  0  0  0  0  0  0  0  0  0
   22.7751  -14.3813  -17.4245 C   0  0  1  0  0  0  0  0  0  0  0  0
   21.2871  -14.3894  -17.2754 C   0  0  0  0  0  0  0  0  0  0  0  0
   20.5846  -15.5355  -17.9303 C   0  0  0  0  0  0  0  0  0  0  0  0
   19.1097  -15.3871  -17.8929 C   0  0  0  0  0  0  0  0  0  0  0  0
   18.5155  -16.6653  -18.5285 C   0  0  0  0  0  0  0  0  0  0  0  0
   17.0658  -16.5836  -18.4853 N   0  0  0  0  0  0  0  0  0  0  0  0
   23.3277  -13.1285  -16.8346 C   0  0  0  0  0  0  0  0  0  0  0  0
   23.1161  -12.9027  -15.6201 O   0  0  0  0  0  0  0  0  0  0  0  0
   27.9720   -9.7866  -19.2388 N   0  0  0  0  0  0  0  0  0  0  0  0
   27.6444   -8.9668  -18.1086 C   0  0  0  0  0  0  0  0  0  0  0  0
   28.3542   -7.9892  -17.7912 O   0  0  0  0  0  0  0  0  0  0  0  0
   26.4434   -9.2898  -17.3084 C   0  0  0  0  0  0  0  0  0  0  0  0
   25.8525  -10.5751  -17.8158 C   0  0  0  0  0  0  0  0  0  0  0  0
   24.6295  -10.9819  -17.0222 C   0  0  2  0  0  0  0  0  0  0  0  0
   24.0693  -12.2113  -17.6030 N   0  0  0  0  0  0  0  0  0  0  0  0
   23.5901   -9.9333  -17.0385 C   0  0  0  0  0  0  0  0  0  0  0  0
   22.9008   -9.7435  -18.0618 O   0  0  0  0  0  0  0  0  0  0  0  0
   23.3864   -9.1488  -15.8830 N   0  0  0  0  0  0  0  0  0  0  0  0
   22.2733   -8.2595  -15.7697 C   0  0  1  0  0  0  0  0  0  0  0  0
   21.0333   -9.0436  -16.0529 C   0  0  0  0  0  0  0  0  0  0  0  0
   19.7297   -8.3706  -15.9066 C   0  0  0  0  0  0  0  0  0  0  0  0
   18.5200   -9.1420  -16.1403 C   0  0  0  0  0  0  0  0  0  0  0  0
   18.2657   -9.7118  -17.2111 O   0  0  0  0  0  0  0  0  0  0  0  0
   22.2655   -7.3737  -14.6151 C   0  0  0  0  0  0  0  0  0  0  0  0
   22.9839   -7.4971  -13.5858 O   0  0  0  0  0  0  0  0  0  0  0  0
   17.5436   -9.2814  -15.1175 O   0  0  0  0  0  0  0  0  0  0  0  0
   21.3742   -6.2792  -14.6652 O   0  0  0  0  0  0  0  0  0  0  0  0
  2  1  1  1
  3  2  1  0
  4  5  1  0
  4  3  1  0
  6  5  1  0
  7  6  1  0
  8  9  2  0
  8  2  1  0
 10 11  1  0
 11 12  2  0
 13 14  1  0
 13 11  1  0
 15 14  1  6
 15 16  1  0
 16  8  1  0
 17 15  1  0
 18 17  2  0
 19 17  1  0
 20 19  1  0
 21 22  1  0
 20 21  1  1
 23 22  1  0
 23 24  2  0
 25 20  1  0
 25 28  1  0
 26 25  2  0
 27 23  1  0
M  END
$$$$
