KQE.pdb
     RDKit          3D

 28 27  0  0  1  0  0  0  0  0999 V2000
   27.9818  -21.9232  -15.9093 N   0  0  0  0  0  0  0  0  0  0  0  0
   27.0791  -20.8551  -15.6326 C   0  0  1  0  0  0  0  0  0  0  0  0
   26.5418  -20.1297  -16.8250 C   0  0  0  0  0  0  0  0  0  0  0  0
   27.4649  -20.0564  -17.9990 C   0  0  0  0  0  0  0  0  0  0  0  0
   26.9251  -19.2057  -19.0870 C   0  0  0  0  0  0  0  0  0  0  0  0
   27.9667  -19.2270  -20.2296 C   0  0  0  0  0  0  0  0  0  0  0  0
   29.0887  -18.3811  -19.8610 N   0  0  0  0  0  0  0  0  0  0  0  0
   25.9497  -21.2741  -14.7542 C   0  0  0  0  0  0  0  0  0  0  0  0
   25.1737  -22.1650  -15.1723 O   0  0  0  0  0  0  0  0  0  0  0  0
   25.4103  -20.0049   -8.6511 N   0  0  0  0  0  0  0  0  0  0  0  0
   26.4288  -20.7857   -9.2914 C   0  0  0  0  0  0  0  0  0  0  0  0
   27.4928  -21.0694   -8.7016 O   0  0  0  0  0  0  0  0  0  0  0  0
   26.2096  -21.2605  -10.6747 C   0  0  0  0  0  0  0  0  0  0  0  0
   24.9325  -20.6645  -11.1965 C   0  0  0  0  0  0  0  0  0  0  0  0
   24.6389  -21.1176  -12.6105 C   0  0  2  0  0  0  0  0  0  0  0  0
   25.7429  -20.6977  -13.4867 N   0  0  0  0  0  0  0  0  0  0  0  0
   23.3806  -20.5391  -13.1228 C   0  0  0  0  0  0  0  0  0  0  0  0
   23.3953  -19.4784  -13.7805 O   0  0  0  0  0  0  0  0  0  0  0  0
   22.1621  -21.2007  -12.8590 N   0  0  0  0  0  0  0  0  0  0  0  0
   20.9341  -20.7695  -13.4496 C   0  0  1  0  0  0  0  0  0  0  0  0
   21.1440  -20.6855  -14.9266 C   0  0  0  0  0  0  0  0  0  0  0  0
   20.9709  -21.9096  -15.7299 C   0  0  0  0  0  0  0  0  0  0  0  0
   21.1546  -21.8271  -17.1695 C   0  0  0  0  0  0  0  0  0  0  0  0
   21.3431  -20.7637  -17.7774 O   0  0  0  0  0  0  0  0  0  0  0  0
   19.7220  -21.4192  -12.9738 C   0  0  0  0  0  0  0  0  0  0  0  0
   19.6712  -22.4889  -12.3075 O   0  0  0  0  0  0  0  0  0  0  0  0
   21.1255  -23.0009  -17.9696 O   0  0  0  0  0  0  0  0  0  0  0  0
   18.5003  -20.7835  -13.2872 O   0  0  0  0  0  0  0  0  0  0  0  0
  2  1  1  6
  3  2  1  0
  4  5  1  0
  4  3  1  0
  6  5  1  0
  7  6  1  0
  8  9  2  0
  8  2  1  0
 10 11  1  0
 11 12  2  0
 13 14  1  0
 13 11  1  0
 15 14  1  1
 15 16  1  0
 16  8  1  0
 17 15  1  0
 18 17  2  0
 19 17  1  0
 20 19  1  0
 21 22  1  0
 20 21  1  6
 23 22  1  0
 23 24  2  0
 25 20  1  0
 25 28  1  0
 26 25  2  0
 27 23  1  0
M  END
$$$$
