KQE.pdb
     RDKit          3D

 28 27  0  0  1  0  0  0  0  0999 V2000
   27.0315  -22.9374  -16.2471 N   0  0  0  0  0  0  0  0  0  0  0  0
   25.7180  -23.4684  -16.4050 C   0  0  1  0  0  0  0  0  0  0  0  0
   25.6360  -24.9377  -16.6715 C   0  0  0  0  0  0  0  0  0  0  0  0
   26.7795  -25.5126  -17.4446 C   0  0  0  0  0  0  0  0  0  0  0  0
   27.7894  -26.1498  -16.5654 C   0  0  0  0  0  0  0  0  0  0  0  0
   28.9644  -26.5807  -17.4734 C   0  0  0  0  0  0  0  0  0  0  0  0
   30.0776  -26.9977  -16.6384 N   0  0  0  0  0  0  0  0  0  0  0  0
   24.8191  -23.1177  -15.2684 C   0  0  0  0  0  0  0  0  0  0  0  0
   23.7305  -23.7299  -15.1641 O   0  0  0  0  0  0  0  0  0  0  0  0
   26.7427  -20.7161   -9.9394 N   0  0  0  0  0  0  0  0  0  0  0  0
   25.3373  -20.7989   -9.6659 C   0  0  0  0  0  0  0  0  0  0  0  0
   24.8900  -20.6084   -8.5152 O   0  0  0  0  0  0  0  0  0  0  0  0
   24.4059  -21.1159  -10.7700 C   0  0  0  0  0  0  0  0  0  0  0  0
   25.2022  -21.3790  -12.0171 C   0  0  0  0  0  0  0  0  0  0  0  0
   24.3207  -21.8370  -13.1591 C   0  0  2  0  0  0  0  0  0  0  0  0
   25.1645  -22.1293  -14.3275 N   0  0  0  0  0  0  0  0  0  0  0  0
   23.3300  -20.8086  -13.5350 C   0  0  0  0  0  0  0  0  0  0  0  0
   23.6974  -19.6461  -13.8026 O   0  0  0  0  0  0  0  0  0  0  0  0
   21.9632  -21.1571  -13.5875 N   0  0  0  0  0  0  0  0  0  0  0  0
   20.9513  -20.1788  -13.8359 C   0  0  1  0  0  0  0  0  0  0  0  0
   19.7646  -20.8857  -14.4057 C   0  0  0  0  0  0  0  0  0  0  0  0
   18.5551  -20.0969  -14.7033 C   0  0  0  0  0  0  0  0  0  0  0  0
   17.3878  -20.7868  -15.2272 C   0  0  0  0  0  0  0  0  0  0  0  0
   17.0169  -20.7091  -16.4072 O   0  0  0  0  0  0  0  0  0  0  0  0
   20.7169  -19.2054  -12.7798 C   0  0  0  0  0  0  0  0  0  0  0  0
   20.7474  -19.4393  -11.5408 O   0  0  0  0  0  0  0  0  0  0  0  0
   16.5945  -21.6081  -14.3816 O   0  0  0  0  0  0  0  0  0  0  0  0
   20.4367  -17.8835  -13.1906 O   0  0  0  0  0  0  0  0  0  0  0  0
  2  1  1  1
  3  2  1  0
  4  5  1  0
  4  3  1  0
  6  5  1  0
  7  6  1  0
  8  9  2  0
  8  2  1  0
 10 11  1  0
 11 12  2  0
 13 14  1  0
 13 11  1  0
 15 14  1  1
 15 16  1  0
 16  8  1  0
 17 15  1  0
 18 17  2  0
 19 17  1  0
 20 19  1  0
 21 22  1  0
 20 21  1  1
 23 22  1  0
 23 24  2  0
 25 20  1  0
 25 28  1  0
 26 25  2  0
 27 23  1  0
M  END
$$$$
