KQE.pdb
     RDKit          3D

 28 27  0  0  1  0  0  0  0  0999 V2000
   28.2140  -18.5517  -15.6318 N   0  0  0  0  0  0  0  0  0  0  0  0
   26.9542  -18.7252  -16.2759 C   0  0  1  0  0  0  0  0  0  0  0  0
   26.9997  -19.3124  -17.6505 C   0  0  0  0  0  0  0  0  0  0  0  0
   28.2056  -18.9553  -18.4593 C   0  0  0  0  0  0  0  0  0  0  0  0
   28.0926  -19.4063  -19.8674 C   0  0  0  0  0  0  0  0  0  0  0  0
   29.4374  -19.0717  -20.5533 C   0  0  0  0  0  0  0  0  0  0  0  0
   29.3882  -19.5227  -21.9333 N   0  0  0  0  0  0  0  0  0  0  0  0
   25.9850  -19.4897  -15.4398 C   0  0  0  0  0  0  0  0  0  0  0  0
   25.4591  -20.5153  -15.9319 O   0  0  0  0  0  0  0  0  0  0  0  0
   25.2987  -21.9126   -9.9984 N   0  0  0  0  0  0  0  0  0  0  0  0
   26.1563  -21.5502  -11.0892 C   0  0  0  0  0  0  0  0  0  0  0  0
   26.7645  -22.4186  -11.7500 O   0  0  0  0  0  0  0  0  0  0  0  0
   26.3196  -20.1212  -11.4332 C   0  0  0  0  0  0  0  0  0  0  0  0
   24.9858  -19.5651  -11.8455 C   0  0  0  0  0  0  0  0  0  0  0  0
   24.6936  -19.8332  -13.3062 C   0  0  2  0  0  0  0  0  0  0  0  0
   25.6560  -19.0878  -14.1314 N   0  0  0  0  0  0  0  0  0  0  0  0
   23.3269  -19.4164  -13.6787 C   0  0  0  0  0  0  0  0  0  0  0  0
   23.0404  -18.2053  -13.7751 O   0  0  0  0  0  0  0  0  0  0  0  0
   22.3494  -20.4047  -13.9238 N   0  0  0  0  0  0  0  0  0  0  0  0
   20.9785  -20.0629  -14.1396 C   0  0  1  0  0  0  0  0  0  0  0  0
   20.6236  -20.4628  -15.5349 C   0  0  0  0  0  0  0  0  0  0  0  0
   20.9330  -19.5279  -16.6321 C   0  0  0  0  0  0  0  0  0  0  0  0
   20.5847  -19.9117  -17.9902 C   0  0  0  0  0  0  0  0  0  0  0  0
   19.9998  -20.9661  -18.2767 O   0  0  0  0  0  0  0  0  0  0  0  0
   20.0476  -20.4133  -13.0772 C   0  0  0  0  0  0  0  0  0  0  0  0
   20.2709  -21.2262  -12.1391 O   0  0  0  0  0  0  0  0  0  0  0  0
   20.9102  -19.0669  -19.0853 O   0  0  0  0  0  0  0  0  0  0  0  0
   18.7875  -19.7762  -13.1066 O   0  0  0  0  0  0  0  0  0  0  0  0
  2  1  1  1
  3  2  1  0
  4  5  1  0
  4  3  1  0
  6  5  1  0
  7  6  1  0
  8  9  2  0
  8  2  1  0
 10 11  1  0
 11 12  2  0
 13 14  1  0
 13 11  1  0
 15 14  1  1
 15 16  1  0
 16  8  1  0
 17 15  1  0
 18 17  2  0
 19 17  1  0
 20 19  1  0
 21 22  1  0
 20 21  1  6
 23 22  1  0
 23 24  2  0
 25 20  1  0
 25 28  1  0
 26 25  2  0
 27 23  1  0
M  END
$$$$
