KQE.pdb
     RDKit          3D

 28 27  0  0  1  0  0  0  0  0999 V2000
   13.7084  -12.0678  -12.4678 N   0  0  0  0  0  0  0  0  0  0  0  0
   15.0763  -11.6727  -12.5384 C   0  0  1  0  0  0  0  0  0  0  0  0
   15.8536  -12.2164  -13.6945 C   0  0  0  0  0  0  0  0  0  0  0  0
   16.0128  -13.7030  -13.7160 C   0  0  0  0  0  0  0  0  0  0  0  0
   15.0453  -14.3595  -14.6281 C   0  0  0  0  0  0  0  0  0  0  0  0
   15.3689  -15.8714  -14.6099 C   0  0  0  0  0  0  0  0  0  0  0  0
   14.4393  -16.5634  -15.4858 N   0  0  0  0  0  0  0  0  0  0  0  0
   15.2480  -10.1930  -12.4749 C   0  0  0  0  0  0  0  0  0  0  0  0
   14.5604   -9.4838  -13.2462 O   0  0  0  0  0  0  0  0  0  0  0  0
   15.2485   -6.7475   -7.7540 N   0  0  0  0  0  0  0  0  0  0  0  0
   14.1771   -7.1612   -8.6130 C   0  0  0  0  0  0  0  0  0  0  0  0
   12.9965   -7.1917   -8.2057 O   0  0  0  0  0  0  0  0  0  0  0  0
   14.4816   -7.5579  -10.0047 C   0  0  0  0  0  0  0  0  0  0  0  0
   15.9733   -7.6127  -10.1791 C   0  0  0  0  0  0  0  0  0  0  0  0
   16.3593   -8.1335  -11.5468 C   0  0  2  0  0  0  0  0  0  0  0  0
   16.1519   -9.5891  -11.5807 N   0  0  0  0  0  0  0  0  0  0  0  0
   17.7728   -7.8484  -11.8645 C   0  0  0  0  0  0  0  0  0  0  0  0
   18.6701   -8.6454  -11.5214 O   0  0  0  0  0  0  0  0  0  0  0  0
   18.0958   -6.6637  -12.5605 N   0  0  0  0  0  0  0  0  0  0  0  0
   19.4191   -6.4155  -13.0400 C   0  0  1  0  0  0  0  0  0  0  0  0
   19.9118   -7.6692  -13.6866 C   0  0  0  0  0  0  0  0  0  0  0  0
   21.2318   -7.6471  -14.3432 C   0  0  0  0  0  0  0  0  0  0  0  0
   21.7047   -8.8589  -14.9922 C   0  0  0  0  0  0  0  0  0  0  0  0
   21.5487   -9.9949  -14.5218 O   0  0  0  0  0  0  0  0  0  0  0  0
   19.6281   -5.1613  -13.7478 C   0  0  0  0  0  0  0  0  0  0  0  0
   18.7581   -4.5362  -14.4137 O   0  0  0  0  0  0  0  0  0  0  0  0
   22.3890   -8.7921  -16.2355 O   0  0  0  0  0  0  0  0  0  0  0  0
   20.9222   -4.6009  -13.6708 O   0  0  0  0  0  0  0  0  0  0  0  0
  2  1  1  6
  3  2  1  0
  4  5  1  0
  4  3  1  0
  6  5  1  0
  7  6  1  0
  8  9  2  0
  8  2  1  0
 10 11  1  0
 11 12  2  0
 13 14  1  0
 13 11  1  0
 15 14  1  1
 15 16  1  0
 16  8  1  0
 17 15  1  0
 18 17  2  0
 19 17  1  0
 20 19  1  0
 21 22  1  0
 20 21  1  6
 23 22  1  0
 23 24  2  0
 25 20  1  0
 25 28  1  0
 26 25  2  0
 27 23  1  0
M  END
$$$$
