KQE.pdb
     RDKit          3D

 28 27  0  0  1  0  0  0  0  0999 V2000
   27.8206  -23.4542  -19.0801 N   0  0  0  0  0  0  0  0  0  0  0  0
   28.0748  -23.0186  -17.7468 C   0  0  1  0  0  0  0  0  0  0  0  0
   29.4830  -22.6113  -17.4508 C   0  0  0  0  0  0  0  0  0  0  0  0
   30.4913  -23.7144  -17.4971 C   0  0  0  0  0  0  0  0  0  0  0  0
   31.3661  -23.7279  -16.2999 C   0  0  0  0  0  0  0  0  0  0  0  0
   32.3622  -24.8956  -16.4872 C   0  0  0  0  0  0  0  0  0  0  0  0
   32.1596  -25.8638  -15.4233 N   0  0  0  0  0  0  0  0  0  0  0  0
   27.1424  -21.9402  -17.3101 C   0  0  0  0  0  0  0  0  0  0  0  0
   27.4858  -20.7494  -17.4969 O   0  0  0  0  0  0  0  0  0  0  0  0
   23.9690  -18.9249  -19.6600 N   0  0  0  0  0  0  0  0  0  0  0  0
   23.4661  -20.2677  -19.6295 C   0  0  0  0  0  0  0  0  0  0  0  0
   22.7607  -20.7155  -20.5582 O   0  0  0  0  0  0  0  0  0  0  0  0
   23.7917  -21.1328  -18.4751 C   0  0  0  0  0  0  0  0  0  0  0  0
   24.5959  -20.3390  -17.4844 C   0  0  0  0  0  0  0  0  0  0  0  0
   24.9789  -21.1700  -16.2787 C   0  0  2  0  0  0  0  0  0  0  0  0
   25.9059  -22.2299  -16.7029 N   0  0  0  0  0  0  0  0  0  0  0  0
   23.8006  -21.7959  -15.6460 C   0  0  0  0  0  0  0  0  0  0  0  0
   23.4652  -22.9596  -15.9484 O   0  0  0  0  0  0  0  0  0  0  0  0
   23.0590  -21.0616  -14.6957 N   0  0  0  0  0  0  0  0  0  0  0  0
   21.9094  -21.6169  -14.0533 C   0  0  1  0  0  0  0  0  0  0  0  0
   21.4954  -20.6767  -12.9683 C   0  0  0  0  0  0  0  0  0  0  0  0
   22.3614  -20.5509  -11.7817 C   0  0  0  0  0  0  0  0  0  0  0  0
   21.9275  -19.6901  -10.6937 C   0  0  0  0  0  0  0  0  0  0  0  0
   22.6033  -19.4754   -9.6772 O   0  0  0  0  0  0  0  0  0  0  0  0
   20.8704  -22.1443  -14.9252 C   0  0  0  0  0  0  0  0  0  0  0  0
   20.0608  -23.0665  -14.6339 O   0  0  0  0  0  0  0  0  0  0  0  0
   20.6678  -19.0352  -10.7495 O   0  0  0  0  0  0  0  0  0  0  0  0
   20.7654  -21.5603  -16.2069 O   0  0  0  0  0  0  0  0  0  0  0  0
  2  1  1  6
  3  2  1  0
  4  5  1  0
  4  3  1  0
  6  5  1  0
  7  6  1  0
  8  9  2  0
  8  2  1  0
 10 11  1  0
 11 12  2  0
 13 14  1  0
 13 11  1  0
 15 14  1  6
 15 16  1  0
 16  8  1  0
 17 15  1  0
 18 17  2  0
 19 17  1  0
 20 19  1  0
 21 22  1  0
 20 21  1  6
 23 22  1  0
 23 24  2  0
 25 20  1  0
 25 28  1  0
 26 25  2  0
 27 23  1  0
M  END
$$$$
