ISR.pdb
     RDKit          3D

 26 25  0  0  1  0  0  0  0  0999 V2000
   28.6789  -19.6277   -5.6246 C   0  0  0  0  0  0  0  0  0  0  0  0
   27.2811  -20.0994   -6.0418 C   0  0  0  0  0  0  0  0  0  0  0  0
   27.1640  -19.8568   -7.5127 C   0  0  2  0  0  0  0  0  0  0  0  0
   27.2938  -18.3726   -7.7961 C   0  0  0  0  0  0  0  0  0  0  0  0
   25.8683  -20.3457   -8.0973 C   0  0  2  0  0  0  0  0  0  0  0  0
   25.5494  -21.6900   -7.7729 N   0  0  0  0  0  0  0  0  0  0  0  0
   25.8847  -20.1048   -9.5456 C   0  0  0  0  0  0  0  0  0  0  0  0
   25.6747  -18.9360   -9.9613 O   0  0  0  0  0  0  0  0  0  0  0  0
   27.3970  -21.5857  -13.8559 O   0  0  0  0  0  0  0  0  0  0  0  0
   27.3075  -21.7612  -12.4777 C   0  0  0  0  0  0  0  0  0  0  0  0
   26.1863  -20.9019  -11.9251 C   0  0  2  0  0  0  0  0  0  0  0  0
   26.1296  -21.1478  -10.4865 N   0  0  0  0  0  0  0  0  0  0  0  0
   24.8781  -21.3329  -12.4911 C   0  0  0  0  0  0  0  0  0  0  0  0
   24.1892  -22.2662  -11.9746 O   0  0  0  0  0  0  0  0  0  0  0  0
   18.4683  -22.0866  -12.2025 N   0  0  0  0  0  0  0  0  0  0  0  0
   18.8925  -22.5389  -10.9230 C   0  0  0  0  0  0  0  0  0  0  0  0
   18.3251  -23.5315  -10.3114 N   0  0  0  0  0  0  0  0  0  0  0  0
   19.9926  -21.8404  -10.3259 N   0  0  0  0  0  0  0  0  0  0  0  0
   20.5266  -20.7142  -11.0993 C   0  0  0  0  0  0  0  0  0  0  0  0
   21.4122  -21.3214  -12.1635 C   0  0  0  0  0  0  0  0  0  0  0  0
   22.1225  -20.2984  -12.9715 C   0  0  0  0  0  0  0  0  0  0  0  0
   22.9625  -20.9396  -14.0416 C   0  0  2  0  0  0  0  0  0  0  0  0
   24.3723  -20.6857  -13.6484 N   0  0  0  0  0  0  0  0  0  0  0  0
   22.7042  -20.2826  -15.3338 C   0  0  0  0  0  0  0  0  0  0  0  0
   21.5984  -20.4725  -15.9011 O   0  0  0  0  0  0  0  0  0  0  0  0
   23.6076  -19.4718  -15.9494 O   0  0  0  0  0  0  0  0  0  0  0  0
  2  3  1  0
  2  1  1  0
  3  4  1  1
  5  6  1  6
  5  3  1  0
  7  5  1  0
  8  7  2  0
 10  9  1  0
 11 10  1  6
 11 12  1  0
 12  7  1  0
 13 23  1  0
 13 11  1  0
 14 13  2  0
 16 15  1  0
 17 16  2  0
 18 16  1  0
 19 18  1  0
 20 19  1  0
 20 21  1  0
 22 21  1  1
 22 23  1  0
 24 26  1  0
 24 22  1  0
 25 24  2  0
M  END
$$$$
