ISR.pdb
     RDKit          3D

 26 25  0  0  1  0  0  0  0  0999 V2000
   28.1897  -17.7877  -19.3670 C   0  0  0  0  0  0  0  0  0  0  0  0
   28.5043  -17.3024  -17.9471 C   0  0  0  0  0  0  0  0  0  0  0  0
   27.2185  -17.3350  -17.1844 C   0  0  2  0  0  0  0  0  0  0  0  0
   26.6686  -18.7482  -17.1730 C   0  0  0  0  0  0  0  0  0  0  0  0
   26.1688  -16.4158  -17.7439 C   0  0  2  0  0  0  0  0  0  0  0  0
   26.5568  -15.0521  -17.8058 N   0  0  0  0  0  0  0  0  0  0  0  0
   24.9222  -16.6129  -16.9937 C   0  0  0  0  0  0  0  0  0  0  0  0
   24.9678  -16.5823  -15.7367 O   0  0  0  0  0  0  0  0  0  0  0  0
   21.4842  -17.9374  -18.8673 O   0  0  0  0  0  0  0  0  0  0  0  0
   21.2963  -16.9426  -17.9115 C   0  0  0  0  0  0  0  0  0  0  0  0
   22.4244  -16.9880  -16.8986 C   0  0  2  0  0  0  0  0  0  0  0  0
   23.6722  -16.8360  -17.6424 N   0  0  0  0  0  0  0  0  0  0  0  0
   22.4724  -18.3218  -16.2381 C   0  0  0  0  0  0  0  0  0  0  0  0
   23.4727  -19.0966  -16.3446 O   0  0  0  0  0  0  0  0  0  0  0  0
   24.6896  -24.2291  -13.2326 N   0  0  0  0  0  0  0  0  0  0  0  0
   24.9200  -23.3825  -14.3515 C   0  0  0  0  0  0  0  0  0  0  0  0
   25.5003  -23.7997  -15.4333 N   0  0  0  0  0  0  0  0  0  0  0  0
   24.4767  -22.0245  -14.2327 N   0  0  0  0  0  0  0  0  0  0  0  0
   24.1421  -21.5806  -12.8753 C   0  0  0  0  0  0  0  0  0  0  0  0
   22.6973  -21.1381  -12.9252 C   0  0  0  0  0  0  0  0  0  0  0  0
   22.5065  -19.8876  -13.7023 C   0  0  0  0  0  0  0  0  0  0  0  0
   21.4596  -20.0652  -14.7674 C   0  0  2  0  0  0  0  0  0  0  0  0
   21.3675  -18.7540  -15.4594 N   0  0  0  0  0  0  0  0  0  0  0  0
   20.1611  -20.3635  -14.1403 C   0  0  0  0  0  0  0  0  0  0  0  0
   19.3545  -19.4210  -13.9369 O   0  0  0  0  0  0  0  0  0  0  0  0
   19.7855  -21.6179  -13.7689 O   0  0  0  0  0  0  0  0  0  0  0  0
  2  3  1  0
  2  1  1  0
  3  4  1  6
  5  6  1  1
  5  3  1  0
  7  5  1  0
  8  7  2  0
 10  9  1  0
 11 10  1  6
 11 12  1  0
 12  7  1  0
 13 23  1  0
 13 11  1  0
 14 13  2  0
 16 15  1  0
 17 16  2  0
 18 16  1  0
 19 18  1  0
 20 19  1  0
 20 21  1  0
 22 21  1  1
 22 23  1  0
 24 26  1  0
 24 22  1  0
 25 24  2  0
M  END
$$$$
