ISR.pdb
     RDKit          3D

 26 25  0  0  1  0  0  0  0  0999 V2000
   24.8365  -23.6986  -13.5223 C   0  0  0  0  0  0  0  0  0  0  0  0
   23.8887  -22.7961  -12.7237 C   0  0  0  0  0  0  0  0  0  0  0  0
   24.2932  -21.3849  -13.0086 C   0  0  2  0  0  0  0  0  0  0  0  0
   24.1291  -21.0968  -14.4884 C   0  0  0  0  0  0  0  0  0  0  0  0
   25.7112  -21.0790  -12.6142 C   0  0  2  0  0  0  0  0  0  0  0  0
   25.9837  -21.2455  -11.2314 N   0  0  0  0  0  0  0  0  0  0  0  0
   26.0551  -19.7360  -13.0980 C   0  0  0  0  0  0  0  0  0  0  0  0
   25.6672  -18.7415  -12.4321 O   0  0  0  0  0  0  0  0  0  0  0  0
   27.8620  -19.2071  -16.7855 O   0  0  0  0  0  0  0  0  0  0  0  0
   28.3221  -18.3912  -15.7554 C   0  0  0  0  0  0  0  0  0  0  0  0
   27.2234  -18.1975  -14.7278 C   0  0  2  0  0  0  0  0  0  0  0  0
   26.8092  -19.5280  -14.2900 N   0  0  0  0  0  0  0  0  0  0  0  0
   26.0347  -17.5578  -15.3567 C   0  0  0  0  0  0  0  0  0  0  0  0
   25.1554  -18.2265  -15.9827 O   0  0  0  0  0  0  0  0  0  0  0  0
   22.7047   -9.4584  -14.4701 N   0  0  0  0  0  0  0  0  0  0  0  0
   21.6220  -10.2073  -15.0071 C   0  0  0  0  0  0  0  0  0  0  0  0
   20.4324   -9.7106  -15.1464 N   0  0  0  0  0  0  0  0  0  0  0  0
   21.9040  -11.5581  -15.3952 N   0  0  0  0  0  0  0  0  0  0  0  0
   23.2388  -12.0554  -15.0452 C   0  0  0  0  0  0  0  0  0  0  0  0
   23.3236  -13.4555  -15.6092 C   0  0  0  0  0  0  0  0  0  0  0  0
   24.5924  -14.1407  -15.2560 C   0  0  0  0  0  0  0  0  0  0  0  0
   24.6089  -15.5525  -15.7741 C   0  0  2  0  0  0  0  0  0  0  0  0
   25.8672  -16.1519  -15.2600 N   0  0  0  0  0  0  0  0  0  0  0  0
   24.6558  -15.5392  -17.2458 C   0  0  0  0  0  0  0  0  0  0  0  0
   25.7416  -15.2626  -17.8160 O   0  0  0  0  0  0  0  0  0  0  0  0
   23.5759  -15.8157  -18.0267 O   0  0  0  0  0  0  0  0  0  0  0  0
  2  3  1  0
  2  1  1  0
  3  4  1  6
  5  6  1  1
  5  3  1  0
  7  5  1  0
  8  7  2  0
 10  9  1  0
 11 10  1  6
 11 12  1  0
 12  7  1  0
 13 23  1  0
 13 11  1  0
 14 13  2  0
 16 15  1  0
 17 16  2  0
 18 16  1  0
 19 18  1  0
 20 19  1  0
 20 21  1  0
 22 21  1  1
 22 23  1  0
 24 26  1  0
 24 22  1  0
 25 24  2  0
M  END
$$$$
