ISR.pdb
     RDKit          3D

 26 25  0  0  1  0  0  0  0  0999 V2000
   19.4465  -21.1260  -13.5064 C   0  0  0  0  0  0  0  0  0  0  0  0
   19.8413  -22.5941  -13.3078 C   0  0  0  0  0  0  0  0  0  0  0  0
   18.9623  -23.1356  -12.2260 C   0  0  2  0  0  0  0  0  0  0  0  0
   19.2630  -22.4237  -10.9212 C   0  0  0  0  0  0  0  0  0  0  0  0
   19.1201  -24.6153  -12.0132 C   0  0  2  0  0  0  0  0  0  0  0  0
   19.0213  -25.3914  -13.1972 N   0  0  0  0  0  0  0  0  0  0  0  0
   18.1724  -25.0456  -10.9774 C   0  0  0  0  0  0  0  0  0  0  0  0
   17.0621  -24.4589  -10.8998 O   0  0  0  0  0  0  0  0  0  0  0  0
   19.0605  -28.3371   -8.7567 O   0  0  0  0  0  0  0  0  0  0  0  0
   17.7064  -28.0505   -8.9083 C   0  0  0  0  0  0  0  0  0  0  0  0
   17.5149  -26.5533   -9.0584 C   0  0  2  0  0  0  0  0  0  0  0  0
   18.4712  -26.0997  -10.0650 N   0  0  0  0  0  0  0  0  0  0  0  0
   17.8600  -25.8583   -7.7874 C   0  0  0  0  0  0  0  0  0  0  0  0
   19.0478  -25.5090   -7.5054 O   0  0  0  0  0  0  0  0  0  0  0  0
   12.4998  -22.4760   -2.1019 N   0  0  0  0  0  0  0  0  0  0  0  0
   12.6289  -23.8087   -2.5803 C   0  0  0  0  0  0  0  0  0  0  0  0
   11.6765  -24.6823   -2.4751 N   0  0  0  0  0  0  0  0  0  0  0  0
   13.8774  -24.1536   -3.1945 N   0  0  0  0  0  0  0  0  0  0  0  0
   14.9526  -23.1667   -3.0484 C   0  0  0  0  0  0  0  0  0  0  0  0
   16.1907  -23.8091   -3.6318 C   0  0  0  0  0  0  0  0  0  0  0  0
   15.9533  -24.3993   -4.9731 C   0  0  0  0  0  0  0  0  0  0  0  0
   17.2176  -24.9845   -5.5397 C   0  0  2  0  0  0  0  0  0  0  0  0
   16.8343  -25.5705   -6.8498 N   0  0  0  0  0  0  0  0  0  0  0  0
   17.7015  -26.0623   -4.6608 C   0  0  0  0  0  0  0  0  0  0  0  0
   17.2901  -27.2343   -4.8545 O   0  0  0  0  0  0  0  0  0  0  0  0
   18.5803  -25.8533   -3.6427 O   0  0  0  0  0  0  0  0  0  0  0  0
  2  3  1  0
  2  1  1  0
  3  4  1  1
  5  6  1  6
  5  3  1  0
  7  5  1  0
  8  7  2  0
 10  9  1  0
 11 10  1  1
 11 12  1  0
 12  7  1  0
 13 23  1  0
 13 11  1  0
 14 13  2  0
 16 15  1  0
 17 16  2  0
 18 16  1  0
 19 18  1  0
 20 19  1  0
 20 21  1  0
 22 21  1  1
 22 23  1  0
 24 26  1  0
 24 22  1  0
 25 24  2  0
M  END
$$$$
