ISR.pdb
     RDKit          3D

 26 25  0  0  1  0  0  0  0  0999 V2000
   12.4620   -9.0523   -8.5437 C   0  0  0  0  0  0  0  0  0  0  0  0
   13.9577   -8.7797   -8.3456 C   0  0  0  0  0  0  0  0  0  0  0  0
   14.3789   -7.8597   -9.4466 C   0  0  2  0  0  0  0  0  0  0  0  0
   14.1117   -8.5146  -10.7881 C   0  0  0  0  0  0  0  0  0  0  0  0
   15.8307   -7.4751   -9.3808 C   0  0  2  0  0  0  0  0  0  0  0  0
   16.1968   -6.7679   -8.2061 N   0  0  0  0  0  0  0  0  0  0  0  0
   16.1813   -6.7485  -10.6076 C   0  0  0  0  0  0  0  0  0  0  0  0
   16.1616   -7.3723  -11.7001 O   0  0  0  0  0  0  0  0  0  0  0  0
   17.5539   -2.8972  -10.3409 O   0  0  0  0  0  0  0  0  0  0  0  0
   16.8242   -3.1684  -11.4953 C   0  0  0  0  0  0  0  0  0  0  0  0
   16.9051   -4.6491  -11.8145 C   0  0  2  0  0  0  0  0  0  0  0  0
   16.5402   -5.3687  -10.5970 N   0  0  0  0  0  0  0  0  0  0  0  0
   18.3068   -5.0314  -12.1411 C   0  0  0  0  0  0  0  0  0  0  0  0
   19.0433   -5.6706  -11.3279 O   0  0  0  0  0  0  0  0  0  0  0  0
   21.9272  -11.3894  -14.2165 N   0  0  0  0  0  0  0  0  0  0  0  0
   22.9954  -10.5601  -14.6556 C   0  0  0  0  0  0  0  0  0  0  0  0
   24.1576  -11.0342  -14.9804 N   0  0  0  0  0  0  0  0  0  0  0  0
   22.7303   -9.1530  -14.7256 N   0  0  0  0  0  0  0  0  0  0  0  0
   21.3888   -8.7363  -14.3037 C   0  0  0  0  0  0  0  0  0  0  0  0
   21.3979   -7.2245  -14.3175 C   0  0  0  0  0  0  0  0  0  0  0  0
   20.1417   -6.6381  -13.7864 C   0  0  0  0  0  0  0  0  0  0  0  0
   20.2219   -5.1371  -13.7380 C   0  0  2  0  0  0  0  0  0  0  0  0
   18.8506   -4.6746  -13.4025 N   0  0  0  0  0  0  0  0  0  0  0  0
   20.5864   -4.6177  -15.0667 C   0  0  0  0  0  0  0  0  0  0  0  0
   19.6734   -4.3862  -15.8994 O   0  0  0  0  0  0  0  0  0  0  0  0
   21.8713   -4.3710  -15.4418 O   0  0  0  0  0  0  0  0  0  0  0  0
  2  3  1  0
  2  1  1  0
  3  4  1  6
  5  6  1  1
  5  3  1  0
  7  5  1  0
  8  7  2  0
 10  9  1  0
 11 10  1  1
 11 12  1  0
 12  7  1  0
 13 23  1  0
 13 11  1  0
 14 13  2  0
 16 15  1  0
 17 16  2  0
 18 16  1  0
 19 18  1  0
 20 19  1  0
 20 21  1  0
 22 21  1  6
 22 23  1  0
 24 26  1  0
 24 22  1  0
 25 24  2  0
M  END
$$$$
