ISR.pdb
     RDKit          3D

 26 25  0  0  1  0  0  0  0  0999 V2000
   17.1609  -22.5208    0.0144 C   0  0  0  0  0  0  0  0  0  0  0  0
   18.2016  -21.3951    0.0240 C   0  0  0  0  0  0  0  0  0  0  0  0
   17.8979  -20.5358    1.2095 C   0  0  2  0  0  0  0  0  0  0  0  0
   17.7952  -21.3995    2.4518 C   0  0  0  0  0  0  0  0  0  0  0  0
   16.6257  -19.7480    1.0658 C   0  0  2  0  0  0  0  0  0  0  0  0
   16.4507  -19.1446   -0.2067 N   0  0  0  0  0  0  0  0  0  0  0  0
   16.5463  -18.7775    2.1648 C   0  0  0  0  0  0  0  0  0  0  0  0
   17.3896  -17.8445    2.2026 O   0  0  0  0  0  0  0  0  0  0  0  0
   13.4407  -18.7033    5.2296 O   0  0  0  0  0  0  0  0  0  0  0  0
   13.9647  -17.6419    4.4966 C   0  0  0  0  0  0  0  0  0  0  0  0
   15.4438  -17.8717    4.2510 C   0  0  2  0  0  0  0  0  0  0  0  0
   15.5501  -18.8607    3.1814 N   0  0  0  0  0  0  0  0  0  0  0  0
   16.0814  -18.4672    5.4578 C   0  0  0  0  0  0  0  0  0  0  0  0
   16.3284  -19.7092    5.5524 O   0  0  0  0  0  0  0  0  0  0  0  0
   21.5227  -14.2289   10.1739 N   0  0  0  0  0  0  0  0  0  0  0  0
   22.1420  -15.2588    9.4140 C   0  0  0  0  0  0  0  0  0  0  0  0
   23.4266  -15.3294    9.2527 N   0  0  0  0  0  0  0  0  0  0  0  0
   21.2728  -16.2333    8.8227 N   0  0  0  0  0  0  0  0  0  0  0  0
   19.8571  -16.1309    9.1923 C   0  0  0  0  0  0  0  0  0  0  0  0
   19.1525  -17.2497    8.4590 C   0  0  0  0  0  0  0  0  0  0  0  0
   17.6737  -17.1319    8.5169 C   0  0  0  0  0  0  0  0  0  0  0  0
   17.0105  -18.2524    7.7642 C   0  0  2  0  0  0  0  0  0  0  0  0
   16.4303  -17.6277    6.5476 N   0  0  0  0  0  0  0  0  0  0  0  0
   15.9184  -18.8155    8.5756 C   0  0  0  0  0  0  0  0  0  0  0  0
   14.7352  -18.4759    8.3205 O   0  0  0  0  0  0  0  0  0  0  0  0
   16.1259  -19.6939    9.5944 O   0  0  0  0  0  0  0  0  0  0  0  0
  2  3  1  0
  2  1  1  0
  3  4  1  1
  5  6  1  6
  5  3  1  0
  7  5  1  0
  8  7  2  0
 10  9  1  0
 11 10  1  1
 11 12  1  0
 12  7  1  0
 13 23  1  0
 13 11  1  0
 14 13  2  0
 16 15  1  0
 17 16  2  0
 18 16  1  0
 19 18  1  0
 20 19  1  0
 20 21  1  0
 22 21  1  1
 22 23  1  0
 24 26  1  0
 24 22  1  0
 25 24  2  0
M  END
$$$$
