ISR.pdb
     RDKit          3D

 26 25  0  0  1  0  0  0  0  0999 V2000
   29.8652  -21.6362  -10.4252 C   0  0  0  0  0  0  0  0  0  0  0  0
   28.8850  -20.7775  -11.2327 C   0  0  0  0  0  0  0  0  0  0  0  0
   28.5907  -21.5266  -12.4930 C   0  0  2  0  0  0  0  0  0  0  0  0
   29.8765  -21.7479  -13.2661 C   0  0  0  0  0  0  0  0  0  0  0  0
   27.6068  -20.8262  -13.3881 C   0  0  2  0  0  0  0  0  0  0  0  0
   26.3738  -20.5033  -12.7640 N   0  0  0  0  0  0  0  0  0  0  0  0
   27.4285  -21.6247  -14.6073 C   0  0  0  0  0  0  0  0  0  0  0  0
   26.6004  -22.5717  -14.5880 O   0  0  0  0  0  0  0  0  0  0  0  0
   29.8095  -20.9343  -17.9334 O   0  0  0  0  0  0  0  0  0  0  0  0
   28.4925  -21.3179  -18.1722 C   0  0  0  0  0  0  0  0  0  0  0  0
   27.9871  -22.1571  -17.0142 C   0  0  2  0  0  0  0  0  0  0  0  0
   28.1600  -21.3604  -15.8023 N   0  0  0  0  0  0  0  0  0  0  0  0
   28.8264  -23.3769  -16.8552 C   0  0  0  0  0  0  0  0  0  0  0  0
   29.8200  -23.4193  -16.0657 O   0  0  0  0  0  0  0  0  0  0  0  0
   27.1109  -31.7842  -17.2218 N   0  0  0  0  0  0  0  0  0  0  0  0
   28.5116  -31.8074  -16.9785 C   0  0  0  0  0  0  0  0  0  0  0  0
   29.1756  -32.9116  -16.8337 N   0  0  0  0  0  0  0  0  0  0  0  0
   29.1717  -30.5375  -16.8982 N   0  0  0  0  0  0  0  0  0  0  0  0
   28.2952  -29.3617  -16.9258 C   0  0  0  0  0  0  0  0  0  0  0  0
   29.1989  -28.1731  -17.1630 C   0  0  0  0  0  0  0  0  0  0  0  0
   28.4538  -26.8912  -17.2370 C   0  0  0  0  0  0  0  0  0  0  0  0
   29.3874  -25.7330  -17.4574 C   0  0  2  0  0  0  0  0  0  0  0  0
   28.5152  -24.5398  -17.6068 N   0  0  0  0  0  0  0  0  0  0  0  0
   30.1372  -25.9328  -18.7089 C   0  0  0  0  0  0  0  0  0  0  0  0
   31.2904  -26.4303  -18.6528 O   0  0  0  0  0  0  0  0  0  0  0  0
   29.6408  -25.6060  -19.9333 O   0  0  0  0  0  0  0  0  0  0  0  0
  2  3  1  0
  2  1  1  0
  3  4  1  6
  5  6  1  1
  5  3  1  0
  7  5  1  0
  8  7  2  0
 10  9  1  0
 11 10  1  6
 11 12  1  0
 12  7  1  0
 13 23  1  0
 13 11  1  0
 14 13  2  0
 16 15  1  0
 17 16  2  0
 18 16  1  0
 19 18  1  0
 20 19  1  0
 20 21  1  0
 22 21  1  6
 22 23  1  0
 24 26  1  0
 24 22  1  0
 25 24  2  0
M  END
$$$$
