ISR.pdb
     RDKit          3D

 26 25  0  0  1  0  0  0  0  0999 V2000
   20.2711  -18.7578  -17.7917 C   0  0  0  0  0  0  0  0  0  0  0  0
   21.5765  -18.0703  -18.2085 C   0  0  0  0  0  0  0  0  0  0  0  0
   21.7522  -16.8921  -17.3045 C   0  0  2  0  0  0  0  0  0  0  0  0
   22.0580  -15.6575  -18.1304 C   0  0  0  0  0  0  0  0  0  0  0  0
   22.8473  -17.0751  -16.2911 C   0  0  2  0  0  0  0  0  0  0  0  0
   22.7354  -18.2578  -15.5147 N   0  0  0  0  0  0  0  0  0  0  0  0
   22.9305  -15.8647  -15.4641 C   0  0  0  0  0  0  0  0  0  0  0  0
   22.0815  -15.7038  -14.5497 O   0  0  0  0  0  0  0  0  0  0  0  0
   25.9614  -13.1365  -16.1037 O   0  0  0  0  0  0  0  0  0  0  0  0
   25.4023  -13.1772  -14.8292 C   0  0  0  0  0  0  0  0  0  0  0  0
   23.9539  -13.6184  -14.9208 C   0  0  2  0  0  0  0  0  0  0  0  0
   23.9368  -14.8748  -15.6654 N   0  0  0  0  0  0  0  0  0  0  0  0
   23.1632  -12.6346  -15.7110 C   0  0  0  0  0  0  0  0  0  0  0  0
   22.7639  -12.8763  -16.8919 O   0  0  0  0  0  0  0  0  0  0  0  0
   15.9189  -10.4842  -17.4255 N   0  0  0  0  0  0  0  0  0  0  0  0
   16.4705  -11.7007  -16.9382 C   0  0  0  0  0  0  0  0  0  0  0  0
   15.8388  -12.8307  -17.0107 N   0  0  0  0  0  0  0  0  0  0  0  0
   17.7769  -11.6258  -16.3530 N   0  0  0  0  0  0  0  0  0  0  0  0
   18.2836  -10.2731  -16.0982 C   0  0  0  0  0  0  0  0  0  0  0  0
   19.6659  -10.2235  -16.7083 C   0  0  0  0  0  0  0  0  0  0  0  0
   20.6376  -11.0942  -16.0001 C   0  0  0  0  0  0  0  0  0  0  0  0
   21.9898  -10.4415  -15.9157 C   0  0  2  0  0  0  0  0  0  0  0  0
   22.8378  -11.3789  -15.1353 N   0  0  0  0  0  0  0  0  0  0  0  0
   21.8815   -9.1722  -15.1772 C   0  0  0  0  0  0  0  0  0  0  0  0
   22.2681   -9.1305  -13.9817 O   0  0  0  0  0  0  0  0  0  0  0  0
   21.3826   -8.0318  -15.7278 O   0  0  0  0  0  0  0  0  0  0  0  0
  2  3  1  0
  2  1  1  0
  3  4  1  6
  5  6  1  1
  5  3  1  0
  7  5  1  0
  8  7  2  0
 10  9  1  0
 11 10  1  6
 11 12  1  0
 12  7  1  0
 13 23  1  0
 13 11  1  0
 14 13  2  0
 16 15  1  0
 17 16  2  0
 18 16  1  0
 19 18  1  0
 20 19  1  0
 20 21  1  0
 22 21  1  1
 22 23  1  0
 24 26  1  0
 24 22  1  0
 25 24  2  0
M  END
$$$$
