ISR.pdb
     RDKit          3D

 26 25  0  0  1  0  0  0  0  0999 V2000
   19.8509  -12.0503  -16.7705 C   0  0  0  0  0  0  0  0  0  0  0  0
   21.2026  -11.3615  -16.5493 C   0  0  0  0  0  0  0  0  0  0  0  0
   20.9896  -10.3187  -15.4989 C   0  0  2  0  0  0  0  0  0  0  0  0
   19.9604   -9.3140  -15.9798 C   0  0  0  0  0  0  0  0  0  0  0  0
   22.2450   -9.5797  -15.1279 C   0  0  2  0  0  0  0  0  0  0  0  0
   23.2753  -10.4021  -14.6023 N   0  0  0  0  0  0  0  0  0  0  0  0
   21.8923   -8.4749  -14.2275 C   0  0  0  0  0  0  0  0  0  0  0  0
   21.5061   -8.7510  -13.0624 O   0  0  0  0  0  0  0  0  0  0  0  0
   21.9035   -3.6517  -13.5419 O   0  0  0  0  0  0  0  0  0  0  0  0
   22.1974   -4.7430  -14.3549 C   0  0  0  0  0  0  0  0  0  0  0  0
   21.6434   -6.0093  -13.7300 C   0  0  2  0  0  0  0  0  0  0  0  0
   21.9739   -7.1099  -14.6316 N   0  0  0  0  0  0  0  0  0  0  0  0
   20.1578   -5.9410  -13.6547 C   0  0  0  0  0  0  0  0  0  0  0  0
   19.4175   -6.1177  -14.6711 O   0  0  0  0  0  0  0  0  0  0  0  0
   14.4603   -7.7799   -7.4035 N   0  0  0  0  0  0  0  0  0  0  0  0
   13.6154   -7.3476   -8.4622 C   0  0  0  0  0  0  0  0  0  0  0  0
   12.3237   -7.4465   -8.4077 N   0  0  0  0  0  0  0  0  0  0  0  0
   14.2613   -6.7879   -9.6130 N   0  0  0  0  0  0  0  0  0  0  0  0
   15.7275   -6.7719   -9.5751 C   0  0  0  0  0  0  0  0  0  0  0  0
   16.1732   -6.2130  -10.9074 C   0  0  0  0  0  0  0  0  0  0  0  0
   17.6500   -6.1161  -11.0240 C   0  0  0  0  0  0  0  0  0  0  0  0
   18.0534   -5.5689  -12.3655 C   0  0  2  0  0  0  0  0  0  0  0  0
   19.5349   -5.6695  -12.4087 N   0  0  0  0  0  0  0  0  0  0  0  0
   17.6709   -4.1499  -12.4568 C   0  0  0  0  0  0  0  0  0  0  0  0
   16.4968   -3.8585  -12.7987 O   0  0  0  0  0  0  0  0  0  0  0  0
   18.5297   -3.1295  -12.1854 O   0  0  0  0  0  0  0  0  0  0  0  0
  2  3  1  0
  2  1  1  0
  3  4  1  6
  5  6  1  1
  5  3  1  0
  7  5  1  0
  8  7  2  0
 10  9  1  0
 11 10  1  6
 11 12  1  0
 12  7  1  0
 13 23  1  0
 13 11  1  0
 14 13  2  0
 16 15  1  0
 17 16  2  0
 18 16  1  0
 19 18  1  0
 20 19  1  0
 20 21  1  0
 22 21  1  1
 22 23  1  0
 24 26  1  0
 24 22  1  0
 25 24  2  0
M  END
$$$$
