ISR.pdb
     RDKit          3D

 26 25  0  0  1  0  0  0  0  0999 V2000
   29.0721  -13.8310  -19.1034 C   0  0  0  0  0  0  0  0  0  0  0  0
   29.3655  -13.6612  -17.6083 C   0  0  0  0  0  0  0  0  0  0  0  0
   28.0547  -13.4016  -16.9372 C   0  0  2  0  0  0  0  0  0  0  0  0
   27.0978  -14.5411  -17.2303 C   0  0  0  0  0  0  0  0  0  0  0  0
   27.4105  -12.1120  -17.3636 C   0  0  2  0  0  0  0  0  0  0  0  0
   28.1952  -10.9555  -17.1169 N   0  0  0  0  0  0  0  0  0  0  0  0
   26.0771  -12.0279  -16.7548 C   0  0  0  0  0  0  0  0  0  0  0  0
   25.9906  -12.0219  -15.4996 O   0  0  0  0  0  0  0  0  0  0  0  0
   23.3543   -9.9680  -18.3587 O   0  0  0  0  0  0  0  0  0  0  0  0
   23.1142  -10.4181  -17.0632 C   0  0  0  0  0  0  0  0  0  0  0  0
   23.5614  -11.8616  -16.9330 C   0  0  2  0  0  0  0  0  0  0  0  0
   24.8878  -11.9536  -17.5376 N   0  0  0  0  0  0  0  0  0  0  0  0
   22.6636  -12.7534  -17.7180 C   0  0  0  0  0  0  0  0  0  0  0  0
   22.8938  -13.0516  -18.9306 O   0  0  0  0  0  0  0  0  0  0  0  0
   17.6115  -18.7500  -18.5570 N   0  0  0  0  0  0  0  0  0  0  0  0
   18.5769  -18.9426  -17.5310 C   0  0  0  0  0  0  0  0  0  0  0  0
   19.1984  -20.0678  -17.3611 N   0  0  0  0  0  0  0  0  0  0  0  0
   18.8398  -17.8220  -16.6766 N   0  0  0  0  0  0  0  0  0  0  0  0
   17.9778  -16.6524  -16.8774 C   0  0  0  0  0  0  0  0  0  0  0  0
   18.7524  -15.7119  -17.7724 C   0  0  0  0  0  0  0  0  0  0  0  0
   19.7782  -14.9323  -17.0348 C   0  0  0  0  0  0  0  0  0  0  0  0
   20.5110  -13.9941  -17.9538 C   0  0  2  0  0  0  0  0  0  0  0  0
   21.5066  -13.2958  -17.1006 N   0  0  0  0  0  0  0  0  0  0  0  0
   19.5713  -12.9996  -18.4981 C   0  0  0  0  0  0  0  0  0  0  0  0
   19.1737  -13.1254  -19.6841 O   0  0  0  0  0  0  0  0  0  0  0  0
   19.1054  -11.9439  -17.7762 O   0  0  0  0  0  0  0  0  0  0  0  0
  2  3  1  0
  2  1  1  0
  3  4  1  6
  5  6  1  1
  5  3  1  0
  7  5  1  0
  8  7  2  0
 10  9  1  0
 11 10  1  6
 11 12  1  0
 12  7  1  0
 13 23  1  0
 13 11  1  0
 14 13  2  0
 16 15  1  0
 17 16  2  0
 18 16  1  0
 19 18  1  0
 20 19  1  0
 20 21  1  0
 22 21  1  1
 22 23  1  0
 24 26  1  0
 24 22  1  0
 25 24  2  0
M  END
$$$$
