ISR.pdb
     RDKit          3D

 26 25  0  0  1  0  0  0  0  0999 V2000
   21.8744  -14.9599  -19.1575 C   0  0  0  0  0  0  0  0  0  0  0  0
   23.3665  -14.6137  -19.2225 C   0  0  0  0  0  0  0  0  0  0  0  0
   23.5101  -13.2198  -18.7004 C   0  0  2  0  0  0  0  0  0  0  0  0
   22.7340  -12.2624  -19.5841 C   0  0  0  0  0  0  0  0  0  0  0  0
   24.9375  -12.7542  -18.6255 C   0  0  2  0  0  0  0  0  0  0  0  0
   25.7955  -13.6114  -17.8886 N   0  0  0  0  0  0  0  0  0  0  0  0
   24.9567  -11.3736  -18.1260 C   0  0  0  0  0  0  0  0  0  0  0  0
   24.7499  -11.1765  -16.9007 O   0  0  0  0  0  0  0  0  0  0  0  0
   25.0294   -8.1180  -20.7182 O   0  0  0  0  0  0  0  0  0  0  0  0
   25.8405   -8.0347  -19.5897 C   0  0  0  0  0  0  0  0  0  0  0  0
   25.2599   -8.8893  -18.4791 C   0  0  2  0  0  0  0  0  0  0  0  0
   25.2007  -10.2595  -18.9816 N   0  0  0  0  0  0  0  0  0  0  0  0
   23.8604   -8.4738  -18.1855 C   0  0  0  0  0  0  0  0  0  0  0  0
   22.8558   -9.0892  -18.6592 O   0  0  0  0  0  0  0  0  0  0  0  0
   17.6997  -10.2432  -13.8650 N   0  0  0  0  0  0  0  0  0  0  0  0
   17.0960   -9.2145  -14.6390 C   0  0  0  0  0  0  0  0  0  0  0  0
   15.8102   -9.0763  -14.7325 N   0  0  0  0  0  0  0  0  0  0  0  0
   17.9826   -8.3205  -15.3242 N   0  0  0  0  0  0  0  0  0  0  0  0
   19.3803   -8.7561  -15.4154 C   0  0  0  0  0  0  0  0  0  0  0  0
   20.1070   -7.6698  -16.1755 C   0  0  0  0  0  0  0  0  0  0  0  0
   21.5146   -8.0279  -16.4830 C   0  0  0  0  0  0  0  0  0  0  0  0
   22.2289   -6.8893  -17.1577 C   0  0  2  0  0  0  0  0  0  0  0  0
   23.6277   -7.3521  -17.3478 N   0  0  0  0  0  0  0  0  0  0  0  0
   22.2340   -5.7134  -16.2715 C   0  0  0  0  0  0  0  0  0  0  0  0
   23.2536   -5.4845  -15.5725 O   0  0  0  0  0  0  0  0  0  0  0  0
   21.1839   -4.8534  -16.1712 O   0  0  0  0  0  0  0  0  0  0  0  0
  2  3  1  0
  2  1  1  0
  3  4  1  6
  5  6  1  1
  5  3  1  0
  7  5  1  0
  8  7  2  0
 10  9  1  0
 11 10  1  6
 11 12  1  0
 12  7  1  0
 13 23  1  0
 13 11  1  0
 14 13  2  0
 16 15  1  0
 17 16  2  0
 18 16  1  0
 19 18  1  0
 20 19  1  0
 20 21  1  0
 22 21  1  1
 22 23  1  0
 24 26  1  0
 24 22  1  0
 25 24  2  0
M  END
$$$$
