ISR.pdb
     RDKit          3D

 26 25  0  0  1  0  0  0  0  0999 V2000
   16.7762  -22.3307  -16.1910 C   0  0  0  0  0  0  0  0  0  0  0  0
   18.0243  -21.9431  -15.3894 C   0  0  0  0  0  0  0  0  0  0  0  0
   18.1998  -22.9856  -14.3318 C   0  0  2  0  0  0  0  0  0  0  0  0
   16.9833  -23.0028  -13.4265 C   0  0  0  0  0  0  0  0  0  0  0  0
   19.4249  -22.7776  -13.4859 C   0  0  2  0  0  0  0  0  0  0  0  0
   20.6381  -22.7069  -14.2189 N   0  0  0  0  0  0  0  0  0  0  0  0
   19.4572  -23.8100  -12.4423 C   0  0  0  0  0  0  0  0  0  0  0  0
   19.9292  -24.9399  -12.7313 O   0  0  0  0  0  0  0  0  0  0  0  0
   18.4997  -22.6762   -8.7423 O   0  0  0  0  0  0  0  0  0  0  0  0
   19.2998  -23.8154   -8.7639 C   0  0  0  0  0  0  0  0  0  0  0  0
   19.0796  -24.5696  -10.0614 C   0  0  2  0  0  0  0  0  0  0  0  0
   18.9735  -23.5715  -11.1224 N   0  0  0  0  0  0  0  0  0  0  0  0
   17.7824  -25.2997  -10.0208 C   0  0  0  0  0  0  0  0  0  0  0  0
   16.6802  -24.7427  -10.3164 O   0  0  0  0  0  0  0  0  0  0  0  0
   21.3398  -30.2753  -11.0180 N   0  0  0  0  0  0  0  0  0  0  0  0
   20.5892  -30.9406  -10.0102 C   0  0  0  0  0  0  0  0  0  0  0  0
   21.1089  -31.8391   -9.2332 N   0  0  0  0  0  0  0  0  0  0  0  0
   19.2098  -30.5709   -9.8858 N   0  0  0  0  0  0  0  0  0  0  0  0
   18.7819  -29.4267  -10.6976 C   0  0  0  0  0  0  0  0  0  0  0  0
   17.2721  -29.4032  -10.6224 C   0  0  0  0  0  0  0  0  0  0  0  0
   16.7695  -28.8118   -9.3569 C   0  0  0  0  0  0  0  0  0  0  0  0
   16.4504  -27.3522   -9.5293 C   0  0  2  0  0  0  0  0  0  0  0  0
   17.7637  -26.6667   -9.6400 N   0  0  0  0  0  0  0  0  0  0  0  0
   15.7535  -26.8531   -8.3321 C   0  0  0  0  0  0  0  0  0  0  0  0
   16.3592  -26.0663   -7.5610 O   0  0  0  0  0  0  0  0  0  0  0  0
   14.4761  -27.2007   -8.0163 O   0  0  0  0  0  0  0  0  0  0  0  0
  2  3  1  0
  2  1  1  0
  3  4  1  1
  5  6  1  6
  5  3  1  0
  7  5  1  0
  8  7  2  0
 10  9  1  0
 11 10  1  1
 11 12  1  0
 12  7  1  0
 13 23  1  0
 13 11  1  0
 14 13  2  0
 16 15  1  0
 17 16  2  0
 18 16  1  0
 19 18  1  0
 20 19  1  0
 20 21  1  0
 22 21  1  1
 22 23  1  0
 24 26  1  0
 24 22  1  0
 25 24  2  0
M  END
$$$$
