ISR.pdb
     RDKit          3D

 26 25  0  0  1  0  0  0  0  0999 V2000
   24.9832  -16.1847  -19.4442 C   0  0  0  0  0  0  0  0  0  0  0  0
   26.0031  -16.0873  -18.3037 C   0  0  0  0  0  0  0  0  0  0  0  0
   25.8310  -14.7372  -17.6841 C   0  0  2  0  0  0  0  0  0  0  0  0
   26.0637  -13.6635  -18.7295 C   0  0  0  0  0  0  0  0  0  0  0  0
   26.7573  -14.4890  -16.5264 C   0  0  2  0  0  0  0  0  0  0  0  0
   26.7265  -15.4946  -15.5254 N   0  0  0  0  0  0  0  0  0  0  0  0
   26.4890  -13.1498  -15.9876 C   0  0  0  0  0  0  0  0  0  0  0  0
   25.4716  -12.9871  -15.2654 O   0  0  0  0  0  0  0  0  0  0  0  0
   28.5785   -9.9373  -17.4239 O   0  0  0  0  0  0  0  0  0  0  0  0
   28.2548   -9.8338  -16.0737 C   0  0  0  0  0  0  0  0  0  0  0  0
   27.0417  -10.6929  -15.7720 C   0  0  2  0  0  0  0  0  0  0  0  0
   27.3403  -12.0381  -16.2564 N   0  0  0  0  0  0  0  0  0  0  0  0
   25.8612  -10.2074  -16.5390 C   0  0  0  0  0  0  0  0  0  0  0  0
   25.6794  -10.4983  -17.7616 O   0  0  0  0  0  0  0  0  0  0  0  0
   18.1850  -12.0547  -17.6384 N   0  0  0  0  0  0  0  0  0  0  0  0
   18.1792  -10.8374  -18.3731 C   0  0  0  0  0  0  0  0  0  0  0  0
   17.2103  -10.5086  -19.1695 N   0  0  0  0  0  0  0  0  0  0  0  0
   19.3085   -9.9727  -18.1941 N   0  0  0  0  0  0  0  0  0  0  0  0
   20.3628  -10.4779  -17.3084 C   0  0  0  0  0  0  0  0  0  0  0  0
   21.4720   -9.4515  -17.3524 C   0  0  0  0  0  0  0  0  0  0  0  0
   22.6613   -9.8573  -16.5619 C   0  0  0  0  0  0  0  0  0  0  0  0
   23.7716   -8.8520  -16.6976 C   0  0  2  0  0  0  0  0  0  0  0  0
   24.8980   -9.3901  -15.8922 N   0  0  0  0  0  0  0  0  0  0  0  0
   23.3476   -7.5653  -16.1208 C   0  0  0  0  0  0  0  0  0  0  0  0
   22.5303   -6.8541  -16.7585 O   0  0  0  0  0  0  0  0  0  0  0  0
   23.7970   -7.1038  -14.9218 O   0  0  0  0  0  0  0  0  0  0  0  0
  2  3  1  0
  2  1  1  0
  3  4  1  6
  5  6  1  1
  5  3  1  0
  7  5  1  0
  8  7  2  0
 10  9  1  0
 11 10  1  6
 11 12  1  0
 12  7  1  0
 13 23  1  0
 13 11  1  0
 14 13  2  0
 16 15  1  0
 17 16  2  0
 18 16  1  0
 19 18  1  0
 20 19  1  0
 20 21  1  0
 22 21  1  1
 22 23  1  0
 24 26  1  0
 24 22  1  0
 25 24  2  0
M  END
$$$$
