ISR.pdb
     RDKit          3D

 26 25  0  0  1  0  0  0  0  0999 V2000
   25.0843  -13.3811  -17.8605 C   0  0  0  0  0  0  0  0  0  0  0  0
   24.4914  -13.1534  -16.4651 C   0  0  0  0  0  0  0  0  0  0  0  0
   24.1774  -11.6951  -16.3615 C   0  0  2  0  0  0  0  0  0  0  0  0
   25.4608  -10.8909  -16.4385 C   0  0  0  0  0  0  0  0  0  0  0  0
   23.4560  -11.3281  -15.0947 C   0  0  2  0  0  0  0  0  0  0  0  0
   22.3177  -12.1286  -14.8158 N   0  0  0  0  0  0  0  0  0  0  0  0
   23.1409   -9.8945  -15.1309 C   0  0  0  0  0  0  0  0  0  0  0  0
   24.0666   -9.0837  -15.3927 O   0  0  0  0  0  0  0  0  0  0  0  0
   21.5221   -6.2002  -16.5611 O   0  0  0  0  0  0  0  0  0  0  0  0
   21.8556   -7.5409  -16.3889 C   0  0  0  0  0  0  0  0  0  0  0  0
   21.4981   -7.9794  -14.9815 C   0  0  2  0  0  0  0  0  0  0  0  0
   21.8277   -9.3987  -14.8801 N   0  0  0  0  0  0  0  0  0  0  0  0
   20.0307   -7.8576  -14.7595 C   0  0  0  0  0  0  0  0  0  0  0  0
   19.2167   -8.7777  -15.0805 O   0  0  0  0  0  0  0  0  0  0  0  0
   15.0993   -9.7926   -9.0614 N   0  0  0  0  0  0  0  0  0  0  0  0
   14.1321   -9.1282   -9.8645 C   0  0  0  0  0  0  0  0  0  0  0  0
   12.8610   -9.1855   -9.6151 N   0  0  0  0  0  0  0  0  0  0  0  0
   14.6284   -8.3790  -10.9813 N   0  0  0  0  0  0  0  0  0  0  0  0
   16.0775   -8.4449  -11.1985 C   0  0  0  0  0  0  0  0  0  0  0  0
   16.3666   -7.5288  -12.3660 C   0  0  0  0  0  0  0  0  0  0  0  0
   17.7871   -7.5760  -12.7946 C   0  0  0  0  0  0  0  0  0  0  0  0
   18.0505   -6.5997  -13.9078 C   0  0  2  0  0  0  0  0  0  0  0  0
   19.5109   -6.6764  -14.1690 N   0  0  0  0  0  0  0  0  0  0  0  0
   17.7192   -5.2368  -13.4597 C   0  0  0  0  0  0  0  0  0  0  0  0
   18.6538   -4.4577  -13.1434 O   0  0  0  0  0  0  0  0  0  0  0  0
   16.4427   -4.7727  -13.3720 O   0  0  0  0  0  0  0  0  0  0  0  0
  2  3  1  0
  2  1  1  0
  3  4  1  1
  5  6  1  6
  5  3  1  0
  7  5  1  0
  8  7  2  0
 10  9  1  0
 11 10  1  6
 11 12  1  0
 12  7  1  0
 13 23  1  0
 13 11  1  0
 14 13  2  0
 16 15  1  0
 17 16  2  0
 18 16  1  0
 19 18  1  0
 20 19  1  0
 20 21  1  0
 22 21  1  1
 22 23  1  0
 24 26  1  0
 24 22  1  0
 25 24  2  0
M  END
$$$$
