KVH.pdb
     RDKit          3D

 27 27  0  0  1  0  0  0  0  0999 V2000
   15.4827  -11.8146  -15.2093 N   0  0  0  0  0  0  0  0  0  0  0  0
   16.8938  -11.3916  -15.1958 C   0  0  1  0  0  0  0  0  0  0  0  0
   17.3987  -11.6027  -16.5909 C   0  0  0  0  0  0  0  0  0  0  0  0
   17.4749  -13.0160  -17.0360 C   0  0  0  0  0  0  0  0  0  0  0  0
   17.9591  -13.2482  -18.4221 C   0  0  0  0  0  0  0  0  0  0  0  0
   18.0738  -14.6748  -18.8427 C   0  0  0  0  0  0  0  0  0  0  0  0
   18.5451  -14.8975  -20.1705 N   0  0  0  0  0  0  0  0  0  0  0  0
   17.0358  -10.0142  -14.7155 C   0  0  0  0  0  0  0  0  0  0  0  0
   16.2826   -9.1246  -15.1858 O   0  0  0  0  0  0  0  0  0  0  0  0
   15.9814   -8.3796  -11.8072 C   0  0  0  0  0  0  0  0  0  0  0  0
   17.4781   -8.1714  -11.8052 C   0  0  1  0  0  0  0  0  0  0  0  0
   18.1007   -9.1544  -10.8369 C   0  0  0  0  0  0  0  0  0  0  0  0
   18.0663   -8.2801  -13.1924 C   0  0  2  0  0  0  0  0  0  0  0  0
   17.9812   -9.5983  -13.7368 N   0  0  0  0  0  0  0  0  0  0  0  0
   19.5005   -7.8532  -13.0803 C   0  0  0  0  0  0  0  0  0  0  0  0
   20.3261   -8.5517  -12.4540 O   0  0  0  0  0  0  0  0  0  0  0  0
   19.9252   -6.6426  -13.6920 N   0  0  0  0  0  0  0  0  0  0  0  0
   21.3522   -6.2481  -13.7228 C   0  0  1  0  0  0  0  0  0  0  0  0
   21.7462   -6.0897  -15.1565 C   0  0  0  0  0  0  0  0  0  0  0  0
   21.8961   -7.3295  -15.9107 C   0  0  0  0  0  0  0  0  0  0  0  0
   21.7319   -8.5981  -15.3442 C   0  0  0  0  0  0  0  0  0  0  0  0
   21.9347   -9.5297  -16.2912 N   0  0  0  0  0  0  0  0  0  0  0  0
   22.2167   -8.8500  -17.4126 C   0  0  0  0  0  0  0  0  0  0  0  0
   22.1940   -7.5402  -17.1874 N   0  0  0  0  0  0  0  0  0  0  0  0
   21.4488   -4.9404  -13.0357 C   0  0  0  0  0  0  0  0  0  0  0  0
   20.4415   -4.2793  -12.7276 O   0  0  0  0  0  0  0  0  0  0  0  0
   22.6766   -4.4155  -12.7156 O   0  0  0  0  0  0  0  0  0  0  0  0
  2  3  1  0
  2  1  1  6
  4  3  1  0
  4  5  1  0
  5  6  1  0
  7  6  1  0
  8  2  1  0
  9  8  2  0
 11 10  1  6
 11 12  1  0
 13 11  1  0
 13 14  1  1
 14  8  1  0
 15 16  2  0
 15 13  1  0
 17 15  1  0
 18 17  1  0
 18 19  1  6
 20 24  1  0
 20 19  1  0
 21 20  2  0
 22 21  1  0
 22 23  1  0
 23 24  2  0
 25 18  1  0
 25 27  1  0
 26 25  2  0
M  END
$$$$
