KVH.pdb
     RDKit          3D

 27 27  0  0  1  0  0  0  0  0999 V2000
   28.2494  -20.3296  -15.3024 N   0  0  0  0  0  0  0  0  0  0  0  0
   27.3976  -21.4965  -15.5901 C   0  0  1  0  0  0  0  0  0  0  0  0
   28.3263  -22.6688  -15.6855 C   0  0  0  0  0  0  0  0  0  0  0  0
   28.7211  -23.0611  -17.0609 C   0  0  0  0  0  0  0  0  0  0  0  0
   30.0684  -22.6246  -17.5126 C   0  0  0  0  0  0  0  0  0  0  0  0
   30.4060  -22.9178  -18.9357 C   0  0  0  0  0  0  0  0  0  0  0  0
   30.2719  -24.2791  -19.3406 N   0  0  0  0  0  0  0  0  0  0  0  0
   26.3455  -21.6537  -14.5819 C   0  0  0  0  0  0  0  0  0  0  0  0
   25.4801  -22.5515  -14.7397 O   0  0  0  0  0  0  0  0  0  0  0  0
   24.4221  -20.5066  -10.1036 C   0  0  0  0  0  0  0  0  0  0  0  0
   25.5597  -20.4106  -11.0934 C   0  0  1  0  0  0  0  0  0  0  0  0
   26.7710  -21.1021  -10.5050 C   0  0  0  0  0  0  0  0  0  0  0  0
   25.1812  -20.9665  -12.4463 C   0  0  2  0  0  0  0  0  0  0  0  0
   26.2263  -20.8504  -13.4134 N   0  0  0  0  0  0  0  0  0  0  0  0
   23.9684  -20.2048  -12.8942 C   0  0  0  0  0  0  0  0  0  0  0  0
   23.9220  -18.9605  -12.7873 O   0  0  0  0  0  0  0  0  0  0  0  0
   22.8609  -20.9044  -13.4455 N   0  0  0  0  0  0  0  0  0  0  0  0
   21.6269  -20.1991  -13.8612 C   0  0  1  0  0  0  0  0  0  0  0  0
   21.4142  -20.4795  -15.3146 C   0  0  0  0  0  0  0  0  0  0  0  0
   20.2069  -19.9049  -15.8983 C   0  0  0  0  0  0  0  0  0  0  0  0
   19.2998  -19.1242  -15.1740 C   0  0  0  0  0  0  0  0  0  0  0  0
   18.2995  -18.7471  -15.9881 N   0  0  0  0  0  0  0  0  0  0  0  0
   18.5850  -19.2832  -17.1840 C   0  0  0  0  0  0  0  0  0  0  0  0
   19.7202  -19.9727  -17.1319 N   0  0  0  0  0  0  0  0  0  0  0  0
   20.5159  -20.7836  -13.0767 C   0  0  0  0  0  0  0  0  0  0  0  0
   20.4582  -21.9981  -12.8156 O   0  0  0  0  0  0  0  0  0  0  0  0
   19.5025  -19.9835  -12.6092 O   0  0  0  0  0  0  0  0  0  0  0  0
  2  3  1  0
  2  1  1  1
  4  3  1  0
  4  5  1  0
  5  6  1  0
  7  6  1  0
  8  2  1  0
  9  8  2  0
 11 10  1  1
 11 12  1  0
 13 11  1  0
 13 14  1  6
 14  8  1  0
 15 16  2  0
 15 13  1  0
 17 15  1  0
 18 17  1  0
 18 19  1  6
 20 24  1  0
 20 19  1  0
 21 20  2  0
 22 21  1  0
 22 23  1  0
 23 24  2  0
 25 18  1  0
 25 27  1  0
 26 25  2  0
M  END
$$$$
