KVH.pdb
     RDKit          3D

 27 27  0  0  1  0  0  0  0  0999 V2000
   25.2534  -21.1829  -15.9127 N   0  0  0  0  0  0  0  0  0  0  0  0
   25.6093  -19.8033  -15.5382 C   0  0  1  0  0  0  0  0  0  0  0  0
   24.9270  -18.9181  -16.5366 C   0  0  0  0  0  0  0  0  0  0  0  0
   25.7992  -18.3660  -17.6024 C   0  0  0  0  0  0  0  0  0  0  0  0
   26.3886  -19.3480  -18.5502 C   0  0  0  0  0  0  0  0  0  0  0  0
   27.7905  -19.0772  -18.9820 C   0  0  0  0  0  0  0  0  0  0  0  0
   27.9445  -18.1481  -20.0534 N   0  0  0  0  0  0  0  0  0  0  0  0
   25.2494  -19.5158  -14.1469 C   0  0  0  0  0  0  0  0  0  0  0  0
   25.3391  -18.3348  -13.7263 O   0  0  0  0  0  0  0  0  0  0  0  0
   22.2290  -20.5573  -10.4357 C   0  0  0  0  0  0  0  0  0  0  0  0
   22.8266  -20.8378  -11.7950 C   0  0  1  0  0  0  0  0  0  0  0  0
   21.8465  -20.3846  -12.8559 C   0  0  0  0  0  0  0  0  0  0  0  0
   24.1861  -20.1995  -11.9581 C   0  0  2  0  0  0  0  0  0  0  0  0
   24.7966  -20.4923  -13.2162 N   0  0  0  0  0  0  0  0  0  0  0  0
   25.0351  -20.7151  -10.8333 C   0  0  0  0  0  0  0  0  0  0  0  0
   25.3119  -21.9309  -10.7494 O   0  0  0  0  0  0  0  0  0  0  0  0
   25.5298  -19.8126   -9.8531 N   0  0  0  0  0  0  0  0  0  0  0  0
   26.2962  -20.2872   -8.6782 C   0  0  1  0  0  0  0  0  0  0  0  0
   26.8608  -19.0848   -7.9915 C   0  0  0  0  0  0  0  0  0  0  0  0
   27.5947  -19.3485   -6.7586 C   0  0  0  0  0  0  0  0  0  0  0  0
   27.7529  -20.6288   -6.2174 C   0  0  0  0  0  0  0  0  0  0  0  0
   28.4729  -20.5399   -5.0863 N   0  0  0  0  0  0  0  0  0  0  0  0
   28.7505  -19.2363   -4.9359 C   0  0  0  0  0  0  0  0  0  0  0  0
   28.2283  -18.5260   -5.9308 N   0  0  0  0  0  0  0  0  0  0  0  0
   25.3299  -20.9610   -7.7816 C   0  0  0  0  0  0  0  0  0  0  0  0
   24.1296  -20.6383   -7.7411 O   0  0  0  0  0  0  0  0  0  0  0  0
   25.7435  -21.9781   -6.9572 O   0  0  0  0  0  0  0  0  0  0  0  0
  2  3  1  0
  2  1  1  6
  4  3  1  0
  4  5  1  0
  5  6  1  0
  7  6  1  0
  8  2  1  0
  9  8  2  0
 11 10  1  1
 11 12  1  0
 13 11  1  0
 13 14  1  6
 14  8  1  0
 15 16  2  0
 15 13  1  0
 17 15  1  0
 18 17  1  0
 18 19  1  1
 20 24  1  0
 20 19  1  0
 21 20  2  0
 22 21  1  0
 22 23  1  0
 23 24  2  0
 25 18  1  0
 25 27  1  0
 26 25  2  0
M  END
$$$$
