KVH.pdb
     RDKit          3D

 27 27  0  0  1  0  0  0  0  0999 V2000
   24.6536  -20.2340  -16.7954 N   0  0  0  0  0  0  0  0  0  0  0  0
   24.8638  -20.0875  -15.3447 C   0  0  1  0  0  0  0  0  0  0  0  0
   26.0616  -20.9264  -15.0170 C   0  0  0  0  0  0  0  0  0  0  0  0
   26.6140  -21.7192  -16.1430 C   0  0  0  0  0  0  0  0  0  0  0  0
   27.9094  -22.4054  -15.8965 C   0  0  0  0  0  0  0  0  0  0  0  0
   28.5373  -23.0589  -17.0813 C   0  0  0  0  0  0  0  0  0  0  0  0
   29.8057  -23.6715  -16.8563 N   0  0  0  0  0  0  0  0  0  0  0  0
   25.0033  -18.6794  -14.9629 C   0  0  0  0  0  0  0  0  0  0  0  0
   25.0788  -18.3837  -13.7436 O   0  0  0  0  0  0  0  0  0  0  0  0
   26.1712  -13.9834  -15.7210 C   0  0  0  0  0  0  0  0  0  0  0  0
   26.2243  -15.4478  -16.0897 C   0  0  1  0  0  0  0  0  0  0  0  0
   27.5536  -16.0119  -15.6356 C   0  0  0  0  0  0  0  0  0  0  0  0
   25.0515  -16.2160  -15.5268 C   0  0  2  0  0  0  0  0  0  0  0  0
   25.0610  -17.5986  -15.8866 N   0  0  0  0  0  0  0  0  0  0  0  0
   23.8148  -15.5483  -16.0525 C   0  0  0  0  0  0  0  0  0  0  0  0
   23.5121  -15.6294  -17.2623 O   0  0  0  0  0  0  0  0  0  0  0  0
   22.9786  -14.8161  -15.1666 N   0  0  0  0  0  0  0  0  0  0  0  0
   21.6359  -14.3460  -15.5780 C   0  0  1  0  0  0  0  0  0  0  0  0
   20.8844  -13.9837  -14.3370 C   0  0  0  0  0  0  0  0  0  0  0  0
   19.5367  -13.4650  -14.5440 C   0  0  0  0  0  0  0  0  0  0  0  0
   18.9392  -13.3593  -15.8045 C   0  0  0  0  0  0  0  0  0  0  0  0
   17.7044  -12.8488  -15.6620 N   0  0  0  0  0  0  0  0  0  0  0  0
   17.5468  -12.6457  -14.3456 C   0  0  0  0  0  0  0  0  0  0  0  0
   18.6368  -13.0120  -13.6789 N   0  0  0  0  0  0  0  0  0  0  0  0
   21.8419  -13.1344  -16.4033 C   0  0  0  0  0  0  0  0  0  0  0  0
   22.6591  -12.2513  -16.0890 O   0  0  0  0  0  0  0  0  0  0  0  0
   21.1217  -12.9528  -17.5582 O   0  0  0  0  0  0  0  0  0  0  0  0
  2  3  1  0
  2  1  1  6
  4  3  1  0
  4  5  1  0
  5  6  1  0
  7  6  1  0
  8  2  1  0
  9  8  2  0
 11 10  1  1
 11 12  1  0
 13 11  1  0
 13 14  1  6
 14  8  1  0
 15 16  2  0
 15 13  1  0
 17 15  1  0
 18 17  1  0
 18 19  1  1
 20 24  1  0
 20 19  1  0
 21 20  2  0
 22 21  1  0
 22 23  1  0
 23 24  2  0
 25 18  1  0
 25 27  1  0
 26 25  2  0
M  END
$$$$
