KVH.pdb
     RDKit          3D

 27 27  0  0  1  0  0  0  0  0999 V2000
   17.8859  -15.5832  -17.1816 N   0  0  0  0  0  0  0  0  0  0  0  0
   18.6007  -14.7857  -16.1700 C   0  0  1  0  0  0  0  0  0  0  0  0
   19.9442  -15.4309  -16.0132 C   0  0  0  0  0  0  0  0  0  0  0  0
   20.7637  -15.5087  -17.2476 C   0  0  0  0  0  0  0  0  0  0  0  0
   21.9864  -16.3514  -17.1784 C   0  0  0  0  0  0  0  0  0  0  0  0
   22.8689  -16.3204  -18.3806 C   0  0  0  0  0  0  0  0  0  0  0  0
   24.0221  -17.1585  -18.3292 N   0  0  0  0  0  0  0  0  0  0  0  0
   18.6624  -13.3711  -16.5483 C   0  0  0  0  0  0  0  0  0  0  0  0
   18.9062  -13.0707  -17.7442 O   0  0  0  0  0  0  0  0  0  0  0  0
   17.4335   -8.6694  -15.9351 C   0  0  0  0  0  0  0  0  0  0  0  0
   17.2490  -10.1670  -15.8538 C   0  0  1  0  0  0  0  0  0  0  0  0
   16.2351  -10.5857  -16.8969 C   0  0  0  0  0  0  0  0  0  0  0  0
   18.5585  -10.9069  -15.9954 C   0  0  2  0  0  0  0  0  0  0  0  0
   18.4632  -12.2889  -15.6462 N   0  0  0  0  0  0  0  0  0  0  0  0
   19.5398  -10.2087  -15.1003 C   0  0  0  0  0  0  0  0  0  0  0  0
   19.3770  -10.1988  -13.8613 O   0  0  0  0  0  0  0  0  0  0  0  0
   20.6660   -9.5518  -15.6663 N   0  0  0  0  0  0  0  0  0  0  0  0
   21.6643   -8.8570  -14.8214 C   0  0  1  0  0  0  0  0  0  0  0  0
   22.9114   -8.7011  -15.6316 C   0  0  0  0  0  0  0  0  0  0  0  0
   23.6856   -9.9200  -15.8396 C   0  0  0  0  0  0  0  0  0  0  0  0
   23.3818  -11.1380  -15.2221 C   0  0  0  0  0  0  0  0  0  0  0  0
   24.2748  -12.0622  -15.6144 N   0  0  0  0  0  0  0  0  0  0  0  0
   25.1075  -11.4275  -16.4527 C   0  0  0  0  0  0  0  0  0  0  0  0
   24.7578  -10.1522  -16.5877 N   0  0  0  0  0  0  0  0  0  0  0  0
   21.1057   -7.5217  -14.5108 C   0  0  0  0  0  0  0  0  0  0  0  0
   20.5362   -6.8269  -15.3707 O   0  0  0  0  0  0  0  0  0  0  0  0
   21.2049   -7.0080  -13.2413 O   0  0  0  0  0  0  0  0  0  0  0  0
  2  3  1  0
  2  1  1  6
  4  3  1  0
  4  5  1  0
  5  6  1  0
  7  6  1  0
  8  2  1  0
  9  8  2  0
 11 10  1  6
 11 12  1  0
 13 11  1  0
 13 14  1  1
 14  8  1  0
 15 16  2  0
 15 13  1  0
 17 15  1  0
 18 17  1  0
 18 19  1  6
 20 24  1  0
 20 19  1  0
 21 20  2  0
 22 21  1  0
 22 23  1  0
 23 24  2  0
 25 18  1  0
 25 27  1  0
 26 25  2  0
M  END
$$$$
