KVH.pdb
     RDKit          3D

 27 27  0  0  1  0  0  0  0  0999 V2000
   19.9239  -16.2406  -16.2507 N   0  0  0  0  0  0  0  0  0  0  0  0
   19.8000  -14.8765  -16.7927 C   0  0  1  0  0  0  0  0  0  0  0  0
   18.3304  -14.6300  -16.9515 C   0  0  0  0  0  0  0  0  0  0  0  0
   17.6137  -15.5855  -17.8319 C   0  0  0  0  0  0  0  0  0  0  0  0
   16.1777  -15.2994  -18.0888 C   0  0  0  0  0  0  0  0  0  0  0  0
   15.4984  -16.1981  -19.0666 C   0  0  0  0  0  0  0  0  0  0  0  0
   14.7238  -17.2569  -18.5065 N   0  0  0  0  0  0  0  0  0  0  0  0
   20.4769  -13.8967  -15.9383 C   0  0  0  0  0  0  0  0  0  0  0  0
   20.1240  -13.7899  -14.7367 O   0  0  0  0  0  0  0  0  0  0  0  0
   24.2550  -10.8581  -14.9199 C   0  0  0  0  0  0  0  0  0  0  0  0
   23.6415  -11.9877  -15.7142 C   0  0  1  0  0  0  0  0  0  0  0  0
   24.2934  -13.2861  -15.2893 C   0  0  0  0  0  0  0  0  0  0  0  0
   22.1378  -12.0266  -15.5740 C   0  0  2  0  0  0  0  0  0  0  0  0
   21.5252  -13.0391  -16.3744 N   0  0  0  0  0  0  0  0  0  0  0  0
   21.6385  -10.6698  -15.9762 C   0  0  0  0  0  0  0  0  0  0  0  0
   21.7174  -10.2881  -17.1636 O   0  0  0  0  0  0  0  0  0  0  0  0
   21.0701   -9.8097  -14.9979 N   0  0  0  0  0  0  0  0  0  0  0  0
   20.6296   -8.4364  -15.3343 C   0  0  1  0  0  0  0  0  0  0  0  0
   19.2064   -8.2987  -14.8969 C   0  0  0  0  0  0  0  0  0  0  0  0
   18.2183   -8.9534  -15.7474 C   0  0  0  0  0  0  0  0  0  0  0  0
   18.2739   -8.9336  -17.1451 C   0  0  0  0  0  0  0  0  0  0  0  0
   17.2285   -9.6216  -17.6344 N   0  0  0  0  0  0  0  0  0  0  0  0
   16.5468  -10.0539  -16.5631 C   0  0  0  0  0  0  0  0  0  0  0  0
   17.1350   -9.6568  -15.4392 N   0  0  0  0  0  0  0  0  0  0  0  0
   21.4797   -7.5113  -14.5513 C   0  0  0  0  0  0  0  0  0  0  0  0
   22.2767   -7.9170  -13.6872 O   0  0  0  0  0  0  0  0  0  0  0  0
   21.4074   -6.1568  -14.7643 O   0  0  0  0  0  0  0  0  0  0  0  0
  2  3  1  0
  2  1  1  1
  4  3  1  0
  4  5  1  0
  5  6  1  0
  7  6  1  0
  8  2  1  0
  9  8  2  0
 11 10  1  1
 11 12  1  0
 13 11  1  0
 13 14  1  6
 14  8  1  0
 15 16  2  0
 15 13  1  0
 17 15  1  0
 18 17  1  0
 18 19  1  1
 20 24  1  0
 20 19  1  0
 21 20  2  0
 22 21  1  0
 22 23  1  0
 23 24  2  0
 25 18  1  0
 25 27  1  0
 26 25  2  0
M  END
$$$$
