KVH.pdb
     RDKit          3D

 27 27  0  0  1  0  0  0  0  0999 V2000
   23.4031  -17.6491  -15.2885 N   0  0  0  0  0  0  0  0  0  0  0  0
   23.1208  -16.4762  -16.1340 C   0  0  1  0  0  0  0  0  0  0  0  0
   21.6641  -16.5582  -16.4762 C   0  0  0  0  0  0  0  0  0  0  0  0
   21.2133  -17.8519  -17.0457 C   0  0  0  0  0  0  0  0  0  0  0  0
   19.8391  -17.8829  -17.6118 C   0  0  0  0  0  0  0  0  0  0  0  0
   19.4351  -19.1570  -18.2741 C   0  0  0  0  0  0  0  0  0  0  0  0
   20.4852  -19.8991  -18.8916 N   0  0  0  0  0  0  0  0  0  0  0  0
   23.5040  -15.2292  -15.4659 C   0  0  0  0  0  0  0  0  0  0  0  0
   23.1750  -15.0556  -14.2653 O   0  0  0  0  0  0  0  0  0  0  0  0
   26.3527  -11.1829  -15.1582 C   0  0  0  0  0  0  0  0  0  0  0  0
   26.0312  -12.5440  -15.7304 C   0  0  1  0  0  0  0  0  0  0  0  0
   27.0345  -13.5424  -15.1936 C   0  0  0  0  0  0  0  0  0  0  0  0
   24.6049  -12.9540  -15.4479 C   0  0  2  0  0  0  0  0  0  0  0  0
   24.2356  -14.1778  -16.0857 N   0  0  0  0  0  0  0  0  0  0  0  0
   23.7362  -11.8302  -15.9318 C   0  0  0  0  0  0  0  0  0  0  0  0
   23.6745  -11.5509  -17.1483 O   0  0  0  0  0  0  0  0  0  0  0  0
   22.9756  -11.0753  -14.9981 N   0  0  0  0  0  0  0  0  0  0  0  0
   22.1256   -9.9410  -15.4268 C   0  0  1  0  0  0  0  0  0  0  0  0
   20.7216  -10.2472  -15.0136 C   0  0  0  0  0  0  0  0  0  0  0  0
   19.7520   -9.1792  -15.2320 C   0  0  0  0  0  0  0  0  0  0  0  0
   19.8413   -7.9236  -14.6216 C   0  0  0  0  0  0  0  0  0  0  0  0
   18.8056   -7.1673  -15.0228 N   0  0  0  0  0  0  0  0  0  0  0  0
   18.0968   -7.9396  -15.8596 C   0  0  0  0  0  0  0  0  0  0  0  0
   18.6591   -9.1374  -15.9851 N   0  0  0  0  0  0  0  0  0  0  0  0
   22.6071   -8.7465  -14.6967 C   0  0  0  0  0  0  0  0  0  0  0  0
   23.1686   -8.8298  -13.5903 O   0  0  0  0  0  0  0  0  0  0  0  0
   22.4421   -7.4936  -15.2338 O   0  0  0  0  0  0  0  0  0  0  0  0
  2  3  1  0
  2  1  1  1
  4  3  1  0
  4  5  1  0
  5  6  1  0
  7  6  1  0
  8  2  1  0
  9  8  2  0
 11 10  1  1
 11 12  1  0
 13 11  1  0
 13 14  1  6
 14  8  1  0
 15 16  2  0
 15 13  1  0
 17 15  1  0
 18 17  1  0
 18 19  1  1
 20 24  1  0
 20 19  1  0
 21 20  2  0
 22 21  1  0
 22 23  1  0
 23 24  2  0
 25 18  1  0
 25 27  1  0
 26 25  2  0
M  END
$$$$
