KVH.pdb
     RDKit          3D

 27 27  0  0  1  0  0  0  0  0999 V2000
   19.1182  -15.2520  -17.5117 N   0  0  0  0  0  0  0  0  0  0  0  0
   19.5477  -13.9285  -17.9953 C   0  0  1  0  0  0  0  0  0  0  0  0
   18.3821  -13.3711  -18.7546 C   0  0  0  0  0  0  0  0  0  0  0  0
   17.9137  -14.1913  -19.8989 C   0  0  0  0  0  0  0  0  0  0  0  0
   16.7869  -13.6361  -20.6939 C   0  0  0  0  0  0  0  0  0  0  0  0
   16.3531  -14.4492  -21.8668 C   0  0  0  0  0  0  0  0  0  0  0  0
   16.2024  -15.8484  -21.6340 N   0  0  0  0  0  0  0  0  0  0  0  0
   19.9998  -13.0757  -16.8924 C   0  0  0  0  0  0  0  0  0  0  0  0
   19.4174  -13.1571  -15.7815 O   0  0  0  0  0  0  0  0  0  0  0  0
   23.5305  -10.5671  -14.5783 C   0  0  0  0  0  0  0  0  0  0  0  0
   23.0442  -11.4537  -15.7011 C   0  0  1  0  0  0  0  0  0  0  0  0
   23.4824  -12.8748  -15.4182 C   0  0  0  0  0  0  0  0  0  0  0  0
   21.5513  -11.3422  -15.9041 C   0  0  2  0  0  0  0  0  0  0  0  0
   21.0702  -12.1428  -16.9852 N   0  0  0  0  0  0  0  0  0  0  0  0
   21.2647   -9.8918  -16.1608 C   0  0  0  0  0  0  0  0  0  0  0  0
   21.6441   -9.3448  -17.2184 O   0  0  0  0  0  0  0  0  0  0  0  0
   20.5549   -9.1316  -15.1920 N   0  0  0  0  0  0  0  0  0  0  0  0
   20.2477   -7.6986  -15.4036 C   0  0  1  0  0  0  0  0  0  0  0  0
   18.8646   -7.4527  -14.8913 C   0  0  0  0  0  0  0  0  0  0  0  0
   17.7808   -7.8625  -15.7778 C   0  0  0  0  0  0  0  0  0  0  0  0
   17.9895   -8.3456  -17.0740 C   0  0  0  0  0  0  0  0  0  0  0  0
   16.8008   -8.6355  -17.6296 N   0  0  0  0  0  0  0  0  0  0  0  0
   15.8837   -8.3378  -16.6972 C   0  0  0  0  0  0  0  0  0  0  0  0
   16.4658   -7.8776  -15.5944 N   0  0  0  0  0  0  0  0  0  0  0  0
   21.2194   -6.9293  -14.5938 C   0  0  0  0  0  0  0  0  0  0  0  0
   21.9223   -7.4654  -13.7193 O   0  0  0  0  0  0  0  0  0  0  0  0
   21.3709   -5.5791  -14.7926 O   0  0  0  0  0  0  0  0  0  0  0  0
  2  3  1  0
  2  1  1  1
  4  3  1  0
  4  5  1  0
  5  6  1  0
  7  6  1  0
  8  2  1  0
  9  8  2  0
 11 10  1  1
 11 12  1  0
 13 11  1  0
 13 14  1  6
 14  8  1  0
 15 16  2  0
 15 13  1  0
 17 15  1  0
 18 17  1  0
 18 19  1  1
 20 24  1  0
 20 19  1  0
 21 20  2  0
 22 21  1  0
 22 23  1  0
 23 24  2  0
 25 18  1  0
 25 27  1  0
 26 25  2  0
M  END
$$$$
