KVH.pdb
     RDKit          3D

 27 27  0  0  1  0  0  0  0  0999 V2000
   27.0438  -19.8002  -16.7891 N   0  0  0  0  0  0  0  0  0  0  0  0
   27.1098  -21.2693  -16.7022 C   0  0  1  0  0  0  0  0  0  0  0  0
   28.5331  -21.6342  -16.9968 C   0  0  0  0  0  0  0  0  0  0  0  0
   29.2014  -20.8129  -18.0362 C   0  0  0  0  0  0  0  0  0  0  0  0
   29.1151  -21.3145  -19.4329 C   0  0  0  0  0  0  0  0  0  0  0  0
   28.8033  -20.2934  -20.4746 C   0  0  0  0  0  0  0  0  0  0  0  0
   29.7760  -19.2649  -20.6504 N   0  0  0  0  0  0  0  0  0  0  0  0
   26.6303  -21.7514  -15.4039 C   0  0  0  0  0  0  0  0  0  0  0  0
   26.5882  -22.9896  -15.1918 O   0  0  0  0  0  0  0  0  0  0  0  0
   25.7529  -21.0886  -10.5879 C   0  0  0  0  0  0  0  0  0  0  0  0
   26.2576  -20.5671  -11.9133 C   0  0  1  0  0  0  0  0  0  0  0  0
   27.7708  -20.5458  -11.8789 C   0  0  0  0  0  0  0  0  0  0  0  0
   25.7203  -21.3661  -13.0775 C   0  0  2  0  0  0  0  0  0  0  0  0
   26.1997  -20.9071  -14.3425 N   0  0  0  0  0  0  0  0  0  0  0  0
   24.2251  -21.2555  -13.0144 C   0  0  0  0  0  0  0  0  0  0  0  0
   23.5953  -21.6878  -12.0254 O   0  0  0  0  0  0  0  0  0  0  0  0
   23.5172  -20.6532  -14.0897 N   0  0  0  0  0  0  0  0  0  0  0  0
   22.0415  -20.5299  -14.0745 C   0  0  1  0  0  0  0  0  0  0  0  0
   21.7087  -19.0756  -14.1753 C   0  0  0  0  0  0  0  0  0  0  0  0
   20.2891  -18.7592  -14.2884 C   0  0  0  0  0  0  0  0  0  0  0  0
   19.2830  -19.7313  -14.2904 C   0  0  0  0  0  0  0  0  0  0  0  0
   18.0893  -19.1254  -14.4076 N   0  0  0  0  0  0  0  0  0  0  0  0
   18.3554  -17.8125  -14.4759 C   0  0  0  0  0  0  0  0  0  0  0  0
   19.6645  -17.5932  -14.4050 N   0  0  0  0  0  0  0  0  0  0  0  0
   21.5414  -21.2364  -15.2754 C   0  0  0  0  0  0  0  0  0  0  0  0
   22.2495  -21.4109  -16.2827 O   0  0  0  0  0  0  0  0  0  0  0  0
   20.2588  -21.7257  -15.3068 O   0  0  0  0  0  0  0  0  0  0  0  0
  2  3  1  0
  2  1  1  1
  4  3  1  0
  4  5  1  0
  5  6  1  0
  7  6  1  0
  8  2  1  0
  9  8  2  0
 11 10  1  1
 11 12  1  0
 13 11  1  0
 13 14  1  6
 14  8  1  0
 15 16  2  0
 15 13  1  0
 17 15  1  0
 18 17  1  0
 18 19  1  6
 20 24  1  0
 20 19  1  0
 21 20  2  0
 22 21  1  0
 22 23  1  0
 23 24  2  0
 25 18  1  0
 25 27  1  0
 26 25  2  0
M  END
$$$$
