HTI.pdb
     RDKit          3D

 26 26  0  0  1  0  0  0  0  0999 V2000
   11.0075  -15.4345   18.1078 N   0  0  0  0  0  0  0  0  0  0  0  0
   11.3138  -15.4222   19.5063 C   0  0  1  0  0  0  0  0  0  0  0  0
   12.2943  -14.2994   19.8451 C   0  0  0  0  0  0  0  0  0  0  0  0
   13.6204  -14.7384   19.3333 C   0  0  0  0  0  0  0  0  0  0  0  0
   14.4231  -14.1378   18.3777 C   0  0  0  0  0  0  0  0  0  0  0  0
   15.5434  -14.8523   18.2013 N   0  0  0  0  0  0  0  0  0  0  0  0
   15.4551  -15.8958   19.0352 C   0  0  0  0  0  0  0  0  0  0  0  0
   14.2950  -15.8392   19.7271 N   0  0  0  0  0  0  0  0  0  0  0  0
   10.0872  -15.3401   20.3223 C   0  0  0  0  0  0  0  0  0  0  0  0
    8.9744  -15.1622   19.7274 O   0  0  0  0  0  0  0  0  0  0  0  0
    8.0636  -16.9617   20.6347 C   0  0  0  0  0  0  0  0  0  0  0  0
    8.2959  -16.8621   22.1195 C   0  0  1  0  0  0  0  0  0  0  0  0
    8.9686  -17.9797   22.5404 O   0  0  0  0  0  0  0  0  0  0  0  0
    8.9792  -15.5697   22.5004 C   0  0  2  0  0  0  0  0  0  0  0  0
   10.1938  -15.4614   21.7257 N   0  0  0  0  0  0  0  0  0  0  0  0
    9.2684  -15.4676   23.9468 C   0  0  0  0  0  0  0  0  0  0  0  0
   10.4322  -15.7298   24.3429 O   0  0  0  0  0  0  0  0  0  0  0  0
    5.3670  -12.7789   27.2303 C   0  0  0  0  0  0  0  0  0  0  0  0
    6.2378  -13.6843   26.4452 C   0  0  0  0  0  0  0  0  0  0  0  0
    7.6969  -13.5351   26.5243 C   0  0  2  0  0  0  0  0  0  0  0  0
    8.1468  -12.3153   25.6736 C   0  0  0  0  0  0  0  0  0  0  0  0
    8.5828  -14.6819   26.2205 C   0  0  2  0  0  0  0  0  0  0  0  0
    8.2318  -15.0814   24.8217 N   0  0  0  0  0  0  0  0  0  0  0  0
    8.4726  -15.8850   27.0566 C   0  0  0  0  0  0  0  0  0  0  0  0
    9.0848  -16.0934   28.2750 O   0  0  0  0  0  0  0  0  0  0  0  0
    7.7522  -16.8862   26.6677 O   0  0  0  0  0  0  0  0  0  0  0  0
  2  9  1  0
  2  1  1  6
  3  2  1  0
  4  8  1  0
  4  3  1  0
  5  4  2  0
  6  5  1  0
  6  7  1  0
  7  8  2  0
  9 10  2  0
 12 11  1  6
 12 14  1  0
 13 12  1  0
 14 15  1  6
 15  9  1  0
 16 17  2  0
 16 14  1  0
 18 19  1  0
 19 20  1  0
 20 22  1  0
 20 21  1  6
 22 23  1  6
 22 24  1  0
 23 16  1  0
 24 26  2  0
 24 25  1  0
M  END
$$$$
