HTI.pdb
     RDKit          3D

 26 26  0  0  1  0  0  0  0  0999 V2000
   11.2083  -16.1089   18.3913 N   0  0  0  0  0  0  0  0  0  0  0  0
   11.4705  -15.7883   19.7617 C   0  0  1  0  0  0  0  0  0  0  0  0
   12.1782  -14.4390   19.8857 C   0  0  0  0  0  0  0  0  0  0  0  0
   13.5502  -14.6393   19.3468 C   0  0  0  0  0  0  0  0  0  0  0  0
   14.1324  -14.0731   18.2249 C   0  0  0  0  0  0  0  0  0  0  0  0
   15.3902  -14.5150   18.0852 N   0  0  0  0  0  0  0  0  0  0  0  0
   15.6064  -15.3529   19.1066 C   0  0  0  0  0  0  0  0  0  0  0  0
   14.4999  -15.4374   19.8788 N   0  0  0  0  0  0  0  0  0  0  0  0
   10.2353  -15.8327   20.5678 C   0  0  0  0  0  0  0  0  0  0  0  0
    9.1207  -15.9541   19.9622 O   0  0  0  0  0  0  0  0  0  0  0  0
    8.3210  -17.4748   20.9529 C   0  0  0  0  0  0  0  0  0  0  0  0
    8.6086  -17.3302   22.4243 C   0  0  1  0  0  0  0  0  0  0  0  0
    9.4307  -18.3534   22.8194 O   0  0  0  0  0  0  0  0  0  0  0  0
    9.1473  -15.9604   22.7642 C   0  0  2  0  0  0  0  0  0  0  0  0
   10.3362  -15.7392   21.9737 N   0  0  0  0  0  0  0  0  0  0  0  0
    9.4351  -15.7881   24.2043 C   0  0  0  0  0  0  0  0  0  0  0  0
   10.6135  -15.9678   24.6033 O   0  0  0  0  0  0  0  0  0  0  0  0
    6.0580  -11.9826   25.7662 C   0  0  0  0  0  0  0  0  0  0  0  0
    7.2417  -12.8509   25.5682 C   0  0  0  0  0  0  0  0  0  0  0  0
    7.6173  -13.8132   26.6124 C   0  0  2  0  0  0  0  0  0  0  0  0
    7.8899  -13.0623   27.9449 C   0  0  0  0  0  0  0  0  0  0  0  0
    8.7125  -14.7814   26.3772 C   0  0  2  0  0  0  0  0  0  0  0  0
    8.3808  -15.4300   25.0700 N   0  0  0  0  0  0  0  0  0  0  0  0
    8.9109  -15.8572   27.3581 C   0  0  0  0  0  0  0  0  0  0  0  0
    9.8145  -15.8576   28.4002 O   0  0  0  0  0  0  0  0  0  0  0  0
    8.2064  -16.9398   27.2907 O   0  0  0  0  0  0  0  0  0  0  0  0
  2  9  1  0
  2  1  1  6
  3  2  1  0
  4  8  1  0
  4  3  1  0
  5  4  2  0
  6  5  1  0
  6  7  1  0
  7  8  2  0
  9 10  2  0
 12 11  1  6
 12 14  1  0
 13 12  1  0
 14 15  1  6
 15  9  1  0
 16 17  2  0
 16 14  1  0
 18 19  1  0
 19 20  1  0
 20 22  1  0
 20 21  1  1
 22 23  1  6
 22 24  1  0
 23 16  1  0
 24 26  2  0
 24 25  1  0
M  END
$$$$
