HTI.pdb
     RDKit          3D

 26 26  0  0  1  0  0  0  0  0999 V2000
    8.2925  -16.9883   18.7241 N   0  0  0  0  0  0  0  0  0  0  0  0
    8.2611  -15.9273   19.6848 C   0  0  1  0  0  0  0  0  0  0  0  0
    7.1916  -14.8945   19.3294 C   0  0  0  0  0  0  0  0  0  0  0  0
    7.6401  -14.2514   18.0651 C   0  0  0  0  0  0  0  0  0  0  0  0
    8.3695  -13.0862   17.8963 C   0  0  0  0  0  0  0  0  0  0  0  0
    8.5668  -12.8506   16.5915 N   0  0  0  0  0  0  0  0  0  0  0  0
    7.9698  -13.8543   15.9371 C   0  0  0  0  0  0  0  0  0  0  0  0
    7.4043  -14.7102   16.8178 N   0  0  0  0  0  0  0  0  0  0  0  0
    8.0821  -16.4492   21.0533 C   0  0  0  0  0  0  0  0  0  0  0  0
    7.4357  -17.5365   21.2074 O   0  0  0  0  0  0  0  0  0  0  0  0
    8.7791  -18.5468   22.2764 C   0  0  0  0  0  0  0  0  0  0  0  0
    9.3625  -17.6569   23.3424 C   0  0  1  0  0  0  0  0  0  0  0  0
   10.7077  -17.5182   23.1187 O   0  0  0  0  0  0  0  0  0  0  0  0
    8.6306  -16.3392   23.4432 C   0  0  2  0  0  0  0  0  0  0  0  0
    8.6322  -15.7261   22.1350 N   0  0  0  0  0  0  0  0  0  0  0  0
    9.2102  -15.4262   24.4514 C   0  0  0  0  0  0  0  0  0  0  0  0
    9.8846  -14.4442   24.0500 O   0  0  0  0  0  0  0  0  0  0  0  0
    6.4362  -11.7965   27.2732 C   0  0  0  0  0  0  0  0  0  0  0  0
    7.7916  -12.3272   26.9987 C   0  0  0  0  0  0  0  0  0  0  0  0
    7.9397  -13.6474   26.3723 C   0  0  2  0  0  0  0  0  0  0  0  0
    6.5935  -14.4191   26.4492 C   0  0  0  0  0  0  0  0  0  0  0  0
    9.0340  -14.5537   26.7891 C   0  0  2  0  0  0  0  0  0  0  0  0
    8.9845  -15.6913   25.8181 N   0  0  0  0  0  0  0  0  0  0  0  0
    8.9807  -15.1317   28.1388 C   0  0  0  0  0  0  0  0  0  0  0  0
    8.5539  -16.4012   28.4688 O   0  0  0  0  0  0  0  0  0  0  0  0
    9.3496  -14.4332   29.1629 O   0  0  0  0  0  0  0  0  0  0  0  0
  2  9  1  0
  2  1  1  6
  3  2  1  0
  4  8  1  0
  4  3  1  0
  5  4  2  0
  6  5  1  0
  6  7  1  0
  7  8  2  0
  9 10  2  0
 12 11  1  6
 12 14  1  0
 13 12  1  0
 14 15  1  6
 15  9  1  0
 16 17  2  0
 16 14  1  0
 18 19  1  0
 19 20  1  0
 20 22  1  0
 20 21  1  1
 22 23  1  6
 22 24  1  0
 23 16  1  0
 24 26  2  0
 24 25  1  0
M  END
$$$$
