HTI.pdb
     RDKit          3D

 26 26  0  0  1  0  0  0  0  0999 V2000
    8.6208  -16.9925   18.3905 N   0  0  0  0  0  0  0  0  0  0  0  0
    9.3153  -16.5766   19.5713 C   0  0  1  0  0  0  0  0  0  0  0  0
   10.0345  -15.2465   19.3471 C   0  0  0  0  0  0  0  0  0  0  0  0
    9.1321  -14.4254   18.4959 C   0  0  0  0  0  0  0  0  0  0  0  0
    8.2958  -13.3865   18.8693 C   0  0  0  0  0  0  0  0  0  0  0  0
    7.6484  -12.9076   17.7977 N   0  0  0  0  0  0  0  0  0  0  0  0
    8.0678  -13.6334   16.7539 C   0  0  0  0  0  0  0  0  0  0  0  0
    8.9669  -14.5566   17.1627 N   0  0  0  0  0  0  0  0  0  0  0  0
    8.4077  -16.5169   20.7332 C   0  0  0  0  0  0  0  0  0  0  0  0
    7.1846  -16.8318   20.5635 O   0  0  0  0  0  0  0  0  0  0  0  0
    7.7338  -18.4609   24.6291 C   0  0  0  0  0  0  0  0  0  0  0  0
    8.1762  -17.9851   23.2702 C   0  0  1  0  0  0  0  0  0  0  0  0
    7.3914  -18.5765   22.3147 O   0  0  0  0  0  0  0  0  0  0  0  0
    8.2019  -16.4774   23.1787 C   0  0  2  0  0  0  0  0  0  0  0  0
    8.9280  -16.1147   21.9834 N   0  0  0  0  0  0  0  0  0  0  0  0
    8.7948  -15.8313   24.3692 C   0  0  0  0  0  0  0  0  0  0  0  0
   10.0438  -15.8654   24.5072 O   0  0  0  0  0  0  0  0  0  0  0  0
    5.4887  -11.9400   26.3692 C   0  0  0  0  0  0  0  0  0  0  0  0
    6.6933  -12.6690   25.9091 C   0  0  0  0  0  0  0  0  0  0  0  0
    7.4427  -13.5023   26.8586 C   0  0  2  0  0  0  0  0  0  0  0  0
    7.9649  -12.6244   28.0292 C   0  0  0  0  0  0  0  0  0  0  0  0
    8.5448  -14.3695   26.3835 C   0  0  2  0  0  0  0  0  0  0  0  0
    7.9396  -15.2044   25.2991 N   0  0  0  0  0  0  0  0  0  0  0  0
    9.1675  -15.2901   27.3445 C   0  0  0  0  0  0  0  0  0  0  0  0
    8.7186  -16.5510   27.6781 O   0  0  0  0  0  0  0  0  0  0  0  0
   10.2398  -14.9438   27.9792 O   0  0  0  0  0  0  0  0  0  0  0  0
  2  9  1  0
  2  1  1  6
  3  2  1  0
  4  8  1  0
  4  3  1  0
  5  4  2  0
  6  5  1  0
  6  7  1  0
  7  8  2  0
  9 10  2  0
 12 11  1  1
 12 14  1  0
 13 12  1  0
 14 15  1  6
 15  9  1  0
 16 17  2  0
 16 14  1  0
 18 19  1  0
 19 20  1  0
 20 22  1  0
 20 21  1  1
 22 23  1  6
 22 24  1  0
 23 16  1  0
 24 26  2  0
 24 25  1  0
M  END
$$$$
