HTI.pdb
     RDKit          3D

 26 26  0  0  1  0  0  0  0  0999 V2000
    8.1552  -17.0762   19.2650 N   0  0  0  0  0  0  0  0  0  0  0  0
    8.0032  -15.9521   20.1383 C   0  0  1  0  0  0  0  0  0  0  0  0
    6.9669  -14.9687   19.5943 C   0  0  0  0  0  0  0  0  0  0  0  0
    7.5383  -14.4180   18.3360 C   0  0  0  0  0  0  0  0  0  0  0  0
    8.3169  -13.2861   18.1598 C   0  0  0  0  0  0  0  0  0  0  0  0
    8.6281  -13.1376   16.8645 N   0  0  0  0  0  0  0  0  0  0  0  0
    8.0543  -14.1631   16.2233 C   0  0  0  0  0  0  0  0  0  0  0  0
    7.3908  -14.9467   17.1028 N   0  0  0  0  0  0  0  0  0  0  0  0
    7.6791  -16.3815   21.5123 C   0  0  0  0  0  0  0  0  0  0  0  0
    6.7116  -17.1933   21.6812 O   0  0  0  0  0  0  0  0  0  0  0  0
    9.9140  -18.1860   23.1046 C   0  0  0  0  0  0  0  0  0  0  0  0
    8.5944  -17.9389   23.7871 C   0  0  1  0  0  0  0  0  0  0  0  0
    8.5913  -18.5844   24.9963 O   0  0  0  0  0  0  0  0  0  0  0  0
    8.2778  -16.4654   23.8912 C   0  0  2  0  0  0  0  0  0  0  0  0
    8.4511  -15.8778   22.5828 N   0  0  0  0  0  0  0  0  0  0  0  0
    9.1029  -15.7615   24.8961 C   0  0  0  0  0  0  0  0  0  0  0  0
   10.2563  -15.3870   24.5652 O   0  0  0  0  0  0  0  0  0  0  0  0
    6.0254  -12.3444   27.2418 C   0  0  0  0  0  0  0  0  0  0  0  0
    7.2236  -13.0253   26.6986 C   0  0  0  0  0  0  0  0  0  0  0  0
    8.1458  -13.7096   27.6145 C   0  0  2  0  0  0  0  0  0  0  0  0
    8.7444  -12.6861   28.6185 C   0  0  0  0  0  0  0  0  0  0  0  0
    9.2407  -14.5516   27.0811 C   0  0  2  0  0  0  0  0  0  0  0  0
    8.5658  -15.5385   26.1810 N   0  0  0  0  0  0  0  0  0  0  0  0
   10.0542  -15.3185   28.0344 C   0  0  0  0  0  0  0  0  0  0  0  0
   11.2037  -14.8861   28.6622 O   0  0  0  0  0  0  0  0  0  0  0  0
    9.7191  -16.5259   28.3548 O   0  0  0  0  0  0  0  0  0  0  0  0
  2  9  1  0
  2  1  1  6
  3  2  1  0
  4  8  1  0
  4  3  1  0
  5  4  2  0
  6  5  1  0
  6  7  1  0
  7  8  2  0
  9 10  2  0
 12 11  1  1
 12 14  1  0
 13 12  1  0
 14 15  1  6
 15  9  1  0
 16 17  2  0
 16 14  1  0
 18 19  1  0
 19 20  1  0
 20 22  1  0
 20 21  1  6
 22 23  1  6
 22 24  1  0
 23 16  1  0
 24 26  2  0
 24 25  1  0
M  END
$$$$
