HTI.pdb
     RDKit          3D

 26 26  0  0  1  0  0  0  0  0999 V2000
    9.6937  -17.4549   19.5156 N   0  0  0  0  0  0  0  0  0  0  0  0
    8.4435  -16.7739   19.3640 C   0  0  1  0  0  0  0  0  0  0  0  0
    7.5867  -17.4306   18.2817 C   0  0  0  0  0  0  0  0  0  0  0  0
    8.3410  -17.2813   17.0082 C   0  0  0  0  0  0  0  0  0  0  0  0
    9.6132  -16.7717   16.8087 C   0  0  0  0  0  0  0  0  0  0  0  0
    9.9271  -16.8118   15.5061 N   0  0  0  0  0  0  0  0  0  0  0  0
    8.8667  -17.3410   14.8835 C   0  0  0  0  0  0  0  0  0  0  0  0
    7.8985  -17.6301   15.7816 N   0  0  0  0  0  0  0  0  0  0  0  0
    7.7240  -16.6832   20.6492 C   0  0  0  0  0  0  0  0  0  0  0  0
    6.5665  -16.1505   20.6592 O   0  0  0  0  0  0  0  0  0  0  0  0
    6.4929  -19.1644   22.9357 C   0  0  0  0  0  0  0  0  0  0  0  0
    7.4633  -18.3249   23.7245 C   0  0  1  0  0  0  0  0  0  0  0  0
    8.6159  -19.0411   23.9180 O   0  0  0  0  0  0  0  0  0  0  0  0
    7.6939  -16.9753   23.0860 C   0  0  2  0  0  0  0  0  0  0  0  0
    8.3441  -17.1884   21.8135 N   0  0  0  0  0  0  0  0  0  0  0  0
    8.4856  -16.0575   23.9327 C   0  0  0  0  0  0  0  0  0  0  0  0
    9.6699  -15.8055   23.5948 O   0  0  0  0  0  0  0  0  0  0  0  0
    5.9917  -11.8226   25.7005 C   0  0  0  0  0  0  0  0  0  0  0  0
    7.1323  -12.6904   25.3260 C   0  0  0  0  0  0  0  0  0  0  0  0
    7.7826  -13.5155   26.3525 C   0  0  2  0  0  0  0  0  0  0  0  0
    8.5027  -12.6016   27.3822 C   0  0  0  0  0  0  0  0  0  0  0  0
    8.7005  -14.6093   25.9609 C   0  0  2  0  0  0  0  0  0  0  0  0
    7.8837  -15.5029   25.0813 N   0  0  0  0  0  0  0  0  0  0  0  0
    9.2727  -15.4490   27.0221 C   0  0  0  0  0  0  0  0  0  0  0  0
   10.4815  -15.2541   27.6572 O   0  0  0  0  0  0  0  0  0  0  0  0
    8.6350  -16.4922   27.4439 O   0  0  0  0  0  0  0  0  0  0  0  0
  2  9  1  0
  2  1  1  1
  3  2  1  0
  4  8  1  0
  4  3  1  0
  5  4  2  0
  6  5  1  0
  6  7  1  0
  7  8  2  0
  9 10  2  0
 12 11  1  6
 12 14  1  0
 13 12  1  0
 14 15  1  6
 15  9  1  0
 16 17  2  0
 16 14  1  0
 18 19  1  0
 19 20  1  0
 20 22  1  0
 20 21  1  1
 22 23  1  6
 22 24  1  0
 23 16  1  0
 24 26  2  0
 24 25  1  0
M  END
$$$$
