HTI.pdb
     RDKit          3D

 26 26  0  0  1  0  0  0  0  0999 V2000
   11.1893  -16.4239   18.4259 N   0  0  0  0  0  0  0  0  0  0  0  0
   11.4157  -15.7014   19.6408 C   0  0  1  0  0  0  0  0  0  0  0  0
   11.9324  -14.2914   19.3546 C   0  0  0  0  0  0  0  0  0  0  0  0
   13.3916  -14.4282   19.1000 C   0  0  0  0  0  0  0  0  0  0  0  0
   14.3934  -14.8061   19.9785 C   0  0  0  0  0  0  0  0  0  0  0  0
   15.5794  -14.8047   19.3537 N   0  0  0  0  0  0  0  0  0  0  0  0
   15.3355  -14.4302   18.0919 C   0  0  0  0  0  0  0  0  0  0  0  0
   14.0140  -14.1989   17.9243 N   0  0  0  0  0  0  0  0  0  0  0  0
   10.2046  -15.6780   20.4835 C   0  0  0  0  0  0  0  0  0  0  0  0
    9.0669  -15.6923   19.9099 O   0  0  0  0  0  0  0  0  0  0  0  0
    8.4251  -17.5547   20.9850 C   0  0  0  0  0  0  0  0  0  0  0  0
    8.7559  -17.3337   22.4377 C   0  0  1  0  0  0  0  0  0  0  0  0
    9.6715  -18.2739   22.8333 O   0  0  0  0  0  0  0  0  0  0  0  0
    9.1961  -15.9142   22.7087 C   0  0  2  0  0  0  0  0  0  0  0  0
   10.3532  -15.6409   21.8878 N   0  0  0  0  0  0  0  0  0  0  0  0
    9.4919  -15.6578   24.1346 C   0  0  0  0  0  0  0  0  0  0  0  0
   10.6879  -15.7191   24.5166 O   0  0  0  0  0  0  0  0  0  0  0  0
    5.7618  -12.2586   25.9201 C   0  0  0  0  0  0  0  0  0  0  0  0
    7.0596  -12.9318   25.6815 C   0  0  0  0  0  0  0  0  0  0  0  0
    7.5603  -13.9073   26.6588 C   0  0  2  0  0  0  0  0  0  0  0  0
    7.8031  -13.2059   28.0237 C   0  0  0  0  0  0  0  0  0  0  0  0
    8.7353  -14.7496   26.3391 C   0  0  2  0  0  0  0  0  0  0  0  0
    8.4252  -15.3556   25.0064 N   0  0  0  0  0  0  0  0  0  0  0  0
    9.0680  -15.8524   27.2511 C   0  0  0  0  0  0  0  0  0  0  0  0
   10.0263  -15.8330   28.2430 O   0  0  0  0  0  0  0  0  0  0  0  0
    8.4433  -16.9816   27.1647 O   0  0  0  0  0  0  0  0  0  0  0  0
  2  9  1  0
  2  1  1  6
  3  2  1  0
  4  8  1  0
  4  3  1  0
  5  4  2  0
  6  5  1  0
  6  7  1  0
  7  8  2  0
  9 10  2  0
 12 11  1  6
 12 14  1  0
 13 12  1  0
 14 15  1  6
 15  9  1  0
 16 17  2  0
 16 14  1  0
 18 19  1  0
 19 20  1  0
 20 22  1  0
 20 21  1  1
 22 23  1  6
 22 24  1  0
 23 16  1  0
 24 26  2  0
 24 25  1  0
M  END
$$$$
