HTI.pdb
     RDKit          3D

 26 26  0  0  1  0  0  0  0  0999 V2000
    8.7507  -17.4836   19.2148 N   0  0  0  0  0  0  0  0  0  0  0  0
    7.9347  -16.3741   19.6053 C   0  0  1  0  0  0  0  0  0  0  0  0
    6.8876  -16.0581   18.5373 C   0  0  0  0  0  0  0  0  0  0  0  0
    7.4939  -15.0254   17.6548 C   0  0  0  0  0  0  0  0  0  0  0  0
    8.7774  -14.5057   17.6831 C   0  0  0  0  0  0  0  0  0  0  0  0
    8.9262  -13.5913   16.7143 N   0  0  0  0  0  0  0  0  0  0  0  0
    7.7509  -13.5296   16.0764 C   0  0  0  0  0  0  0  0  0  0  0  0
    6.8741  -14.3932   16.6359 N   0  0  0  0  0  0  0  0  0  0  0  0
    7.3159  -16.6029   20.9252 C   0  0  0  0  0  0  0  0  0  0  0  0
    6.2013  -17.2186   20.9733 O   0  0  0  0  0  0  0  0  0  0  0  0
    8.3419  -18.6945   23.1994 C   0  0  0  0  0  0  0  0  0  0  0  0
    7.1090  -17.8724   23.4691 C   0  0  1  0  0  0  0  0  0  0  0  0
    6.5784  -18.2492   24.6755 O   0  0  0  0  0  0  0  0  0  0  0  0
    7.3836  -16.3902   23.3695 C   0  0  2  0  0  0  0  0  0  0  0  0
    7.9807  -16.1323   22.0794 N   0  0  0  0  0  0  0  0  0  0  0  0
    8.2463  -15.8828   24.4579 C   0  0  0  0  0  0  0  0  0  0  0  0
    9.4907  -15.8775   24.2801 O   0  0  0  0  0  0  0  0  0  0  0  0
    6.1166  -11.5973   26.6084 C   0  0  0  0  0  0  0  0  0  0  0  0
    7.0716  -12.6305   26.1449 C   0  0  0  0  0  0  0  0  0  0  0  0
    7.6437  -13.5750   27.1134 C   0  0  2  0  0  0  0  0  0  0  0  0
    8.4135  -12.7955   28.2151 C   0  0  0  0  0  0  0  0  0  0  0  0
    8.4844  -14.7024   26.6504 C   0  0  2  0  0  0  0  0  0  0  0  0
    7.6419  -15.4263   25.6476 N   0  0  0  0  0  0  0  0  0  0  0  0
    8.9261  -15.6923   27.6422 C   0  0  0  0  0  0  0  0  0  0  0  0
   10.1056  -15.6642   28.3569 O   0  0  0  0  0  0  0  0  0  0  0  0
    8.1870  -16.7182   27.9142 O   0  0  0  0  0  0  0  0  0  0  0  0
  2  9  1  0
  2  1  1  6
  3  2  1  0
  4  8  1  0
  4  3  1  0
  5  4  2  0
  6  5  1  0
  6  7  1  0
  7  8  2  0
  9 10  2  0
 12 11  1  1
 12 14  1  0
 13 12  1  0
 14 15  1  6
 15  9  1  0
 16 17  2  0
 16 14  1  0
 18 19  1  0
 19 20  1  0
 20 22  1  0
 20 21  1  1
 22 23  1  6
 22 24  1  0
 23 16  1  0
 24 26  2  0
 24 25  1  0
M  END
$$$$
