HTI.pdb
     RDKit          3D

 26 26  0  0  1  0  0  0  0  0999 V2000
    7.1580  -16.8612   19.8112 N   0  0  0  0  0  0  0  0  0  0  0  0
    7.3998  -15.7023   20.6162 C   0  0  1  0  0  0  0  0  0  0  0  0
    6.6053  -14.5009   20.1042 C   0  0  0  0  0  0  0  0  0  0  0  0
    7.2031  -14.1374   18.7914 C   0  0  0  0  0  0  0  0  0  0  0  0
    8.3028  -14.6904   18.1565 C   0  0  0  0  0  0  0  0  0  0  0  0
    8.5153  -14.0767   16.9839 N   0  0  0  0  0  0  0  0  0  0  0  0
    7.5618  -13.1436   16.8734 C   0  0  0  0  0  0  0  0  0  0  0  0
    6.7599  -13.1694   17.9616 N   0  0  0  0  0  0  0  0  0  0  0  0
    7.1233  -15.9724   22.0403 C   0  0  0  0  0  0  0  0  0  0  0  0
    5.9383  -16.2993   22.3760 O   0  0  0  0  0  0  0  0  0  0  0  0
    6.2548  -17.8998   23.4527 C   0  0  0  0  0  0  0  0  0  0  0  0
    7.4803  -17.7146   24.3087 C   0  0  1  0  0  0  0  0  0  0  0  0
    8.4494  -18.5903   23.8933 O   0  0  0  0  0  0  0  0  0  0  0  0
    7.9407  -16.2760   24.3346 C   0  0  2  0  0  0  0  0  0  0  0  0
    8.1788  -15.8585   22.9721 N   0  0  0  0  0  0  0  0  0  0  0  0
    9.1447  -16.0643   25.1664 C   0  0  0  0  0  0  0  0  0  0  0  0
   10.1858  -15.6313   24.6106 O   0  0  0  0  0  0  0  0  0  0  0  0
    8.1966  -12.4245   27.9578 C   0  0  0  0  0  0  0  0  0  0  0  0
    8.9098  -13.5391   27.2920 C   0  0  0  0  0  0  0  0  0  0  0  0
    9.4742  -14.6256   28.1034 C   0  0  2  0  0  0  0  0  0  0  0  0
   10.4454  -14.0384   29.1644 C   0  0  0  0  0  0  0  0  0  0  0  0
   10.1240  -15.7852   27.4511 C   0  0  2  0  0  0  0  0  0  0  0  0
    9.0782  -16.3549   26.5449 N   0  0  0  0  0  0  0  0  0  0  0  0
   10.6048  -16.8815   28.3030 C   0  0  0  0  0  0  0  0  0  0  0  0
   11.8912  -17.0497   28.7715 O   0  0  0  0  0  0  0  0  0  0  0  0
    9.7958  -17.8170   28.6812 O   0  0  0  0  0  0  0  0  0  0  0  0
  2  9  1  0
  2  1  1  6
  3  2  1  0
  4  8  1  0
  4  3  1  0
  5  4  2  0
  6  5  1  0
  6  7  1  0
  7  8  2  0
  9 10  2  0
 12 11  1  6
 12 14  1  0
 13 12  1  0
 14 15  1  6
 15  9  1  0
 16 17  2  0
 16 14  1  0
 18 19  1  0
 19 20  1  0
 20 22  1  0
 20 21  1  1
 22 23  1  6
 22 24  1  0
 23 16  1  0
 24 26  2  0
 24 25  1  0
M  END
$$$$
