HTI.pdb
     RDKit          3D

 26 26  0  0  1  0  0  0  0  0999 V2000
    9.1196  -18.2154   19.2972 N   0  0  0  0  0  0  0  0  0  0  0  0
    8.6024  -16.8813   19.2522 C   0  0  1  0  0  0  0  0  0  0  0  0
    7.7774  -16.6532   17.9856 C   0  0  0  0  0  0  0  0  0  0  0  0
    8.6978  -16.8945   16.8421 C   0  0  0  0  0  0  0  0  0  0  0  0
    8.5414  -17.7575   15.7703 C   0  0  0  0  0  0  0  0  0  0  0  0
    9.6021  -17.6770   14.9547 N   0  0  0  0  0  0  0  0  0  0  0  0
   10.4245  -16.7730   15.5011 C   0  0  0  0  0  0  0  0  0  0  0  0
    9.8890  -16.2910   16.6450 N   0  0  0  0  0  0  0  0  0  0  0  0
    7.8315  -16.5646   20.4699 C   0  0  0  0  0  0  0  0  0  0  0  0
    6.6723  -16.0522   20.3370 O   0  0  0  0  0  0  0  0  0  0  0  0
    6.1681  -18.5231   22.6189 C   0  0  0  0  0  0  0  0  0  0  0  0
    7.1554  -17.8237   23.5160 C   0  0  1  0  0  0  0  0  0  0  0  0
    8.1661  -18.6949   23.8296 O   0  0  0  0  0  0  0  0  0  0  0  0
    7.6443  -16.5259   22.9169 C   0  0  2  0  0  0  0  0  0  0  0  0
    8.4062  -16.8406   21.7304 N   0  0  0  0  0  0  0  0  0  0  0  0
    8.4480  -15.7161   23.8573 C   0  0  0  0  0  0  0  0  0  0  0  0
    9.6892  -15.6429   23.6722 O   0  0  0  0  0  0  0  0  0  0  0  0
    6.0124  -11.6869   27.1355 C   0  0  0  0  0  0  0  0  0  0  0  0
    6.5026  -12.8919   26.4270 C   0  0  0  0  0  0  0  0  0  0  0  0
    7.8924  -12.9392   25.9542 C   0  0  2  0  0  0  0  0  0  0  0  0
    8.0075  -12.2079   24.5882 C   0  0  0  0  0  0  0  0  0  0  0  0
    8.6077  -14.2326   25.8650 C   0  0  2  0  0  0  0  0  0  0  0  0
    7.7936  -15.0601   24.9205 N   0  0  0  0  0  0  0  0  0  0  0  0
    8.7779  -15.0181   27.0950 C   0  0  0  0  0  0  0  0  0  0  0  0
    9.6686  -14.7575   28.1154 O   0  0  0  0  0  0  0  0  0  0  0  0
    8.0582  -16.0729   27.3005 O   0  0  0  0  0  0  0  0  0  0  0  0
  2  9  1  0
  2  1  1  1
  3  2  1  0
  4  8  1  0
  4  3  1  0
  5  4  2  0
  6  5  1  0
  6  7  1  0
  7  8  2  0
  9 10  2  0
 12 11  1  6
 12 14  1  0
 13 12  1  0
 14 15  1  6
 15  9  1  0
 16 17  2  0
 16 14  1  0
 18 19  1  0
 19 20  1  0
 20 22  1  0
 20 21  1  6
 22 23  1  6
 22 24  1  0
 23 16  1  0
 24 26  2  0
 24 25  1  0
M  END
$$$$
