HTI.pdb
     RDKit          3D

 26 26  0  0  1  0  0  0  0  0999 V2000
    8.3575  -16.7239   19.5380 N   0  0  0  0  0  0  0  0  0  0  0  0
    8.0297  -15.6150   20.3820 C   0  0  1  0  0  0  0  0  0  0  0  0
    6.9582  -14.7332   19.7407 C   0  0  0  0  0  0  0  0  0  0  0  0
    7.5828  -14.1358   18.5299 C   0  0  0  0  0  0  0  0  0  0  0  0
    8.2877  -12.9493   18.4136 C   0  0  0  0  0  0  0  0  0  0  0  0
    8.6858  -12.7718   17.1460 N   0  0  0  0  0  0  0  0  0  0  0  0
    8.2396  -13.8332   16.4631 C   0  0  0  0  0  0  0  0  0  0  0  0
    7.5696  -14.6676   17.2893 N   0  0  0  0  0  0  0  0  0  0  0  0
    7.6302  -16.0668   21.7287 C   0  0  0  0  0  0  0  0  0  0  0  0
    6.5468  -16.7267   21.8499 O   0  0  0  0  0  0  0  0  0  0  0  0
    7.1801  -18.3065   22.8927 C   0  0  0  0  0  0  0  0  0  0  0  0
    8.1760  -17.8549   23.9285 C   0  0  1  0  0  0  0  0  0  0  0  0
    9.4097  -18.3595   23.6089 O   0  0  0  0  0  0  0  0  0  0  0  0
    8.1673  -16.3547   24.1063 C   0  0  2  0  0  0  0  0  0  0  0  0
    8.4611  -15.7516   22.8267 N   0  0  0  0  0  0  0  0  0  0  0  0
    9.1161  -15.8846   25.1383 C   0  0  0  0  0  0  0  0  0  0  0  0
   10.2890  -15.6010   24.7861 O   0  0  0  0  0  0  0  0  0  0  0  0
    7.3438  -11.8697   27.4836 C   0  0  0  0  0  0  0  0  0  0  0  0
    8.2102  -12.9671   26.9942 C   0  0  0  0  0  0  0  0  0  0  0  0
    8.7638  -13.9347   27.9506 C   0  0  2  0  0  0  0  0  0  0  0  0
    9.5829  -13.1874   29.0389 C   0  0  0  0  0  0  0  0  0  0  0  0
    9.5522  -15.0924   27.4705 C   0  0  2  0  0  0  0  0  0  0  0  0
    8.6700  -15.7731   26.4715 N   0  0  0  0  0  0  0  0  0  0  0  0
    9.9627  -16.1073   28.4504 C   0  0  0  0  0  0  0  0  0  0  0  0
   11.1738  -16.1668   29.1079 O   0  0  0  0  0  0  0  0  0  0  0  0
    9.1599  -17.0704   28.7677 O   0  0  0  0  0  0  0  0  0  0  0  0
  2  9  1  0
  2  1  1  6
  3  2  1  0
  4  8  1  0
  4  3  1  0
  5  4  2  0
  6  5  1  0
  6  7  1  0
  7  8  2  0
  9 10  2  0
 12 11  1  6
 12 14  1  0
 13 12  1  0
 14 15  1  6
 15  9  1  0
 16 17  2  0
 16 14  1  0
 18 19  1  0
 19 20  1  0
 20 22  1  0
 20 21  1  1
 22 23  1  6
 22 24  1  0
 23 16  1  0
 24 26  2  0
 24 25  1  0
M  END
$$$$
