GPE.pdb
     RDKit          3D

 21 21  0  0  1  0  0  0  0  0999 V2000
   18.5922  -12.2301  -17.1166 N   0  0  0  0  0  0  0  0  0  0  0  0
   19.8808  -11.6798  -17.3071 C   0  0  0  0  0  0  0  0  0  0  0  0
   20.4336  -10.8711  -16.2160 C   0  0  0  0  0  0  0  0  0  0  0  0
   19.5932  -10.3137  -15.4094 O   0  0  0  0  0  0  0  0  0  0  0  0
   21.7991  -10.6251  -15.9386 N   0  0  0  0  0  0  0  0  0  0  0  0
   22.9634  -11.1723  -16.6001 C   0  0  0  0  0  0  0  0  0  0  0  0
   23.9506  -11.2851  -15.4235 C   0  0  0  0  0  0  0  0  0  0  0  0
   23.7375   -9.9644  -14.7374 C   0  0  0  0  0  0  0  0  0  0  0  0
   22.2660   -9.7394  -14.8792 C   0  0  1  0  0  0  0  0  0  0  0  0
   21.9297   -8.3245  -15.1720 C   0  0  0  0  0  0  0  0  0  0  0  0
   21.8724   -7.9706  -16.3768 O   0  0  0  0  0  0  0  0  0  0  0  0
   21.6681   -7.3446  -14.1925 N   0  0  0  0  0  0  0  0  0  0  0  0
   21.3321   -5.9352  -14.5464 C   0  0  1  0  0  0  0  0  0  0  0  0
   19.8547   -5.8347  -14.4704 C   0  0  0  0  0  0  0  0  0  0  0  0
   19.1929   -4.6979  -15.1619 C   0  0  0  0  0  0  0  0  0  0  0  0
   17.8181   -5.0008  -15.5437 C   0  0  0  0  0  0  0  0  0  0  0  0
   17.5524   -6.1584  -15.9806 O   0  0  0  0  0  0  0  0  0  0  0  0
   22.1714   -5.0023  -13.8449 C   0  0  0  0  0  0  0  0  0  0  0  0
   22.4359   -3.7008  -14.2638 O   0  0  0  0  0  0  0  0  0  0  0  0
   16.7984   -4.0466  -15.4320 O   0  0  0  0  0  0  0  0  0  0  0  0
   22.7602   -5.3141  -12.7531 O   0  0  0  0  0  0  0  0  0  0  0  0
  1  2  1  0
  2  3  1  0
  3  4  2  0
  5  9  1  0
  5  3  1  0
  6  5  1  0
  7  6  1  0
  7  8  1  0
  8  9  1  0
 10 12  1  0
  9 10  1  6
 11 10  2  0
 13 12  1  0
 13 14  1  1
 14 15  1  0
 16 15  1  0
 16 20  1  0
 17 16  2  0
 18 13  1  0
 19 18  1  0
 21 18  2  0
M  END
$$$$
