GPE.pdb
     RDKit          3D

 21 21  0  0  1  0  0  0  0  0999 V2000
   13.7530  -11.7135  -11.0406 N   0  0  0  0  0  0  0  0  0  0  0  0
   14.2895  -10.8264  -10.0789 C   0  0  0  0  0  0  0  0  0  0  0  0
   14.3856   -9.4113  -10.4507 C   0  0  0  0  0  0  0  0  0  0  0  0
   14.0489   -9.0928  -11.6560 O   0  0  0  0  0  0  0  0  0  0  0  0
   14.8104   -8.3375   -9.6329 N   0  0  0  0  0  0  0  0  0  0  0  0
   15.2256   -8.3723   -8.2477 C   0  0  0  0  0  0  0  0  0  0  0  0
   14.7011   -7.0148   -7.7439 C   0  0  0  0  0  0  0  0  0  0  0  0
   15.1092   -6.1085   -8.8719 C   0  0  0  0  0  0  0  0  0  0  0  0
   14.8909   -6.9542  -10.0856 C   0  0  1  0  0  0  0  0  0  0  0  0
   15.9569   -6.7808  -11.1025 C   0  0  0  0  0  0  0  0  0  0  0  0
   17.0618   -7.3446  -10.8986 O   0  0  0  0  0  0  0  0  0  0  0  0
   15.8194   -6.0268  -12.2860 N   0  0  0  0  0  0  0  0  0  0  0  0
   16.9462   -5.8376  -13.2447 C   0  0  1  0  0  0  0  0  0  0  0  0
   16.8589   -6.9625  -14.2068 C   0  0  0  0  0  0  0  0  0  0  0  0
   17.8237   -6.9950  -15.3367 C   0  0  0  0  0  0  0  0  0  0  0  0
   18.8567   -8.0094  -15.1597 C   0  0  0  0  0  0  0  0  0  0  0  0
   19.9607   -7.8603  -15.7600 O   0  0  0  0  0  0  0  0  0  0  0  0
   17.0222   -4.4779  -13.7055 C   0  0  0  0  0  0  0  0  0  0  0  0
   18.1892   -3.8460  -14.1275 O   0  0  0  0  0  0  0  0  0  0  0  0
   18.6528   -9.1294  -14.3431 O   0  0  0  0  0  0  0  0  0  0  0  0
   15.9898   -3.7244  -13.7555 O   0  0  0  0  0  0  0  0  0  0  0  0
  1  2  1  0
  2  3  1  0
  3  4  2  0
  5  9  1  0
  5  3  1  0
  6  5  1  0
  7  6  1  0
  7  8  1  0
  8  9  1  0
 10 12  1  0
  9 10  1  6
 11 10  2  0
 13 12  1  0
 13 14  1  6
 14 15  1  0
 16 15  1  0
 16 20  1  0
 17 16  2  0
 18 13  1  0
 19 18  1  0
 21 18  2  0
M  END
$$$$
