GPE.pdb
     RDKit          3D

 21 21  0  0  1  0  0  0  0  0999 V2000
   23.1373  -14.0768  -17.4122 N   0  0  0  0  0  0  0  0  0  0  0  0
   23.7939  -12.9286  -17.9121 C   0  0  0  0  0  0  0  0  0  0  0  0
   23.9425  -11.7898  -17.0005 C   0  0  0  0  0  0  0  0  0  0  0  0
   22.8684  -11.3272  -16.4528 O   0  0  0  0  0  0  0  0  0  0  0  0
   25.1414  -11.1275  -16.6450 N   0  0  0  0  0  0  0  0  0  0  0  0
   26.4864  -11.3949  -17.1054 C   0  0  0  0  0  0  0  0  0  0  0  0
   27.3053  -11.0686  -15.8426 C   0  0  0  0  0  0  0  0  0  0  0  0
   26.6533   -9.7898  -15.3955 C   0  0  0  0  0  0  0  0  0  0  0  0
   25.2076  -10.0184  -15.7014 C   0  0  1  0  0  0  0  0  0  0  0  0
   24.5398   -8.8094  -16.2428 C   0  0  0  0  0  0  0  0  0  0  0  0
   24.4901   -8.6741  -17.4916 O   0  0  0  0  0  0  0  0  0  0  0  0
   23.9540   -7.7976  -15.4545 N   0  0  0  0  0  0  0  0  0  0  0  0
   23.2990   -6.5998  -16.0550 C   0  0  1  0  0  0  0  0  0  0  0  0
   21.8880   -6.6332  -15.6005 C   0  0  0  0  0  0  0  0  0  0  0  0
   21.0079   -5.4914  -15.9614 C   0  0  0  0  0  0  0  0  0  0  0  0
   19.6475   -5.6555  -15.4616 C   0  0  0  0  0  0  0  0  0  0  0  0
   19.4706   -6.3060  -14.3906 O   0  0  0  0  0  0  0  0  0  0  0  0
   24.1012   -5.4194  -15.8820 C   0  0  0  0  0  0  0  0  0  0  0  0
   24.8877   -5.1499  -14.7647 O   0  0  0  0  0  0  0  0  0  0  0  0
   18.5475   -5.1084  -16.1349 O   0  0  0  0  0  0  0  0  0  0  0  0
   24.1456   -4.4985  -16.7685 O   0  0  0  0  0  0  0  0  0  0  0  0
  1  2  1  0
  2  3  1  0
  3  4  2  0
  5  9  1  0
  5  3  1  0
  6  5  1  0
  7  6  1  0
  7  8  1  0
  8  9  1  0
 10 12  1  0
  9 10  1  6
 11 10  2  0
 13 12  1  0
 13 14  1  1
 14 15  1  0
 16 15  1  0
 16 20  1  0
 17 16  2  0
 18 13  1  0
 19 18  1  0
 21 18  2  0
M  END
$$$$
