GPE.pdb
     RDKit          3D

 21 21  0  0  1  0  0  0  0  0999 V2000
   28.7877  -27.1379  -16.2632 N   0  0  0  0  0  0  0  0  0  0  0  0
   29.0644  -26.0803  -17.1601 C   0  0  0  0  0  0  0  0  0  0  0  0
   28.6431  -24.7338  -16.7609 C   0  0  0  0  0  0  0  0  0  0  0  0
   27.9429  -24.6297  -15.6809 O   0  0  0  0  0  0  0  0  0  0  0  0
   28.9167  -23.5170  -17.4293 N   0  0  0  0  0  0  0  0  0  0  0  0
   29.6564  -23.3116  -18.6553 C   0  0  0  0  0  0  0  0  0  0  0  0
   30.3302  -21.9555  -18.3746 C   0  0  0  0  0  0  0  0  0  0  0  0
   29.1898  -21.1835  -17.7712 C   0  0  0  0  0  0  0  0  0  0  0  0
   28.4767  -22.2116  -16.9525 C   0  0  1  0  0  0  0  0  0  0  0  0
   27.0010  -22.0794  -17.0278 C   0  0  0  0  0  0  0  0  0  0  0  0
   26.3884  -22.7919  -17.8628 O   0  0  0  0  0  0  0  0  0  0  0  0
   26.2333  -21.2093  -16.2268 N   0  0  0  0  0  0  0  0  0  0  0  0
   24.7505  -21.1109  -16.3537 C   0  0  1  0  0  0  0  0  0  0  0  0
   24.2292  -20.9733  -14.9725 C   0  0  0  0  0  0  0  0  0  0  0  0
   22.7582  -20.8737  -14.7850 C   0  0  0  0  0  0  0  0  0  0  0  0
   22.3883  -20.6207  -13.3969 C   0  0  0  0  0  0  0  0  0  0  0  0
   21.1608  -20.5203  -13.1064 O   0  0  0  0  0  0  0  0  0  0  0  0
   24.3711  -20.1794  -17.3810 C   0  0  0  0  0  0  0  0  0  0  0  0
   23.1871  -20.2409  -18.1115 O   0  0  0  0  0  0  0  0  0  0  0  0
   23.3555  -20.4934  -12.3915 O   0  0  0  0  0  0  0  0  0  0  0  0
   25.1226  -19.1990  -17.7130 O   0  0  0  0  0  0  0  0  0  0  0  0
  1  2  1  0
  2  3  1  0
  3  4  2  0
  5  9  1  0
  5  3  1  0
  6  5  1  0
  7  6  1  0
  7  8  1  0
  8  9  1  0
 10 12  1  0
  9 10  1  6
 11 10  2  0
 13 12  1  0
 13 14  1  1
 14 15  1  0
 16 15  1  0
 16 20  1  0
 17 16  2  0
 18 13  1  0
 19 18  1  0
 21 18  2  0
M  END
$$$$
