GPE.pdb
     RDKit          3D

 21 21  0  0  1  0  0  0  0  0999 V2000
   30.3147  -22.4797  -10.6154 N   0  0  0  0  0  0  0  0  0  0  0  0
   29.5887  -21.2742  -10.4767 C   0  0  0  0  0  0  0  0  0  0  0  0
   28.2380  -21.3650   -9.9134 C   0  0  0  0  0  0  0  0  0  0  0  0
   27.4867  -22.3283  -10.3320 O   0  0  0  0  0  0  0  0  0  0  0  0
   27.6514  -20.5088   -8.9516 N   0  0  0  0  0  0  0  0  0  0  0  0
   28.2343  -19.3567   -8.2995 C   0  0  0  0  0  0  0  0  0  0  0  0
   27.5877  -19.4434   -6.9045 C   0  0  0  0  0  0  0  0  0  0  0  0
   26.1614  -19.7550   -7.2639 C   0  0  0  0  0  0  0  0  0  0  0  0
   26.2973  -20.6721   -8.4370 C   0  0  1  0  0  0  0  0  0  0  0  0
   25.2853  -20.4083   -9.4891 C   0  0  0  0  0  0  0  0  0  0  0  0
   25.6476  -19.7633  -10.5054 O   0  0  0  0  0  0  0  0  0  0  0  0
   23.9414  -20.8311   -9.4312 N   0  0  0  0  0  0  0  0  0  0  0  0
   23.0571  -20.8391  -10.6322 C   0  0  1  0  0  0  0  0  0  0  0  0
   21.9268  -21.7405  -10.3028 C   0  0  0  0  0  0  0  0  0  0  0  0
   20.8641  -21.9340  -11.3235 C   0  0  0  0  0  0  0  0  0  0  0  0
   19.8287  -22.8618  -10.8822 C   0  0  0  0  0  0  0  0  0  0  0  0
   19.9147  -23.3570   -9.7208 O   0  0  0  0  0  0  0  0  0  0  0  0
   22.8200  -19.5076  -11.1198 C   0  0  0  0  0  0  0  0  0  0  0  0
   22.7697  -19.1512  -12.4651 O   0  0  0  0  0  0  0  0  0  0  0  0
   18.7515  -23.2063  -11.7090 O   0  0  0  0  0  0  0  0  0  0  0  0
   22.6395  -18.5211  -10.3259 O   0  0  0  0  0  0  0  0  0  0  0  0
  1  2  1  0
  2  3  1  0
  3  4  2  0
  5  9  1  0
  5  3  1  0
  6  5  1  0
  7  6  1  0
  7  8  1  0
  8  9  1  0
 10 12  1  0
  9 10  1  6
 11 10  2  0
 13 12  1  0
 13 14  1  1
 14 15  1  0
 16 15  1  0
 16 20  1  0
 17 16  2  0
 18 13  1  0
 19 18  1  0
 21 18  2  0
M  END
$$$$
