GPE.pdb
     RDKit          3D

 21 21  0  0  1  0  0  0  0  0999 V2000
   19.3939  -29.8276   -9.5400 N   0  0  0  0  0  0  0  0  0  0  0  0
   20.0645  -29.7318  -10.7813 C   0  0  0  0  0  0  0  0  0  0  0  0
   19.9281  -28.4742  -11.5228 C   0  0  0  0  0  0  0  0  0  0  0  0
   19.2108  -27.5454  -10.9840 O   0  0  0  0  0  0  0  0  0  0  0  0
   20.4975  -28.1534  -12.7778 N   0  0  0  0  0  0  0  0  0  0  0  0
   21.2431  -29.0116  -13.6722 C   0  0  0  0  0  0  0  0  0  0  0  0
   22.2522  -28.0146  -14.2717 C   0  0  0  0  0  0  0  0  0  0  0  0
   21.3636  -26.8346  -14.5518 C   0  0  0  0  0  0  0  0  0  0  0  0
   20.4218  -26.8328  -13.3904 C   0  0  1  0  0  0  0  0  0  0  0  0
   19.0306  -26.4996  -13.7831 C   0  0  0  0  0  0  0  0  0  0  0  0
   18.2160  -27.4467  -13.9232 O   0  0  0  0  0  0  0  0  0  0  0  0
   18.5544  -25.1922  -14.0108 N   0  0  0  0  0  0  0  0  0  0  0  0
   17.1747  -24.9231  -14.5094 C   0  0  1  0  0  0  0  0  0  0  0  0
   16.7103  -23.7095  -13.7953 C   0  0  0  0  0  0  0  0  0  0  0  0
   15.3470  -23.1988  -14.0942 C   0  0  0  0  0  0  0  0  0  0  0  0
   15.0390  -21.9717  -13.3682 C   0  0  0  0  0  0  0  0  0  0  0  0
   15.9180  -21.4881  -12.5969 O   0  0  0  0  0  0  0  0  0  0  0  0
   17.1081  -25.0055  -15.9431 C   0  0  0  0  0  0  0  0  0  0  0  0
   15.9969  -25.4363  -16.6635 O   0  0  0  0  0  0  0  0  0  0  0  0
   13.8049  -21.3245  -13.5117 O   0  0  0  0  0  0  0  0  0  0  0  0
   18.1005  -24.6848  -16.6836 O   0  0  0  0  0  0  0  0  0  0  0  0
  1  2  1  0
  2  3  1  0
  3  4  2  0
  5  9  1  0
  5  3  1  0
  6  5  1  0
  7  6  1  0
  7  8  1  0
  8  9  1  0
 10 12  1  0
  9 10  1  6
 11 10  2  0
 13 12  1  0
 13 14  1  6
 14 15  1  0
 16 15  1  0
 16 20  1  0
 17 16  2  0
 18 13  1  0
 19 18  1  0
 21 18  2  0
M  END
$$$$
