GPE.pdb
     RDKit          3D

 21 21  0  0  1  0  0  0  0  0999 V2000
   17.6785  -23.6764    4.4721 N   0  0  0  0  0  0  0  0  0  0  0  0
   18.6154  -22.6232    4.3599 C   0  0  0  0  0  0  0  0  0  0  0  0
   18.5618  -21.5660    5.3744 C   0  0  0  0  0  0  0  0  0  0  0  0
   17.4829  -21.4768    6.0785 O   0  0  0  0  0  0  0  0  0  0  0  0
   19.5671  -20.6174    5.6774 N   0  0  0  0  0  0  0  0  0  0  0  0
   20.9066  -20.5245    5.1394 C   0  0  0  0  0  0  0  0  0  0  0  0
   21.6847  -20.0036    6.3621 C   0  0  0  0  0  0  0  0  0  0  0  0
   20.7511  -18.9399    6.8694 C   0  0  0  0  0  0  0  0  0  0  0  0
   19.3985  -19.5338    6.6379 C   0  0  1  0  0  0  0  0  0  0  0  0
   18.4108  -18.5366    6.1578 C   0  0  0  0  0  0  0  0  0  0  0  0
   18.0680  -18.5827    4.9493 O   0  0  0  0  0  0  0  0  0  0  0  0
   17.8262  -17.5373    6.9626 N   0  0  0  0  0  0  0  0  0  0  0  0
   16.8816  -16.5231    6.4117 C   0  0  1  0  0  0  0  0  0  0  0  0
   15.5518  -17.1781    6.3763 C   0  0  0  0  0  0  0  0  0  0  0  0
   14.4846  -16.6465    7.2634 C   0  0  0  0  0  0  0  0  0  0  0  0
   13.2369  -17.3926    7.1446 C   0  0  0  0  0  0  0  0  0  0  0  0
   13.1983  -18.3867    6.3626 O   0  0  0  0  0  0  0  0  0  0  0  0
   17.0562  -15.2435    7.0435 C   0  0  0  0  0  0  0  0  0  0  0  0
   16.6096  -14.0321    6.5217 O   0  0  0  0  0  0  0  0  0  0  0  0
   12.0962  -17.0356    7.8754 O   0  0  0  0  0  0  0  0  0  0  0  0
   17.6609  -15.1220    8.1641 O   0  0  0  0  0  0  0  0  0  0  0  0
  1  2  1  0
  2  3  1  0
  3  4  2  0
  5  9  1  0
  5  3  1  0
  6  5  1  0
  7  6  1  0
  7  8  1  0
  8  9  1  0
 10 12  1  0
  9 10  1  6
 11 10  2  0
 13 12  1  0
 13 14  1  1
 14 15  1  0
 16 15  1  0
 16 20  1  0
 17 16  2  0
 18 13  1  0
 19 18  1  0
 21 18  2  0
M  END
$$$$
