GPE.pdb
     RDKit          3D

 21 21  0  0  1  0  0  0  0  0999 V2000
   25.3181  -24.0417  -14.6384 N   0  0  0  0  0  0  0  0  0  0  0  0
   24.3412  -23.1045  -15.0469 C   0  0  0  0  0  0  0  0  0  0  0  0
   23.4204  -22.6043  -14.0214 C   0  0  0  0  0  0  0  0  0  0  0  0
   23.4876  -23.1470  -12.8515 O   0  0  0  0  0  0  0  0  0  0  0  0
   22.4519  -21.5825  -14.1642 N   0  0  0  0  0  0  0  0  0  0  0  0
   22.1267  -20.8110  -15.3438 C   0  0  0  0  0  0  0  0  0  0  0  0
   21.7731  -19.4474  -14.7214 C   0  0  0  0  0  0  0  0  0  0  0  0
   20.9226  -19.8713  -13.5563 C   0  0  0  0  0  0  0  0  0  0  0  0
   21.5925  -21.1208  -13.0811 C   0  0  1  0  0  0  0  0  0  0  0  0
   20.6247  -22.1697  -12.6762 C   0  0  0  0  0  0  0  0  0  0  0  0
   20.2729  -23.0111  -13.5414 O   0  0  0  0  0  0  0  0  0  0  0  0
   20.0695  -22.2916  -11.3859 N   0  0  0  0  0  0  0  0  0  0  0  0
   19.0465  -23.3250  -11.0540 C   0  0  1  0  0  0  0  0  0  0  0  0
   19.3065  -23.7228   -9.6495 C   0  0  0  0  0  0  0  0  0  0  0  0
   18.4158  -24.7399   -9.0325 C   0  0  0  0  0  0  0  0  0  0  0  0
   18.6909  -24.9358   -7.6135 C   0  0  0  0  0  0  0  0  0  0  0  0
   19.6208  -24.2641   -7.0790 O   0  0  0  0  0  0  0  0  0  0  0  0
   17.7329  -22.9186  -11.4738 C   0  0  0  0  0  0  0  0  0  0  0  0
   16.7845  -23.7633  -12.0450 O   0  0  0  0  0  0  0  0  0  0  0  0
   17.9501  -25.8392   -6.8404 O   0  0  0  0  0  0  0  0  0  0  0  0
   17.3310  -21.7101  -11.3550 O   0  0  0  0  0  0  0  0  0  0  0  0
  1  2  1  0
  2  3  1  0
  3  4  2  0
  5  9  1  0
  5  3  1  0
  6  5  1  0
  7  6  1  0
  7  8  1  0
  8  9  1  0
 10 12  1  0
  9 10  1  6
 11 10  2  0
 13 12  1  0
 13 14  1  1
 14 15  1  0
 16 15  1  0
 16 20  1  0
 17 16  2  0
 18 13  1  0
 19 18  1  0
 21 18  2  0
M  END
$$$$
