GPE.pdb
     RDKit          3D

 21 21  0  0  1  0  0  0  0  0999 V2000
   24.3710  -14.9119  -18.0939 N   0  0  0  0  0  0  0  0  0  0  0  0
   24.8650  -13.5949  -18.2388 C   0  0  0  0  0  0  0  0  0  0  0  0
   24.5490  -12.6382  -17.1735 C   0  0  0  0  0  0  0  0  0  0  0  0
   23.4321  -12.8004  -16.5459 O   0  0  0  0  0  0  0  0  0  0  0  0
   25.3345  -11.5417  -16.7458 N   0  0  0  0  0  0  0  0  0  0  0  0
   26.6374  -11.1301  -17.2205 C   0  0  0  0  0  0  0  0  0  0  0  0
   27.2695  -10.5860  -15.9258 C   0  0  0  0  0  0  0  0  0  0  0  0
   26.1295   -9.7857  -15.3597 C   0  0  0  0  0  0  0  0  0  0  0  0
   24.9306  -10.6132  -15.6972 C   0  0  1  0  0  0  0  0  0  0  0  0
   23.7704   -9.7920  -16.1217 C   0  0  0  0  0  0  0  0  0  0  0  0
   23.6728   -9.4968  -17.3397 O   0  0  0  0  0  0  0  0  0  0  0  0
   22.7652   -9.3174  -15.2543 N   0  0  0  0  0  0  0  0  0  0  0  0
   21.6267   -8.4830  -15.7362 C   0  0  1  0  0  0  0  0  0  0  0  0
   20.4230   -9.3448  -15.6528 C   0  0  0  0  0  0  0  0  0  0  0  0
   19.1140   -8.7605  -16.0450 C   0  0  0  0  0  0  0  0  0  0  0  0
   18.0283   -9.7328  -15.9848 C   0  0  0  0  0  0  0  0  0  0  0  0
   18.2928  -10.9131  -15.6129 O   0  0  0  0  0  0  0  0  0  0  0  0
   21.6409   -7.1767  -15.1360 C   0  0  0  0  0  0  0  0  0  0  0  0
   21.0969   -6.0316  -15.7123 O   0  0  0  0  0  0  0  0  0  0  0  0
   16.7136   -9.3862  -16.3225 O   0  0  0  0  0  0  0  0  0  0  0  0
   22.1787   -6.9648  -13.9950 O   0  0  0  0  0  0  0  0  0  0  0  0
  1  2  1  0
  2  3  1  0
  3  4  2  0
  5  9  1  0
  5  3  1  0
  6  5  1  0
  7  6  1  0
  7  8  1  0
  8  9  1  0
 10 12  1  0
  9 10  1  6
 11 10  2  0
 13 12  1  0
 13 14  1  1
 14 15  1  0
 16 15  1  0
 16 20  1  0
 17 16  2  0
 18 13  1  0
 19 18  1  0
 21 18  2  0
M  END
$$$$
