GPE.pdb
     RDKit          3D

 21 21  0  0  1  0  0  0  0  0999 V2000
   28.3991  -18.9676  -16.1166 N   0  0  0  0  0  0  0  0  0  0  0  0
   27.8495  -18.8865  -14.8162 C   0  0  0  0  0  0  0  0  0  0  0  0
   26.7790  -19.8302  -14.4797 C   0  0  0  0  0  0  0  0  0  0  0  0
   26.0361  -20.2511  -15.4485 O   0  0  0  0  0  0  0  0  0  0  0  0
   26.4584  -20.3414  -13.1998 N   0  0  0  0  0  0  0  0  0  0  0  0
   27.1235  -20.0917  -11.9398 C   0  0  0  0  0  0  0  0  0  0  0  0
   26.9568  -21.4526  -11.2385 C   0  0  0  0  0  0  0  0  0  0  0  0
   25.5192  -21.7652  -11.5483 C   0  0  0  0  0  0  0  0  0  0  0  0
   25.3519  -21.2553  -12.9439 C   0  0  1  0  0  0  0  0  0  0  0  0
   24.0431  -20.5900  -13.1564 C   0  0  0  0  0  0  0  0  0  0  0  0
   23.9171  -19.4014  -12.7670 O   0  0  0  0  0  0  0  0  0  0  0  0
   22.9262  -21.1970  -13.7665 N   0  0  0  0  0  0  0  0  0  0  0  0
   21.6160  -20.4975  -13.9035 C   0  0  1  0  0  0  0  0  0  0  0  0
   21.3263  -20.4510  -15.3569 C   0  0  0  0  0  0  0  0  0  0  0  0
   20.0772  -19.7797  -15.8016 C   0  0  0  0  0  0  0  0  0  0  0  0
   19.8700  -19.8836  -17.2417 C   0  0  0  0  0  0  0  0  0  0  0  0
   20.7097  -20.5353  -17.9285 O   0  0  0  0  0  0  0  0  0  0  0  0
   20.6460  -21.0108  -12.9747 C   0  0  0  0  0  0  0  0  0  0  0  0
   20.5761  -22.3351  -12.5496 O   0  0  0  0  0  0  0  0  0  0  0  0
   18.7692  -19.2863  -17.8695 O   0  0  0  0  0  0  0  0  0  0  0  0
   19.7436  -20.2640  -12.4609 O   0  0  0  0  0  0  0  0  0  0  0  0
  1  2  1  0
  2  3  1  0
  3  4  2  0
  5  9  1  0
  5  3  1  0
  6  5  1  0
  7  6  1  0
  7  8  1  0
  8  9  1  0
 10 12  1  0
  9 10  1  1
 11 10  2  0
 13 12  1  0
 13 14  1  6
 14 15  1  0
 16 15  1  0
 16 20  1  0
 17 16  2  0
 18 13  1  0
 19 18  1  0
 21 18  2  0
M  END
$$$$
