GPE.pdb
     RDKit          3D

 21 21  0  0  1  0  0  0  0  0999 V2000
   28.2369  -19.4122  -16.1543 N   0  0  0  0  0  0  0  0  0  0  0  0
   27.9106  -19.4888  -14.7805 C   0  0  0  0  0  0  0  0  0  0  0  0
   26.7072  -20.2437  -14.4174 C   0  0  0  0  0  0  0  0  0  0  0  0
   25.9550  -20.6566  -15.3825 O   0  0  0  0  0  0  0  0  0  0  0  0
   26.2656  -20.5777  -13.1152 N   0  0  0  0  0  0  0  0  0  0  0  0
   26.8846  -20.2597  -11.8471 C   0  0  0  0  0  0  0  0  0  0  0  0
   26.5367  -21.5125  -11.0218 C   0  0  0  0  0  0  0  0  0  0  0  0
   25.0929  -21.7119  -11.3904 C   0  0  0  0  0  0  0  0  0  0  0  0
   25.0561  -21.3430  -12.8390 C   0  0  1  0  0  0  0  0  0  0  0  0
   23.8387  -20.5775  -13.2033 C   0  0  0  0  0  0  0  0  0  0  0  0
   23.8324  -19.3407  -12.9788 O   0  0  0  0  0  0  0  0  0  0  0  0
   22.6841  -21.1394  -13.7857 N   0  0  0  0  0  0  0  0  0  0  0  0
   21.4815  -20.3219  -14.1173 C   0  0  1  0  0  0  0  0  0  0  0  0
   21.5797  -20.0169  -15.5650 C   0  0  0  0  0  0  0  0  0  0  0  0
   21.3151  -21.1139  -16.5321 C   0  0  0  0  0  0  0  0  0  0  0  0
   20.5342  -20.6689  -17.6809 C   0  0  0  0  0  0  0  0  0  0  0  0
   20.2961  -21.4966  -18.6081 O   0  0  0  0  0  0  0  0  0  0  0  0
   20.2855  -20.8975  -13.5649 C   0  0  0  0  0  0  0  0  0  0  0  0
   19.1037  -20.1998  -13.3286 O   0  0  0  0  0  0  0  0  0  0  0  0
   20.0449  -19.3594  -17.7726 O   0  0  0  0  0  0  0  0  0  0  0  0
   20.2221  -22.1313  -13.2333 O   0  0  0  0  0  0  0  0  0  0  0  0
  1  2  1  0
  2  3  1  0
  3  4  2  0
  5  9  1  0
  5  3  1  0
  6  5  1  0
  7  6  1  0
  7  8  1  0
  8  9  1  0
 10 12  1  0
  9 10  1  1
 11 10  2  0
 13 12  1  0
 13 14  1  6
 14 15  1  0
 16 15  1  0
 16 20  1  0
 17 16  2  0
 18 13  1  0
 19 18  1  0
 21 18  2  0
M  END
$$$$
