GPE.pdb
     RDKit          3D

 21 21  0  0  1  0  0  0  0  0999 V2000
   25.4683  -21.3883   -8.8473 N   0  0  0  0  0  0  0  0  0  0  0  0
   24.6359  -20.3753   -9.3769 C   0  0  0  0  0  0  0  0  0  0  0  0
   24.7539  -20.0906  -10.8104 C   0  0  0  0  0  0  0  0  0  0  0  0
   24.2194  -18.9970  -11.2416 O   0  0  0  0  0  0  0  0  0  0  0  0
   25.3932  -20.8845  -11.7919 N   0  0  0  0  0  0  0  0  0  0  0  0
   26.1169  -22.1242  -11.6135 C   0  0  0  0  0  0  0  0  0  0  0  0
   27.2121  -21.9886  -12.6877 C   0  0  0  0  0  0  0  0  0  0  0  0
   26.4143  -21.4728  -13.8530 C   0  0  0  0  0  0  0  0  0  0  0  0
   25.4284  -20.5502  -13.2104 C   0  0  1  0  0  0  0  0  0  0  0  0
   24.0789  -20.6415  -13.8194 C   0  0  0  0  0  0  0  0  0  0  0  0
   23.2372  -21.3993  -13.2740 O   0  0  0  0  0  0  0  0  0  0  0  0
   23.6706  -19.9364  -14.9702 N   0  0  0  0  0  0  0  0  0  0  0  0
   22.2638  -19.9667  -15.4648 C   0  0  1  0  0  0  0  0  0  0  0  0
   21.4276  -19.4520  -14.3538 C   0  0  0  0  0  0  0  0  0  0  0  0
   21.0588  -18.0124  -14.3627 C   0  0  0  0  0  0  0  0  0  0  0  0
   19.8150  -17.7504  -13.6472 C   0  0  0  0  0  0  0  0  0  0  0  0
   19.8601  -17.0597  -12.5878 O   0  0  0  0  0  0  0  0  0  0  0  0
   22.1586  -19.4092  -16.7859 C   0  0  0  0  0  0  0  0  0  0  0  0
   22.9024  -18.3289  -17.2539 O   0  0  0  0  0  0  0  0  0  0  0  0
   18.5861  -18.2395  -14.1089 O   0  0  0  0  0  0  0  0  0  0  0  0
   21.3418  -19.8770  -17.6519 O   0  0  0  0  0  0  0  0  0  0  0  0
  1  2  1  0
  2  3  1  0
  3  4  2  0
  5  9  1  0
  5  3  1  0
  6  5  1  0
  7  6  1  0
  7  8  1  0
  8  9  1  0
 10 12  1  0
  9 10  1  6
 11 10  2  0
 13 12  1  0
 13 14  1  1
 14 15  1  0
 16 15  1  0
 16 20  1  0
 17 16  2  0
 18 13  1  0
 19 18  1  0
 21 18  2  0
M  END
$$$$
