GPE.pdb
     RDKit          3D

 21 21  0  0  1  0  0  0  0  0999 V2000
   22.6626  -14.0584  -17.1760 N   0  0  0  0  0  0  0  0  0  0  0  0
   23.7290  -13.1940  -17.5154 C   0  0  0  0  0  0  0  0  0  0  0  0
   23.9074  -11.9930  -16.6934 C   0  0  0  0  0  0  0  0  0  0  0  0
   22.8700  -11.5454  -16.0681 O   0  0  0  0  0  0  0  0  0  0  0  0
   25.0995  -11.2551  -16.5019 N   0  0  0  0  0  0  0  0  0  0  0  0
   26.4098  -11.5029  -17.0623 C   0  0  0  0  0  0  0  0  0  0  0  0
   27.3206  -11.0418  -15.9092 C   0  0  0  0  0  0  0  0  0  0  0  0
   26.6494   -9.7591  -15.5036 C   0  0  0  0  0  0  0  0  0  0  0  0
   25.1951  -10.0713  -15.6566 C   0  0  1  0  0  0  0  0  0  0  0  0
   24.4241   -8.9388  -16.2256 C   0  0  0  0  0  0  0  0  0  0  0  0
   24.2576   -8.9073  -17.4712 O   0  0  0  0  0  0  0  0  0  0  0  0
   23.8620   -7.8917  -15.4669 N   0  0  0  0  0  0  0  0  0  0  0  0
   23.1045   -6.7711  -16.0955 C   0  0  1  0  0  0  0  0  0  0  0  0
   21.8048   -6.7056  -15.3849 C   0  0  0  0  0  0  0  0  0  0  0  0
   20.8760   -5.5959  -15.7234 C   0  0  0  0  0  0  0  0  0  0  0  0
   19.6589   -5.6221  -14.9199 C   0  0  0  0  0  0  0  0  0  0  0  0
   18.7827   -4.7310  -15.1193 O   0  0  0  0  0  0  0  0  0  0  0  0
   23.9242   -5.5991  -16.2422 C   0  0  0  0  0  0  0  0  0  0  0  0
   23.6586   -4.5480  -17.1162 O   0  0  0  0  0  0  0  0  0  0  0  0
   19.4431   -6.6067  -13.9470 O   0  0  0  0  0  0  0  0  0  0  0  0
   24.9956   -5.4365  -15.5627 O   0  0  0  0  0  0  0  0  0  0  0  0
  1  2  1  0
  2  3  1  0
  3  4  2  0
  5  9  1  0
  5  3  1  0
  6  5  1  0
  7  6  1  0
  7  8  1  0
  8  9  1  0
 10 12  1  0
  9 10  1  6
 11 10  2  0
 13 12  1  0
 13 14  1  1
 14 15  1  0
 16 15  1  0
 16 20  1  0
 17 16  2  0
 18 13  1  0
 19 18  1  0
 21 18  2  0
M  END
$$$$
