CPV.pdb
     RDKit          3D

 21 21  0  0  1  0  0  0  0  0999 V2000
   22.3849  -13.8683  -17.8517 N   0  0  0  0  0  0  0  0  0  0  0  0
   23.3516  -12.7670  -18.0868 C   0  0  1  0  0  0  0  0  0  0  0  0
   22.9890  -12.1728  -19.4490 C   0  0  0  0  0  0  0  0  0  0  0  0
   23.6570  -13.3617  -20.6775 S   0  0  0  0  0  0  0  0  0  0  0  0
   23.2562  -11.8164  -16.9885 C   0  0  0  0  0  0  0  0  0  0  0  0
   22.1167  -11.6594  -16.4296 O   0  0  0  0  0  0  0  0  0  0  0  0
   24.3650  -11.0780  -16.5325 N   0  0  0  0  0  0  0  0  0  0  0  0
   25.7269  -11.4168  -17.0229 C   0  0  0  0  0  0  0  0  0  0  0  0
   26.5845  -10.9966  -15.8106 C   0  0  0  0  0  0  0  0  0  0  0  0
   25.9343   -9.6654  -15.5344 C   0  0  0  0  0  0  0  0  0  0  0  0
   24.4600   -9.9753  -15.6343 C   0  0  1  0  0  0  0  0  0  0  0  0
   23.8493   -8.7305  -16.2018 C   0  0  0  0  0  0  0  0  0  0  0  0
   23.7440   -8.6288  -17.4292 O   0  0  0  0  0  0  0  0  0  0  0  0
   20.5644   -7.8294  -15.2753 C   0  0  0  0  0  0  0  0  0  0  0  0
   21.2590   -7.0517  -16.3705 C   0  0  1  0  0  0  0  0  0  0  0  0
   20.4259   -5.9356  -16.9060 C   0  0  0  0  0  0  0  0  0  0  0  0
   22.5903   -6.5920  -15.8276 C   0  0  2  0  0  0  0  0  0  0  0  0
   23.4029   -7.6955  -15.3656 N   0  0  0  0  0  0  0  0  0  0  0  0
   22.3951   -5.5614  -14.7872 C   0  0  0  0  0  0  0  0  0  0  0  0
   22.3028   -5.8621  -13.5868 O   0  0  0  0  0  0  0  0  0  0  0  0
   22.3147   -4.2380  -15.1677 O   0  0  0  0  0  0  0  0  0  0  0  0
  2  1  1  1
  3  2  1  0
  4  3  1  0
  5  7  1  0
  5  2  1  0
  6  5  2  0
  7  8  1  0
  9  8  1  0
 10  9  1  0
 11 10  1  0
 11  7  1  0
 11 12  1  6
 12 18  1  0
 13 12  2  0
 15 14  1  1
 15 16  1  0
 17 15  1  0
 17 18  1  1
 19 17  1  0
 19 21  1  0
 20 19  2  0
M  END
$$$$
