CPV.pdb
     RDKit          3D

 21 21  0  0  1  0  0  0  0  0999 V2000
   24.2744  -12.6127  -18.1788 N   0  0  0  0  0  0  0  0  0  0  0  0
   23.6332  -12.2906  -16.8797 C   0  0  1  0  0  0  0  0  0  0  0  0
   24.7405  -12.3875  -15.8287 C   0  0  0  0  0  0  0  0  0  0  0  0
   25.1391  -14.1761  -15.7237 S   0  0  0  0  0  0  0  0  0  0  0  0
   23.0253  -10.9711  -16.9708 C   0  0  0  0  0  0  0  0  0  0  0  0
   23.6376  -10.0751  -17.6473 O   0  0  0  0  0  0  0  0  0  0  0  0
   21.8027  -10.6600  -16.3455 N   0  0  0  0  0  0  0  0  0  0  0  0
   21.0923  -11.7020  -15.5585 C   0  0  0  0  0  0  0  0  0  0  0  0
   19.6262  -11.2573  -15.7452 C   0  0  0  0  0  0  0  0  0  0  0  0
   19.8121   -9.7829  -15.4953 C   0  0  0  0  0  0  0  0  0  0  0  0
   21.0486   -9.4514  -16.2959 C   0  0  1  0  0  0  0  0  0  0  0  0
   21.7400   -8.3865  -15.5007 C   0  0  0  0  0  0  0  0  0  0  0  0
   22.4970   -8.7283  -14.5852 O   0  0  0  0  0  0  0  0  0  0  0  0
   23.4863   -3.8616  -15.3004 C   0  0  0  0  0  0  0  0  0  0  0  0
   22.8148   -4.9546  -16.1009 C   0  0  1  0  0  0  0  0  0  0  0  0
   23.7175   -5.5631  -17.1214 C   0  0  0  0  0  0  0  0  0  0  0  0
   22.2614   -5.9610  -15.1215 C   0  0  2  0  0  0  0  0  0  0  0  0
   21.5391   -7.0261  -15.7814 N   0  0  0  0  0  0  0  0  0  0  0  0
   21.4492   -5.2842  -14.0897 C   0  0  0  0  0  0  0  0  0  0  0  0
   20.2113   -5.2414  -14.1647 O   0  0  0  0  0  0  0  0  0  0  0  0
   22.0895   -4.6891  -13.0226 O   0  0  0  0  0  0  0  0  0  0  0  0
  2  1  1  6
  3  2  1  0
  4  3  1  0
  5  7  1  0
  5  2  1  0
  6  5  2  0
  7  8  1  0
  9  8  1  0
 10  9  1  0
 11 10  1  0
 11  7  1  0
 11 12  1  1
 12 18  1  0
 13 12  2  0
 15 14  1  1
 15 16  1  0
 17 15  1  0
 17 18  1  6
 19 17  1  0
 19 21  1  0
 20 19  2  0
M  END
$$$$
