CPV.pdb
     RDKit          3D

 21 21  0  0  1  0  0  0  0  0999 V2000
   27.5252  -19.5608  -17.8690 N   0  0  0  0  0  0  0  0  0  0  0  0
   27.7937  -18.9310  -16.5522 C   0  0  1  0  0  0  0  0  0  0  0  0
   27.0808  -17.5779  -16.5801 C   0  0  0  0  0  0  0  0  0  0  0  0
   27.3338  -16.8742  -14.9039 S   0  0  0  0  0  0  0  0  0  0  0  0
   27.3214  -19.8208  -15.5015 C   0  0  0  0  0  0  0  0  0  0  0  0
   26.1534  -20.3269  -15.6253 O   0  0  0  0  0  0  0  0  0  0  0  0
   28.1019  -20.1343  -14.3723 N   0  0  0  0  0  0  0  0  0  0  0  0
   29.4921  -19.6175  -14.2719 C   0  0  0  0  0  0  0  0  0  0  0  0
   30.1553  -20.7301  -13.4327 C   0  0  0  0  0  0  0  0  0  0  0  0
   29.0794  -20.8866  -12.3891 C   0  0  0  0  0  0  0  0  0  0  0  0
   27.8084  -20.8965  -13.2041 C   0  0  1  0  0  0  0  0  0  0  0  0
   26.7938  -20.2237  -12.3309 C   0  0  0  0  0  0  0  0  0  0  0  0
   26.8449  -18.9954  -12.2017 O   0  0  0  0  0  0  0  0  0  0  0  0
   23.3631  -19.8571  -12.7206 C   0  0  0  0  0  0  0  0  0  0  0  0
   23.4039  -20.5384  -11.3713 C   0  0  1  0  0  0  0  0  0  0  0  0
   22.9661  -21.9637  -11.4286 C   0  0  0  0  0  0  0  0  0  0  0  0
   24.7972  -20.3666  -10.8171 C   0  0  2  0  0  0  0  0  0  0  0  0
   25.8020  -20.9637  -11.6688 N   0  0  0  0  0  0  0  0  0  0  0  0
   24.8656  -20.8669   -9.4287 C   0  0  0  0  0  0  0  0  0  0  0  0
   25.4414  -21.9304   -9.1510 O   0  0  0  0  0  0  0  0  0  0  0  0
   24.2734  -20.1289   -8.4251 O   0  0  0  0  0  0  0  0  0  0  0  0
  2  1  1  6
  3  2  1  0
  4  3  1  0
  5  7  1  0
  5  2  1  0
  6  5  2  0
  7  8  1  0
  9  8  1  0
 10  9  1  0
 11 10  1  0
 11  7  1  0
 11 12  1  1
 12 18  1  0
 13 12  2  0
 15 14  1  6
 15 16  1  0
 17 15  1  0
 17 18  1  6
 19 17  1  0
 19 21  1  0
 20 19  2  0
M  END
$$$$
