CPV.pdb
     RDKit          3D

 21 21  0  0  1  0  0  0  0  0999 V2000
   25.3833  -19.0381  -18.2458 N   0  0  0  0  0  0  0  0  0  0  0  0
   26.1901  -18.5786  -17.0879 C   0  0  1  0  0  0  0  0  0  0  0  0
   25.7256  -17.1515  -16.7917 C   0  0  0  0  0  0  0  0  0  0  0  0
   27.0722  -16.4139  -15.7861 S   0  0  0  0  0  0  0  0  0  0  0  0
   25.9898  -19.5020  -15.9806 C   0  0  0  0  0  0  0  0  0  0  0  0
   24.7980  -19.8979  -15.7389 O   0  0  0  0  0  0  0  0  0  0  0  0
   27.0541  -19.9633  -15.1824 N   0  0  0  0  0  0  0  0  0  0  0  0
   28.4520  -19.6085  -15.5427 C   0  0  0  0  0  0  0  0  0  0  0  0
   29.2130  -20.8333  -14.9927 C   0  0  0  0  0  0  0  0  0  0  0  0
   28.5303  -20.9305  -13.6528 C   0  0  0  0  0  0  0  0  0  0  0  0
   27.0707  -20.7544  -13.9967 C   0  0  1  0  0  0  0  0  0  0  0  0
   26.4907  -20.0256  -12.8233 C   0  0  0  0  0  0  0  0  0  0  0  0
   26.2543  -18.8173  -12.9343 O   0  0  0  0  0  0  0  0  0  0  0  0
   23.9162  -19.3951  -12.5613 C   0  0  0  0  0  0  0  0  0  0  0  0
   23.8286  -20.2302  -11.3038 C   0  0  1  0  0  0  0  0  0  0  0  0
   23.2641  -21.5895  -11.5493 C   0  0  0  0  0  0  0  0  0  0  0  0
   25.2035  -20.2613  -10.6818 C   0  0  2  0  0  0  0  0  0  0  0  0
   26.2178  -20.6917  -11.6185 N   0  0  0  0  0  0  0  0  0  0  0  0
   25.1937  -21.0746   -9.4485 C   0  0  0  0  0  0  0  0  0  0  0  0
   24.6853  -20.6525   -8.3982 O   0  0  0  0  0  0  0  0  0  0  0  0
   25.7646  -22.3300   -9.4743 O   0  0  0  0  0  0  0  0  0  0  0  0
  2  1  1  6
  3  2  1  0
  4  3  1  0
  5  7  1  0
  5  2  1  0
  6  5  2  0
  7  8  1  0
  9  8  1  0
 10  9  1  0
 11 10  1  0
 11  7  1  0
 11 12  1  1
 12 18  1  0
 13 12  2  0
 15 14  1  6
 15 16  1  0
 17 15  1  0
 17 18  1  6
 19 17  1  0
 19 21  1  0
 20 19  2  0
M  END
$$$$
