CPV.pdb
     RDKit          3D

 21 21  0  0  1  0  0  0  0  0999 V2000
   23.7521  -21.5530  -13.1148 N   0  0  0  0  0  0  0  0  0  0  0  0
   24.9316  -20.6952  -12.8396 C   0  0  1  0  0  0  0  0  0  0  0  0
   24.4271  -19.2526  -12.9062 C   0  0  0  0  0  0  0  0  0  0  0  0
   25.9437  -18.2189  -12.8896 S   0  0  0  0  0  0  0  0  0  0  0  0
   25.4872  -21.0627  -11.5453 C   0  0  0  0  0  0  0  0  0  0  0  0
   24.6716  -21.3095  -10.5917 O   0  0  0  0  0  0  0  0  0  0  0  0
   26.8739  -21.1526  -11.3187 N   0  0  0  0  0  0  0  0  0  0  0  0
   27.8216  -20.8361  -12.4194 C   0  0  0  0  0  0  0  0  0  0  0  0
   29.0102  -21.7486  -12.0501 C   0  0  0  0  0  0  0  0  0  0  0  0
   29.0686  -21.4445  -10.5753 C   0  0  0  0  0  0  0  0  0  0  0  0
   27.6195  -21.5007  -10.1548 C   0  0  1  0  0  0  0  0  0  0  0  0
   27.4982  -20.4678   -9.0764 C   0  0  0  0  0  0  0  0  0  0  0  0
   27.1796  -19.3160   -9.3925 O   0  0  0  0  0  0  0  0  0  0  0  0
   27.2605  -21.5747   -5.0264 C   0  0  0  0  0  0  0  0  0  0  0  0
   26.7765  -20.2388   -5.5438 C   0  0  1  0  0  0  0  0  0  0  0  0
   26.6520  -19.2118   -4.4685 C   0  0  0  0  0  0  0  0  0  0  0  0
   27.7025  -19.8210   -6.6602 C   0  0  2  0  0  0  0  0  0  0  0  0
   27.7392  -20.7911   -7.7321 N   0  0  0  0  0  0  0  0  0  0  0  0
   29.0470  -19.5171   -6.1287 C   0  0  0  0  0  0  0  0  0  0  0  0
   29.9908  -20.3117   -6.2613 O   0  0  0  0  0  0  0  0  0  0  0  0
   29.2487  -18.3209   -5.4719 O   0  0  0  0  0  0  0  0  0  0  0  0
  2  1  1  1
  3  2  1  0
  4  3  1  0
  5  7  1  0
  5  2  1  0
  6  5  2  0
  7  8  1  0
  9  8  1  0
 10  9  1  0
 11 10  1  0
 11  7  1  0
 11 12  1  1
 12 18  1  0
 13 12  2  0
 15 14  1  1
 15 16  1  0
 17 15  1  0
 17 18  1  6
 19 17  1  0
 19 21  1  0
 20 19  2  0
M  END
$$$$
