CPV.pdb
     RDKit          3D

 21 21  0  0  1  0  0  0  0  0999 V2000
   27.1762  -21.5504  -10.5466 N   0  0  0  0  0  0  0  0  0  0  0  0
   25.8184  -21.1084  -10.9513 C   0  0  1  0  0  0  0  0  0  0  0  0
   25.4099  -20.0305   -9.9456 C   0  0  0  0  0  0  0  0  0  0  0  0
   24.9009  -20.9532   -8.4427 S   0  0  0  0  0  0  0  0  0  0  0  0
   25.8692  -20.6369  -12.3276 C   0  0  0  0  0  0  0  0  0  0  0  0
   26.8210  -19.8483  -12.6557 O   0  0  0  0  0  0  0  0  0  0  0  0
   24.9157  -21.0190  -13.2906 N   0  0  0  0  0  0  0  0  0  0  0  0
   23.8937  -22.0429  -12.9486 C   0  0  0  0  0  0  0  0  0  0  0  0
   23.6438  -22.6770  -14.3334 C   0  0  0  0  0  0  0  0  0  0  0  0
   23.5425  -21.4076  -15.1393 C   0  0  0  0  0  0  0  0  0  0  0  0
   24.7013  -20.5839  -14.6309 C   0  0  1  0  0  0  0  0  0  0  0  0
   24.2155  -19.1680  -14.6943 C   0  0  0  0  0  0  0  0  0  0  0  0
   23.4740  -18.7554  -13.7954 O   0  0  0  0  0  0  0  0  0  0  0  0
   26.1262  -16.0549  -14.7527 C   0  0  0  0  0  0  0  0  0  0  0  0
   25.3017  -15.9874  -16.0185 C   0  0  1  0  0  0  0  0  0  0  0  0
   26.1084  -16.2357  -17.2491 C   0  0  0  0  0  0  0  0  0  0  0  0
   24.1474  -16.9471  -15.8611 C   0  0  2  0  0  0  0  0  0  0  0  0
   24.5889  -18.3197  -15.7481 N   0  0  0  0  0  0  0  0  0  0  0  0
   23.1672  -16.7582  -16.9501 C   0  0  0  0  0  0  0  0  0  0  0  0
   23.1336  -17.5180  -17.9305 O   0  0  0  0  0  0  0  0  0  0  0  0
   22.2730  -15.7111  -16.8668 O   0  0  0  0  0  0  0  0  0  0  0  0
  2  1  1  1
  3  2  1  0
  4  3  1  0
  5  7  1  0
  5  2  1  0
  6  5  2  0
  7  8  1  0
  9  8  1  0
 10  9  1  0
 11 10  1  0
 11  7  1  0
 11 12  1  1
 12 18  1  0
 13 12  2  0
 15 14  1  1
 15 16  1  0
 17 15  1  0
 17 18  1  6
 19 17  1  0
 19 21  1  0
 20 19  2  0
M  END
$$$$
