CPV.pdb
     RDKit          3D

 21 21  0  0  1  0  0  0  0  0999 V2000
   25.9256  -17.6765  -17.4905 N   0  0  0  0  0  0  0  0  0  0  0  0
   26.9149  -17.7666  -16.3879 C   0  0  1  0  0  0  0  0  0  0  0  0
   26.9309  -16.3886  -15.7237 C   0  0  0  0  0  0  0  0  0  0  0  0
   25.5372  -16.4219  -14.5297 S   0  0  0  0  0  0  0  0  0  0  0  0
   26.5223  -18.8446  -15.4920 C   0  0  0  0  0  0  0  0  0  0  0  0
   25.2887  -19.1809  -15.4643 O   0  0  0  0  0  0  0  0  0  0  0  0
   27.4474  -19.5157  -14.6697 N   0  0  0  0  0  0  0  0  0  0  0  0
   28.8878  -19.1536  -14.7345 C   0  0  0  0  0  0  0  0  0  0  0  0
   29.5425  -20.5015  -14.3652 C   0  0  0  0  0  0  0  0  0  0  0  0
   28.6629  -20.8578  -13.1946 C   0  0  0  0  0  0  0  0  0  0  0  0
   27.2746  -20.5460  -13.7000 C   0  0  1  0  0  0  0  0  0  0  0  0
   26.5312  -20.0652  -12.4914 C   0  0  0  0  0  0  0  0  0  0  0  0
   26.6228  -18.8738  -12.1747 O   0  0  0  0  0  0  0  0  0  0  0  0
   22.7871  -20.3483   -9.5044 C   0  0  0  0  0  0  0  0  0  0  0  0
   23.5011  -20.8546  -10.7375 C   0  0  1  0  0  0  0  0  0  0  0  0
   22.9096  -20.3333  -12.0043 C   0  0  0  0  0  0  0  0  0  0  0  0
   24.9652  -20.5215  -10.5841 C   0  0  2  0  0  0  0  0  0  0  0  0
   25.7443  -20.9413  -11.7280 N   0  0  0  0  0  0  0  0  0  0  0  0
   25.4884  -21.0674   -9.3149 C   0  0  0  0  0  0  0  0  0  0  0  0
   25.8497  -22.2506   -9.2186 O   0  0  0  0  0  0  0  0  0  0  0  0
   25.5736  -20.2361   -8.2174 O   0  0  0  0  0  0  0  0  0  0  0  0
  2  1  1  6
  3  2  1  0
  4  3  1  0
  5  7  1  0
  5  2  1  0
  6  5  2  0
  7  8  1  0
  9  8  1  0
 10  9  1  0
 11 10  1  0
 11  7  1  0
 11 12  1  1
 12 18  1  0
 13 12  2  0
 15 14  1  1
 15 16  1  0
 17 15  1  0
 17 18  1  6
 19 17  1  0
 19 21  1  0
 20 19  2  0
M  END
$$$$
