CPV.pdb
     RDKit          3D

 21 21  0  0  1  0  0  0  0  0999 V2000
   20.4296  -14.5577  -17.1880 N   0  0  0  0  0  0  0  0  0  0  0  0
   21.3065  -13.3898  -17.4521 C   0  0  1  0  0  0  0  0  0  0  0  0
   21.0848  -13.0210  -18.9201 C   0  0  0  0  0  0  0  0  0  0  0  0
   22.3226  -11.7122  -19.2720 S   0  0  0  0  0  0  0  0  0  0  0  0
   20.9621  -12.3246  -16.5217 C   0  0  0  0  0  0  0  0  0  0  0  0
   19.7237  -12.0526  -16.3544 O   0  0  0  0  0  0  0  0  0  0  0  0
   21.9383  -11.5983  -15.8130 N   0  0  0  0  0  0  0  0  0  0  0  0
   23.3613  -12.0238  -15.8748 C   0  0  0  0  0  0  0  0  0  0  0  0
   23.8657  -11.5500  -14.4952 C   0  0  0  0  0  0  0  0  0  0  0  0
   23.2416  -10.1784  -14.4941 C   0  0  0  0  0  0  0  0  0  0  0  0
   21.8397  -10.4378  -14.9912 C   0  0  1  0  0  0  0  0  0  0  0  0
   21.4860   -9.2148  -15.7810 C   0  0  0  0  0  0  0  0  0  0  0  0
   21.8576   -9.1415  -16.9576 O   0  0  0  0  0  0  0  0  0  0  0  0
   19.0853   -8.3816  -17.5786 C   0  0  0  0  0  0  0  0  0  0  0  0
   18.9310   -7.2569  -16.5797 C   0  0  1  0  0  0  0  0  0  0  0  0
   17.8538   -7.5143  -15.5796 C   0  0  0  0  0  0  0  0  0  0  0  0
   20.2820   -7.0193  -15.9500 C   0  0  2  0  0  0  0  0  0  0  0  0
   20.7482   -8.1686  -15.2060 N   0  0  0  0  0  0  0  0  0  0  0  0
   20.2609   -5.7891  -15.1322 C   0  0  0  0  0  0  0  0  0  0  0  0
   20.0828   -5.8301  -13.9049 O   0  0  0  0  0  0  0  0  0  0  0  0
   20.4443   -4.5722  -15.7553 O   0  0  0  0  0  0  0  0  0  0  0  0
  2  1  1  1
  3  2  1  0
  4  3  1  0
  5  7  1  0
  5  2  1  0
  6  5  2  0
  7  8  1  0
  9  8  1  0
 10  9  1  0
 11 10  1  0
 11  7  1  0
 11 12  1  6
 12 18  1  0
 13 12  2  0
 15 14  1  6
 15 16  1  0
 17 15  1  0
 17 18  1  1
 19 17  1  0
 19 21  1  0
 20 19  2  0
M  END
$$$$
