CPV.pdb
     RDKit          3D

 21 21  0  0  1  0  0  0  0  0999 V2000
   17.6170  -15.1192  -16.9307 N   0  0  0  0  0  0  0  0  0  0  0  0
   16.7618  -13.9064  -16.9580 C   0  0  1  0  0  0  0  0  0  0  0  0
   15.4246  -14.3210  -16.3415 C   0  0  0  0  0  0  0  0  0  0  0  0
   14.3763  -14.8085  -17.7671 S   0  0  0  0  0  0  0  0  0  0  0  0
   17.4364  -12.8401  -16.2322 C   0  0  0  0  0  0  0  0  0  0  0  0
   18.0016  -13.1348  -15.1235 O   0  0  0  0  0  0  0  0  0  0  0  0
   17.4831  -11.5163  -16.7095 N   0  0  0  0  0  0  0  0  0  0  0  0
   17.0067  -11.2122  -18.0844 C   0  0  0  0  0  0  0  0  0  0  0  0
   17.8951  -10.0008  -18.4379 C   0  0  0  0  0  0  0  0  0  0  0  0
   17.7465   -9.2373  -17.1472 C   0  0  0  0  0  0  0  0  0  0  0  0
   17.9164  -10.3058  -16.0939 C   0  0  1  0  0  0  0  0  0  0  0  0
   17.0105   -9.8841  -14.9777 C   0  0  0  0  0  0  0  0  0  0  0  0
   15.8204  -10.2151  -15.0234 O   0  0  0  0  0  0  0  0  0  0  0  0
   16.0781   -8.7313  -10.4520 C   0  0  0  0  0  0  0  0  0  0  0  0
   16.9478   -9.3606  -11.5169 C   0  0  1  0  0  0  0  0  0  0  0  0
   16.7806  -10.8410  -11.6009 C   0  0  0  0  0  0  0  0  0  0  0  0
   16.6553   -8.6548  -12.8187 C   0  0  2  0  0  0  0  0  0  0  0  0
   17.4934   -9.1287  -13.8979 N   0  0  0  0  0  0  0  0  0  0  0  0
   16.7385   -7.1905  -12.6416 C   0  0  0  0  0  0  0  0  0  0  0  0
   15.7847   -6.5372  -12.1910 O   0  0  0  0  0  0  0  0  0  0  0  0
   17.9065   -6.5433  -12.9877 O   0  0  0  0  0  0  0  0  0  0  0  0
  2  1  1  1
  3  2  1  0
  4  3  1  0
  5  7  1  0
  5  2  1  0
  6  5  2  0
  7  8  1  0
  9  8  1  0
 10  9  1  0
 11 10  1  0
 11  7  1  0
 11 12  1  1
 12 18  1  0
 13 12  2  0
 15 14  1  1
 15 16  1  0
 17 15  1  0
 17 18  1  6
 19 17  1  0
 19 21  1  0
 20 19  2  0
M  END
$$$$
