CPV.pdb
     RDKit          3D

 21 21  0  0  1  0  0  0  0  0999 V2000
   15.7866  -25.6376  -11.3334 N   0  0  0  0  0  0  0  0  0  0  0  0
   15.8242  -24.5630  -10.3104 C   0  0  1  0  0  0  0  0  0  0  0  0
   14.6493  -23.6369  -10.6302 C   0  0  0  0  0  0  0  0  0  0  0  0
   14.7325  -22.3112   -9.3635 S   0  0  0  0  0  0  0  0  0  0  0  0
   15.7494  -25.1699   -8.9894 C   0  0  0  0  0  0  0  0  0  0  0  0
   14.7611  -25.9424   -8.7402 O   0  0  0  0  0  0  0  0  0  0  0  0
   16.7189  -24.9339   -7.9959 N   0  0  0  0  0  0  0  0  0  0  0  0
   17.9201  -24.1197   -8.3182 C   0  0  0  0  0  0  0  0  0  0  0  0
   18.9566  -24.7387   -7.3567 C   0  0  0  0  0  0  0  0  0  0  0  0
   18.1001  -24.7922   -6.1180 C   0  0  0  0  0  0  0  0  0  0  0  0
   16.7880  -25.3361   -6.6301 C   0  0  1  0  0  0  0  0  0  0  0  0
   15.7458  -24.6634   -5.7898 C   0  0  0  0  0  0  0  0  0  0  0  0
   15.3190  -23.5596   -6.1468 O   0  0  0  0  0  0  0  0  0  0  0  0
   12.4551  -24.9149   -2.1585 C   0  0  0  0  0  0  0  0  0  0  0  0
   13.4887  -25.6658   -2.9675 C   0  0  1  0  0  0  0  0  0  0  0  0
   12.8917  -26.7342   -3.8212 C   0  0  0  0  0  0  0  0  0  0  0  0
   14.2775  -24.6478   -3.7546 C   0  0  2  0  0  0  0  0  0  0  0  0
   15.2578  -25.2657   -4.6199 N   0  0  0  0  0  0  0  0  0  0  0  0
   14.8769  -23.6466   -2.8485 C   0  0  0  0  0  0  0  0  0  0  0  0
   16.0110  -23.8029   -2.3699 O   0  0  0  0  0  0  0  0  0  0  0  0
   14.1525  -22.5160   -2.5329 O   0  0  0  0  0  0  0  0  0  0  0  0
  2  1  1  6
  3  2  1  0
  4  3  1  0
  5  7  1  0
  5  2  1  0
  6  5  2  0
  7  8  1  0
  9  8  1  0
 10  9  1  0
 11 10  1  0
 11  7  1  0
 11 12  1  1
 12 18  1  0
 13 12  2  0
 15 14  1  6
 15 16  1  0
 17 15  1  0
 17 18  1  1
 19 17  1  0
 19 21  1  0
 20 19  2  0
M  END
$$$$
