CPV.pdb
     RDKit          3D

 21 21  0  0  1  0  0  0  0  0999 V2000
   19.1934  -12.3299  -17.2543 N   0  0  0  0  0  0  0  0  0  0  0  0
   19.8810  -11.1932  -17.9159 C   0  0  1  0  0  0  0  0  0  0  0  0
   18.7828  -10.3803  -18.6039 C   0  0  0  0  0  0  0  0  0  0  0  0
   17.7004   -9.7973  -17.2410 S   0  0  0  0  0  0  0  0  0  0  0  0
   20.6225  -10.4445  -16.9117 C   0  0  0  0  0  0  0  0  0  0  0  0
   20.2425  -10.5370  -15.6941 O   0  0  0  0  0  0  0  0  0  0  0  0
   21.7277   -9.6356  -17.2386 N   0  0  0  0  0  0  0  0  0  0  0  0
   22.2510   -9.6317  -18.6300 C   0  0  0  0  0  0  0  0  0  0  0  0
   23.7424   -9.3249  -18.3780 C   0  0  0  0  0  0  0  0  0  0  0  0
   23.5699   -8.2073  -17.3820 C   0  0  0  0  0  0  0  0  0  0  0  0
   22.5053   -8.7370  -16.4515 C   0  0  1  0  0  0  0  0  0  0  0  0
   21.7251   -7.5257  -16.0408 C   0  0  0  0  0  0  0  0  0  0  0  0
   20.7893   -7.1528  -16.7573 O   0  0  0  0  0  0  0  0  0  0  0  0
   19.5216   -7.1995  -13.4587 C   0  0  0  0  0  0  0  0  0  0  0  0
   20.5021   -6.1066  -13.0974 C   0  0  1  0  0  0  0  0  0  0  0  0
   21.4055   -6.4876  -11.9726 C   0  0  0  0  0  0  0  0  0  0  0  0
   21.2461   -5.7290  -14.3553 C   0  0  2  0  0  0  0  0  0  0  0  0
   22.0421   -6.8220  -14.8686 N   0  0  0  0  0  0  0  0  0  0  0  0
   22.0442   -4.5054  -14.1351 C   0  0  0  0  0  0  0  0  0  0  0  0
   23.2613   -4.5595  -13.8998 O   0  0  0  0  0  0  0  0  0  0  0  0
   21.4139   -3.2798  -14.1943 O   0  0  0  0  0  0  0  0  0  0  0  0
  2  1  1  1
  3  2  1  0
  4  3  1  0
  5  7  1  0
  5  2  1  0
  6  5  2  0
  7  8  1  0
  9  8  1  0
 10  9  1  0
 11 10  1  0
 11  7  1  0
 11 12  1  6
 12 18  1  0
 13 12  2  0
 15 14  1  6
 15 16  1  0
 17 15  1  0
 17 18  1  1
 19 17  1  0
 19 21  1  0
 20 19  2  0
M  END
$$$$
