CPV.pdb
     RDKit          3D

 21 21  0  0  1  0  0  0  0  0999 V2000
   24.2094  -21.8392  -12.5842 N   0  0  0  0  0  0  0  0  0  0  0  0
   25.3882  -20.9779  -12.3172 C   0  0  1  0  0  0  0  0  0  0  0  0
   24.8497  -19.5502  -12.2082 C   0  0  0  0  0  0  0  0  0  0  0  0
   23.8306  -19.5434  -10.6817 S   0  0  0  0  0  0  0  0  0  0  0  0
   26.0495  -21.4488  -11.1090 C   0  0  0  0  0  0  0  0  0  0  0  0
   25.3329  -22.0242  -10.2196 O   0  0  0  0  0  0  0  0  0  0  0  0
   27.4324  -21.2911  -10.8966 N   0  0  0  0  0  0  0  0  0  0  0  0
   28.2815  -20.7159  -11.9728 C   0  0  0  0  0  0  0  0  0  0  0  0
   29.6281  -21.4121  -11.6831 C   0  0  0  0  0  0  0  0  0  0  0  0
   29.6569  -21.2180  -10.1890 C   0  0  0  0  0  0  0  0  0  0  0  0
   28.2531  -21.5808   -9.7677 C   0  0  1  0  0  0  0  0  0  0  0  0
   27.9601  -20.6766   -8.6096 C   0  0  0  0  0  0  0  0  0  0  0  0
   27.3704  -19.6115   -8.8240 O   0  0  0  0  0  0  0  0  0  0  0  0
   28.1829  -19.9332   -3.7281 C   0  0  0  0  0  0  0  0  0  0  0  0
   28.3062  -20.9366   -4.8526 C   0  0  1  0  0  0  0  0  0  0  0  0
   27.4141  -22.1193   -4.6739 C   0  0  0  0  0  0  0  0  0  0  0  0
   28.0644  -20.2003   -6.1478 C   0  0  2  0  0  0  0  0  0  0  0  0
   28.3428  -21.0226   -7.3045 N   0  0  0  0  0  0  0  0  0  0  0  0
   28.8160  -18.9285   -6.1663 C   0  0  0  0  0  0  0  0  0  0  0  0
   30.0162  -18.8898   -6.4787 O   0  0  0  0  0  0  0  0  0  0  0  0
   28.1607  -17.7629   -5.8273 O   0  0  0  0  0  0  0  0  0  0  0  0
  2  1  1  1
  3  2  1  0
  4  3  1  0
  5  7  1  0
  5  2  1  0
  6  5  2  0
  7  8  1  0
  9  8  1  0
 10  9  1  0
 11 10  1  0
 11  7  1  0
 11 12  1  1
 12 18  1  0
 13 12  2  0
 15 14  1  1
 15 16  1  0
 17 15  1  0
 17 18  1  6
 19 17  1  0
 19 21  1  0
 20 19  2  0
M  END
$$$$
