CPV.pdb
     RDKit          3D

 21 21  0  0  1  0  0  0  0  0999 V2000
   23.1129  -20.1332  -14.9076 N   0  0  0  0  0  0  0  0  0  0  0  0
   23.7171  -19.2266  -15.9153 C   0  0  1  0  0  0  0  0  0  0  0  0
   23.0368  -19.5617  -17.2439 C   0  0  0  0  0  0  0  0  0  0  0  0
   23.7941  -18.4200  -18.4654 S   0  0  0  0  0  0  0  0  0  0  0  0
   23.5192  -17.8497  -15.4864 C   0  0  0  0  0  0  0  0  0  0  0  0
   22.3505  -17.5057  -15.0974 O   0  0  0  0  0  0  0  0  0  0  0  0
   24.5614  -16.9029  -15.4877 N   0  0  0  0  0  0  0  0  0  0  0  0
   25.9629  -17.3514  -15.6987 C   0  0  0  0  0  0  0  0  0  0  0  0
   26.7335  -16.2824  -14.8953 C   0  0  0  0  0  0  0  0  0  0  0  0
   25.9983  -15.0643  -15.3920 C   0  0  0  0  0  0  0  0  0  0  0  0
   24.5501  -15.4866  -15.3279 C   0  0  1  0  0  0  0  0  0  0  0  0
   23.9020  -14.7925  -16.4867 C   0  0  0  0  0  0  0  0  0  0  0  0
   23.9803  -15.3104  -17.6064 O   0  0  0  0  0  0  0  0  0  0  0  0
   20.6097  -11.5901  -18.1083 C   0  0  0  0  0  0  0  0  0  0  0  0
   21.1212  -12.5317  -17.0414 C   0  0  1  0  0  0  0  0  0  0  0  0
   20.2489  -13.7285  -16.8585 C   0  0  0  0  0  0  0  0  0  0  0  0
   22.5469  -12.8835  -17.3908 C   0  0  2  0  0  0  0  0  0  0  0  0
   23.2178  -13.5793  -16.3150 N   0  0  0  0  0  0  0  0  0  0  0  0
   23.2828  -11.6797  -17.8289 C   0  0  0  0  0  0  0  0  0  0  0  0
   23.2656  -11.3045  -19.0115 O   0  0  0  0  0  0  0  0  0  0  0  0
   24.0024  -10.9629  -16.8956 O   0  0  0  0  0  0  0  0  0  0  0  0
  2  1  1  1
  3  2  1  0
  4  3  1  0
  5  7  1  0
  5  2  1  0
  6  5  2  0
  7  8  1  0
  9  8  1  0
 10  9  1  0
 11 10  1  0
 11  7  1  0
 11 12  1  6
 12 18  1  0
 13 12  2  0
 15 14  1  6
 15 16  1  0
 17 15  1  0
 17 18  1  1
 19 17  1  0
 19 21  1  0
 20 19  2  0
M  END
$$$$
