QYR.pdb
     RDKit          3D

 33 33  0  0  1  0  0  0  0  0999 V2000
    9.1560  -13.2820   15.0276 N   0  0  0  0  0  0  0  0  0  0  0  0
    7.9794  -13.9480   15.4175 C   0  0  0  0  0  0  0  0  0  0  0  0
    7.2847  -14.5458   14.5681 O   0  0  0  0  0  0  0  0  0  0  0  0
    7.5656  -13.9407   16.8296 C   0  0  0  0  0  0  0  0  0  0  0  0
    8.7945  -13.9389   17.7146 C   0  0  0  0  0  0  0  0  0  0  0  0
    8.6369  -15.0984   18.6845 C   0  0  2  0  0  0  0  0  0  0  0  0
    7.3640  -15.7656   18.5282 N   0  0  0  0  0  0  0  0  0  0  0  0
    8.8738  -14.6782   20.0885 C   0  0  0  0  0  0  0  0  0  0  0  0
    9.9791  -14.2271   20.4321 O   0  0  0  0  0  0  0  0  0  0  0  0
    7.2386  -12.6848   28.5949 O   0  0  0  0  0  0  0  0  0  0  0  0
    7.1533  -12.9837   27.2449 C   0  0  0  0  0  0  0  0  0  0  0  0
    6.7623  -14.2376   26.8441 C   0  0  0  0  0  0  0  0  0  0  0  0
    6.6712  -14.5548   25.5094 C   0  0  0  0  0  0  0  0  0  0  0  0
    6.9581  -13.6583   24.5173 C   0  0  0  0  0  0  0  0  0  0  0  0
    6.8587  -13.9453   23.0800 C   0  0  0  0  0  0  0  0  0  0  0  0
    8.1259  -14.4447   22.4719 C   0  0  2  0  0  0  0  0  0  0  0  0
    7.8261  -14.7955   21.0390 N   0  0  0  0  0  0  0  0  0  0  0  0
    8.5373  -15.7283   23.0628 C   0  0  0  0  0  0  0  0  0  0  0  0
    8.2301  -16.7950   22.4121 O   0  0  0  0  0  0  0  0  0  0  0  0
    7.3594  -12.3722   24.9254 C   0  0  0  0  0  0  0  0  0  0  0  0
    7.4463  -12.0698   26.2525 C   0  0  0  0  0  0  0  0  0  0  0  0
   13.5047  -21.0354   21.6010 N   0  0  0  0  0  0  0  0  0  0  0  0
   12.6184  -20.2648   20.8319 C   0  0  0  0  0  0  0  0  0  0  0  0
   11.9990  -20.8236   19.8572 N   0  0  0  0  0  0  0  0  0  0  0  0
   12.3665  -18.8821   21.0769 N   0  0  0  0  0  0  0  0  0  0  0  0
   12.9784  -18.2416   22.2074 C   0  0  0  0  0  0  0  0  0  0  0  0
   12.0123  -18.2684   23.4035 C   0  0  0  0  0  0  0  0  0  0  0  0
   11.0429  -17.1415   23.2908 C   0  0  0  0  0  0  0  0  0  0  0  0
   10.0156  -17.1482   24.4349 C   0  0  2  0  0  0  0  0  0  0  0  0
    9.2464  -15.9155   24.2718 N   0  0  0  0  0  0  0  0  0  0  0  0
   10.6850  -17.1510   25.7421 C   0  0  0  0  0  0  0  0  0  0  0  0
   11.1353  -16.0725   26.2578 O   0  0  0  0  0  0  0  0  0  0  0  0
   10.8617  -18.3036   26.4781 O   0  0  0  0  0  0  0  0  0  0  0  0
  2  1  1  0
  3  2  2  0
  4  2  1  0
  5  4  1  0
  6  8  1  0
  6  5  1  0
  6  7  1  1
  8  9  2  0
 10 11  1  0
 11 12  2  0
 11 21  1  0
 12 13  1  0
 13 14  2  0
 14 15  1  0
 16 15  1  1
 17 16  1  0
 17  8  1  0
 18 19  2  0
 18 16  1  0
 20 14  1  0
 21 20  2  0
 22 23  1  0
 23 25  1  0
 24 23  2  0
 25 26  1  0
 26 27  1  0
 28 27  1  0
 29 28  1  6
 29 30  1  0
 30 18  1  0
 31 33  1  0
 31 29  1  0
 32 31  2  0
M  END
$$$$
