QYR.pdb
     RDKit          3D

 33 33  0  0  1  0  0  0  0  0999 V2000
    9.0450  -14.0763   16.7769 N   0  0  0  0  0  0  0  0  0  0  0  0
    7.6832  -13.7347   16.8710 C   0  0  0  0  0  0  0  0  0  0  0  0
    6.9046  -13.9902   15.9277 O   0  0  0  0  0  0  0  0  0  0  0  0
    7.1743  -13.0744   18.0835 C   0  0  0  0  0  0  0  0  0  0  0  0
    8.3091  -12.8862   19.0686 C   0  0  0  0  0  0  0  0  0  0  0  0
    8.4983  -14.2170   19.7777 C   0  0  2  0  0  0  0  0  0  0  0  0
    7.2873  -15.0066   19.7791 N   0  0  0  0  0  0  0  0  0  0  0  0
    9.0455  -14.0390   21.1463 C   0  0  0  0  0  0  0  0  0  0  0  0
   10.0569  -13.3426   21.3337 O   0  0  0  0  0  0  0  0  0  0  0  0
    9.8535  -15.0652   29.9374 O   0  0  0  0  0  0  0  0  0  0  0  0
    9.3864  -14.9694   28.6367 C   0  0  0  0  0  0  0  0  0  0  0  0
    9.0200  -13.7475   28.1285 C   0  0  0  0  0  0  0  0  0  0  0  0
    8.5538  -13.6306   26.8402 C   0  0  0  0  0  0  0  0  0  0  0  0
    8.4292  -14.7034   26.0012 C   0  0  0  0  0  0  0  0  0  0  0  0
    7.9534  -14.6256   24.6136 C   0  0  0  0  0  0  0  0  0  0  0  0
    9.0459  -14.5621   23.6000 C   0  0  2  0  0  0  0  0  0  0  0  0
    8.4036  -14.6716   22.2431 N   0  0  0  0  0  0  0  0  0  0  0  0
    9.9133  -15.7491   23.6683 C   0  0  0  0  0  0  0  0  0  0  0  0
    9.4257  -16.8541   23.2246 O   0  0  0  0  0  0  0  0  0  0  0  0
    8.8038  -15.9573   26.5198 C   0  0  0  0  0  0  0  0  0  0  0  0
    9.2645  -16.0603   27.7994 C   0  0  0  0  0  0  0  0  0  0  0  0
   16.0966  -16.2110   17.7424 N   0  0  0  0  0  0  0  0  0  0  0  0
   15.5533  -15.1370   18.4651 C   0  0  0  0  0  0  0  0  0  0  0  0
   16.1724  -14.0133   18.4616 N   0  0  0  0  0  0  0  0  0  0  0  0
   14.3399  -15.2274   19.2099 N   0  0  0  0  0  0  0  0  0  0  0  0
   14.2912  -14.7076   20.5478 C   0  0  0  0  0  0  0  0  0  0  0  0
   13.8783  -15.8233   21.5221 C   0  0  0  0  0  0  0  0  0  0  0  0
   12.7711  -15.3416   22.3965 C   0  0  0  0  0  0  0  0  0  0  0  0
   12.2561  -16.4451   23.3352 C   0  0  2  0  0  0  0  0  0  0  0  0
   11.2365  -15.8038   24.1640 N   0  0  0  0  0  0  0  0  0  0  0  0
   13.3385  -16.9610   24.1832 C   0  0  0  0  0  0  0  0  0  0  0  0
   14.2349  -17.7397   23.7120 O   0  0  0  0  0  0  0  0  0  0  0  0
   13.4477  -16.6369   25.5190 O   0  0  0  0  0  0  0  0  0  0  0  0
  2  1  1  0
  3  2  2  0
  4  2  1  0
  5  4  1  0
  6  8  1  0
  6  5  1  0
  6  7  1  1
  8  9  2  0
 10 11  1  0
 11 12  2  0
 11 21  1  0
 12 13  1  0
 13 14  2  0
 14 15  1  0
 16 15  1  1
 17 16  1  0
 17  8  1  0
 18 19  2  0
 18 16  1  0
 20 14  1  0
 21 20  2  0
 22 23  1  0
 23 25  1  0
 24 23  2  0
 25 26  1  0
 26 27  1  0
 28 27  1  0
 29 28  1  6
 29 30  1  0
 30 18  1  0
 31 33  1  0
 31 29  1  0
 32 31  2  0
M  END
$$$$
