QYR.pdb
     RDKit          3D

 33 33  0  0  1  0  0  0  0  0999 V2000
    8.2132  -12.7658   17.1084 N   0  0  0  0  0  0  0  0  0  0  0  0
    7.4849  -13.9618   16.9697 C   0  0  0  0  0  0  0  0  0  0  0  0
    6.7679  -14.1478   15.9634 O   0  0  0  0  0  0  0  0  0  0  0  0
    7.5677  -14.9966   18.0126 C   0  0  0  0  0  0  0  0  0  0  0  0
    8.5289  -14.5471   19.0931 C   0  0  0  0  0  0  0  0  0  0  0  0
    8.7384  -15.7371   20.0150 C   0  0  2  0  0  0  0  0  0  0  0  0
    7.5337  -16.5213   20.1688 N   0  0  0  0  0  0  0  0  0  0  0  0
    9.3033  -15.3261   21.3250 C   0  0  0  0  0  0  0  0  0  0  0  0
   10.4293  -14.8053   21.3889 O   0  0  0  0  0  0  0  0  0  0  0  0
    9.7508  -13.9870   30.0991 O   0  0  0  0  0  0  0  0  0  0  0  0
    9.3428  -14.1596   28.7865 C   0  0  0  0  0  0  0  0  0  0  0  0
    9.4354  -13.1171   27.8974 C   0  0  0  0  0  0  0  0  0  0  0  0
    9.0361  -13.2675   26.5904 C   0  0  0  0  0  0  0  0  0  0  0  0
    8.5322  -14.4422   26.1040 C   0  0  0  0  0  0  0  0  0  0  0  0
    8.1094  -14.6555   24.7134 C   0  0  0  0  0  0  0  0  0  0  0  0
    9.1843  -15.1887   23.8273 C   0  0  2  0  0  0  0  0  0  0  0  0
    8.5464  -15.5327   22.5079 N   0  0  0  0  0  0  0  0  0  0  0  0
    9.6907  -16.4823   24.3136 C   0  0  0  0  0  0  0  0  0  0  0  0
    8.8676  -17.4712   24.3050 O   0  0  0  0  0  0  0  0  0  0  0  0
    8.4360  -15.5124   27.0133 C   0  0  0  0  0  0  0  0  0  0  0  0
    8.8351  -15.3507   28.3074 C   0  0  0  0  0  0  0  0  0  0  0  0
   12.8229  -21.2805   21.8218 N   0  0  0  0  0  0  0  0  0  0  0  0
   13.4426  -20.3737   20.9474 C   0  0  0  0  0  0  0  0  0  0  0  0
   13.4146  -20.6127   19.6872 N   0  0  0  0  0  0  0  0  0  0  0  0
   14.1075  -19.1907   21.3871 N   0  0  0  0  0  0  0  0  0  0  0  0
   14.1262  -18.8689   22.7867 C   0  0  0  0  0  0  0  0  0  0  0  0
   12.6923  -18.8889   23.3418 C   0  0  0  0  0  0  0  0  0  0  0  0
   12.6971  -18.4308   24.7605 C   0  0  0  0  0  0  0  0  0  0  0  0
   11.2816  -18.1084   25.2669 C   0  0  2  0  0  0  0  0  0  0  0  0
   10.9954  -16.7585   24.7835 N   0  0  0  0  0  0  0  0  0  0  0  0
   11.2296  -18.1360   26.7343 C   0  0  0  0  0  0  0  0  0  0  0  0
   11.4035  -19.2228   27.3827 O   0  0  0  0  0  0  0  0  0  0  0  0
   10.9944  -17.0040   27.4858 O   0  0  0  0  0  0  0  0  0  0  0  0
  2  1  1  0
  3  2  2  0
  4  2  1  0
  5  4  1  0
  6  8  1  0
  6  5  1  0
  6  7  1  1
  8  9  2  0
 10 11  1  0
 11 12  2  0
 11 21  1  0
 12 13  1  0
 13 14  2  0
 14 15  1  0
 16 15  1  1
 17 16  1  0
 17  8  1  0
 18 19  2  0
 18 16  1  0
 20 14  1  0
 21 20  2  0
 22 23  1  0
 23 25  1  0
 24 23  2  0
 25 26  1  0
 26 27  1  0
 28 27  1  0
 29 28  1  1
 29 30  1  0
 30 18  1  0
 31 33  1  0
 31 29  1  0
 32 31  2  0
M  END
$$$$
