QYR.pdb
     RDKit          3D

 33 33  0  0  1  0  0  0  0  0999 V2000
    8.4142  -12.3180   17.5017 N   0  0  0  0  0  0  0  0  0  0  0  0
    7.3794  -13.2264   17.2115 C   0  0  0  0  0  0  0  0  0  0  0  0
    6.9989  -13.3899   16.0326 O   0  0  0  0  0  0  0  0  0  0  0  0
    6.7434  -13.9862   18.2994 C   0  0  0  0  0  0  0  0  0  0  0  0
    7.4631  -13.7007   19.6009 C   0  0  0  0  0  0  0  0  0  0  0  0
    7.8729  -15.0455   20.1784 C   0  0  2  0  0  0  0  0  0  0  0  0
    6.7639  -15.9713   20.2339 N   0  0  0  0  0  0  0  0  0  0  0  0
    8.5389  -14.8988   21.4971 C   0  0  0  0  0  0  0  0  0  0  0  0
    9.5794  -14.2289   21.6052 O   0  0  0  0  0  0  0  0  0  0  0  0
    6.1860  -10.3398   26.9847 O   0  0  0  0  0  0  0  0  0  0  0  0
    6.5556  -11.5902   26.5166 C   0  0  0  0  0  0  0  0  0  0  0  0
    5.7503  -12.2529   25.6232 C   0  0  0  0  0  0  0  0  0  0  0  0
    6.0986  -13.4946   25.1463 C   0  0  0  0  0  0  0  0  0  0  0  0
    7.2469  -14.1340   25.5245 C   0  0  0  0  0  0  0  0  0  0  0  0
    7.6692  -15.4511   25.0297 C   0  0  0  0  0  0  0  0  0  0  0  0
    8.6985  -15.3929   23.9516 C   0  0  2  0  0  0  0  0  0  0  0  0
    7.9775  -15.5308   22.6375 N   0  0  0  0  0  0  0  0  0  0  0  0
    9.5816  -16.5698   23.9862 C   0  0  0  0  0  0  0  0  0  0  0  0
    9.1777  -17.6204   23.3628 O   0  0  0  0  0  0  0  0  0  0  0  0
    8.0740  -13.4570   26.4405 C   0  0  0  0  0  0  0  0  0  0  0  0
    7.7174  -12.2258   26.9065 C   0  0  0  0  0  0  0  0  0  0  0  0
   16.3802  -14.7951   21.6535 N   0  0  0  0  0  0  0  0  0  0  0  0
   15.8843  -14.8705   20.3422 C   0  0  0  0  0  0  0  0  0  0  0  0
   16.5665  -14.3435   19.3920 N   0  0  0  0  0  0  0  0  0  0  0  0
   14.6526  -15.5066   20.0054 N   0  0  0  0  0  0  0  0  0  0  0  0
   13.4862  -15.2570   20.8053 C   0  0  0  0  0  0  0  0  0  0  0  0
   13.3652  -16.3349   21.8952 C   0  0  0  0  0  0  0  0  0  0  0  0
   12.1884  -16.0419   22.7623 C   0  0  0  0  0  0  0  0  0  0  0  0
   11.9809  -17.1220   23.8367 C   0  0  2  0  0  0  0  0  0  0  0  0
   10.8381  -16.6672   24.6273 N   0  0  0  0  0  0  0  0  0  0  0  0
   13.1663  -17.2442   24.6950 C   0  0  0  0  0  0  0  0  0  0  0  0
   13.8926  -18.2949   24.6753 O   0  0  0  0  0  0  0  0  0  0  0  0
   13.5583  -16.2433   25.5587 O   0  0  0  0  0  0  0  0  0  0  0  0
  2  1  1  0
  3  2  2  0
  4  2  1  0
  5  4  1  0
  6  8  1  0
  6  5  1  0
  6  7  1  1
  8  9  2  0
 10 11  1  0
 11 12  2  0
 11 21  1  0
 12 13  1  0
 13 14  2  0
 14 15  1  0
 16 15  1  1
 17 16  1  0
 17  8  1  0
 18 19  2  0
 18 16  1  0
 20 14  1  0
 21 20  2  0
 22 23  1  0
 23 25  1  0
 24 23  2  0
 25 26  1  0
 26 27  1  0
 28 27  1  0
 29 28  1  6
 29 30  1  0
 30 18  1  0
 31 33  1  0
 31 29  1  0
 32 31  2  0
M  END
$$$$
