QYR.pdb
     RDKit          3D

 33 33  0  0  1  0  0  0  0  0999 V2000
   10.7909  -16.6686   15.7215 N   0  0  0  0  0  0  0  0  0  0  0  0
    9.5226  -17.1209   16.1301 C   0  0  0  0  0  0  0  0  0  0  0  0
    9.0264  -18.1471   15.6182 O   0  0  0  0  0  0  0  0  0  0  0  0
    8.7783  -16.3835   17.1632 C   0  0  0  0  0  0  0  0  0  0  0  0
    9.6366  -16.2501   18.4038 C   0  0  0  0  0  0  0  0  0  0  0  0
    8.8266  -16.8152   19.5591 C   0  0  2  0  0  0  0  0  0  0  0  0
    7.4148  -16.8723   19.2534 N   0  0  0  0  0  0  0  0  0  0  0  0
    9.0907  -16.0865   20.8253 C   0  0  0  0  0  0  0  0  0  0  0  0
   10.2456  -16.0060   21.2757 O   0  0  0  0  0  0  0  0  0  0  0  0
    7.2639  -11.6393   28.3335 O   0  0  0  0  0  0  0  0  0  0  0  0
    7.2106  -12.2121   27.0733 C   0  0  0  0  0  0  0  0  0  0  0  0
    8.2096  -11.9631   26.1646 C   0  0  0  0  0  0  0  0  0  0  0  0
    8.1758  -12.5216   24.9087 C   0  0  0  0  0  0  0  0  0  0  0  0
    7.1649  -13.3444   24.4948 C   0  0  0  0  0  0  0  0  0  0  0  0
    7.0944  -13.9774   23.1711 C   0  0  0  0  0  0  0  0  0  0  0  0
    8.3133  -14.7552   22.8046 C   0  0  2  0  0  0  0  0  0  0  0  0
    8.0117  -15.4802   21.5204 N   0  0  0  0  0  0  0  0  0  0  0  0
    8.5668  -15.8424   23.7637 C   0  0  0  0  0  0  0  0  0  0  0  0
    7.6832  -16.7751   23.8347 O   0  0  0  0  0  0  0  0  0  0  0  0
    6.1393  -13.6011   25.4242 C   0  0  0  0  0  0  0  0  0  0  0  0
    6.1839  -13.0409   26.6669 C   0  0  0  0  0  0  0  0  0  0  0  0
   15.3152  -16.4398   24.6018 N   0  0  0  0  0  0  0  0  0  0  0  0
   14.8118  -16.7018   23.3177 C   0  0  0  0  0  0  0  0  0  0  0  0
   15.3471  -16.1124   22.3117 N   0  0  0  0  0  0  0  0  0  0  0  0
   13.7280  -17.5953   23.0680 N   0  0  0  0  0  0  0  0  0  0  0  0
   12.3913  -17.1990   23.4125 C   0  0  0  0  0  0  0  0  0  0  0  0
   12.0574  -17.6836   24.8332 C   0  0  0  0  0  0  0  0  0  0  0  0
   10.6417  -18.1478   24.8852 C   0  0  0  0  0  0  0  0  0  0  0  0
    9.7178  -17.1080   25.5406 C   0  0  2  0  0  0  0  0  0  0  0  0
    9.6885  -15.9774   24.6140 N   0  0  0  0  0  0  0  0  0  0  0  0
   10.2501  -16.6768   26.8396 C   0  0  0  0  0  0  0  0  0  0  0  0
   10.6832  -15.4880   27.0160 O   0  0  0  0  0  0  0  0  0  0  0  0
   10.3103  -17.5198   27.9290 O   0  0  0  0  0  0  0  0  0  0  0  0
  2  1  1  0
  3  2  2  0
  4  2  1  0
  5  4  1  0
  6  8  1  0
  6  5  1  0
  6  7  1  6
  8  9  2  0
 10 11  1  0
 11 12  2  0
 11 21  1  0
 12 13  1  0
 13 14  2  0
 14 15  1  0
 16 15  1  1
 17 16  1  0
 17  8  1  0
 18 19  2  0
 18 16  1  0
 20 14  1  0
 21 20  2  0
 22 23  1  0
 23 25  1  0
 24 23  2  0
 25 26  1  0
 26 27  1  0
 28 27  1  0
 29 28  1  6
 29 30  1  0
 30 18  1  0
 31 33  1  0
 31 29  1  0
 32 31  2  0
M  END
$$$$
