QYR.pdb
     RDKit          3D

 33 33  0  0  1  0  0  0  0  0999 V2000
    8.3538  -17.2449   17.3302 N   0  0  0  0  0  0  0  0  0  0  0  0
    8.2448  -15.8547   17.5184 C   0  0  0  0  0  0  0  0  0  0  0  0
    7.9264  -15.1142   16.5635 O   0  0  0  0  0  0  0  0  0  0  0  0
    8.5065  -15.2707   18.8435 C   0  0  0  0  0  0  0  0  0  0  0  0
    7.2440  -14.6159   19.3636 C   0  0  0  0  0  0  0  0  0  0  0  0
    7.6716  -13.3386   20.0676 C   0  0  2  0  0  0  0  0  0  0  0  0
    8.3784  -12.4423   19.1806 N   0  0  0  0  0  0  0  0  0  0  0  0
    8.4468  -13.6228   21.3015 C   0  0  0  0  0  0  0  0  0  0  0  0
    9.6855  -13.7073   21.2607 O   0  0  0  0  0  0  0  0  0  0  0  0
   10.0950  -15.0317   29.9435 O   0  0  0  0  0  0  0  0  0  0  0  0
    9.5034  -14.7696   28.7185 C   0  0  0  0  0  0  0  0  0  0  0  0
    8.9289  -15.7909   28.0025 C   0  0  0  0  0  0  0  0  0  0  0  0
    8.3366  -15.5522   26.7849 C   0  0  0  0  0  0  0  0  0  0  0  0
    8.2834  -14.3067   26.2225 C   0  0  0  0  0  0  0  0  0  0  0  0
    7.6472  -14.0002   24.9344 C   0  0  0  0  0  0  0  0  0  0  0  0
    8.5805  -14.0417   23.7715 C   0  0  2  0  0  0  0  0  0  0  0  0
    7.7615  -13.7979   22.5322 N   0  0  0  0  0  0  0  0  0  0  0  0
    9.1244  -15.3937   23.5656 C   0  0  0  0  0  0  0  0  0  0  0  0
    8.7896  -15.9978   22.4801 O   0  0  0  0  0  0  0  0  0  0  0  0
    8.8719  -13.2580   26.9543 C   0  0  0  0  0  0  0  0  0  0  0  0
    9.4566  -13.5075   28.1609 C   0  0  0  0  0  0  0  0  0  0  0  0
   11.7866  -15.3496   17.9302 N   0  0  0  0  0  0  0  0  0  0  0  0
   12.7706  -14.9883   18.8642 C   0  0  0  0  0  0  0  0  0  0  0  0
   13.7843  -14.3117   18.4636 N   0  0  0  0  0  0  0  0  0  0  0  0
   12.7044  -15.3354   20.2463 N   0  0  0  0  0  0  0  0  0  0  0  0
   12.7964  -16.7153   20.6339 C   0  0  0  0  0  0  0  0  0  0  0  0
   11.5785  -17.0942   21.4928 C   0  0  0  0  0  0  0  0  0  0  0  0
   11.7315  -16.5215   22.8607 C   0  0  0  0  0  0  0  0  0  0  0  0
   10.7872  -17.1891   23.8741 C   0  0  2  0  0  0  0  0  0  0  0  0
    9.9879  -16.1005   24.4341 N   0  0  0  0  0  0  0  0  0  0  0  0
   11.5466  -17.8529   24.9416 C   0  0  0  0  0  0  0  0  0  0  0  0
   11.9047  -17.2194   25.9916 O   0  0  0  0  0  0  0  0  0  0  0  0
   11.9100  -19.1812   24.8724 O   0  0  0  0  0  0  0  0  0  0  0  0
  2  1  1  0
  3  2  2  0
  4  2  1  0
  5  4  1  0
  6  8  1  0
  6  5  1  0
  6  7  1  6
  8  9  2  0
 10 11  1  0
 11 12  2  0
 11 21  1  0
 12 13  1  0
 13 14  2  0
 14 15  1  0
 16 15  1  1
 17 16  1  0
 17  8  1  0
 18 19  2  0
 18 16  1  0
 20 14  1  0
 21 20  2  0
 22 23  1  0
 23 25  1  0
 24 23  2  0
 25 26  1  0
 26 27  1  0
 28 27  1  0
 29 28  1  6
 29 30  1  0
 30 18  1  0
 31 33  1  0
 31 29  1  0
 32 31  2  0
M  END
$$$$
