QYR.pdb
     RDKit          3D

 33 33  0  0  1  0  0  0  0  0999 V2000
    7.6900  -12.4979   15.8537 N   0  0  0  0  0  0  0  0  0  0  0  0
    7.3121  -13.8150   15.5338 C   0  0  0  0  0  0  0  0  0  0  0  0
    6.7563  -14.0618   14.4422 O   0  0  0  0  0  0  0  0  0  0  0  0
    7.5719  -14.9052   16.4874 C   0  0  0  0  0  0  0  0  0  0  0  0
    8.2707  -14.3489   17.7103 C   0  0  0  0  0  0  0  0  0  0  0  0
    8.5025  -15.5190   18.6521 C   0  0  2  0  0  0  0  0  0  0  0  0
    7.3964  -16.4498   18.6413 N   0  0  0  0  0  0  0  0  0  0  0  0
    8.8302  -15.0633   20.0265 C   0  0  0  0  0  0  0  0  0  0  0  0
    9.9330  -14.5469   20.2718 O   0  0  0  0  0  0  0  0  0  0  0  0
    7.3363  -12.3213   28.3439 O   0  0  0  0  0  0  0  0  0  0  0  0
    7.2178  -12.7866   27.0444 C   0  0  0  0  0  0  0  0  0  0  0  0
    7.6748  -12.0227   25.9987 C   0  0  0  0  0  0  0  0  0  0  0  0
    7.5669  -12.4660   24.7017 C   0  0  0  0  0  0  0  0  0  0  0  0
    7.0089  -13.6722   24.3789 C   0  0  0  0  0  0  0  0  0  0  0  0
    6.8876  -14.1953   23.0115 C   0  0  0  0  0  0  0  0  0  0  0  0
    8.1819  -14.6304   22.4112 C   0  0  2  0  0  0  0  0  0  0  0  0
    7.8723  -15.2220   21.0621 N   0  0  0  0  0  0  0  0  0  0  0  0
    8.7690  -15.7563   23.1554 C   0  0  0  0  0  0  0  0  0  0  0  0
    8.3180  -16.9312   22.8871 O   0  0  0  0  0  0  0  0  0  0  0  0
    6.5393  -14.4571   25.4489 C   0  0  0  0  0  0  0  0  0  0  0  0
    6.6518  -14.0062   26.7312 C   0  0  0  0  0  0  0  0  0  0  0  0
   16.0666  -19.7697   22.9237 N   0  0  0  0  0  0  0  0  0  0  0  0
   15.3938  -20.3942   23.9859 C   0  0  0  0  0  0  0  0  0  0  0  0
   15.8572  -21.4978   24.4477 N   0  0  0  0  0  0  0  0  0  0  0  0
   14.2126  -19.8642   24.5852 N   0  0  0  0  0  0  0  0  0  0  0  0
   13.6126  -18.6796   24.0379 C   0  0  0  0  0  0  0  0  0  0  0  0
   12.2747  -18.4033   24.7438 C   0  0  0  0  0  0  0  0  0  0  0  0
   11.6055  -17.2317   24.1098 C   0  0  0  0  0  0  0  0  0  0  0  0
   10.2391  -16.9329   24.7486 C   0  0  2  0  0  0  0  0  0  0  0  0
    9.7883  -15.6858   24.1330 N   0  0  0  0  0  0  0  0  0  0  0  0
   10.3654  -16.7570   26.2011 C   0  0  0  0  0  0  0  0  0  0  0  0
   10.4988  -15.5966   26.7184 O   0  0  0  0  0  0  0  0  0  0  0  0
   10.3457  -17.8211   27.0778 O   0  0  0  0  0  0  0  0  0  0  0  0
  2  1  1  0
  3  2  2  0
  4  2  1  0
  5  4  1  0
  6  8  1  0
  6  5  1  0
  6  7  1  1
  8  9  2  0
 10 11  1  0
 11 12  2  0
 11 21  1  0
 12 13  1  0
 13 14  2  0
 14 15  1  0
 16 15  1  1
 17 16  1  0
 17  8  1  0
 18 19  2  0
 18 16  1  0
 20 14  1  0
 21 20  2  0
 22 23  1  0
 23 25  1  0
 24 23  2  0
 25 26  1  0
 26 27  1  0
 28 27  1  0
 29 28  1  6
 29 30  1  0
 30 18  1  0
 31 33  1  0
 31 29  1  0
 32 31  2  0
M  END
$$$$
