QYR.pdb
     RDKit          3D

 33 33  0  0  1  0  0  0  0  0999 V2000
    7.7587  -20.4506   19.7269 N   0  0  0  0  0  0  0  0  0  0  0  0
    7.9749  -19.8942   18.4527 C   0  0  0  0  0  0  0  0  0  0  0  0
    7.6849  -20.5441   17.4257 O   0  0  0  0  0  0  0  0  0  0  0  0
    8.5443  -18.5430   18.3290 C   0  0  0  0  0  0  0  0  0  0  0  0
    8.7312  -17.9468   19.7085 C   0  0  0  0  0  0  0  0  0  0  0  0
    9.1565  -16.5017   19.5068 C   0  0  2  0  0  0  0  0  0  0  0  0
   10.3381  -16.3956   18.6806 N   0  0  0  0  0  0  0  0  0  0  0  0
    9.3182  -15.7896   20.7994 C   0  0  0  0  0  0  0  0  0  0  0  0
   10.4152  -15.7852   21.3822 O   0  0  0  0  0  0  0  0  0  0  0  0
    6.9249  -11.4966   28.2136 O   0  0  0  0  0  0  0  0  0  0  0  0
    6.9905  -12.0068   26.9273 C   0  0  0  0  0  0  0  0  0  0  0  0
    7.8038  -11.4114   25.9947 C   0  0  0  0  0  0  0  0  0  0  0  0
    7.8834  -11.9020   24.7127 C   0  0  0  0  0  0  0  0  0  0  0  0
    7.1716  -12.9926   24.2952 C   0  0  0  0  0  0  0  0  0  0  0  0
    7.2369  -13.5629   22.9430 C   0  0  0  0  0  0  0  0  0  0  0  0
    8.3674  -14.5146   22.7397 C   0  0  2  0  0  0  0  0  0  0  0  0
    8.2078  -15.1115   21.3670 N   0  0  0  0  0  0  0  0  0  0  0  0
    8.2606  -15.6769   23.6362 C   0  0  0  0  0  0  0  0  0  0  0  0
    7.6025  -16.6923   23.1987 O   0  0  0  0  0  0  0  0  0  0  0  0
    6.3369  -13.6046   25.2492 C   0  0  0  0  0  0  0  0  0  0  0  0
    6.2663  -13.1085   26.5177 C   0  0  0  0  0  0  0  0  0  0  0  0
   13.8469  -20.6609   22.1056 N   0  0  0  0  0  0  0  0  0  0  0  0
   12.6109  -21.2148   22.4752 C   0  0  0  0  0  0  0  0  0  0  0  0
   12.2553  -22.3335   21.9576 N   0  0  0  0  0  0  0  0  0  0  0  0
   11.7208  -20.5964   23.4029 N   0  0  0  0  0  0  0  0  0  0  0  0
   12.0286  -19.2901   23.9145 C   0  0  0  0  0  0  0  0  0  0  0  0
   10.9460  -18.8587   24.9178 C   0  0  0  0  0  0  0  0  0  0  0  0
   10.2714  -17.6230   24.4276 C   0  0  0  0  0  0  0  0  0  0  0  0
    9.1813  -17.1380   25.3973 C   0  0  2  0  0  0  0  0  0  0  0  0
    8.8149  -15.8015   24.9311 N   0  0  0  0  0  0  0  0  0  0  0  0
    9.6947  -17.0653   26.7713 C   0  0  0  0  0  0  0  0  0  0  0  0
    9.5347  -18.0328   27.5900 O   0  0  0  0  0  0  0  0  0  0  0  0
   10.3715  -15.9629   27.2489 O   0  0  0  0  0  0  0  0  0  0  0  0
  2  1  1  0
  3  2  2  0
  4  2  1  0
  5  4  1  0
  6  8  1  0
  6  5  1  0
  6  7  1  1
  8  9  2  0
 10 11  1  0
 11 12  2  0
 11 21  1  0
 12 13  1  0
 13 14  2  0
 14 15  1  0
 16 15  1  1
 17 16  1  0
 17  8  1  0
 18 19  2  0
 18 16  1  0
 20 14  1  0
 21 20  2  0
 22 23  1  0
 23 25  1  0
 24 23  2  0
 25 26  1  0
 26 27  1  0
 28 27  1  0
 29 28  1  6
 29 30  1  0
 30 18  1  0
 31 33  1  0
 31 29  1  0
 32 31  2  0
M  END
$$$$
