QYR.pdb
     RDKit          3D

 33 33  0  0  1  0  0  0  0  0999 V2000
    7.8059  -12.8216   15.3366 N   0  0  0  0  0  0  0  0  0  0  0  0
    8.4055  -14.0928   15.2698 C   0  0  0  0  0  0  0  0  0  0  0  0
    9.1398  -14.3913   14.3039 O   0  0  0  0  0  0  0  0  0  0  0  0
    8.1674  -15.0737   16.3405 C   0  0  0  0  0  0  0  0  0  0  0  0
    8.6355  -14.5007   17.6619 C   0  0  0  0  0  0  0  0  0  0  0  0
    8.4180  -15.5808   18.7088 C   0  0  2  0  0  0  0  0  0  0  0  0
    7.0935  -16.1543   18.6276 N   0  0  0  0  0  0  0  0  0  0  0  0
    8.7279  -15.0927   20.0762 C   0  0  0  0  0  0  0  0  0  0  0  0
    9.8824  -14.7430   20.3727 O   0  0  0  0  0  0  0  0  0  0  0  0
    7.2188  -12.0704   28.3010 O   0  0  0  0  0  0  0  0  0  0  0  0
    7.0959  -12.5223   26.9973 C   0  0  0  0  0  0  0  0  0  0  0  0
    7.4324  -11.6980   25.9518 C   0  0  0  0  0  0  0  0  0  0  0  0
    7.3179  -12.1270   24.6505 C   0  0  0  0  0  0  0  0  0  0  0  0
    6.8709  -13.3773   24.3231 C   0  0  0  0  0  0  0  0  0  0  0  0
    6.7482  -13.8858   22.9504 C   0  0  0  0  0  0  0  0  0  0  0  0
    8.0176  -14.4336   22.3904 C   0  0  2  0  0  0  0  0  0  0  0  0
    7.6933  -15.0280   21.0460 N   0  0  0  0  0  0  0  0  0  0  0  0
    8.4974  -15.5856   23.1707 C   0  0  0  0  0  0  0  0  0  0  0  0
    7.8320  -16.6815   23.0617 O   0  0  0  0  0  0  0  0  0  0  0  0
    6.5250  -14.2243   25.3929 C   0  0  0  0  0  0  0  0  0  0  0  0
    6.6427  -13.7871   26.6795 C   0  0  0  0  0  0  0  0  0  0  0  0
   16.3166  -20.3864   24.8779 N   0  0  0  0  0  0  0  0  0  0  0  0
   15.0976  -20.4847   24.1883 C   0  0  0  0  0  0  0  0  0  0  0  0
   15.0760  -21.0820   23.0531 N   0  0  0  0  0  0  0  0  0  0  0  0
   13.8709  -19.9522   24.6851 N   0  0  0  0  0  0  0  0  0  0  0  0
   13.3510  -18.7352   24.1270 C   0  0  0  0  0  0  0  0  0  0  0  0
   11.9866  -18.4165   24.7604 C   0  0  0  0  0  0  0  0  0  0  0  0
   11.4114  -17.1965   24.1255 C   0  0  0  0  0  0  0  0  0  0  0  0
    9.9897  -16.8996   24.6303 C   0  0  2  0  0  0  0  0  0  0  0  0
    9.6233  -15.6199   24.0254 N   0  0  0  0  0  0  0  0  0  0  0  0
    9.9649  -16.7864   26.0943 C   0  0  0  0  0  0  0  0  0  0  0  0
   10.0654  -17.8187   26.8401 O   0  0  0  0  0  0  0  0  0  0  0  0
    9.8350  -15.5742   26.7386 O   0  0  0  0  0  0  0  0  0  0  0  0
  2  1  1  0
  3  2  2  0
  4  2  1  0
  5  4  1  0
  6  8  1  0
  6  5  1  0
  6  7  1  1
  8  9  2  0
 10 11  1  0
 11 12  2  0
 11 21  1  0
 12 13  1  0
 13 14  2  0
 14 15  1  0
 16 15  1  1
 17 16  1  0
 17  8  1  0
 18 19  2  0
 18 16  1  0
 20 14  1  0
 21 20  2  0
 22 23  1  0
 23 25  1  0
 24 23  2  0
 25 26  1  0
 26 27  1  0
 28 27  1  0
 29 28  1  6
 29 30  1  0
 30 18  1  0
 31 33  1  0
 31 29  1  0
 32 31  2  0
M  END
$$$$
