QYR.pdb
     RDKit          3D

 33 33  0  0  1  0  0  0  0  0999 V2000
   11.6697  -21.2918   19.0627 N   0  0  0  0  0  0  0  0  0  0  0  0
   11.6333  -20.3879   17.9850 C   0  0  0  0  0  0  0  0  0  0  0  0
   11.9428  -20.7676   16.8355 O   0  0  0  0  0  0  0  0  0  0  0  0
   11.2295  -18.9912   18.2119 C   0  0  0  0  0  0  0  0  0  0  0  0
   10.9761  -18.7738   19.6891 C   0  0  0  0  0  0  0  0  0  0  0  0
    9.5973  -18.1457   19.8087 C   0  0  2  0  0  0  0  0  0  0  0  0
    9.0152  -17.8673   18.5150 N   0  0  0  0  0  0  0  0  0  0  0  0
    9.6134  -16.9434   20.6795 C   0  0  0  0  0  0  0  0  0  0  0  0
   10.4708  -16.0594   20.5157 O   0  0  0  0  0  0  0  0  0  0  0  0
    7.1242  -11.3665   27.1622 O   0  0  0  0  0  0  0  0  0  0  0  0
    7.1734  -12.3482   26.1860 C   0  0  0  0  0  0  0  0  0  0  0  0
    7.5306  -12.0196   24.9013 C   0  0  0  0  0  0  0  0  0  0  0  0
    7.5857  -12.9786   23.9176 C   0  0  0  0  0  0  0  0  0  0  0  0
    7.2944  -14.2939   24.1532 C   0  0  0  0  0  0  0  0  0  0  0  0
    7.3560  -15.3558   23.1400 C   0  0  0  0  0  0  0  0  0  0  0  0
    8.7278  -15.6139   22.6141 C   0  0  2  0  0  0  0  0  0  0  0  0
    8.6399  -16.8096   21.7039 N   0  0  0  0  0  0  0  0  0  0  0  0
    9.6387  -16.0584   23.6812 C   0  0  0  0  0  0  0  0  0  0  0  0
    9.7221  -17.3259   23.8863 O   0  0  0  0  0  0  0  0  0  0  0  0
    6.9276  -14.6334   25.4692 C   0  0  0  0  0  0  0  0  0  0  0  0
    6.8763  -13.6730   26.4362 C   0  0  0  0  0  0  0  0  0  0  0  0
   12.4031  -21.4987   28.0364 N   0  0  0  0  0  0  0  0  0  0  0  0
   11.2089  -20.9296   28.5064 C   0  0  0  0  0  0  0  0  0  0  0  0
   10.1939  -21.6910   28.6960 N   0  0  0  0  0  0  0  0  0  0  0  0
   11.0609  -19.5387   28.7873 N   0  0  0  0  0  0  0  0  0  0  0  0
   10.2976  -18.7142   27.8928 C   0  0  0  0  0  0  0  0  0  0  0  0
   11.2308  -17.7204   27.1812 C   0  0  0  0  0  0  0  0  0  0  0  0
   10.4446  -16.8919   26.2231 C   0  0  0  0  0  0  0  0  0  0  0  0
   11.3304  -15.8872   25.4681 C   0  0  2  0  0  0  0  0  0  0  0  0
   10.4438  -15.2373   24.5041 N   0  0  0  0  0  0  0  0  0  0  0  0
   12.4197  -16.5741   24.7621 C   0  0  0  0  0  0  0  0  0  0  0  0
   13.6325  -16.4627   25.1476 O   0  0  0  0  0  0  0  0  0  0  0  0
   12.1974  -17.3694   23.6578 O   0  0  0  0  0  0  0  0  0  0  0  0
  2  1  1  0
  3  2  2  0
  4  2  1  0
  5  4  1  0
  6  8  1  0
  6  5  1  0
  6  7  1  6
  8  9  2  0
 10 11  1  0
 11 12  2  0
 11 21  1  0
 12 13  1  0
 13 14  2  0
 14 15  1  0
 16 15  1  1
 17 16  1  0
 17  8  1  0
 18 19  2  0
 18 16  1  0
 20 14  1  0
 21 20  2  0
 22 23  1  0
 23 25  1  0
 24 23  2  0
 25 26  1  0
 26 27  1  0
 28 27  1  0
 29 28  1  6
 29 30  1  0
 30 18  1  0
 31 33  1  0
 31 29  1  0
 32 31  2  0
M  END
$$$$
