QYR.pdb
     RDKit          3D

 33 33  0  0  1  0  0  0  0  0999 V2000
    9.3146  -13.4844   15.1630 N   0  0  0  0  0  0  0  0  0  0  0  0
    8.1311  -14.2416   15.2398 C   0  0  0  0  0  0  0  0  0  0  0  0
    7.5832  -14.6589   14.1972 O   0  0  0  0  0  0  0  0  0  0  0  0
    7.5366  -14.5431   16.5517 C   0  0  0  0  0  0  0  0  0  0  0  0
    8.4505  -14.0355   17.6474 C   0  0  0  0  0  0  0  0  0  0  0  0
    8.5840  -15.1596   18.6616 C   0  0  2  0  0  0  0  0  0  0  0  0
    7.4818  -16.0919   18.5845 N   0  0  0  0  0  0  0  0  0  0  0  0
    8.7744  -14.6391   20.0389 C   0  0  0  0  0  0  0  0  0  0  0  0
    9.7507  -13.9206   20.3104 O   0  0  0  0  0  0  0  0  0  0  0  0
    6.9972  -12.5012   28.4559 O   0  0  0  0  0  0  0  0  0  0  0  0
    6.9278  -12.9144   27.1354 C   0  0  0  0  0  0  0  0  0  0  0  0
    7.0760  -11.9992   26.1224 C   0  0  0  0  0  0  0  0  0  0  0  0
    7.0106  -12.3885   24.8053 C   0  0  0  0  0  0  0  0  0  0  0  0
    6.7986  -13.6863   24.4299 C   0  0  0  0  0  0  0  0  0  0  0  0
    6.7383  -14.1522   23.0380 C   0  0  0  0  0  0  0  0  0  0  0  0
    8.0716  -14.4517   22.4400 C   0  0  2  0  0  0  0  0  0  0  0  0
    7.8308  -14.9685   21.0469 N   0  0  0  0  0  0  0  0  0  0  0  0
    8.7248  -15.5821   23.1195 C   0  0  0  0  0  0  0  0  0  0  0  0
    8.4041  -16.7640   22.7248 O   0  0  0  0  0  0  0  0  0  0  0  0
    6.6461  -14.6265   25.4664 C   0  0  0  0  0  0  0  0  0  0  0  0
    6.7127  -14.2279   26.7690 C   0  0  0  0  0  0  0  0  0  0  0  0
   16.4193  -18.2254   22.4695 N   0  0  0  0  0  0  0  0  0  0  0  0
   15.2659  -18.9378   22.1043 C   0  0  0  0  0  0  0  0  0  0  0  0
   15.3195  -19.7240   21.0919 N   0  0  0  0  0  0  0  0  0  0  0  0
   14.0267  -18.8344   22.8035 N   0  0  0  0  0  0  0  0  0  0  0  0
   13.9011  -17.8977   23.8849 C   0  0  0  0  0  0  0  0  0  0  0  0
   12.4787  -17.9645   24.4654 C   0  0  0  0  0  0  0  0  0  0  0  0
   11.7157  -16.7480   24.0648 C   0  0  0  0  0  0  0  0  0  0  0  0
   10.2852  -16.7532   24.6287 C   0  0  2  0  0  0  0  0  0  0  0  0
    9.6797  -15.5077   24.1598 N   0  0  0  0  0  0  0  0  0  0  0  0
   10.2993  -16.7810   26.0970 C   0  0  0  0  0  0  0  0  0  0  0  0
    9.9464  -15.7621   26.7820 O   0  0  0  0  0  0  0  0  0  0  0  0
   10.6881  -17.8952   26.8102 O   0  0  0  0  0  0  0  0  0  0  0  0
  2  1  1  0
  3  2  2  0
  4  2  1  0
  5  4  1  0
  6  8  1  0
  6  5  1  0
  6  7  1  1
  8  9  2  0
 10 11  1  0
 11 12  2  0
 11 21  1  0
 12 13  1  0
 13 14  2  0
 14 15  1  0
 16 15  1  1
 17 16  1  0
 17  8  1  0
 18 19  2  0
 18 16  1  0
 20 14  1  0
 21 20  2  0
 22 23  1  0
 23 25  1  0
 24 23  2  0
 25 26  1  0
 26 27  1  0
 28 27  1  0
 29 28  1  6
 29 30  1  0
 30 18  1  0
 31 33  1  0
 31 29  1  0
 32 31  2  0
M  END
$$$$
