QYR.pdb
     RDKit          3D

 33 33  0  0  1  0  0  0  0  0999 V2000
   12.2154  -15.6491   17.2966 N   0  0  0  0  0  0  0  0  0  0  0  0
   11.7726  -16.9840   17.3378 C   0  0  0  0  0  0  0  0  0  0  0  0
   11.8981  -17.7191   16.3351 O   0  0  0  0  0  0  0  0  0  0  0  0
   11.1598  -17.5164   18.5652 C   0  0  0  0  0  0  0  0  0  0  0  0
   11.1191  -16.4304   19.6198 C   0  0  0  0  0  0  0  0  0  0  0  0
   10.5337  -17.0595   20.8734 C   0  0  2  0  0  0  0  0  0  0  0  0
    9.4092  -17.9174   20.5740 N   0  0  0  0  0  0  0  0  0  0  0  0
   10.1945  -16.0377   21.8956 C   0  0  0  0  0  0  0  0  0  0  0  0
   11.0799  -15.3112   22.3767 O   0  0  0  0  0  0  0  0  0  0  0  0
    7.4266  -12.7351   17.4125 O   0  0  0  0  0  0  0  0  0  0  0  0
    7.4016  -13.0637   18.7580 C   0  0  0  0  0  0  0  0  0  0  0  0
    6.7337  -14.1882   19.1764 C   0  0  0  0  0  0  0  0  0  0  0  0
    6.6967  -14.5322   20.5071 C   0  0  0  0  0  0  0  0  0  0  0  0
    7.3115  -13.7904   21.4777 C   0  0  0  0  0  0  0  0  0  0  0  0
    7.3142  -14.1268   22.9077 C   0  0  0  0  0  0  0  0  0  0  0  0
    8.5386  -14.8495   23.3587 C   0  0  2  0  0  0  0  0  0  0  0  0
    8.8478  -15.8955   22.3213 N   0  0  0  0  0  0  0  0  0  0  0  0
    8.2819  -15.6359   24.5761 C   0  0  0  0  0  0  0  0  0  0  0  0
    7.8120  -15.0012   25.5919 O   0  0  0  0  0  0  0  0  0  0  0  0
    7.9966  -12.6369   21.0516 C   0  0  0  0  0  0  0  0  0  0  0  0
    8.0259  -12.3061   19.7287 C   0  0  0  0  0  0  0  0  0  0  0  0
    5.7417  -23.9292   26.2831 N   0  0  0  0  0  0  0  0  0  0  0  0
    5.8986  -23.2906   27.5235 C   0  0  0  0  0  0  0  0  0  0  0  0
    5.5559  -23.9173   28.5892 N   0  0  0  0  0  0  0  0  0  0  0  0
    6.4227  -21.9713   27.6651 N   0  0  0  0  0  0  0  0  0  0  0  0
    6.7959  -21.2294   26.4933 C   0  0  0  0  0  0  0  0  0  0  0  0
    7.2385  -19.8130   26.8964 C   0  0  0  0  0  0  0  0  0  0  0  0
    7.6191  -19.0408   25.6793 C   0  0  0  0  0  0  0  0  0  0  0  0
    8.1087  -17.6248   26.0246 C   0  0  2  0  0  0  0  0  0  0  0  0
    8.4890  -17.0242   24.7470 N   0  0  0  0  0  0  0  0  0  0  0  0
    9.2717  -17.6746   26.9200 C   0  0  0  0  0  0  0  0  0  0  0  0
    9.1415  -17.9551   28.1595 O   0  0  0  0  0  0  0  0  0  0  0  0
   10.5541  -17.4261   26.4785 O   0  0  0  0  0  0  0  0  0  0  0  0
  2  1  1  0
  3  2  2  0
  4  2  1  0
  5  4  1  0
  6  8  1  0
  6  5  1  0
  6  7  1  6
  8  9  2  0
 10 11  1  0
 11 12  2  0
 11 21  1  0
 12 13  1  0
 13 14  2  0
 14 15  1  0
 16 15  1  6
 17 16  1  0
 17  8  1  0
 18 19  2  0
 18 16  1  0
 20 14  1  0
 21 20  2  0
 22 23  1  0
 23 25  1  0
 24 23  2  0
 25 26  1  0
 26 27  1  0
 28 27  1  0
 29 28  1  6
 29 30  1  0
 30 18  1  0
 31 33  1  0
 31 29  1  0
 32 31  2  0
M  END
$$$$
