QYR.pdb
     RDKit          3D

 33 33  0  0  1  0  0  0  0  0999 V2000
    8.4622  -13.9916   15.0273 N   0  0  0  0  0  0  0  0  0  0  0  0
    7.8896  -14.8938   15.9428 C   0  0  0  0  0  0  0  0  0  0  0  0
    7.4328  -15.9870   15.5457 O   0  0  0  0  0  0  0  0  0  0  0  0
    7.8283  -14.5492   17.3720 C   0  0  0  0  0  0  0  0  0  0  0  0
    9.1585  -14.8645   18.0236 C   0  0  0  0  0  0  0  0  0  0  0  0
    8.8828  -15.8976   19.1037 C   0  0  2  0  0  0  0  0  0  0  0  0
    7.5504  -16.4485   18.9982 N   0  0  0  0  0  0  0  0  0  0  0  0
    9.1551  -15.3616   20.4611 C   0  0  0  0  0  0  0  0  0  0  0  0
   10.2782  -14.9143   20.7471 O   0  0  0  0  0  0  0  0  0  0  0  0
    7.6160  -11.6152   28.3191 O   0  0  0  0  0  0  0  0  0  0  0  0
    7.5069  -12.1949   27.0656 C   0  0  0  0  0  0  0  0  0  0  0  0
    8.0733  -11.5815   25.9753 C   0  0  0  0  0  0  0  0  0  0  0  0
    7.9766  -12.1401   24.7227 C   0  0  0  0  0  0  0  0  0  0  0  0
    7.3235  -13.3188   24.4896 C   0  0  0  0  0  0  0  0  0  0  0  0
    7.2089  -13.9622   23.1739 C   0  0  0  0  0  0  0  0  0  0  0  0
    8.4106  -14.7524   22.7782 C   0  0  2  0  0  0  0  0  0  0  0  0
    8.1208  -15.3633   21.4333 N   0  0  0  0  0  0  0  0  0  0  0  0
    8.5997  -15.9199   23.6542 C   0  0  0  0  0  0  0  0  0  0  0  0
    7.7236  -16.8586   23.5721 O   0  0  0  0  0  0  0  0  0  0  0  0
    6.7416  -13.9495   25.6054 C   0  0  0  0  0  0  0  0  0  0  0  0
    6.8441  -13.3853   26.8429 C   0  0  0  0  0  0  0  0  0  0  0  0
   14.0170  -17.6018   21.1629 N   0  0  0  0  0  0  0  0  0  0  0  0
   13.1323  -18.6412   20.8344 C   0  0  0  0  0  0  0  0  0  0  0  0
   12.8410  -18.8384   19.6007 N   0  0  0  0  0  0  0  0  0  0  0  0
   12.5341  -19.4978   21.8059 N   0  0  0  0  0  0  0  0  0  0  0  0
   12.4906  -19.0853   23.1809 C   0  0  0  0  0  0  0  0  0  0  0  0
   11.0864  -18.5576   23.5191 C   0  0  0  0  0  0  0  0  0  0  0  0
   11.0761  -18.0117   24.9063 C   0  0  0  0  0  0  0  0  0  0  0  0
    9.7121  -17.4068   25.2777 C   0  0  2  0  0  0  0  0  0  0  0  0
    9.6526  -16.1258   24.5754 N   0  0  0  0  0  0  0  0  0  0  0  0
    9.6111  -17.1885   26.7264 C   0  0  0  0  0  0  0  0  0  0  0  0
    9.8034  -16.0333   27.2370 O   0  0  0  0  0  0  0  0  0  0  0  0
    9.3053  -18.2051   27.6063 O   0  0  0  0  0  0  0  0  0  0  0  0
  2  1  1  0
  3  2  2  0
  4  2  1  0
  5  4  1  0
  6  8  1  0
  6  5  1  0
  6  7  1  1
  8  9  2  0
 10 11  1  0
 11 12  2  0
 11 21  1  0
 12 13  1  0
 13 14  2  0
 14 15  1  0
 16 15  1  1
 17 16  1  0
 17  8  1  0
 18 19  2  0
 18 16  1  0
 20 14  1  0
 21 20  2  0
 22 23  1  0
 23 25  1  0
 24 23  2  0
 25 26  1  0
 26 27  1  0
 28 27  1  0
 29 28  1  1
 29 30  1  0
 30 18  1  0
 31 33  1  0
 31 29  1  0
 32 31  2  0
M  END
$$$$
