YHY.pdb
     RDKit          3D

 35 37  0  0  1  0  0  0  0  0999 V2000
    7.3233  -11.9589   16.3130 O   0  0  0  0  0  0  0  0  0  0  0  0
    7.5926  -12.7683   17.4031 C   0  0  0  0  0  0  0  0  0  0  0  0
    8.6799  -12.5614   18.2252 C   0  0  0  0  0  0  0  0  0  0  0  0
    8.9354  -13.3840   19.3143 C   0  0  0  0  0  0  0  0  0  0  0  0
    8.1141  -14.4462   19.6257 C   0  0  0  0  0  0  0  0  0  0  0  0
    8.3602  -15.3573   20.7748 C   0  0  0  0  0  0  0  0  0  0  0  0
    9.4253  -16.3818   20.4036 C   0  0  2  0  0  0  0  0  0  0  0  0
    8.8268  -17.1678   19.3107 N   0  0  0  0  0  0  0  0  0  0  0  0
    9.5957  -17.2787   21.5780 C   0  0  0  0  0  0  0  0  0  0  0  0
    9.1591  -18.4836   21.5296 O   0  0  0  0  0  0  0  0  0  0  0  0
    7.0155  -14.6581   18.7977 C   0  0  0  0  0  0  0  0  0  0  0  0
    6.7667  -13.8371   17.7159 C   0  0  0  0  0  0  0  0  0  0  0  0
   10.2224  -16.9059   22.7922 N   0  0  0  0  0  0  0  0  0  0  0  0
   10.8512  -17.9184   23.6524 C   0  0  1  0  0  0  0  0  0  0  0  0
   11.7962  -18.7721   22.8343 C   0  0  0  0  0  0  0  0  0  0  0  0
   11.0620  -19.9451   22.3134 C   0  0  0  0  0  0  0  0  0  0  0  0
   10.8685  -20.2630   20.9878 C   0  0  0  0  0  0  0  0  0  0  0  0
   10.1373  -21.3895   20.9277 N   0  0  0  0  0  0  0  0  0  0  0  0
    9.8675  -21.7838   22.1850 C   0  0  0  0  0  0  0  0  0  0  0  0
   10.4260  -20.9118   23.0370 N   0  0  0  0  0  0  0  0  0  0  0  0
   11.4459  -17.3134   24.8456 C   0  0  0  0  0  0  0  0  0  0  0  0
   12.5089  -16.6468   24.7821 O   0  0  0  0  0  0  0  0  0  0  0  0
    6.4166  -11.1851   27.7087 O   0  0  0  0  0  0  0  0  0  0  0  0
    7.1175  -12.2904   27.2309 C   0  0  0  0  0  0  0  0  0  0  0  0
    6.4817  -13.4970   27.0511 C   0  0  0  0  0  0  0  0  0  0  0  0
    7.1427  -14.6039   26.5816 C   0  0  0  0  0  0  0  0  0  0  0  0
    8.4790  -14.5308   26.2751 C   0  0  0  0  0  0  0  0  0  0  0  0
    9.1825  -15.7062   25.7934 C   0  0  0  0  0  0  0  0  0  0  0  0
   10.2090  -16.2791   26.7683 C   0  0  2  0  0  0  0  0  0  0  0  0
   10.8685  -17.4363   26.1463 N   0  0  0  0  0  0  0  0  0  0  0  0
    9.5399  -16.7397   28.0004 C   0  0  0  0  0  0  0  0  0  0  0  0
    8.7124  -17.6740   27.9323 O   0  0  0  0  0  0  0  0  0  0  0  0
    9.1381  -13.3377   26.4458 C   0  0  0  0  0  0  0  0  0  0  0  0
    8.4578  -12.2356   26.9185 C   0  0  0  0  0  0  0  0  0  0  0  0
    9.7934  -16.1689   29.2585 O   0  0  0  0  0  0  0  0  0  0  0  0
  1  2  1  0
  2  3  2  0
  3  4  1  0
  5  6  1  0
  5  4  2  0
  6  7  1  0
  7  8  1  6
  9 13  1  0
  9  7  1  0
 10  9  2  0
 11  5  1  0
 12 11  2  0
 12  2  1  0
 14 13  1  0
 14 21  1  0
 14 15  1  6
 16 17  2  0
 16 15  1  0
 18 17  1  0
 19 20  2  0
 19 18  1  0
 20 16  1  0
 21 22  2  0
 23 24  1  0
 24 25  2  0
 24 34  1  0
 25 26  1  0
 26 27  2  0
 27 28  1  0
 29 31  1  0
 29 28  1  6
 30 21  1  0
 30 29  1  0
 31 35  1  0
 32 31  2  0
 33 27  1  0
 34 33  2  0
M  END
$$$$
