YHY.pdb
     RDKit          3D

 35 37  0  0  1  0  0  0  0  0999 V2000
    7.3394  -12.2218   16.7035 O   0  0  0  0  0  0  0  0  0  0  0  0
    7.7429  -13.0132   17.7651 C   0  0  0  0  0  0  0  0  0  0  0  0
    9.0673  -13.3193   17.9957 C   0  0  0  0  0  0  0  0  0  0  0  0
    9.4543  -14.1157   19.0654 C   0  0  0  0  0  0  0  0  0  0  0  0
    8.5330  -14.6375   19.9479 C   0  0  0  0  0  0  0  0  0  0  0  0
    8.9056  -15.5043   21.0973 C   0  0  0  0  0  0  0  0  0  0  0  0
    9.3924  -16.8558   20.5894 C   0  0  2  0  0  0  0  0  0  0  0  0
    8.1988  -17.4896   20.0028 N   0  0  0  0  0  0  0  0  0  0  0  0
    9.7980  -17.6489   21.7807 C   0  0  0  0  0  0  0  0  0  0  0  0
    8.9021  -18.1719   22.5347 O   0  0  0  0  0  0  0  0  0  0  0  0
    7.1950  -14.3305   19.7180 C   0  0  0  0  0  0  0  0  0  0  0  0
    6.8161  -13.5385   18.6524 C   0  0  0  0  0  0  0  0  0  0  0  0
   11.1383  -17.8878   22.1712 N   0  0  0  0  0  0  0  0  0  0  0  0
   11.4447  -18.4441   23.4967 C   0  0  1  0  0  0  0  0  0  0  0  0
   12.7855  -19.1456   23.4618 C   0  0  0  0  0  0  0  0  0  0  0  0
   13.0717  -19.7109   24.7978 C   0  0  0  0  0  0  0  0  0  0  0  0
   13.9213  -19.1806   25.7425 C   0  0  0  0  0  0  0  0  0  0  0  0
   13.9243  -19.9963   26.8111 N   0  0  0  0  0  0  0  0  0  0  0  0
   13.0969  -21.0258   26.5570 C   0  0  0  0  0  0  0  0  0  0  0  0
   12.5719  -20.8622   25.3339 N   0  0  0  0  0  0  0  0  0  0  0  0
   11.3067  -17.4336   24.5471 C   0  0  0  0  0  0  0  0  0  0  0  0
   11.7715  -16.2749   24.4071 O   0  0  0  0  0  0  0  0  0  0  0  0
    6.4556  -11.4371   27.9692 O   0  0  0  0  0  0  0  0  0  0  0  0
    7.0730  -12.5417   27.3860 C   0  0  0  0  0  0  0  0  0  0  0  0
    8.4441  -12.6521   27.3768 C   0  0  0  0  0  0  0  0  0  0  0  0
    9.0829  -13.7269   26.8117 C   0  0  0  0  0  0  0  0  0  0  0  0
    8.3540  -14.7355   26.2316 C   0  0  0  0  0  0  0  0  0  0  0  0
    9.0302  -15.8653   25.6194 C   0  0  0  0  0  0  0  0  0  0  0  0
   10.0250  -16.5827   26.5294 C   0  0  2  0  0  0  0  0  0  0  0  0
   10.6439  -17.6897   25.7862 N   0  0  0  0  0  0  0  0  0  0  0  0
    9.3276  -17.1490   27.7002 C   0  0  0  0  0  0  0  0  0  0  0  0
    8.7502  -18.2522   27.5914 O   0  0  0  0  0  0  0  0  0  0  0  0
    6.9830  -14.6499   26.2269 C   0  0  0  0  0  0  0  0  0  0  0  0
    6.3581  -13.5624   26.7994 C   0  0  0  0  0  0  0  0  0  0  0  0
    9.2829  -16.4971   28.9435 O   0  0  0  0  0  0  0  0  0  0  0  0
  1  2  1  0
  2  3  2  0
  3  4  1  0
  5  6  1  0
  5  4  2  0
  6  7  1  0
  7  8  1  1
  9 13  1  0
  9  7  1  0
 10  9  2  0
 11  5  1  0
 12 11  2  0
 12  2  1  0
 14 13  1  0
 14 21  1  0
 14 15  1  6
 16 17  2  0
 16 15  1  0
 18 17  1  0
 19 20  2  0
 19 18  1  0
 20 16  1  0
 21 22  2  0
 23 24  1  0
 24 25  2  0
 24 34  1  0
 25 26  1  0
 26 27  2  0
 27 28  1  0
 29 31  1  0
 29 28  1  6
 30 21  1  0
 30 29  1  0
 31 35  1  0
 32 31  2  0
 33 27  1  0
 34 33  2  0
M  END
$$$$
