YHY.pdb
     RDKit          3D

 35 37  0  0  1  0  0  0  0  0999 V2000
    6.6272  -11.6345   16.6964 O   0  0  0  0  0  0  0  0  0  0  0  0
    7.0823  -12.5391   17.6402 C   0  0  0  0  0  0  0  0  0  0  0  0
    6.2555  -13.0827   18.6002 C   0  0  0  0  0  0  0  0  0  0  0  0
    6.7293  -13.9885   19.5401 C   0  0  0  0  0  0  0  0  0  0  0  0
    8.0484  -14.3877   19.5577 C   0  0  0  0  0  0  0  0  0  0  0  0
    8.5971  -15.3449   20.5546 C   0  0  0  0  0  0  0  0  0  0  0  0
    8.7818  -16.7133   19.9104 C   0  0  2  0  0  0  0  0  0  0  0  0
    7.4141  -17.2249   19.7148 N   0  0  0  0  0  0  0  0  0  0  0  0
    9.4598  -17.5789   20.9123 C   0  0  0  0  0  0  0  0  0  0  0  0
    8.8094  -18.0048   21.9322 O   0  0  0  0  0  0  0  0  0  0  0  0
    8.8860  -13.8407   18.5899 C   0  0  0  0  0  0  0  0  0  0  0  0
    8.4094  -12.9401   17.6581 C   0  0  0  0  0  0  0  0  0  0  0  0
   10.8126  -17.9912   20.8367 N   0  0  0  0  0  0  0  0  0  0  0  0
   11.4307  -18.7395   21.9406 C   0  0  1  0  0  0  0  0  0  0  0  0
   12.7106  -19.3927   21.4650 C   0  0  0  0  0  0  0  0  0  0  0  0
   13.2588  -20.2327   22.5514 C   0  0  0  0  0  0  0  0  0  0  0  0
   12.7048  -21.3931   23.0434 C   0  0  0  0  0  0  0  0  0  0  0  0
   13.4898  -21.8462   24.0362 N   0  0  0  0  0  0  0  0  0  0  0  0
   14.5221  -20.9957   24.1781 C   0  0  0  0  0  0  0  0  0  0  0  0
   14.3918  -20.0096   23.2787 N   0  0  0  0  0  0  0  0  0  0  0  0
   11.5724  -17.9089   23.1379 C   0  0  0  0  0  0  0  0  0  0  0  0
   11.8645  -16.6896   23.0590 O   0  0  0  0  0  0  0  0  0  0  0  0
   10.4825  -13.9804   30.8541 O   0  0  0  0  0  0  0  0  0  0  0  0
   10.4373  -14.7265   29.6782 C   0  0  0  0  0  0  0  0  0  0  0  0
   10.5935  -14.1149   28.4560 C   0  0  0  0  0  0  0  0  0  0  0  0
   10.5551  -14.8207   27.2800 C   0  0  0  0  0  0  0  0  0  0  0  0
   10.3558  -16.1790   27.2970 C   0  0  0  0  0  0  0  0  0  0  0  0
   10.2991  -16.9238   26.0518 C   0  0  0  0  0  0  0  0  0  0  0  0
   11.6252  -17.5465   25.6203 C   0  0  2  0  0  0  0  0  0  0  0  0
   11.3914  -18.4183   24.4600 N   0  0  0  0  0  0  0  0  0  0  0  0
   12.1790  -18.3724   26.7108 C   0  0  0  0  0  0  0  0  0  0  0  0
   11.7820  -19.5499   26.8460 O   0  0  0  0  0  0  0  0  0  0  0  0
   10.1965  -16.8146   28.5043 C   0  0  0  0  0  0  0  0  0  0  0  0
   10.2381  -16.0893   29.6762 C   0  0  0  0  0  0  0  0  0  0  0  0
   13.1413  -17.8894   27.6128 O   0  0  0  0  0  0  0  0  0  0  0  0
  1  2  1  0
  2  3  2  0
  3  4  1  0
  5  6  1  0
  5  4  2  0
  6  7  1  0
  7  8  1  1
  9 13  1  0
  9  7  1  0
 10  9  2  0
 11  5  1  0
 12 11  2  0
 12  2  1  0
 14 13  1  0
 14 21  1  0
 14 15  1  6
 16 17  2  0
 16 15  1  0
 18 17  1  0
 19 20  2  0
 19 18  1  0
 20 16  1  0
 21 22  2  0
 23 24  1  0
 24 25  2  0
 24 34  1  0
 25 26  1  0
 26 27  2  0
 27 28  1  0
 29 31  1  0
 29 28  1  1
 30 21  1  0
 30 29  1  0
 31 35  1  0
 32 31  2  0
 33 27  1  0
 34 33  2  0
M  END
$$$$
