YHY.pdb
     RDKit          3D

 35 37  0  0  1  0  0  0  0  0999 V2000
    6.0989  -13.8808   21.3800 O   0  0  0  0  0  0  0  0  0  0  0  0
    7.3109  -13.9168   20.7124 C   0  0  0  0  0  0  0  0  0  0  0  0
    8.1269  -12.8108   20.6041 C   0  0  0  0  0  0  0  0  0  0  0  0
    9.3396  -12.8646   19.9297 C   0  0  0  0  0  0  0  0  0  0  0  0
    9.7856  -14.0264   19.3370 C   0  0  0  0  0  0  0  0  0  0  0  0
   11.0710  -14.1217   18.5955 C   0  0  0  0  0  0  0  0  0  0  0  0
   12.2163  -14.3527   19.5735 C   0  0  2  0  0  0  0  0  0  0  0  0
   13.4340  -14.3030   18.7457 N   0  0  0  0  0  0  0  0  0  0  0  0
   12.0700  -15.7373   20.0971 C   0  0  0  0  0  0  0  0  0  0  0  0
   13.0379  -16.5703   19.9782 O   0  0  0  0  0  0  0  0  0  0  0  0
    8.9641  -15.1449   19.4443 C   0  0  0  0  0  0  0  0  0  0  0  0
    7.7592  -15.0853   20.1157 C   0  0  0  0  0  0  0  0  0  0  0  0
   10.9117  -16.2370   20.7410 N   0  0  0  0  0  0  0  0  0  0  0  0
   11.0257  -17.0815   21.9386 C   0  0  1  0  0  0  0  0  0  0  0  0
   11.9783  -18.2268   21.6706 C   0  0  0  0  0  0  0  0  0  0  0  0
   11.4385  -19.0599   20.5748 C   0  0  0  0  0  0  0  0  0  0  0  0
   10.1127  -19.3596   20.3556 C   0  0  0  0  0  0  0  0  0  0  0  0
   10.0344  -20.1563   19.2756 N   0  0  0  0  0  0  0  0  0  0  0  0
   11.2806  -20.3634   18.8140 C   0  0  0  0  0  0  0  0  0  0  0  0
   12.1436  -19.7002   19.5972 N   0  0  0  0  0  0  0  0  0  0  0  0
   11.3391  -16.2864   23.1273 C   0  0  0  0  0  0  0  0  0  0  0  0
   12.0005  -15.2213   23.0478 O   0  0  0  0  0  0  0  0  0  0  0  0
    5.2942  -12.3828   27.7830 O   0  0  0  0  0  0  0  0  0  0  0  0
    6.1892  -13.0973   26.9894 C   0  0  0  0  0  0  0  0  0  0  0  0
    5.9339  -14.4064   26.6529 C   0  0  0  0  0  0  0  0  0  0  0  0
    6.7940  -15.1373   25.8727 C   0  0  0  0  0  0  0  0  0  0  0  0
    7.9509  -14.5676   25.4017 C   0  0  0  0  0  0  0  0  0  0  0  0
    8.8692  -15.3457   24.5894 C   0  0  0  0  0  0  0  0  0  0  0  0
   10.1859  -15.7002   25.2773 C   0  0  2  0  0  0  0  0  0  0  0  0
   10.9215  -16.6598   24.4413 N   0  0  0  0  0  0  0  0  0  0  0  0
    9.9233  -16.3360   26.5830 C   0  0  0  0  0  0  0  0  0  0  0  0
    9.3986  -17.4700   26.6147 O   0  0  0  0  0  0  0  0  0  0  0  0
    8.2304  -13.2617   25.7233 C   0  0  0  0  0  0  0  0  0  0  0  0
    7.3544  -12.5424   26.5084 C   0  0  0  0  0  0  0  0  0  0  0  0
   10.2394  -15.7173   27.8037 O   0  0  0  0  0  0  0  0  0  0  0  0
  1  2  1  0
  2  3  2  0
  3  4  1  0
  5  6  1  0
  5  4  2  0
  6  7  1  0
  7  8  1  6
  9 13  1  0
  9  7  1  0
 10  9  2  0
 11  5  1  0
 12 11  2  0
 12  2  1  0
 14 13  1  0
 14 21  1  0
 14 15  1  6
 16 17  2  0
 16 15  1  0
 18 17  1  0
 19 20  2  0
 19 18  1  0
 20 16  1  0
 21 22  2  0
 23 24  1  0
 24 25  2  0
 24 34  1  0
 25 26  1  0
 26 27  2  0
 27 28  1  0
 29 31  1  0
 29 28  1  6
 30 21  1  0
 30 29  1  0
 31 35  1  0
 32 31  2  0
 33 27  1  0
 34 33  2  0
M  END
$$$$
