YHY.pdb
     RDKit          3D

 35 37  0  0  1  0  0  0  0  0999 V2000
   18.5333  -15.8124   16.2888 O   0  0  0  0  0  0  0  0  0  0  0  0
   17.4461  -15.5021   17.0874 C   0  0  0  0  0  0  0  0  0  0  0  0
   16.5153  -16.4460   17.4662 C   0  0  0  0  0  0  0  0  0  0  0  0
   15.4299  -16.1168   18.2673 C   0  0  0  0  0  0  0  0  0  0  0  0
   15.2317  -14.8310   18.7224 C   0  0  0  0  0  0  0  0  0  0  0  0
   14.0762  -14.4358   19.5709 C   0  0  0  0  0  0  0  0  0  0  0  0
   12.7805  -14.9405   18.9478 C   0  0  2  0  0  0  0  0  0  0  0  0
   12.5659  -14.0766   17.7738 N   0  0  0  0  0  0  0  0  0  0  0  0
   11.6924  -14.6700   19.9253 C   0  0  0  0  0  0  0  0  0  0  0  0
   11.5632  -13.4975   20.4286 O   0  0  0  0  0  0  0  0  0  0  0  0
   16.1695  -13.8755   18.3419 C   0  0  0  0  0  0  0  0  0  0  0  0
   17.2465  -14.2085   17.5448 C   0  0  0  0  0  0  0  0  0  0  0  0
   10.7488  -15.6297   20.3664 N   0  0  0  0  0  0  0  0  0  0  0  0
    9.6478  -15.2424   21.2598 C   0  0  1  0  0  0  0  0  0  0  0  0
    8.3246  -15.6607   20.6555 C   0  0  0  0  0  0  0  0  0  0  0  0
    8.0286  -14.7976   19.4921 C   0  0  0  0  0  0  0  0  0  0  0  0
    8.1183  -15.1574   18.1662 C   0  0  0  0  0  0  0  0  0  0  0  0
    7.7868  -14.0912   17.4175 N   0  0  0  0  0  0  0  0  0  0  0  0
    7.4926  -13.0716   18.2439 C   0  0  0  0  0  0  0  0  0  0  0  0
    7.6360  -13.4906   19.5096 N   0  0  0  0  0  0  0  0  0  0  0  0
    9.8758  -15.7139   22.6270 C   0  0  0  0  0  0  0  0  0  0  0  0
   10.4630  -16.8006   22.8563 O   0  0  0  0  0  0  0  0  0  0  0  0
   10.6935  -15.8796   31.4609 O   0  0  0  0  0  0  0  0  0  0  0  0
   10.5444  -15.5192   30.1233 C   0  0  0  0  0  0  0  0  0  0  0  0
    9.6853  -14.5068   29.7637 C   0  0  0  0  0  0  0  0  0  0  0  0
    9.5164  -14.1272   28.4561 C   0  0  0  0  0  0  0  0  0  0  0  0
   10.2142  -14.7613   27.4582 C   0  0  0  0  0  0  0  0  0  0  0  0
   10.0236  -14.3705   26.0727 C   0  0  0  0  0  0  0  0  0  0  0  0
    9.7041  -15.5232   25.1231 C   0  0  2  0  0  0  0  0  0  0  0  0
    9.4534  -14.9830   23.7792 N   0  0  0  0  0  0  0  0  0  0  0  0
    8.4865  -16.2280   25.5690 C   0  0  0  0  0  0  0  0  0  0  0  0
    7.3792  -15.8903   25.0977 O   0  0  0  0  0  0  0  0  0  0  0  0
   11.0786  -15.7761   27.7899 C   0  0  0  0  0  0  0  0  0  0  0  0
   11.2358  -16.1443   29.1092 C   0  0  0  0  0  0  0  0  0  0  0  0
    8.5167  -17.2711   26.5091 O   0  0  0  0  0  0  0  0  0  0  0  0
  1  2  1  0
  2  3  2  0
  3  4  1  0
  5  6  1  0
  5  4  2  0
  6  7  1  0
  7  8  1  6
  9 13  1  0
  9  7  1  0
 10  9  2  0
 11  5  1  0
 12 11  2  0
 12  2  1  0
 14 13  1  0
 14 21  1  0
 14 15  1  6
 16 17  2  0
 16 15  1  0
 18 17  1  0
 19 20  2  0
 19 18  1  0
 20 16  1  0
 21 22  2  0
 23 24  1  0
 24 25  2  0
 24 34  1  0
 25 26  1  0
 26 27  2  0
 27 28  1  0
 29 31  1  0
 29 28  1  1
 30 21  1  0
 30 29  1  0
 31 35  1  0
 32 31  2  0
 33 27  1  0
 34 33  2  0
M  END
$$$$
