YHY.pdb
     RDKit          3D

 35 37  0  0  1  0  0  0  0  0999 V2000
   22.8485  -21.6337    8.6834 O   0  0  0  0  0  0  0  0  0  0  0  0
   21.7626  -21.4835    9.5283 C   0  0  0  0  0  0  0  0  0  0  0  0
   20.4757  -21.7868    9.1373 C   0  0  0  0  0  0  0  0  0  0  0  0
   19.3975  -21.6292    9.9981 C   0  0  0  0  0  0  0  0  0  0  0  0
   19.5624  -21.1626   11.2845 C   0  0  0  0  0  0  0  0  0  0  0  0
   18.4330  -20.9679   12.2320 C   0  0  0  0  0  0  0  0  0  0  0  0
   18.3190  -22.1743   13.1556 C   0  0  2  0  0  0  0  0  0  0  0  0
   17.7201  -23.2313   12.3221 N   0  0  0  0  0  0  0  0  0  0  0  0
   17.3435  -21.8176   14.2204 C   0  0  0  0  0  0  0  0  0  0  0  0
   17.5889  -20.8357   15.0080 O   0  0  0  0  0  0  0  0  0  0  0  0
   20.8603  -20.8552   11.6826 C   0  0  0  0  0  0  0  0  0  0  0  0
   21.9284  -21.0136   10.8221 C   0  0  0  0  0  0  0  0  0  0  0  0
   16.1195  -22.4920   14.4504 N   0  0  0  0  0  0  0  0  0  0  0  0
   15.2500  -22.1054   15.5707 C   0  0  1  0  0  0  0  0  0  0  0  0
   13.8171  -22.4832   15.2627 C   0  0  0  0  0  0  0  0  0  0  0  0
   13.2602  -21.5195   14.2893 C   0  0  0  0  0  0  0  0  0  0  0  0
   13.7432  -20.2578   14.0237 C   0  0  0  0  0  0  0  0  0  0  0  0
   12.9530  -19.6916   13.0951 N   0  0  0  0  0  0  0  0  0  0  0  0
   11.9857  -20.5692   12.7738 C   0  0  0  0  0  0  0  0  0  0  0  0
   12.1632  -21.6859   13.4947 N   0  0  0  0  0  0  0  0  0  0  0  0
   15.7598  -22.6147   16.8452 C   0  0  0  0  0  0  0  0  0  0  0  0
   16.4405  -23.6689   16.9047 O   0  0  0  0  0  0  0  0  0  0  0  0
   21.9972  -24.6807   18.1847 O   0  0  0  0  0  0  0  0  0  0  0  0
   20.8371  -24.0050   18.5575 C   0  0  0  0  0  0  0  0  0  0  0  0
   20.8543  -22.6439   18.7562 C   0  0  0  0  0  0  0  0  0  0  0  0
   19.7295  -21.9487   19.1226 C   0  0  0  0  0  0  0  0  0  0  0  0
   18.5391  -22.6085   19.3029 C   0  0  0  0  0  0  0  0  0  0  0  0
   17.3523  -21.8755   19.7064 C   0  0  0  0  0  0  0  0  0  0  0  0
   16.0315  -22.5484   19.3388 C   0  0  2  0  0  0  0  0  0  0  0  0
   15.5229  -21.9590   18.0919 N   0  0  0  0  0  0  0  0  0  0  0  0
   15.0300  -22.3171   20.3978 C   0  0  0  0  0  0  0  0  0  0  0  0
   15.2136  -22.8142   21.5298 O   0  0  0  0  0  0  0  0  0  0  0  0
   18.4944  -23.9681   19.1114 C   0  0  0  0  0  0  0  0  0  0  0  0
   19.6346  -24.6503   18.7431 C   0  0  0  0  0  0  0  0  0  0  0  0
   13.8680  -21.5565   20.1881 O   0  0  0  0  0  0  0  0  0  0  0  0
  1  2  1  0
  2  3  2  0
  3  4  1  0
  5  6  1  0
  5  4  2  0
  6  7  1  0
  7  8  1  6
  9 13  1  0
  9  7  1  0
 10  9  2  0
 11  5  1  0
 12 11  2  0
 12  2  1  0
 14 13  1  0
 14 21  1  0
 14 15  1  6
 16 17  2  0
 16 15  1  0
 18 17  1  0
 19 20  2  0
 19 18  1  0
 20 16  1  0
 21 22  2  0
 23 24  1  0
 24 25  2  0
 24 34  1  0
 25 26  1  0
 26 27  2  0
 27 28  1  0
 29 31  1  0
 29 28  1  1
 30 21  1  0
 30 29  1  0
 31 35  1  0
 32 31  2  0
 33 27  1  0
 34 33  2  0
M  END
$$$$
