YHY.pdb
     RDKit          3D

 35 37  0  0  1  0  0  0  0  0999 V2000
   17.2700  -16.0641   12.8181 O   0  0  0  0  0  0  0  0  0  0  0  0
   16.3498  -16.2100   13.8417 C   0  0  0  0  0  0  0  0  0  0  0  0
   15.7975  -17.4300   14.1694 C   0  0  0  0  0  0  0  0  0  0  0  0
   14.8747  -17.5580   15.1991 C   0  0  0  0  0  0  0  0  0  0  0  0
   14.4674  -16.4715   15.9432 C   0  0  0  0  0  0  0  0  0  0  0  0
   13.4728  -16.5647   17.0446 C   0  0  0  0  0  0  0  0  0  0  0  0
   12.1324  -17.0341   16.4928 C   0  0  2  0  0  0  0  0  0  0  0  0
   11.6009  -15.8734   15.7573 N   0  0  0  0  0  0  0  0  0  0  0  0
   11.2451  -17.2874   17.6594 C   0  0  0  0  0  0  0  0  0  0  0  0
   10.7350  -16.3001   18.2997 O   0  0  0  0  0  0  0  0  0  0  0  0
   15.0229  -15.2382   15.6150 C   0  0  0  0  0  0  0  0  0  0  0  0
   15.9396  -15.1170   14.5897 C   0  0  0  0  0  0  0  0  0  0  0  0
   10.8993  -18.5723   18.1447 N   0  0  0  0  0  0  0  0  0  0  0  0
   10.1319  -18.7215   19.3894 C   0  0  1  0  0  0  0  0  0  0  0  0
    9.4018  -20.0474   19.3866 C   0  0  0  0  0  0  0  0  0  0  0  0
    8.4430  -20.0704   18.2612 C   0  0  0  0  0  0  0  0  0  0  0  0
    7.6387  -19.0297   17.8540 C   0  0  0  0  0  0  0  0  0  0  0  0
    6.8990  -19.4518   16.8139 N   0  0  0  0  0  0  0  0  0  0  0  0
    7.2205  -20.7331   16.5610 C   0  0  0  0  0  0  0  0  0  0  0  0
    8.1601  -21.1200   17.4360 N   0  0  0  0  0  0  0  0  0  0  0  0
   10.9686  -18.4829   20.5669 C   0  0  0  0  0  0  0  0  0  0  0  0
   12.1286  -18.9574   20.6538 O   0  0  0  0  0  0  0  0  0  0  0  0
   14.0988  -13.6353   18.2434 O   0  0  0  0  0  0  0  0  0  0  0  0
   13.5201  -14.1978   19.3793 C   0  0  0  0  0  0  0  0  0  0  0  0
   12.1582  -14.1501   19.5664 C   0  0  0  0  0  0  0  0  0  0  0  0
   11.5572  -14.6949   20.6730 C   0  0  0  0  0  0  0  0  0  0  0  0
   12.3161  -15.3115   21.6368 C   0  0  0  0  0  0  0  0  0  0  0  0
   11.6819  -15.8741   22.8157 C   0  0  0  0  0  0  0  0  0  0  0  0
   11.4721  -17.3861   22.7668 C   0  0  2  0  0  0  0  0  0  0  0  0
   10.5320  -17.7057   21.6829 N   0  0  0  0  0  0  0  0  0  0  0  0
   10.8878  -17.8606   24.0361 C   0  0  0  0  0  0  0  0  0  0  0  0
    9.7260  -18.3218   24.0379 O   0  0  0  0  0  0  0  0  0  0  0  0
   13.6788  -15.3727   21.4747 C   0  0  0  0  0  0  0  0  0  0  0  0
   14.2656  -14.8198   20.3562 C   0  0  0  0  0  0  0  0  0  0  0  0
   11.5854  -17.8162   25.2544 O   0  0  0  0  0  0  0  0  0  0  0  0
  1  2  1  0
  2  3  2  0
  3  4  1  0
  5  6  1  0
  5  4  2  0
  6  7  1  0
  7  8  1  6
  9 13  1  0
  9  7  1  0
 10  9  2  0
 11  5  1  0
 12 11  2  0
 12  2  1  0
 14 13  1  0
 14 21  1  0
 14 15  1  1
 16 17  2  0
 16 15  1  0
 18 17  1  0
 19 20  2  0
 19 18  1  0
 20 16  1  0
 21 22  2  0
 23 24  1  0
 24 25  2  0
 24 34  1  0
 25 26  1  0
 26 27  2  0
 27 28  1  0
 29 31  1  0
 29 28  1  1
 30 21  1  0
 30 29  1  0
 31 35  1  0
 32 31  2  0
 33 27  1  0
 34 33  2  0
M  END
$$$$
