YHY.pdb
     RDKit          3D

 35 37  0  0  1  0  0  0  0  0999 V2000
    7.3770  -13.4620   13.4946 O   0  0  0  0  0  0  0  0  0  0  0  0
    7.5298  -13.9295   14.7884 C   0  0  0  0  0  0  0  0  0  0  0  0
    8.7361  -13.8784   15.4540 C   0  0  0  0  0  0  0  0  0  0  0  0
    8.8717  -14.3529   16.7519 C   0  0  0  0  0  0  0  0  0  0  0  0
    7.8067  -14.8972   17.4369 C   0  0  0  0  0  0  0  0  0  0  0  0
    7.9137  -15.4275   18.8220 C   0  0  0  0  0  0  0  0  0  0  0  0
    9.3089  -15.1590   19.3722 C   0  0  2  0  0  0  0  0  0  0  0  0
   10.2260  -15.6737   18.3404 N   0  0  0  0  0  0  0  0  0  0  0  0
    9.4663  -15.9983   20.5902 C   0  0  0  0  0  0  0  0  0  0  0  0
    8.5967  -15.9287   21.5302 O   0  0  0  0  0  0  0  0  0  0  0  0
    6.5872  -14.9505   16.7680 C   0  0  0  0  0  0  0  0  0  0  0  0
    6.4586  -14.4775   15.4772 C   0  0  0  0  0  0  0  0  0  0  0  0
   10.5326  -16.9036   20.8124 N   0  0  0  0  0  0  0  0  0  0  0  0
   10.6697  -17.5982   22.1006 C   0  0  1  0  0  0  0  0  0  0  0  0
   11.8154  -18.5849   22.0326 C   0  0  0  0  0  0  0  0  0  0  0  0
   11.9393  -19.2744   23.3347 C   0  0  0  0  0  0  0  0  0  0  0  0
   12.7009  -18.8636   24.4056 C   0  0  0  0  0  0  0  0  0  0  0  0
   12.5632  -19.7674   25.3912 N   0  0  0  0  0  0  0  0  0  0  0  0
   11.7338  -20.7353   24.9619 C   0  0  0  0  0  0  0  0  0  0  0  0
   11.3473  -20.4451   23.7111 N   0  0  0  0  0  0  0  0  0  0  0  0
   10.7389  -16.6515   23.2152 C   0  0  0  0  0  0  0  0  0  0  0  0
   11.4397  -15.6108   23.1489 O   0  0  0  0  0  0  0  0  0  0  0  0
    5.8786  -11.4032   28.0398 O   0  0  0  0  0  0  0  0  0  0  0  0
    6.6313  -12.2085   27.1875 C   0  0  0  0  0  0  0  0  0  0  0  0
    7.9627  -12.4427   27.4419 C   0  0  0  0  0  0  0  0  0  0  0  0
    8.7313  -13.2312   26.6233 C   0  0  0  0  0  0  0  0  0  0  0  0
    8.1782  -13.8150   25.5105 C   0  0  0  0  0  0  0  0  0  0  0  0
    8.9953  -14.6365   24.6352 C   0  0  0  0  0  0  0  0  0  0  0  0
    9.8181  -15.7066   25.3496 C   0  0  2  0  0  0  0  0  0  0  0  0
   10.0256  -16.8411   24.4381 N   0  0  0  0  0  0  0  0  0  0  0  0
    9.0930  -16.1985   26.5370 C   0  0  0  0  0  0  0  0  0  0  0  0
    8.8778  -15.4161   27.4878 O   0  0  0  0  0  0  0  0  0  0  0  0
    6.8506  -13.5972   25.2331 C   0  0  0  0  0  0  0  0  0  0  0  0
    6.0934  -12.8020   26.0670 C   0  0  0  0  0  0  0  0  0  0  0  0
    8.6297  -17.5198   26.6480 O   0  0  0  0  0  0  0  0  0  0  0  0
  1  2  1  0
  2  3  2  0
  3  4  1  0
  5  6  1  0
  5  4  2  0
  6  7  1  0
  7  8  1  6
  9 13  1  0
  9  7  1  0
 10  9  2  0
 11  5  1  0
 12 11  2  0
 12  2  1  0
 14 13  1  0
 14 21  1  0
 14 15  1  6
 16 17  2  0
 16 15  1  0
 18 17  1  0
 19 20  2  0
 19 18  1  0
 20 16  1  0
 21 22  2  0
 23 24  1  0
 24 25  2  0
 24 34  1  0
 25 26  1  0
 26 27  2  0
 27 28  1  0
 29 31  1  0
 29 28  1  6
 30 21  1  0
 30 29  1  0
 31 35  1  0
 32 31  2  0
 33 27  1  0
 34 33  2  0
M  END
$$$$
