YHY.pdb
     RDKit          3D

 35 37  0  0  1  0  0  0  0  0999 V2000
    8.5445  -12.4901   18.0532 O   0  0  0  0  0  0  0  0  0  0  0  0
    8.0572  -13.3140   19.0530 C   0  0  0  0  0  0  0  0  0  0  0  0
    6.9805  -14.1529   18.8587 C   0  0  0  0  0  0  0  0  0  0  0  0
    6.5042  -14.9724   19.8735 C   0  0  0  0  0  0  0  0  0  0  0  0
    7.0854  -14.9866   21.1232 C   0  0  0  0  0  0  0  0  0  0  0  0
    6.5976  -15.8395   22.2394 C   0  0  0  0  0  0  0  0  0  0  0  0
    7.4925  -15.6569   23.4590 C   0  0  2  0  0  0  0  0  0  0  0  0
    8.1715  -14.3682   23.2381 N   0  0  0  0  0  0  0  0  0  0  0  0
    8.5181  -16.7333   23.4123 C   0  0  0  0  0  0  0  0  0  0  0  0
    8.1737  -17.9523   23.6122 O   0  0  0  0  0  0  0  0  0  0  0  0
    8.1726  -14.1408   21.3230 C   0  0  0  0  0  0  0  0  0  0  0  0
    8.6415  -13.3278   20.3102 C   0  0  0  0  0  0  0  0  0  0  0  0
    9.8952  -16.5234   23.1560 N   0  0  0  0  0  0  0  0  0  0  0  0
   10.8747  -17.5909   23.4039 C   0  0  1  0  0  0  0  0  0  0  0  0
   11.8572  -17.6633   22.2549 C   0  0  0  0  0  0  0  0  0  0  0  0
   11.1094  -17.7263   20.9809 C   0  0  0  0  0  0  0  0  0  0  0  0
    9.7515  -17.5625   20.8236 C   0  0  0  0  0  0  0  0  0  0  0  0
    9.4578  -17.7117   19.5203 N   0  0  0  0  0  0  0  0  0  0  0  0
   10.6003  -17.9662   18.8578 C   0  0  0  0  0  0  0  0  0  0  0  0
   11.6125  -17.9771   19.7372 N   0  0  0  0  0  0  0  0  0  0  0  0
   11.4856  -17.4607   24.7281 C   0  0  0  0  0  0  0  0  0  0  0  0
   12.0266  -16.3889   25.0979 O   0  0  0  0  0  0  0  0  0  0  0  0
    9.0261  -12.3708   28.5690 O   0  0  0  0  0  0  0  0  0  0  0  0
    9.2044  -13.7053   28.2103 C   0  0  0  0  0  0  0  0  0  0  0  0
    8.2558  -14.3601   27.4595 C   0  0  0  0  0  0  0  0  0  0  0  0
    8.4015  -15.6732   27.0891 C   0  0  0  0  0  0  0  0  0  0  0  0
    9.5184  -16.3765   27.4668 C   0  0  0  0  0  0  0  0  0  0  0  0
    9.6653  -17.7707   27.0885 C   0  0  0  0  0  0  0  0  0  0  0  0
   11.1057  -18.2780   27.0699 C   0  0  2  0  0  0  0  0  0  0  0  0
   11.5093  -18.5268   25.6784 N   0  0  0  0  0  0  0  0  0  0  0  0
   11.2076  -19.5496   27.8118 C   0  0  0  0  0  0  0  0  0  0  0  0
   10.8914  -20.6158   27.2410 O   0  0  0  0  0  0  0  0  0  0  0  0
   10.4811  -15.7465   28.2174 C   0  0  0  0  0  0  0  0  0  0  0  0
   10.3180  -14.4264   28.5805 C   0  0  0  0  0  0  0  0  0  0  0  0
   11.6478  -19.6161   29.1439 O   0  0  0  0  0  0  0  0  0  0  0  0
  1  2  1  0
  2  3  2  0
  3  4  1  0
  5  6  1  0
  5  4  2  0
  6  7  1  0
  7  8  1  6
  9 13  1  0
  9  7  1  0
 10  9  2  0
 11  5  1  0
 12 11  2  0
 12  2  1  0
 14 13  1  0
 14 21  1  0
 14 15  1  6
 16 17  2  0
 16 15  1  0
 18 17  1  0
 19 20  2  0
 19 18  1  0
 20 16  1  0
 21 22  2  0
 23 24  1  0
 24 25  2  0
 24 34  1  0
 25 26  1  0
 26 27  2  0
 27 28  1  0
 29 31  1  0
 29 28  1  6
 30 21  1  0
 30 29  1  0
 31 35  1  0
 32 31  2  0
 33 27  1  0
 34 33  2  0
M  END
$$$$
