YHY.pdb
     RDKit          3D

 35 37  0  0  1  0  0  0  0  0999 V2000
    4.8835   -9.8699   25.9096 O   0  0  0  0  0  0  0  0  0  0  0  0
    5.5863  -11.0623   25.9010 C   0  0  0  0  0  0  0  0  0  0  0  0
    5.6138  -11.9108   26.9873 C   0  0  0  0  0  0  0  0  0  0  0  0
    6.3251  -13.1031   26.9615 C   0  0  0  0  0  0  0  0  0  0  0  0
    7.0371  -13.4954   25.8485 C   0  0  0  0  0  0  0  0  0  0  0  0
    7.8213  -14.7573   25.7855 C   0  0  0  0  0  0  0  0  0  0  0  0
    7.0850  -15.7817   24.9310 C   0  0  2  0  0  0  0  0  0  0  0  0
    6.4432  -16.6880   25.8991 N   0  0  0  0  0  0  0  0  0  0  0  0
    8.1177  -16.5541   24.1897 C   0  0  0  0  0  0  0  0  0  0  0  0
    8.5558  -17.6593   24.6707 O   0  0  0  0  0  0  0  0  0  0  0  0
    7.0117  -12.6412   24.7498 C   0  0  0  0  0  0  0  0  0  0  0  0
    6.3030  -11.4567   24.7815 C   0  0  0  0  0  0  0  0  0  0  0  0
    8.6818  -16.1626   22.9510 N   0  0  0  0  0  0  0  0  0  0  0  0
    9.8432  -16.8740   22.3983 C   0  0  1  0  0  0  0  0  0  0  0  0
    9.9763  -16.5704   20.9214 C   0  0  0  0  0  0  0  0  0  0  0  0
   11.0760  -17.3818   20.3569 C   0  0  0  0  0  0  0  0  0  0  0  0
   12.3496  -16.9432   20.0722 C   0  0  0  0  0  0  0  0  0  0  0  0
   13.0434  -17.9723   19.5555 N   0  0  0  0  0  0  0  0  0  0  0  0
   12.2333  -19.0450   19.5091 C   0  0  0  0  0  0  0  0  0  0  0  0
   11.0329  -18.6970   19.9950 N   0  0  0  0  0  0  0  0  0  0  0  0
   11.0503  -16.6247   23.1884 C   0  0  0  0  0  0  0  0  0  0  0  0
   11.4921  -15.4614   23.3610 O   0  0  0  0  0  0  0  0  0  0  0  0
    9.4045  -14.9982   29.2955 O   0  0  0  0  0  0  0  0  0  0  0  0
   10.2872  -15.6907   28.4691 C   0  0  0  0  0  0  0  0  0  0  0  0
   10.0014  -16.9723   28.0593 C   0  0  0  0  0  0  0  0  0  0  0  0
   10.8487  -17.6809   27.2453 C   0  0  0  0  0  0  0  0  0  0  0  0
   12.0232  -17.1160   26.8135 C   0  0  0  0  0  0  0  0  0  0  0  0
   12.9276  -17.8715   25.9651 C   0  0  0  0  0  0  0  0  0  0  0  0
   13.0396  -17.3543   24.5325 C   0  0  2  0  0  0  0  0  0  0  0  0
   11.7993  -17.6704   23.8095 N   0  0  0  0  0  0  0  0  0  0  0  0
   14.1586  -18.0191   23.8369 C   0  0  0  0  0  0  0  0  0  0  0  0
   15.3265  -17.8280   24.2392 O   0  0  0  0  0  0  0  0  0  0  0  0
   12.3330  -15.8373   27.2085 C   0  0  0  0  0  0  0  0  0  0  0  0
   11.4696  -15.1401   28.0267 C   0  0  0  0  0  0  0  0  0  0  0  0
   13.9680  -18.8647   22.7318 O   0  0  0  0  0  0  0  0  0  0  0  0
  1  2  1  0
  2  3  2  0
  3  4  1  0
  5  6  1  0
  5  4  2  0
  6  7  1  0
  7  8  1  1
  9 13  1  0
  9  7  1  0
 10  9  2  0
 11  5  1  0
 12 11  2  0
 12  2  1  0
 14 13  1  0
 14 21  1  0
 14 15  1  6
 16 17  2  0
 16 15  1  0
 18 17  1  0
 19 20  2  0
 19 18  1  0
 20 16  1  0
 21 22  2  0
 23 24  1  0
 24 25  2  0
 24 34  1  0
 25 26  1  0
 26 27  2  0
 27 28  1  0
 29 31  1  0
 29 28  1  1
 30 21  1  0
 30 29  1  0
 31 35  1  0
 32 31  2  0
 33 27  1  0
 34 33  2  0
M  END
$$$$
