YHY.pdb
     RDKit          3D

 35 37  0  0  1  0  0  0  0  0999 V2000
    6.4708  -23.9632   17.0683 O   0  0  0  0  0  0  0  0  0  0  0  0
    7.6987  -23.4373   16.7057 C   0  0  0  0  0  0  0  0  0  0  0  0
    7.8181  -22.2519   16.0120 C   0  0  0  0  0  0  0  0  0  0  0  0
    9.0584  -21.7392   15.6555 C   0  0  0  0  0  0  0  0  0  0  0  0
   10.2292  -22.3907   15.9785 C   0  0  0  0  0  0  0  0  0  0  0  0
   11.5753  -21.8817   15.6042 C   0  0  0  0  0  0  0  0  0  0  0  0
   11.6919  -21.7946   14.0874 C   0  0  2  0  0  0  0  0  0  0  0  0
   11.8066  -23.1929   13.6378 N   0  0  0  0  0  0  0  0  0  0  0  0
   12.9761  -21.1063   13.7877 C   0  0  0  0  0  0  0  0  0  0  0  0
   14.0679  -21.7782   13.7549 O   0  0  0  0  0  0  0  0  0  0  0  0
   10.1125  -23.5880   16.6787 C   0  0  0  0  0  0  0  0  0  0  0  0
    8.8764  -24.0931   17.0302 C   0  0  0  0  0  0  0  0  0  0  0  0
   13.1051  -19.7207   13.5241 N   0  0  0  0  0  0  0  0  0  0  0  0
   14.4275  -19.1218   13.2938 C   0  0  1  0  0  0  0  0  0  0  0  0
   14.2766  -17.8189   12.5385 C   0  0  0  0  0  0  0  0  0  0  0  0
   13.6882  -18.0939   11.2101 C   0  0  0  0  0  0  0  0  0  0  0  0
   13.5198  -19.3329   10.6338 C   0  0  0  0  0  0  0  0  0  0  0  0
   12.9711  -19.1606    9.4187 N   0  0  0  0  0  0  0  0  0  0  0  0
   12.7930  -17.8423    9.2203 C   0  0  0  0  0  0  0  0  0  0  0  0
   13.2257  -17.1832   10.3049 N   0  0  0  0  0  0  0  0  0  0  0  0
   15.1966  -19.0269   14.5359 C   0  0  0  0  0  0  0  0  0  0  0  0
   14.7543  -18.4070   15.5351 O   0  0  0  0  0  0  0  0  0  0  0  0
   20.6422  -21.1138   21.1780 O   0  0  0  0  0  0  0  0  0  0  0  0
   19.9266  -21.0557   19.9839 C   0  0  0  0  0  0  0  0  0  0  0  0
   18.5861  -21.3632   19.9566 C   0  0  0  0  0  0  0  0  0  0  0  0
   17.8528  -21.3150   18.7979 C   0  0  0  0  0  0  0  0  0  0  0  0
   18.4520  -20.9522   17.6172 C   0  0  0  0  0  0  0  0  0  0  0  0
   17.6800  -20.9166   16.3878 C   0  0  0  0  0  0  0  0  0  0  0  0
   17.1795  -19.5299   15.9890 C   0  0  2  0  0  0  0  0  0  0  0  0
   16.4845  -19.6233   14.6971 N   0  0  0  0  0  0  0  0  0  0  0  0
   18.3173  -18.6033   15.8322 C   0  0  0  0  0  0  0  0  0  0  0  0
   19.0509  -18.3663   16.8161 O   0  0  0  0  0  0  0  0  0  0  0  0
   19.7899  -20.6404   17.6164 C   0  0  0  0  0  0  0  0  0  0  0  0
   20.5111  -20.6942   18.7902 C   0  0  0  0  0  0  0  0  0  0  0  0
   18.6154  -17.9692   14.6149 O   0  0  0  0  0  0  0  0  0  0  0  0
  1  2  1  0
  2  3  2  0
  3  4  1  0
  5  6  1  0
  5  4  2  0
  6  7  1  0
  7  8  1  6
  9 13  1  0
  9  7  1  0
 10  9  2  0
 11  5  1  0
 12 11  2  0
 12  2  1  0
 14 13  1  0
 14 21  1  0
 14 15  1  1
 16 17  2  0
 16 15  1  0
 18 17  1  0
 19 20  2  0
 19 18  1  0
 20 16  1  0
 21 22  2  0
 23 24  1  0
 24 25  2  0
 24 34  1  0
 25 26  1  0
 26 27  2  0
 27 28  1  0
 29 31  1  0
 29 28  1  6
 30 21  1  0
 30 29  1  0
 31 35  1  0
 32 31  2  0
 33 27  1  0
 34 33  2  0
M  END
$$$$
