KCA.pdb
     RDKit          3D

 21 20  0  0  1  0  0  0  0  0999 V2000
   22.9409  -16.8567  -16.5214 N   0  0  0  0  0  0  0  0  0  0  0  0
   22.0639  -15.8061  -16.9311 C   0  0  1  0  0  0  0  0  0  0  0  0
   20.6114  -16.1301  -16.9215 C   0  0  0  0  0  0  0  0  0  0  0  0
   20.2504  -17.5430  -17.2123 C   0  0  0  0  0  0  0  0  0  0  0  0
   18.7968  -17.8719  -17.1404 C   0  0  0  0  0  0  0  0  0  0  0  0
   18.6256  -19.3817  -17.3710 C   0  0  0  0  0  0  0  0  0  0  0  0
   17.2464  -19.7578  -17.1575 N   0  0  0  0  0  0  0  0  0  0  0  0
   22.3750  -14.5682  -16.1500 C   0  0  0  0  0  0  0  0  0  0  0  0
   21.5182  -14.0597  -15.3792 O   0  0  0  0  0  0  0  0  0  0  0  0
   23.6326  -13.9102  -16.2340 N   0  0  0  0  0  0  0  0  0  0  0  0
   23.9614  -12.7614  -15.4500 C   0  0  1  0  0  0  0  0  0  0  0  0
   25.4450  -12.5871  -15.2331 C   0  0  0  0  0  0  0  0  0  0  0  0
   26.2000  -14.0320  -14.4844 S   0  0  0  0  0  0  0  0  0  0  0  0
   23.3213  -11.5442  -15.9856 C   0  0  0  0  0  0  0  0  0  0  0  0
   23.0977  -11.4734  -17.2215 O   0  0  0  0  0  0  0  0  0  0  0  0
   20.8419   -9.7206  -16.0551 C   0  0  0  0  0  0  0  0  0  0  0  0
   22.2630   -9.2743  -15.6854 C   0  0  2  0  0  0  0  0  0  0  0  0
   22.9388  -10.4408  -15.1926 N   0  0  0  0  0  0  0  0  0  0  0  0
   22.1253   -8.2158  -14.6658 C   0  0  0  0  0  0  0  0  0  0  0  0
   22.2602   -8.5261  -13.4581 O   0  0  0  0  0  0  0  0  0  0  0  0
   21.8545   -6.8950  -14.9713 O   0  0  0  0  0  0  0  0  0  0  0  0
  2  1  1  1
  2  8  1  0
  3  2  1  0
  3  4  1  0
  5  4  1  0
  6  5  1  0
  7  6  1  0
  8  9  2  0
 10 11  1  0
 10  8  1  0
 12 13  1  0
 11 12  1  6
 14 11  1  0
 14 15  2  0
 17 16  1  1
 17 18  1  0
 17 19  1  0
 18 14  1  0
 19 20  2  0
 19 21  1  0
M  END
$$$$
