KCA.pdb
     RDKit          3D

 21 20  0  0  1  0  0  0  0  0999 V2000
   15.8374  -10.7414  -16.4702 N   0  0  0  0  0  0  0  0  0  0  0  0
   17.1777  -10.6808  -15.9798 C   0  0  1  0  0  0  0  0  0  0  0  0
   18.2513  -10.8071  -17.0027 C   0  0  0  0  0  0  0  0  0  0  0  0
   18.6468  -12.1916  -17.3740 C   0  0  0  0  0  0  0  0  0  0  0  0
   17.5433  -13.1949  -17.4168 C   0  0  0  0  0  0  0  0  0  0  0  0
   18.1298  -14.5480  -17.8493 C   0  0  0  0  0  0  0  0  0  0  0  0
   17.0990  -15.5609  -17.8236 N   0  0  0  0  0  0  0  0  0  0  0  0
   17.3407   -9.4576  -15.1333 C   0  0  0  0  0  0  0  0  0  0  0  0
   16.8186   -8.3631  -15.4743 O   0  0  0  0  0  0  0  0  0  0  0  0
   18.0809   -9.4640  -13.9194 N   0  0  0  0  0  0  0  0  0  0  0  0
   18.2299   -8.3062  -13.0950 C   0  0  1  0  0  0  0  0  0  0  0  0
   18.0045   -8.5807  -11.6278 C   0  0  0  0  0  0  0  0  0  0  0  0
   18.6723   -7.2864  -10.5805 S   0  0  0  0  0  0  0  0  0  0  0  0
   19.5137   -7.6252  -13.3521 C   0  0  0  0  0  0  0  0  0  0  0  0
   20.5827   -8.2637  -13.1728 O   0  0  0  0  0  0  0  0  0  0  0  0
   20.5192   -4.3266  -14.7957 C   0  0  0  0  0  0  0  0  0  0  0  0
   20.8611   -5.5932  -13.9992 C   0  0  2  0  0  0  0  0  0  0  0  0
   19.6224   -6.2880  -13.7915 N   0  0  0  0  0  0  0  0  0  0  0  0
   21.4888   -5.1478  -12.7396 C   0  0  0  0  0  0  0  0  0  0  0  0
   22.6589   -4.6983  -12.7795 O   0  0  0  0  0  0  0  0  0  0  0  0
   20.8537   -5.1997  -11.5127 O   0  0  0  0  0  0  0  0  0  0  0  0
  2  1  1  6
  2  8  1  0
  3  2  1  0
  3  4  1  0
  5  4  1  0
  6  5  1  0
  7  6  1  0
  8  9  2  0
 10 11  1  0
 10  8  1  0
 12 13  1  0
 11 12  1  1
 14 11  1  0
 14 15  2  0
 17 16  1  6
 17 18  1  0
 17 19  1  0
 18 14  1  0
 19 20  2  0
 19 21  1  0
M  END
$$$$
