KCA.pdb
     RDKit          3D

 21 20  0  0  1  0  0  0  0  0999 V2000
   22.9109  -19.7755  -18.0080 N   0  0  0  0  0  0  0  0  0  0  0  0
   22.8450  -19.2173  -16.6947 C   0  0  1  0  0  0  0  0  0  0  0  0
   21.5254  -19.3113  -16.0131 C   0  0  0  0  0  0  0  0  0  0  0  0
   20.4414  -18.4504  -16.5563 C   0  0  0  0  0  0  0  0  0  0  0  0
   20.8038  -17.0240  -16.8017 C   0  0  0  0  0  0  0  0  0  0  0  0
   19.5569  -16.1562  -16.5689 C   0  0  0  0  0  0  0  0  0  0  0  0
   19.4241  -15.1908  -17.6364 N   0  0  0  0  0  0  0  0  0  0  0  0
   23.9555  -19.7769  -15.8623 C   0  0  0  0  0  0  0  0  0  0  0  0
   24.0126  -21.0092  -15.6076 O   0  0  0  0  0  0  0  0  0  0  0  0
   24.9886  -18.9623  -15.3230 N   0  0  0  0  0  0  0  0  0  0  0  0
   26.0070  -19.4710  -14.4591 C   0  0  1  0  0  0  0  0  0  0  0  0
   27.3011  -18.6977  -14.5361 C   0  0  0  0  0  0  0  0  0  0  0  0
   27.0528  -16.9308  -14.3499 S   0  0  0  0  0  0  0  0  0  0  0  0
   25.5153  -19.6143  -13.0750 C   0  0  0  0  0  0  0  0  0  0  0  0
   24.9510  -18.6312  -12.5297 O   0  0  0  0  0  0  0  0  0  0  0  0
   25.3070  -22.3929  -10.5808 C   0  0  0  0  0  0  0  0  0  0  0  0
   25.3733  -20.8944  -10.9061 C   0  0  2  0  0  0  0  0  0  0  0  0
   25.6382  -20.7966  -12.3134 N   0  0  0  0  0  0  0  0  0  0  0  0
   26.4539  -20.3258  -10.0767 C   0  0  0  0  0  0  0  0  0  0  0  0
   26.1813  -19.9533   -8.9106 O   0  0  0  0  0  0  0  0  0  0  0  0
   27.7561  -20.1810  -10.5178 O   0  0  0  0  0  0  0  0  0  0  0  0
  2  1  1  6
  2  8  1  0
  3  2  1  0
  3  4  1  0
  5  4  1  0
  6  5  1  0
  7  6  1  0
  8  9  2  0
 10 11  1  0
 10  8  1  0
 12 13  1  0
 11 12  1  1
 14 11  1  0
 14 15  2  0
 17 16  1  1
 17 18  1  0
 17 19  1  0
 18 14  1  0
 19 20  2  0
 19 21  1  0
M  END
$$$$
