KCA.pdb
     RDKit          3D

 21 20  0  0  1  0  0  0  0  0999 V2000
   25.9886  -18.0853  -15.3792 N   0  0  0  0  0  0  0  0  0  0  0  0
   26.1873  -19.4399  -15.7870 C   0  0  1  0  0  0  0  0  0  0  0  0
   27.4716  -19.7286  -16.4812 C   0  0  0  0  0  0  0  0  0  0  0  0
   27.6067  -19.1967  -17.8633 C   0  0  0  0  0  0  0  0  0  0  0  0
   27.9493  -17.7487  -17.9733 C   0  0  0  0  0  0  0  0  0  0  0  0
   28.0241  -17.3762  -19.4625 C   0  0  0  0  0  0  0  0  0  0  0  0
   28.3574  -15.9768  -19.6025 N   0  0  0  0  0  0  0  0  0  0  0  0
   25.9557  -20.3476  -14.6202 C   0  0  0  0  0  0  0  0  0  0  0  0
   26.0358  -21.5980  -14.7500 O   0  0  0  0  0  0  0  0  0  0  0  0
   25.6381  -19.8567  -13.3241 N   0  0  0  0  0  0  0  0  0  0  0  0
   25.3378  -20.7145  -12.2212 C   0  0  1  0  0  0  0  0  0  0  0  0
   26.2487  -20.5089  -11.0352 C   0  0  0  0  0  0  0  0  0  0  0  0
   25.4739  -20.9844   -9.4887 S   0  0  0  0  0  0  0  0  0  0  0  0
   23.9095  -20.6410  -11.8567 C   0  0  0  0  0  0  0  0  0  0  0  0
   23.3050  -19.5473  -12.0007 O   0  0  0  0  0  0  0  0  0  0  0  0
   21.6911  -20.6924   -9.8017 C   0  0  0  0  0  0  0  0  0  0  0  0
   21.7834  -21.6748  -10.9772 C   0  0  2  0  0  0  0  0  0  0  0  0
   23.1681  -21.7306  -11.3510 N   0  0  0  0  0  0  0  0  0  0  0  0
   20.9198  -21.1399  -12.0482 C   0  0  0  0  0  0  0  0  0  0  0  0
   19.6884  -21.0413  -11.8318 O   0  0  0  0  0  0  0  0  0  0  0  0
   21.3971  -20.7400  -13.2825 O   0  0  0  0  0  0  0  0  0  0  0  0
  2  1  1  1
  2  8  1  0
  3  2  1  0
  3  4  1  0
  5  4  1  0
  6  5  1  0
  7  6  1  0
  8  9  2  0
 10 11  1  0
 10  8  1  0
 12 13  1  0
 11 12  1  1
 14 11  1  0
 14 15  2  0
 17 16  1  1
 17 18  1  0
 17 19  1  0
 18 14  1  0
 19 20  2  0
 19 21  1  0
M  END
$$$$
