KCA.pdb
     RDKit          3D

 21 20  0  0  1  0  0  0  0  0999 V2000
   23.4072  -13.1980  -17.6638 N   0  0  0  0  0  0  0  0  0  0  0  0
   23.1712  -12.5476  -16.4140 C   0  0  1  0  0  0  0  0  0  0  0  0
   24.2817  -12.6149  -15.4255 C   0  0  0  0  0  0  0  0  0  0  0  0
   25.3759  -13.5749  -15.7294 C   0  0  0  0  0  0  0  0  0  0  0  0
   25.0881  -15.0074  -15.4271 C   0  0  0  0  0  0  0  0  0  0  0  0
   26.2894  -15.8529  -15.8787 C   0  0  0  0  0  0  0  0  0  0  0  0
   26.0559  -17.2445  -15.5658 N   0  0  0  0  0  0  0  0  0  0  0  0
   22.7175  -11.1437  -16.6640 C   0  0  0  0  0  0  0  0  0  0  0  0
   23.1112  -10.5098  -17.6789 O   0  0  0  0  0  0  0  0  0  0  0  0
   21.8329  -10.4608  -15.7850 N   0  0  0  0  0  0  0  0  0  0  0  0
   21.2487   -9.1953  -16.1005 C   0  0  1  0  0  0  0  0  0  0  0  0
   19.7397   -9.2208  -16.1283 C   0  0  0  0  0  0  0  0  0  0  0  0
   19.0976  -10.5796  -17.1078 S   0  0  0  0  0  0  0  0  0  0  0  0
   21.7804   -8.1267  -15.2325 C   0  0  0  0  0  0  0  0  0  0  0  0
   21.8515   -8.3341  -13.9938 O   0  0  0  0  0  0  0  0  0  0  0  0
   23.2175   -4.7157  -15.8330 C   0  0  0  0  0  0  0  0  0  0  0  0
   22.7543   -5.8265  -14.8806 C   0  0  2  0  0  0  0  0  0  0  0  0
   22.2199   -6.8717  -15.7066 N   0  0  0  0  0  0  0  0  0  0  0  0
   21.7443   -5.2272  -13.9864 C   0  0  0  0  0  0  0  0  0  0  0  0
   20.5323   -5.3464  -14.2863 O   0  0  0  0  0  0  0  0  0  0  0  0
   22.0634   -4.5384  -12.8310 O   0  0  0  0  0  0  0  0  0  0  0  0
  2  1  1  6
  2  8  1  0
  3  2  1  0
  3  4  1  0
  5  4  1  0
  6  5  1  0
  7  6  1  0
  8  9  2  0
 10 11  1  0
 10  8  1  0
 12 13  1  0
 11 12  1  1
 14 11  1  0
 14 15  2  0
 17 16  1  6
 17 18  1  0
 17 19  1  0
 18 14  1  0
 19 20  2  0
 19 21  1  0
M  END
$$$$
