KCA.pdb
     RDKit          3D

 21 20  0  0  1  0  0  0  0  0999 V2000
   30.4429   -9.5335  -18.0133 N   0  0  0  0  0  0  0  0  0  0  0  0
   31.7726   -9.1009  -18.3061 C   0  0  1  0  0  0  0  0  0  0  0  0
   31.9079   -8.1202  -19.4173 C   0  0  0  0  0  0  0  0  0  0  0  0
   31.7924   -8.6670  -20.7953 C   0  0  0  0  0  0  0  0  0  0  0  0
   32.9596   -8.4238  -21.6924 C   0  0  0  0  0  0  0  0  0  0  0  0
   32.6334   -8.9913  -23.0829 C   0  0  0  0  0  0  0  0  0  0  0  0
   32.9221  -10.4072  -23.1156 N   0  0  0  0  0  0  0  0  0  0  0  0
   32.4279   -8.6269  -17.0471 C   0  0  0  0  0  0  0  0  0  0  0  0
   31.7427   -8.1514  -16.1030 O   0  0  0  0  0  0  0  0  0  0  0  0
   33.8349   -8.6864  -16.8513 N   0  0  0  0  0  0  0  0  0  0  0  0
   34.4621   -8.3373  -15.6156 C   0  0  1  0  0  0  0  0  0  0  0  0
   35.2804   -9.4573  -15.0201 C   0  0  0  0  0  0  0  0  0  0  0  0
   34.2776  -10.8811  -14.5893 S   0  0  0  0  0  0  0  0  0  0  0  0
   35.2271   -7.0810  -15.7374 C   0  0  0  0  0  0  0  0  0  0  0  0
   36.0123   -6.9440  -16.7107 O   0  0  0  0  0  0  0  0  0  0  0  0
   35.2960   -3.8434  -13.8534 C   0  0  0  0  0  0  0  0  0  0  0  0
   35.8700   -4.7815  -14.9238 C   0  0  2  0  0  0  0  0  0  0  0  0
   35.1345   -6.0100  -14.8225 N   0  0  0  0  0  0  0  0  0  0  0  0
   37.3057   -4.9444  -14.6220 C   0  0  0  0  0  0  0  0  0  0  0  0
   37.6663   -5.9339  -13.9409 O   0  0  0  0  0  0  0  0  0  0  0  0
   38.2788   -4.0613  -15.0513 O   0  0  0  0  0  0  0  0  0  0  0  0
  2  1  1  1
  2  8  1  0
  3  2  1  0
  3  4  1  0
  5  4  1  0
  6  5  1  0
  7  6  1  0
  8  9  2  0
 10 11  1  0
 10  8  1  0
 12 13  1  0
 11 12  1  6
 14 11  1  0
 14 15  2  0
 17 16  1  1
 17 18  1  0
 17 19  1  0
 18 14  1  0
 19 20  2  0
 19 21  1  0
M  END
$$$$
