KCA.pdb
     RDKit          3D

 21 20  0  0  1  0  0  0  0  0999 V2000
   22.8325  -11.6870  -18.2752 N   0  0  0  0  0  0  0  0  0  0  0  0
   22.1344  -11.0635  -19.3543 C   0  0  1  0  0  0  0  0  0  0  0  0
   21.3413  -11.9713  -20.2271 C   0  0  0  0  0  0  0  0  0  0  0  0
   22.0349  -13.1970  -20.7045 C   0  0  0  0  0  0  0  0  0  0  0  0
   22.0507  -14.3480  -19.7550 C   0  0  0  0  0  0  0  0  0  0  0  0
   22.7280  -15.5419  -20.4461 C   0  0  0  0  0  0  0  0  0  0  0  0
   22.7825  -16.6672  -19.5406 N   0  0  0  0  0  0  0  0  0  0  0  0
   21.3172   -9.9272  -18.8250 C   0  0  0  0  0  0  0  0  0  0  0  0
   20.6294   -9.2113  -19.6004 O   0  0  0  0  0  0  0  0  0  0  0  0
   21.2734   -9.5994  -17.4421 N   0  0  0  0  0  0  0  0  0  0  0  0
   20.5562   -8.4726  -16.9339 C   0  0  1  0  0  0  0  0  0  0  0  0
   19.2588   -8.8424  -16.2565 C   0  0  0  0  0  0  0  0  0  0  0  0
   18.6086   -7.5065  -15.2511 S   0  0  0  0  0  0  0  0  0  0  0  0
   21.4167   -7.6268  -16.0841 C   0  0  0  0  0  0  0  0  0  0  0  0
   21.9441   -8.1363  -15.0620 O   0  0  0  0  0  0  0  0  0  0  0  0
   22.4637   -4.0256  -16.1512 C   0  0  0  0  0  0  0  0  0  0  0  0
   22.5249   -5.4288  -15.5327 C   0  0  2  0  0  0  0  0  0  0  0  0
   21.6904   -6.2669  -16.3461 N   0  0  0  0  0  0  0  0  0  0  0  0
   22.0366   -5.3045  -14.1452 C   0  0  0  0  0  0  0  0  0  0  0  0
   22.7953   -4.7946  -13.2865 O   0  0  0  0  0  0  0  0  0  0  0  0
   20.7827   -5.7216  -13.7393 O   0  0  0  0  0  0  0  0  0  0  0  0
  2  1  1  1
  2  8  1  0
  3  2  1  0
  3  4  1  0
  5  4  1  0
  6  5  1  0
  7  6  1  0
  8  9  2  0
 10 11  1  0
 10  8  1  0
 12 13  1  0
 11 12  1  1
 14 11  1  0
 14 15  2  0
 17 16  1  6
 17 18  1  0
 17 19  1  0
 18 14  1  0
 19 20  2  0
 19 21  1  0
M  END
$$$$
