KCA.pdb
     RDKit          3D

 21 20  0  0  1  0  0  0  0  0999 V2000
   19.5960  -11.7420  -16.0302 N   0  0  0  0  0  0  0  0  0  0  0  0
   18.6802  -11.0393  -16.8718 C   0  0  1  0  0  0  0  0  0  0  0  0
   17.4192  -11.7569  -17.2032 C   0  0  0  0  0  0  0  0  0  0  0  0
   17.4335  -13.2323  -17.0182 C   0  0  0  0  0  0  0  0  0  0  0  0
   16.8167  -14.0324  -18.1162 C   0  0  0  0  0  0  0  0  0  0  0  0
   16.9319  -15.5226  -17.7589 C   0  0  0  0  0  0  0  0  0  0  0  0
   16.2384  -16.3193  -18.7455 N   0  0  0  0  0  0  0  0  0  0  0  0
   18.4268   -9.6793  -16.3014 C   0  0  0  0  0  0  0  0  0  0  0  0
   17.6221   -8.8861  -16.8583 O   0  0  0  0  0  0  0  0  0  0  0  0
   19.0693   -9.2165  -15.1205 N   0  0  0  0  0  0  0  0  0  0  0  0
   18.8532   -7.9113  -14.5799 C   0  0  1  0  0  0  0  0  0  0  0  0
   18.2668   -7.9270  -13.1890 C   0  0  0  0  0  0  0  0  0  0  0  0
   19.4240   -8.5484  -11.9671 S   0  0  0  0  0  0  0  0  0  0  0  0
   20.0718   -7.0836  -14.6706 C   0  0  0  0  0  0  0  0  0  0  0  0
   21.1929   -7.6481  -14.5868 O   0  0  0  0  0  0  0  0  0  0  0  0
   20.7443   -3.4338  -15.2138 C   0  0  0  0  0  0  0  0  0  0  0  0
   21.2356   -4.8623  -14.9425 C   0  0  2  0  0  0  0  0  0  0  0  0
   20.0619   -5.6831  -14.8472 N   0  0  0  0  0  0  0  0  0  0  0  0
   22.0082   -4.8155  -13.6856 C   0  0  0  0  0  0  0  0  0  0  0  0
   21.4313   -5.1250  -12.6159 O   0  0  0  0  0  0  0  0  0  0  0  0
   23.3392   -4.4475  -13.6235 O   0  0  0  0  0  0  0  0  0  0  0  0
  2  1  1  1
  2  8  1  0
  3  2  1  0
  3  4  1  0
  5  4  1  0
  6  5  1  0
  7  6  1  0
  8  9  2  0
 10 11  1  0
 10  8  1  0
 12 13  1  0
 11 12  1  1
 14 11  1  0
 14 15  2  0
 17 16  1  1
 17 18  1  0
 17 19  1  0
 18 14  1  0
 19 20  2  0
 19 21  1  0
M  END
$$$$
