KCA.pdb
     RDKit          3D

 21 20  0  0  1  0  0  0  0  0999 V2000
   28.7817  -29.1093  -17.4007 N   0  0  0  0  0  0  0  0  0  0  0  0
   27.3921  -29.3805  -17.5911 C   0  0  1  0  0  0  0  0  0  0  0  0
   26.8445  -30.5364  -16.8303 C   0  0  0  0  0  0  0  0  0  0  0  0
   27.4037  -31.8719  -17.1696 C   0  0  0  0  0  0  0  0  0  0  0  0
   28.3720  -31.9034  -18.3044 C   0  0  0  0  0  0  0  0  0  0  0  0
   28.7031  -33.3698  -18.6234 C   0  0  0  0  0  0  0  0  0  0  0  0
   29.6352  -33.4341  -19.7262 N   0  0  0  0  0  0  0  0  0  0  0  0
   26.6070  -28.1272  -17.3632 C   0  0  0  0  0  0  0  0  0  0  0  0
   25.3475  -28.1478  -17.3544 O   0  0  0  0  0  0  0  0  0  0  0  0
   27.2290  -26.8669  -17.1478 N   0  0  0  0  0  0  0  0  0  0  0  0
   26.4947  -25.6836  -16.8267 C   0  0  1  0  0  0  0  0  0  0  0  0
   27.2523  -24.7305  -15.9343 C   0  0  0  0  0  0  0  0  0  0  0  0
   26.2796  -23.2893  -15.4928 S   0  0  0  0  0  0  0  0  0  0  0  0
   25.9743  -25.0278  -18.0420 C   0  0  0  0  0  0  0  0  0  0  0  0
   26.7554  -24.8443  -19.0109 O   0  0  0  0  0  0  0  0  0  0  0  0
   23.2795  -24.8259  -20.1266 C   0  0  0  0  0  0  0  0  0  0  0  0
   24.1441  -23.8498  -19.3172 C   0  0  2  0  0  0  0  0  0  0  0  0
   24.6413  -24.5874  -18.1906 N   0  0  0  0  0  0  0  0  0  0  0  0
   23.2685  -22.7269  -18.9282 C   0  0  0  0  0  0  0  0  0  0  0  0
   22.4164  -22.9158  -18.0276 O   0  0  0  0  0  0  0  0  0  0  0  0
   23.3373  -21.4727  -19.5055 O   0  0  0  0  0  0  0  0  0  0  0  0
  2  1  1  1
  2  8  1  0
  3  2  1  0
  3  4  1  0
  5  4  1  0
  6  5  1  0
  7  6  1  0
  8  9  2  0
 10 11  1  0
 10  8  1  0
 12 13  1  0
 11 12  1  6
 14 11  1  0
 14 15  2  0
 17 16  1  6
 17 18  1  0
 17 19  1  0
 18 14  1  0
 19 20  2  0
 19 21  1  0
M  END
$$$$
