KCA.pdb
     RDKit          3D

 21 20  0  0  1  0  0  0  0  0999 V2000
   21.9897  -31.0435  -11.7242 N   0  0  0  0  0  0  0  0  0  0  0  0
   20.6656  -30.5133  -11.6439 C   0  0  1  0  0  0  0  0  0  0  0  0
   19.7024  -31.2908  -10.8177 C   0  0  0  0  0  0  0  0  0  0  0  0
   20.2930  -32.2221   -9.8201 C   0  0  0  0  0  0  0  0  0  0  0  0
   19.8089  -32.0666   -8.4174 C   0  0  0  0  0  0  0  0  0  0  0  0
   18.3819  -32.6299   -8.3278 C   0  0  0  0  0  0  0  0  0  0  0  0
   17.9390  -32.6291   -6.9520 N   0  0  0  0  0  0  0  0  0  0  0  0
   20.7318  -29.0750  -11.2364 C   0  0  0  0  0  0  0  0  0  0  0  0
   21.8162  -28.5633  -10.8503 O   0  0  0  0  0  0  0  0  0  0  0  0
   19.5942  -28.2225  -11.2625 N   0  0  0  0  0  0  0  0  0  0  0  0
   19.6642  -26.8255  -10.9694 C   0  0  1  0  0  0  0  0  0  0  0  0
   19.6612  -25.9527  -12.2010 C   0  0  0  0  0  0  0  0  0  0  0  0
   19.3589  -24.2272  -11.8143 S   0  0  0  0  0  0  0  0  0  0  0  0
   18.6312  -26.4290   -9.9927 C   0  0  0  0  0  0  0  0  0  0  0  0
   17.4301  -26.7144  -10.2346 O   0  0  0  0  0  0  0  0  0  0  0  0
   18.6861  -24.7450   -6.6416 C   0  0  0  0  0  0  0  0  0  0  0  0
   17.9230  -25.3973   -7.8026 C   0  0  2  0  0  0  0  0  0  0  0  0
   18.9056  -25.7422   -8.7904 N   0  0  0  0  0  0  0  0  0  0  0  0
   16.9480  -24.3997   -8.2853 C   0  0  0  0  0  0  0  0  0  0  0  0
   17.3020  -23.6036   -9.1875 O   0  0  0  0  0  0  0  0  0  0  0  0
   15.6598  -24.2950   -7.7947 O   0  0  0  0  0  0  0  0  0  0  0  0
  2  1  1  1
  2  8  1  0
  3  2  1  0
  3  4  1  0
  5  4  1  0
  6  5  1  0
  7  6  1  0
  8  9  2  0
 10 11  1  0
 10  8  1  0
 12 13  1  0
 11 12  1  6
 14 11  1  0
 14 15  2  0
 17 16  1  1
 17 18  1  0
 17 19  1  0
 18 14  1  0
 19 20  2  0
 19 21  1  0
M  END
$$$$
