KCA.pdb
     RDKit          3D

 21 20  0  0  1  0  0  0  0  0999 V2000
   19.3766  -11.1809  -17.8034 N   0  0  0  0  0  0  0  0  0  0  0  0
   18.7172  -10.7206  -16.6227 C   0  0  1  0  0  0  0  0  0  0  0  0
   18.0060  -11.7586  -15.8280 C   0  0  0  0  0  0  0  0  0  0  0  0
   16.9690  -12.5436  -16.5490 C   0  0  0  0  0  0  0  0  0  0  0  0
   16.2756  -13.5956  -15.7496 C   0  0  0  0  0  0  0  0  0  0  0  0
   15.2971  -14.3425  -16.6697 C   0  0  0  0  0  0  0  0  0  0  0  0
   14.5788  -15.3433  -15.9136 N   0  0  0  0  0  0  0  0  0  0  0  0
   19.6804   -9.9310  -15.7932 C   0  0  0  0  0  0  0  0  0  0  0  0
   19.3639   -9.5337  -14.6405 O   0  0  0  0  0  0  0  0  0  0  0  0
   20.9824   -9.5922  -16.2531 N   0  0  0  0  0  0  0  0  0  0  0  0
   21.9263   -8.8769  -15.4532 C   0  0  1  0  0  0  0  0  0  0  0  0
   23.3595   -9.2666  -15.7231 C   0  0  0  0  0  0  0  0  0  0  0  0
   23.8480  -10.7387  -14.8217 S   0  0  0  0  0  0  0  0  0  0  0  0
   21.7104   -7.4196  -15.5416 C   0  0  0  0  0  0  0  0  0  0  0  0
   21.5257   -6.9040  -16.6741 O   0  0  0  0  0  0  0  0  0  0  0  0
   21.2020   -4.6815  -13.0462 C   0  0  0  0  0  0  0  0  0  0  0  0
   21.4579   -5.1417  -14.4878 C   0  0  2  0  0  0  0  0  0  0  0  0
   21.6973   -6.5556  -14.4253 N   0  0  0  0  0  0  0  0  0  0  0  0
   22.6252   -4.3820  -14.9767 C   0  0  0  0  0  0  0  0  0  0  0  0
   23.7614   -4.9055  -14.8865 O   0  0  0  0  0  0  0  0  0  0  0  0
   22.5336   -3.1189  -15.5310 O   0  0  0  0  0  0  0  0  0  0  0  0
  2  1  1  6
  2  8  1  0
  3  2  1  0
  3  4  1  0
  5  4  1  0
  6  5  1  0
  7  6  1  0
  8  9  2  0
 10 11  1  0
 10  8  1  0
 12 13  1  0
 11 12  1  6
 14 11  1  0
 14 15  2  0
 17 16  1  1
 17 18  1  0
 17 19  1  0
 18 14  1  0
 19 20  2  0
 19 21  1  0
M  END
$$$$
