KCA.pdb
     RDKit          3D

 21 20  0  0  1  0  0  0  0  0999 V2000
   27.1616  -20.5717  -13.7932 N   0  0  0  0  0  0  0  0  0  0  0  0
   27.1739  -19.7397  -14.9544 C   0  0  1  0  0  0  0  0  0  0  0  0
   26.7644  -20.3931  -16.2273 C   0  0  0  0  0  0  0  0  0  0  0  0
   26.9095  -21.8719  -16.2843 C   0  0  0  0  0  0  0  0  0  0  0  0
   25.7638  -22.6601  -15.7437 C   0  0  0  0  0  0  0  0  0  0  0  0
   26.0135  -24.1481  -16.0357 C   0  0  0  0  0  0  0  0  0  0  0  0
   24.9329  -24.9425  -15.4967 N   0  0  0  0  0  0  0  0  0  0  0  0
   26.3932  -18.4931  -14.6790 C   0  0  0  0  0  0  0  0  0  0  0  0
   26.1860  -18.1099  -13.4970 O   0  0  0  0  0  0  0  0  0  0  0  0
   25.8523  -17.6875  -15.7182 N   0  0  0  0  0  0  0  0  0  0  0  0
   25.6070  -16.2877  -15.5674 C   0  0  1  0  0  0  0  0  0  0  0  0
   26.8195  -15.5111  -15.1141 C   0  0  0  0  0  0  0  0  0  0  0  0
   26.4978  -13.7502  -14.9968 S   0  0  0  0  0  0  0  0  0  0  0  0
   24.9906  -15.7164  -16.7806 C   0  0  0  0  0  0  0  0  0  0  0  0
   25.6676  -15.6756  -17.8400 O   0  0  0  0  0  0  0  0  0  0  0  0
   21.6054  -14.3356  -17.6164 C   0  0  0  0  0  0  0  0  0  0  0  0
   23.0570  -14.6520  -18.0016 C   0  0  2  0  0  0  0  0  0  0  0  0
   23.6753  -15.2065  -16.8309 N   0  0  0  0  0  0  0  0  0  0  0  0
   23.6715  -13.3795  -18.4284 C   0  0  0  0  0  0  0  0  0  0  0  0
   24.2249  -12.6611  -17.5620 O   0  0  0  0  0  0  0  0  0  0  0  0
   23.6700  -12.9347  -19.7373 O   0  0  0  0  0  0  0  0  0  0  0  0
  2  1  1  1
  2  8  1  0
  3  2  1  0
  3  4  1  0
  5  4  1  0
  6  5  1  0
  7  6  1  0
  8  9  2  0
 10 11  1  0
 10  8  1  0
 12 13  1  0
 11 12  1  6
 14 11  1  0
 14 15  2  0
 17 16  1  1
 17 18  1  0
 17 19  1  0
 18 14  1  0
 19 20  2  0
 19 21  1  0
M  END
$$$$
