KCA.pdb
     RDKit          3D

 21 20  0  0  1  0  0  0  0  0999 V2000
   28.0796  -20.8503  -15.6677 N   0  0  0  0  0  0  0  0  0  0  0  0
   27.5276  -19.9560  -14.7002 C   0  0  1  0  0  0  0  0  0  0  0  0
   27.0550  -18.6445  -15.2214 C   0  0  0  0  0  0  0  0  0  0  0  0
   28.0745  -17.7990  -15.8973 C   0  0  0  0  0  0  0  0  0  0  0  0
   28.0620  -17.8309  -17.3890 C   0  0  0  0  0  0  0  0  0  0  0  0
   29.1196  -16.8438  -17.9076 C   0  0  0  0  0  0  0  0  0  0  0  0
   29.1020  -16.8196  -19.3527 N   0  0  0  0  0  0  0  0  0  0  0  0
   26.4729  -20.6677  -13.9126 C   0  0  0  0  0  0  0  0  0  0  0  0
   25.7979  -21.5965  -14.4306 O   0  0  0  0  0  0  0  0  0  0  0  0
   26.1804  -20.3399  -12.5603 N   0  0  0  0  0  0  0  0  0  0  0  0
   25.1050  -20.9363  -11.8322 C   0  0  1  0  0  0  0  0  0  0  0  0
   25.2364  -20.7857  -10.3360 C   0  0  0  0  0  0  0  0  0  0  0  0
   26.8623  -21.2575   -9.7425 S   0  0  0  0  0  0  0  0  0  0  0  0
   23.7958  -20.4757  -12.3341 C   0  0  0  0  0  0  0  0  0  0  0  0
   23.4607  -19.2792  -12.1379 O   0  0  0  0  0  0  0  0  0  0  0  0
   21.4299  -21.5846  -14.8899 C   0  0  0  0  0  0  0  0  0  0  0  0
   21.6191  -20.8630  -13.5486 C   0  0  2  0  0  0  0  0  0  0  0  0
   22.8837  -21.2995  -13.0284 N   0  0  0  0  0  0  0  0  0  0  0  0
   20.4806  -21.2500  -12.6924 C   0  0  0  0  0  0  0  0  0  0  0  0
   19.3471  -20.7818  -12.9550 O   0  0  0  0  0  0  0  0  0  0  0  0
   20.5968  -22.1045  -11.6119 O   0  0  0  0  0  0  0  0  0  0  0  0
  2  1  1  6
  2  8  1  0
  3  2  1  0
  3  4  1  0
  5  4  1  0
  6  5  1  0
  7  6  1  0
  8  9  2  0
 10 11  1  0
 10  8  1  0
 12 13  1  0
 11 12  1  1
 14 11  1  0
 14 15  2  0
 17 16  1  6
 17 18  1  0
 17 19  1  0
 18 14  1  0
 19 20  2  0
 19 21  1  0
M  END
$$$$
