FRP.pdb
     RDKit          3D

 30 31  0  0  1  0  0  0  0  0999 V2000
   23.4556  -17.4742  -16.9811 N   0  0  0  0  0  0  0  0  0  0  0  0
   24.2895  -17.3069  -15.8318 C   0  0  1  0  0  0  0  0  0  0  0  0
   23.8999  -16.1593  -14.9632 C   0  0  0  0  0  0  0  0  0  0  0  0
   24.4528  -14.9165  -15.6111 C   0  0  0  0  0  0  0  0  0  0  0  0
   25.7518  -14.5536  -15.4168 C   0  0  0  0  0  0  0  0  0  0  0  0
   26.2250  -13.4001  -16.0322 C   0  0  0  0  0  0  0  0  0  0  0  0
   25.3888  -12.6439  -16.8221 C   0  0  0  0  0  0  0  0  0  0  0  0
   24.0739  -13.0407  -16.9988 C   0  0  0  0  0  0  0  0  0  0  0  0
   23.5881  -14.1854  -16.3937 C   0  0  0  0  0  0  0  0  0  0  0  0
   24.3235  -18.5448  -14.9850 C   0  0  0  0  0  0  0  0  0  0  0  0
   23.2762  -19.2010  -14.7607 O   0  0  0  0  0  0  0  0  0  0  0  0
   30.6925  -23.6034  -16.5280 N   0  0  0  0  0  0  0  0  0  0  0  0
   29.5653  -23.5126  -17.3731 C   0  0  0  0  0  0  0  0  0  0  0  0
   29.5245  -23.9698  -18.5840 N   0  0  0  0  0  0  0  0  0  0  0  0
   28.3937  -22.8865  -16.8881 N   0  0  0  0  0  0  0  0  0  0  0  0
   28.2567  -22.2800  -15.6104 C   0  0  0  0  0  0  0  0  0  0  0  0
   26.9090  -21.6400  -15.3559 C   0  0  0  0  0  0  0  0  0  0  0  0
   26.9362  -20.9312  -14.0206 C   0  0  0  0  0  0  0  0  0  0  0  0
   25.6655  -20.2119  -13.6833 C   0  0  2  0  0  0  0  0  0  0  0  0
   25.5633  -18.9629  -14.4384 N   0  0  0  0  0  0  0  0  0  0  0  0
   25.7562  -19.8818  -12.2156 C   0  0  0  0  0  0  0  0  0  0  0  0
   26.5164  -18.9117  -11.9219 O   0  0  0  0  0  0  0  0  0  0  0  0
   28.5950  -23.8414  -19.0798 N   0  0  0  0  0  0  0  0  0  0  0  0
   25.0516  -20.5902  -11.2276 C   0  0  0  0  0  0  0  0  0  0  0  0
   24.0655  -21.6285  -11.3661 C   0  0  0  0  0  0  0  0  0  0  0  0
   23.1188  -21.3626  -10.1800 C   0  0  0  0  0  0  0  0  0  0  0  0
   24.1332  -21.1024   -9.0906 C   0  0  2  0  0  0  0  0  0  0  0  0
   25.2176  -20.3523   -9.7951 C   0  0  0  0  0  0  0  0  0  0  0  0
   26.5837  -20.7412   -9.3558 O   0  0  0  0  0  0  0  0  0  0  0  0
   27.1098  -20.2144   -8.2019 O   0  0  0  0  0  0  0  0  0  0  0  0
  2 10  1  0
  2  1  1  6
  3  4  1  0
  3  2  1  0
  4  9  2  0
  5  6  2  0
  5  4  1  0
  6  7  1  0
  7  8  2  0
  9  8  1  0
 10 20  1  0
 11 10  2  0
 13 15  1  0
 13 12  1  0
 14 13  2  0
 16 17  1  0
 16 15  1  0
 17 18  1  0
 19 18  1  6
 19 21  1  0
 20 19  1  0
 21 22  2  0
 21 23  1  0
 23 27  1  0
 24 23  1  0
 25 26  1  0
 25 24  1  0
 26 27  1  0
 27 28  1  1
 28 30  2  0
 28 29  1  0
M  END
$$$$
