FRP.pdb
     RDKit          3D

 30 31  0  0  1  0  0  0  0  0999 V2000
   21.0830  -16.9261  -16.5663 N   0  0  0  0  0  0  0  0  0  0  0  0
   22.2745  -17.4734  -17.1364 C   0  0  1  0  0  0  0  0  0  0  0  0
   23.0333  -16.5143  -17.9893 C   0  0  0  0  0  0  0  0  0  0  0  0
   22.2875  -16.4089  -19.2941 C   0  0  0  0  0  0  0  0  0  0  0  0
   22.1228  -17.5040  -20.0881 C   0  0  0  0  0  0  0  0  0  0  0  0
   21.4283  -17.3664  -21.2846 C   0  0  0  0  0  0  0  0  0  0  0  0
   20.9194  -16.1415  -21.6530 C   0  0  0  0  0  0  0  0  0  0  0  0
   21.1045  -15.0485  -20.8231 C   0  0  0  0  0  0  0  0  0  0  0  0
   21.7929  -15.1689  -19.6298 C   0  0  0  0  0  0  0  0  0  0  0  0
   23.2036  -17.9998  -16.0827 C   0  0  0  0  0  0  0  0  0  0  0  0
   23.4494  -17.3312  -15.0481 O   0  0  0  0  0  0  0  0  0  0  0  0
   23.7060  -20.0360   -9.4011 N   0  0  0  0  0  0  0  0  0  0  0  0
   23.1120  -20.9329  -10.3153 C   0  0  0  0  0  0  0  0  0  0  0  0
   21.8525  -20.9374  -10.6169 N   0  0  0  0  0  0  0  0  0  0  0  0
   23.9244  -21.8972  -10.9555 N   0  0  0  0  0  0  0  0  0  0  0  0
   24.2974  -21.8755  -12.3265 C   0  0  0  0  0  0  0  0  0  0  0  0
   23.5421  -20.8722  -13.1711 C   0  0  0  0  0  0  0  0  0  0  0  0
   23.9200  -21.0561  -14.6235 C   0  0  0  0  0  0  0  0  0  0  0  0
   24.6229  -19.8782  -15.2272 C   0  0  2  0  0  0  0  0  0  0  0  0
   23.8036  -19.2700  -16.2757 N   0  0  0  0  0  0  0  0  0  0  0  0
   25.8796  -20.4252  -15.8539 C   0  0  0  0  0  0  0  0  0  0  0  0
   25.7022  -21.2279  -16.8179 O   0  0  0  0  0  0  0  0  0  0  0  0
   21.5685  -21.6586  -11.3416 N   0  0  0  0  0  0  0  0  0  0  0  0
   27.1677  -20.0781  -15.4125 C   0  0  0  0  0  0  0  0  0  0  0  0
   27.5700  -19.2531  -14.3048 C   0  0  0  0  0  0  0  0  0  0  0  0
   28.8482  -18.5724  -14.8307 C   0  0  0  0  0  0  0  0  0  0  0  0
   29.5268  -19.7575  -15.4776 C   0  0  2  0  0  0  0  0  0  0  0  0
   28.3920  -20.5283  -16.0717 C   0  0  0  0  0  0  0  0  0  0  0  0
   28.5464  -22.0009  -15.9375 O   0  0  0  0  0  0  0  0  0  0  0  0
   29.5372  -22.6533  -16.6293 O   0  0  0  0  0  0  0  0  0  0  0  0
  2 10  1  0
  2  1  1  1
  3  4  1  0
  3  2  1  0
  4  9  2  0
  5  6  2  0
  5  4  1  0
  6  7  1  0
  7  8  2  0
  9  8  1  0
 10 20  1  0
 11 10  2  0
 13 15  1  0
 13 12  1  0
 14 13  2  0
 16 17  1  0
 16 15  1  0
 17 18  1  0
 19 18  1  6
 19 21  1  0
 20 19  1  0
 21 22  2  0
 21 23  1  0
 23 27  1  0
 24 23  1  0
 25 26  1  0
 25 24  1  0
 26 27  1  0
 27 28  1  1
 28 30  2  0
 28 29  1  0
M  END
$$$$
