FRP.pdb
     RDKit          3D

 30 31  0  0  1  0  0  0  0  0999 V2000
   28.3305  -20.9128   -8.8701 N   0  0  0  0  0  0  0  0  0  0  0  0
   26.9579  -20.5491   -8.7034 C   0  0  1  0  0  0  0  0  0  0  0  0
   26.7501  -19.3459   -7.8475 C   0  0  0  0  0  0  0  0  0  0  0  0
   27.5569  -19.5602   -6.5933 C   0  0  0  0  0  0  0  0  0  0  0  0
   28.4038  -18.5933   -6.1409 C   0  0  0  0  0  0  0  0  0  0  0  0
   29.1308  -18.8285   -4.9794 C   0  0  0  0  0  0  0  0  0  0  0  0
   28.9913  -20.0202   -4.3045 C   0  0  0  0  0  0  0  0  0  0  0  0
   28.1220  -20.9820   -4.7912 C   0  0  0  0  0  0  0  0  0  0  0  0
   27.3918  -20.7633   -5.9451 C   0  0  0  0  0  0  0  0  0  0  0  0
   26.2827  -20.3086  -10.0214 C   0  0  0  0  0  0  0  0  0  0  0  0
   26.5296  -19.2762  -10.6929 O   0  0  0  0  0  0  0  0  0  0  0  0
   28.3131  -23.3781  -16.1409 N   0  0  0  0  0  0  0  0  0  0  0  0
   27.9586  -22.0134  -16.2106 C   0  0  0  0  0  0  0  0  0  0  0  0
   27.7017  -21.3832  -17.3124 N   0  0  0  0  0  0  0  0  0  0  0  0
   27.8717  -21.2658  -15.0133 N   0  0  0  0  0  0  0  0  0  0  0  0
   27.2060  -21.6861  -13.8304 C   0  0  0  0  0  0  0  0  0  0  0  0
   25.7393  -22.0115  -14.0124 C   0  0  0  0  0  0  0  0  0  0  0  0
   25.1319  -22.3503  -12.6698 C   0  0  0  0  0  0  0  0  0  0  0  0
   24.7797  -21.1546  -11.8378 C   0  0  2  0  0  0  0  0  0  0  0  0
   25.3560  -21.2702  -10.4980 N   0  0  0  0  0  0  0  0  0  0  0  0
   23.2773  -21.1638  -11.7187 C   0  0  0  0  0  0  0  0  0  0  0  0
   22.8083  -21.9057  -10.8051 O   0  0  0  0  0  0  0  0  0  0  0  0
   27.5046  -20.3466  -17.1996 N   0  0  0  0  0  0  0  0  0  0  0  0
   22.4394  -20.4063  -12.5546 C   0  0  0  0  0  0  0  0  0  0  0  0
   22.7781  -19.4675  -13.5907 C   0  0  0  0  0  0  0  0  0  0  0  0
   21.6506  -18.4224  -13.4881 C   0  0  0  0  0  0  0  0  0  0  0  0
   20.4590  -19.3392  -13.3365 C   0  0  2  0  0  0  0  0  0  0  0  0
   20.9802  -20.4514  -12.4845 C   0  0  0  0  0  0  0  0  0  0  0  0
   20.4788  -21.7903  -12.8924 O   0  0  0  0  0  0  0  0  0  0  0  0
   19.2561  -22.2301  -12.4482 O   0  0  0  0  0  0  0  0  0  0  0  0
  2 10  1  0
  2  1  1  6
  3  4  1  0
  3  2  1  0
  4  9  2  0
  5  6  2  0
  5  4  1  0
  6  7  1  0
  7  8  2  0
  9  8  1  0
 10 20  1  0
 11 10  2  0
 13 15  1  0
 13 12  1  0
 14 13  2  0
 16 17  1  0
 16 15  1  0
 17 18  1  0
 19 18  1  6
 19 21  1  0
 20 19  1  0
 21 22  2  0
 21 23  1  0
 23 27  1  0
 24 23  1  0
 25 26  1  0
 25 24  1  0
 26 27  1  0
 27 28  1  6
 28 30  2  0
 28 29  1  0
M  END
$$$$
