FRP.pdb
     RDKit          3D

 30 31  0  0  1  0  0  0  0  0999 V2000
   24.0749  -19.6411  -20.2505 N   0  0  0  0  0  0  0  0  0  0  0  0
   23.2748  -18.8566  -19.3625 C   0  0  1  0  0  0  0  0  0  0  0  0
   22.0408  -18.3022  -19.9894 C   0  0  0  0  0  0  0  0  0  0  0  0
   22.4720  -17.1360  -20.8404 C   0  0  0  0  0  0  0  0  0  0  0  0
   22.8946  -15.9763  -20.2630 C   0  0  0  0  0  0  0  0  0  0  0  0
   23.2847  -14.9228  -21.0822 C   0  0  0  0  0  0  0  0  0  0  0  0
   23.2415  -15.0576  -22.4515 C   0  0  0  0  0  0  0  0  0  0  0  0
   22.8068  -16.2497  -23.0061 C   0  0  0  0  0  0  0  0  0  0  0  0
   22.4155  -17.3069  -22.2051 C   0  0  0  0  0  0  0  0  0  0  0  0
   22.8725  -19.6337  -18.1439 C   0  0  0  0  0  0  0  0  0  0  0  0
   22.4446  -20.8106  -18.2424 O   0  0  0  0  0  0  0  0  0  0  0  0
   25.6621  -19.8514  -10.2481 N   0  0  0  0  0  0  0  0  0  0  0  0
   24.4904  -20.6257  -10.1050 C   0  0  0  0  0  0  0  0  0  0  0  0
   24.0607  -21.0947   -8.9769 N   0  0  0  0  0  0  0  0  0  0  0  0
   23.7196  -20.9210  -11.2533 N   0  0  0  0  0  0  0  0  0  0  0  0
   23.9350  -20.3766  -12.5481 C   0  0  0  0  0  0  0  0  0  0  0  0
   22.7488  -19.6366  -13.1276 C   0  0  0  0  0  0  0  0  0  0  0  0
   23.1470  -19.0058  -14.4429 C   0  0  0  0  0  0  0  0  0  0  0  0
   22.6671  -19.7527  -15.6503 C   0  0  2  0  0  0  0  0  0  0  0  0
   22.9826  -19.0142  -16.8732 N   0  0  0  0  0  0  0  0  0  0  0  0
   21.1688  -19.8393  -15.5124 C   0  0  0  0  0  0  0  0  0  0  0  0
   20.5391  -18.7614  -15.7287 O   0  0  0  0  0  0  0  0  0  0  0  0
   23.1726  -21.6718   -9.0413 N   0  0  0  0  0  0  0  0  0  0  0  0
   20.4999  -21.0266  -15.1696 C   0  0  0  0  0  0  0  0  0  0  0  0
   21.0286  -22.3392  -14.9108 C   0  0  0  0  0  0  0  0  0  0  0  0
   19.9267  -23.2666  -15.4580 C   0  0  0  0  0  0  0  0  0  0  0  0
   18.7034  -22.5686  -14.9104 C   0  0  2  0  0  0  0  0  0  0  0  0
   19.0485  -21.1185  -15.0243 C   0  0  0  0  0  0  0  0  0  0  0  0
   18.5873  -20.3106  -13.8645 O   0  0  0  0  0  0  0  0  0  0  0  0
   17.2472  -20.0714  -13.6840 O   0  0  0  0  0  0  0  0  0  0  0  0
  2 10  1  0
  2  1  1  6
  3  4  1  0
  3  2  1  0
  4  9  2  0
  5  6  2  0
  5  4  1  0
  6  7  1  0
  7  8  2  0
  9  8  1  0
 10 20  1  0
 11 10  2  0
 13 15  1  0
 13 12  1  0
 14 13  2  0
 16 17  1  0
 16 15  1  0
 17 18  1  0
 19 18  1  1
 19 21  1  0
 20 19  1  0
 21 22  2  0
 21 23  1  0
 23 27  1  0
 24 23  1  0
 25 26  1  0
 25 24  1  0
 26 27  1  0
 27 28  1  1
 28 30  2  0
 28 29  1  0
M  END
$$$$
