FRP.pdb
     RDKit          3D

 30 31  0  0  1  0  0  0  0  0999 V2000
   28.0738  -21.3346   -8.7507 N   0  0  0  0  0  0  0  0  0  0  0  0
   26.8455  -20.6326   -8.9574 C   0  0  1  0  0  0  0  0  0  0  0  0
   26.7113  -19.3936   -8.1389 C   0  0  0  0  0  0  0  0  0  0  0  0
   27.2851  -19.7054   -6.7811 C   0  0  0  0  0  0  0  0  0  0  0  0
   28.5251  -19.2593   -6.4343 C   0  0  0  0  0  0  0  0  0  0  0  0
   29.0197  -19.5674   -5.1720 C   0  0  0  0  0  0  0  0  0  0  0  0
   28.2632  -20.3106   -4.2943 C   0  0  0  0  0  0  0  0  0  0  0  0
   27.0068  -20.7485   -4.6781 C   0  0  0  0  0  0  0  0  0  0  0  0
   26.5006  -20.4504   -5.9301 C   0  0  0  0  0  0  0  0  0  0  0  0
   26.6514  -20.2650  -10.3989 C   0  0  0  0  0  0  0  0  0  0  0  0
   27.4992  -19.5635  -11.0048 O   0  0  0  0  0  0  0  0  0  0  0  0
   28.8830  -23.3744  -16.6318 N   0  0  0  0  0  0  0  0  0  0  0  0
   27.5262  -23.1405  -16.9437 C   0  0  0  0  0  0  0  0  0  0  0  0
   27.0816  -22.9200  -18.1399 N   0  0  0  0  0  0  0  0  0  0  0  0
   26.5727  -23.1426  -15.8994 N   0  0  0  0  0  0  0  0  0  0  0  0
   26.8624  -23.3551  -14.5246 C   0  0  0  0  0  0  0  0  0  0  0  0
   26.8636  -22.1007  -13.6778 C   0  0  0  0  0  0  0  0  0  0  0  0
   25.4458  -21.7739  -13.2663 C   0  0  0  0  0  0  0  0  0  0  0  0
   25.3101  -20.4918  -12.5022 C   0  0  2  0  0  0  0  0  0  0  0  0
   25.4889  -20.7237  -11.0688 N   0  0  0  0  0  0  0  0  0  0  0  0
   23.9000  -20.0169  -12.7415 C   0  0  0  0  0  0  0  0  0  0  0  0
   23.0075  -20.5916  -12.0499 O   0  0  0  0  0  0  0  0  0  0  0  0
   26.0269  -22.8312  -18.2161 N   0  0  0  0  0  0  0  0  0  0  0  0
   23.5797  -19.0062  -13.6636 C   0  0  0  0  0  0  0  0  0  0  0  0
   24.4177  -18.3333  -14.6199 C   0  0  0  0  0  0  0  0  0  0  0  0
   23.8335  -16.9078  -14.6445 C   0  0  0  0  0  0  0  0  0  0  0  0
   22.3580  -17.2319  -14.6794 C   0  0  2  0  0  0  0  0  0  0  0  0
   22.2426  -18.4303  -13.7933 C   0  0  0  0  0  0  0  0  0  0  0  0
   21.2828  -19.4467  -14.2995 O   0  0  0  0  0  0  0  0  0  0  0  0
   21.7419  -20.5379  -14.9954 O   0  0  0  0  0  0  0  0  0  0  0  0
  2 10  1  0
  2  1  1  6
  3  4  1  0
  3  2  1  0
  4  9  2  0
  5  6  2  0
  5  4  1  0
  6  7  1  0
  7  8  2  0
  9  8  1  0
 10 20  1  0
 11 10  2  0
 13 15  1  0
 13 12  1  0
 14 13  2  0
 16 17  1  0
 16 15  1  0
 17 18  1  0
 19 18  1  6
 19 21  1  0
 20 19  1  0
 21 22  2  0
 21 23  1  0
 23 27  1  0
 24 23  1  0
 25 26  1  0
 25 24  1  0
 26 27  1  0
 27 28  1  6
 28 30  2  0
 28 29  1  0
M  END
$$$$
