FRP.pdb
     RDKit          3D

 30 31  0  0  1  0  0  0  0  0999 V2000
   22.6598  -14.5717  -18.0844 N   0  0  0  0  0  0  0  0  0  0  0  0
   22.8869  -15.9668  -18.2998 C   0  0  1  0  0  0  0  0  0  0  0  0
   23.6587  -16.2702  -19.5389 C   0  0  0  0  0  0  0  0  0  0  0  0
   22.6512  -16.6116  -20.6059 C   0  0  0  0  0  0  0  0  0  0  0  0
   21.8336  -17.6926  -20.4659 C   0  0  0  0  0  0  0  0  0  0  0  0
   20.9166  -17.9746  -21.4722 C   0  0  0  0  0  0  0  0  0  0  0  0
   20.8428  -17.1703  -22.5870 C   0  0  0  0  0  0  0  0  0  0  0  0
   21.6884  -16.0793  -22.6982 C   0  0  0  0  0  0  0  0  0  0  0  0
   22.6058  -15.7854  -21.7061 C   0  0  0  0  0  0  0  0  0  0  0  0
   23.5962  -16.6000  -17.1394 C   0  0  0  0  0  0  0  0  0  0  0  0
   24.4935  -15.9799  -16.5164 O   0  0  0  0  0  0  0  0  0  0  0  0
   19.8907  -22.2415  -12.0290 N   0  0  0  0  0  0  0  0  0  0  0  0
   20.2232  -20.8937  -11.7727 C   0  0  0  0  0  0  0  0  0  0  0  0
   19.5965  -20.1369  -10.9290 N   0  0  0  0  0  0  0  0  0  0  0  0
   21.3067  -20.3105  -12.4697 N   0  0  0  0  0  0  0  0  0  0  0  0
   22.3781  -21.0270  -13.0680 C   0  0  0  0  0  0  0  0  0  0  0  0
   23.4510  -20.1581  -13.6879 C   0  0  0  0  0  0  0  0  0  0  0  0
   22.8731  -19.4197  -14.8740 C   0  0  0  0  0  0  0  0  0  0  0  0
   23.8614  -18.5579  -15.5996 C   0  0  2  0  0  0  0  0  0  0  0  0
   23.2359  -17.9169  -16.7565 N   0  0  0  0  0  0  0  0  0  0  0  0
   24.9394  -19.4902  -16.0893 C   0  0  0  0  0  0  0  0  0  0  0  0
   24.6044  -20.2581  -17.0398 O   0  0  0  0  0  0  0  0  0  0  0  0
   19.9594  -19.1418  -10.8650 N   0  0  0  0  0  0  0  0  0  0  0  0
   26.2331  -19.5180  -15.5416 C   0  0  0  0  0  0  0  0  0  0  0  0
   26.7805  -18.7790  -14.4353 C   0  0  0  0  0  0  0  0  0  0  0  0
   28.2428  -18.5526  -14.8644 C   0  0  0  0  0  0  0  0  0  0  0  0
   28.5746  -19.9283  -15.3941 C   0  0  2  0  0  0  0  0  0  0  0  0
   27.3086  -20.3602  -16.0616 C   0  0  0  0  0  0  0  0  0  0  0  0
   26.9937  -21.7981  -15.8528 O   0  0  0  0  0  0  0  0  0  0  0  0
   27.8253  -22.7643  -16.3634 O   0  0  0  0  0  0  0  0  0  0  0  0
  2 10  1  0
  2  1  1  1
  3  4  1  0
  3  2  1  0
  4  9  2  0
  5  6  2  0
  5  4  1  0
  6  7  1  0
  7  8  2  0
  9  8  1  0
 10 20  1  0
 11 10  2  0
 13 15  1  0
 13 12  1  0
 14 13  2  0
 16 17  1  0
 16 15  1  0
 17 18  1  0
 19 18  1  6
 19 21  1  0
 20 19  1  0
 21 22  2  0
 21 23  1  0
 23 27  1  0
 24 23  1  0
 25 26  1  0
 25 24  1  0
 26 27  1  0
 27 28  1  1
 28 30  2  0
 28 29  1  0
M  END
$$$$
