FRP.pdb
     RDKit          3D

 30 31  0  0  1  0  0  0  0  0999 V2000
   26.8296  -18.3907  -17.6967 N   0  0  0  0  0  0  0  0  0  0  0  0
   26.0671  -17.9622  -16.5657 C   0  0  1  0  0  0  0  0  0  0  0  0
   24.9096  -17.0884  -16.9120 C   0  0  0  0  0  0  0  0  0  0  0  0
   25.4678  -15.7161  -17.1863 C   0  0  0  0  0  0  0  0  0  0  0  0
   25.6734  -15.2952  -18.4659 C   0  0  0  0  0  0  0  0  0  0  0  0
   26.1897  -14.0218  -18.6782 C   0  0  0  0  0  0  0  0  0  0  0  0
   26.4851  -13.2072  -17.6085 C   0  0  0  0  0  0  0  0  0  0  0  0
   26.2643  -13.6657  -16.3206 C   0  0  0  0  0  0  0  0  0  0  0  0
   25.7513  -14.9295  -16.0928 C   0  0  0  0  0  0  0  0  0  0  0  0
   25.5542  -19.1249  -15.7685 C   0  0  0  0  0  0  0  0  0  0  0  0
   25.1483  -20.1680  -16.3385 O   0  0  0  0  0  0  0  0  0  0  0  0
   28.7066  -21.8858   -8.7459 N   0  0  0  0  0  0  0  0  0  0  0  0
   28.7216  -21.6700  -10.1409 C   0  0  0  0  0  0  0  0  0  0  0  0
   29.7782  -21.7740  -10.8825 N   0  0  0  0  0  0  0  0  0  0  0  0
   27.5174  -21.3169  -10.7928 N   0  0  0  0  0  0  0  0  0  0  0  0
   26.2134  -21.4822  -10.2529 C   0  0  0  0  0  0  0  0  0  0  0  0
   25.0888  -21.0827  -11.1836 C   0  0  0  0  0  0  0  0  0  0  0  0
   25.5771  -20.0036  -12.1235 C   0  0  0  0  0  0  0  0  0  0  0  0
   25.0838  -20.1485  -13.5312 C   0  0  2  0  0  0  0  0  0  0  0  0
   25.5341  -19.0258  -14.3541 N   0  0  0  0  0  0  0  0  0  0  0  0
   23.5796  -20.1112  -13.4464 C   0  0  0  0  0  0  0  0  0  0  0  0
   23.0782  -18.9825  -13.1637 O   0  0  0  0  0  0  0  0  0  0  0  0
   29.6046  -21.6780  -11.9249 N   0  0  0  0  0  0  0  0  0  0  0  0
   22.7732  -21.2411  -13.6644 C   0  0  0  0  0  0  0  0  0  0  0  0
   23.1503  -22.6024  -13.9367 C   0  0  0  0  0  0  0  0  0  0  0  0
   22.0346  -23.0843  -14.8838 C   0  0  0  0  0  0  0  0  0  0  0  0
   20.8275  -22.5167  -14.1739 C   0  0  2  0  0  0  0  0  0  0  0  0
   21.3122  -21.1994  -13.6596 C   0  0  0  0  0  0  0  0  0  0  0  0
   20.8033  -20.8744  -12.3009 O   0  0  0  0  0  0  0  0  0  0  0  0
   21.5887  -21.1094  -11.1992 O   0  0  0  0  0  0  0  0  0  0  0  0
  2 10  1  0
  2  1  1  6
  3  4  1  0
  3  2  1  0
  4  9  2  0
  5  6  2  0
  5  4  1  0
  6  7  1  0
  7  8  2  0
  9  8  1  0
 10 20  1  0
 11 10  2  0
 13 15  1  0
 13 12  1  0
 14 13  2  0
 16 17  1  0
 16 15  1  0
 17 18  1  0
 19 18  1  1
 19 21  1  0
 20 19  1  0
 21 22  2  0
 21 23  1  0
 23 27  1  0
 24 23  1  0
 25 26  1  0
 25 24  1  0
 26 27  1  0
 27 28  1  1
 28 30  2  0
 28 29  1  0
M  END
$$$$
