FRP.pdb
     RDKit          3D

 30 31  0  0  1  0  0  0  0  0999 V2000
   29.3061  -21.6144  -18.3204 N   0  0  0  0  0  0  0  0  0  0  0  0
   28.4956  -20.7069  -17.5696 C   0  0  1  0  0  0  0  0  0  0  0  0
   27.5462  -19.9132  -18.4013 C   0  0  0  0  0  0  0  0  0  0  0  0
   28.1366  -18.5337  -18.5379 C   0  0  0  0  0  0  0  0  0  0  0  0
   28.9040  -18.2127  -19.6172 C   0  0  0  0  0  0  0  0  0  0  0  0
   29.4307  -16.9291  -19.7074 C   0  0  0  0  0  0  0  0  0  0  0  0
   29.1763  -16.0052  -18.7192 C   0  0  0  0  0  0  0  0  0  0  0  0
   28.3924  -16.3639  -17.6354 C   0  0  0  0  0  0  0  0  0  0  0  0
   27.8611  -17.6365  -17.5310 C   0  0  0  0  0  0  0  0  0  0  0  0
   27.7083  -21.4143  -16.5063 C   0  0  0  0  0  0  0  0  0  0  0  0
   27.1916  -22.5377  -16.7271 O   0  0  0  0  0  0  0  0  0  0  0  0
   23.3426  -20.0111  -10.5860 N   0  0  0  0  0  0  0  0  0  0  0  0
   23.9770  -20.5212   -9.4326 C   0  0  0  0  0  0  0  0  0  0  0  0
   23.3593  -20.8231   -8.3351 N   0  0  0  0  0  0  0  0  0  0  0  0
   25.3764  -20.7242   -9.4532 N   0  0  0  0  0  0  0  0  0  0  0  0
   26.2351  -20.4090  -10.5406 C   0  0  0  0  0  0  0  0  0  0  0  0
   25.9458  -21.1712  -11.8157 C   0  0  0  0  0  0  0  0  0  0  0  0
   26.8970  -20.7140  -12.8984 C   0  0  0  0  0  0  0  0  0  0  0  0
   26.6583  -21.3526  -14.2330 C   0  0  2  0  0  0  0  0  0  0  0  0
   27.5555  -20.7900  -15.2424 N   0  0  0  0  0  0  0  0  0  0  0  0
   25.2386  -21.0104  -14.6053 C   0  0  0  0  0  0  0  0  0  0  0  0
   25.0266  -19.7918  -14.8797 O   0  0  0  0  0  0  0  0  0  0  0  0
   23.9832  -21.1771   -7.5532 N   0  0  0  0  0  0  0  0  0  0  0  0
   24.2088  -21.9653  -14.6515 C   0  0  0  0  0  0  0  0  0  0  0  0
   24.2440  -23.3722  -14.3532 C   0  0  0  0  0  0  0  0  0  0  0  0
   23.2314  -23.9603  -15.3546 C   0  0  0  0  0  0  0  0  0  0  0  0
   22.1161  -22.9497  -15.2207 C   0  0  2  0  0  0  0  0  0  0  0  0
   22.8390  -21.6519  -15.0535 C   0  0  0  0  0  0  0  0  0  0  0  0
   22.1990  -20.7445  -14.0647 O   0  0  0  0  0  0  0  0  0  0  0  0
   21.0062  -20.1339  -14.3648 O   0  0  0  0  0  0  0  0  0  0  0  0
  2 10  1  0
  2  1  1  6
  3  4  1  0
  3  2  1  0
  4  9  2  0
  5  6  2  0
  5  4  1  0
  6  7  1  0
  7  8  2  0
  9  8  1  0
 10 20  1  0
 11 10  2  0
 13 15  1  0
 13 12  1  0
 14 13  2  0
 16 17  1  0
 16 15  1  0
 17 18  1  0
 19 18  1  1
 19 21  1  0
 20 19  1  0
 21 22  2  0
 21 23  1  0
 23 27  1  0
 24 23  1  0
 25 26  1  0
 25 24  1  0
 26 27  1  0
 27 28  1  1
 28 30  2  0
 28 29  1  0
M  END
$$$$
