FRP.pdb
     RDKit          3D

 30 31  0  0  1  0  0  0  0  0999 V2000
   24.8232  -15.4993  -15.4371 N   0  0  0  0  0  0  0  0  0  0  0  0
   25.7613  -16.5782  -15.4207 C   0  0  1  0  0  0  0  0  0  0  0  0
   27.1863  -16.1422  -15.4709 C   0  0  0  0  0  0  0  0  0  0  0  0
   27.5409  -15.9824  -16.9264 C   0  0  0  0  0  0  0  0  0  0  0  0
   27.5730  -14.7466  -17.4997 C   0  0  0  0  0  0  0  0  0  0  0  0
   27.9051  -14.6403  -18.8457 C   0  0  0  0  0  0  0  0  0  0  0  0
   28.1949  -15.7689  -19.5786 C   0  0  0  0  0  0  0  0  0  0  0  0
   28.1530  -17.0099  -18.9655 C   0  0  0  0  0  0  0  0  0  0  0  0
   27.8245  -17.1324  -17.6277 C   0  0  0  0  0  0  0  0  0  0  0  0
   25.5813  -17.4528  -14.2151 C   0  0  0  0  0  0  0  0  0  0  0  0
   25.4109  -16.9524  -13.0757 O   0  0  0  0  0  0  0  0  0  0  0  0
   22.7993  -20.6515   -8.8173 N   0  0  0  0  0  0  0  0  0  0  0  0
   21.7723  -21.0728   -9.6894 C   0  0  0  0  0  0  0  0  0  0  0  0
   20.5452  -21.2725   -9.3266 N   0  0  0  0  0  0  0  0  0  0  0  0
   22.0790  -21.2975  -11.0515 N   0  0  0  0  0  0  0  0  0  0  0  0
   23.3169  -20.9858  -11.6757 C   0  0  0  0  0  0  0  0  0  0  0  0
   23.3425  -21.2054  -13.1729 C   0  0  0  0  0  0  0  0  0  0  0  0
   24.7564  -21.0312  -13.6797 C   0  0  0  0  0  0  0  0  0  0  0  0
   25.4104  -19.7553  -13.2435 C   0  0  2  0  0  0  0  0  0  0  0  0
   25.6081  -18.8604  -14.3840 N   0  0  0  0  0  0  0  0  0  0  0  0
   26.7598  -20.1489  -12.7001 C   0  0  0  0  0  0  0  0  0  0  0  0
   27.6521  -20.3756  -13.5706 O   0  0  0  0  0  0  0  0  0  0  0  0
   19.8950  -21.5899  -10.1028 N   0  0  0  0  0  0  0  0  0  0  0  0
   27.0276  -20.2603  -11.3252 C   0  0  0  0  0  0  0  0  0  0  0  0
   26.1417  -20.1193  -10.2005 C   0  0  0  0  0  0  0  0  0  0  0  0
   27.0495  -19.4908   -9.1259 C   0  0  0  0  0  0  0  0  0  0  0  0
   28.2897  -20.3348   -9.3068 C   0  0  2  0  0  0  0  0  0  0  0  0
   28.3551  -20.5470  -10.7852 C   0  0  0  0  0  0  0  0  0  0  0  0
   28.7887  -21.9176  -11.1647 O   0  0  0  0  0  0  0  0  0  0  0  0
   30.0912  -22.3051  -10.9668 O   0  0  0  0  0  0  0  0  0  0  0  0
  2 10  1  0
  2  1  1  1
  3  4  1  0
  3  2  1  0
  4  9  2  0
  5  6  2  0
  5  4  1  0
  6  7  1  0
  7  8  2  0
  9  8  1  0
 10 20  1  0
 11 10  2  0
 13 15  1  0
 13 12  1  0
 14 13  2  0
 16 17  1  0
 16 15  1  0
 17 18  1  0
 19 18  1  6
 19 21  1  0
 20 19  1  0
 21 22  2  0
 21 23  1  0
 23 27  1  0
 24 23  1  0
 25 26  1  0
 25 24  1  0
 26 27  1  0
 27 28  1  1
 28 30  2  0
 28 29  1  0
M  END
$$$$
