FRP.pdb
     RDKit          3D

 30 31  0  0  1  0  0  0  0  0999 V2000
   24.0849  -19.1781  -16.9357 N   0  0  0  0  0  0  0  0  0  0  0  0
   24.5926  -18.5006  -15.7836 C   0  0  1  0  0  0  0  0  0  0  0  0
   23.5889  -17.6370  -15.0979 C   0  0  0  0  0  0  0  0  0  0  0  0
   23.5803  -16.3182  -15.8263 C   0  0  0  0  0  0  0  0  0  0  0  0
   24.6949  -15.5348  -15.8534 C   0  0  0  0  0  0  0  0  0  0  0  0
   24.6476  -14.3247  -16.5365 C   0  0  0  0  0  0  0  0  0  0  0  0
   23.4908  -13.9328  -17.1715 C   0  0  0  0  0  0  0  0  0  0  0  0
   22.3756  -14.7525  -17.1246 C   0  0  0  0  0  0  0  0  0  0  0  0
   22.4066  -15.9591  -16.4494 C   0  0  0  0  0  0  0  0  0  0  0  0
   25.1508  -19.4610  -14.7753 C   0  0  0  0  0  0  0  0  0  0  0  0
   24.4591  -20.4165  -14.3437 O   0  0  0  0  0  0  0  0  0  0  0  0
   31.2908  -23.4647  -11.6757 N   0  0  0  0  0  0  0  0  0  0  0  0
   32.0398  -22.3622  -11.2104 C   0  0  0  0  0  0  0  0  0  0  0  0
   33.3027  -22.4073  -10.9272 N   0  0  0  0  0  0  0  0  0  0  0  0
   31.3911  -21.1180  -11.0346 N   0  0  0  0  0  0  0  0  0  0  0  0
   30.6617  -20.4243  -12.0376 C   0  0  0  0  0  0  0  0  0  0  0  0
   29.1806  -20.7337  -12.0698 C   0  0  0  0  0  0  0  0  0  0  0  0
   28.5236  -19.9214  -13.1628 C   0  0  0  0  0  0  0  0  0  0  0  0
   27.0467  -20.1433  -13.2871 C   0  0  2  0  0  0  0  0  0  0  0  0
   26.4782  -19.2704  -14.3145 N   0  0  0  0  0  0  0  0  0  0  0  0
   26.4593  -19.7629  -11.9524 C   0  0  0  0  0  0  0  0  0  0  0  0
   26.4632  -18.5235  -11.6894 O   0  0  0  0  0  0  0  0  0  0  0  0
   33.7342  -21.4765  -10.6561 N   0  0  0  0  0  0  0  0  0  0  0  0
   25.9374  -20.7052  -11.0502 C   0  0  0  0  0  0  0  0  0  0  0  0
   25.7996  -22.1308  -11.1853 C   0  0  0  0  0  0  0  0  0  0  0  0
   24.4978  -22.4239  -10.4149 C   0  0  0  0  0  0  0  0  0  0  0  0
   24.7199  -21.5643   -9.1922 C   0  0  2  0  0  0  0  0  0  0  0  0
   25.4012  -20.3505   -9.7376 C   0  0  0  0  0  0  0  0  0  0  0  0
   26.4802  -19.8342   -8.8546 O   0  0  0  0  0  0  0  0  0  0  0  0
   26.1666  -19.0354   -7.7825 O   0  0  0  0  0  0  0  0  0  0  0  0
  2 10  1  0
  2  1  1  6
  3  4  1  0
  3  2  1  0
  4  9  2  0
  5  6  2  0
  5  4  1  0
  6  7  1  0
  7  8  2  0
  9  8  1  0
 10 20  1  0
 11 10  2  0
 13 15  1  0
 13 12  1  0
 14 13  2  0
 16 17  1  0
 16 15  1  0
 17 18  1  0
 19 18  1  1
 19 21  1  0
 20 19  1  0
 21 22  2  0
 21 23  1  0
 23 27  1  0
 24 23  1  0
 25 26  1  0
 25 24  1  0
 26 27  1  0
 27 28  1  1
 28 30  2  0
 28 29  1  0
M  END
$$$$
