FRP.pdb
     RDKit          3D

 30 31  0  0  1  0  0  0  0  0999 V2000
   21.6006  -19.8166  -11.1006 N   0  0  0  0  0  0  0  0  0  0  0  0
   22.4909  -20.8750  -11.4630 C   0  0  1  0  0  0  0  0  0  0  0  0
   22.0025  -21.7168  -12.5926 C   0  0  0  0  0  0  0  0  0  0  0  0
   20.6707  -22.2806  -12.1704 C   0  0  0  0  0  0  0  0  0  0  0  0
   19.5408  -21.9893  -12.8741 C   0  0  0  0  0  0  0  0  0  0  0  0
   18.3307  -22.5291  -12.4531 C   0  0  0  0  0  0  0  0  0  0  0  0
   18.2840  -23.3426  -11.3436 C   0  0  0  0  0  0  0  0  0  0  0  0
   19.4508  -23.6188  -10.6507 C   0  0  0  0  0  0  0  0  0  0  0  0
   20.6623  -23.0897  -11.0567 C   0  0  0  0  0  0  0  0  0  0  0  0
   23.8533  -20.3577  -11.8193 C   0  0  0  0  0  0  0  0  0  0  0  0
   24.0009  -19.2030  -12.2913 O   0  0  0  0  0  0  0  0  0  0  0  0
   31.0887  -23.1499  -12.1134 N   0  0  0  0  0  0  0  0  0  0  0  0
   31.7592  -22.2949  -11.2120 C   0  0  0  0  0  0  0  0  0  0  0  0
   33.0435  -22.1313  -11.1822 N   0  0  0  0  0  0  0  0  0  0  0  0
   31.0007  -21.5592  -10.2722 N   0  0  0  0  0  0  0  0  0  0  0  0
   29.6003  -21.6871  -10.0681 C   0  0  0  0  0  0  0  0  0  0  0  0
   28.7449  -21.0983  -11.1690 C   0  0  0  0  0  0  0  0  0  0  0  0
   27.2864  -21.3437  -10.8545 C   0  0  0  0  0  0  0  0  0  0  0  0
   26.3355  -20.6938  -11.8133 C   0  0  2  0  0  0  0  0  0  0  0  0
   24.9767  -21.1983  -11.6145 N   0  0  0  0  0  0  0  0  0  0  0  0
   26.8014  -21.0931  -13.1898 C   0  0  0  0  0  0  0  0  0  0  0  0
   26.6334  -22.3128  -13.4887 O   0  0  0  0  0  0  0  0  0  0  0  0
   33.3946  -21.4837  -10.4184 N   0  0  0  0  0  0  0  0  0  0  0  0
   27.3829  -20.1872  -14.0929 C   0  0  0  0  0  0  0  0  0  0  0  0
   27.8963  -18.8626  -13.8659 C   0  0  0  0  0  0  0  0  0  0  0  0
   27.5578  -18.1339  -15.1805 C   0  0  0  0  0  0  0  0  0  0  0  0
   27.9649  -19.1936  -16.1778 C   0  0  2  0  0  0  0  0  0  0  0  0
   27.5575  -20.4707  -15.5161 C   0  0  0  0  0  0  0  0  0  0  0  0
   28.5347  -21.5738  -15.7130 O   0  0  0  0  0  0  0  0  0  0  0  0
   28.4358  -22.3905  -16.8126 O   0  0  0  0  0  0  0  0  0  0  0  0
  2 10  1  0
  2  1  1  6
  3  4  1  0
  3  2  1  0
  4  9  2  0
  5  6  2  0
  5  4  1  0
  6  7  1  0
  7  8  2  0
  9  8  1  0
 10 20  1  0
 11 10  2  0
 13 15  1  0
 13 12  1  0
 14 13  2  0
 16 17  1  0
 16 15  1  0
 17 18  1  0
 19 18  1  1
 19 21  1  0
 20 19  1  0
 21 22  2  0
 21 23  1  0
 23 27  1  0
 24 23  1  0
 25 26  1  0
 25 24  1  0
 26 27  1  0
 27 28  1  6
 28 30  2  0
 28 29  1  0
M  END
$$$$
