FRP.pdb
     RDKit          3D

 30 31  0  0  1  0  0  0  0  0999 V2000
   29.6450  -22.8373  -16.7099 N   0  0  0  0  0  0  0  0  0  0  0  0
   28.8327  -21.6918  -16.4409 C   0  0  1  0  0  0  0  0  0  0  0  0
   28.3111  -21.0187  -17.6649 C   0  0  0  0  0  0  0  0  0  0  0  0
   28.9056  -19.6345  -17.6865 C   0  0  0  0  0  0  0  0  0  0  0  0
   30.1032  -19.4046  -18.2945 C   0  0  0  0  0  0  0  0  0  0  0  0
   30.6187  -18.1133  -18.2936 C   0  0  0  0  0  0  0  0  0  0  0  0
   29.9246  -17.0911  -17.6867 C   0  0  0  0  0  0  0  0  0  0  0  0
   28.7101  -17.3587  -17.0776 C   0  0  0  0  0  0  0  0  0  0  0  0
   28.1839  -18.6376  -17.0699 C   0  0  0  0  0  0  0  0  0  0  0  0
   27.6666  -22.0320  -15.5604 C   0  0  0  0  0  0  0  0  0  0  0  0
   27.1032  -23.1517  -15.6413 O   0  0  0  0  0  0  0  0  0  0  0  0
   22.8799  -20.2967   -8.3343 N   0  0  0  0  0  0  0  0  0  0  0  0
   22.5819  -21.2874   -9.2948 C   0  0  0  0  0  0  0  0  0  0  0  0
   21.4757  -21.9600   -9.3279 N   0  0  0  0  0  0  0  0  0  0  0  0
   23.5371  -21.5814  -10.2953 N   0  0  0  0  0  0  0  0  0  0  0  0
   24.7817  -20.9162  -10.4619 C   0  0  0  0  0  0  0  0  0  0  0  0
   24.9503  -20.2151  -11.7924 C   0  0  0  0  0  0  0  0  0  0  0  0
   26.2475  -20.6583  -12.4304 C   0  0  0  0  0  0  0  0  0  0  0  0
   26.0766  -21.3486  -13.7495 C   0  0  2  0  0  0  0  0  0  0  0  0
   27.2082  -21.0633  -14.6319 N   0  0  0  0  0  0  0  0  0  0  0  0
   24.8291  -20.7649  -14.3613 C   0  0  0  0  0  0  0  0  0  0  0  0
   24.8863  -19.5304  -14.6407 O   0  0  0  0  0  0  0  0  0  0  0  0
   21.3706  -22.6079  -10.1618 N   0  0  0  0  0  0  0  0  0  0  0  0
   23.6736  -21.5238  -14.6128 C   0  0  0  0  0  0  0  0  0  0  0  0
   23.4044  -22.9097  -14.3367 C   0  0  0  0  0  0  0  0  0  0  0  0
   22.5066  -23.3264  -15.5174 C   0  0  0  0  0  0  0  0  0  0  0  0
   21.5817  -22.1327  -15.5750 C   0  0  2  0  0  0  0  0  0  0  0  0
   22.4787  -20.9803  -15.2555 C   0  0  0  0  0  0  0  0  0  0  0  0
   21.8374  -19.9581  -14.3870 O   0  0  0  0  0  0  0  0  0  0  0  0
   20.8354  -19.1632  -14.8870 O   0  0  0  0  0  0  0  0  0  0  0  0
  2 10  1  0
  2  1  1  6
  3  4  1  0
  3  2  1  0
  4  9  2  0
  5  6  2  0
  5  4  1  0
  6  7  1  0
  7  8  2  0
  9  8  1  0
 10 20  1  0
 11 10  2  0
 13 15  1  0
 13 12  1  0
 14 13  2  0
 16 17  1  0
 16 15  1  0
 17 18  1  0
 19 18  1  1
 19 21  1  0
 20 19  1  0
 21 22  2  0
 21 23  1  0
 23 27  1  0
 24 23  1  0
 25 26  1  0
 25 24  1  0
 26 27  1  0
 27 28  1  6
 28 30  2  0
 28 29  1  0
M  END
$$$$
