FRP.pdb
     RDKit          3D

 30 31  0  0  1  0  0  0  0  0999 V2000
   27.9204  -21.6913   -8.4177 N   0  0  0  0  0  0  0  0  0  0  0  0
   27.0489  -20.6682   -8.9056 C   0  0  1  0  0  0  0  0  0  0  0  0
   27.3675  -19.3055   -8.3910 C   0  0  0  0  0  0  0  0  0  0  0  0
   27.4563  -19.4170   -6.8911 C   0  0  0  0  0  0  0  0  0  0  0  0
   26.4567  -20.0108   -6.1805 C   0  0  0  0  0  0  0  0  0  0  0  0
   26.5755  -20.0948   -4.7978 C   0  0  0  0  0  0  0  0  0  0  0  0
   27.6869  -19.5843   -4.1660 C   0  0  0  0  0  0  0  0  0  0  0  0
   28.6848  -18.9871   -4.9178 C   0  0  0  0  0  0  0  0  0  0  0  0
   28.5816  -18.8957   -6.2939 C   0  0  0  0  0  0  0  0  0  0  0  0
   27.0415  -20.6129  -10.4048 C   0  0  0  0  0  0  0  0  0  0  0  0
   28.1152  -20.5360  -11.0520 O   0  0  0  0  0  0  0  0  0  0  0  0
   23.4485  -26.4083  -13.4891 N   0  0  0  0  0  0  0  0  0  0  0  0
   23.3008  -25.4455  -14.5110 C   0  0  0  0  0  0  0  0  0  0  0  0
   22.1888  -25.2051  -15.1296 N   0  0  0  0  0  0  0  0  0  0  0  0
   24.4254  -24.6821  -14.9011 N   0  0  0  0  0  0  0  0  0  0  0  0
   25.1788  -23.8348  -14.0446 C   0  0  0  0  0  0  0  0  0  0  0  0
   24.9976  -22.3544  -14.3013 C   0  0  0  0  0  0  0  0  0  0  0  0
   24.6804  -21.6561  -12.9982 C   0  0  0  0  0  0  0  0  0  0  0  0
   25.7396  -20.6985  -12.5431 C   0  0  2  0  0  0  0  0  0  0  0  0
   25.7962  -20.6476  -11.0820 N   0  0  0  0  0  0  0  0  0  0  0  0
   25.3197  -19.3453  -13.0566 C   0  0  0  0  0  0  0  0  0  0  0  0
   24.3214  -18.8275  -12.4730 O   0  0  0  0  0  0  0  0  0  0  0  0
   22.2679  -24.5348  -15.9484 N   0  0  0  0  0  0  0  0  0  0  0  0
   25.9798  -18.6882  -14.1087 C   0  0  0  0  0  0  0  0  0  0  0  0
   27.1280  -19.0969  -14.8730 C   0  0  0  0  0  0  0  0  0  0  0  0
   27.8414  -17.7619  -15.1603 C   0  0  0  0  0  0  0  0  0  0  0  0
   26.6537  -16.9089  -15.5413 C   0  0  2  0  0  0  0  0  0  0  0  0
   25.5755  -17.3796  -14.6190 C   0  0  0  0  0  0  0  0  0  0  0  0
   24.2401  -17.4616  -15.2676 O   0  0  0  0  0  0  0  0  0  0  0  0
   23.8015  -18.6544  -15.7877 O   0  0  0  0  0  0  0  0  0  0  0  0
  2 10  1  0
  2  1  1  6
  3  4  1  0
  3  2  1  0
  4  9  2  0
  5  6  2  0
  5  4  1  0
  6  7  1  0
  7  8  2  0
  9  8  1  0
 10 20  1  0
 11 10  2  0
 13 15  1  0
 13 12  1  0
 14 13  2  0
 16 17  1  0
 16 15  1  0
 17 18  1  0
 19 18  1  1
 19 21  1  0
 20 19  1  0
 21 22  2  0
 21 23  1  0
 23 27  1  0
 24 23  1  0
 25 26  1  0
 25 24  1  0
 26 27  1  0
 27 28  1  6
 28 30  2  0
 28 29  1  0
M  END
$$$$
