YYC.pdb
     RDKit          3D

 31 32  0  0  1  0  0  0  0  0999 V2000
   16.3736  -28.9763   12.9009 O   0  0  0  0  0  0  0  0  0  0  0  0
   15.5732  -28.1472   13.6494 C   0  0  0  0  0  0  0  0  0  0  0  0
   16.0298  -26.8696   13.9499 C   0  0  0  0  0  0  0  0  0  0  0  0
   15.2225  -26.0325   14.7053 C   0  0  0  0  0  0  0  0  0  0  0  0
   13.9727  -26.4145   15.1757 C   0  0  0  0  0  0  0  0  0  0  0  0
   13.0842  -25.5575   15.9943 C   0  0  0  0  0  0  0  0  0  0  0  0
   11.8726  -25.2358   15.1287 C   0  0  2  0  0  0  0  0  0  0  0  0
   12.3816  -24.2585   14.1384 N   0  0  0  0  0  0  0  0  0  0  0  0
   10.8370  -24.5111   15.9004 C   0  0  0  0  0  0  0  0  0  0  0  0
   10.9295  -23.2626   15.9958 O   0  0  0  0  0  0  0  0  0  0  0  0
   13.5857  -27.6917   14.8393 C   0  0  0  0  0  0  0  0  0  0  0  0
   14.3451  -28.5711   14.0920 C   0  0  0  0  0  0  0  0  0  0  0  0
    6.9993  -20.9008   12.1414 O   0  0  0  0  0  0  0  0  0  0  0  0
    7.1203  -21.6895   13.2903 C   0  0  0  0  0  0  0  0  0  0  0  0
    7.4998  -23.0121   13.1326 C   0  0  0  0  0  0  0  0  0  0  0  0
    7.6298  -23.8327   14.2393 C   0  0  0  0  0  0  0  0  0  0  0  0
    7.3886  -23.3648   15.5005 C   0  0  0  0  0  0  0  0  0  0  0  0
    7.4731  -24.1370   16.7232 C   0  0  0  0  0  0  0  0  0  0  0  0
    8.7815  -24.3866   17.3531 C   0  0  2  0  0  0  0  0  0  0  0  0
    9.7321  -25.0990   16.5557 N   0  0  0  0  0  0  0  0  0  0  0  0
    8.7264  -24.8750   18.7482 C   0  0  0  0  0  0  0  0  0  0  0  0
    9.0176  -26.0829   18.9334 O   0  0  0  0  0  0  0  0  0  0  0  0
    7.0079  -22.0231   15.6257 C   0  0  0  0  0  0  0  0  0  0  0  0
    6.8756  -21.1948   14.5319 C   0  0  0  0  0  0  0  0  0  0  0  0
    8.3712  -24.0656   19.8574 N   0  0  0  0  0  0  0  0  0  0  0  0
    8.3650  -24.4922   21.2155 C   0  0  1  0  0  0  0  0  0  0  0  0
    8.7926  -23.3443   22.1481 C   0  0  0  0  0  0  0  0  0  0  0  0
   10.2875  -22.6138   21.4380 S   0  0  0  0  0  0  0  0  0  0  0  0
    7.0983  -25.0872   21.6649 C   0  0  0  0  0  0  0  0  0  0  0  0
    7.0705  -25.7305   22.9000 O   0  0  0  0  0  0  0  0  0  0  0  0
    6.0210  -25.0625   21.0191 O   0  0  0  0  0  0  0  0  0  0  0  0
  2  3  2  0
  2  1  1  0
  4  3  1  0
  5  4  2  0
  6  5  1  0
  7  6  1  0
  7  8  1  6
  9  7  1  0
  9 10  2  0
 11  5  1  0
 11 12  2  0
 12  2  1  0
 13 14  1  0
 14 15  2  0
 15 16  1  0
 17 16  2  0
 17 18  1  0
 19 18  1  6
 19 20  1  0
 20  9  1  0
 21 19  1  0
 22 21  2  0
 23 17  1  0
 24 14  1  0
 24 23  2  0
 25 21  1  0
 26 25  1  0
 26 27  1  1
 27 28  1  0
 29 30  1  0
 29 26  1  0
 31 29  2  0
M  END
$$$$
