YYC.pdb
     RDKit          3D

 31 32  0  0  1  0  0  0  0  0999 V2000
    9.8320  -25.4323   15.9454 O   0  0  0  0  0  0  0  0  0  0  0  0
   11.1579  -25.5985   16.2662 C   0  0  0  0  0  0  0  0  0  0  0  0
   11.7865  -26.7876   15.9166 C   0  0  0  0  0  0  0  0  0  0  0  0
   13.1244  -26.9557   16.2401 C   0  0  0  0  0  0  0  0  0  0  0  0
   13.8678  -25.9850   16.8993 C   0  0  0  0  0  0  0  0  0  0  0  0
   15.2936  -26.1280   17.2738 C   0  0  0  0  0  0  0  0  0  0  0  0
   16.1026  -25.4674   16.1647 C   0  0  2  0  0  0  0  0  0  0  0  0
   15.9934  -26.4075   15.0249 N   0  0  0  0  0  0  0  0  0  0  0  0
   17.5438  -25.4239   16.5026 C   0  0  0  0  0  0  0  0  0  0  0  0
   18.2187  -26.4745   16.3713 O   0  0  0  0  0  0  0  0  0  0  0  0
   13.1809  -24.8344   17.2133 C   0  0  0  0  0  0  0  0  0  0  0  0
   11.8501  -24.6093   16.9190 C   0  0  0  0  0  0  0  0  0  0  0  0
   21.1041  -24.9673   11.0686 O   0  0  0  0  0  0  0  0  0  0  0  0
   20.9503  -24.5873   12.4060 C   0  0  0  0  0  0  0  0  0  0  0  0
   21.9054  -25.0108   13.3151 C   0  0  0  0  0  0  0  0  0  0  0  0
   21.7945  -24.6630   14.6500 C   0  0  0  0  0  0  0  0  0  0  0  0
   20.7514  -23.9031   15.0997 C   0  0  0  0  0  0  0  0  0  0  0  0
   20.5251  -23.4990   16.4723 C   0  0  0  0  0  0  0  0  0  0  0  0
   19.6317  -24.2872   17.3391 C   0  0  2  0  0  0  0  0  0  0  0  0
   18.2494  -24.2928   16.9699 N   0  0  0  0  0  0  0  0  0  0  0  0
   19.8338  -24.0967   18.7920 C   0  0  0  0  0  0  0  0  0  0  0  0
   20.9884  -24.3207   19.2335 O   0  0  0  0  0  0  0  0  0  0  0  0
   19.8036  -23.4902   14.1552 C   0  0  0  0  0  0  0  0  0  0  0  0
   19.9028  -23.8289   12.8228 C   0  0  0  0  0  0  0  0  0  0  0  0
   18.8135  -23.6832   19.6861 N   0  0  0  0  0  0  0  0  0  0  0  0
   18.9735  -23.5116   21.0902 C   0  0  1  0  0  0  0  0  0  0  0  0
   17.6257  -23.1759   21.7543 C   0  0  0  0  0  0  0  0  0  0  0  0
   17.9891  -22.6080   23.4330 S   0  0  0  0  0  0  0  0  0  0  0  0
   19.6280  -24.6361   21.7741 C   0  0  0  0  0  0  0  0  0  0  0  0
   18.9361  -25.8405   21.8785 O   0  0  0  0  0  0  0  0  0  0  0  0
   20.7778  -24.6022   22.2791 O   0  0  0  0  0  0  0  0  0  0  0  0
  2  3  2  0
  2  1  1  0
  4  3  1  0
  5  4  2  0
  6  5  1  0
  7  6  1  0
  7  8  1  6
  9  7  1  0
  9 10  2  0
 11  5  1  0
 11 12  2  0
 12  2  1  0
 13 14  1  0
 14 15  2  0
 15 16  1  0
 17 16  2  0
 17 18  1  0
 19 18  1  6
 19 20  1  0
 20  9  1  0
 21 19  1  0
 22 21  2  0
 23 17  1  0
 24 14  1  0
 24 23  2  0
 25 21  1  0
 26 25  1  0
 26 27  1  1
 27 28  1  0
 29 30  1  0
 29 26  1  0
 31 29  2  0
M  END
$$$$
