YYC.pdb
     RDKit          3D

 31 32  0  0  1  0  0  0  0  0999 V2000
   -0.8881  -19.9077   20.9965 O   0  0  0  0  0  0  0  0  0  0  0  0
    0.3830  -19.7115   21.4805 C   0  0  0  0  0  0  0  0  0  0  0  0
    1.3106  -19.0583   20.6778 C   0  0  0  0  0  0  0  0  0  0  0  0
    2.5934  -18.8601   21.1657 C   0  0  0  0  0  0  0  0  0  0  0  0
    2.9941  -19.2853   22.4259 C   0  0  0  0  0  0  0  0  0  0  0  0
    4.3554  -19.1047   22.9809 C   0  0  0  0  0  0  0  0  0  0  0  0
    5.1679  -18.3837   21.9129 C   0  0  2  0  0  0  0  0  0  0  0  0
    5.4758  -19.4363   20.9169 N   0  0  0  0  0  0  0  0  0  0  0  0
    6.4805  -17.9446   22.4401 C   0  0  0  0  0  0  0  0  0  0  0  0
    7.4200  -18.7770   22.4684 O   0  0  0  0  0  0  0  0  0  0  0  0
    2.0238  -19.9232   23.1646 C   0  0  0  0  0  0  0  0  0  0  0  0
    0.7313  -20.1509   22.7332 C   0  0  0  0  0  0  0  0  0  0  0  0
    8.8924  -12.3915   18.2735 O   0  0  0  0  0  0  0  0  0  0  0  0
    8.7695  -13.0070   19.5237 C   0  0  0  0  0  0  0  0  0  0  0  0
    7.7198  -12.6171   20.3386 C   0  0  0  0  0  0  0  0  0  0  0  0
    7.5588  -13.1949   21.5858 C   0  0  0  0  0  0  0  0  0  0  0  0
    8.4219  -14.1524   22.0398 C   0  0  0  0  0  0  0  0  0  0  0  0
    8.3613  -14.8069   23.3306 C   0  0  0  0  0  0  0  0  0  0  0  0
    8.0669  -16.2480   23.4176 C   0  0  2  0  0  0  0  0  0  0  0  0
    6.7859  -16.6540   22.9266 N   0  0  0  0  0  0  0  0  0  0  0  0
    8.4122  -16.8851   24.7071 C   0  0  0  0  0  0  0  0  0  0  0  0
    7.6794  -16.6035   25.6879 O   0  0  0  0  0  0  0  0  0  0  0  0
    9.4717  -14.5249   21.1912 C   0  0  0  0  0  0  0  0  0  0  0  0
    9.6429  -13.9580   19.9465 C   0  0  0  0  0  0  0  0  0  0  0  0
    9.5016  -17.7760   24.8839 N   0  0  0  0  0  0  0  0  0  0  0  0
    9.9550  -18.2789   26.1361 C   0  0  1  0  0  0  0  0  0  0  0  0
   10.4219  -19.7396   25.9988 C   0  0  0  0  0  0  0  0  0  0  0  0
    9.0207  -20.6850   25.3541 S   0  0  0  0  0  0  0  0  0  0  0  0
   10.9861  -17.4592   26.7882 C   0  0  0  0  0  0  0  0  0  0  0  0
   11.4894  -17.8823   28.0162 O   0  0  0  0  0  0  0  0  0  0  0  0
   11.4603  -16.3928   26.3231 O   0  0  0  0  0  0  0  0  0  0  0  0
  2  3  2  0
  2  1  1  0
  4  3  1  0
  5  4  2  0
  6  5  1  0
  7  6  1  0
  7  8  1  6
  9  7  1  0
  9 10  2  0
 11  5  1  0
 11 12  2  0
 12  2  1  0
 13 14  1  0
 14 15  2  0
 15 16  1  0
 17 16  2  0
 17 18  1  0
 19 18  1  1
 19 20  1  0
 20  9  1  0
 21 19  1  0
 22 21  2  0
 23 17  1  0
 24 14  1  0
 24 23  2  0
 25 21  1  0
 26 25  1  0
 26 27  1  6
 27 28  1  0
 29 30  1  0
 29 26  1  0
 31 29  2  0
M  END
$$$$
