YYC.pdb
     RDKit          3D

 31 32  0  0  1  0  0  0  0  0999 V2000
    7.5284  -11.0505   26.9735 O   0  0  0  0  0  0  0  0  0  0  0  0
    7.4816  -12.4229   27.0266 C   0  0  0  0  0  0  0  0  0  0  0  0
    8.6757  -13.1336   27.0115 C   0  0  0  0  0  0  0  0  0  0  0  0
    8.6291  -14.5185   27.0650 C   0  0  0  0  0  0  0  0  0  0  0  0
    7.4382  -15.2300   27.1347 C   0  0  0  0  0  0  0  0  0  0  0  0
    7.3427  -16.7073   27.1817 C   0  0  0  0  0  0  0  0  0  0  0  0
    6.4816  -17.1250   25.9964 C   0  0  2  0  0  0  0  0  0  0  0  0
    6.4259  -18.6025   26.0894 N   0  0  0  0  0  0  0  0  0  0  0  0
    7.1587  -16.8367   24.7111 C   0  0  0  0  0  0  0  0  0  0  0  0
    8.1109  -17.5759   24.3602 O   0  0  0  0  0  0  0  0  0  0  0  0
    6.2967  -14.4612   27.1465 C   0  0  0  0  0  0  0  0  0  0  0  0
    6.2791  -13.0809   27.0941 C   0  0  0  0  0  0  0  0  0  0  0  0
    8.8762  -13.4574   16.5524 O   0  0  0  0  0  0  0  0  0  0  0  0
    8.3940  -13.7102   17.8409 C   0  0  0  0  0  0  0  0  0  0  0  0
    7.8576  -14.9606   18.0994 C   0  0  0  0  0  0  0  0  0  0  0  0
    7.3648  -15.2569   19.3583 C   0  0  0  0  0  0  0  0  0  0  0  0
    7.3933  -14.3337   20.3656 C   0  0  0  0  0  0  0  0  0  0  0  0
    6.8886  -14.5274   21.7095 C   0  0  0  0  0  0  0  0  0  0  0  0
    7.5377  -15.4938   22.6126 C   0  0  2  0  0  0  0  0  0  0  0  0
    6.8329  -15.7880   23.8224 N   0  0  0  0  0  0  0  0  0  0  0  0
    8.9844  -15.2772   22.8329 C   0  0  0  0  0  0  0  0  0  0  0  0
    9.3034  -14.3011   23.5564 O   0  0  0  0  0  0  0  0  0  0  0  0
    7.9430  -13.0797   20.0718 C   0  0  0  0  0  0  0  0  0  0  0  0
    8.4380  -12.7720   18.8227 C   0  0  0  0  0  0  0  0  0  0  0  0
   10.0011  -16.0981   22.2816 N   0  0  0  0  0  0  0  0  0  0  0  0
   11.3983  -15.8362   22.3584 C   0  0  1  0  0  0  0  0  0  0  0  0
   12.0446  -16.6588   23.4880 C   0  0  0  0  0  0  0  0  0  0  0  0
   11.1251  -16.2929   25.0024 S   0  0  0  0  0  0  0  0  0  0  0  0
   12.1263  -16.0202   21.0948 C   0  0  0  0  0  0  0  0  0  0  0  0
   13.4864  -15.7210   21.0649 O   0  0  0  0  0  0  0  0  0  0  0  0
   11.6173  -16.4325   20.0229 O   0  0  0  0  0  0  0  0  0  0  0  0
  2  3  2  0
  2  1  1  0
  4  3  1  0
  5  4  2  0
  6  5  1  0
  7  6  1  0
  7  8  1  1
  9  7  1  0
  9 10  2  0
 11  5  1  0
 11 12  2  0
 12  2  1  0
 13 14  1  0
 14 15  2  0
 15 16  1  0
 17 16  2  0
 17 18  1  0
 19 18  1  1
 19 20  1  0
 20  9  1  0
 21 19  1  0
 22 21  2  0
 23 17  1  0
 24 14  1  0
 24 23  2  0
 25 21  1  0
 26 25  1  0
 26 27  1  1
 27 28  1  0
 29 30  1  0
 29 26  1  0
 31 29  2  0
M  END
$$$$
