YYC.pdb
     RDKit          3D

 31 32  0  0  1  0  0  0  0  0999 V2000
    8.7426  -12.6297   15.9366 O   0  0  0  0  0  0  0  0  0  0  0  0
    8.2987  -13.0434   17.1696 C   0  0  0  0  0  0  0  0  0  0  0  0
    6.9924  -13.5018   17.2907 C   0  0  0  0  0  0  0  0  0  0  0  0
    6.5440  -13.9194   18.5347 C   0  0  0  0  0  0  0  0  0  0  0  0
    7.3452  -13.9014   19.6692 C   0  0  0  0  0  0  0  0  0  0  0  0
    6.9035  -14.3267   21.0174 C   0  0  0  0  0  0  0  0  0  0  0  0
    7.2743  -15.7981   21.1521 C   0  0  2  0  0  0  0  0  0  0  0  0
    6.1675  -16.5158   20.4778 N   0  0  0  0  0  0  0  0  0  0  0  0
    7.2257  -16.2383   22.5653 C   0  0  0  0  0  0  0  0  0  0  0  0
    6.1141  -16.2460   23.1492 O   0  0  0  0  0  0  0  0  0  0  0  0
    8.6258  -13.4363   19.4743 C   0  0  0  0  0  0  0  0  0  0  0  0
    9.1289  -13.0061   18.2618 C   0  0  0  0  0  0  0  0  0  0  0  0
    9.5099  -19.1058   30.7592 O   0  0  0  0  0  0  0  0  0  0  0  0
    9.3761  -18.8428   29.3919 C   0  0  0  0  0  0  0  0  0  0  0  0
    8.1089  -18.9155   28.8379 C   0  0  0  0  0  0  0  0  0  0  0  0
    7.9267  -18.6668   27.4888 C   0  0  0  0  0  0  0  0  0  0  0  0
    8.9801  -18.3484   26.6785 C   0  0  0  0  0  0  0  0  0  0  0  0
    8.9086  -18.0901   25.2549 C   0  0  0  0  0  0  0  0  0  0  0  0
    8.3137  -16.8370   24.7582 C   0  0  2  0  0  0  0  0  0  0  0  0
    8.3309  -16.6578   23.3388 N   0  0  0  0  0  0  0  0  0  0  0  0
    8.7112  -15.6160   25.4926 C   0  0  0  0  0  0  0  0  0  0  0  0
    9.8760  -15.1914   25.2896 O   0  0  0  0  0  0  0  0  0  0  0  0
   10.2478  -18.2820   27.2697 C   0  0  0  0  0  0  0  0  0  0  0  0
   10.4429  -18.5265   28.6121 C   0  0  0  0  0  0  0  0  0  0  0  0
    7.8620  -14.9199   26.3903 N   0  0  0  0  0  0  0  0  0  0  0  0
    8.2354  -13.7778   27.1537 C   0  0  1  0  0  0  0  0  0  0  0  0
    6.9935  -12.9586   27.5497 C   0  0  0  0  0  0  0  0  0  0  0  0
    5.9780  -12.7837   26.0628 S   0  0  0  0  0  0  0  0  0  0  0  0
    9.0651  -14.0723   28.3307 C   0  0  0  0  0  0  0  0  0  0  0  0
    9.6568  -13.0078   29.0065 O   0  0  0  0  0  0  0  0  0  0  0  0
    9.2877  -15.2216   28.7866 O   0  0  0  0  0  0  0  0  0  0  0  0
  2  3  2  0
  2  1  1  0
  4  3  1  0
  5  4  2  0
  6  5  1  0
  7  6  1  0
  7  8  1  6
  9  7  1  0
  9 10  2  0
 11  5  1  0
 11 12  2  0
 12  2  1  0
 13 14  1  0
 14 15  2  0
 15 16  1  0
 17 16  2  0
 17 18  1  0
 19 18  1  6
 19 20  1  0
 20  9  1  0
 21 19  1  0
 22 21  2  0
 23 17  1  0
 24 14  1  0
 24 23  2  0
 25 21  1  0
 26 25  1  0
 26 27  1  1
 27 28  1  0
 29 30  1  0
 29 26  1  0
 31 29  2  0
M  END
$$$$
