YYC.pdb
     RDKit          3D

 31 32  0  0  1  0  0  0  0  0999 V2000
   11.3242  -20.4892   14.8043 O   0  0  0  0  0  0  0  0  0  0  0  0
   11.2847  -19.9662   16.0744 C   0  0  0  0  0  0  0  0  0  0  0  0
   12.3178  -19.1333   16.4870 C   0  0  0  0  0  0  0  0  0  0  0  0
   12.2784  -18.6053   17.7686 C   0  0  0  0  0  0  0  0  0  0  0  0
   11.2483  -18.8713   18.6616 C   0  0  0  0  0  0  0  0  0  0  0  0
   11.1730  -18.3385   20.0415 C   0  0  0  0  0  0  0  0  0  0  0  0
    9.8877  -17.5247   20.1235 C   0  0  2  0  0  0  0  0  0  0  0  0
   10.0170  -16.5289   19.0343 N   0  0  0  0  0  0  0  0  0  0  0  0
    9.8300  -16.7345   21.3747 C   0  0  0  0  0  0  0  0  0  0  0  0
   10.8649  -16.6616   22.0819 O   0  0  0  0  0  0  0  0  0  0  0  0
   10.2602  -19.7025   18.1850 C   0  0  0  0  0  0  0  0  0  0  0  0
   10.2447  -20.2593   16.9208 C   0  0  0  0  0  0  0  0  0  0  0  0
    6.7413  -11.9000   28.2684 O   0  0  0  0  0  0  0  0  0  0  0  0
    6.9430  -12.5064   27.0241 C   0  0  0  0  0  0  0  0  0  0  0  0
    6.3216  -13.7210   26.7858 C   0  0  0  0  0  0  0  0  0  0  0  0
    6.4937  -14.3612   25.5710 C   0  0  0  0  0  0  0  0  0  0  0  0
    7.2729  -13.8183   24.5882 C   0  0  0  0  0  0  0  0  0  0  0  0
    7.5389  -14.4085   23.2923 C   0  0  0  0  0  0  0  0  0  0  0  0
    8.6288  -15.3871   23.1333 C   0  0  2  0  0  0  0  0  0  0  0  0
    8.7002  -16.0408   21.8627 N   0  0  0  0  0  0  0  0  0  0  0  0
    8.8079  -16.3208   24.2666 C   0  0  0  0  0  0  0  0  0  0  0  0
    7.9591  -17.2402   24.3776 O   0  0  0  0  0  0  0  0  0  0  0  0
    7.8861  -12.5892   24.8604 C   0  0  0  0  0  0  0  0  0  0  0  0
    7.7222  -11.9407   26.0656 C   0  0  0  0  0  0  0  0  0  0  0  0
    9.8648  -16.2304   25.2080 N   0  0  0  0  0  0  0  0  0  0  0  0
   10.1049  -17.1556   26.2629 C   0  0  1  0  0  0  0  0  0  0  0  0
   11.2653  -18.1014   25.9032 C   0  0  0  0  0  0  0  0  0  0  0  0
   12.7382  -17.0737   25.6857 S   0  0  0  0  0  0  0  0  0  0  0  0
   10.3207  -16.5402   27.5801 C   0  0  0  0  0  0  0  0  0  0  0  0
   10.4105  -17.3729   28.6931 O   0  0  0  0  0  0  0  0  0  0  0  0
   10.4343  -15.3067   27.7898 O   0  0  0  0  0  0  0  0  0  0  0  0
  2  3  2  0
  2  1  1  0
  4  3  1  0
  5  4  2  0
  6  5  1  0
  7  6  1  0
  7  8  1  6
  9  7  1  0
  9 10  2  0
 11  5  1  0
 11 12  2  0
 12  2  1  0
 13 14  1  0
 14 15  2  0
 15 16  1  0
 17 16  2  0
 17 18  1  0
 19 18  1  1
 19 20  1  0
 20  9  1  0
 21 19  1  0
 22 21  2  0
 23 17  1  0
 24 14  1  0
 24 23  2  0
 25 21  1  0
 26 25  1  0
 26 27  1  6
 27 28  1  0
 29 30  1  0
 29 26  1  0
 31 29  2  0
M  END
$$$$
