YYC.pdb
     RDKit          3D

 31 32  0  0  1  0  0  0  0  0999 V2000
   13.4868  -21.9375   14.6740 O   0  0  0  0  0  0  0  0  0  0  0  0
   13.3749  -21.0216   15.6923 C   0  0  0  0  0  0  0  0  0  0  0  0
   14.3877  -20.0857   15.8642 C   0  0  0  0  0  0  0  0  0  0  0  0
   14.2752  -19.1612   16.8916 C   0  0  0  0  0  0  0  0  0  0  0  0
   13.1911  -19.1275   17.7593 C   0  0  0  0  0  0  0  0  0  0  0  0
   13.0368  -18.1662   18.8755 C   0  0  0  0  0  0  0  0  0  0  0  0
   11.7276  -17.4259   18.6335 C   0  0  2  0  0  0  0  0  0  0  0  0
   11.9784  -16.6336   17.4070 N   0  0  0  0  0  0  0  0  0  0  0  0
   11.4673  -16.4305   19.6988 C   0  0  0  0  0  0  0  0  0  0  0  0
   12.1667  -15.3880   19.7241 O   0  0  0  0  0  0  0  0  0  0  0  0
   12.2271  -20.0826   17.5292 C   0  0  0  0  0  0  0  0  0  0  0  0
   12.2835  -21.0290   16.5245 C   0  0  0  0  0  0  0  0  0  0  0  0
    7.1366  -13.4537   16.3296 O   0  0  0  0  0  0  0  0  0  0  0  0
    7.5526  -13.8220   17.6134 C   0  0  0  0  0  0  0  0  0  0  0  0
    8.0333  -12.8284   18.4498 C   0  0  0  0  0  0  0  0  0  0  0  0
    8.4598  -13.1443   19.7280 C   0  0  0  0  0  0  0  0  0  0  0  0
    8.4190  -14.4295   20.1910 C   0  0  0  0  0  0  0  0  0  0  0  0
    8.8571  -14.8755   21.4977 C   0  0  0  0  0  0  0  0  0  0  0  0
   10.1743  -15.5158   21.6590 C   0  0  2  0  0  0  0  0  0  0  0  0
   10.4897  -16.5413   20.7125 N   0  0  0  0  0  0  0  0  0  0  0  0
   10.5274  -15.8904   23.0457 C   0  0  0  0  0  0  0  0  0  0  0  0
   10.1249  -15.1235   23.9556 O   0  0  0  0  0  0  0  0  0  0  0  0
    7.9266  -15.4101   19.3210 C   0  0  0  0  0  0  0  0  0  0  0  0
    7.4980  -15.1088   18.0461 C   0  0  0  0  0  0  0  0  0  0  0  0
   11.2778  -17.0443   23.3878 N   0  0  0  0  0  0  0  0  0  0  0  0
   11.5322  -17.4937   24.7144 C   0  0  1  0  0  0  0  0  0  0  0  0
   10.2122  -17.7420   25.4670 C   0  0  0  0  0  0  0  0  0  0  0  0
   10.6473  -18.2024   27.1616 S   0  0  0  0  0  0  0  0  0  0  0  0
   12.4148  -18.6656   24.8055 C   0  0  0  0  0  0  0  0  0  0  0  0
   13.0364  -18.9330   26.0229 O   0  0  0  0  0  0  0  0  0  0  0  0
   12.6584  -19.4597   23.8630 O   0  0  0  0  0  0  0  0  0  0  0  0
  2  3  2  0
  2  1  1  0
  4  3  1  0
  5  4  2  0
  6  5  1  0
  7  6  1  0
  7  8  1  6
  9  7  1  0
  9 10  2  0
 11  5  1  0
 11 12  2  0
 12  2  1  0
 13 14  1  0
 14 15  2  0
 15 16  1  0
 17 16  2  0
 17 18  1  0
 19 18  1  1
 19 20  1  0
 20  9  1  0
 21 19  1  0
 22 21  2  0
 23 17  1  0
 24 14  1  0
 24 23  2  0
 25 21  1  0
 26 25  1  0
 26 27  1  6
 27 28  1  0
 29 30  1  0
 29 26  1  0
 31 29  2  0
M  END
$$$$
