YYC.pdb
     RDKit          3D

 31 32  0  0  1  0  0  0  0  0999 V2000
    8.3562  -15.5184   13.4062 O   0  0  0  0  0  0  0  0  0  0  0  0
    8.1698  -15.1880   14.7270 C   0  0  0  0  0  0  0  0  0  0  0  0
    7.6090  -16.1314   15.5796 C   0  0  0  0  0  0  0  0  0  0  0  0
    7.4208  -15.7984   16.9125 C   0  0  0  0  0  0  0  0  0  0  0  0
    7.7700  -14.5602   17.4362 C   0  0  0  0  0  0  0  0  0  0  0  0
    7.5758  -14.1596   18.8488 C   0  0  0  0  0  0  0  0  0  0  0  0
    8.8609  -14.5199   19.5833 C   0  0  2  0  0  0  0  0  0  0  0  0
    8.8757  -16.0013   19.5861 N   0  0  0  0  0  0  0  0  0  0  0  0
    8.7952  -14.1241   21.0089 C   0  0  0  0  0  0  0  0  0  0  0  0
    8.3055  -13.0038   21.2944 O   0  0  0  0  0  0  0  0  0  0  0  0
    8.3201  -13.6773   16.5350 C   0  0  0  0  0  0  0  0  0  0  0  0
    8.5310  -13.9502   15.1973 C   0  0  0  0  0  0  0  0  0  0  0  0
    6.1729  -12.3056   28.9010 O   0  0  0  0  0  0  0  0  0  0  0  0
    6.5283  -12.7715   27.6308 C   0  0  0  0  0  0  0  0  0  0  0  0
    7.2382  -11.9188   26.8020 C   0  0  0  0  0  0  0  0  0  0  0  0
    7.6095  -12.3335   25.5349 C   0  0  0  0  0  0  0  0  0  0  0  0
    7.2878  -13.5794   25.0746 C   0  0  0  0  0  0  0  0  0  0  0  0
    7.6055  -14.1087   23.7642 C   0  0  0  0  0  0  0  0  0  0  0  0
    8.9608  -14.6100   23.4761 C   0  0  2  0  0  0  0  0  0  0  0  0
    9.2406  -14.8987   22.1031 N   0  0  0  0  0  0  0  0  0  0  0  0
    9.4514  -15.6625   24.3924 C   0  0  0  0  0  0  0  0  0  0  0  0
    8.7829  -16.7251   24.4380 O   0  0  0  0  0  0  0  0  0  0  0  0
    6.5708  -14.4174   25.9375 C   0  0  0  0  0  0  0  0  0  0  0  0
    6.1956  -14.0171   27.2020 C   0  0  0  0  0  0  0  0  0  0  0  0
   10.6105  -15.5328   25.1995 N   0  0  0  0  0  0  0  0  0  0  0  0
   10.6270  -15.5670   26.6225 C   0  0  1  0  0  0  0  0  0  0  0  0
    9.9932  -14.2904   27.2047 C   0  0  0  0  0  0  0  0  0  0  0  0
   10.2447  -14.3435   28.9954 S   0  0  0  0  0  0  0  0  0  0  0  0
   10.0206  -16.7685   27.2134 C   0  0  0  0  0  0  0  0  0  0  0  0
   10.7259  -17.4467   28.2047 O   0  0  0  0  0  0  0  0  0  0  0  0
    8.9011  -17.2418   26.8956 O   0  0  0  0  0  0  0  0  0  0  0  0
  2  3  2  0
  2  1  1  0
  4  3  1  0
  5  4  2  0
  6  5  1  0
  7  6  1  0
  7  8  1  1
  9  7  1  0
  9 10  2  0
 11  5  1  0
 11 12  2  0
 12  2  1  0
 13 14  1  0
 14 15  2  0
 15 16  1  0
 17 16  2  0
 17 18  1  0
 19 18  1  6
 19 20  1  0
 20  9  1  0
 21 19  1  0
 22 21  2  0
 23 17  1  0
 24 14  1  0
 24 23  2  0
 25 21  1  0
 26 25  1  0
 26 27  1  1
 27 28  1  0
 29 30  1  0
 29 26  1  0
 31 29  2  0
M  END
$$$$
