YYC.pdb
     RDKit          3D

 31 32  0  0  1  0  0  0  0  0999 V2000
    0.5600  -20.5540   20.2381 O   0  0  0  0  0  0  0  0  0  0  0  0
    1.7847  -20.1096   20.6751 C   0  0  0  0  0  0  0  0  0  0  0  0
    2.2088  -20.4646   21.9501 C   0  0  0  0  0  0  0  0  0  0  0  0
    3.4446  -20.0165   22.3916 C   0  0  0  0  0  0  0  0  0  0  0  0
    4.2815  -19.2269   21.6134 C   0  0  0  0  0  0  0  0  0  0  0  0
    5.6021  -18.7175   22.0495 C   0  0  0  0  0  0  0  0  0  0  0  0
    6.1215  -17.8348   20.9217 C   0  0  2  0  0  0  0  0  0  0  0  0
    6.4792  -18.7898   19.8471 N   0  0  0  0  0  0  0  0  0  0  0  0
    7.3912  -17.1720   21.2982 C   0  0  0  0  0  0  0  0  0  0  0  0
    8.4677  -17.7832   21.0881 O   0  0  0  0  0  0  0  0  0  0  0  0
    3.7972  -18.9155   20.3633 C   0  0  0  0  0  0  0  0  0  0  0  0
    2.5760  -19.3305   19.8686 C   0  0  0  0  0  0  0  0  0  0  0  0
    8.2023  -12.9828   16.2390 O   0  0  0  0  0  0  0  0  0  0  0  0
    8.4009  -13.2122   17.6046 C   0  0  0  0  0  0  0  0  0  0  0  0
    9.5001  -13.9648   17.9831 C   0  0  0  0  0  0  0  0  0  0  0  0
    9.7367  -14.2214   19.3223 C   0  0  0  0  0  0  0  0  0  0  0  0
    8.9010  -13.7455   20.2933 C   0  0  0  0  0  0  0  0  0  0  0  0
    9.0399  -13.9695   21.7177 C   0  0  0  0  0  0  0  0  0  0  0  0
    8.7482  -15.2950   22.2913 C   0  0  2  0  0  0  0  0  0  0  0  0
    7.5135  -15.8927   21.8849 N   0  0  0  0  0  0  0  0  0  0  0  0
    8.9920  -15.4202   23.7449 C   0  0  0  0  0  0  0  0  0  0  0  0
   10.1193  -15.0529   24.1600 O   0  0  0  0  0  0  0  0  0  0  0  0
    7.7996  -12.9873   19.8774 C   0  0  0  0  0  0  0  0  0  0  0  0
    7.5530  -12.7236   18.5472 C   0  0  0  0  0  0  0  0  0  0  0  0
    8.0383  -15.9207   24.6677 N   0  0  0  0  0  0  0  0  0  0  0  0
    8.2393  -16.0382   26.0721 C   0  0  1  0  0  0  0  0  0  0  0  0
    6.9825  -15.5909   26.8407 C   0  0  0  0  0  0  0  0  0  0  0  0
    6.4955  -13.9831   26.1695 S   0  0  0  0  0  0  0  0  0  0  0  0
    8.6802  -17.3674   26.5186 C   0  0  0  0  0  0  0  0  0  0  0  0
    8.8565  -18.3628   25.5604 O   0  0  0  0  0  0  0  0  0  0  0  0
    8.9165  -17.6859   27.7107 O   0  0  0  0  0  0  0  0  0  0  0  0
  2  3  2  0
  2  1  1  0
  4  3  1  0
  5  4  2  0
  6  5  1  0
  7  6  1  0
  7  8  1  6
  9  7  1  0
  9 10  2  0
 11  5  1  0
 11 12  2  0
 12  2  1  0
 13 14  1  0
 14 15  2  0
 15 16  1  0
 17 16  2  0
 17 18  1  0
 19 18  1  1
 19 20  1  0
 20  9  1  0
 21 19  1  0
 22 21  2  0
 23 17  1  0
 24 14  1  0
 24 23  2  0
 25 21  1  0
 26 25  1  0
 26 27  1  1
 27 28  1  0
 29 30  1  0
 29 26  1  0
 31 29  2  0
M  END
$$$$
