YYC.pdb
     RDKit          3D

 31 32  0  0  1  0  0  0  0  0999 V2000
   10.1844  -24.0760   19.0352 O   0  0  0  0  0  0  0  0  0  0  0  0
   10.2902  -22.9392   19.7999 C   0  0  0  0  0  0  0  0  0  0  0  0
    9.1305  -22.3595   20.3002 C   0  0  0  0  0  0  0  0  0  0  0  0
    9.2367  -21.2123   21.0719 C   0  0  0  0  0  0  0  0  0  0  0  0
   10.4548  -20.6150   21.3698 C   0  0  0  0  0  0  0  0  0  0  0  0
   10.6125  -19.3847   22.1793 C   0  0  0  0  0  0  0  0  0  0  0  0
    9.9639  -18.2569   21.3867 C   0  0  2  0  0  0  0  0  0  0  0  0
   10.9259  -17.9790   20.2948 N   0  0  0  0  0  0  0  0  0  0  0  0
    9.8988  -17.0088   22.1812 C   0  0  0  0  0  0  0  0  0  0  0  0
   10.9250  -16.2882   22.2442 O   0  0  0  0  0  0  0  0  0  0  0  0
   11.5597  -21.2435   20.8421 C   0  0  0  0  0  0  0  0  0  0  0  0
   11.5176  -22.3857   20.0664 C   0  0  0  0  0  0  0  0  0  0  0  0
    6.3169  -10.3013   27.0662 O   0  0  0  0  0  0  0  0  0  0  0  0
    6.5656  -11.4189   26.2627 C   0  0  0  0  0  0  0  0  0  0  0  0
    7.3057  -11.2353   25.1066 C   0  0  0  0  0  0  0  0  0  0  0  0
    7.5750  -12.3104   24.2777 C   0  0  0  0  0  0  0  0  0  0  0  0
    7.1216  -13.5650   24.5747 C   0  0  0  0  0  0  0  0  0  0  0  0
    7.3253  -14.7535   23.7721 C   0  0  0  0  0  0  0  0  0  0  0  0
    8.6868  -15.2671   23.5408 C   0  0  2  0  0  0  0  0  0  0  0  0
    8.7719  -16.5396   22.8924 N   0  0  0  0  0  0  0  0  0  0  0  0
    9.6086  -15.1500   24.6917 C   0  0  0  0  0  0  0  0  0  0  0  0
   10.1279  -14.0225   24.8842 O   0  0  0  0  0  0  0  0  0  0  0  0
    6.3774  -13.7170   25.7511 C   0  0  0  0  0  0  0  0  0  0  0  0
    6.1029  -12.6549   26.5858 C   0  0  0  0  0  0  0  0  0  0  0  0
    9.9245  -16.2214   25.5657 N   0  0  0  0  0  0  0  0  0  0  0  0
   10.5630  -16.0867   26.8309 C   0  0  1  0  0  0  0  0  0  0  0  0
    9.8098  -15.0767   27.7156 C   0  0  0  0  0  0  0  0  0  0  0  0
   10.8349  -14.7854   29.1775 S   0  0  0  0  0  0  0  0  0  0  0  0
   10.7764  -17.3525   27.5471 C   0  0  0  0  0  0  0  0  0  0  0  0
   12.0551  -17.6382   28.0198 O   0  0  0  0  0  0  0  0  0  0  0  0
    9.8879  -18.2113   27.7737 O   0  0  0  0  0  0  0  0  0  0  0  0
  2  3  2  0
  2  1  1  0
  4  3  1  0
  5  4  2  0
  6  5  1  0
  7  6  1  0
  7  8  1  6
  9  7  1  0
  9 10  2  0
 11  5  1  0
 11 12  2  0
 12  2  1  0
 13 14  1  0
 14 15  2  0
 15 16  1  0
 17 16  2  0
 17 18  1  0
 19 18  1  1
 19 20  1  0
 20  9  1  0
 21 19  1  0
 22 21  2  0
 23 17  1  0
 24 14  1  0
 24 23  2  0
 25 21  1  0
 26 25  1  0
 26 27  1  1
 27 28  1  0
 29 30  1  0
 29 26  1  0
 31 29  2  0
M  END
$$$$
