YYC.pdb
     RDKit          3D

 31 32  0  0  1  0  0  0  0  0999 V2000
    8.1036  -14.3003   15.8008 O   0  0  0  0  0  0  0  0  0  0  0  0
    7.9085  -14.4096   17.1567 C   0  0  0  0  0  0  0  0  0  0  0  0
    7.1945  -15.4978   17.6439 C   0  0  0  0  0  0  0  0  0  0  0  0
    6.9974  -15.6086   19.0120 C   0  0  0  0  0  0  0  0  0  0  0  0
    7.4844  -14.6781   19.9211 C   0  0  0  0  0  0  0  0  0  0  0  0
    7.2870  -14.7517   21.3872 C   0  0  0  0  0  0  0  0  0  0  0  0
    8.5913  -15.2747   21.9755 C   0  0  2  0  0  0  0  0  0  0  0  0
    8.3830  -16.7377   22.0797 N   0  0  0  0  0  0  0  0  0  0  0  0
    8.7811  -14.8039   23.3668 C   0  0  0  0  0  0  0  0  0  0  0  0
    8.9293  -13.5729   23.5645 O   0  0  0  0  0  0  0  0  0  0  0  0
    8.1817  -13.6284   19.3677 C   0  0  0  0  0  0  0  0  0  0  0  0
    8.4094  -13.4631   18.0152 C   0  0  0  0  0  0  0  0  0  0  0  0
    4.7577  -11.6856   27.0668 O   0  0  0  0  0  0  0  0  0  0  0  0
    5.9892  -12.3183   26.8678 C   0  0  0  0  0  0  0  0  0  0  0  0
    7.1288  -11.6794   27.3273 C   0  0  0  0  0  0  0  0  0  0  0  0
    8.3706  -12.2645   27.1507 C   0  0  0  0  0  0  0  0  0  0  0  0
    8.5021  -13.4722   26.5247 C   0  0  0  0  0  0  0  0  0  0  0  0
    9.7486  -14.1642   26.2681 C   0  0  0  0  0  0  0  0  0  0  0  0
    9.7433  -15.4759   25.5969 C   0  0  2  0  0  0  0  0  0  0  0  0
    8.8144  -15.6213   24.5186 N   0  0  0  0  0  0  0  0  0  0  0  0
    9.7564  -16.6466   26.5010 C   0  0  0  0  0  0  0  0  0  0  0  0
    9.2438  -16.4863   27.6366 O   0  0  0  0  0  0  0  0  0  0  0  0
    7.3307  -14.0924   26.0731 C   0  0  0  0  0  0  0  0  0  0  0  0
    6.0879  -13.5210   26.2433 C   0  0  0  0  0  0  0  0  0  0  0  0
   10.3046  -17.9082   26.1553 N   0  0  0  0  0  0  0  0  0  0  0  0
    9.6752  -19.1652   26.3798 C   0  0  1  0  0  0  0  0  0  0  0  0
    8.2998  -19.2157   25.6898 C   0  0  0  0  0  0  0  0  0  0  0  0
    7.5011  -20.7523   26.2129 S   0  0  0  0  0  0  0  0  0  0  0  0
   10.4890  -20.3322   26.0106 C   0  0  0  0  0  0  0  0  0  0  0  0
   10.5835  -21.3865   26.9160 O   0  0  0  0  0  0  0  0  0  0  0  0
   11.1152  -20.4615   24.9292 O   0  0  0  0  0  0  0  0  0  0  0  0
  2  3  2  0
  2  1  1  0
  4  3  1  0
  5  4  2  0
  6  5  1  0
  7  6  1  0
  7  8  1  1
  9  7  1  0
  9 10  2  0
 11  5  1  0
 11 12  2  0
 12  2  1  0
 13 14  1  0
 14 15  2  0
 15 16  1  0
 17 16  2  0
 17 18  1  0
 19 18  1  1
 19 20  1  0
 20  9  1  0
 21 19  1  0
 22 21  2  0
 23 17  1  0
 24 14  1  0
 24 23  2  0
 25 21  1  0
 26 25  1  0
 26 27  1  6
 27 28  1  0
 29 30  1  0
 29 26  1  0
 31 29  2  0
M  END
$$$$
