MFQ.pdb
     RDKit          3D

 29 29  0  0  1  0  0  0  0  0999 V2000
    8.3194  -11.5822   20.1243 C   0  0  0  0  0  0  0  0  0  0  0  0
    7.3423  -12.6202   18.9845 S   0  0  0  0  0  0  0  0  0  0  0  0
    7.2800  -14.3033   19.6251 C   0  0  0  0  0  0  0  0  0  0  0  0
    8.3086  -14.4706   20.7192 C   0  0  0  0  0  0  0  0  0  0  0  0
    8.2113  -15.8874   21.2368 C   0  0  2  0  0  0  0  0  0  0  0  0
    6.9008  -16.3839   20.9887 N   0  0  0  0  0  0  0  0  0  0  0  0
    8.6034  -15.8693   22.6475 C   0  0  0  0  0  0  0  0  0  0  0  0
    9.8070  -15.5864   22.9611 O   0  0  0  0  0  0  0  0  0  0  0  0
    7.7180  -16.1509   23.7175 N   0  0  0  0  0  0  0  0  0  0  0  0
    8.0325  -16.2079   25.0979 C   0  0  1  0  0  0  0  0  0  0  0  0
    7.0052  -15.6410   26.0512 C   0  0  0  0  0  0  0  0  0  0  0  0
    7.0904  -14.1642   26.1309 C   0  0  0  0  0  0  0  0  0  0  0  0
    8.1776  -13.4542   26.5362 C   0  0  0  0  0  0  0  0  0  0  0  0
    8.1308  -12.0690   26.5789 C   0  0  0  0  0  0  0  0  0  0  0  0
    7.0123  -11.3696   26.2222 C   0  0  0  0  0  0  0  0  0  0  0  0
    5.9098  -12.0766   25.8113 C   0  0  0  0  0  0  0  0  0  0  0  0
    5.9491  -13.4288   25.7677 C   0  0  0  0  0  0  0  0  0  0  0  0
    8.6250  -17.4783   25.5592 C   0  0  0  0  0  0  0  0  0  0  0  0
    7.9346  -18.5230   25.7443 O   0  0  0  0  0  0  0  0  0  0  0  0
   14.7478  -19.8395   23.9828 N   0  0  0  0  0  0  0  0  0  0  0  0
   13.4587  -20.3563   23.8323 C   0  0  0  0  0  0  0  0  0  0  0  0
   13.0883  -20.8766   22.7594 O   0  0  0  0  0  0  0  0  0  0  0  0
   12.5013  -20.2826   24.9868 C   0  0  0  0  0  0  0  0  0  0  0  0
   11.7015  -19.0046   24.9180 C   0  0  0  0  0  0  0  0  0  0  0  0
   10.6484  -18.9210   25.9892 C   0  0  2  0  0  0  0  0  0  0  0  0
   10.0140  -17.6027   25.8233 N   0  0  0  0  0  0  0  0  0  0  0  0
   11.1649  -19.0330   27.3482 C   0  0  0  0  0  0  0  0  0  0  0  0
   11.2762  -18.0585   28.1179 O   0  0  0  0  0  0  0  0  0  0  0  0
   11.5660  -20.2774   27.8509 O   0  0  0  0  0  0  0  0  0  0  0  0
  2  1  1  0
  3  2  1  0
  4  3  1  0
  5  4  1  0
  5  6  1  1
  7  5  1  0
  7  8  2  0
  9  7  1  0
 10  9  1  0
 10 11  1  1
 11 12  1  0
 12 13  2  0
 12 17  1  0
 13 14  1  0
 14 15  2  0
 16 15  1  0
 17 16  2  0
 18 10  1  0
 19 18  2  0
 21 20  1  0
 21 22  2  0
 23 24  1  0
 23 21  1  0
 25 24  1  6
 25 27  1  0
 25 26  1  0
 26 18  1  0
 27 29  1  0
 28 27  2  0
M  END
$$$$
