MFQ.pdb
     RDKit          3D

 29 29  0  0  1  0  0  0  0  0999 V2000
    8.2407  -12.3827   17.6956 C   0  0  0  0  0  0  0  0  0  0  0  0
    7.9121  -13.9834   16.8824 S   0  0  0  0  0  0  0  0  0  0  0  0
    8.0320  -15.3022   18.1045 C   0  0  0  0  0  0  0  0  0  0  0  0
    8.3173  -14.7114   19.4656 C   0  0  0  0  0  0  0  0  0  0  0  0
    8.4153  -15.8493   20.4556 C   0  0  2  0  0  0  0  0  0  0  0  0
    7.2978  -16.7134   20.2828 N   0  0  0  0  0  0  0  0  0  0  0  0
    8.5357  -15.2622   21.7917 C   0  0  0  0  0  0  0  0  0  0  0  0
    9.0919  -14.1225   21.9290 O   0  0  0  0  0  0  0  0  0  0  0  0
    8.0660  -15.8859   22.9743 N   0  0  0  0  0  0  0  0  0  0  0  0
    8.1324  -15.3783   24.2954 C   0  0  1  0  0  0  0  0  0  0  0  0
    6.8486  -14.8310   24.8767 C   0  0  0  0  0  0  0  0  0  0  0  0
    7.1090  -13.9242   26.0188 C   0  0  0  0  0  0  0  0  0  0  0  0
    7.1476  -12.5658   25.9588 C   0  0  0  0  0  0  0  0  0  0  0  0
    7.4135  -11.8237   27.0996 C   0  0  0  0  0  0  0  0  0  0  0  0
    7.6437  -12.4128   28.3109 C   0  0  0  0  0  0  0  0  0  0  0  0
    7.6068  -13.7832   28.3823 C   0  0  0  0  0  0  0  0  0  0  0  0
    7.3479  -14.5131   27.2723 C   0  0  0  0  0  0  0  0  0  0  0  0
    8.9079  -16.1958   25.2484 C   0  0  0  0  0  0  0  0  0  0  0  0
    8.4598  -17.2710   25.7437 O   0  0  0  0  0  0  0  0  0  0  0  0
   14.4318  -16.6781   22.9079 N   0  0  0  0  0  0  0  0  0  0  0  0
   13.8472  -15.8056   23.8290 C   0  0  0  0  0  0  0  0  0  0  0  0
   14.4589  -14.8029   24.2529 O   0  0  0  0  0  0  0  0  0  0  0  0
   12.4545  -16.0824   24.3173 C   0  0  0  0  0  0  0  0  0  0  0  0
   12.4848  -16.4931   25.7693 C   0  0  0  0  0  0  0  0  0  0  0  0
   11.1147  -16.7832   26.3187 C   0  0  2  0  0  0  0  0  0  0  0  0
   10.2112  -15.8205   25.6670 N   0  0  0  0  0  0  0  0  0  0  0  0
   11.0047  -16.6351   27.7652 C   0  0  0  0  0  0  0  0  0  0  0  0
   11.6372  -17.3432   28.5732 O   0  0  0  0  0  0  0  0  0  0  0  0
   10.1586  -15.6625   28.3131 O   0  0  0  0  0  0  0  0  0  0  0  0
  2  1  1  0
  3  2  1  0
  4  3  1  0
  5  4  1  0
  5  6  1  1
  7  5  1  0
  7  8  2  0
  9  7  1  0
 10  9  1  0
 10 11  1  1
 11 12  1  0
 12 13  2  0
 12 17  1  0
 13 14  1  0
 14 15  2  0
 16 15  1  0
 17 16  2  0
 18 10  1  0
 19 18  2  0
 21 20  1  0
 21 22  2  0
 23 24  1  0
 23 21  1  0
 25 24  1  6
 25 27  1  0
 25 26  1  0
 26 18  1  0
 27 29  1  0
 28 27  2  0
M  END
$$$$
