MFQ.pdb
     RDKit          3D

 29 29  0  0  1  0  0  0  0  0999 V2000
    6.7024  -22.8721   26.4681 C   0  0  0  0  0  0  0  0  0  0  0  0
    7.3505  -23.2740   24.8098 S   0  0  0  0  0  0  0  0  0  0  0  0
    6.7227  -22.0721   23.6231 C   0  0  0  0  0  0  0  0  0  0  0  0
    6.3769  -20.7852   24.3355 C   0  0  0  0  0  0  0  0  0  0  0  0
    5.8594  -19.8076   23.3055 C   0  0  2  0  0  0  0  0  0  0  0  0
    6.0476  -20.3578   22.0065 N   0  0  0  0  0  0  0  0  0  0  0  0
    6.5346  -18.5283   23.5333 C   0  0  0  0  0  0  0  0  0  0  0  0
    7.6326  -18.2821   22.9326 O   0  0  0  0  0  0  0  0  0  0  0  0
    6.0424  -17.5176   24.3961 N   0  0  0  0  0  0  0  0  0  0  0  0
    6.7105  -16.3351   24.7997 C   0  0  1  0  0  0  0  0  0  0  0  0
    5.8554  -15.2478   25.4096 C   0  0  0  0  0  0  0  0  0  0  0  0
    6.6557  -14.0474   25.7457 C   0  0  0  0  0  0  0  0  0  0  0  0
    7.1476  -13.1476   24.8519 C   0  0  0  0  0  0  0  0  0  0  0  0
    7.8957  -12.0654   25.2902 C   0  0  0  0  0  0  0  0  0  0  0  0
    8.1663  -11.8590   26.6137 C   0  0  0  0  0  0  0  0  0  0  0  0
    7.6743  -12.7611   27.5239 C   0  0  0  0  0  0  0  0  0  0  0  0
    6.9435  -13.8195   27.1023 C   0  0  0  0  0  0  0  0  0  0  0  0
    7.9905  -16.5416   25.5047 C   0  0  0  0  0  0  0  0  0  0  0  0
    8.1341  -17.4118   26.4126 O   0  0  0  0  0  0  0  0  0  0  0  0
   11.2280  -17.5255   21.3993 N   0  0  0  0  0  0  0  0  0  0  0  0
   12.4109  -17.3200   22.1135 C   0  0  0  0  0  0  0  0  0  0  0  0
   13.5200  -17.6452   21.6410 O   0  0  0  0  0  0  0  0  0  0  0  0
   12.3434  -16.6948   23.4770 C   0  0  0  0  0  0  0  0  0  0  0  0
   10.9639  -16.1347   23.7243 C   0  0  0  0  0  0  0  0  0  0  0  0
   10.4791  -16.3848   25.1263 C   0  0  2  0  0  0  0  0  0  0  0  0
    9.1431  -15.7704   25.2022 N   0  0  0  0  0  0  0  0  0  0  0  0
   11.3263  -15.8113   26.1653 C   0  0  0  0  0  0  0  0  0  0  0  0
   11.1188  -14.6920   26.6738 O   0  0  0  0  0  0  0  0  0  0  0  0
   12.4363  -16.5201   26.6424 O   0  0  0  0  0  0  0  0  0  0  0  0
  2  1  1  0
  3  2  1  0
  4  3  1  0
  5  4  1  0
  5  6  1  6
  7  5  1  0
  7  8  2  0
  9  7  1  0
 10  9  1  0
 10 11  1  1
 11 12  1  0
 12 13  2  0
 12 17  1  0
 13 14  1  0
 14 15  2  0
 16 15  1  0
 17 16  2  0
 18 10  1  0
 19 18  2  0
 21 20  1  0
 21 22  2  0
 23 24  1  0
 23 21  1  0
 25 24  1  6
 25 27  1  0
 25 26  1  0
 26 18  1  0
 27 29  1  0
 28 27  2  0
M  END
$$$$
