MFQ.pdb
     RDKit          3D

 29 29  0  0  1  0  0  0  0  0999 V2000
    8.4516  -11.6063   19.1396 C   0  0  0  0  0  0  0  0  0  0  0  0
    7.7260  -12.9305   18.1142 S   0  0  0  0  0  0  0  0  0  0  0  0
    7.1130  -14.2407   19.1888 C   0  0  0  0  0  0  0  0  0  0  0  0
    7.5985  -14.0104   20.6011 C   0  0  0  0  0  0  0  0  0  0  0  0
    7.0914  -15.1471   21.4586 C   0  0  2  0  0  0  0  0  0  0  0  0
    5.6701  -15.1805   21.3932 N   0  0  0  0  0  0  0  0  0  0  0  0
    7.6392  -14.9628   22.8040 C   0  0  0  0  0  0  0  0  0  0  0  0
    8.0296  -13.8048   23.1698 O   0  0  0  0  0  0  0  0  0  0  0  0
    7.7699  -16.0062   23.7539 N   0  0  0  0  0  0  0  0  0  0  0  0
    8.4949  -15.9716   24.9708 C   0  0  1  0  0  0  0  0  0  0  0  0
    7.6989  -15.6978   26.2266 C   0  0  0  0  0  0  0  0  0  0  0  0
    7.4529  -14.2489   26.4122 C   0  0  0  0  0  0  0  0  0  0  0  0
    8.3968  -13.3178   26.7164 C   0  0  0  0  0  0  0  0  0  0  0  0
    8.0394  -11.9876   26.8767 C   0  0  0  0  0  0  0  0  0  0  0  0
    6.7483  -11.5616   26.7385 C   0  0  0  0  0  0  0  0  0  0  0  0
    5.7881  -12.4932   26.4312 C   0  0  0  0  0  0  0  0  0  0  0  0
    6.1306  -13.7932   26.2737 C   0  0  0  0  0  0  0  0  0  0  0  0
    9.5052  -17.0347   25.1350 C   0  0  0  0  0  0  0  0  0  0  0  0
    9.2390  -18.2593   24.9568 O   0  0  0  0  0  0  0  0  0  0  0  0
   15.2901  -15.6786   24.0556 N   0  0  0  0  0  0  0  0  0  0  0  0
   14.5643  -16.3628   23.0775 C   0  0  0  0  0  0  0  0  0  0  0  0
   14.9118  -16.3439   21.8784 O   0  0  0  0  0  0  0  0  0  0  0  0
   13.3416  -17.1357   23.4802 C   0  0  0  0  0  0  0  0  0  0  0  0
   13.1373  -17.0446   24.9728 C   0  0  0  0  0  0  0  0  0  0  0  0
   11.9003  -17.7660   25.4341 C   0  0  2  0  0  0  0  0  0  0  0  0
   10.8442  -16.7425   25.5044 N   0  0  0  0  0  0  0  0  0  0  0  0
   12.0302  -18.4062   26.7377 C   0  0  0  0  0  0  0  0  0  0  0  0
   12.8165  -19.3480   26.9596 O   0  0  0  0  0  0  0  0  0  0  0  0
   11.2521  -17.9719   27.8184 O   0  0  0  0  0  0  0  0  0  0  0  0
  2  1  1  0
  3  2  1  0
  4  3  1  0
  5  4  1  0
  5  6  1  1
  7  5  1  0
  7  8  2  0
  9  7  1  0
 10  9  1  0
 10 11  1  1
 11 12  1  0
 12 13  2  0
 12 17  1  0
 13 14  1  0
 14 15  2  0
 16 15  1  0
 17 16  2  0
 18 10  1  0
 19 18  2  0
 21 20  1  0
 21 22  2  0
 23 24  1  0
 23 21  1  0
 25 24  1  1
 25 27  1  0
 25 26  1  0
 26 18  1  0
 27 29  1  0
 28 27  2  0
M  END
$$$$
