MFQ.pdb
     RDKit          3D

 29 29  0  0  1  0  0  0  0  0999 V2000
    8.1407  -12.1814   18.5198 C   0  0  0  0  0  0  0  0  0  0  0  0
    8.1937  -13.6825   17.4828 S   0  0  0  0  0  0  0  0  0  0  0  0
    8.3517  -15.1291   18.5455 C   0  0  0  0  0  0  0  0  0  0  0  0
    9.5007  -14.9322   19.5069 C   0  0  0  0  0  0  0  0  0  0  0  0
    9.5290  -16.1155   20.4469 C   0  0  2  0  0  0  0  0  0  0  0  0
    8.4418  -16.9805   20.1382 N   0  0  0  0  0  0  0  0  0  0  0  0
    9.5272  -15.5922   21.8145 C   0  0  0  0  0  0  0  0  0  0  0  0
   10.6095  -15.1393   22.3150 O   0  0  0  0  0  0  0  0  0  0  0  0
    8.3787  -15.5518   22.6437 N   0  0  0  0  0  0  0  0  0  0  0  0
    8.3011  -15.0819   23.9781 C   0  0  1  0  0  0  0  0  0  0  0  0
    7.1784  -14.1199   24.2940 C   0  0  0  0  0  0  0  0  0  0  0  0
    7.3055  -13.5619   25.6604 C   0  0  0  0  0  0  0  0  0  0  0  0
    8.3301  -12.7869   26.1073 C   0  0  0  0  0  0  0  0  0  0  0  0
    8.3419  -12.3323   27.4173 C   0  0  0  0  0  0  0  0  0  0  0  0
    7.3440  -12.6367   28.2998 C   0  0  0  0  0  0  0  0  0  0  0  0
    6.3051  -13.4180   27.8587 C   0  0  0  0  0  0  0  0  0  0  0  0
    6.2879  -13.8650   26.5812 C   0  0  0  0  0  0  0  0  0  0  0  0
    8.5103  -16.1045   25.0215 C   0  0  0  0  0  0  0  0  0  0  0  0
    7.6517  -16.9980   25.2797 O   0  0  0  0  0  0  0  0  0  0  0  0
   13.5659  -18.4177   24.7290 N   0  0  0  0  0  0  0  0  0  0  0  0
   12.3893  -18.8204   24.0926 C   0  0  0  0  0  0  0  0  0  0  0  0
   12.4119  -19.3658   22.9696 O   0  0  0  0  0  0  0  0  0  0  0  0
   11.0721  -18.5909   24.7761 C   0  0  0  0  0  0  0  0  0  0  0  0
   11.2857  -17.8832   26.0919 C   0  0  0  0  0  0  0  0  0  0  0  0
   10.0152  -17.3038   26.6517 C   0  0  2  0  0  0  0  0  0  0  0  0
    9.6959  -16.1454   25.8008 N   0  0  0  0  0  0  0  0  0  0  0  0
   10.1168  -16.8625   28.0378 C   0  0  0  0  0  0  0  0  0  0  0  0
   10.3689  -17.6356   28.9829 O   0  0  0  0  0  0  0  0  0  0  0  0
    9.9290  -15.5135   28.3650 O   0  0  0  0  0  0  0  0  0  0  0  0
  2  1  1  0
  3  2  1  0
  4  3  1  0
  5  4  1  0
  5  6  1  1
  7  5  1  0
  7  8  2  0
  9  7  1  0
 10  9  1  0
 10 11  1  1
 11 12  1  0
 12 13  2  0
 12 17  1  0
 13 14  1  0
 14 15  2  0
 16 15  1  0
 17 16  2  0
 18 10  1  0
 19 18  2  0
 21 20  1  0
 21 22  2  0
 23 24  1  0
 23 21  1  0
 25 24  1  6
 25 27  1  0
 25 26  1  0
 26 18  1  0
 27 29  1  0
 28 27  2  0
M  END
$$$$
