MFQ.pdb
     RDKit          3D

 29 29  0  0  1  0  0  0  0  0999 V2000
    7.2760  -11.4785   19.9117 C   0  0  0  0  0  0  0  0  0  0  0  0
    6.9937  -12.7450   18.6279 S   0  0  0  0  0  0  0  0  0  0  0  0
    7.4055  -14.3664   19.2975 C   0  0  0  0  0  0  0  0  0  0  0  0
    7.9441  -14.2164   20.7013 C   0  0  0  0  0  0  0  0  0  0  0  0
    8.2639  -15.5970   21.2271 C   0  0  2  0  0  0  0  0  0  0  0  0
    7.1047  -16.4155   21.1193 N   0  0  0  0  0  0  0  0  0  0  0  0
    8.7806  -15.4415   22.5884 C   0  0  0  0  0  0  0  0  0  0  0  0
    9.8930  -14.8454   22.7736 O   0  0  0  0  0  0  0  0  0  0  0  0
    8.1156  -15.9184   23.7453 N   0  0  0  0  0  0  0  0  0  0  0  0
    8.6114  -15.9372   25.0724 C   0  0  1  0  0  0  0  0  0  0  0  0
    7.6171  -15.6405   26.1719 C   0  0  0  0  0  0  0  0  0  0  0  0
    7.1847  -14.2238   26.1495 C   0  0  0  0  0  0  0  0  0  0  0  0
    5.9236  -13.7846   25.8906 C   0  0  0  0  0  0  0  0  0  0  0  0
    5.6440  -12.4263   25.8874 C   0  0  0  0  0  0  0  0  0  0  0  0
    6.6043  -11.4875   26.1397 C   0  0  0  0  0  0  0  0  0  0  0  0
    7.8802  -11.9202   26.4025 C   0  0  0  0  0  0  0  0  0  0  0  0
    8.1595  -13.2446   26.4069 C   0  0  0  0  0  0  0  0  0  0  0  0
    9.5244  -17.0522   25.3904 C   0  0  0  0  0  0  0  0  0  0  0  0
    9.1343  -18.2550   25.4485 O   0  0  0  0  0  0  0  0  0  0  0  0
   15.6133  -16.5620   24.6390 N   0  0  0  0  0  0  0  0  0  0  0  0
   14.6176  -16.5406   23.6594 C   0  0  0  0  0  0  0  0  0  0  0  0
   14.8616  -16.1682   22.4929 O   0  0  0  0  0  0  0  0  0  0  0  0
   13.2263  -16.9750   24.0205 C   0  0  0  0  0  0  0  0  0  0  0  0
   13.1863  -17.4546   25.4510 C   0  0  0  0  0  0  0  0  0  0  0  0
   11.8295  -17.9645   25.8540 C   0  0  2  0  0  0  0  0  0  0  0  0
   10.9032  -16.8382   25.6506 N   0  0  0  0  0  0  0  0  0  0  0  0
   11.7428  -18.4075   27.2405 C   0  0  0  0  0  0  0  0  0  0  0  0
   11.0969  -17.7945   28.1132 O   0  0  0  0  0  0  0  0  0  0  0  0
   12.4022  -19.5728   27.6521 O   0  0  0  0  0  0  0  0  0  0  0  0
  2  1  1  0
  3  2  1  0
  4  3  1  0
  5  4  1  0
  5  6  1  1
  7  5  1  0
  7  8  2  0
  9  7  1  0
 10  9  1  0
 10 11  1  1
 11 12  1  0
 12 13  2  0
 12 17  1  0
 13 14  1  0
 14 15  2  0
 16 15  1  0
 17 16  2  0
 18 10  1  0
 19 18  2  0
 21 20  1  0
 21 22  2  0
 23 24  1  0
 23 21  1  0
 25 24  1  1
 25 27  1  0
 25 26  1  0
 26 18  1  0
 27 29  1  0
 28 27  2  0
M  END
$$$$
