MFQ.pdb
     RDKit          3D

 29 29  0  0  1  0  0  0  0  0999 V2000
    7.3610  -12.7036   17.6347 C   0  0  0  0  0  0  0  0  0  0  0  0
    8.0508  -14.1293   16.7274 S   0  0  0  0  0  0  0  0  0  0  0  0
    8.5295  -15.4045   17.9072 C   0  0  0  0  0  0  0  0  0  0  0  0
    8.8505  -14.7705   19.2407 C   0  0  0  0  0  0  0  0  0  0  0  0
    9.0801  -15.8805   20.2405 C   0  0  2  0  0  0  0  0  0  0  0  0
    8.0789  -16.8770   20.0669 N   0  0  0  0  0  0  0  0  0  0  0  0
    9.1168  -15.2735   21.5726 C   0  0  0  0  0  0  0  0  0  0  0  0
   10.1461  -14.6118   21.9330 O   0  0  0  0  0  0  0  0  0  0  0  0
    8.0628  -15.3710   22.5148 N   0  0  0  0  0  0  0  0  0  0  0  0
    8.0583  -14.8922   23.8483 C   0  0  1  0  0  0  0  0  0  0  0  0
    6.9260  -13.9671   24.2326 C   0  0  0  0  0  0  0  0  0  0  0  0
    7.0512  -13.5035   25.6340 C   0  0  0  0  0  0  0  0  0  0  0  0
    6.1151  -13.6637   26.6079 C   0  0  0  0  0  0  0  0  0  0  0  0
    6.3447  -13.1736   27.8846 C   0  0  0  0  0  0  0  0  0  0  0  0
    7.4992  -12.5212   28.2144 C   0  0  0  0  0  0  0  0  0  0  0  0
    8.4506  -12.3546   27.2390 C   0  0  0  0  0  0  0  0  0  0  0  0
    8.2323  -12.8305   25.9908 C   0  0  0  0  0  0  0  0  0  0  0  0
    8.3729  -15.8976   24.8819 C   0  0  0  0  0  0  0  0  0  0  0  0
    7.5091  -16.7092   25.3263 O   0  0  0  0  0  0  0  0  0  0  0  0
   13.7700  -20.5692   25.0776 N   0  0  0  0  0  0  0  0  0  0  0  0
   13.1169  -19.3570   24.8424 C   0  0  0  0  0  0  0  0  0  0  0  0
   13.4435  -18.6167   23.8915 O   0  0  0  0  0  0  0  0  0  0  0  0
   11.9995  -18.9387   25.7542 C   0  0  0  0  0  0  0  0  0  0  0  0
   11.3628  -17.6678   25.2470 C   0  0  0  0  0  0  0  0  0  0  0  0
   10.1426  -17.2759   26.0347 C   0  0  2  0  0  0  0  0  0  0  0  0
    9.6725  -16.0133   25.4408 N   0  0  0  0  0  0  0  0  0  0  0  0
   10.3874  -17.0704   27.4574 C   0  0  0  0  0  0  0  0  0  0  0  0
   10.3851  -15.9451   27.9943 O   0  0  0  0  0  0  0  0  0  0  0  0
   10.6415  -18.1637   28.2954 O   0  0  0  0  0  0  0  0  0  0  0  0
  2  1  1  0
  3  2  1  0
  4  3  1  0
  5  4  1  0
  5  6  1  1
  7  5  1  0
  7  8  2  0
  9  7  1  0
 10  9  1  0
 10 11  1  1
 11 12  1  0
 12 13  2  0
 12 17  1  0
 13 14  1  0
 14 15  2  0
 16 15  1  0
 17 16  2  0
 18 10  1  0
 19 18  2  0
 21 20  1  0
 21 22  2  0
 23 24  1  0
 23 21  1  0
 25 24  1  6
 25 27  1  0
 25 26  1  0
 26 18  1  0
 27 29  1  0
 28 27  2  0
M  END
$$$$
