MFQ.pdb
     RDKit          3D

 29 29  0  0  1  0  0  0  0  0999 V2000
   10.1036  -21.5394   21.8848 C   0  0  0  0  0  0  0  0  0  0  0  0
    9.1917  -21.6831   20.3102 S   0  0  0  0  0  0  0  0  0  0  0  0
    8.3275  -20.1357   19.9850 C   0  0  0  0  0  0  0  0  0  0  0  0
    8.9075  -19.0374   20.8455 C   0  0  0  0  0  0  0  0  0  0  0  0
    8.1405  -17.7670   20.5583 C   0  0  2  0  0  0  0  0  0  0  0  0
    8.4569  -17.3199   19.2448 N   0  0  0  0  0  0  0  0  0  0  0  0
    8.4542  -16.8123   21.6233 C   0  0  0  0  0  0  0  0  0  0  0  0
    9.5913  -16.2344   21.6337 O   0  0  0  0  0  0  0  0  0  0  0  0
    7.5612  -16.4754   22.6709 N   0  0  0  0  0  0  0  0  0  0  0  0
    7.8333  -15.6670   23.8022 C   0  0  1  0  0  0  0  0  0  0  0  0
    6.6560  -14.9474   24.4201 C   0  0  0  0  0  0  0  0  0  0  0  0
    7.0718  -14.1007   25.5624 C   0  0  0  0  0  0  0  0  0  0  0  0
    7.1836  -14.5124   26.8541 C   0  0  0  0  0  0  0  0  0  0  0  0
    7.5729  -13.6189   27.8406 C   0  0  0  0  0  0  0  0  0  0  0  0
    7.8562  -12.3110   27.5639 C   0  0  0  0  0  0  0  0  0  0  0  0
    7.7467  -11.8855   26.2635 C   0  0  0  0  0  0  0  0  0  0  0  0
    7.3670  -12.7527   25.2961 C   0  0  0  0  0  0  0  0  0  0  0  0
    8.7485  -16.2593   24.7969 C   0  0  0  0  0  0  0  0  0  0  0  0
    8.4946  -17.3475   25.3915 O   0  0  0  0  0  0  0  0  0  0  0  0
   14.9918  -15.1234   24.6130 N   0  0  0  0  0  0  0  0  0  0  0  0
   14.7512  -16.4122   25.0953 C   0  0  0  0  0  0  0  0  0  0  0  0
   15.5512  -17.3464   24.8803 O   0  0  0  0  0  0  0  0  0  0  0  0
   13.5036  -16.6757   25.8884 C   0  0  0  0  0  0  0  0  0  0  0  0
   12.3155  -16.0300   25.2181 C   0  0  0  0  0  0  0  0  0  0  0  0
   11.0151  -16.3609   25.8982 C   0  0  2  0  0  0  0  0  0  0  0  0
    9.9760  -15.6380   25.1462 N   0  0  0  0  0  0  0  0  0  0  0  0
   10.9526  -15.9623   27.2995 C   0  0  0  0  0  0  0  0  0  0  0  0
   11.7224  -15.1214   27.8043 O   0  0  0  0  0  0  0  0  0  0  0  0
    9.9963  -16.5278   28.1525 O   0  0  0  0  0  0  0  0  0  0  0  0
  2  1  1  0
  3  2  1  0
  4  3  1  0
  5  4  1  0
  5  6  1  6
  7  5  1  0
  7  8  2  0
  9  7  1  0
 10  9  1  0
 10 11  1  1
 11 12  1  0
 12 13  2  0
 12 17  1  0
 13 14  1  0
 14 15  2  0
 16 15  1  0
 17 16  2  0
 18 10  1  0
 19 18  2  0
 21 20  1  0
 21 22  2  0
 23 24  1  0
 23 21  1  0
 25 24  1  6
 25 27  1  0
 25 26  1  0
 26 18  1  0
 27 29  1  0
 28 27  2  0
M  END
$$$$
