MFQ.pdb
     RDKit          3D

 29 29  0  0  1  0  0  0  0  0999 V2000
    8.3531  -11.5260   20.3231 C   0  0  0  0  0  0  0  0  0  0  0  0
    7.4422  -12.5884   19.1512 S   0  0  0  0  0  0  0  0  0  0  0  0
    7.4352  -14.2804   19.7709 C   0  0  0  0  0  0  0  0  0  0  0  0
    8.4732  -14.4291   20.8588 C   0  0  0  0  0  0  0  0  0  0  0  0
    8.4302  -15.8575   21.3510 C   0  0  2  0  0  0  0  0  0  0  0  0
    7.1930  -16.4453   20.9646 N   0  0  0  0  0  0  0  0  0  0  0  0
    8.6735  -15.8339   22.7948 C   0  0  0  0  0  0  0  0  0  0  0  0
    9.8540  -15.6224   23.2293 O   0  0  0  0  0  0  0  0  0  0  0  0
    7.6647  -16.0344   23.7696 N   0  0  0  0  0  0  0  0  0  0  0  0
    7.8384  -16.1551   25.1706 C   0  0  1  0  0  0  0  0  0  0  0  0
    6.7313  -15.6052   26.0409 C   0  0  0  0  0  0  0  0  0  0  0  0
    6.7676  -14.1255   26.1009 C   0  0  0  0  0  0  0  0  0  0  0  0
    5.7419  -13.2941   25.7736 C   0  0  0  0  0  0  0  0  0  0  0  0
    5.9021  -11.9194   25.8608 C   0  0  0  0  0  0  0  0  0  0  0  0
    7.0747  -11.3504   26.2716 C   0  0  0  0  0  0  0  0  0  0  0  0
    8.1159  -12.1806   26.6045 C   0  0  0  0  0  0  0  0  0  0  0  0
    7.9658  -13.5232   26.5214 C   0  0  0  0  0  0  0  0  0  0  0  0
    8.3588  -17.4563   25.6331 C   0  0  0  0  0  0  0  0  0  0  0  0
    7.6343  -18.4919   25.7045 O   0  0  0  0  0  0  0  0  0  0  0  0
   11.6820  -20.5182   22.6629 N   0  0  0  0  0  0  0  0  0  0  0  0
   12.4486  -19.4892   23.2151 C   0  0  0  0  0  0  0  0  0  0  0  0
   13.4748  -19.0651   22.6441 O   0  0  0  0  0  0  0  0  0  0  0  0
   12.0267  -18.8829   24.5225 C   0  0  0  0  0  0  0  0  0  0  0  0
   10.7282  -19.4974   24.9854 C   0  0  0  0  0  0  0  0  0  0  0  0
   10.2703  -18.9551   26.3118 C   0  0  2  0  0  0  0  0  0  0  0  0
    9.7122  -17.6226   26.0271 N   0  0  0  0  0  0  0  0  0  0  0  0
   11.3300  -18.8249   27.3048 C   0  0  0  0  0  0  0  0  0  0  0  0
   11.9201  -19.8028   27.8047 O   0  0  0  0  0  0  0  0  0  0  0  0
   11.7338  -17.5578   27.7447 O   0  0  0  0  0  0  0  0  0  0  0  0
  2  1  1  0
  3  2  1  0
  4  3  1  0
  5  4  1  0
  5  6  1  1
  7  5  1  0
  7  8  2  0
  9  7  1  0
 10  9  1  0
 10 11  1  1
 11 12  1  0
 12 13  2  0
 12 17  1  0
 13 14  1  0
 14 15  2  0
 16 15  1  0
 17 16  2  0
 18 10  1  0
 19 18  2  0
 21 20  1  0
 21 22  2  0
 23 24  1  0
 23 21  1  0
 25 24  1  6
 25 27  1  0
 25 26  1  0
 26 18  1  0
 27 29  1  0
 28 27  2  0
M  END
$$$$
