MFQ.pdb
     RDKit          3D

 29 29  0  0  1  0  0  0  0  0999 V2000
    8.6657  -12.2400   19.3348 C   0  0  0  0  0  0  0  0  0  0  0  0
    7.6535  -13.3034   18.2503 S   0  0  0  0  0  0  0  0  0  0  0  0
    8.4552  -14.9084   18.0820 C   0  0  0  0  0  0  0  0  0  0  0  0
    9.6219  -14.9981   19.0381 C   0  0  0  0  0  0  0  0  0  0  0  0
    9.3673  -16.1562   19.9755 C   0  0  2  0  0  0  0  0  0  0  0  0
    8.1634  -16.8101   19.5902 N   0  0  0  0  0  0  0  0  0  0  0  0
    9.3678  -15.6266   21.3407 C   0  0  0  0  0  0  0  0  0  0  0  0
   10.4619  -15.2226   21.8571 O   0  0  0  0  0  0  0  0  0  0  0  0
    8.2091  -15.5280   22.1505 N   0  0  0  0  0  0  0  0  0  0  0  0
    8.1377  -15.0842   23.4942 C   0  0  1  0  0  0  0  0  0  0  0  0
    6.9631  -14.2039   23.8559 C   0  0  0  0  0  0  0  0  0  0  0  0
    7.0816  -13.6742   25.2343 C   0  0  0  0  0  0  0  0  0  0  0  0
    6.4491  -14.1717   26.3310 C   0  0  0  0  0  0  0  0  0  0  0  0
    6.6322  -13.5794   27.5714 C   0  0  0  0  0  0  0  0  0  0  0  0
    7.4407  -12.4912   27.7434 C   0  0  0  0  0  0  0  0  0  0  0  0
    8.0838  -11.9816   26.6430 C   0  0  0  0  0  0  0  0  0  0  0  0
    7.9090  -12.5551   25.4295 C   0  0  0  0  0  0  0  0  0  0  0  0
    8.4429  -16.1060   24.5143 C   0  0  0  0  0  0  0  0  0  0  0  0
    7.7223  -17.1325   24.6855 O   0  0  0  0  0  0  0  0  0  0  0  0
   11.8457  -21.2426   25.4008 N   0  0  0  0  0  0  0  0  0  0  0  0
   12.3051  -19.9304   25.2649 C   0  0  0  0  0  0  0  0  0  0  0  0
   13.1151  -19.6151   24.3685 O   0  0  0  0  0  0  0  0  0  0  0  0
   11.8124  -18.8800   26.2182 C   0  0  0  0  0  0  0  0  0  0  0  0
   11.1717  -17.7457   25.4561 C   0  0  0  0  0  0  0  0  0  0  0  0
   10.0190  -17.1265   26.1982 C   0  0  2  0  0  0  0  0  0  0  0  0
    9.5712  -15.9956   25.3684 N   0  0  0  0  0  0  0  0  0  0  0  0
   10.3565  -16.6358   27.5292 C   0  0  0  0  0  0  0  0  0  0  0  0
   10.4068  -15.4237   27.8167 O   0  0  0  0  0  0  0  0  0  0  0  0
   10.6448  -17.5370   28.5620 O   0  0  0  0  0  0  0  0  0  0  0  0
  2  1  1  0
  3  2  1  0
  4  3  1  0
  5  4  1  0
  5  6  1  6
  7  5  1  0
  7  8  2  0
  9  7  1  0
 10  9  1  0
 10 11  1  1
 11 12  1  0
 12 13  2  0
 12 17  1  0
 13 14  1  0
 14 15  2  0
 16 15  1  0
 17 16  2  0
 18 10  1  0
 19 18  2  0
 21 20  1  0
 21 22  2  0
 23 24  1  0
 23 21  1  0
 25 24  1  6
 25 27  1  0
 25 26  1  0
 26 18  1  0
 27 29  1  0
 28 27  2  0
M  END
$$$$
