MFQ.pdb
     RDKit          3D

 29 29  0  0  1  0  0  0  0  0999 V2000
    6.5637  -11.5117   19.0936 C   0  0  0  0  0  0  0  0  0  0  0  0
    8.1556  -12.3675   19.3484 S   0  0  0  0  0  0  0  0  0  0  0  0
    7.8454  -13.9890   20.0705 C   0  0  0  0  0  0  0  0  0  0  0  0
    9.1563  -14.7057   20.2963 C   0  0  0  0  0  0  0  0  0  0  0  0
    8.8535  -16.0355   20.9479 C   0  0  2  0  0  0  0  0  0  0  0  0
    7.5377  -16.4407   20.5877 N   0  0  0  0  0  0  0  0  0  0  0  0
    9.0757  -15.8821   22.3871 C   0  0  0  0  0  0  0  0  0  0  0  0
   10.2311  -15.5482   22.8120 O   0  0  0  0  0  0  0  0  0  0  0  0
    8.0724  -16.0832   23.3674 N   0  0  0  0  0  0  0  0  0  0  0  0
    8.2327  -16.0605   24.7750 C   0  0  1  0  0  0  0  0  0  0  0  0
    6.9917  -15.7881   25.5943 C   0  0  0  0  0  0  0  0  0  0  0  0
    6.7672  -14.3356   25.7792 C   0  0  0  0  0  0  0  0  0  0  0  0
    5.5850  -13.6875   25.5983 C   0  0  0  0  0  0  0  0  0  0  0  0
    5.5031  -12.3169   25.7923 C   0  0  0  0  0  0  0  0  0  0  0  0
    6.5853  -11.5713   26.1669 C   0  0  0  0  0  0  0  0  0  0  0  0
    7.7831  -12.2158   26.3525 C   0  0  0  0  0  0  0  0  0  0  0  0
    7.8694  -13.5534   26.1645 C   0  0  0  0  0  0  0  0  0  0  0  0
    9.0817  -17.1314   25.3319 C   0  0  0  0  0  0  0  0  0  0  0  0
    8.8156  -18.3594   25.1781 O   0  0  0  0  0  0  0  0  0  0  0  0
   14.3633  -16.6258   23.4999 N   0  0  0  0  0  0  0  0  0  0  0  0
   14.7189  -17.6406   24.3916 C   0  0  0  0  0  0  0  0  0  0  0  0
   15.8463  -18.1759   24.3508 O   0  0  0  0  0  0  0  0  0  0  0  0
   13.7223  -18.0946   25.4190 C   0  0  0  0  0  0  0  0  0  0  0  0
   12.4301  -17.3306   25.2627 C   0  0  0  0  0  0  0  0  0  0  0  0
   11.3512  -17.8200   26.1898 C   0  0  2  0  0  0  0  0  0  0  0  0
   10.2549  -16.8436   26.0772 N   0  0  0  0  0  0  0  0  0  0  0  0
   11.7593  -17.9185   27.5862 C   0  0  0  0  0  0  0  0  0  0  0  0
   12.6385  -18.7070   27.9858 O   0  0  0  0  0  0  0  0  0  0  0  0
   11.1591  -17.1056   28.5563 O   0  0  0  0  0  0  0  0  0  0  0  0
  2  1  1  0
  3  2  1  0
  4  3  1  0
  5  4  1  0
  5  6  1  1
  7  5  1  0
  7  8  2  0
  9  7  1  0
 10  9  1  0
 10 11  1  1
 11 12  1  0
 12 13  2  0
 12 17  1  0
 13 14  1  0
 14 15  2  0
 16 15  1  0
 17 16  2  0
 18 10  1  0
 19 18  2  0
 21 20  1  0
 21 22  2  0
 23 24  1  0
 23 21  1  0
 25 24  1  6
 25 27  1  0
 25 26  1  0
 26 18  1  0
 27 29  1  0
 28 27  2  0
M  END
$$$$
