MFQ.pdb
     RDKit          3D

 29 29  0  0  1  0  0  0  0  0999 V2000
    7.9781  -12.0635   21.1544 C   0  0  0  0  0  0  0  0  0  0  0  0
    7.2038  -13.2242   19.9777 S   0  0  0  0  0  0  0  0  0  0  0  0
    6.6426  -14.6846   20.8716 C   0  0  0  0  0  0  0  0  0  0  0  0
    7.4888  -15.8753   20.4850 C   0  0  0  0  0  0  0  0  0  0  0  0
    8.9399  -15.4939   20.6676 C   0  0  2  0  0  0  0  0  0  0  0  0
    9.7317  -16.2161   19.7312 N   0  0  0  0  0  0  0  0  0  0  0  0
    9.2841  -15.7283   22.0715 C   0  0  0  0  0  0  0  0  0  0  0  0
    9.9198  -16.7861   22.3940 O   0  0  0  0  0  0  0  0  0  0  0  0
    8.9529  -14.8405   23.1252 N   0  0  0  0  0  0  0  0  0  0  0  0
    9.2666  -14.9863   24.4992 C   0  0  1  0  0  0  0  0  0  0  0  0
    8.5169  -14.0958   25.4639 C   0  0  0  0  0  0  0  0  0  0  0  0
    8.9768  -14.2919   26.8583 C   0  0  0  0  0  0  0  0  0  0  0  0
    8.3862  -15.0981   27.7812 C   0  0  0  0  0  0  0  0  0  0  0  0
    8.9064  -15.1898   29.0634 C   0  0  0  0  0  0  0  0  0  0  0  0
   10.0139  -14.4882   29.4488 C   0  0  0  0  0  0  0  0  0  0  0  0
   10.6177  -13.6720   28.5249 C   0  0  0  0  0  0  0  0  0  0  0  0
   10.1147  -13.5781   27.2718 C   0  0  0  0  0  0  0  0  0  0  0  0
    9.4075  -16.3774   24.9713 C   0  0  0  0  0  0  0  0  0  0  0  0
    8.4304  -17.1805   25.0220 O   0  0  0  0  0  0  0  0  0  0  0  0
   10.5645  -20.9077   23.3324 N   0  0  0  0  0  0  0  0  0  0  0  0
   11.3115  -21.3902   24.4098 C   0  0  0  0  0  0  0  0  0  0  0  0
   11.4454  -22.6152   24.6109 O   0  0  0  0  0  0  0  0  0  0  0  0
   11.9654  -20.4125   25.3432 C   0  0  0  0  0  0  0  0  0  0  0  0
   11.6525  -18.9987   24.9177 C   0  0  0  0  0  0  0  0  0  0  0  0
   10.7802  -18.2749   25.9070 C   0  0  2  0  0  0  0  0  0  0  0  0
   10.6567  -16.8988   25.3983 N   0  0  0  0  0  0  0  0  0  0  0  0
   11.3161  -18.2349   27.2625 C   0  0  0  0  0  0  0  0  0  0  0  0
   11.9629  -17.2683   27.7118 O   0  0  0  0  0  0  0  0  0  0  0  0
   11.1166  -19.3141   28.1329 O   0  0  0  0  0  0  0  0  0  0  0  0
  2  1  1  0
  3  2  1  0
  4  3  1  0
  5  4  1  0
  5  6  1  6
  7  5  1  0
  7  8  2  0
  9  7  1  0
 10  9  1  0
 10 11  1  1
 11 12  1  0
 12 13  2  0
 12 17  1  0
 13 14  1  0
 14 15  2  0
 16 15  1  0
 17 16  2  0
 18 10  1  0
 19 18  2  0
 21 20  1  0
 21 22  2  0
 23 24  1  0
 23 21  1  0
 25 24  1  6
 25 27  1  0
 25 26  1  0
 26 18  1  0
 27 29  1  0
 28 27  2  0
M  END
$$$$
