MFQ.pdb
     RDKit          3D

 29 29  0  0  1  0  0  0  0  0999 V2000
    8.1011  -21.3648   21.8661 C   0  0  0  0  0  0  0  0  0  0  0  0
    8.5969  -21.2500   20.1132 S   0  0  0  0  0  0  0  0  0  0  0  0
    8.5874  -19.5201   19.6090 C   0  0  0  0  0  0  0  0  0  0  0  0
    8.4873  -18.6341   20.8289 C   0  0  0  0  0  0  0  0  0  0  0  0
    8.3657  -17.2035   20.3564 C   0  0  2  0  0  0  0  0  0  0  0  0
    9.2527  -16.9982   19.2626 N   0  0  0  0  0  0  0  0  0  0  0  0
    8.6051  -16.3359   21.5114 C   0  0  0  0  0  0  0  0  0  0  0  0
    9.8013  -16.1247   21.9009 O   0  0  0  0  0  0  0  0  0  0  0  0
    7.5759  -15.6970   22.2468 N   0  0  0  0  0  0  0  0  0  0  0  0
    7.7201  -14.9081   23.4149 C   0  0  1  0  0  0  0  0  0  0  0  0
    6.6925  -13.8202   23.6293 C   0  0  0  0  0  0  0  0  0  0  0  0
    6.9572  -13.0559   24.8704 C   0  0  0  0  0  0  0  0  0  0  0  0
    7.9624  -12.1567   25.0477 C   0  0  0  0  0  0  0  0  0  0  0  0
    8.1146  -11.5104   26.2651 C   0  0  0  0  0  0  0  0  0  0  0  0
    7.2775  -11.7435   27.3197 C   0  0  0  0  0  0  0  0  0  0  0  0
    6.2596  -12.6489   27.1511 C   0  0  0  0  0  0  0  0  0  0  0  0
    6.1059  -13.2831   25.9653 C   0  0  0  0  0  0  0  0  0  0  0  0
    8.0522  -15.6539   24.6443 C   0  0  0  0  0  0  0  0  0  0  0  0
    7.2197  -16.4077   25.2282 O   0  0  0  0  0  0  0  0  0  0  0  0
    8.9813  -20.1187   24.2921 N   0  0  0  0  0  0  0  0  0  0  0  0
   10.0708  -20.1422   25.1661 C   0  0  0  0  0  0  0  0  0  0  0  0
   10.3098  -21.1384   25.8800 O   0  0  0  0  0  0  0  0  0  0  0  0
   10.9709  -18.9429   25.2462 C   0  0  0  0  0  0  0  0  0  0  0  0
   10.2386  -17.7110   24.7729 C   0  0  0  0  0  0  0  0  0  0  0  0
    9.9615  -16.7375   25.8858 C   0  0  2  0  0  0  0  0  0  0  0  0
    9.3346  -15.5685   25.2468 N   0  0  0  0  0  0  0  0  0  0  0  0
   11.1487  -16.3030   26.6124 C   0  0  0  0  0  0  0  0  0  0  0  0
   11.3642  -16.5970   27.8047 O   0  0  0  0  0  0  0  0  0  0  0  0
   12.1175  -15.5164   25.9762 O   0  0  0  0  0  0  0  0  0  0  0  0
  2  1  1  0
  3  2  1  0
  4  3  1  0
  5  4  1  0
  5  6  1  6
  7  5  1  0
  7  8  2  0
  9  7  1  0
 10  9  1  0
 10 11  1  1
 11 12  1  0
 12 13  2  0
 12 17  1  0
 13 14  1  0
 14 15  2  0
 16 15  1  0
 17 16  2  0
 18 10  1  0
 19 18  2  0
 21 20  1  0
 21 22  2  0
 23 24  1  0
 23 21  1  0
 25 24  1  6
 25 27  1  0
 25 26  1  0
 26 18  1  0
 27 29  1  0
 28 27  2  0
M  END
$$$$
