MFQ.pdb
     RDKit          3D

 29 29  0  0  1  0  0  0  0  0999 V2000
    6.5117  -13.3470   19.9698 C   0  0  0  0  0  0  0  0  0  0  0  0
    7.9646  -13.1707   18.8791 S   0  0  0  0  0  0  0  0  0  0  0  0
    9.4540  -13.5736   19.8098 C   0  0  0  0  0  0  0  0  0  0  0  0
    9.9476  -14.9455   19.4127 C   0  0  0  0  0  0  0  0  0  0  0  0
    9.2051  -15.9660   20.2444 C   0  0  2  0  0  0  0  0  0  0  0  0
    7.8869  -16.1154   19.7291 N   0  0  0  0  0  0  0  0  0  0  0  0
    9.2720  -15.5298   21.6407 C   0  0  0  0  0  0  0  0  0  0  0  0
   10.4042  -15.2507   22.1578 O   0  0  0  0  0  0  0  0  0  0  0  0
    8.1391  -15.3917   22.4806 N   0  0  0  0  0  0  0  0  0  0  0  0
    8.1281  -15.0492   23.8554 C   0  0  1  0  0  0  0  0  0  0  0  0
    6.9742  -14.1969   24.3325 C   0  0  0  0  0  0  0  0  0  0  0  0
    7.1666  -13.7511   25.7321 C   0  0  0  0  0  0  0  0  0  0  0  0
    6.9236  -14.4990   26.8421 C   0  0  0  0  0  0  0  0  0  0  0  0
    7.1326  -13.9639   28.1042 C   0  0  0  0  0  0  0  0  0  0  0  0
    7.5834  -12.6867   28.2851 C   0  0  0  0  0  0  0  0  0  0  0  0
    7.8320  -11.9236   27.1714 C   0  0  0  0  0  0  0  0  0  0  0  0
    7.6298  -12.4401   25.9368 C   0  0  0  0  0  0  0  0  0  0  0  0
    8.4727  -16.1446   24.7825 C   0  0  0  0  0  0  0  0  0  0  0  0
    7.8000  -17.2147   24.8507 O   0  0  0  0  0  0  0  0  0  0  0  0
   14.5130  -16.5301   23.9681 N   0  0  0  0  0  0  0  0  0  0  0  0
   13.3300  -17.2456   24.1685 C   0  0  0  0  0  0  0  0  0  0  0  0
   13.1042  -18.3117   23.5588 O   0  0  0  0  0  0  0  0  0  0  0  0
   12.3113  -16.7189   25.1378 C   0  0  0  0  0  0  0  0  0  0  0  0
   11.2310  -17.7476   25.3666 C   0  0  0  0  0  0  0  0  0  0  0  0
   10.1534  -17.2601   26.2963 C   0  0  2  0  0  0  0  0  0  0  0  0
    9.5874  -16.0605   25.6571 N   0  0  0  0  0  0  0  0  0  0  0  0
   10.6255  -16.9104   27.6308 C   0  0  0  0  0  0  0  0  0  0  0  0
   11.1321  -17.7381   28.4136 O   0  0  0  0  0  0  0  0  0  0  0  0
   10.5228  -15.5922   28.0933 O   0  0  0  0  0  0  0  0  0  0  0  0
  2  1  1  0
  3  2  1  0
  4  3  1  0
  5  4  1  0
  5  6  1  6
  7  5  1  0
  7  8  2  0
  9  7  1  0
 10  9  1  0
 10 11  1  1
 11 12  1  0
 12 13  2  0
 12 17  1  0
 13 14  1  0
 14 15  2  0
 16 15  1  0
 17 16  2  0
 18 10  1  0
 19 18  2  0
 21 20  1  0
 21 22  2  0
 23 24  1  0
 23 21  1  0
 25 24  1  6
 25 27  1  0
 25 26  1  0
 26 18  1  0
 27 29  1  0
 28 27  2  0
M  END
$$$$
