MFQ.pdb
     RDKit          3D

 29 29  0  0  1  0  0  0  0  0999 V2000
    8.0155  -11.9238   18.5090 C   0  0  0  0  0  0  0  0  0  0  0  0
    7.8879  -13.3230   17.3438 S   0  0  0  0  0  0  0  0  0  0  0  0
    8.0457  -14.8683   18.2571 C   0  0  0  0  0  0  0  0  0  0  0  0
    9.2616  -14.8094   19.1524 C   0  0  0  0  0  0  0  0  0  0  0  0
    9.2674  -16.0527   20.0118 C   0  0  2  0  0  0  0  0  0  0  0  0
    8.1231  -16.8391   19.6995 N   0  0  0  0  0  0  0  0  0  0  0  0
    9.3532  -15.6226   21.4089 C   0  0  0  0  0  0  0  0  0  0  0  0
   10.4465  -15.1354   21.8499 O   0  0  0  0  0  0  0  0  0  0  0  0
    8.2802  -15.7110   22.3303 N   0  0  0  0  0  0  0  0  0  0  0  0
    8.2635  -15.2574   23.6725 C   0  0  1  0  0  0  0  0  0  0  0  0
    7.0702  -14.4301   24.0937 C   0  0  0  0  0  0  0  0  0  0  0  0
    7.2903  -13.7840   25.4085 C   0  0  0  0  0  0  0  0  0  0  0  0
    8.0664  -12.6897   25.6333 C   0  0  0  0  0  0  0  0  0  0  0  0
    8.2034  -12.1823   26.9165 C   0  0  0  0  0  0  0  0  0  0  0  0
    7.5766  -12.7481   27.9910 C   0  0  0  0  0  0  0  0  0  0  0  0
    6.7907  -13.8527   27.7749 C   0  0  0  0  0  0  0  0  0  0  0  0
    6.6532  -14.3527   26.5247 C   0  0  0  0  0  0  0  0  0  0  0  0
    8.6745  -16.2530   24.6814 C   0  0  0  0  0  0  0  0  0  0  0  0
    7.9332  -17.2203   25.0234 O   0  0  0  0  0  0  0  0  0  0  0  0
   10.8039  -20.0189   23.2122 N   0  0  0  0  0  0  0  0  0  0  0  0
   11.6529  -19.5060   24.1959 C   0  0  0  0  0  0  0  0  0  0  0  0
   12.3005  -20.2592   24.9524 O   0  0  0  0  0  0  0  0  0  0  0  0
   11.7869  -18.0178   24.3437 C   0  0  0  0  0  0  0  0  0  0  0  0
   11.7512  -17.6350   25.8032 C   0  0  0  0  0  0  0  0  0  0  0  0
   10.3768  -17.2323   26.2637 C   0  0  2  0  0  0  0  0  0  0  0  0
    9.9347  -16.1826   25.3306 N   0  0  0  0  0  0  0  0  0  0  0  0
   10.3290  -16.7104   27.6244 C   0  0  0  0  0  0  0  0  0  0  0  0
   10.1165  -15.5103   27.8874 O   0  0  0  0  0  0  0  0  0  0  0  0
   10.5263  -17.5655   28.7161 O   0  0  0  0  0  0  0  0  0  0  0  0
  2  1  1  0
  3  2  1  0
  4  3  1  0
  5  4  1  0
  5  6  1  1
  7  5  1  0
  7  8  2  0
  9  7  1  0
 10  9  1  0
 10 11  1  1
 11 12  1  0
 12 13  2  0
 12 17  1  0
 13 14  1  0
 14 15  2  0
 16 15  1  0
 17 16  2  0
 18 10  1  0
 19 18  2  0
 21 20  1  0
 21 22  2  0
 23 24  1  0
 23 21  1  0
 25 24  1  6
 25 27  1  0
 25 26  1  0
 26 18  1  0
 27 29  1  0
 28 27  2  0
M  END
$$$$
