MFQ.pdb
     RDKit          3D

 29 29  0  0  1  0  0  0  0  0999 V2000
    8.9285  -11.5411   19.3732 C   0  0  0  0  0  0  0  0  0  0  0  0
    7.2912  -12.3269   19.1911 S   0  0  0  0  0  0  0  0  0  0  0  0
    7.3682  -14.0082   19.8345 C   0  0  0  0  0  0  0  0  0  0  0  0
    8.7857  -14.3322   20.2457 C   0  0  0  0  0  0  0  0  0  0  0  0
    8.8044  -15.7472   20.7766 C   0  0  2  0  0  0  0  0  0  0  0  0
    7.4827  -16.2740   20.7427 N   0  0  0  0  0  0  0  0  0  0  0  0
    9.4162  -15.7112   22.1065 C   0  0  0  0  0  0  0  0  0  0  0  0
   10.6704  -15.5054   22.2153 O   0  0  0  0  0  0  0  0  0  0  0  0
    8.6958  -15.8931   23.3131 N   0  0  0  0  0  0  0  0  0  0  0  0
    9.2141  -15.8766   24.6316 C   0  0  1  0  0  0  0  0  0  0  0  0
    8.3123  -15.3154   25.7075 C   0  0  0  0  0  0  0  0  0  0  0  0
    9.0434  -15.1068   26.9790 C   0  0  0  0  0  0  0  0  0  0  0  0
    9.3244  -16.0693   27.8982 C   0  0  0  0  0  0  0  0  0  0  0  0
   10.0086  -15.7466   29.0604 C   0  0  0  0  0  0  0  0  0  0  0  0
   10.4231  -14.4723   29.3280 C   0  0  0  0  0  0  0  0  0  0  0  0
   10.1449  -13.4935   28.4066 C   0  0  0  0  0  0  0  0  0  0  0  0
    9.4772  -13.8022   27.2704 C   0  0  0  0  0  0  0  0  0  0  0  0
    9.9317  -17.0983   25.0440 C   0  0  0  0  0  0  0  0  0  0  0  0
    9.3441  -18.2057   25.2195 O   0  0  0  0  0  0  0  0  0  0  0  0
   15.9546  -17.9024   23.6223 N   0  0  0  0  0  0  0  0  0  0  0  0
   15.4230  -19.1877   23.7527 C   0  0  0  0  0  0  0  0  0  0  0  0
   15.9212  -20.1611   23.1499 O   0  0  0  0  0  0  0  0  0  0  0  0
   14.2279  -19.3992   24.6367 C   0  0  0  0  0  0  0  0  0  0  0  0
   13.2744  -18.2362   24.5088 C   0  0  0  0  0  0  0  0  0  0  0  0
   12.0830  -18.3602   25.4190 C   0  0  2  0  0  0  0  0  0  0  0  0
   11.3332  -17.1019   25.2687 N   0  0  0  0  0  0  0  0  0  0  0  0
   12.4194  -18.5487   26.8252 C   0  0  0  0  0  0  0  0  0  0  0  0
   12.2801  -17.6568   27.6852 O   0  0  0  0  0  0  0  0  0  0  0  0
   12.9262  -19.7758   27.2717 O   0  0  0  0  0  0  0  0  0  0  0  0
  2  1  1  0
  3  2  1  0
  4  3  1  0
  5  4  1  0
  5  6  1  1
  7  5  1  0
  7  8  2  0
  9  7  1  0
 10  9  1  0
 10 11  1  1
 11 12  1  0
 12 13  2  0
 12 17  1  0
 13 14  1  0
 14 15  2  0
 16 15  1  0
 17 16  2  0
 18 10  1  0
 19 18  2  0
 21 20  1  0
 21 22  2  0
 23 24  1  0
 23 21  1  0
 25 24  1  6
 25 27  1  0
 25 26  1  0
 26 18  1  0
 27 29  1  0
 28 27  2  0
M  END
$$$$
