QVH.pdb
     RDKit          3D

 27 27  0  0  1  0  0  0  0  0999 V2000
   40.3723  -29.4511  -16.5611 N   0  0  0  0  0  0  0  0  0  0  0  0
   39.8580  -28.8749  -17.7462 C   0  0  0  0  0  0  0  0  0  0  0  0
   40.6648  -28.4803  -18.6187 O   0  0  0  0  0  0  0  0  0  0  0  0
   38.4193  -28.7421  -17.9508 C   0  0  0  0  0  0  0  0  0  0  0  0
   37.5501  -29.2733  -16.8647 C   0  0  0  0  0  0  0  0  0  0  0  0
   36.0879  -29.2899  -17.1579 C   0  0  2  0  0  0  0  0  0  0  0  0
   35.5123  -27.9589  -17.1547 N   0  0  0  0  0  0  0  0  0  0  0  0
   35.4057  -30.1038  -16.0900 C   0  0  0  0  0  0  0  0  0  0  0  0
   34.7920  -29.5288  -15.1540 O   0  0  0  0  0  0  0  0  0  0  0  0
   34.3039  -33.7192  -17.1752 C   0  0  0  0  0  0  0  0  0  0  0  0
   33.6420  -33.1027  -15.9555 C   0  0  2  0  0  0  0  0  0  0  0  0
   32.5742  -32.1671  -16.4312 C   0  0  0  0  0  0  0  0  0  0  0  0
   34.7382  -32.3687  -15.1883 C   0  0  2  0  0  0  0  0  0  0  0  0
   35.4317  -31.5175  -16.1035 N   0  0  0  0  0  0  0  0  0  0  0  0
   35.6316  -33.3175  -14.4854 C   0  0  0  0  0  0  0  0  0  0  0  0
   36.7966  -33.4992  -14.9227 O   0  0  0  0  0  0  0  0  0  0  0  0
   35.2521  -34.0502  -13.3270 N   0  0  0  0  0  0  0  0  0  0  0  0
   36.1537  -35.0036  -12.6862 C   0  0  1  0  0  0  0  0  0  0  0  0
   36.0042  -34.9716  -11.1890 C   0  0  0  0  0  0  0  0  0  0  0  0
   36.8813  -35.9034  -10.4736 C   0  0  0  0  0  0  0  0  0  0  0  0
   38.1167  -36.3240  -10.9778 C   0  0  0  0  0  0  0  0  0  0  0  0
   38.6431  -37.1637  -10.0725 N   0  0  0  0  0  0  0  0  0  0  0  0
   37.7900  -37.2670   -9.0567 C   0  0  0  0  0  0  0  0  0  0  0  0
   36.7040  -36.5105   -9.2695 N   0  0  0  0  0  0  0  0  0  0  0  0
   35.9616  -36.3645  -13.1972 C   0  0  0  0  0  0  0  0  0  0  0  0
   34.7813  -36.8175  -13.2438 O   0  0  0  0  0  0  0  0  0  0  0  0
   37.0039  -37.1592  -13.6237 O   0  0  0  0  0  0  0  0  0  0  0  0
  2  1  1  0
  3  2  2  0
  4  2  1  0
  5  4  1  0
  6  8  1  0
  6  5  1  0
  6  7  1  1
  8  9  2  0
 11 10  1  6
 11 12  1  0
 13 11  1  0
 14  8  1  0
 13 14  1  6
 15 17  1  0
 15 13  1  0
 16 15  2  0
 18 25  1  0
 18 17  1  0
 18 19  1  1
 20 24  1  0
 20 19  1  0
 21 20  2  0
 22 21  1  0
 22 23  1  0
 23 24  2  0
 25 27  1  0
 26 25  2  0
M  END
$$$$
