QVH.pdb
     RDKit          3D

 27 27  0  0  1  0  0  0  0  0999 V2000
   13.5637  -10.8838  -15.7862 N   0  0  0  0  0  0  0  0  0  0  0  0
   13.8530  -11.7043  -16.9016 C   0  0  0  0  0  0  0  0  0  0  0  0
   12.9093  -12.0586  -17.6444 O   0  0  0  0  0  0  0  0  0  0  0  0
   15.2200  -12.1298  -17.1835 C   0  0  0  0  0  0  0  0  0  0  0  0
   16.2734  -11.5981  -16.2751 C   0  0  0  0  0  0  0  0  0  0  0  0
   17.6744  -11.9740  -16.6217 C   0  0  2  0  0  0  0  0  0  0  0  0
   17.9091  -13.3990  -16.4898 N   0  0  0  0  0  0  0  0  0  0  0  0
   18.5997  -11.2521  -15.6777 C   0  0  0  0  0  0  0  0  0  0  0  0
   18.4148  -11.3235  -14.4351 O   0  0  0  0  0  0  0  0  0  0  0  0
   22.9265   -9.7101  -14.5313 C   0  0  0  0  0  0  0  0  0  0  0  0
   21.9337  -10.5497  -15.3158 C   0  0  2  0  0  0  0  0  0  0  0  0
   22.4792  -10.7418  -16.6969 C   0  0  0  0  0  0  0  0  0  0  0  0
   20.6197   -9.7737  -15.3282 C   0  0  2  0  0  0  0  0  0  0  0  0
   19.6887  -10.4830  -16.1487 N   0  0  0  0  0  0  0  0  0  0  0  0
   20.8257   -8.3723  -15.7601 C   0  0  0  0  0  0  0  0  0  0  0  0
   21.1328   -8.1400  -16.9572 O   0  0  0  0  0  0  0  0  0  0  0  0
   20.6968   -7.2513  -14.8943 N   0  0  0  0  0  0  0  0  0  0  0  0
   20.9030   -5.8843  -15.3646 C   0  0  1  0  0  0  0  0  0  0  0  0
   19.6290   -5.0864  -15.2921 C   0  0  0  0  0  0  0  0  0  0  0  0
   18.5459   -5.5982  -16.1373 C   0  0  0  0  0  0  0  0  0  0  0  0
   18.6414   -5.6772  -17.5309 C   0  0  0  0  0  0  0  0  0  0  0  0
   17.4813   -6.1865  -17.9741 N   0  0  0  0  0  0  0  0  0  0  0  0
   16.6996   -6.4156  -16.9221 C   0  0  0  0  0  0  0  0  0  0  0  0
   17.3189   -6.0675  -15.7852 N   0  0  0  0  0  0  0  0  0  0  0  0
   21.9788   -5.2110  -14.6301 C   0  0  0  0  0  0  0  0  0  0  0  0
   22.4940   -5.8185  -13.6473 O   0  0  0  0  0  0  0  0  0  0  0  0
   22.4447   -3.9578  -14.9650 O   0  0  0  0  0  0  0  0  0  0  0  0
  2  1  1  0
  3  2  2  0
  4  2  1  0
  5  4  1  0
  6  8  1  0
  6  5  1  0
  6  7  1  1
  8  9  2  0
 11 10  1  1
 11 12  1  0
 13 11  1  0
 14  8  1  0
 13 14  1  6
 15 17  1  0
 15 13  1  0
 16 15  2  0
 18 25  1  0
 18 17  1  0
 18 19  1  1
 20 24  1  0
 20 19  1  0
 21 20  2  0
 22 21  1  0
 22 23  1  0
 23 24  2  0
 25 27  1  0
 26 25  2  0
M  END
$$$$
