QVH.pdb
     RDKit          3D

 27 27  0  0  1  0  0  0  0  0999 V2000
   26.9950  -18.7054  -18.5068 N   0  0  0  0  0  0  0  0  0  0  0  0
   28.0875  -18.0559  -17.8856 C   0  0  0  0  0  0  0  0  0  0  0  0
   28.8241  -17.3234  -18.5844 O   0  0  0  0  0  0  0  0  0  0  0  0
   28.3525  -18.2333  -16.4616 C   0  0  0  0  0  0  0  0  0  0  0  0
   27.3557  -19.0393  -15.7039 C   0  0  0  0  0  0  0  0  0  0  0  0
   27.9125  -20.1676  -14.9031 C   0  0  2  0  0  0  0  0  0  0  0  0
   28.5067  -21.1930  -15.7388 N   0  0  0  0  0  0  0  0  0  0  0  0
   26.7845  -20.7881  -14.1216 C   0  0  0  0  0  0  0  0  0  0  0  0
   26.1490  -21.7642  -14.5978 O   0  0  0  0  0  0  0  0  0  0  0  0
   27.0668  -21.3438  -10.3427 C   0  0  0  0  0  0  0  0  0  0  0  0
   25.7514  -20.6184  -10.5661 C   0  0  2  0  0  0  0  0  0  0  0  0
   24.7370  -21.2005   -9.6312 C   0  0  0  0  0  0  0  0  0  0  0  0
   25.3713  -20.8441  -12.0268 C   0  0  2  0  0  0  0  0  0  0  0  0
   26.4084  -20.3025  -12.8479 N   0  0  0  0  0  0  0  0  0  0  0  0
   24.0358  -20.2804  -12.3292 C   0  0  0  0  0  0  0  0  0  0  0  0
   23.8559  -19.0407  -12.2191 O   0  0  0  0  0  0  0  0  0  0  0  0
   22.9229  -21.0630  -12.7435 N   0  0  0  0  0  0  0  0  0  0  0  0
   21.7917  -20.4794  -13.4591 C   0  0  1  0  0  0  0  0  0  0  0  0
   22.0242  -20.4916  -14.9460 C   0  0  0  0  0  0  0  0  0  0  0  0
   20.9353  -19.9050  -15.7332 C   0  0  0  0  0  0  0  0  0  0  0  0
   19.7592  -19.4135  -15.1562 C   0  0  0  0  0  0  0  0  0  0  0  0
   18.9933  -18.9559  -16.1592 N   0  0  0  0  0  0  0  0  0  0  0  0
   19.6475  -19.1474  -17.3018 C   0  0  0  0  0  0  0  0  0  0  0  0
   20.8364  -19.7248  -17.0776 N   0  0  0  0  0  0  0  0  0  0  0  0
   20.5308  -21.1497  -13.1262 C   0  0  0  0  0  0  0  0  0  0  0  0
   20.5126  -22.4147  -13.1377 O   0  0  0  0  0  0  0  0  0  0  0  0
   19.3792  -20.4638  -12.8050 O   0  0  0  0  0  0  0  0  0  0  0  0
  2  1  1  0
  3  2  2  0
  4  2  1  0
  5  4  1  0
  6  8  1  0
  6  5  1  0
  6  7  1  6
  8  9  2  0
 11 10  1  1
 11 12  1  0
 13 11  1  0
 14  8  1  0
 13 14  1  6
 15 17  1  0
 15 13  1  0
 16 15  2  0
 18 25  1  0
 18 17  1  0
 18 19  1  6
 20 24  1  0
 20 19  1  0
 21 20  2  0
 22 21  1  0
 22 23  1  0
 23 24  2  0
 25 27  1  0
 26 25  2  0
M  END
$$$$
