QVH.pdb
     RDKit          3D

 27 27  0  0  1  0  0  0  0  0999 V2000
   19.0755   -3.4567  -16.8703 N   0  0  0  0  0  0  0  0  0  0  0  0
   18.7289   -3.6860  -18.2225 C   0  0  0  0  0  0  0  0  0  0  0  0
   18.9300   -2.7726  -19.0549 O   0  0  0  0  0  0  0  0  0  0  0  0
   18.1500   -4.9583  -18.6414 C   0  0  0  0  0  0  0  0  0  0  0  0
   17.9947   -5.9902  -17.5791 C   0  0  0  0  0  0  0  0  0  0  0  0
   19.1131   -6.9699  -17.4626 C   0  0  2  0  0  0  0  0  0  0  0  0
   19.1326   -7.9142  -18.5630 N   0  0  0  0  0  0  0  0  0  0  0  0
   18.9293   -7.7396  -16.1811 C   0  0  0  0  0  0  0  0  0  0  0  0
   18.3083   -8.8340  -16.1858 O   0  0  0  0  0  0  0  0  0  0  0  0
   20.8588   -8.8540  -11.9218 C   0  0  0  0  0  0  0  0  0  0  0  0
   20.8934   -8.0925  -13.2353 C   0  0  2  0  0  0  0  0  0  0  0  0
   21.4847   -6.7423  -12.9723 C   0  0  0  0  0  0  0  0  0  0  0  0
   19.4500   -7.9944  -13.7210 C   0  0  2  0  0  0  0  0  0  0  0  0
   19.4400   -7.2658  -14.9506 N   0  0  0  0  0  0  0  0  0  0  0  0
   18.5725   -7.4011  -12.6862 C   0  0  0  0  0  0  0  0  0  0  0  0
   18.7509   -6.2035  -12.3462 O   0  0  0  0  0  0  0  0  0  0  0  0
   17.5222   -8.1092  -12.0396 N   0  0  0  0  0  0  0  0  0  0  0  0
   16.6632   -7.4763  -11.0427 C   0  0  1  0  0  0  0  0  0  0  0  0
   15.5726   -8.4107  -10.5926 C   0  0  0  0  0  0  0  0  0  0  0  0
   14.6359   -7.8268   -9.6277 C   0  0  0  0  0  0  0  0  0  0  0  0
   14.7735   -6.5286   -9.1244 C   0  0  0  0  0  0  0  0  0  0  0  0
   13.7527   -6.3279   -8.2762 N   0  0  0  0  0  0  0  0  0  0  0  0
   13.0142   -7.4343   -8.2461 C   0  0  0  0  0  0  0  0  0  0  0  0
   13.5255   -8.3690   -9.0597 N   0  0  0  0  0  0  0  0  0  0  0  0
   17.4308   -6.9844   -9.8942 C   0  0  0  0  0  0  0  0  0  0  0  0
   18.2925   -7.7576   -9.3841 O   0  0  0  0  0  0  0  0  0  0  0  0
   17.2525   -5.7281   -9.3560 O   0  0  0  0  0  0  0  0  0  0  0  0
  2  1  1  0
  3  2  2  0
  4  2  1  0
  5  4  1  0
  6  8  1  0
  6  5  1  0
  6  7  1  6
  8  9  2  0
 11 10  1  1
 11 12  1  0
 13 11  1  0
 14  8  1  0
 13 14  1  6
 15 17  1  0
 15 13  1  0
 16 15  2  0
 18 25  1  0
 18 17  1  0
 18 19  1  1
 20 24  1  0
 20 19  1  0
 21 20  2  0
 22 21  1  0
 22 23  1  0
 23 24  2  0
 25 27  1  0
 26 25  2  0
M  END
$$$$
