QVH.pdb
     RDKit          3D

 27 27  0  0  1  0  0  0  0  0999 V2000
   27.6816  -13.1970  -15.3597 N   0  0  0  0  0  0  0  0  0  0  0  0
   27.2265  -14.5236  -15.5446 C   0  0  0  0  0  0  0  0  0  0  0  0
   28.0529  -15.4590  -15.4452 O   0  0  0  0  0  0  0  0  0  0  0  0
   25.8252  -14.7994  -15.8441 C   0  0  0  0  0  0  0  0  0  0  0  0
   24.9304  -13.6136  -15.9471 C   0  0  0  0  0  0  0  0  0  0  0  0
   23.5019  -13.9080  -16.2583 C   0  0  2  0  0  0  0  0  0  0  0  0
   23.3565  -15.0482  -17.1425 N   0  0  0  0  0  0  0  0  0  0  0  0
   22.9133  -12.7012  -16.9406 C   0  0  0  0  0  0  0  0  0  0  0  0
   23.3184  -12.3617  -18.0825 O   0  0  0  0  0  0  0  0  0  0  0  0
   19.1857  -11.6133  -15.8792 C   0  0  0  0  0  0  0  0  0  0  0  0
   19.7918  -11.2122  -17.2126 C   0  0  2  0  0  0  0  0  0  0  0  0
   19.7116  -12.3919  -18.1312 C   0  0  0  0  0  0  0  0  0  0  0  0
   21.2369  -10.8098  -16.9317 C   0  0  2  0  0  0  0  0  0  0  0  0
   21.9027  -11.9227  -16.3307 N   0  0  0  0  0  0  0  0  0  0  0  0
   21.3035   -9.5794  -16.1104 C   0  0  0  0  0  0  0  0  0  0  0  0
   21.2607   -9.6773  -14.8574 O   0  0  0  0  0  0  0  0  0  0  0  0
   21.4147   -8.2704  -16.6553 N   0  0  0  0  0  0  0  0  0  0  0  0
   21.4693   -7.0828  -15.8073 C   0  0  1  0  0  0  0  0  0  0  0  0
   21.6600   -5.8363  -16.6289 C   0  0  0  0  0  0  0  0  0  0  0  0
   21.8268   -4.6118  -15.8401 C   0  0  0  0  0  0  0  0  0  0  0  0
   22.8842   -4.4228  -14.9437 C   0  0  0  0  0  0  0  0  0  0  0  0
   22.7255   -3.2045  -14.4031 N   0  0  0  0  0  0  0  0  0  0  0  0
   21.6322   -2.6568  -14.9274 C   0  0  0  0  0  0  0  0  0  0  0  0
   21.0595   -3.4893  -15.8084 N   0  0  0  0  0  0  0  0  0  0  0  0
   20.2814   -6.9654  -14.9556 C   0  0  0  0  0  0  0  0  0  0  0  0
   19.1508   -7.1658  -15.4869 O   0  0  0  0  0  0  0  0  0  0  0  0
   20.3480   -6.6495  -13.6157 O   0  0  0  0  0  0  0  0  0  0  0  0
  2  1  1  0
  3  2  2  0
  4  2  1  0
  5  4  1  0
  6  8  1  0
  6  5  1  0
  6  7  1  6
  8  9  2  0
 11 10  1  1
 11 12  1  0
 13 11  1  0
 14  8  1  0
 13 14  1  1
 15 17  1  0
 15 13  1  0
 16 15  2  0
 18 25  1  0
 18 17  1  0
 18 19  1  6
 20 24  1  0
 20 19  1  0
 21 20  2  0
 22 21  1  0
 22 23  1  0
 23 24  2  0
 25 27  1  0
 26 25  2  0
M  END
$$$$
