QVH.pdb
     RDKit          3D

 27 27  0  0  1  0  0  0  0  0999 V2000
   29.1765  -31.9861  -16.6495 N   0  0  0  0  0  0  0  0  0  0  0  0
   28.3619  -32.8454  -17.4236 C   0  0  0  0  0  0  0  0  0  0  0  0
   28.8797  -33.8689  -17.9257 O   0  0  0  0  0  0  0  0  0  0  0  0
   26.9487  -32.5487  -17.6339 C   0  0  0  0  0  0  0  0  0  0  0  0
   26.4465  -31.2842  -17.0288 C   0  0  0  0  0  0  0  0  0  0  0  0
   26.0508  -30.2190  -17.9947 C   0  0  2  0  0  0  0  0  0  0  0  0
   27.1855  -29.6971  -18.7316 N   0  0  0  0  0  0  0  0  0  0  0  0
   25.4307  -29.0884  -17.2164 C   0  0  0  0  0  0  0  0  0  0  0  0
   24.4149  -29.2959  -16.5032 O   0  0  0  0  0  0  0  0  0  0  0  0
   26.9174  -25.0418  -17.6235 C   0  0  0  0  0  0  0  0  0  0  0  0
   26.6661  -25.7086  -16.2825 C   0  0  2  0  0  0  0  0  0  0  0  0
   27.9163  -26.4287  -15.8819 C   0  0  0  0  0  0  0  0  0  0  0  0
   25.4984  -26.6700  -16.4852 C   0  0  2  0  0  0  0  0  0  0  0  0
   25.9605  -27.7782  -17.2607 N   0  0  0  0  0  0  0  0  0  0  0  0
   24.3336  -25.9832  -17.0887 C   0  0  0  0  0  0  0  0  0  0  0  0
   24.5125  -25.2354  -18.0839 O   0  0  0  0  0  0  0  0  0  0  0  0
   23.0015  -26.1158  -16.6082 N   0  0  0  0  0  0  0  0  0  0  0  0
   21.8993  -25.3342  -17.1618 C   0  0  1  0  0  0  0  0  0  0  0  0
   20.7616  -26.2234  -17.5861 C   0  0  0  0  0  0  0  0  0  0  0  0
   19.6181  -25.5090  -18.1620 C   0  0  0  0  0  0  0  0  0  0  0  0
   19.5582  -25.1287  -19.5071 C   0  0  0  0  0  0  0  0  0  0  0  0
   18.3838  -24.5033  -19.6846 N   0  0  0  0  0  0  0  0  0  0  0  0
   17.7405  -24.4897  -18.5201 C   0  0  0  0  0  0  0  0  0  0  0  0
   18.4660  -25.0954  -17.5693 N   0  0  0  0  0  0  0  0  0  0  0  0
   21.4330  -24.3080  -16.2239 C   0  0  0  0  0  0  0  0  0  0  0  0
   21.5491  -24.5417  -14.9860 O   0  0  0  0  0  0  0  0  0  0  0  0
   20.8804  -23.1136  -16.6335 O   0  0  0  0  0  0  0  0  0  0  0  0
  2  1  1  0
  3  2  2  0
  4  2  1  0
  5  4  1  0
  6  8  1  0
  6  5  1  0
  6  7  1  1
  8  9  2  0
 11 10  1  6
 11 12  1  0
 13 11  1  0
 14  8  1  0
 13 14  1  6
 15 17  1  0
 15 13  1  0
 16 15  2  0
 18 25  1  0
 18 17  1  0
 18 19  1  1
 20 24  1  0
 20 19  1  0
 21 20  2  0
 22 21  1  0
 22 23  1  0
 23 24  2  0
 25 27  1  0
 26 25  2  0
M  END
$$$$
