QVH.pdb
     RDKit          3D

 27 27  0  0  1  0  0  0  0  0999 V2000
   26.7759  -15.9767  -14.5453 N   0  0  0  0  0  0  0  0  0  0  0  0
   27.4114  -16.0228  -15.8083 C   0  0  0  0  0  0  0  0  0  0  0  0
   28.0156  -15.0030  -16.2116 O   0  0  0  0  0  0  0  0  0  0  0  0
   27.3659  -17.2308  -16.6255 C   0  0  0  0  0  0  0  0  0  0  0  0
   26.6511  -18.3961  -16.0351 C   0  0  0  0  0  0  0  0  0  0  0  0
   27.4674  -19.2706  -15.1447 C   0  0  2  0  0  0  0  0  0  0  0  0
   28.5473  -19.9250  -15.8579 N   0  0  0  0  0  0  0  0  0  0  0  0
   26.5638  -20.3325  -14.5753 C   0  0  0  0  0  0  0  0  0  0  0  0
   26.4462  -21.4407  -15.1596 O   0  0  0  0  0  0  0  0  0  0  0  0
   24.9325  -19.8612  -10.6587 C   0  0  0  0  0  0  0  0  0  0  0  0
   25.2998  -21.1855  -11.3047 C   0  0  2  0  0  0  0  0  0  0  0  0
   26.7674  -21.4062  -11.1064 C   0  0  0  0  0  0  0  0  0  0  0  0
   24.9394  -21.0648  -12.7828 C   0  0  2  0  0  0  0  0  0  0  0  0
   25.8298  -20.1228  -13.3850 N   0  0  0  0  0  0  0  0  0  0  0  0
   23.5122  -20.7133  -12.9623 C   0  0  0  0  0  0  0  0  0  0  0  0
   23.1557  -19.5149  -12.8271 O   0  0  0  0  0  0  0  0  0  0  0  0
   22.4995  -21.6589  -13.2834 N   0  0  0  0  0  0  0  0  0  0  0  0
   21.1073  -21.2637  -13.4778 C   0  0  1  0  0  0  0  0  0  0  0  0
   20.4387  -22.1217  -14.5180 C   0  0  0  0  0  0  0  0  0  0  0  0
   20.9082  -21.8884  -15.8871 C   0  0  0  0  0  0  0  0  0  0  0  0
   21.8452  -20.9015  -16.2119 C   0  0  0  0  0  0  0  0  0  0  0  0
   22.0404  -20.9690  -17.5383 N   0  0  0  0  0  0  0  0  0  0  0  0
   21.2717  -21.9413  -18.0220 C   0  0  0  0  0  0  0  0  0  0  0  0
   20.5676  -22.5231  -17.0408 N   0  0  0  0  0  0  0  0  0  0  0  0
   20.3521  -21.2898  -12.2211 C   0  0  0  0  0  0  0  0  0  0  0  0
   20.8825  -21.8605  -11.2243 O   0  0  0  0  0  0  0  0  0  0  0  0
   19.1029  -20.7236  -12.0854 O   0  0  0  0  0  0  0  0  0  0  0  0
  2  1  1  0
  3  2  2  0
  4  2  1  0
  5  4  1  0
  6  8  1  0
  6  5  1  0
  6  7  1  6
  8  9  2  0
 11 10  1  1
 11 12  1  0
 13 11  1  0
 14  8  1  0
 13 14  1  1
 15 17  1  0
 15 13  1  0
 16 15  2  0
 18 25  1  0
 18 17  1  0
 18 19  1  6
 20 24  1  0
 20 19  1  0
 21 20  2  0
 22 21  1  0
 22 23  1  0
 23 24  2  0
 25 27  1  0
 26 25  2  0
M  END
$$$$
