QVH.pdb
     RDKit          3D

 27 27  0  0  1  0  0  0  0  0999 V2000
   27.1839  -18.9677  -18.3814 N   0  0  0  0  0  0  0  0  0  0  0  0
   28.1945  -18.2204  -17.7323 C   0  0  0  0  0  0  0  0  0  0  0  0
   28.9508  -17.5058  -18.4287 O   0  0  0  0  0  0  0  0  0  0  0  0
   28.3544  -18.2784  -16.2830 C   0  0  0  0  0  0  0  0  0  0  0  0
   27.3069  -19.0289  -15.5367 C   0  0  0  0  0  0  0  0  0  0  0  0
   27.7897  -20.1990  -14.7480 C   0  0  2  0  0  0  0  0  0  0  0  0
   28.5714  -21.1183  -15.5522 N   0  0  0  0  0  0  0  0  0  0  0  0
   26.5868  -20.9361  -14.2204 C   0  0  0  0  0  0  0  0  0  0  0  0
   26.0797  -21.8751  -14.8871 O   0  0  0  0  0  0  0  0  0  0  0  0
   24.9623  -19.9049  -10.3622 C   0  0  0  0  0  0  0  0  0  0  0  0
   25.1103  -21.3266  -10.8749 C   0  0  2  0  0  0  0  0  0  0  0  0
   26.4900  -21.7997  -10.5362 C   0  0  0  0  0  0  0  0  0  0  0  0
   24.8840  -21.2725  -12.3832 C   0  0  2  0  0  0  0  0  0  0  0  0
   25.9974  -20.6029  -12.9790 N   0  0  0  0  0  0  0  0  0  0  0  0
   23.5840  -20.6437  -12.7106 C   0  0  0  0  0  0  0  0  0  0  0  0
   23.4658  -19.3956  -12.6113 O   0  0  0  0  0  0  0  0  0  0  0  0
   22.4392  -21.3716  -13.1378 N   0  0  0  0  0  0  0  0  0  0  0  0
   21.1585  -20.7176  -13.3920 C   0  0  1  0  0  0  0  0  0  0  0  0
   20.6130  -21.0966  -14.7424 C   0  0  0  0  0  0  0  0  0  0  0  0
   21.3696  -20.5532  -15.8745 C   0  0  0  0  0  0  0  0  0  0  0  0
   22.4695  -19.7031  -15.7161 C   0  0  0  0  0  0  0  0  0  0  0  0
   22.9128  -19.4038  -16.9473 N   0  0  0  0  0  0  0  0  0  0  0  0
   22.1382  -20.0282  -17.8307 C   0  0  0  0  0  0  0  0  0  0  0  0
   21.1862  -20.7386  -17.2093 N   0  0  0  0  0  0  0  0  0  0  0  0
   20.1801  -21.0056  -12.3384 C   0  0  0  0  0  0  0  0  0  0  0  0
   19.0810  -20.3798  -12.3650 O   0  0  0  0  0  0  0  0  0  0  0  0
   20.4085  -21.9204  -11.3331 O   0  0  0  0  0  0  0  0  0  0  0  0
  2  1  1  0
  3  2  2  0
  4  2  1  0
  5  4  1  0
  6  8  1  0
  6  5  1  0
  6  7  1  6
  8  9  2  0
 11 10  1  6
 11 12  1  0
 13 11  1  0
 14  8  1  0
 13 14  1  6
 15 17  1  0
 15 13  1  0
 16 15  2  0
 18 25  1  0
 18 17  1  0
 18 19  1  6
 20 24  1  0
 20 19  1  0
 21 20  2  0
 22 21  1  0
 22 23  1  0
 23 24  2  0
 25 27  1  0
 26 25  2  0
M  END
$$$$
