QVH.pdb
     RDKit          3D

 27 27  0  0  1  0  0  0  0  0999 V2000
   27.2782  -32.7987  -20.4246 N   0  0  0  0  0  0  0  0  0  0  0  0
   27.1006  -33.5973  -19.2705 C   0  0  0  0  0  0  0  0  0  0  0  0
   27.1138  -34.8429  -19.3970 O   0  0  0  0  0  0  0  0  0  0  0  0
   26.9066  -32.9860  -17.9598 C   0  0  0  0  0  0  0  0  0  0  0  0
   26.8868  -31.4974  -17.9263 C   0  0  0  0  0  0  0  0  0  0  0  0
   28.0938  -30.8489  -17.3373 C   0  0  2  0  0  0  0  0  0  0  0  0
   28.7141  -31.6695  -16.3151 N   0  0  0  0  0  0  0  0  0  0  0  0
   27.6664  -29.5495  -16.7071 C   0  0  0  0  0  0  0  0  0  0  0  0
   27.3934  -29.5033  -15.4796 O   0  0  0  0  0  0  0  0  0  0  0  0
   28.7140  -26.1203  -18.6413 C   0  0  0  0  0  0  0  0  0  0  0  0
   28.4589  -26.1607  -17.1448 C   0  0  2  0  0  0  0  0  0  0  0  0
   29.6852  -26.7053  -16.4805 C   0  0  0  0  0  0  0  0  0  0  0  0
   27.2494  -27.0669  -16.9327 C   0  0  2  0  0  0  0  0  0  0  0  0
   27.5595  -28.3582  -17.4612 N   0  0  0  0  0  0  0  0  0  0  0  0
   26.0247  -26.4770  -17.5197 C   0  0  0  0  0  0  0  0  0  0  0  0
   25.8482  -26.5448  -18.7630 O   0  0  0  0  0  0  0  0  0  0  0  0
   25.0162  -25.8267  -16.7561 N   0  0  0  0  0  0  0  0  0  0  0  0
   23.8542  -25.2030  -17.3830 C   0  0  1  0  0  0  0  0  0  0  0  0
   22.8178  -24.8299  -16.3575 C   0  0  0  0  0  0  0  0  0  0  0  0
   21.6194  -24.1935  -16.9126 C   0  0  0  0  0  0  0  0  0  0  0  0
   20.5676  -24.9192  -17.4823 C   0  0  0  0  0  0  0  0  0  0  0  0
   19.6481  -24.0266  -17.8820 N   0  0  0  0  0  0  0  0  0  0  0  0
   20.0935  -22.8092  -17.5823 C   0  0  0  0  0  0  0  0  0  0  0  0
   21.2941  -22.8751  -16.9895 N   0  0  0  0  0  0  0  0  0  0  0  0
   24.2292  -24.0367  -18.1888 C   0  0  0  0  0  0  0  0  0  0  0  0
   25.2240  -23.3523  -17.8113 O   0  0  0  0  0  0  0  0  0  0  0  0
   23.5488  -23.6621  -19.3274 O   0  0  0  0  0  0  0  0  0  0  0  0
  2  1  1  0
  3  2  2  0
  4  2  1  0
  5  4  1  0
  6  8  1  0
  6  5  1  0
  6  7  1  1
  8  9  2  0
 11 10  1  6
 11 12  1  0
 13 11  1  0
 14  8  1  0
 13 14  1  6
 15 17  1  0
 15 13  1  0
 16 15  2  0
 18 25  1  0
 18 17  1  0
 18 19  1  1
 20 24  1  0
 20 19  1  0
 21 20  2  0
 22 21  1  0
 22 23  1  0
 23 24  2  0
 25 27  1  0
 26 25  2  0
M  END
$$$$
