QVH.pdb
     RDKit          3D

 27 27  0  0  1  0  0  0  0  0999 V2000
   21.5236  -23.5525  -14.5804 N   0  0  0  0  0  0  0  0  0  0  0  0
   20.1757  -23.7107  -14.1816 C   0  0  0  0  0  0  0  0  0  0  0  0
   19.6272  -24.8230  -14.3542 O   0  0  0  0  0  0  0  0  0  0  0  0
   19.4378  -22.6041  -13.5813 C   0  0  0  0  0  0  0  0  0  0  0  0
   20.2173  -21.3638  -13.3142 C   0  0  0  0  0  0  0  0  0  0  0  0
   21.2602  -21.4727  -12.2537 C   0  0  2  0  0  0  0  0  0  0  0  0
   20.7557  -21.0971  -10.9471 N   0  0  0  0  0  0  0  0  0  0  0  0
   22.3897  -20.5425  -12.6108 C   0  0  0  0  0  0  0  0  0  0  0  0
   22.3043  -19.3154  -12.3457 O   0  0  0  0  0  0  0  0  0  0  0  0
   27.1088  -19.9736  -13.5014 C   0  0  0  0  0  0  0  0  0  0  0  0
   25.9424  -20.8243  -13.0302 C   0  0  2  0  0  0  0  0  0  0  0  0
   26.1578  -22.2207  -13.5258 C   0  0  0  0  0  0  0  0  0  0  0  0
   24.6810  -20.2012  -13.6215 C   0  0  2  0  0  0  0  0  0  0  0  0
   23.5639  -21.0096  -13.2453 N   0  0  0  0  0  0  0  0  0  0  0  0
   24.8035  -20.0239  -15.0865 C   0  0  0  0  0  0  0  0  0  0  0  0
   24.6843  -21.0265  -15.8361 O   0  0  0  0  0  0  0  0  0  0  0  0
   25.0518  -18.7715  -15.7131 N   0  0  0  0  0  0  0  0  0  0  0  0
   25.0886  -18.6284  -17.1659 C   0  0  1  0  0  0  0  0  0  0  0  0
   24.5083  -17.3084  -17.5971 C   0  0  0  0  0  0  0  0  0  0  0  0
   23.0478  -17.2285  -17.4978 C   0  0  0  0  0  0  0  0  0  0  0  0
   22.2504  -18.3156  -17.1238 C   0  0  0  0  0  0  0  0  0  0  0  0
   20.9774  -17.8899  -17.1376 N   0  0  0  0  0  0  0  0  0  0  0  0
   20.9718  -16.6095  -17.4991 C   0  0  0  0  0  0  0  0  0  0  0  0
   22.2193  -16.1744  -17.7264 N   0  0  0  0  0  0  0  0  0  0  0  0
   26.4452  -18.7963  -17.6965 C   0  0  0  0  0  0  0  0  0  0  0  0
   27.4167  -18.5434  -16.9267 O   0  0  0  0  0  0  0  0  0  0  0  0
   26.6997  -19.2140  -18.9851 O   0  0  0  0  0  0  0  0  0  0  0  0
  2  1  1  0
  3  2  2  0
  4  2  1  0
  5  4  1  0
  6  8  1  0
  6  5  1  0
  6  7  1  1
  8  9  2  0
 11 10  1  6
 11 12  1  0
 13 11  1  0
 14  8  1  0
 13 14  1  6
 15 17  1  0
 15 13  1  0
 16 15  2  0
 18 25  1  0
 18 17  1  0
 18 19  1  1
 20 24  1  0
 20 19  1  0
 21 20  2  0
 22 21  1  0
 22 23  1  0
 23 24  2  0
 25 27  1  0
 26 25  2  0
M  END
$$$$
