QVH.pdb
     RDKit          3D

 27 27  0  0  1  0  0  0  0  0999 V2000
   22.1313  -32.5668   -9.9549 N   0  0  0  0  0  0  0  0  0  0  0  0
   22.7355  -31.2877   -9.9587 C   0  0  0  0  0  0  0  0  0  0  0  0
   22.2033  -30.3766  -10.6327 O   0  0  0  0  0  0  0  0  0  0  0  0
   23.9522  -31.0323   -9.1946 C   0  0  0  0  0  0  0  0  0  0  0  0
   24.5140  -32.1919   -8.4481 C   0  0  0  0  0  0  0  0  0  0  0  0
   25.8794  -32.6258   -8.8621 C   0  0  2  0  0  0  0  0  0  0  0  0
   25.8820  -33.2600  -10.1663 N   0  0  0  0  0  0  0  0  0  0  0  0
   26.3810  -33.6219   -7.8499 C   0  0  0  0  0  0  0  0  0  0  0  0
   25.9329  -34.7978   -7.8461 O   0  0  0  0  0  0  0  0  0  0  0  0
   30.0689  -34.0667   -7.1690 C   0  0  0  0  0  0  0  0  0  0  0  0
   29.4309  -33.8087   -5.8154 C   0  0  2  0  0  0  0  0  0  0  0  0
   30.1257  -34.6675   -4.8047 C   0  0  0  0  0  0  0  0  0  0  0  0
   27.9555  -34.1744   -5.9515 C   0  0  2  0  0  0  0  0  0  0  0  0
   27.3558  -33.2746   -6.8863 N   0  0  0  0  0  0  0  0  0  0  0  0
   27.2784  -34.1815   -4.6346 C   0  0  0  0  0  0  0  0  0  0  0  0
   27.1976  -33.1092   -3.9825 O   0  0  0  0  0  0  0  0  0  0  0  0
   26.7030  -35.3423   -4.0478 N   0  0  0  0  0  0  0  0  0  0  0  0
   26.1176  -35.3224   -2.7102 C   0  0  1  0  0  0  0  0  0  0  0  0
   25.4541  -36.6341   -2.3876 C   0  0  0  0  0  0  0  0  0  0  0  0
   24.1197  -36.7970   -2.9727 C   0  0  0  0  0  0  0  0  0  0  0  0
   23.5159  -35.8208   -3.7726 C   0  0  0  0  0  0  0  0  0  0  0  0
   22.3137  -36.2980   -4.1315 N   0  0  0  0  0  0  0  0  0  0  0  0
   22.1674  -37.5045   -3.5899 C   0  0  0  0  0  0  0  0  0  0  0  0
   23.2516  -37.8395   -2.8761 N   0  0  0  0  0  0  0  0  0  0  0  0
   27.1085  -34.9771   -1.6860 C   0  0  0  0  0  0  0  0  0  0  0  0
   28.2528  -35.5106   -1.7667 O   0  0  0  0  0  0  0  0  0  0  0  0
   26.8450  -34.1046   -0.6521 O   0  0  0  0  0  0  0  0  0  0  0  0
  2  1  1  0
  3  2  2  0
  4  2  1  0
  5  4  1  0
  6  8  1  0
  6  5  1  0
  6  7  1  6
  8  9  2  0
 11 10  1  6
 11 12  1  0
 13 11  1  0
 14  8  1  0
 13 14  1  6
 15 17  1  0
 15 13  1  0
 16 15  2  0
 18 25  1  0
 18 17  1  0
 18 19  1  1
 20 24  1  0
 20 19  1  0
 21 20  2  0
 22 21  1  0
 22 23  1  0
 23 24  2  0
 25 27  1  0
 26 25  2  0
M  END
$$$$
