QVH.pdb
     RDKit          3D

 27 27  0  0  1  0  0  0  0  0999 V2000
   26.2352  -34.8879   -8.6979 N   0  0  0  0  0  0  0  0  0  0  0  0
   25.6851  -33.6095   -8.9511 C   0  0  0  0  0  0  0  0  0  0  0  0
   24.4484  -33.4555   -8.8297 O   0  0  0  0  0  0  0  0  0  0  0  0
   26.5374  -32.4924   -9.3448 C   0  0  0  0  0  0  0  0  0  0  0  0
   28.0028  -32.7565   -9.3544 C   0  0  0  0  0  0  0  0  0  0  0  0
   28.8685  -31.5812   -9.6600 C   0  0  2  0  0  0  0  0  0  0  0  0
   28.8044  -31.2009  -11.0580 N   0  0  0  0  0  0  0  0  0  0  0  0
   30.2918  -31.9510   -9.3345 C   0  0  0  0  0  0  0  0  0  0  0  0
   31.0703  -32.3290  -10.2480 O   0  0  0  0  0  0  0  0  0  0  0  0
   33.9302  -32.7343   -6.2458 C   0  0  0  0  0  0  0  0  0  0  0  0
   32.9270  -31.8217   -6.9291 C   0  0  2  0  0  0  0  0  0  0  0  0
   32.4076  -30.8576   -5.9080 C   0  0  0  0  0  0  0  0  0  0  0  0
   31.8206  -32.7203   -7.4746 C   0  0  2  0  0  0  0  0  0  0  0  0
   30.7921  -31.8868   -8.0135 N   0  0  0  0  0  0  0  0  0  0  0  0
   31.3275  -33.6568   -6.4391 C   0  0  0  0  0  0  0  0  0  0  0  0
   30.4083  -33.2849   -5.6657 O   0  0  0  0  0  0  0  0  0  0  0  0
   31.8342  -34.9734   -6.2582 N   0  0  0  0  0  0  0  0  0  0  0  0
   31.2998  -35.8737   -5.2402 C   0  0  1  0  0  0  0  0  0  0  0  0
   32.1248  -37.1281   -5.1366 C   0  0  0  0  0  0  0  0  0  0  0  0
   31.5618  -38.1506   -4.2494 C   0  0  0  0  0  0  0  0  0  0  0  0
   30.3185  -38.0127   -3.6229 C   0  0  0  0  0  0  0  0  0  0  0  0
   30.1223  -39.1231   -2.8946 N   0  0  0  0  0  0  0  0  0  0  0  0
   31.1796  -39.9152   -3.0523 C   0  0  0  0  0  0  0  0  0  0  0  0
   32.0772  -39.3517   -3.8733 N   0  0  0  0  0  0  0  0  0  0  0  0
   31.1897  -35.2164   -3.9340 C   0  0  0  0  0  0  0  0  0  0  0  0
   32.1971  -34.5836   -3.5038 O   0  0  0  0  0  0  0  0  0  0  0  0
   30.0456  -35.2606   -3.1668 O   0  0  0  0  0  0  0  0  0  0  0  0
  2  1  1  0
  3  2  2  0
  4  2  1  0
  5  4  1  0
  6  8  1  0
  6  5  1  0
  6  7  1  6
  8  9  2  0
 11 10  1  1
 11 12  1  0
 13 11  1  0
 14  8  1  0
 13 14  1  1
 15 17  1  0
 15 13  1  0
 16 15  2  0
 18 25  1  0
 18 17  1  0
 18 19  1  1
 20 24  1  0
 20 19  1  0
 21 20  2  0
 22 21  1  0
 22 23  1  0
 23 24  2  0
 25 27  1  0
 26 25  2  0
M  END
$$$$
