QVH.pdb
     RDKit          3D

 27 27  0  0  1  0  0  0  0  0999 V2000
   27.8052  -13.2487  -17.3633 N   0  0  0  0  0  0  0  0  0  0  0  0
   27.7130  -13.5908  -15.9938 C   0  0  0  0  0  0  0  0  0  0  0  0
   28.7083  -14.1088  -15.4381 O   0  0  0  0  0  0  0  0  0  0  0  0
   26.4864  -13.3464  -15.2420 C   0  0  0  0  0  0  0  0  0  0  0  0
   25.4133  -12.6047  -15.9602 C   0  0  0  0  0  0  0  0  0  0  0  0
   24.1384  -12.4245  -15.2076 C   0  0  2  0  0  0  0  0  0  0  0  0
   23.4690  -13.6853  -14.9520 N   0  0  0  0  0  0  0  0  0  0  0  0
   23.2235  -11.5618  -16.0365 C   0  0  0  0  0  0  0  0  0  0  0  0
   22.6623  -12.0367  -17.0577 O   0  0  0  0  0  0  0  0  0  0  0  0
   20.3551  -10.1553  -14.6956 C   0  0  0  0  0  0  0  0  0  0  0  0
   20.6297  -10.0360  -16.1843 C   0  0  2  0  0  0  0  0  0  0  0  0
   20.6196  -11.4144  -16.7690 C   0  0  0  0  0  0  0  0  0  0  0  0
   21.9963   -9.3711  -16.3240 C   0  0  2  0  0  0  0  0  0  0  0  0
   22.9691  -10.2122  -15.7002 N   0  0  0  0  0  0  0  0  0  0  0  0
   21.9835   -7.9940  -15.7800 C   0  0  0  0  0  0  0  0  0  0  0  0
   22.3089   -7.8073  -14.5797 O   0  0  0  0  0  0  0  0  0  0  0  0
   21.6208   -6.8474  -16.5394 N   0  0  0  0  0  0  0  0  0  0  0  0
   21.6318   -5.5050  -15.9647 C   0  0  1  0  0  0  0  0  0  0  0  0
   21.5667   -4.4531  -17.0390 C   0  0  0  0  0  0  0  0  0  0  0  0
   21.5861   -3.0753  -16.5381 C   0  0  0  0  0  0  0  0  0  0  0  0
   20.4789   -2.4705  -15.9332 C   0  0  0  0  0  0  0  0  0  0  0  0
   20.8477   -1.2233  -15.6009 N   0  0  0  0  0  0  0  0  0  0  0  0
   22.1131   -1.0512  -15.9742 C   0  0  0  0  0  0  0  0  0  0  0  0
   22.5941   -2.1623  -16.5496 N   0  0  0  0  0  0  0  0  0  0  0  0
   20.5510   -5.3193  -14.9913 C   0  0  0  0  0  0  0  0  0  0  0  0
   19.4538   -5.9114  -15.2058 O   0  0  0  0  0  0  0  0  0  0  0  0
   20.6825   -4.5348  -13.8657 O   0  0  0  0  0  0  0  0  0  0  0  0
  2  1  1  0
  3  2  2  0
  4  2  1  0
  5  4  1  0
  6  8  1  0
  6  5  1  0
  6  7  1  6
  8  9  2  0
 11 10  1  1
 11 12  1  0
 13 11  1  0
 14  8  1  0
 13 14  1  1
 15 17  1  0
 15 13  1  0
 16 15  2  0
 18 25  1  0
 18 17  1  0
 18 19  1  6
 20 24  1  0
 20 19  1  0
 21 20  2  0
 22 21  1  0
 22 23  1  0
 23 24  2  0
 25 27  1  0
 26 25  2  0
M  END
$$$$
