QVH.pdb
     RDKit          3D

 27 27  0  0  1  0  0  0  0  0999 V2000
   15.8793  -13.0312  -16.1297 N   0  0  0  0  0  0  0  0  0  0  0  0
   16.4810  -13.4467  -17.3407 C   0  0  0  0  0  0  0  0  0  0  0  0
   15.7891  -14.0894  -18.1628 O   0  0  0  0  0  0  0  0  0  0  0  0
   17.8769  -13.1342  -17.6288 C   0  0  0  0  0  0  0  0  0  0  0  0
   18.5765  -12.2764  -16.6328 C   0  0  0  0  0  0  0  0  0  0  0  0
   20.0147  -12.0007  -16.9154 C   0  0  2  0  0  0  0  0  0  0  0  0
   20.8141  -13.2106  -16.9242 N   0  0  0  0  0  0  0  0  0  0  0  0
   20.5390  -11.0944  -15.8328 C   0  0  0  0  0  0  0  0  0  0  0  0
   20.0548  -11.1513  -14.6728 O   0  0  0  0  0  0  0  0  0  0  0  0
   24.2953   -9.5872  -16.3041 C   0  0  0  0  0  0  0  0  0  0  0  0
   23.6439   -9.7569  -14.9428 C   0  0  2  0  0  0  0  0  0  0  0  0
   23.7581  -11.1975  -14.5511 C   0  0  0  0  0  0  0  0  0  0  0  0
   22.1884   -9.3255  -15.0987 C   0  0  2  0  0  0  0  0  0  0  0  0
   21.5755  -10.1649  -16.0800 N   0  0  0  0  0  0  0  0  0  0  0  0
   22.0852   -7.8838  -15.4202 C   0  0  0  0  0  0  0  0  0  0  0  0
   22.3717   -7.4939  -16.5811 O   0  0  0  0  0  0  0  0  0  0  0  0
   21.6761   -6.8927  -14.4857 N   0  0  0  0  0  0  0  0  0  0  0  0
   21.5574   -5.4850  -14.8550 C   0  0  1  0  0  0  0  0  0  0  0  0
   20.1268   -5.0230  -14.7844 C   0  0  0  0  0  0  0  0  0  0  0  0
   19.2227   -5.7114  -15.7108 C   0  0  0  0  0  0  0  0  0  0  0  0
   19.4438   -5.7636  -17.0913 C   0  0  0  0  0  0  0  0  0  0  0  0
   18.4309   -6.4656  -17.6233 N   0  0  0  0  0  0  0  0  0  0  0  0
   17.6183   -6.8347  -16.6365 C   0  0  0  0  0  0  0  0  0  0  0  0
   18.0723   -6.3907  -15.4559 N   0  0  0  0  0  0  0  0  0  0  0  0
   22.4191   -4.6304  -14.0319 C   0  0  0  0  0  0  0  0  0  0  0  0
   23.0209   -5.1635  -13.0550 O   0  0  0  0  0  0  0  0  0  0  0  0
   22.5968   -3.2860  -14.2783 O   0  0  0  0  0  0  0  0  0  0  0  0
  2  1  1  0
  3  2  2  0
  4  2  1  0
  5  4  1  0
  6  8  1  0
  6  5  1  0
  6  7  1  1
  8  9  2  0
 11 10  1  6
 11 12  1  0
 13 11  1  0
 14  8  1  0
 13 14  1  6
 15 17  1  0
 15 13  1  0
 16 15  2  0
 18 25  1  0
 18 17  1  0
 18 19  1  1
 20 24  1  0
 20 19  1  0
 21 20  2  0
 22 21  1  0
 22 23  1  0
 23 24  2  0
 25 27  1  0
 26 25  2  0
M  END
$$$$
