QVH.pdb
     RDKit          3D

 27 27  0  0  1  0  0  0  0  0999 V2000
   15.9119  -10.4050  -18.8965 N   0  0  0  0  0  0  0  0  0  0  0  0
   16.3169  -11.6098  -19.5175 C   0  0  0  0  0  0  0  0  0  0  0  0
   15.6548  -12.0322  -20.4927 O   0  0  0  0  0  0  0  0  0  0  0  0
   17.4804  -12.3464  -19.0349 C   0  0  0  0  0  0  0  0  0  0  0  0
   18.1812  -11.7670  -17.8557 C   0  0  0  0  0  0  0  0  0  0  0  0
   19.3489  -12.5460  -17.3517 C   0  0  2  0  0  0  0  0  0  0  0  0
   18.9619  -13.8473  -16.8420 N   0  0  0  0  0  0  0  0  0  0  0  0
   19.9821  -11.7666  -16.2292 C   0  0  0  0  0  0  0  0  0  0  0  0
   19.3982  -11.6725  -15.1185 O   0  0  0  0  0  0  0  0  0  0  0  0
   23.3815  -12.1993  -14.9069 C   0  0  0  0  0  0  0  0  0  0  0  0
   23.3544  -10.7437  -15.3389 C   0  0  2  0  0  0  0  0  0  0  0  0
   24.1205   -9.9467  -14.3290 C   0  0  0  0  0  0  0  0  0  0  0  0
   21.8860  -10.3312  -15.3909 C   0  0  2  0  0  0  0  0  0  0  0  0
   21.2329  -11.1255  -16.3836 N   0  0  0  0  0  0  0  0  0  0  0  0
   21.7432   -8.8759  -15.6238 C   0  0  0  0  0  0  0  0  0  0  0  0
   22.2623   -8.3668  -16.6499 O   0  0  0  0  0  0  0  0  0  0  0  0
   21.0449   -7.9999  -14.7476 N   0  0  0  0  0  0  0  0  0  0  0  0
   20.9462   -6.5660  -15.0059 C   0  0  1  0  0  0  0  0  0  0  0  0
   19.5746   -6.0460  -14.6696 C   0  0  0  0  0  0  0  0  0  0  0  0
   19.4052   -4.6053  -14.8819 C   0  0  0  0  0  0  0  0  0  0  0  0
   20.3603   -3.8148  -15.5302 C   0  0  0  0  0  0  0  0  0  0  0  0
   19.8828   -2.5604  -15.5480 N   0  0  0  0  0  0  0  0  0  0  0  0
   18.6961   -2.5594  -14.9463 C   0  0  0  0  0  0  0  0  0  0  0  0
   18.3745   -3.7917  -14.5278 N   0  0  0  0  0  0  0  0  0  0  0  0
   21.9775   -5.8101  -14.2880 C   0  0  0  0  0  0  0  0  0  0  0  0
   22.2166   -6.1294  -13.0875 O   0  0  0  0  0  0  0  0  0  0  0  0
   22.6875   -4.7784  -14.8633 O   0  0  0  0  0  0  0  0  0  0  0  0
  2  1  1  0
  3  2  2  0
  4  2  1  0
  5  4  1  0
  6  8  1  0
  6  5  1  0
  6  7  1  1
  8  9  2  0
 11 10  1  1
 11 12  1  0
 13 11  1  0
 14  8  1  0
 13 14  1  6
 15 17  1  0
 15 13  1  0
 16 15  2  0
 18 25  1  0
 18 17  1  0
 18 19  1  1
 20 24  1  0
 20 19  1  0
 21 20  2  0
 22 21  1  0
 22 23  1  0
 23 24  2  0
 25 27  1  0
 26 25  2  0
M  END
$$$$
