MES.pdb
     RDKit          3D

 24 23  0  0  1  0  0  0  0  0999 V2000
   28.3380  -10.5550  -15.8416 C   0  0  0  0  0  0  0  0  0  0  0  0
   28.1682  -12.2577  -16.3163 S   0  0  0  0  0  0  0  0  0  0  0  0
   26.4758  -12.8123  -16.4064 C   0  0  0  0  0  0  0  0  0  0  0  0
   25.4945  -11.7387  -16.7232 C   0  0  0  0  0  0  0  0  0  0  0  0
   24.0969  -12.2309  -16.7591 C   0  0  2  0  0  0  0  0  0  0  0  0
   23.9673  -13.1095  -17.9144 N   0  0  0  0  0  0  0  0  0  0  0  0
   23.1358  -11.0707  -16.9187 C   0  0  0  0  0  0  0  0  0  0  0  0
   23.0702  -10.5256  -18.0449 O   0  0  0  0  0  0  0  0  0  0  0  0
   22.3734  -10.6688  -15.8040 N   0  0  0  0  0  0  0  0  0  0  0  0
   21.4539   -9.5112  -15.9216 C   0  0  1  0  0  0  0  0  0  0  0  0
   20.1582   -9.8322  -15.2383 C   0  0  0  0  0  0  0  0  0  0  0  0
   19.3261  -10.7561  -16.0588 C   0  0  0  0  0  0  0  0  0  0  0  0
   18.0464  -11.0403  -15.3404 C   0  0  0  0  0  0  0  0  0  0  0  0
   17.7043  -12.2215  -15.0838 O   0  0  0  0  0  0  0  0  0  0  0  0
   22.1152   -8.3843  -15.2258 C   0  0  0  0  0  0  0  0  0  0  0  0
   22.6902   -8.4550  -14.1090 O   0  0  0  0  0  0  0  0  0  0  0  0
   17.2302   -9.9949  -14.9539 O   0  0  0  0  0  0  0  0  0  0  0  0
   23.4904   -5.2695  -17.3210 O   0  0  0  0  0  0  0  0  0  0  0  0
   22.8182   -4.8056  -16.2139 C   0  0  0  0  0  0  0  0  0  0  0  0
   22.7162   -5.9212  -15.1658 C   0  0  2  0  0  0  0  0  0  0  0  0
   22.1561   -7.0610  -15.7918 N   0  0  0  0  0  0  0  0  0  0  0  0
   22.0049   -5.3860  -14.0268 C   0  0  0  0  0  0  0  0  0  0  0  0
   22.4865   -4.4737  -13.3308 O   0  0  0  0  0  0  0  0  0  0  0  0
   20.7668   -5.8800  -13.6849 O   0  0  0  0  0  0  0  0  0  0  0  0
  1  2  1  0
  3  2  1  0
  4  3  1  0
  5  4  1  0
  5  7  1  0
  5  6  1  6
  7  8  2  0
  9  7  1  0
  9 10  1  0
 10 11  1  1
 11 12  1  0
 12 13  1  0
 13 17  1  0
 13 14  2  0
 15 10  1  0
 15 16  2  0
 18 19  1  0
 20 19  1  6
 20 22  1  0
 20 21  1  0
 21 15  1  0
 22 24  1  0
 23 22  2  0
M  END
$$$$
