MES.pdb
     RDKit          3D

 24 23  0  0  1  0  0  0  0  0999 V2000
   15.3758  -12.3990  -15.8810 C   0  0  0  0  0  0  0  0  0  0  0  0
   16.2505  -12.1933  -17.4126 S   0  0  0  0  0  0  0  0  0  0  0  0
   17.7852  -11.3003  -17.2484 C   0  0  0  0  0  0  0  0  0  0  0  0
   17.7670  -10.2354  -16.2083 C   0  0  0  0  0  0  0  0  0  0  0  0
   19.0494   -9.4976  -16.1197 C   0  0  2  0  0  0  0  0  0  0  0  0
   20.0318  -10.3897  -15.5176 N   0  0  0  0  0  0  0  0  0  0  0  0
   18.8928   -8.2771  -15.2359 C   0  0  0  0  0  0  0  0  0  0  0  0
   18.5380   -8.4650  -14.0491 O   0  0  0  0  0  0  0  0  0  0  0  0
   19.1514   -7.0071  -15.7886 N   0  0  0  0  0  0  0  0  0  0  0  0
   18.9755   -5.7933  -14.9548 C   0  0  1  0  0  0  0  0  0  0  0  0
   20.3055   -5.1312  -14.7512 C   0  0  0  0  0  0  0  0  0  0  0  0
   20.7803   -5.2867  -13.3479 C   0  0  0  0  0  0  0  0  0  0  0  0
   22.1109   -4.6223  -13.1985 C   0  0  0  0  0  0  0  0  0  0  0  0
   23.1736   -5.2742  -13.3535 O   0  0  0  0  0  0  0  0  0  0  0  0
   18.0845   -4.8912  -15.7187 C   0  0  0  0  0  0  0  0  0  0  0  0
   18.1538   -4.6763  -16.9564 O   0  0  0  0  0  0  0  0  0  0  0  0
   22.1750   -3.2780  -12.8869 O   0  0  0  0  0  0  0  0  0  0  0  0
   14.4051   -4.3247  -14.5755 O   0  0  0  0  0  0  0  0  0  0  0  0
   14.8999   -3.0791  -14.8857 C   0  0  0  0  0  0  0  0  0  0  0  0
   16.1736   -3.2239  -15.7284 C   0  0  2  0  0  0  0  0  0  0  0  0
   17.0228   -4.1550  -15.0831 N   0  0  0  0  0  0  0  0  0  0  0  0
   16.7053   -1.8974  -15.9469 C   0  0  0  0  0  0  0  0  0  0  0  0
   17.8440   -1.5820  -15.5564 O   0  0  0  0  0  0  0  0  0  0  0  0
   15.9547   -0.9456  -16.5984 O   0  0  0  0  0  0  0  0  0  0  0  0
  1  2  1  0
  3  2  1  0
  4  3  1  0
  5  4  1  0
  5  7  1  0
  5  6  1  1
  7  8  2  0
  9  7  1  0
  9 10  1  0
 10 11  1  6
 11 12  1  0
 12 13  1  0
 13 17  1  0
 13 14  2  0
 15 10  1  0
 15 16  2  0
 18 19  1  0
 20 19  1  1
 20 22  1  0
 20 21  1  0
 21 15  1  0
 22 24  1  0
 23 22  2  0
M  END
$$$$
