MES.pdb
     RDKit          3D

 24 23  0  0  1  0  0  0  0  0999 V2000
   15.4978  -13.0588  -20.1264 C   0  0  0  0  0  0  0  0  0  0  0  0
   15.6627  -11.6019  -19.1247 S   0  0  0  0  0  0  0  0  0  0  0  0
   17.1932  -11.5274  -18.2126 C   0  0  0  0  0  0  0  0  0  0  0  0
   17.2843  -10.3877  -17.2593 C   0  0  0  0  0  0  0  0  0  0  0  0
   18.6207  -10.2721  -16.6289 C   0  0  2  0  0  0  0  0  0  0  0  0
   18.8764  -11.5105  -15.9047 N   0  0  0  0  0  0  0  0  0  0  0  0
   18.6394   -9.1196  -15.6457 C   0  0  0  0  0  0  0  0  0  0  0  0
   18.2338   -9.3462  -14.4822 O   0  0  0  0  0  0  0  0  0  0  0  0
   19.1068   -7.8655  -16.0862 N   0  0  0  0  0  0  0  0  0  0  0  0
   19.1373   -6.7205  -15.1441 C   0  0  1  0  0  0  0  0  0  0  0  0
   20.5459   -6.4911  -14.6836 C   0  0  0  0  0  0  0  0  0  0  0  0
   20.6298   -5.3339  -13.7493 C   0  0  0  0  0  0  0  0  0  0  0  0
   22.0423   -5.1708  -13.2882 C   0  0  0  0  0  0  0  0  0  0  0  0
   22.6566   -4.0909  -13.4745 O   0  0  0  0  0  0  0  0  0  0  0  0
   18.6676   -5.5426  -15.9079 C   0  0  0  0  0  0  0  0  0  0  0  0
   19.0854   -5.1975  -17.0434 O   0  0  0  0  0  0  0  0  0  0  0  0
   22.6806   -6.2170  -12.6505 O   0  0  0  0  0  0  0  0  0  0  0  0
   14.9939   -4.0063  -15.2124 O   0  0  0  0  0  0  0  0  0  0  0  0
   15.9344   -3.0050  -15.2845 C   0  0  0  0  0  0  0  0  0  0  0  0
   17.1644   -3.5053  -16.0530 C   0  0  2  0  0  0  0  0  0  0  0  0
   17.6538   -4.6588  -15.3939 N   0  0  0  0  0  0  0  0  0  0  0  0
   18.0777   -2.3927  -16.1865 C   0  0  0  0  0  0  0  0  0  0  0  0
   18.5410   -1.8098  -15.1895 O   0  0  0  0  0  0  0  0  0  0  0  0
   18.4577   -1.9503  -17.4331 O   0  0  0  0  0  0  0  0  0  0  0  0
  1  2  1  0
  3  2  1  0
  4  3  1  0
  5  4  1  0
  5  7  1  0
  5  6  1  1
  7  8  2  0
  9  7  1  0
  9 10  1  0
 10 11  1  6
 11 12  1  0
 12 13  1  0
 13 17  1  0
 13 14  2  0
 15 10  1  0
 15 16  2  0
 18 19  1  0
 20 19  1  1
 20 22  1  0
 20 21  1  0
 21 15  1  0
 22 24  1  0
 23 22  2  0
M  END
$$$$
