MES.pdb
     RDKit          3D

 24 23  0  0  1  0  0  0  0  0999 V2000
   31.9386  -31.8311   -5.8538 C   0  0  0  0  0  0  0  0  0  0  0  0
   32.8937  -32.6890   -7.0807 S   0  0  0  0  0  0  0  0  0  0  0  0
   34.0276  -33.8852   -6.4003 C   0  0  0  0  0  0  0  0  0  0  0  0
   33.4456  -34.7443   -5.3330 C   0  0  0  0  0  0  0  0  0  0  0  0
   34.4208  -35.7148   -4.7817 C   0  0  2  0  0  0  0  0  0  0  0  0
   34.6679  -36.7226   -5.8048 N   0  0  0  0  0  0  0  0  0  0  0  0
   33.8481  -36.3952   -3.5553 C   0  0  0  0  0  0  0  0  0  0  0  0
   33.2908  -37.5055   -3.7179 O   0  0  0  0  0  0  0  0  0  0  0  0
   33.9704  -35.7509   -2.3082 N   0  0  0  0  0  0  0  0  0  0  0  0
   33.4463  -36.4089   -1.0868 C   0  0  1  0  0  0  0  0  0  0  0  0
   34.2829  -36.0106    0.0923 C   0  0  0  0  0  0  0  0  0  0  0  0
   33.8771  -36.7496    1.3204 C   0  0  0  0  0  0  0  0  0  0  0  0
   34.7432  -36.3259    2.4625 C   0  0  0  0  0  0  0  0  0  0  0  0
   35.9002  -36.7963    2.5984 O   0  0  0  0  0  0  0  0  0  0  0  0
   32.0651  -35.9079   -0.9062 C   0  0  0  0  0  0  0  0  0  0  0  0
   31.6784  -34.7356   -1.1491 O   0  0  0  0  0  0  0  0  0  0  0  0
   34.2686  -35.4077    3.3792 O   0  0  0  0  0  0  0  0  0  0  0  0
   27.8729  -37.4494   -1.3477 O   0  0  0  0  0  0  0  0  0  0  0  0
   28.7773  -37.6024   -0.3224 C   0  0  0  0  0  0  0  0  0  0  0  0
   29.6636  -36.3540   -0.2242 C   0  0  2  0  0  0  0  0  0  0  0  0
   31.0078  -36.7543   -0.4175 N   0  0  0  0  0  0  0  0  0  0  0  0
   29.3517  -35.6946    1.0239 C   0  0  0  0  0  0  0  0  0  0  0  0
   29.9882  -35.9401    2.0646 O   0  0  0  0  0  0  0  0  0  0  0  0
   28.3329  -34.7715    1.0874 O   0  0  0  0  0  0  0  0  0  0  0  0
  1  2  1  0
  3  2  1  0
  4  3  1  0
  5  4  1  0
  5  7  1  0
  5  6  1  6
  7  8  2  0
  9  7  1  0
  9 10  1  0
 10 11  1  1
 11 12  1  0
 12 13  1  0
 13 17  1  0
 13 14  2  0
 15 10  1  0
 15 16  2  0
 18 19  1  0
 20 19  1  1
 20 22  1  0
 20 21  1  0
 21 15  1  0
 22 24  1  0
 23 22  2  0
M  END
$$$$
