MES.pdb
     RDKit          3D

 24 23  0  0  1  0  0  0  0  0999 V2000
   19.4335  -11.1694  -20.7036 C   0  0  0  0  0  0  0  0  0  0  0  0
   19.6174  -12.5597  -19.6143 S   0  0  0  0  0  0  0  0  0  0  0  0
   18.3066  -12.7099  -18.4147 C   0  0  0  0  0  0  0  0  0  0  0  0
   18.0886  -11.4910  -17.5884 C   0  0  0  0  0  0  0  0  0  0  0  0
   19.2350  -11.1878  -16.6991 C   0  0  2  0  0  0  0  0  0  0  0  0
   19.3355  -12.2663  -15.7244 N   0  0  0  0  0  0  0  0  0  0  0  0
   18.9977   -9.8854  -15.9625 C   0  0  0  0  0  0  0  0  0  0  0  0
   17.9900   -9.8162  -15.2213 O   0  0  0  0  0  0  0  0  0  0  0  0
   19.9130   -8.8302  -16.1473 N   0  0  0  0  0  0  0  0  0  0  0  0
   19.7724   -7.5876  -15.3501 C   0  0  1  0  0  0  0  0  0  0  0  0
   21.0965   -7.2323  -14.7426 C   0  0  0  0  0  0  0  0  0  0  0  0
   21.0072   -5.9805  -13.9401 C   0  0  0  0  0  0  0  0  0  0  0  0
   22.3491   -5.6662  -13.3614 C   0  0  0  0  0  0  0  0  0  0  0  0
   23.2326   -5.1074  -14.0581 O   0  0  0  0  0  0  0  0  0  0  0  0
   19.3634   -6.5292  -16.3009 C   0  0  0  0  0  0  0  0  0  0  0  0
   19.9082   -6.2979  -17.4111 O   0  0  0  0  0  0  0  0  0  0  0  0
   22.6226   -5.9926  -12.0472 O   0  0  0  0  0  0  0  0  0  0  0  0
   16.3527   -4.0177  -15.0934 O   0  0  0  0  0  0  0  0  0  0  0  0
   16.3831   -4.2346  -16.4515 C   0  0  0  0  0  0  0  0  0  0  0  0
   17.8055   -4.6146  -16.8827 C   0  0  2  0  0  0  0  0  0  0  0  0
   18.2649   -5.6410  -16.0225 N   0  0  0  0  0  0  0  0  0  0  0  0
   18.5877   -3.3996  -16.9254 C   0  0  0  0  0  0  0  0  0  0  0  0
   19.5572   -3.2246  -16.1651 O   0  0  0  0  0  0  0  0  0  0  0  0
   18.2726   -2.4003  -17.8176 O   0  0  0  0  0  0  0  0  0  0  0  0
  1  2  1  0
  3  2  1  0
  4  3  1  0
  5  4  1  0
  5  7  1  0
  5  6  1  1
  7  8  2  0
  9  7  1  0
  9 10  1  0
 10 11  1  6
 11 12  1  0
 12 13  1  0
 13 17  1  0
 13 14  2  0
 15 10  1  0
 15 16  2  0
 18 19  1  0
 20 19  1  1
 20 22  1  0
 20 21  1  0
 21 15  1  0
 22 24  1  0
 23 22  2  0
M  END
$$$$
