MES.pdb
     RDKit          3D

 24 23  0  0  1  0  0  0  0  0999 V2000
   28.9340  -13.7179  -15.2588 C   0  0  0  0  0  0  0  0  0  0  0  0
   27.4757  -12.7656  -15.6052 S   0  0  0  0  0  0  0  0  0  0  0  0
   27.6246  -11.7223  -17.0436 C   0  0  0  0  0  0  0  0  0  0  0  0
   26.4776  -10.7964  -17.2512 C   0  0  0  0  0  0  0  0  0  0  0  0
   25.2025  -11.5093  -17.5018 C   0  0  2  0  0  0  0  0  0  0  0  0
   25.3184  -12.1830  -18.7887 N   0  0  0  0  0  0  0  0  0  0  0  0
   24.0543  -10.5233  -17.5693 C   0  0  0  0  0  0  0  0  0  0  0  0
   23.8031  -10.0043  -18.6815 O   0  0  0  0  0  0  0  0  0  0  0  0
   23.3360  -10.2436  -16.3898 N   0  0  0  0  0  0  0  0  0  0  0  0
   22.1919   -9.3009  -16.4325 C   0  0  1  0  0  0  0  0  0  0  0  0
   20.9587   -9.9902  -15.9296 C   0  0  0  0  0  0  0  0  0  0  0  0
   19.7875   -9.0697  -15.9209 C   0  0  0  0  0  0  0  0  0  0  0  0
   18.5852   -9.8024  -15.4190 C   0  0  0  0  0  0  0  0  0  0  0  0
   17.4298   -9.3525  -15.6216 O   0  0  0  0  0  0  0  0  0  0  0  0
   22.5405   -8.1845  -15.5250 C   0  0  0  0  0  0  0  0  0  0  0  0
   22.9380   -8.3085  -14.3378 O   0  0  0  0  0  0  0  0  0  0  0  0
   18.7438  -10.9864  -14.7252 O   0  0  0  0  0  0  0  0  0  0  0  0
   21.7759   -4.3433  -16.8171 O   0  0  0  0  0  0  0  0  0  0  0  0
   22.9372   -4.4764  -16.0916 C   0  0  0  0  0  0  0  0  0  0  0  0
   22.8291   -5.6914  -15.1612 C   0  0  2  0  0  0  0  0  0  0  0  0
   22.4496   -6.8095  -15.9423 N   0  0  0  0  0  0  0  0  0  0  0  0
   21.9524   -5.3290  -14.0704 C   0  0  0  0  0  0  0  0  0  0  0  0
   20.8431   -5.8728  -13.9209 O   0  0  0  0  0  0  0  0  0  0  0  0
   22.3307   -4.3642  -13.1648 O   0  0  0  0  0  0  0  0  0  0  0  0
  1  2  1  0
  3  2  1  0
  4  3  1  0
  5  4  1  0
  5  7  1  0
  5  6  1  6
  7  8  2  0
  9  7  1  0
  9 10  1  0
 10 11  1  1
 11 12  1  0
 12 13  1  0
 13 17  1  0
 13 14  2  0
 15 10  1  0
 15 16  2  0
 18 19  1  0
 20 19  1  6
 20 22  1  0
 20 21  1  0
 21 15  1  0
 22 24  1  0
 23 22  2  0
M  END
$$$$
