MES.pdb
     RDKit          3D

 24 23  0  0  1  0  0  0  0  0999 V2000
   29.0568  -15.8546  -16.9905 C   0  0  0  0  0  0  0  0  0  0  0  0
   27.5742  -16.8000  -16.7427 S   0  0  0  0  0  0  0  0  0  0  0  0
   27.0736  -17.7384  -18.1739 C   0  0  0  0  0  0  0  0  0  0  0  0
   25.8935  -18.6175  -17.9490 C   0  0  0  0  0  0  0  0  0  0  0  0
   25.7715  -19.0657  -16.5415 C   0  0  2  0  0  0  0  0  0  0  0  0
   26.7908  -20.0815  -16.3113 N   0  0  0  0  0  0  0  0  0  0  0  0
   24.4077  -19.6806  -16.3028 C   0  0  0  0  0  0  0  0  0  0  0  0
   24.1831  -20.8033  -16.8115 O   0  0  0  0  0  0  0  0  0  0  0  0
   23.4721  -18.9655  -15.5291 N   0  0  0  0  0  0  0  0  0  0  0  0
   22.1233  -19.5359  -15.2950 C   0  0  1  0  0  0  0  0  0  0  0  0
   21.5715  -18.9996  -14.0080 C   0  0  0  0  0  0  0  0  0  0  0  0
   20.2200  -19.5572  -13.7225 C   0  0  0  0  0  0  0  0  0  0  0  0
   19.7184  -19.0025  -12.4283 C   0  0  0  0  0  0  0  0  0  0  0  0
   20.3943  -18.1594  -11.7875 O   0  0  0  0  0  0  0  0  0  0  0  0
   21.2796  -19.0816  -16.4234 C   0  0  0  0  0  0  0  0  0  0  0  0
   21.2457  -17.9103  -16.8814 O   0  0  0  0  0  0  0  0  0  0  0  0
   18.4994  -19.4198  -11.9299 O   0  0  0  0  0  0  0  0  0  0  0  0
   18.4094  -21.6748  -17.8720 O   0  0  0  0  0  0  0  0  0  0  0  0
   19.0355  -20.9243  -18.8402 C   0  0  0  0  0  0  0  0  0  0  0  0
   19.5765  -19.6292  -18.2210 C   0  0  2  0  0  0  0  0  0  0  0  0
   20.3922  -19.9781  -17.1175 N   0  0  0  0  0  0  0  0  0  0  0  0
   18.4463  -18.7691  -17.9514 C   0  0  0  0  0  0  0  0  0  0  0  0
   18.1647  -18.4109  -16.7934 O   0  0  0  0  0  0  0  0  0  0  0  0
   17.6496  -18.3240  -18.9815 O   0  0  0  0  0  0  0  0  0  0  0  0
  1  2  1  0
  3  2  1  0
  4  3  1  0
  5  4  1  0
  5  7  1  0
  5  6  1  6
  7  8  2  0
  9  7  1  0
  9 10  1  0
 10 11  1  1
 11 12  1  0
 12 13  1  0
 13 17  1  0
 13 14  2  0
 15 10  1  0
 15 16  2  0
 18 19  1  0
 20 19  1  1
 20 22  1  0
 20 21  1  0
 21 15  1  0
 22 24  1  0
 23 22  2  0
M  END
$$$$
