MES.pdb
     RDKit          3D

 24 23  0  0  1  0  0  0  0  0999 V2000
   15.6008  -11.1987  -20.5802 C   0  0  0  0  0  0  0  0  0  0  0  0
   15.8488  -10.6245  -18.9182 S   0  0  0  0  0  0  0  0  0  0  0  0
   17.5221  -10.8191  -18.3338 C   0  0  0  0  0  0  0  0  0  0  0  0
   17.8143  -10.1047  -17.0609 C   0  0  0  0  0  0  0  0  0  0  0  0
   19.1942  -10.3406  -16.5739 C   0  0  2  0  0  0  0  0  0  0  0  0
   19.1693  -11.5326  -15.7360 N   0  0  0  0  0  0  0  0  0  0  0  0
   19.6639   -9.1672  -15.7387 C   0  0  0  0  0  0  0  0  0  0  0  0
   19.4583   -9.2180  -14.5038 O   0  0  0  0  0  0  0  0  0  0  0  0
   20.3009   -8.0906  -16.3870 N   0  0  0  0  0  0  0  0  0  0  0  0
   20.8519   -6.9718  -15.5845 C   0  0  1  0  0  0  0  0  0  0  0  0
   22.3386   -6.9098  -15.7701 C   0  0  0  0  0  0  0  0  0  0  0  0
   22.9335   -5.7740  -15.0117 C   0  0  0  0  0  0  0  0  0  0  0  0
   24.4076   -5.7331  -15.2560 C   0  0  0  0  0  0  0  0  0  0  0  0
   25.0800   -4.7171  -14.9497 O   0  0  0  0  0  0  0  0  0  0  0  0
   20.2341   -5.7363  -16.1167 C   0  0  0  0  0  0  0  0  0  0  0  0
   20.2835   -5.3555  -17.3148 O   0  0  0  0  0  0  0  0  0  0  0  0
   25.0390   -6.8226  -15.8244 O   0  0  0  0  0  0  0  0  0  0  0  0
   16.7985   -4.2835  -14.8517 O   0  0  0  0  0  0  0  0  0  0  0  0
   17.7462   -3.2904  -14.7597 C   0  0  0  0  0  0  0  0  0  0  0  0
   18.9207   -3.6084  -15.6939 C   0  0  2  0  0  0  0  0  0  0  0  0
   19.4966   -4.8316  -15.2736 N   0  0  0  0  0  0  0  0  0  0  0  0
   19.7874   -2.4516  -15.7144 C   0  0  0  0  0  0  0  0  0  0  0  0
   20.5584   -2.2013  -14.7702 O   0  0  0  0  0  0  0  0  0  0  0  0
   19.7775   -1.5938  -16.7905 O   0  0  0  0  0  0  0  0  0  0  0  0
  1  2  1  0
  3  2  1  0
  4  3  1  0
  5  4  1  0
  5  7  1  0
  5  6  1  1
  7  8  2  0
  9  7  1  0
  9 10  1  0
 10 11  1  6
 11 12  1  0
 12 13  1  0
 13 17  1  0
 13 14  2  0
 15 10  1  0
 15 16  2  0
 18 19  1  0
 20 19  1  1
 20 22  1  0
 20 21  1  0
 21 15  1  0
 22 24  1  0
 23 22  2  0
M  END
$$$$
