MES.pdb
     RDKit          3D

 24 23  0  0  1  0  0  0  0  0999 V2000
   18.8276  -16.2620  -17.5640 C   0  0  0  0  0  0  0  0  0  0  0  0
   18.6917  -14.7844  -16.5885 S   0  0  0  0  0  0  0  0  0  0  0  0
   19.5071  -13.3715  -17.3085 C   0  0  0  0  0  0  0  0  0  0  0  0
   19.3218  -12.1039  -16.5502 C   0  0  0  0  0  0  0  0  0  0  0  0
   19.9978  -10.9494  -17.1880 C   0  0  2  0  0  0  0  0  0  0  0  0
   21.4344  -11.1348  -17.0280 N   0  0  0  0  0  0  0  0  0  0  0  0
   19.5934   -9.6602  -16.5028 C   0  0  0  0  0  0  0  0  0  0  0  0
   18.3689   -9.4069  -16.4250 O   0  0  0  0  0  0  0  0  0  0  0  0
   20.6047   -8.8213  -15.9940 N   0  0  0  0  0  0  0  0  0  0  0  0
   20.2482   -7.4906  -15.4450 C   0  0  1  0  0  0  0  0  0  0  0  0
   21.3507   -7.0088  -14.5500 C   0  0  0  0  0  0  0  0  0  0  0  0
   21.0219   -5.6869  -13.9470 C   0  0  0  0  0  0  0  0  0  0  0  0
   22.1529   -5.2449  -13.0753 C   0  0  0  0  0  0  0  0  0  0  0  0
   22.8812   -4.2780  -13.4116 O   0  0  0  0  0  0  0  0  0  0  0  0
   20.1214   -6.5830  -16.6076 C   0  0  0  0  0  0  0  0  0  0  0  0
   21.0019   -6.3995  -17.4874 O   0  0  0  0  0  0  0  0  0  0  0  0
   22.4016   -5.9047  -11.8874 O   0  0  0  0  0  0  0  0  0  0  0  0
   16.6645   -5.9735  -18.2961 O   0  0  0  0  0  0  0  0  0  0  0  0
   17.2394   -4.7337  -18.1373 C   0  0  0  0  0  0  0  0  0  0  0  0
   18.7473   -4.8894  -17.9019 C   0  0  2  0  0  0  0  0  0  0  0  0
   18.9327   -5.8034  -16.8366 N   0  0  0  0  0  0  0  0  0  0  0  0
   19.3010   -3.5651  -17.7299 C   0  0  0  0  0  0  0  0  0  0  0  0
   19.6206   -2.8632  -18.7065 O   0  0  0  0  0  0  0  0  0  0  0  0
   19.4880   -3.0477  -16.4685 O   0  0  0  0  0  0  0  0  0  0  0  0
  1  2  1  0
  3  2  1  0
  4  3  1  0
  5  4  1  0
  5  7  1  0
  5  6  1  1
  7  8  2  0
  9  7  1  0
  9 10  1  0
 10 11  1  1
 11 12  1  0
 12 13  1  0
 13 17  1  0
 13 14  2  0
 15 10  1  0
 15 16  2  0
 18 19  1  0
 20 19  1  1
 20 22  1  0
 20 21  1  0
 21 15  1  0
 22 24  1  0
 23 22  2  0
M  END
$$$$
