MES.pdb
     RDKit          3D

 24 23  0  0  1  0  0  0  0  0999 V2000
   20.3641  -25.2583    2.4509 C   0  0  0  0  0  0  0  0  0  0  0  0
   20.5195  -23.6916    3.2724 S   0  0  0  0  0  0  0  0  0  0  0  0
   18.9673  -22.8444    3.5019 C   0  0  0  0  0  0  0  0  0  0  0  0
   19.0658  -21.5871    4.2928 C   0  0  0  0  0  0  0  0  0  0  0  0
   17.7513  -20.9337    4.4980 C   0  0  2  0  0  0  0  0  0  0  0  0
   17.2743  -20.4823    3.1971 N   0  0  0  0  0  0  0  0  0  0  0  0
   17.8994  -19.7309    5.4072 C   0  0  0  0  0  0  0  0  0  0  0  0
   17.9747  -18.6035    4.8661 O   0  0  0  0  0  0  0  0  0  0  0  0
   17.9444  -19.9403    6.7998 N   0  0  0  0  0  0  0  0  0  0  0  0
   18.0282  -18.7766    7.7154 C   0  0  1  0  0  0  0  0  0  0  0  0
   17.0432  -18.9493    8.8328 C   0  0  0  0  0  0  0  0  0  0  0  0
   15.6712  -18.5478    8.4140 C   0  0  0  0  0  0  0  0  0  0  0  0
   14.7239  -18.7612    9.5504 C   0  0  0  0  0  0  0  0  0  0  0  0
   14.8156  -19.7811   10.2783 O   0  0  0  0  0  0  0  0  0  0  0  0
   19.4037  -18.7779    8.2626 C   0  0  0  0  0  0  0  0  0  0  0  0
   20.2022  -19.7493    8.2224 O   0  0  0  0  0  0  0  0  0  0  0  0
   13.7369  -17.8287    9.8048 O   0  0  0  0  0  0  0  0  0  0  0  0
   23.5302  -17.2013    8.8661 O   0  0  0  0  0  0  0  0  0  0  0  0
   22.2460  -17.1694    8.3739 C   0  0  0  0  0  0  0  0  0  0  0  0
   21.2575  -17.5513    9.4833 C   0  0  2  0  0  0  0  0  0  0  0  0
   19.9637  -17.6217    8.9127 N   0  0  0  0  0  0  0  0  0  0  0  0
   21.4413  -16.6178   10.5717 C   0  0  0  0  0  0  0  0  0  0  0  0
   20.7374  -15.5971   10.6774 O   0  0  0  0  0  0  0  0  0  0  0  0
   22.4095  -16.8412   11.5239 O   0  0  0  0  0  0  0  0  0  0  0  0
  1  2  1  0
  3  2  1  0
  4  3  1  0
  5  4  1  0
  5  7  1  0
  5  6  1  6
  7  8  2  0
  9  7  1  0
  9 10  1  0
 10 11  1  1
 11 12  1  0
 12 13  1  0
 13 17  1  0
 13 14  2  0
 15 10  1  0
 15 16  2  0
 18 19  1  0
 20 19  1  6
 20 22  1  0
 20 21  1  0
 21 15  1  0
 22 24  1  0
 23 22  2  0
M  END
$$$$
