SDH.pdb
     RDKit          3D

 25 25  0  0  1  0  0  0  0  0999 V2000
   17.3449  -12.8909  -17.5911 O   0  0  0  0  0  0  0  0  0  0  0  0
   18.4512  -13.2814  -18.3454 C   0  0  0  0  0  0  0  0  0  0  0  0
   19.5018  -13.7718  -17.3635 C   0  0  2  0  0  0  0  0  0  0  0  0
   18.9315  -14.7917  -16.5102 N   0  0  0  0  0  0  0  0  0  0  0  0
   19.9184  -12.6322  -16.5090 C   0  0  0  0  0  0  0  0  0  0  0  0
   19.7078  -12.6746  -15.2717 O   0  0  0  0  0  0  0  0  0  0  0  0
   20.5487  -11.4769  -16.9946 N   0  0  0  0  0  0  0  0  0  0  0  0
   20.9233  -10.3272  -16.1416 C   0  0  1  0  0  0  0  0  0  0  0  0
   22.3995  -10.1999  -16.3002 C   0  0  0  0  0  0  0  0  0  0  0  0
   23.0550   -9.1224  -15.5751 C   0  0  0  0  0  0  0  0  0  0  0  0
   22.5479   -8.2507  -14.8524 O   0  0  0  0  0  0  0  0  0  0  0  0
   20.1464   -9.1352  -16.5658 C   0  0  0  0  0  0  0  0  0  0  0  0
   20.1656   -8.8032  -17.7704 O   0  0  0  0  0  0  0  0  0  0  0  0
   24.4587   -9.0526  -15.7072 O   0  0  0  0  0  0  0  0  0  0  0  0
   19.3834   -8.3500  -15.6864 N   0  0  0  0  0  0  0  0  0  0  0  0
   18.7201   -7.1269  -16.1387 C   0  0  1  0  0  0  0  0  0  0  0  0
   17.3156   -7.0562  -15.6240 C   0  0  0  0  0  0  0  0  0  0  0  0
   16.6353   -5.8691  -16.1847 C   0  0  0  0  0  0  0  0  0  0  0  0
   16.9452   -5.1308  -17.3131 C   0  0  0  0  0  0  0  0  0  0  0  0
   16.0503   -4.1357  -17.4006 N   0  0  0  0  0  0  0  0  0  0  0  0
   15.1809   -4.2174  -16.3635 C   0  0  0  0  0  0  0  0  0  0  0  0
   15.5390   -5.2728  -15.6254 N   0  0  0  0  0  0  0  0  0  0  0  0
   19.5554   -5.9752  -15.8073 C   0  0  0  0  0  0  0  0  0  0  0  0
   20.1798   -5.9775  -14.6980 O   0  0  0  0  0  0  0  0  0  0  0  0
   19.6955   -4.8934  -16.6428 O   0  0  0  0  0  0  0  0  0  0  0  0
  2  3  1  0
  2  1  1  0
  3  4  1  1
  5  3  1  0
  6  5  2  0
  7  5  1  0
  8 12  1  0
  8  7  1  0
  8  9  1  6
 10  9  1  0
 10 11  2  0
 12 15  1  0
 13 12  2  0
 14 10  1  0
 15 16  1  0
 16 17  1  1
 16 23  1  0
 18 17  1  0
 19 18  2  0
 20 19  1  0
 21 20  1  0
 21 22  2  0
 22 18  1  0
 23 24  2  0
 23 25  1  0
M  END
$$$$
