SDH.pdb
     RDKit          3D

 25 25  0  0  1  0  0  0  0  0999 V2000
   15.8109   -8.7541  -10.3127 O   0  0  0  0  0  0  0  0  0  0  0  0
   16.9443   -8.4202   -9.5717 C   0  0  0  0  0  0  0  0  0  0  0  0
   17.2209   -6.9487   -9.8304 C   0  0  2  0  0  0  0  0  0  0  0  0
   15.9843   -6.2011   -9.7553 N   0  0  0  0  0  0  0  0  0  0  0  0
   17.7670   -6.8047  -11.2027 C   0  0  0  0  0  0  0  0  0  0  0  0
   17.0493   -6.3123  -12.1080 O   0  0  0  0  0  0  0  0  0  0  0  0
   19.0637   -7.1888  -11.5752 N   0  0  0  0  0  0  0  0  0  0  0  0
   19.5739   -7.1153  -12.9623 C   0  0  1  0  0  0  0  0  0  0  0  0
   21.0139   -6.7588  -12.8204 C   0  0  0  0  0  0  0  0  0  0  0  0
   21.3318   -5.3576  -12.5918 C   0  0  0  0  0  0  0  0  0  0  0  0
   20.7374   -4.3487  -13.0017 O   0  0  0  0  0  0  0  0  0  0  0  0
   19.3171   -8.4096  -13.6428 C   0  0  0  0  0  0  0  0  0  0  0  0
   19.6228   -9.4688  -13.0541 O   0  0  0  0  0  0  0  0  0  0  0  0
   22.4701   -5.1037  -11.7966 O   0  0  0  0  0  0  0  0  0  0  0  0
   18.7457   -8.5172  -14.9210 N   0  0  0  0  0  0  0  0  0  0  0  0
   18.4521   -9.8211  -15.5162 C   0  0  1  0  0  0  0  0  0  0  0  0
   17.0794   -9.8412  -16.1143 C   0  0  0  0  0  0  0  0  0  0  0  0
   16.7838  -11.1890  -16.6458 C   0  0  0  0  0  0  0  0  0  0  0  0
   17.5383  -12.3465  -16.5730 C   0  0  0  0  0  0  0  0  0  0  0  0
   16.8629  -13.3078  -17.2198 N   0  0  0  0  0  0  0  0  0  0  0  0
   15.7026  -12.7986  -17.7020 C   0  0  0  0  0  0  0  0  0  0  0  0
   15.6570  -11.5095  -17.3513 N   0  0  0  0  0  0  0  0  0  0  0  0
   19.5285  -10.1847  -16.4344 C   0  0  0  0  0  0  0  0  0  0  0  0
   20.0255   -9.2778  -17.1766 O   0  0  0  0  0  0  0  0  0  0  0  0
   20.0262  -11.4621  -16.5278 O   0  0  0  0  0  0  0  0  0  0  0  0
  2  3  1  0
  2  1  1  0
  3  4  1  6
  5  3  1  0
  6  5  2  0
  7  5  1  0
  8 12  1  0
  8  7  1  0
  8  9  1  1
 10  9  1  0
 10 11  2  0
 12 15  1  0
 13 12  2  0
 14 10  1  0
 15 16  1  0
 16 17  1  6
 16 23  1  0
 18 17  1  0
 19 18  2  0
 20 19  1  0
 21 20  1  0
 21 22  2  0
 22 18  1  0
 23 24  2  0
 23 25  1  0
M  END
$$$$
