SDH.pdb
     RDKit          3D

 25 25  0  0  1  0  0  0  0  0999 V2000
   16.4255  -12.4746  -15.9705 O   0  0  0  0  0  0  0  0  0  0  0  0
   17.3538  -11.4337  -15.9564 C   0  0  0  0  0  0  0  0  0  0  0  0
   18.4916  -11.8469  -16.8747 C   0  0  2  0  0  0  0  0  0  0  0  0
   18.8990  -13.2004  -16.5654 N   0  0  0  0  0  0  0  0  0  0  0  0
   19.6465  -10.9478  -16.6299 C   0  0  0  0  0  0  0  0  0  0  0  0
   20.4163  -11.1749  -15.6640 O   0  0  0  0  0  0  0  0  0  0  0  0
   19.9519   -9.8301  -17.4206 N   0  0  0  0  0  0  0  0  0  0  0  0
   21.0634   -8.8979  -17.1282 C   0  0  1  0  0  0  0  0  0  0  0  0
   21.3753   -8.2547  -18.4357 C   0  0  0  0  0  0  0  0  0  0  0  0
   22.3959   -7.2179  -18.4393 C   0  0  0  0  0  0  0  0  0  0  0  0
   22.2551   -5.9882  -18.3533 O   0  0  0  0  0  0  0  0  0  0  0  0
   20.6408   -7.9598  -16.0579 C   0  0  0  0  0  0  0  0  0  0  0  0
   19.4753   -7.5092  -16.0798 O   0  0  0  0  0  0  0  0  0  0  0  0
   23.7300   -7.6639  -18.5562 O   0  0  0  0  0  0  0  0  0  0  0  0
   21.4798   -7.5437  -15.0115 N   0  0  0  0  0  0  0  0  0  0  0  0
   20.9812   -6.6980  -13.9266 C   0  0  1  0  0  0  0  0  0  0  0  0
   21.1479   -7.3728  -12.6002 C   0  0  0  0  0  0  0  0  0  0  0  0
   20.6968   -6.4710  -11.5187 C   0  0  0  0  0  0  0  0  0  0  0  0
   20.2315   -5.1703  -11.5969 C   0  0  0  0  0  0  0  0  0  0  0  0
   19.9638   -4.7635  -10.3473 N   0  0  0  0  0  0  0  0  0  0  0  0
   20.2441   -5.7640   -9.4765 C   0  0  0  0  0  0  0  0  0  0  0  0
   20.6899   -6.8016  -10.1918 N   0  0  0  0  0  0  0  0  0  0  0  0
   21.5947   -5.3760  -14.0257 C   0  0  0  0  0  0  0  0  0  0  0  0
   22.8101   -5.2971  -14.3959 O   0  0  0  0  0  0  0  0  0  0  0  0
   20.9145   -4.2173  -13.7381 O   0  0  0  0  0  0  0  0  0  0  0  0
  2  3  1  0
  2  1  1  0
  3  4  1  1
  5  3  1  0
  6  5  2  0
  7  5  1  0
  8 12  1  0
  8  7  1  0
  8  9  1  6
 10  9  1  0
 10 11  2  0
 12 15  1  0
 13 12  2  0
 14 10  1  0
 15 16  1  0
 16 17  1  1
 16 23  1  0
 18 17  1  0
 19 18  2  0
 20 19  1  0
 21 20  1  0
 21 22  2  0
 22 18  1  0
 23 24  2  0
 23 25  1  0
M  END
$$$$
