SDH.pdb
     RDKit          3D

 25 25  0  0  1  0  0  0  0  0999 V2000
   14.0044  -10.9967  -16.7759 O   0  0  0  0  0  0  0  0  0  0  0  0
   14.8215  -10.1954  -15.9786 C   0  0  0  0  0  0  0  0  0  0  0  0
   16.0469  -11.0243  -15.6325 C   0  0  2  0  0  0  0  0  0  0  0  0
   15.7087  -11.9873  -14.6069 N   0  0  0  0  0  0  0  0  0  0  0  0
   17.0920  -10.1197  -15.0923 C   0  0  0  0  0  0  0  0  0  0  0  0
   17.2898  -10.0697  -13.8531 O   0  0  0  0  0  0  0  0  0  0  0  0
   17.8997   -9.2919  -15.8861 N   0  0  0  0  0  0  0  0  0  0  0  0
   18.8670   -8.3173  -15.3345 C   0  0  1  0  0  0  0  0  0  0  0  0
   20.2052   -8.9181  -15.5969 C   0  0  0  0  0  0  0  0  0  0  0  0
   21.3711   -8.1154  -15.2611 C   0  0  0  0  0  0  0  0  0  0  0  0
   22.3786   -7.8831  -15.9469 O   0  0  0  0  0  0  0  0  0  0  0  0
   18.6417   -6.9960  -15.9730 C   0  0  0  0  0  0  0  0  0  0  0  0
   18.6394   -6.9243  -17.2207 O   0  0  0  0  0  0  0  0  0  0  0  0
   21.3620   -7.5163  -13.9830 O   0  0  0  0  0  0  0  0  0  0  0  0
   18.4287   -5.8095  -15.2526 N   0  0  0  0  0  0  0  0  0  0  0  0
   18.2592   -4.5257  -15.9336 C   0  0  1  0  0  0  0  0  0  0  0  0
   17.4761   -3.5691  -15.0884 C   0  0  0  0  0  0  0  0  0  0  0  0
   16.0455   -3.9426  -15.1029 C   0  0  0  0  0  0  0  0  0  0  0  0
   15.4537   -5.1625  -14.8275 C   0  0  0  0  0  0  0  0  0  0  0  0
   14.1311   -5.0140  -14.9926 N   0  0  0  0  0  0  0  0  0  0  0  0
   13.8626   -3.7382  -15.3645 C   0  0  0  0  0  0  0  0  0  0  0  0
   15.0290   -3.0886  -15.4308 N   0  0  0  0  0  0  0  0  0  0  0  0
   19.5646   -4.0354  -16.3689 C   0  0  0  0  0  0  0  0  0  0  0  0
   20.5371   -4.0883  -15.5493 O   0  0  0  0  0  0  0  0  0  0  0  0
   19.7851   -3.5224  -17.6245 O   0  0  0  0  0  0  0  0  0  0  0  0
  2  3  1  0
  2  1  1  0
  3  4  1  1
  5  3  1  0
  6  5  2  0
  7  5  1  0
  8 12  1  0
  8  7  1  0
  8  9  1  6
 10  9  1  0
 10 11  2  0
 12 15  1  0
 13 12  2  0
 14 10  1  0
 15 16  1  0
 16 17  1  1
 16 23  1  0
 18 17  1  0
 19 18  2  0
 20 19  1  0
 21 20  1  0
 21 22  2  0
 22 18  1  0
 23 24  2  0
 23 25  1  0
M  END
$$$$
