SDH.pdb
     RDKit          3D

 25 25  0  0  1  0  0  0  0  0999 V2000
   20.3207   -7.7723  -16.1271 O   0  0  0  0  0  0  0  0  0  0  0  0
   19.6029   -7.8520  -14.9339 C   0  0  0  0  0  0  0  0  0  0  0  0
   20.5770   -7.5318  -13.8126 C   0  0  2  0  0  0  0  0  0  0  0  0
   21.6271   -8.5267  -13.7819 N   0  0  0  0  0  0  0  0  0  0  0  0
   19.8469   -7.5884  -12.5219 C   0  0  0  0  0  0  0  0  0  0  0  0
   20.1618   -8.4538  -11.6680 O   0  0  0  0  0  0  0  0  0  0  0  0
   18.8004   -6.7216  -12.1739 N   0  0  0  0  0  0  0  0  0  0  0  0
   18.0715   -6.7909  -10.8880 C   0  0  1  0  0  0  0  0  0  0  0  0
   17.9360   -5.3731  -10.4496 C   0  0  0  0  0  0  0  0  0  0  0  0
   17.3003   -5.1334   -9.1632 C   0  0  0  0  0  0  0  0  0  0  0  0
   16.8636   -5.9586   -8.3461 O   0  0  0  0  0  0  0  0  0  0  0  0
   16.7860   -7.5036  -11.0969 C   0  0  0  0  0  0  0  0  0  0  0  0
   16.1147   -7.2444  -12.1187 O   0  0  0  0  0  0  0  0  0  0  0  0
   17.1574   -3.7804   -8.7867 O   0  0  0  0  0  0  0  0  0  0  0  0
   16.2731   -8.4612  -10.2070 N   0  0  0  0  0  0  0  0  0  0  0  0
   15.1397   -9.3107  -10.5733 C   0  0  1  0  0  0  0  0  0  0  0  0
   15.5794  -10.4456  -11.4458 C   0  0  0  0  0  0  0  0  0  0  0  0
   14.4165  -11.2895  -11.7947 C   0  0  0  0  0  0  0  0  0  0  0  0
   13.0879  -11.1452  -11.4366 C   0  0  0  0  0  0  0  0  0  0  0  0
   12.4122  -12.1691  -11.9783 N   0  0  0  0  0  0  0  0  0  0  0  0
   13.2687  -12.9605  -12.6697 C   0  0  0  0  0  0  0  0  0  0  0  0
   14.4874  -12.4231  -12.5563 N   0  0  0  0  0  0  0  0  0  0  0  0
   14.4238   -9.7068   -9.3631 C   0  0  0  0  0  0  0  0  0  0  0  0
   13.1568   -9.8179   -9.4163 O   0  0  0  0  0  0  0  0  0  0  0  0
   15.0610   -9.9653   -8.1734 O   0  0  0  0  0  0  0  0  0  0  0  0
  2  3  1  0
  2  1  1  0
  3  4  1  1
  5  3  1  0
  6  5  2  0
  7  5  1  0
  8 12  1  0
  8  7  1  0
  8  9  1  6
 10  9  1  0
 10 11  2  0
 12 15  1  0
 13 12  2  0
 14 10  1  0
 15 16  1  0
 16 17  1  1
 16 23  1  0
 18 17  1  0
 19 18  2  0
 20 19  1  0
 21 20  1  0
 21 22  2  0
 22 18  1  0
 23 24  2  0
 23 25  1  0
M  END
$$$$
