SDH.pdb
     RDKit          3D

 25 25  0  0  1  0  0  0  0  0999 V2000
   27.9400  -10.8296  -15.1078 O   0  0  0  0  0  0  0  0  0  0  0  0
   26.8285  -10.1502  -15.6060 C   0  0  0  0  0  0  0  0  0  0  0  0
   25.8528  -11.2055  -16.0988 C   0  0  2  0  0  0  0  0  0  0  0  0
   26.4323  -11.9196  -17.2159 N   0  0  0  0  0  0  0  0  0  0  0  0
   24.6211  -10.5262  -16.5716 C   0  0  0  0  0  0  0  0  0  0  0  0
   24.5461  -10.1347  -17.7626 O   0  0  0  0  0  0  0  0  0  0  0  0
   23.5008  -10.2815  -15.7637 N   0  0  0  0  0  0  0  0  0  0  0  0
   22.2419   -9.6871  -16.2656 C   0  0  1  0  0  0  0  0  0  0  0  0
   21.1617  -10.5239  -15.6710 C   0  0  0  0  0  0  0  0  0  0  0  0
   20.9899  -11.8656  -16.2066 C   0  0  0  0  0  0  0  0  0  0  0  0
   20.7253  -12.2108  -17.3685 O   0  0  0  0  0  0  0  0  0  0  0  0
   22.1981   -8.2523  -15.8865 C   0  0  0  0  0  0  0  0  0  0  0  0
   22.6578   -7.9102  -14.7759 O   0  0  0  0  0  0  0  0  0  0  0  0
   21.1436  -12.9236  -15.2848 O   0  0  0  0  0  0  0  0  0  0  0  0
   21.6659   -7.2458  -16.7086 N   0  0  0  0  0  0  0  0  0  0  0  0
   21.6647   -5.8436  -16.2911 C   0  0  1  0  0  0  0  0  0  0  0  0
   21.4574   -4.9348  -17.4632 C   0  0  0  0  0  0  0  0  0  0  0  0
   21.4200   -3.5288  -17.0070 C   0  0  0  0  0  0  0  0  0  0  0  0
   20.4615   -2.8757  -16.2527 C   0  0  0  0  0  0  0  0  0  0  0  0
   20.8590   -1.6025  -16.1128 N   0  0  0  0  0  0  0  0  0  0  0  0
   22.0400   -1.4248  -16.7545 C   0  0  0  0  0  0  0  0  0  0  0  0
   22.3790   -2.5982  -17.2976 N   0  0  0  0  0  0  0  0  0  0  0  0
   20.7103   -5.6670  -15.1994 C   0  0  0  0  0  0  0  0  0  0  0  0
   19.6144   -6.3133  -15.2408 O   0  0  0  0  0  0  0  0  0  0  0  0
   20.9476   -4.8351  -14.1318 O   0  0  0  0  0  0  0  0  0  0  0  0
  2  3  1  0
  2  1  1  0
  3  4  1  6
  5  3  1  0
  6  5  2  0
  7  5  1  0
  8 12  1  0
  8  7  1  0
  8  9  1  1
 10  9  1  0
 10 11  2  0
 12 15  1  0
 13 12  2  0
 14 10  1  0
 15 16  1  0
 16 17  1  6
 16 23  1  0
 18 17  1  0
 19 18  2  0
 20 19  1  0
 21 20  1  0
 21 22  2  0
 22 18  1  0
 23 24  2  0
 23 25  1  0
M  END
$$$$
