SDH.pdb
     RDKit          3D

 25 25  0  0  1  0  0  0  0  0999 V2000
   13.1308  -12.5917  -13.1425 O   0  0  0  0  0  0  0  0  0  0  0  0
   14.1712  -11.9128  -13.7764 C   0  0  0  0  0  0  0  0  0  0  0  0
   13.5667  -11.2050  -14.9774 C   0  0  2  0  0  0  0  0  0  0  0  0
   13.3301  -12.1614  -16.0371 N   0  0  0  0  0  0  0  0  0  0  0  0
   14.5385  -10.1977  -15.4706 C   0  0  0  0  0  0  0  0  0  0  0  0
   15.3549  -10.5118  -16.3717 O   0  0  0  0  0  0  0  0  0  0  0  0
   14.6153   -8.8816  -14.9914 N   0  0  0  0  0  0  0  0  0  0  0  0
   15.5135   -7.8527  -15.5610 C   0  0  1  0  0  0  0  0  0  0  0  0
   14.8748   -6.5528  -15.2105 C   0  0  0  0  0  0  0  0  0  0  0  0
   15.5334   -5.3421  -15.6764 C   0  0  0  0  0  0  0  0  0  0  0  0
   15.3410   -4.1680  -15.3247 O   0  0  0  0  0  0  0  0  0  0  0  0
   16.8795   -8.0435  -15.0114 C   0  0  0  0  0  0  0  0  0  0  0  0
   17.0124   -8.2257  -13.7822 O   0  0  0  0  0  0  0  0  0  0  0  0
   16.5276   -5.5195  -16.6627 O   0  0  0  0  0  0  0  0  0  0  0  0
   18.0434   -8.0314  -15.7971 N   0  0  0  0  0  0  0  0  0  0  0  0
   19.3649   -8.2340  -15.2028 C   0  0  1  0  0  0  0  0  0  0  0  0
   19.9660   -9.5275  -15.6589 C   0  0  0  0  0  0  0  0  0  0  0  0
   21.3381   -9.6591  -15.1239 C   0  0  0  0  0  0  0  0  0  0  0  0
   21.7563  -10.0739  -13.8720 C   0  0  0  0  0  0  0  0  0  0  0  0
   23.0956  -10.0072  -13.8531 N   0  0  0  0  0  0  0  0  0  0  0  0
   23.5429   -9.5630  -15.0534 C   0  0  0  0  0  0  0  0  0  0  0  0
   22.4716   -9.3520  -15.8246 N   0  0  0  0  0  0  0  0  0  0  0  0
   20.1890   -7.0528  -15.4470 C   0  0  0  0  0  0  0  0  0  0  0  0
   19.9321   -6.3335  -16.4654 O   0  0  0  0  0  0  0  0  0  0  0  0
   21.2262   -6.6867  -14.6234 O   0  0  0  0  0  0  0  0  0  0  0  0
  2  3  1  0
  2  1  1  0
  3  4  1  6
  5  3  1  0
  6  5  2  0
  7  5  1  0
  8 12  1  0
  8  7  1  0
  8  9  1  1
 10  9  1  0
 10 11  2  0
 12 15  1  0
 13 12  2  0
 14 10  1  0
 15 16  1  0
 16 17  1  6
 16 23  1  0
 18 17  1  0
 19 18  2  0
 20 19  1  0
 21 20  1  0
 21 22  2  0
 22 18  1  0
 23 24  2  0
 23 25  1  0
M  END
$$$$
