SDH.pdb
     RDKit          3D

 25 25  0  0  1  0  0  0  0  0999 V2000
   15.4151  -11.6526  -10.7545 O   0  0  0  0  0  0  0  0  0  0  0  0
   15.0580  -11.2034   -9.4833 C   0  0  0  0  0  0  0  0  0  0  0  0
   14.0031  -10.1273   -9.6776 C   0  0  2  0  0  0  0  0  0  0  0  0
   13.0565  -10.5510  -10.6866 N   0  0  0  0  0  0  0  0  0  0  0  0
   14.6709   -8.8923  -10.1581 C   0  0  0  0  0  0  0  0  0  0  0  0
   14.4517   -8.4815  -11.3245 O   0  0  0  0  0  0  0  0  0  0  0  0
   15.5550   -8.1264   -9.3837 N   0  0  0  0  0  0  0  0  0  0  0  0
   16.1786   -6.8694   -9.8534 C   0  0  1  0  0  0  0  0  0  0  0  0
   16.2787   -6.0155   -8.6363 C   0  0  0  0  0  0  0  0  0  0  0  0
   15.1058   -5.2348   -8.2742 C   0  0  0  0  0  0  0  0  0  0  0  0
   14.5770   -4.2957   -8.8888 O   0  0  0  0  0  0  0  0  0  0  0  0
   17.4767   -7.1846  -10.5014 C   0  0  0  0  0  0  0  0  0  0  0  0
   18.3230   -7.8447   -9.8612 O   0  0  0  0  0  0  0  0  0  0  0  0
   14.4788   -5.5878   -7.0598 O   0  0  0  0  0  0  0  0  0  0  0  0
   17.8149   -6.7819  -11.8035 N   0  0  0  0  0  0  0  0  0  0  0  0
   19.0755   -7.1907  -12.4233 C   0  0  1  0  0  0  0  0  0  0  0  0
   18.8785   -8.3874  -13.3017 C   0  0  0  0  0  0  0  0  0  0  0  0
   20.1688   -8.7846  -13.9049 C   0  0  0  0  0  0  0  0  0  0  0  0
   21.4325   -8.2604  -13.6989 C   0  0  0  0  0  0  0  0  0  0  0  0
   22.2816   -8.9374  -14.4860 N   0  0  0  0  0  0  0  0  0  0  0  0
   21.5980   -9.8756  -15.1864 C   0  0  0  0  0  0  0  0  0  0  0  0
   20.3129   -9.7804  -14.8309 N   0  0  0  0  0  0  0  0  0  0  0  0
   19.6845   -6.0378  -13.0819 C   0  0  0  0  0  0  0  0  0  0  0  0
   18.9401   -5.0528  -13.3922 O   0  0  0  0  0  0  0  0  0  0  0  0
   21.0248   -5.9727  -13.3777 O   0  0  0  0  0  0  0  0  0  0  0  0
  2  3  1  0
  2  1  1  0
  3  4  1  6
  5  3  1  0
  6  5  2  0
  7  5  1  0
  8 12  1  0
  8  7  1  0
  8  9  1  1
 10  9  1  0
 10 11  2  0
 12 15  1  0
 13 12  2  0
 14 10  1  0
 15 16  1  0
 16 17  1  6
 16 23  1  0
 18 17  1  0
 19 18  2  0
 20 19  1  0
 21 20  1  0
 21 22  2  0
 22 18  1  0
 23 24  2  0
 23 25  1  0
M  END
$$$$
