SDH.pdb
     RDKit          3D

 25 25  0  0  1  0  0  0  0  0999 V2000
   23.6014  -16.0608  -19.1050 O   0  0  0  0  0  0  0  0  0  0  0  0
   22.2975  -15.7385  -18.7292 C   0  0  0  0  0  0  0  0  0  0  0  0
   22.3715  -15.1843  -17.3164 C   0  0  2  0  0  0  0  0  0  0  0  0
   23.3257  -14.0977  -17.2698 N   0  0  0  0  0  0  0  0  0  0  0  0
   22.8486  -16.2593  -16.4115 C   0  0  0  0  0  0  0  0  0  0  0  0
   23.9104  -16.0973  -15.7607 O   0  0  0  0  0  0  0  0  0  0  0  0
   22.1822  -17.4792  -16.2229 N   0  0  0  0  0  0  0  0  0  0  0  0
   22.6133  -18.5071  -15.2496 C   0  0  1  0  0  0  0  0  0  0  0  0
   21.3462  -19.0686  -14.7019 C   0  0  0  0  0  0  0  0  0  0  0  0
   21.4575  -20.2132  -13.8108 C   0  0  0  0  0  0  0  0  0  0  0  0
   21.6129  -21.4101  -14.0985 O   0  0  0  0  0  0  0  0  0  0  0  0
   23.4844  -19.4923  -15.9385 C   0  0  0  0  0  0  0  0  0  0  0  0
   23.1516  -19.8989  -17.0724 O   0  0  0  0  0  0  0  0  0  0  0  0
   21.3786  -19.9317  -12.4298 O   0  0  0  0  0  0  0  0  0  0  0  0
   24.6721  -20.0005  -15.3878 N   0  0  0  0  0  0  0  0  0  0  0  0
   25.5460  -20.8903  -16.1526 C   0  0  1  0  0  0  0  0  0  0  0  0
   26.8117  -21.1731  -15.4040 C   0  0  0  0  0  0  0  0  0  0  0  0
   27.7053  -22.0137  -16.2294 C   0  0  0  0  0  0  0  0  0  0  0  0
   27.4846  -22.5661  -17.4786 C   0  0  0  0  0  0  0  0  0  0  0  0
   28.5807  -23.2651  -17.8083 N   0  0  0  0  0  0  0  0  0  0  0  0
   29.4918  -23.1750  -16.8083 C   0  0  0  0  0  0  0  0  0  0  0  0
   28.9567  -22.4132  -15.8491 N   0  0  0  0  0  0  0  0  0  0  0  0
   24.7926  -22.0747  -16.5568 C   0  0  0  0  0  0  0  0  0  0  0  0
   23.9706  -22.5831  -15.7283 O   0  0  0  0  0  0  0  0  0  0  0  0
   24.9335  -22.6597  -17.7921 O   0  0  0  0  0  0  0  0  0  0  0  0
  2  3  1  0
  2  1  1  0
  3  4  1  6
  5  3  1  0
  6  5  2  0
  7  5  1  0
  8 12  1  0
  8  7  1  0
  8  9  1  6
 10  9  1  0
 10 11  2  0
 12 15  1  0
 13 12  2  0
 14 10  1  0
 15 16  1  0
 16 17  1  1
 16 23  1  0
 18 17  1  0
 19 18  2  0
 20 19  1  0
 21 20  1  0
 21 22  2  0
 22 18  1  0
 23 24  2  0
 23 25  1  0
M  END
$$$$
