SDH.pdb
     RDKit          3D

 25 25  0  0  1  0  0  0  0  0999 V2000
   15.4690  -11.0565  -14.5952 O   0  0  0  0  0  0  0  0  0  0  0  0
   16.1667  -10.7470  -15.7625 C   0  0  0  0  0  0  0  0  0  0  0  0
   17.6299  -11.0574  -15.4955 C   0  0  2  0  0  0  0  0  0  0  0  0
   17.7836  -12.4675  -15.2098 N   0  0  0  0  0  0  0  0  0  0  0  0
   18.0648  -10.2923  -14.3006 C   0  0  0  0  0  0  0  0  0  0  0  0
   18.2549  -10.8929  -13.2142 O   0  0  0  0  0  0  0  0  0  0  0  0
   18.2862   -8.9071  -14.2939 N   0  0  0  0  0  0  0  0  0  0  0  0
   18.6624   -8.1428  -13.0839 C   0  0  1  0  0  0  0  0  0  0  0  0
   19.4396   -6.9785  -13.5948 C   0  0  0  0  0  0  0  0  0  0  0  0
   20.7674   -7.2474  -14.1250 C   0  0  0  0  0  0  0  0  0  0  0  0
   21.2448   -6.9276  -15.2246 O   0  0  0  0  0  0  0  0  0  0  0  0
   17.4321   -7.7885  -12.3320 C   0  0  0  0  0  0  0  0  0  0  0  0
   16.3215   -7.9881  -12.8692 O   0  0  0  0  0  0  0  0  0  0  0  0
   21.6363   -7.9700  -13.2791 O   0  0  0  0  0  0  0  0  0  0  0  0
   17.4407   -7.2371  -11.0406 N   0  0  0  0  0  0  0  0  0  0  0  0
   16.2067   -7.0867  -10.2691 C   0  0  1  0  0  0  0  0  0  0  0  0
   15.5675   -8.4167  -10.0142 C   0  0  0  0  0  0  0  0  0  0  0  0
   14.3315   -8.2356   -9.2231 C   0  0  0  0  0  0  0  0  0  0  0  0
   13.8052   -7.0826   -8.6682 C   0  0  0  0  0  0  0  0  0  0  0  0
   12.6788   -7.4239   -8.0253 N   0  0  0  0  0  0  0  0  0  0  0  0
   12.4717   -8.7576   -8.1535 C   0  0  0  0  0  0  0  0  0  0  0  0
   13.4786   -9.2489   -8.8826 N   0  0  0  0  0  0  0  0  0  0  0  0
   16.4808   -6.2963   -9.0715 C   0  0  0  0  0  0  0  0  0  0  0  0
   15.5609   -5.5421   -8.6183 O   0  0  0  0  0  0  0  0  0  0  0  0
   17.6874   -6.3352   -8.4151 O   0  0  0  0  0  0  0  0  0  0  0  0
  2  3  1  0
  2  1  1  0
  3  4  1  1
  5  3  1  0
  6  5  2  0
  7  5  1  0
  8 12  1  0
  8  7  1  0
  8  9  1  6
 10  9  1  0
 10 11  2  0
 12 15  1  0
 13 12  2  0
 14 10  1  0
 15 16  1  0
 16 17  1  1
 16 23  1  0
 18 17  1  0
 19 18  2  0
 20 19  1  0
 21 20  1  0
 21 22  2  0
 22 18  1  0
 23 24  2  0
 23 25  1  0
M  END
$$$$
