NCH.pdb
     RDKit          3D

 25 25  0  0  1  0  0  0  0  0999 V2000
   16.4948  -17.0321  -14.5886 N   0  0  0  0  0  0  0  0  0  0  0  0
   17.7211  -16.3910  -14.2908 C   0  0  0  0  0  0  0  0  0  0  0  0
   18.5533  -16.9497  -13.5304 O   0  0  0  0  0  0  0  0  0  0  0  0
   18.0134  -15.0771  -14.8718 C   0  0  0  0  0  0  0  0  0  0  0  0
   16.8915  -14.6176  -15.7524 C   0  0  2  0  0  0  0  0  0  0  0  0
   16.8905  -15.2997  -17.0114 N   0  0  0  0  0  0  0  0  0  0  0  0
   16.8686  -13.1431  -15.8793 C   0  0  0  0  0  0  0  0  0  0  0  0
   17.5066  -12.6321  -16.8257 O   0  0  0  0  0  0  0  0  0  0  0  0
   16.1627  -12.2965  -14.9841 N   0  0  0  0  0  0  0  0  0  0  0  0
   16.2134  -10.8828  -15.1888 C   0  0  1  0  0  0  0  0  0  0  0  0
   15.1434  -10.1892  -14.3708 C   0  0  0  0  0  0  0  0  0  0  0  0
   13.5242  -10.9493  -14.6314 S   0  0  0  0  0  0  0  0  0  0  0  0
   17.5633  -10.3158  -14.8966 C   0  0  0  0  0  0  0  0  0  0  0  0
   18.3068  -10.8026  -14.0067 O   0  0  0  0  0  0  0  0  0  0  0  0
   18.0900   -9.1943  -15.6038 N   0  0  0  0  0  0  0  0  0  0  0  0
   19.4170   -8.6913  -15.4223 C   0  0  1  0  0  0  0  0  0  0  0  0
   20.3874   -9.1973  -16.4620 C   0  0  0  0  0  0  0  0  0  0  0  0
   21.7508   -8.7036  -16.2660 C   0  0  0  0  0  0  0  0  0  0  0  0
   22.7465   -9.3144  -15.5380 C   0  0  0  0  0  0  0  0  0  0  0  0
   23.8610   -8.5497  -15.5952 N   0  0  0  0  0  0  0  0  0  0  0  0
   23.5802   -7.4785  -16.3418 C   0  0  0  0  0  0  0  0  0  0  0  0
   22.2931   -7.5755  -16.7490 N   0  0  0  0  0  0  0  0  0  0  0  0
   19.4693   -7.2232  -15.2707 C   0  0  0  0  0  0  0  0  0  0  0  0
   18.3443   -6.4353  -15.3727 O   0  0  0  0  0  0  0  0  0  0  0  0
   20.5704   -6.6800  -15.0426 O   0  0  0  0  0  0  0  0  0  0  0  0
  2  3  2  0
  2  1  1  0
  4  2  1  0
  5  4  1  0
  5  7  1  0
  5  6  1  6
  7  9  1  0
  7  8  2  0
  9 10  1  0
 10 13  1  0
 10 11  1  1
 11 12  1  0
 13 14  2  0
 15 13  1  0
 15 16  1  0
 16 23  1  0
 16 17  1  6
 18 17  1  0
 19 18  2  0
 20 21  1  0
 20 19  1  0
 21 22  2  0
 22 18  1  0
 23 24  1  0
 25 23  2  0
M  END
$$$$
