NCH.pdb
     RDKit          3D

 25 25  0  0  1  0  0  0  0  0999 V2000
   21.9791  -13.4717  -15.8985 N   0  0  0  0  0  0  0  0  0  0  0  0
   22.3600  -12.5416  -16.8951 C   0  0  0  0  0  0  0  0  0  0  0  0
   23.4923  -12.6297  -17.4365 O   0  0  0  0  0  0  0  0  0  0  0  0
   21.4300  -11.4795  -17.2905 C   0  0  0  0  0  0  0  0  0  0  0  0
   20.1273  -11.6074  -16.5614 C   0  0  2  0  0  0  0  0  0  0  0  0
   19.2354  -12.5125  -17.2214 N   0  0  0  0  0  0  0  0  0  0  0  0
   19.5269  -10.2832  -16.2843 C   0  0  0  0  0  0  0  0  0  0  0  0
   19.6388   -9.4000  -17.1625 O   0  0  0  0  0  0  0  0  0  0  0  0
   18.8389   -9.9779  -15.0801 N   0  0  0  0  0  0  0  0  0  0  0  0
   18.1403   -8.7348  -14.9823 C   0  0  1  0  0  0  0  0  0  0  0  0
   17.1074   -8.6181  -16.0843 C   0  0  0  0  0  0  0  0  0  0  0  0
   15.8403   -9.8984  -15.9324 S   0  0  0  0  0  0  0  0  0  0  0  0
   17.5164   -8.5394  -13.6399 C   0  0  0  0  0  0  0  0  0  0  0  0
   17.6235   -9.4000  -12.7291 O   0  0  0  0  0  0  0  0  0  0  0  0
   16.7652   -7.3725  -13.3096 N   0  0  0  0  0  0  0  0  0  0  0  0
   16.1026   -7.1817  -12.0560 C   0  0  1  0  0  0  0  0  0  0  0  0
   17.0029   -7.4263  -10.8693 C   0  0  0  0  0  0  0  0  0  0  0  0
   16.3578   -7.1384   -9.5879 C   0  0  0  0  0  0  0  0  0  0  0  0
   15.5946   -8.0073   -8.8414 C   0  0  0  0  0  0  0  0  0  0  0  0
   15.1758   -7.3708   -7.7236 N   0  0  0  0  0  0  0  0  0  0  0  0
   15.6613   -6.1271   -7.7589 C   0  0  0  0  0  0  0  0  0  0  0  0
   16.3812   -5.9888   -8.8965 N   0  0  0  0  0  0  0  0  0  0  0  0
   15.3874   -5.8929  -11.9638 C   0  0  0  0  0  0  0  0  0  0  0  0
   15.8688   -4.7439  -12.5510 O   0  0  0  0  0  0  0  0  0  0  0  0
   14.3111   -5.8450  -11.3324 O   0  0  0  0  0  0  0  0  0  0  0  0
  2  3  2  0
  2  1  1  0
  4  2  1  0
  5  4  1  0
  5  7  1  0
  5  6  1  6
  7  9  1  0
  7  8  2  0
  9 10  1  0
 10 13  1  0
 10 11  1  6
 11 12  1  0
 13 14  2  0
 15 13  1  0
 15 16  1  0
 16 23  1  0
 16 17  1  1
 18 17  1  0
 19 18  2  0
 20 21  1  0
 20 19  1  0
 21 22  2  0
 22 18  1  0
 23 24  1  0
 25 23  2  0
M  END
$$$$
