NCH.pdb
     RDKit          3D

 25 25  0  0  1  0  0  0  0  0999 V2000
   28.8544  -21.8967  -18.8925 N   0  0  0  0  0  0  0  0  0  0  0  0
   28.1595  -21.0216  -18.0237 C   0  0  0  0  0  0  0  0  0  0  0  0
   28.3310  -19.7786  -18.1154 O   0  0  0  0  0  0  0  0  0  0  0  0
   27.2423  -21.5713  -17.0207 C   0  0  0  0  0  0  0  0  0  0  0  0
   27.7102  -21.2531  -15.6333 C   0  0  2  0  0  0  0  0  0  0  0  0
   28.9140  -21.9552  -15.3043 N   0  0  0  0  0  0  0  0  0  0  0  0
   26.6290  -21.4362  -14.6393 C   0  0  0  0  0  0  0  0  0  0  0  0
   25.5532  -21.9346  -15.0371 O   0  0  0  0  0  0  0  0  0  0  0  0
   26.7600  -21.0747  -13.2723 N   0  0  0  0  0  0  0  0  0  0  0  0
   25.6661  -21.3230  -12.3864 C   0  0  1  0  0  0  0  0  0  0  0  0
   26.0396  -20.9543  -10.9653 C   0  0  0  0  0  0  0  0  0  0  0  0
   24.6201  -21.1023   -9.8558 S   0  0  0  0  0  0  0  0  0  0  0  0
   24.4204  -20.6191  -12.8131 C   0  0  0  0  0  0  0  0  0  0  0  0
   24.3605  -19.3649  -12.8839 O   0  0  0  0  0  0  0  0  0  0  0  0
   23.2290  -21.3208  -13.1644 N   0  0  0  0  0  0  0  0  0  0  0  0
   22.0138  -20.6768  -13.5588 C   0  0  1  0  0  0  0  0  0  0  0  0
   21.8200  -20.6479  -15.0556 C   0  0  0  0  0  0  0  0  0  0  0  0
   20.5942  -19.9615  -15.4645 C   0  0  0  0  0  0  0  0  0  0  0  0
   20.3747  -18.6027  -15.4569 C   0  0  0  0  0  0  0  0  0  0  0  0
   19.1214  -18.3604  -15.9050 N   0  0  0  0  0  0  0  0  0  0  0  0
   18.5580  -19.5371  -16.1905 C   0  0  0  0  0  0  0  0  0  0  0  0
   19.4584  -20.5109  -15.9208 N   0  0  0  0  0  0  0  0  0  0  0  0
   20.8248  -21.1875  -12.8471 C   0  0  0  0  0  0  0  0  0  0  0  0
   19.7781  -20.3680  -12.4868 O   0  0  0  0  0  0  0  0  0  0  0  0
   20.7681  -22.4023  -12.5634 O   0  0  0  0  0  0  0  0  0  0  0  0
  2  3  2  0
  2  1  1  0
  4  2  1  0
  5  4  1  0
  5  7  1  0
  5  6  1  1
  7  9  1  0
  7  8  2  0
  9 10  1  0
 10 13  1  0
 10 11  1  1
 11 12  1  0
 13 14  2  0
 15 13  1  0
 15 16  1  0
 16 23  1  0
 16 17  1  6
 18 17  1  0
 19 18  2  0
 20 21  1  0
 20 19  1  0
 21 22  2  0
 22 18  1  0
 23 24  1  0
 25 23  2  0
M  END
$$$$
