NCH.pdb
     RDKit          3D

 25 25  0  0  1  0  0  0  0  0999 V2000
   16.7927  -12.5877  -17.1365 N   0  0  0  0  0  0  0  0  0  0  0  0
   17.5771  -12.6624  -15.9607 C   0  0  0  0  0  0  0  0  0  0  0  0
   17.1405  -13.2753  -14.9524 O   0  0  0  0  0  0  0  0  0  0  0  0
   18.8962  -12.0235  -15.9260 C   0  0  0  0  0  0  0  0  0  0  0  0
   19.2041  -11.3558  -17.2315 C   0  0  2  0  0  0  0  0  0  0  0  0
   19.6099  -12.3000  -18.2287 N   0  0  0  0  0  0  0  0  0  0  0  0
   20.1544  -10.2344  -17.0581 C   0  0  0  0  0  0  0  0  0  0  0  0
   21.0864  -10.3851  -16.2380 O   0  0  0  0  0  0  0  0  0  0  0  0
   20.0537   -9.0120  -17.7737 N   0  0  0  0  0  0  0  0  0  0  0  0
   21.0347   -7.9978  -17.5457 C   0  0  1  0  0  0  0  0  0  0  0  0
   21.3193   -7.2374  -18.8247 C   0  0  0  0  0  0  0  0  0  0  0  0
   22.0651   -8.3114  -20.0728 S   0  0  0  0  0  0  0  0  0  0  0  0
   20.6432   -7.0679  -16.4451 C   0  0  0  0  0  0  0  0  0  0  0  0
   19.4813   -6.5938  -16.3615 O   0  0  0  0  0  0  0  0  0  0  0  0
   21.5566   -6.6623  -15.4270 N   0  0  0  0  0  0  0  0  0  0  0  0
   21.2807   -5.6287  -14.4770 C   0  0  1  0  0  0  0  0  0  0  0  0
   21.3773   -6.1008  -13.0464 C   0  0  0  0  0  0  0  0  0  0  0  0
   20.2636   -6.9620  -12.6477 C   0  0  0  0  0  0  0  0  0  0  0  0
   19.2006   -7.3435  -13.4345 C   0  0  0  0  0  0  0  0  0  0  0  0
   18.3830   -8.1395  -12.7078 N   0  0  0  0  0  0  0  0  0  0  0  0
   18.9138   -8.2608  -11.4882 C   0  0  0  0  0  0  0  0  0  0  0  0
   20.0599   -7.5419  -11.4551 N   0  0  0  0  0  0  0  0  0  0  0  0
   22.0554   -4.3943  -14.7158 C   0  0  0  0  0  0  0  0  0  0  0  0
   22.9885   -4.2981  -15.7242 O   0  0  0  0  0  0  0  0  0  0  0  0
   21.8567   -3.4062  -13.9785 O   0  0  0  0  0  0  0  0  0  0  0  0
  2  3  2  0
  2  1  1  0
  4  2  1  0
  5  4  1  0
  5  7  1  0
  5  6  1  6
  7  9  1  0
  7  8  2  0
  9 10  1  0
 10 13  1  0
 10 11  1  6
 11 12  1  0
 13 14  2  0
 15 13  1  0
 15 16  1  0
 16 23  1  0
 16 17  1  1
 18 17  1  0
 19 18  2  0
 20 21  1  0
 20 19  1  0
 21 22  2  0
 22 18  1  0
 23 24  1  0
 25 23  2  0
M  END
$$$$
