NCH.pdb
     RDKit          3D

 25 25  0  0  1  0  0  0  0  0999 V2000
   24.6256  -15.7012  -17.8245 N   0  0  0  0  0  0  0  0  0  0  0  0
   23.5608  -15.0867  -17.1229 C   0  0  0  0  0  0  0  0  0  0  0  0
   22.4246  -15.6268  -17.1072 O   0  0  0  0  0  0  0  0  0  0  0  0
   23.7902  -13.8221  -16.4176 C   0  0  0  0  0  0  0  0  0  0  0  0
   25.2271  -13.4079  -16.5109 C   0  0  2  0  0  0  0  0  0  0  0  0
   26.0923  -14.3380  -15.8499 N   0  0  0  0  0  0  0  0  0  0  0  0
   25.4192  -12.0076  -16.0717 C   0  0  0  0  0  0  0  0  0  0  0  0
   25.5429  -11.7957  -14.8455 O   0  0  0  0  0  0  0  0  0  0  0  0
   25.4681  -10.9102  -16.9716 N   0  0  0  0  0  0  0  0  0  0  0  0
   25.6355   -9.5929  -16.4428 C   0  0  1  0  0  0  0  0  0  0  0  0
   26.7872   -8.8876  -17.1291 C   0  0  0  0  0  0  0  0  0  0  0  0
   28.3662   -9.6725  -16.7315 S   0  0  0  0  0  0  0  0  0  0  0  0
   24.3834   -8.7841  -16.5295 C   0  0  0  0  0  0  0  0  0  0  0  0
   23.4288   -9.1207  -17.2758 O   0  0  0  0  0  0  0  0  0  0  0  0
   24.1937   -7.5874  -15.7763 N   0  0  0  0  0  0  0  0  0  0  0  0
   22.9641   -6.8567  -15.7407 C   0  0  1  0  0  0  0  0  0  0  0  0
   21.8046   -7.6770  -15.2295 C   0  0  0  0  0  0  0  0  0  0  0  0
   21.1248   -8.4320  -16.2825 C   0  0  0  0  0  0  0  0  0  0  0  0
   21.4526   -8.4507  -17.6192 C   0  0  0  0  0  0  0  0  0  0  0  0
   20.5904   -9.2660  -18.2690 N   0  0  0  0  0  0  0  0  0  0  0  0
   19.7350   -9.7537  -17.3666 C   0  0  0  0  0  0  0  0  0  0  0  0
   20.0636   -9.2434  -16.1569 N   0  0  0  0  0  0  0  0  0  0  0  0
   23.0786   -5.5545  -15.0536 C   0  0  0  0  0  0  0  0  0  0  0  0
   22.0609   -4.6266  -15.0673 O   0  0  0  0  0  0  0  0  0  0  0  0
   24.1332   -5.2875  -14.4405 O   0  0  0  0  0  0  0  0  0  0  0  0
  2  3  2  0
  2  1  1  0
  4  2  1  0
  5  4  1  0
  5  7  1  0
  5  6  1  1
  7  9  1  0
  7  8  2  0
  9 10  1  0
 10 13  1  0
 10 11  1  6
 11 12  1  0
 13 14  2  0
 15 13  1  0
 15 16  1  0
 16 23  1  0
 16 17  1  1
 18 17  1  0
 19 18  2  0
 20 21  1  0
 20 19  1  0
 21 22  2  0
 22 18  1  0
 23 24  1  0
 25 23  2  0
M  END
$$$$
