NCH.pdb
     RDKit          3D

 25 25  0  0  1  0  0  0  0  0999 V2000
   20.2500  -14.1739  -18.2058 N   0  0  0  0  0  0  0  0  0  0  0  0
   19.4480  -13.4138  -17.3212 C   0  0  0  0  0  0  0  0  0  0  0  0
   18.1953  -13.5251  -17.3564 O   0  0  0  0  0  0  0  0  0  0  0  0
   20.0844  -12.5000  -16.3677 C   0  0  0  0  0  0  0  0  0  0  0  0
   21.5754  -12.5241  -16.5139 C   0  0  2  0  0  0  0  0  0  0  0  0
   22.1318  -13.7704  -16.0809 N   0  0  0  0  0  0  0  0  0  0  0  0
   22.2034  -11.3441  -15.8783 C   0  0  0  0  0  0  0  0  0  0  0  0
   21.7645  -10.9825  -14.7645 O   0  0  0  0  0  0  0  0  0  0  0  0
   23.2683  -10.6158  -16.4717 N   0  0  0  0  0  0  0  0  0  0  0  0
   23.7993   -9.4844  -15.7781 C   0  0  1  0  0  0  0  0  0  0  0  0
   25.2750   -9.3217  -16.0794 C   0  0  0  0  0  0  0  0  0  0  0  0
   26.2461  -10.6520  -15.3345 S   0  0  0  0  0  0  0  0  0  0  0  0
   23.0487   -8.2300  -16.0818 C   0  0  0  0  0  0  0  0  0  0  0  0
   22.7641   -7.8984  -17.2610 O   0  0  0  0  0  0  0  0  0  0  0  0
   22.6109   -7.3357  -15.0600 N   0  0  0  0  0  0  0  0  0  0  0  0
   21.9352   -6.1016  -15.3193 C   0  0  1  0  0  0  0  0  0  0  0  0
   20.4322   -6.2274  -15.2582 C   0  0  0  0  0  0  0  0  0  0  0  0
   19.7361   -4.9854  -15.5956 C   0  0  0  0  0  0  0  0  0  0  0  0
   20.2246   -3.9563  -16.3682 C   0  0  0  0  0  0  0  0  0  0  0  0
   19.2849   -2.9864  -16.4484 N   0  0  0  0  0  0  0  0  0  0  0  0
   18.2246   -3.3895  -15.7434 C   0  0  0  0  0  0  0  0  0  0  0  0
   18.5030   -4.6083  -15.2250 N   0  0  0  0  0  0  0  0  0  0  0  0
   22.4395   -4.9776  -14.5048 C   0  0  0  0  0  0  0  0  0  0  0  0
   23.3894   -5.1522  -13.5229 O   0  0  0  0  0  0  0  0  0  0  0  0
   21.9889   -3.8320  -14.7145 O   0  0  0  0  0  0  0  0  0  0  0  0
  2  3  2  0
  2  1  1  0
  4  2  1  0
  5  4  1  0
  5  7  1  0
  5  6  1  1
  7  9  1  0
  7  8  2  0
  9 10  1  0
 10 13  1  0
 10 11  1  6
 11 12  1  0
 13 14  2  0
 15 13  1  0
 15 16  1  0
 16 23  1  0
 16 17  1  1
 18 17  1  0
 19 18  2  0
 20 21  1  0
 20 19  1  0
 21 22  2  0
 22 18  1  0
 23 24  1  0
 25 23  2  0
M  END
$$$$
