NCH.pdb
     RDKit          3D

 25 25  0  0  1  0  0  0  0  0999 V2000
   27.4401  -31.6490  -15.7900 N   0  0  0  0  0  0  0  0  0  0  0  0
   26.3102  -32.1964  -16.4436 C   0  0  0  0  0  0  0  0  0  0  0  0
   26.1861  -32.0762  -17.6898 O   0  0  0  0  0  0  0  0  0  0  0  0
   25.2899  -32.9015  -15.6617 C   0  0  0  0  0  0  0  0  0  0  0  0
   25.8305  -34.1833  -15.1050 C   0  0  2  0  0  0  0  0  0  0  0  0
   26.0085  -35.1724  -16.1249 N   0  0  0  0  0  0  0  0  0  0  0  0
   25.0284  -34.6579  -13.9551 C   0  0  0  0  0  0  0  0  0  0  0  0
   24.0037  -35.3313  -14.2009 O   0  0  0  0  0  0  0  0  0  0  0  0
   25.3688  -34.3845  -12.6039 N   0  0  0  0  0  0  0  0  0  0  0  0
   24.6370  -35.0370  -11.5638 C   0  0  1  0  0  0  0  0  0  0  0  0
   24.8952  -36.5295  -11.5890 C   0  0  0  0  0  0  0  0  0  0  0  0
   24.9982  -37.2046   -9.9153 S   0  0  0  0  0  0  0  0  0  0  0  0
   24.9334  -34.4644  -10.2172 C   0  0  0  0  0  0  0  0  0  0  0  0
   26.1124  -34.2601   -9.8301 O   0  0  0  0  0  0  0  0  0  0  0  0
   23.9046  -34.1159   -9.2923 N   0  0  0  0  0  0  0  0  0  0  0  0
   24.1459  -33.4573   -8.0453 C   0  0  1  0  0  0  0  0  0  0  0  0
   22.9895  -32.5954   -7.5995 C   0  0  0  0  0  0  0  0  0  0  0  0
   22.7614  -31.4422   -8.4708 C   0  0  0  0  0  0  0  0  0  0  0  0
   23.5134  -31.0811   -9.5656 C   0  0  0  0  0  0  0  0  0  0  0  0
   22.9854  -29.9595  -10.1073 N   0  0  0  0  0  0  0  0  0  0  0  0
   21.9232  -29.6161   -9.3741 C   0  0  0  0  0  0  0  0  0  0  0  0
   21.7895  -30.5219   -8.3775 N   0  0  0  0  0  0  0  0  0  0  0  0
   24.6089  -34.3717   -6.9821 C   0  0  0  0  0  0  0  0  0  0  0  0
   24.5856  -35.7407   -7.1313 O   0  0  0  0  0  0  0  0  0  0  0  0
   25.0353  -33.8863   -5.9135 O   0  0  0  0  0  0  0  0  0  0  0  0
  2  3  2  0
  2  1  1  0
  4  2  1  0
  5  4  1  0
  5  7  1  0
  5  6  1  6
  7  9  1  0
  7  8  2  0
  9 10  1  0
 10 13  1  0
 10 11  1  1
 11 12  1  0
 13 14  2  0
 15 13  1  0
 15 16  1  0
 16 23  1  0
 16 17  1  1
 18 17  1  0
 19 18  2  0
 20 21  1  0
 20 19  1  0
 21 22  2  0
 22 18  1  0
 23 24  1  0
 25 23  2  0
M  END
$$$$
