NCH.pdb
     RDKit          3D

 25 25  0  0  1  0  0  0  0  0999 V2000
   28.6847  -10.6805  -21.1878 N   0  0  0  0  0  0  0  0  0  0  0  0
   27.3423  -10.9346  -21.5579 C   0  0  0  0  0  0  0  0  0  0  0  0
   27.0278  -11.0001  -22.7743 O   0  0  0  0  0  0  0  0  0  0  0  0
   26.3253  -11.1203  -20.5184 C   0  0  0  0  0  0  0  0  0  0  0  0
   26.9310  -11.0249  -19.1512 C   0  0  2  0  0  0  0  0  0  0  0  0
   27.7910  -12.1353  -18.8722 N   0  0  0  0  0  0  0  0  0  0  0  0
   25.8994  -10.8011  -18.1137 C   0  0  0  0  0  0  0  0  0  0  0  0
   25.1686  -11.7676  -17.8041 O   0  0  0  0  0  0  0  0  0  0  0  0
   25.7074   -9.5530  -17.4643 N   0  0  0  0  0  0  0  0  0  0  0  0
   24.7280   -9.4595  -16.4276 C   0  0  1  0  0  0  0  0  0  0  0  0
   25.1326  -10.3045  -15.2371 C   0  0  0  0  0  0  0  0  0  0  0  0
   26.8777  -10.0681  -14.8292 S   0  0  0  0  0  0  0  0  0  0  0  0
   24.4683   -8.0471  -16.0189 C   0  0  0  0  0  0  0  0  0  0  0  0
   25.3407   -7.1504  -16.1468 O   0  0  0  0  0  0  0  0  0  0  0  0
   23.2229   -7.6301  -15.4617 N   0  0  0  0  0  0  0  0  0  0  0  0
   22.8383   -6.2604  -15.3105 C   0  0  1  0  0  0  0  0  0  0  0  0
   23.1318   -5.4263  -16.5340 C   0  0  0  0  0  0  0  0  0  0  0  0
   22.7691   -4.0181  -16.3716 C   0  0  0  0  0  0  0  0  0  0  0  0
   23.1549   -3.1858  -15.3455 C   0  0  0  0  0  0  0  0  0  0  0  0
   22.6165   -1.9617  -15.5502 N   0  0  0  0  0  0  0  0  0  0  0  0
   21.9054   -2.0149  -16.6795 C   0  0  0  0  0  0  0  0  0  0  0  0
   22.0006   -3.2698  -17.1775 N   0  0  0  0  0  0  0  0  0  0  0  0
   21.4502   -6.0929  -14.8348 C   0  0  0  0  0  0  0  0  0  0  0  0
   21.1056   -5.1424  -13.8996 O   0  0  0  0  0  0  0  0  0  0  0  0
   20.5610   -6.8382  -15.2968 O   0  0  0  0  0  0  0  0  0  0  0  0
  2  3  2  0
  2  1  1  0
  4  2  1  0
  5  4  1  0
  5  7  1  0
  5  6  1  1
  7  9  1  0
  7  8  2  0
  9 10  1  0
 10 13  1  0
 10 11  1  1
 11 12  1  0
 13 14  2  0
 15 13  1  0
 15 16  1  0
 16 23  1  0
 16 17  1  6
 18 17  1  0
 19 18  2  0
 20 21  1  0
 20 19  1  0
 21 22  2  0
 22 18  1  0
 23 24  1  0
 25 23  2  0
M  END
$$$$
