NCH.pdb
     RDKit          3D

 25 25  0  0  1  0  0  0  0  0999 V2000
   14.0185  -12.6253   -9.4351 N   0  0  0  0  0  0  0  0  0  0  0  0
   14.4093  -12.2679  -10.7478 C   0  0  0  0  0  0  0  0  0  0  0  0
   14.8321  -13.1498  -11.5392 O   0  0  0  0  0  0  0  0  0  0  0  0
   14.3183  -10.8690  -11.1769 C   0  0  0  0  0  0  0  0  0  0  0  0
   13.7626  -10.0071  -10.0844 C   0  0  2  0  0  0  0  0  0  0  0  0
   12.3340  -10.0817  -10.0232 N   0  0  0  0  0  0  0  0  0  0  0  0
   14.2790   -8.6225  -10.1682 C   0  0  0  0  0  0  0  0  0  0  0  0
   13.8630   -7.9036  -11.1032 O   0  0  0  0  0  0  0  0  0  0  0  0
   15.2135   -8.0838   -9.2446 N   0  0  0  0  0  0  0  0  0  0  0  0
   15.6517   -6.7342   -9.4164 C   0  0  1  0  0  0  0  0  0  0  0  0
   15.3564   -5.9180   -8.1748 C   0  0  0  0  0  0  0  0  0  0  0  0
   13.5910   -5.9316   -7.7868 S   0  0  0  0  0  0  0  0  0  0  0  0
   17.0968   -6.6499   -9.7822 C   0  0  0  0  0  0  0  0  0  0  0  0
   17.9799   -7.2704   -9.1367 O   0  0  0  0  0  0  0  0  0  0  0  0
   17.5624   -5.8654  -10.8791 N   0  0  0  0  0  0  0  0  0  0  0  0
   18.7875   -6.1175  -11.5737 C   0  0  1  0  0  0  0  0  0  0  0  0
   18.9040   -7.5391  -12.0681 C   0  0  0  0  0  0  0  0  0  0  0  0
   20.0870   -7.7647  -12.8991 C   0  0  0  0  0  0  0  0  0  0  0  0
   21.0327   -6.8280  -13.2496 C   0  0  0  0  0  0  0  0  0  0  0  0
   21.9694   -7.4220  -14.0243 N   0  0  0  0  0  0  0  0  0  0  0  0
   21.6270   -8.7054  -14.1628 C   0  0  0  0  0  0  0  0  0  0  0  0
   20.4791   -8.9109  -13.4757 N   0  0  0  0  0  0  0  0  0  0  0  0
   19.0725   -5.1283  -12.6326 C   0  0  0  0  0  0  0  0  0  0  0  0
   20.3524   -4.7055  -12.9153 O   0  0  0  0  0  0  0  0  0  0  0  0
   18.1208   -4.6608  -13.2922 O   0  0  0  0  0  0  0  0  0  0  0  0
  2  3  2  0
  2  1  1  0
  4  2  1  0
  5  4  1  0
  5  7  1  0
  5  6  1  6
  7  9  1  0
  7  8  2  0
  9 10  1  0
 10 13  1  0
 10 11  1  1
 11 12  1  0
 13 14  2  0
 15 13  1  0
 15 16  1  0
 16 23  1  0
 16 17  1  6
 18 17  1  0
 19 18  2  0
 20 21  1  0
 20 19  1  0
 21 22  2  0
 22 18  1  0
 23 24  1  0
 25 23  2  0
M  END
$$$$
