NCH.pdb
     RDKit          3D

 25 25  0  0  1  0  0  0  0  0999 V2000
   30.7332  -24.3733  -18.6249 N   0  0  0  0  0  0  0  0  0  0  0  0
   30.5411  -23.2940  -19.5203 C   0  0  0  0  0  0  0  0  0  0  0  0
   31.0268  -23.3459  -20.6798 O   0  0  0  0  0  0  0  0  0  0  0  0
   29.7756  -22.1204  -19.0892 C   0  0  0  0  0  0  0  0  0  0  0  0
   29.4208  -22.2144  -17.6365 C   0  0  2  0  0  0  0  0  0  0  0  0
   29.4960  -23.5616  -17.1571 N   0  0  0  0  0  0  0  0  0  0  0  0
   28.1266  -21.5563  -17.3490 C   0  0  0  0  0  0  0  0  0  0  0  0
   27.8988  -20.4579  -17.9017 O   0  0  0  0  0  0  0  0  0  0  0  0
   27.1469  -22.1119  -16.4842 N   0  0  0  0  0  0  0  0  0  0  0  0
   26.1529  -21.2498  -15.9257 C   0  0  1  0  0  0  0  0  0  0  0  0
   24.8911  -21.2817  -16.7634 C   0  0  0  0  0  0  0  0  0  0  0  0
   23.5901  -20.2658  -16.0267 S   0  0  0  0  0  0  0  0  0  0  0  0
   25.8574  -21.5753  -14.4988 C   0  0  0  0  0  0  0  0  0  0  0  0
   26.5539  -22.3970  -13.8498 O   0  0  0  0  0  0  0  0  0  0  0  0
   24.7739  -20.9785  -13.7881 N   0  0  0  0  0  0  0  0  0  0  0  0
   24.6612  -20.9807  -12.3618 C   0  0  1  0  0  0  0  0  0  0  0  0
   25.8801  -20.4167  -11.6726 C   0  0  0  0  0  0  0  0  0  0  0  0
   25.7823  -20.4476  -10.2130 C   0  0  0  0  0  0  0  0  0  0  0  0
   24.7400  -20.9570   -9.4723 C   0  0  0  0  0  0  0  0  0  0  0  0
   25.0210  -20.8012   -8.1582 N   0  0  0  0  0  0  0  0  0  0  0  0
   26.2135  -20.2069   -8.0660 C   0  0  0  0  0  0  0  0  0  0  0  0
   26.6747  -19.9928   -9.3203 N   0  0  0  0  0  0  0  0  0  0  0  0
   23.4070  -20.3722  -11.8743 C   0  0  0  0  0  0  0  0  0  0  0  0
   22.4739  -19.8307  -12.7305 O   0  0  0  0  0  0  0  0  0  0  0  0
   23.1867  -20.3488  -10.6454 O   0  0  0  0  0  0  0  0  0  0  0  0
  2  3  2  0
  2  1  1  0
  4  2  1  0
  5  4  1  0
  5  7  1  0
  5  6  1  6
  7  9  1  0
  7  8  2  0
  9 10  1  0
 10 13  1  0
 10 11  1  6
 11 12  1  0
 13 14  2  0
 15 13  1  0
 15 16  1  0
 16 23  1  0
 16 17  1  1
 18 17  1  0
 19 18  2  0
 20 21  1  0
 20 19  1  0
 21 22  2  0
 22 18  1  0
 23 24  1  0
 25 23  2  0
M  END
$$$$
