NCH.pdb
     RDKit          3D

 25 25  0  0  1  0  0  0  0  0999 V2000
   12.6825  -21.3221   -2.5688 N   0  0  0  0  0  0  0  0  0  0  0  0
   12.9002  -22.0996   -1.4062 C   0  0  0  0  0  0  0  0  0  0  0  0
   12.0097  -22.8928   -1.0052 O   0  0  0  0  0  0  0  0  0  0  0  0
   14.1651  -21.9747   -0.6756 C   0  0  0  0  0  0  0  0  0  0  0  0
   13.9887  -22.3321    0.7688 C   0  0  2  0  0  0  0  0  0  0  0  0
   13.2594  -21.3259    1.4801 N   0  0  0  0  0  0  0  0  0  0  0  0
   15.2784  -22.6864    1.4029 C   0  0  0  0  0  0  0  0  0  0  0  0
   16.1369  -21.7841    1.5155 O   0  0  0  0  0  0  0  0  0  0  0  0
   15.5774  -23.9893    1.8818 N   0  0  0  0  0  0  0  0  0  0  0  0
   16.8385  -24.2178    2.5146 C   0  0  1  0  0  0  0  0  0  0  0  0
   17.0401  -23.2490    3.6617 C   0  0  0  0  0  0  0  0  0  0  0  0
   18.7085  -23.3812    4.3449 S   0  0  0  0  0  0  0  0  0  0  0  0
   16.9953  -25.6304    2.9722 C   0  0  0  0  0  0  0  0  0  0  0  0
   16.0470  -26.2628    3.5034 O   0  0  0  0  0  0  0  0  0  0  0  0
   18.2224  -26.3453    2.8362 N   0  0  0  0  0  0  0  0  0  0  0  0
   18.4067  -27.6975    3.2658 C   0  0  1  0  0  0  0  0  0  0  0  0
   18.6474  -28.6526    2.1219 C   0  0  0  0  0  0  0  0  0  0  0  0
   18.7604  -30.0472    2.5501 C   0  0  0  0  0  0  0  0  0  0  0  0
   17.8955  -30.7215    3.3819 C   0  0  0  0  0  0  0  0  0  0  0  0
   18.3401  -31.9895    3.5390 N   0  0  0  0  0  0  0  0  0  0  0  0
   19.4609  -32.1179    2.8241 C   0  0  0  0  0  0  0  0  0  0  0  0
   19.7142  -30.9322    2.2226 N   0  0  0  0  0  0  0  0  0  0  0  0
   19.4132  -27.8376    4.3373 C   0  0  0  0  0  0  0  0  0  0  0  0
   19.6477  -29.0380    4.9704 O   0  0  0  0  0  0  0  0  0  0  0  0
   20.0725  -26.8337    4.6795 O   0  0  0  0  0  0  0  0  0  0  0  0
  2  3  2  0
  2  1  1  0
  4  2  1  0
  5  4  1  0
  5  7  1  0
  5  6  1  1
  7  9  1  0
  7  8  2  0
  9 10  1  0
 10 13  1  0
 10 11  1  1
 11 12  1  0
 13 14  2  0
 15 13  1  0
 15 16  1  0
 16 23  1  0
 16 17  1  6
 18 17  1  0
 19 18  2  0
 20 21  1  0
 20 19  1  0
 21 22  2  0
 22 18  1  0
 23 24  1  0
 25 23  2  0
M  END
$$$$
