MVS.pdb
     RDKit          3D

 22 21  0  0  1  0  0  0  0  0999 V2000
    8.9538  -18.7752   27.0178 C   0  0  0  0  0  0  0  0  0  0  0  0
    7.2299  -18.6809   27.5732 S   0  0  0  0  0  0  0  0  0  0  0  0
    6.2082  -19.4146   26.2377 C   0  0  0  0  0  0  0  0  0  0  0  0
    7.0544  -19.4132   25.0040 C   0  0  0  0  0  0  0  0  0  0  0  0
    6.2298  -18.9827   23.8153 C   0  0  2  0  0  0  0  0  0  0  0  0
    5.6671  -20.2028   23.2065 N   0  0  0  0  0  0  0  0  0  0  0  0
    7.1193  -18.3516   22.8168 C   0  0  0  0  0  0  0  0  0  0  0  0
    7.5836  -18.9283   21.8066 O   0  0  0  0  0  0  0  0  0  0  0  0
    6.7069  -14.8865   21.4816 C   0  0  0  0  0  0  0  0  0  0  0  0
    8.1351  -14.9193   22.0382 C   0  0  1  0  0  0  0  0  0  0  0  0
    8.1116  -14.2326   23.3621 C   0  0  0  0  0  0  0  0  0  0  0  0
    8.4849  -16.4014   22.1640 C   0  0  2  0  0  0  0  0  0  0  0  0
    7.4902  -16.9939   22.9902 N   0  0  0  0  0  0  0  0  0  0  0  0
    9.8644  -16.5961   22.6439 C   0  0  0  0  0  0  0  0  0  0  0  0
   10.1554  -16.6091   23.8637 O   0  0  0  0  0  0  0  0  0  0  0  0
   13.0513  -16.4374   20.1347 O   0  0  0  0  0  0  0  0  0  0  0  0
   13.1315  -17.5295   21.0185 C   0  0  0  0  0  0  0  0  0  0  0  0
   12.2197  -17.1843   22.1813 C   0  0  2  0  0  0  0  0  0  0  0  0
   10.9210  -16.7775   21.7125 N   0  0  0  0  0  0  0  0  0  0  0  0
   12.8748  -16.1000   22.9571 C   0  0  0  0  0  0  0  0  0  0  0  0
   14.0252  -16.2252   23.4234 O   0  0  0  0  0  0  0  0  0  0  0  0
   12.1846  -14.9152   23.1668 O   0  0  0  0  0  0  0  0  0  0  0  0
  1  2  1  0
  2  3  1  0
  4  3  1  0
  5  6  1  6
  5  4  1  0
  7  5  1  0
  8  7  2  0
 10  9  1  1
 10 12  1  0
 11 10  1  0
 12 13  1  1
 12 14  1  0
 13  7  1  0
 14 19  1  0
 15 14  2  0
 16 17  1  0
 18 17  1  6
 18 20  1  0
 19 18  1  0
 20 21  2  0
 20 22  1  0
M  END
$$$$
