MVS.pdb
     RDKit          3D

 22 21  0  0  1  0  0  0  0  0999 V2000
    6.8244  -10.6645   26.6432 C   0  0  0  0  0  0  0  0  0  0  0  0
    7.0621  -12.1659   27.6322 S   0  0  0  0  0  0  0  0  0  0  0  0
    6.0929  -13.4914   26.8140 C   0  0  0  0  0  0  0  0  0  0  0  0
    7.0435  -14.2265   25.9230 C   0  0  0  0  0  0  0  0  0  0  0  0
    6.2900  -15.2285   25.0824 C   0  0  2  0  0  0  0  0  0  0  0  0
    5.7869  -16.2748   25.9925 N   0  0  0  0  0  0  0  0  0  0  0  0
    7.2316  -15.8687   24.1389 C   0  0  0  0  0  0  0  0  0  0  0  0
    7.7648  -16.9889   24.3101 O   0  0  0  0  0  0  0  0  0  0  0  0
    6.8362  -14.9764   20.3496 C   0  0  0  0  0  0  0  0  0  0  0  0
    8.3274  -14.9643   20.7054 C   0  0  1  0  0  0  0  0  0  0  0  0
    8.7234  -13.5411   20.9107 C   0  0  0  0  0  0  0  0  0  0  0  0
    8.4423  -15.7852   21.9891 C   0  0  2  0  0  0  0  0  0  0  0  0
    7.5739  -15.1868   22.9435 N   0  0  0  0  0  0  0  0  0  0  0  0
    9.8415  -15.9043   22.4354 C   0  0  0  0  0  0  0  0  0  0  0  0
   10.3934  -15.0366   23.1532 O   0  0  0  0  0  0  0  0  0  0  0  0
   11.4090  -18.8420   23.9837 O   0  0  0  0  0  0  0  0  0  0  0  0
   12.2979  -18.5592   22.9302 C   0  0  0  0  0  0  0  0  0  0  0  0
   11.9806  -17.1405   22.4951 C   0  0  2  0  0  0  0  0  0  0  0  0
   10.6151  -17.0321   22.0529 N   0  0  0  0  0  0  0  0  0  0  0  0
   12.9274  -16.7836   21.4074 C   0  0  0  0  0  0  0  0  0  0  0  0
   12.5333  -16.4813   20.2629 O   0  0  0  0  0  0  0  0  0  0  0  0
   14.2883  -16.7874   21.6758 O   0  0  0  0  0  0  0  0  0  0  0  0
  1  2  1  0
  2  3  1  0
  4  3  1  0
  5  6  1  1
  5  4  1  0
  7  5  1  0
  8  7  2  0
 10  9  1  1
 10 12  1  0
 11 10  1  0
 12 13  1  1
 12 14  1  0
 13  7  1  0
 14 19  1  0
 15 14  2  0
 16 17  1  0
 18 17  1  6
 18 20  1  0
 19 18  1  0
 20 21  2  0
 20 22  1  0
M  END
$$$$
