MVS.pdb
     RDKit          3D

 22 21  0  0  1  0  0  0  0  0999 V2000
    7.8547  -11.9975   26.6061 C   0  0  0  0  0  0  0  0  0  0  0  0
    6.2254  -12.7028   26.9765 S   0  0  0  0  0  0  0  0  0  0  0  0
    6.5225  -14.3848   27.6461 C   0  0  0  0  0  0  0  0  0  0  0  0
    7.3717  -15.0992   26.6428 C   0  0  0  0  0  0  0  0  0  0  0  0
    6.4966  -15.7571   25.6037 C   0  0  2  0  0  0  0  0  0  0  0  0
    5.9009  -16.9546   26.2262 N   0  0  0  0  0  0  0  0  0  0  0  0
    7.3434  -16.2096   24.4791 C   0  0  0  0  0  0  0  0  0  0  0  0
    7.7675  -17.3784   24.3282 O   0  0  0  0  0  0  0  0  0  0  0  0
    9.2078  -15.1411   20.1193 C   0  0  0  0  0  0  0  0  0  0  0  0
    8.3935  -14.6140   21.3066 C   0  0  1  0  0  0  0  0  0  0  0  0
    6.9744  -14.5078   20.8596 C   0  0  0  0  0  0  0  0  0  0  0  0
    8.5731  -15.6536   22.4120 C   0  0  2  0  0  0  0  0  0  0  0  0
    7.7182  -15.2725   23.4830 N   0  0  0  0  0  0  0  0  0  0  0  0
    9.9886  -15.8044   22.7923 C   0  0  0  0  0  0  0  0  0  0  0  0
   10.6174  -14.9108   23.4076 O   0  0  0  0  0  0  0  0  0  0  0  0
   11.4989  -19.2781   22.0770 O   0  0  0  0  0  0  0  0  0  0  0  0
   12.4243  -18.6409   22.9242 C   0  0  0  0  0  0  0  0  0  0  0  0
   12.0432  -17.1720   22.9175 C   0  0  2  0  0  0  0  0  0  0  0  0
   10.6894  -16.9947   22.4620 N   0  0  0  0  0  0  0  0  0  0  0  0
   13.0046  -16.4644   22.0333 C   0  0  0  0  0  0  0  0  0  0  0  0
   12.6374  -15.8796   20.9942 O   0  0  0  0  0  0  0  0  0  0  0  0
   14.3486  -16.4552   22.3764 O   0  0  0  0  0  0  0  0  0  0  0  0
  1  2  1  0
  2  3  1  0
  4  3  1  0
  5  6  1  1
  5  4  1  0
  7  5  1  0
  8  7  2  0
 10  9  1  6
 10 12  1  0
 11 10  1  0
 12 13  1  1
 12 14  1  0
 13  7  1  0
 14 19  1  0
 15 14  2  0
 16 17  1  0
 18 17  1  6
 18 20  1  0
 19 18  1  0
 20 21  2  0
 20 22  1  0
M  END
$$$$
