MVS.pdb
     RDKit          3D

 22 21  0  0  1  0  0  0  0  0999 V2000
    7.6657  -11.6971   26.4609 C   0  0  0  0  0  0  0  0  0  0  0  0
    6.0504  -12.3930   26.9031 S   0  0  0  0  0  0  0  0  0  0  0  0
    6.3741  -14.0414   27.6406 C   0  0  0  0  0  0  0  0  0  0  0  0
    7.2685  -14.7673   26.6860 C   0  0  0  0  0  0  0  0  0  0  0  0
    6.4435  -15.4200   25.6035 C   0  0  2  0  0  0  0  0  0  0  0  0
    5.7076  -16.5368   26.2258 N   0  0  0  0  0  0  0  0  0  0  0  0
    7.3517  -15.9920   24.5863 C   0  0  0  0  0  0  0  0  0  0  0  0
    7.9205  -17.1039   24.6796 O   0  0  0  0  0  0  0  0  0  0  0  0
    6.7372  -15.1078   20.8500 C   0  0  0  0  0  0  0  0  0  0  0  0
    8.2347  -14.9486   21.1378 C   0  0  1  0  0  0  0  0  0  0  0  0
    8.4965  -13.4938   21.3368 C   0  0  0  0  0  0  0  0  0  0  0  0
    8.4896  -15.7589   22.4079 C   0  0  2  0  0  0  0  0  0  0  0  0
    7.6160  -15.2487   23.4079 N   0  0  0  0  0  0  0  0  0  0  0  0
    9.9139  -15.7458   22.7851 C   0  0  0  0  0  0  0  0  0  0  0  0
   10.4632  -14.7422   23.2986 O   0  0  0  0  0  0  0  0  0  0  0  0
   11.5156  -19.0545   23.5348 O   0  0  0  0  0  0  0  0  0  0  0  0
   12.4373  -18.0418   23.8588 C   0  0  0  0  0  0  0  0  0  0  0  0
   12.1054  -16.8768   22.9447 C   0  0  2  0  0  0  0  0  0  0  0  0
   10.7158  -16.8979   22.5698 N   0  0  0  0  0  0  0  0  0  0  0  0
   12.9851  -16.9790   21.7521 C   0  0  0  0  0  0  0  0  0  0  0  0
   14.2288  -16.9936   21.8494 O   0  0  0  0  0  0  0  0  0  0  0  0
   12.4034  -17.0607   20.4955 O   0  0  0  0  0  0  0  0  0  0  0  0
  1  2  1  0
  2  3  1  0
  4  3  1  0
  5  6  1  1
  5  4  1  0
  7  5  1  0
  8  7  2  0
 10  9  1  1
 10 12  1  0
 11 10  1  0
 12 13  1  1
 12 14  1  0
 13  7  1  0
 14 19  1  0
 15 14  2  0
 16 17  1  0
 18 17  1  1
 18 20  1  0
 19 18  1  0
 20 21  2  0
 20 22  1  0
M  END
$$$$
