MVS.pdb
     RDKit          3D

 22 21  0  0  1  0  0  0  0  0999 V2000
    7.6484  -11.5822   26.8452 C   0  0  0  0  0  0  0  0  0  0  0  0
    5.9209  -12.1115   26.6888 S   0  0  0  0  0  0  0  0  0  0  0  0
    5.8675  -13.8780   27.1813 C   0  0  0  0  0  0  0  0  0  0  0  0
    6.8868  -14.5847   26.3450 C   0  0  0  0  0  0  0  0  0  0  0  0
    6.1987  -15.4338   25.3039 C   0  0  2  0  0  0  0  0  0  0  0  0
    5.5904  -16.5805   26.0049 N   0  0  0  0  0  0  0  0  0  0  0  0
    7.2142  -15.9657   24.3698 C   0  0  0  0  0  0  0  0  0  0  0  0
    7.7892  -17.0715   24.4923 O   0  0  0  0  0  0  0  0  0  0  0  0
    6.8729  -14.8369   20.6408 C   0  0  0  0  0  0  0  0  0  0  0  0
    8.3546  -14.8034   21.0332 C   0  0  1  0  0  0  0  0  0  0  0  0
    8.6988  -13.3864   21.3473 C   0  0  0  0  0  0  0  0  0  0  0  0
    8.4679  -15.7090   22.2587 C   0  0  2  0  0  0  0  0  0  0  0  0
    7.5834  -15.1877   23.2432 N   0  0  0  0  0  0  0  0  0  0  0  0
    9.8643  -15.8421   22.7098 C   0  0  0  0  0  0  0  0  0  0  0  0
   10.4247  -14.9765   23.4234 O   0  0  0  0  0  0  0  0  0  0  0  0
   11.3214  -19.3393   22.4946 O   0  0  0  0  0  0  0  0  0  0  0  0
   12.2662  -18.5651   23.1932 C   0  0  0  0  0  0  0  0  0  0  0  0
   11.9743  -17.1240   22.8178 C   0  0  2  0  0  0  0  0  0  0  0  0
   10.6251  -16.9817   22.3368 N   0  0  0  0  0  0  0  0  0  0  0  0
   12.9594  -16.7235   21.7805 C   0  0  0  0  0  0  0  0  0  0  0  0
   14.1894  -16.8001   21.9746 O   0  0  0  0  0  0  0  0  0  0  0  0
   12.4945  -16.2514   20.5618 O   0  0  0  0  0  0  0  0  0  0  0  0
  1  2  1  0
  2  3  1  0
  4  3  1  0
  5  6  1  1
  5  4  1  0
  7  5  1  0
  8  7  2  0
 10  9  1  1
 10 12  1  0
 11 10  1  0
 12 13  1  1
 12 14  1  0
 13  7  1  0
 14 19  1  0
 15 14  2  0
 16 17  1  0
 18 17  1  6
 18 20  1  0
 19 18  1  0
 20 21  2  0
 20 22  1  0
M  END
$$$$
