MVS.pdb
     RDKit          3D

 22 21  0  0  1  0  0  0  0  0999 V2000
    6.5527  -10.9373   26.6186 C   0  0  0  0  0  0  0  0  0  0  0  0
    6.7621  -12.2613   27.8402 S   0  0  0  0  0  0  0  0  0  0  0  0
    6.0414  -13.7769   27.0990 C   0  0  0  0  0  0  0  0  0  0  0  0
    7.1007  -14.3686   26.2238 C   0  0  0  0  0  0  0  0  0  0  0  0
    6.5095  -15.4637   25.3696 C   0  0  2  0  0  0  0  0  0  0  0  0
    6.2543  -16.6185   26.2513 N   0  0  0  0  0  0  0  0  0  0  0  0
    7.5090  -15.8798   24.3624 C   0  0  0  0  0  0  0  0  0  0  0  0
    8.2348  -16.8965   24.4526 O   0  0  0  0  0  0  0  0  0  0  0  0
    9.1385  -15.1281   19.8256 C   0  0  0  0  0  0  0  0  0  0  0  0
    8.3974  -14.5047   21.0142 C   0  0  1  0  0  0  0  0  0  0  0  0
    6.9723  -14.3334   20.6085 C   0  0  0  0  0  0  0  0  0  0  0  0
    8.5546  -15.5060   22.1576 C   0  0  2  0  0  0  0  0  0  0  0  0
    7.6794  -15.0883   23.1982 N   0  0  0  0  0  0  0  0  0  0  0  0
    9.9624  -15.6440   22.5703 C   0  0  0  0  0  0  0  0  0  0  0  0
   10.6459  -14.6685   22.9622 O   0  0  0  0  0  0  0  0  0  0  0  0
   11.3063  -19.2648   23.0966 O   0  0  0  0  0  0  0  0  0  0  0  0
   12.2210  -18.3460   23.6437 C   0  0  0  0  0  0  0  0  0  0  0  0
   11.9738  -17.0378   22.9155 C   0  0  2  0  0  0  0  0  0  0  0  0
   10.5917  -16.9166   22.5321 N   0  0  0  0  0  0  0  0  0  0  0  0
   12.8651  -17.0116   21.7275 C   0  0  0  0  0  0  0  0  0  0  0  0
   14.1077  -16.9805   21.8358 O   0  0  0  0  0  0  0  0  0  0  0  0
   12.2960  -17.0225   20.4625 O   0  0  0  0  0  0  0  0  0  0  0  0
  1  2  1  0
  2  3  1  0
  4  3  1  0
  5  6  1  1
  5  4  1  0
  7  5  1  0
  8  7  2  0
 10  9  1  6
 10 12  1  0
 11 10  1  0
 12 13  1  1
 12 14  1  0
 13  7  1  0
 14 19  1  0
 15 14  2  0
 16 17  1  0
 18 17  1  6
 18 20  1  0
 19 18  1  0
 20 21  2  0
 20 22  1  0
M  END
$$$$
