MVS.pdb
     RDKit          3D

 22 21  0  0  1  0  0  0  0  0999 V2000
    7.1411  -11.1825   26.4329 C   0  0  0  0  0  0  0  0  0  0  0  0
    7.4470  -12.4984   27.6429 S   0  0  0  0  0  0  0  0  0  0  0  0
    6.5147  -13.9689   27.0647 C   0  0  0  0  0  0  0  0  0  0  0  0
    7.2657  -14.5158   25.8921 C   0  0  0  0  0  0  0  0  0  0  0  0
    6.5224  -15.6931   25.3091 C   0  0  2  0  0  0  0  0  0  0  0  0
    6.5085  -16.7544   26.3336 N   0  0  0  0  0  0  0  0  0  0  0  0
    7.2727  -16.2050   24.1422 C   0  0  0  0  0  0  0  0  0  0  0  0
    7.6959  -17.3776   24.0223 O   0  0  0  0  0  0  0  0  0  0  0  0
    6.4412  -14.7662   20.6745 C   0  0  0  0  0  0  0  0  0  0  0  0
    7.9696  -14.7960   20.7911 C   0  0  1  0  0  0  0  0  0  0  0  0
    8.4176  -13.4103   21.1136 C   0  0  0  0  0  0  0  0  0  0  0  0
    8.2685  -15.7765   21.9243 C   0  0  2  0  0  0  0  0  0  0  0  0
    7.5475  -15.3253   23.0644 N   0  0  0  0  0  0  0  0  0  0  0  0
    9.7175  -15.9270   22.1456 C   0  0  0  0  0  0  0  0  0  0  0  0
   10.4107  -15.0326   22.6859 O   0  0  0  0  0  0  0  0  0  0  0  0
   10.9835  -19.4283   22.2883 O   0  0  0  0  0  0  0  0  0  0  0  0
   12.1040  -18.6243   22.5679 C   0  0  0  0  0  0  0  0  0  0  0  0
   11.7900  -17.2626   21.9765 C   0  0  2  0  0  0  0  0  0  0  0  0
   10.3772  -17.1180   21.7416 N   0  0  0  0  0  0  0  0  0  0  0  0
   12.5604  -17.1350   20.7128 C   0  0  0  0  0  0  0  0  0  0  0  0
   11.9990  -16.9530   19.6137 O   0  0  0  0  0  0  0  0  0  0  0  0
   13.9441  -17.2210   20.7602 O   0  0  0  0  0  0  0  0  0  0  0  0
  1  2  1  0
  2  3  1  0
  4  3  1  0
  5  6  1  1
  5  4  1  0
  7  5  1  0
  8  7  2  0
 10  9  1  1
 10 12  1  0
 11 10  1  0
 12 13  1  1
 12 14  1  0
 13  7  1  0
 14 19  1  0
 15 14  2  0
 16 17  1  0
 18 17  1  6
 18 20  1  0
 19 18  1  0
 20 21  2  0
 20 22  1  0
M  END
$$$$
