MVS.pdb
     RDKit          3D

 22 21  0  0  1  0  0  0  0  0999 V2000
    6.1961  -11.3736   27.4528 C   0  0  0  0  0  0  0  0  0  0  0  0
    6.8412  -12.6341   26.3196 S   0  0  0  0  0  0  0  0  0  0  0  0
    7.1952  -14.1202   27.3356 C   0  0  0  0  0  0  0  0  0  0  0  0
    7.7659  -15.1452   26.4072 C   0  0  0  0  0  0  0  0  0  0  0  0
    6.7462  -15.5116   25.3563 C   0  0  2  0  0  0  0  0  0  0  0  0
    5.8843  -16.5629   25.9289 N   0  0  0  0  0  0  0  0  0  0  0  0
    7.4458  -16.0906   24.1893 C   0  0  0  0  0  0  0  0  0  0  0  0
    7.8640  -17.2690   24.1183 O   0  0  0  0  0  0  0  0  0  0  0  0
    6.6221  -14.7944   20.6065 C   0  0  0  0  0  0  0  0  0  0  0  0
    8.1460  -14.8164   20.7734 C   0  0  1  0  0  0  0  0  0  0  0  0
    8.5798  -13.4216   21.0755 C   0  0  0  0  0  0  0  0  0  0  0  0
    8.4102  -15.7673   21.9399 C   0  0  2  0  0  0  0  0  0  0  0  0
    7.6735  -15.2743   23.0523 N   0  0  0  0  0  0  0  0  0  0  0  0
    9.8526  -15.9297   22.1936 C   0  0  0  0  0  0  0  0  0  0  0  0
   10.4672  -15.2389   23.0407 O   0  0  0  0  0  0  0  0  0  0  0  0
   13.0946  -19.1658   22.7738 O   0  0  0  0  0  0  0  0  0  0  0  0
   11.8345  -18.8486   22.2337 C   0  0  0  0  0  0  0  0  0  0  0  0
   11.8616  -17.3528   21.9795 C   0  0  2  0  0  0  0  0  0  0  0  0
   10.5969  -16.8960   21.4661 N   0  0  0  0  0  0  0  0  0  0  0  0
   12.9610  -17.0823   21.0178 C   0  0  0  0  0  0  0  0  0  0  0  0
   14.1548  -17.3106   21.2995 O   0  0  0  0  0  0  0  0  0  0  0  0
   12.6475  -16.5610   19.7711 O   0  0  0  0  0  0  0  0  0  0  0  0
  1  2  1  0
  2  3  1  0
  4  3  1  0
  5  6  1  1
  5  4  1  0
  7  5  1  0
  8  7  2  0
 10  9  1  1
 10 12  1  0
 11 10  1  0
 12 13  1  1
 12 14  1  0
 13  7  1  0
 14 19  1  0
 15 14  2  0
 16 17  1  0
 18 17  1  6
 18 20  1  0
 19 18  1  0
 20 21  2  0
 20 22  1  0
M  END
$$$$
