MVS.pdb
     RDKit          3D

 22 21  0  0  1  0  0  0  0  0999 V2000
    9.5216  -19.4649   28.7628 C   0  0  0  0  0  0  0  0  0  0  0  0
    7.9260  -20.0615   29.3851 S   0  0  0  0  0  0  0  0  0  0  0  0
    6.7196  -19.8532   28.0187 C   0  0  0  0  0  0  0  0  0  0  0  0
    7.5004  -19.3991   26.8262 C   0  0  0  0  0  0  0  0  0  0  0  0
    6.5584  -18.9907   25.7197 C   0  0  2  0  0  0  0  0  0  0  0  0
    5.9674  -20.2249   25.1688 N   0  0  0  0  0  0  0  0  0  0  0  0
    7.3360  -18.3445   24.6407 C   0  0  0  0  0  0  0  0  0  0  0  0
    7.6652  -18.8978   23.5664 O   0  0  0  0  0  0  0  0  0  0  0  0
    6.7623  -14.7658   23.6861 C   0  0  0  0  0  0  0  0  0  0  0  0
    8.2777  -14.8754   23.8911 C   0  0  1  0  0  0  0  0  0  0  0  0
    8.5895  -14.2832   25.2240 C   0  0  0  0  0  0  0  0  0  0  0  0
    8.5845  -16.3714   23.8392 C   0  0  2  0  0  0  0  0  0  0  0  0
    7.7528  -16.9994   24.8073 N   0  0  0  0  0  0  0  0  0  0  0  0
   10.0231  -16.6382   24.0135 C   0  0  0  0  0  0  0  0  0  0  0  0
   10.5442  -16.7995   25.1426 O   0  0  0  0  0  0  0  0  0  0  0  0
   12.3745  -16.7253   20.7571 O   0  0  0  0  0  0  0  0  0  0  0  0
   12.7484  -17.7151   21.6847 C   0  0  0  0  0  0  0  0  0  0  0  0
   12.2024  -17.2512   23.0224 C   0  0  2  0  0  0  0  0  0  0  0  0
   10.8723  -16.7202   22.8782 N   0  0  0  0  0  0  0  0  0  0  0  0
   13.1355  -16.2253   23.5550 C   0  0  0  0  0  0  0  0  0  0  0  0
   12.7623  -15.0618   23.8071 O   0  0  0  0  0  0  0  0  0  0  0  0
   14.4593  -16.5747   23.7776 O   0  0  0  0  0  0  0  0  0  0  0  0
  1  2  1  0
  2  3  1  0
  4  3  1  0
  5  6  1  6
  5  4  1  0
  7  5  1  0
  8  7  2  0
 10  9  1  1
 10 12  1  0
 11 10  1  0
 12 13  1  1
 12 14  1  0
 13  7  1  0
 14 19  1  0
 15 14  2  0
 16 17  1  0
 18 17  1  6
 18 20  1  0
 19 18  1  0
 20 21  2  0
 20 22  1  0
M  END
$$$$
