MVS.pdb
     RDKit          3D

 22 21  0  0  1  0  0  0  0  0999 V2000
    7.5461  -11.4644   26.9244 C   0  0  0  0  0  0  0  0  0  0  0  0
    5.8952  -12.1794   26.6955 S   0  0  0  0  0  0  0  0  0  0  0  0
    5.9834  -13.9076   27.3047 C   0  0  0  0  0  0  0  0  0  0  0  0
    7.0713  -14.5786   26.5273 C   0  0  0  0  0  0  0  0  0  0  0  0
    6.4713  -15.5080   25.5003 C   0  0  2  0  0  0  0  0  0  0  0  0
    5.9411  -16.6787   26.2246 N   0  0  0  0  0  0  0  0  0  0  0  0
    7.5428  -15.9846   24.5995 C   0  0  0  0  0  0  0  0  0  0  0  0
    8.2966  -16.9564   24.8361 O   0  0  0  0  0  0  0  0  0  0  0  0
    7.0888  -15.0514   20.7963 C   0  0  0  0  0  0  0  0  0  0  0  0
    8.5709  -14.9431   21.1734 C   0  0  1  0  0  0  0  0  0  0  0  0
    8.8644  -13.5002   21.4111 C   0  0  0  0  0  0  0  0  0  0  0  0
    8.7262  -15.7795   22.4427 C   0  0  2  0  0  0  0  0  0  0  0  0
    7.7548  -15.3106   23.3700 N   0  0  0  0  0  0  0  0  0  0  0  0
   10.1097  -15.7487   22.9487 C   0  0  0  0  0  0  0  0  0  0  0  0
   10.5689  -14.7733   23.5892 O   0  0  0  0  0  0  0  0  0  0  0  0
   11.6422  -18.5115   24.8041 O   0  0  0  0  0  0  0  0  0  0  0  0
   12.6357  -18.2258   23.8495 C   0  0  0  0  0  0  0  0  0  0  0  0
   12.2921  -16.8548   23.2971 C   0  0  2  0  0  0  0  0  0  0  0  0
   10.9751  -16.8505   22.7161 N   0  0  0  0  0  0  0  0  0  0  0  0
   13.3254  -16.5069   22.2883 C   0  0  0  0  0  0  0  0  0  0  0  0
   14.5364  -16.4396   22.5809 O   0  0  0  0  0  0  0  0  0  0  0  0
   12.9289  -16.2505   20.9840 O   0  0  0  0  0  0  0  0  0  0  0  0
  1  2  1  0
  2  3  1  0
  4  3  1  0
  5  6  1  1
  5  4  1  0
  7  5  1  0
  8  7  2  0
 10  9  1  1
 10 12  1  0
 11 10  1  0
 12 13  1  1
 12 14  1  0
 13  7  1  0
 14 19  1  0
 15 14  2  0
 16 17  1  0
 18 17  1  6
 18 20  1  0
 19 18  1  0
 20 21  2  0
 20 22  1  0
M  END
$$$$
