MVS.pdb
     RDKit          3D

 22 21  0  0  1  0  0  0  0  0999 V2000
    8.0381  -11.6763   26.6636 C   0  0  0  0  0  0  0  0  0  0  0  0
    6.6999  -12.2526   27.7434 S   0  0  0  0  0  0  0  0  0  0  0  0
    5.7868  -13.5382   26.8058 C   0  0  0  0  0  0  0  0  0  0  0  0
    6.7807  -14.1899   25.8973 C   0  0  0  0  0  0  0  0  0  0  0  0
    6.0977  -15.2424   25.0582 C   0  0  2  0  0  0  0  0  0  0  0  0
    5.6470  -16.3084   25.9728 N   0  0  0  0  0  0  0  0  0  0  0  0
    7.0864  -15.8341   24.1313 C   0  0  0  0  0  0  0  0  0  0  0  0
    7.6255  -16.9547   24.2805 O   0  0  0  0  0  0  0  0  0  0  0  0
    6.7544  -14.7147   20.4125 C   0  0  0  0  0  0  0  0  0  0  0  0
    8.2457  -14.7942   20.7592 C   0  0  1  0  0  0  0  0  0  0  0  0
    8.7133  -13.4040   21.0304 C   0  0  0  0  0  0  0  0  0  0  0  0
    8.3244  -15.6810   22.0010 C   0  0  2  0  0  0  0  0  0  0  0  0
    7.4708  -15.1010   22.9799 N   0  0  0  0  0  0  0  0  0  0  0  0
    9.7158  -15.8701   22.4474 C   0  0  0  0  0  0  0  0  0  0  0  0
   10.2632  -15.1087   23.2801 O   0  0  0  0  0  0  0  0  0  0  0  0
   11.1248  -19.0427   23.5471 O   0  0  0  0  0  0  0  0  0  0  0  0
   12.1137  -18.6129   22.6429 C   0  0  0  0  0  0  0  0  0  0  0  0
   11.8343  -17.1416   22.3980 C   0  0  2  0  0  0  0  0  0  0  0  0
   10.4868  -16.9454   21.9315 N   0  0  0  0  0  0  0  0  0  0  0  0
   12.8237  -16.6583   21.4009 C   0  0  0  0  0  0  0  0  0  0  0  0
   12.4766  -16.2289   20.2821 O   0  0  0  0  0  0  0  0  0  0  0  0
   14.1718  -16.6862   21.7268 O   0  0  0  0  0  0  0  0  0  0  0  0
  1  2  1  0
  2  3  1  0
  4  3  1  0
  5  6  1  1
  5  4  1  0
  7  5  1  0
  8  7  2  0
 10  9  1  1
 10 12  1  0
 11 10  1  0
 12 13  1  1
 12 14  1  0
 13  7  1  0
 14 19  1  0
 15 14  2  0
 16 17  1  0
 18 17  1  6
 18 20  1  0
 19 18  1  0
 20 21  2  0
 20 22  1  0
M  END
$$$$
