MVS.pdb
     RDKit          3D

 22 21  0  0  1  0  0  0  0  0999 V2000
   10.0755  -14.2261   29.8490 C   0  0  0  0  0  0  0  0  0  0  0  0
   10.7059  -15.8621   30.3126 S   0  0  0  0  0  0  0  0  0  0  0  0
    9.5003  -17.0886   29.6738 C   0  0  0  0  0  0  0  0  0  0  0  0
    9.2725  -16.7524   28.2340 C   0  0  0  0  0  0  0  0  0  0  0  0
    7.9526  -17.3233   27.7752 C   0  0  2  0  0  0  0  0  0  0  0  0
    8.1190  -18.7854   27.6721 N   0  0  0  0  0  0  0  0  0  0  0  0
    7.6512  -16.8090   26.4220 C   0  0  0  0  0  0  0  0  0  0  0  0
    7.4305  -17.5242   25.4177 O   0  0  0  0  0  0  0  0  0  0  0  0
    7.1911  -12.8344   23.6164 C   0  0  0  0  0  0  0  0  0  0  0  0
    7.3814  -13.3560   25.0454 C   0  0  1  0  0  0  0  0  0  0  0  0
    6.1480  -13.0136   25.8111 C   0  0  0  0  0  0  0  0  0  0  0  0
    7.5699  -14.8656   24.9019 C   0  0  2  0  0  0  0  0  0  0  0  0
    7.6014  -15.4068   26.2169 N   0  0  0  0  0  0  0  0  0  0  0  0
    8.7525  -15.1910   24.0854 C   0  0  0  0  0  0  0  0  0  0  0  0
    9.9136  -14.8586   24.4229 O   0  0  0  0  0  0  0  0  0  0  0  0
    8.2200  -17.7115   21.0905 O   0  0  0  0  0  0  0  0  0  0  0  0
    9.5653  -17.6762   21.5015 C   0  0  0  0  0  0  0  0  0  0  0  0
    9.7671  -16.3094   22.1290 C   0  0  2  0  0  0  0  0  0  0  0  0
    8.5996  -15.9059   22.8678 N   0  0  0  0  0  0  0  0  0  0  0  0
   10.0658  -15.3531   21.0322 C   0  0  0  0  0  0  0  0  0  0  0  0
    9.1682  -14.6950   20.4683 O   0  0  0  0  0  0  0  0  0  0  0  0
   11.3819  -15.1894   20.6259 O   0  0  0  0  0  0  0  0  0  0  0  0
  1  2  1  0
  2  3  1  0
  4  3  1  0
  5  6  1  6
  5  4  1  0
  7  5  1  0
  8  7  2  0
 10  9  1  6
 10 12  1  0
 11 10  1  0
 12 13  1  1
 12 14  1  0
 13  7  1  0
 14 19  1  0
 15 14  2  0
 16 17  1  0
 18 17  1  6
 18 20  1  0
 19 18  1  0
 20 21  2  0
 20 22  1  0
M  END
$$$$
