MVS.pdb
     RDKit          3D

 22 21  0  0  1  0  0  0  0  0999 V2000
    6.0948  -11.7616   26.6553 C   0  0  0  0  0  0  0  0  0  0  0  0
    7.6566  -12.3365   27.3759 S   0  0  0  0  0  0  0  0  0  0  0  0
    7.5471  -14.1653   27.4729 C   0  0  0  0  0  0  0  0  0  0  0  0
    7.9938  -14.6900   26.1451 C   0  0  0  0  0  0  0  0  0  0  0  0
    6.8372  -15.3558   25.4397 C   0  0  2  0  0  0  0  0  0  0  0  0
    6.5248  -16.5927   26.1804 N   0  0  0  0  0  0  0  0  0  0  0  0
    7.2638  -15.7433   24.0779 C   0  0  0  0  0  0  0  0  0  0  0  0
    7.4803  -16.9187   23.7035 O   0  0  0  0  0  0  0  0  0  0  0  0
    8.6718  -12.8037   21.4518 C   0  0  0  0  0  0  0  0  0  0  0  0
    7.6341  -13.8033   20.9277 C   0  0  1  0  0  0  0  0  0  0  0  0
    7.9356  -14.0417   19.4865 C   0  0  0  0  0  0  0  0  0  0  0  0
    7.8245  -15.0624   21.7722 C   0  0  2  0  0  0  0  0  0  0  0  0
    7.4488  -14.7300   23.1033 N   0  0  0  0  0  0  0  0  0  0  0  0
    9.1902  -15.6009   21.6458 C   0  0  0  0  0  0  0  0  0  0  0  0
   10.1661  -15.1075   22.2596 O   0  0  0  0  0  0  0  0  0  0  0  0
    9.7459  -18.5949   19.1178 O   0  0  0  0  0  0  0  0  0  0  0  0
   10.6663  -18.7248   20.1743 C   0  0  0  0  0  0  0  0  0  0  0  0
   10.7250  -17.3613   20.8376 C   0  0  2  0  0  0  0  0  0  0  0  0
    9.4375  -16.7184   20.8050 N   0  0  0  0  0  0  0  0  0  0  0  0
   11.7454  -16.5569   20.1175 C   0  0  0  0  0  0  0  0  0  0  0  0
   11.4551  -15.4929   19.5342 O   0  0  0  0  0  0  0  0  0  0  0  0
   13.0581  -17.0046   20.0955 O   0  0  0  0  0  0  0  0  0  0  0  0
  1  2  1  0
  2  3  1  0
  4  3  1  0
  5  6  1  1
  5  4  1  0
  7  5  1  0
  8  7  2  0
 10  9  1  1
 10 12  1  0
 11 10  1  0
 12 13  1  1
 12 14  1  0
 13  7  1  0
 14 19  1  0
 15 14  2  0
 16 17  1  0
 18 17  1  6
 18 20  1  0
 19 18  1  0
 20 21  2  0
 20 22  1  0
M  END
$$$$
