GHI.pdb
     RDKit          3D

 23 23  0  0  1  0  0  0  0  0999 V2000
    7.8935  -12.7219   18.4401 N   0  0  0  0  0  0  0  0  0  0  0  0
    8.7731  -13.6225   19.1120 C   0  0  0  0  0  0  0  0  0  0  0  0
    8.1550  -14.1871   20.3593 C   0  0  0  0  0  0  0  0  0  0  0  0
    7.2800  -13.5511   21.0004 O   0  0  0  0  0  0  0  0  0  0  0  0
    8.5325  -15.4619   20.8664 N   0  0  0  0  0  0  0  0  0  0  0  0
    7.9681  -16.0519   22.0430 C   0  0  1  0  0  0  0  0  0  0  0  0
    8.1322  -17.5685   22.0569 C   0  0  0  0  0  0  0  0  0  0  0  0
    7.5710  -18.1696   23.2718 C   0  0  0  0  0  0  0  0  0  0  0  0
    6.2559  -18.0854   23.6783 C   0  0  0  0  0  0  0  0  0  0  0  0
    6.1399  -18.7631   24.8337 N   0  0  0  0  0  0  0  0  0  0  0  0
    7.3210  -19.2686   25.1708 C   0  0  0  0  0  0  0  0  0  0  0  0
    8.1919  -18.9000   24.2081 N   0  0  0  0  0  0  0  0  0  0  0  0
    8.4514  -15.4390   23.2949 C   0  0  0  0  0  0  0  0  0  0  0  0
    9.6882  -15.2308   23.3979 O   0  0  0  0  0  0  0  0  0  0  0  0
    5.8387  -11.5342   25.9044 C   0  0  0  0  0  0  0  0  0  0  0  0
    6.8012  -12.5404   25.2911 C   0  0  0  0  0  0  0  0  0  0  0  0
    7.2491  -13.5757   26.2677 C   0  0  2  0  0  0  0  0  0  0  0  0
    7.8686  -12.8930   27.4558 C   0  0  0  0  0  0  0  0  0  0  0  0
    8.1568  -14.5611   25.6035 C   0  0  2  0  0  0  0  0  0  0  0  0
    7.6093  -15.0777   24.3717 N   0  0  0  0  0  0  0  0  0  0  0  0
    8.5830  -15.6655   26.4784 C   0  0  0  0  0  0  0  0  0  0  0  0
    9.7860  -15.5939   27.1949 O   0  0  0  0  0  0  0  0  0  0  0  0
    7.9060  -16.7085   26.6266 O   0  0  0  0  0  0  0  0  0  0  0  0
  2  3  1  0
  2  1  1  0
  3  5  1  0
  4  3  2  0
  5  6  1  0
  6 13  1  0
  7  8  1  0
  6  7  1  1
  8 12  1  0
  9 10  1  0
  9  8  2  0
 10 11  1  0
 11 12  2  0
 13 14  2  0
 13 20  1  0
 15 16  1  0
 17 16  1  0
 17 18  1  1
 19 17  1  0
 19 21  1  0
 19 20  1  6
 21 22  1  0
 23 21  2  0
M  END
$$$$
