GHI.pdb
     RDKit          3D

 23 23  0  0  1  0  0  0  0  0999 V2000
    7.6964  -12.8853   18.1767 N   0  0  0  0  0  0  0  0  0  0  0  0
    8.7492  -13.2424   19.0713 C   0  0  0  0  0  0  0  0  0  0  0  0
    8.2350  -13.9553   20.2895 C   0  0  0  0  0  0  0  0  0  0  0  0
    7.1167  -13.6711   20.7893 O   0  0  0  0  0  0  0  0  0  0  0  0
    8.9895  -14.9793   20.9273 N   0  0  0  0  0  0  0  0  0  0  0  0
    8.5312  -15.7167   22.0661 C   0  0  1  0  0  0  0  0  0  0  0  0
    8.9188  -17.1900   21.9869 C   0  0  0  0  0  0  0  0  0  0  0  0
    8.3848  -17.8335   20.7815 C   0  0  0  0  0  0  0  0  0  0  0  0
    7.1269  -17.6346   20.2526 C   0  0  0  0  0  0  0  0  0  0  0  0
    7.0191  -18.4000   19.1525 N   0  0  0  0  0  0  0  0  0  0  0  0
    8.1510  -19.0698   18.9667 C   0  0  0  0  0  0  0  0  0  0  0  0
    8.9821  -18.7166   19.9695 N   0  0  0  0  0  0  0  0  0  0  0  0
    8.9311  -15.1155   23.3527 C   0  0  0  0  0  0  0  0  0  0  0  0
   10.1383  -14.7868   23.4879 O   0  0  0  0  0  0  0  0  0  0  0  0
    5.5417  -12.2442   26.9899 C   0  0  0  0  0  0  0  0  0  0  0  0
    6.2771  -13.3595   26.2618 C   0  0  0  0  0  0  0  0  0  0  0  0
    7.6893  -13.0017   25.9399 C   0  0  2  0  0  0  0  0  0  0  0  0
    7.6969  -11.9895   24.8279 C   0  0  0  0  0  0  0  0  0  0  0  0
    8.4823  -14.2321   25.6342 C   0  0  2  0  0  0  0  0  0  0  0  0
    8.0410  -14.8918   24.4283 N   0  0  0  0  0  0  0  0  0  0  0  0
    8.5501  -15.1918   26.7483 C   0  0  0  0  0  0  0  0  0  0  0  0
    9.1674  -14.8475   27.9592 O   0  0  0  0  0  0  0  0  0  0  0  0
    8.0689  -16.3456   26.6751 O   0  0  0  0  0  0  0  0  0  0  0  0
  2  3  1  0
  2  1  1  0
  3  5  1  0
  4  3  2  0
  5  6  1  0
  6 13  1  0
  7  8  1  0
  6  7  1  6
  8 12  1  0
  9 10  1  0
  9  8  2  0
 10 11  1  0
 11 12  2  0
 13 14  2  0
 13 20  1  0
 15 16  1  0
 17 16  1  0
 17 18  1  6
 19 17  1  0
 19 21  1  0
 19 20  1  6
 21 22  1  0
 23 21  2  0
M  END
$$$$
