GHI.pdb
     RDKit          3D

 23 23  0  0  1  0  0  0  0  0999 V2000
   12.5330  -16.8426   19.2799 N   0  0  0  0  0  0  0  0  0  0  0  0
   11.3466  -17.1924   19.9915 C   0  0  0  0  0  0  0  0  0  0  0  0
   10.7089  -15.9987   20.6435 C   0  0  0  0  0  0  0  0  0  0  0  0
   11.3544  -14.9369   20.8359 O   0  0  0  0  0  0  0  0  0  0  0  0
    9.3515  -16.0193   21.0698 N   0  0  0  0  0  0  0  0  0  0  0  0
    8.6734  -14.8888   21.6291 C   0  0  1  0  0  0  0  0  0  0  0  0
    7.3391  -14.6236   20.9388 C   0  0  0  0  0  0  0  0  0  0  0  0
    7.4937  -14.4661   19.4885 C   0  0  0  0  0  0  0  0  0  0  0  0
    7.8261  -13.2974   18.8364 C   0  0  0  0  0  0  0  0  0  0  0  0
    7.8693  -13.5612   17.5188 N   0  0  0  0  0  0  0  0  0  0  0  0
    7.5796  -14.8412   17.3139 C   0  0  0  0  0  0  0  0  0  0  0  0
    7.3508  -15.3879   18.5264 N   0  0  0  0  0  0  0  0  0  0  0  0
    8.5246  -14.9615   23.0951 C   0  0  0  0  0  0  0  0  0  0  0  0
    8.9999  -15.9717   23.6760 O   0  0  0  0  0  0  0  0  0  0  0  0
    7.1465  -11.5218   28.0954 C   0  0  0  0  0  0  0  0  0  0  0  0
    7.5204  -12.8354   27.4249 C   0  0  0  0  0  0  0  0  0  0  0  0
    7.3200  -12.8032   25.9468 C   0  0  2  0  0  0  0  0  0  0  0  0
    5.8570  -12.6145   25.6547 C   0  0  0  0  0  0  0  0  0  0  0  0
    7.9032  -14.0265   25.3147 C   0  0  2  0  0  0  0  0  0  0  0  0
    7.8844  -13.9689   23.8723 N   0  0  0  0  0  0  0  0  0  0  0  0
    7.3044  -15.2861   25.7856 C   0  0  0  0  0  0  0  0  0  0  0  0
    7.7756  -15.9188   26.9447 O   0  0  0  0  0  0  0  0  0  0  0  0
    6.3595  -15.8491   25.1869 O   0  0  0  0  0  0  0  0  0  0  0  0
  2  3  1  0
  2  1  1  0
  3  5  1  0
  4  3  2  0
  5  6  1  0
  6 13  1  0
  7  8  1  0
  6  7  1  6
  8 12  1  0
  9 10  1  0
  9  8  2  0
 10 11  1  0
 11 12  2  0
 13 14  2  0
 13 20  1  0
 15 16  1  0
 17 16  1  0
 17 18  1  1
 19 17  1  0
 19 21  1  0
 19 20  1  6
 21 22  1  0
 23 21  2  0
M  END
$$$$
