GHI.pdb
     RDKit          3D

 23 23  0  0  1  0  0  0  0  0999 V2000
    7.8209  -13.0001   17.6665 N   0  0  0  0  0  0  0  0  0  0  0  0
    8.7867  -13.1622   18.7044 C   0  0  0  0  0  0  0  0  0  0  0  0
    8.2629  -14.0025   19.8341 C   0  0  0  0  0  0  0  0  0  0  0  0
    7.0429  -14.0007   20.1385 O   0  0  0  0  0  0  0  0  0  0  0  0
    9.1229  -14.8336   20.6050 N   0  0  0  0  0  0  0  0  0  0  0  0
    8.6747  -15.6661   21.6806 C   0  0  1  0  0  0  0  0  0  0  0  0
    9.2157  -17.0879   21.5665 C   0  0  0  0  0  0  0  0  0  0  0  0
    8.6468  -17.8006   20.4173 C   0  0  0  0  0  0  0  0  0  0  0  0
    7.5670  -17.3856   19.6667 C   0  0  0  0  0  0  0  0  0  0  0  0
    7.3557  -18.3056   18.7092 N   0  0  0  0  0  0  0  0  0  0  0  0
    8.2528  -19.2783   18.8243 C   0  0  0  0  0  0  0  0  0  0  0  0
    9.0398  -18.9606   19.8735 N   0  0  0  0  0  0  0  0  0  0  0  0
    8.9321  -15.0895   23.0139 C   0  0  0  0  0  0  0  0  0  0  0  0
   10.0802  -14.6221   23.2309 O   0  0  0  0  0  0  0  0  0  0  0  0
    6.9171  -11.4512   27.2966 C   0  0  0  0  0  0  0  0  0  0  0  0
    7.7754  -12.6558   26.9401 C   0  0  0  0  0  0  0  0  0  0  0  0
    7.3641  -13.2943   25.6559 C   0  0  2  0  0  0  0  0  0  0  0  0
    5.9177  -13.6948   25.7490 C   0  0  0  0  0  0  0  0  0  0  0  0
    8.2787  -14.4291   25.3213 C   0  0  2  0  0  0  0  0  0  0  0  0
    7.9692  -15.0347   24.0479 N   0  0  0  0  0  0  0  0  0  0  0  0
    8.3642  -15.4574   26.3711 C   0  0  0  0  0  0  0  0  0  0  0  0
    9.0285  -15.2006   27.5788 O   0  0  0  0  0  0  0  0  0  0  0  0
    7.8575  -16.5955   26.2435 O   0  0  0  0  0  0  0  0  0  0  0  0
  2  3  1  0
  2  1  1  0
  3  5  1  0
  4  3  2  0
  5  6  1  0
  6 13  1  0
  7  8  1  0
  6  7  1  1
  8 12  1  0
  9 10  1  0
  9  8  2  0
 10 11  1  0
 11 12  2  0
 13 14  2  0
 13 20  1  0
 15 16  1  0
 17 16  1  0
 17 18  1  1
 19 17  1  0
 19 21  1  0
 19 20  1  6
 21 22  1  0
 23 21  2  0
M  END
$$$$
