GHI.pdb
     RDKit          3D

 23 23  0  0  1  0  0  0  0  0999 V2000
   11.9348  -16.9218   19.5319 N   0  0  0  0  0  0  0  0  0  0  0  0
   12.2108  -16.4737   20.8583 C   0  0  0  0  0  0  0  0  0  0  0  0
   11.1772  -15.5008   21.3500 C   0  0  0  0  0  0  0  0  0  0  0  0
   11.4972  -14.3485   21.7385 O   0  0  0  0  0  0  0  0  0  0  0  0
    9.7964  -15.8413   21.3968 N   0  0  0  0  0  0  0  0  0  0  0  0
    8.7762  -14.9705   21.8982 C   0  0  1  0  0  0  0  0  0  0  0  0
    7.5004  -15.0456   21.0653 C   0  0  0  0  0  0  0  0  0  0  0  0
    7.6899  -14.4905   19.7206 C   0  0  0  0  0  0  0  0  0  0  0  0
    8.8532  -13.9289   19.2379 C   0  0  0  0  0  0  0  0  0  0  0  0
    8.6259  -13.5405   17.9710 N   0  0  0  0  0  0  0  0  0  0  0  0
    7.3740  -13.8323   17.6364 C   0  0  0  0  0  0  0  0  0  0  0  0
    6.8080  -14.4142   18.7145 N   0  0  0  0  0  0  0  0  0  0  0  0
    8.5014  -15.1570   23.3357 C   0  0  0  0  0  0  0  0  0  0  0  0
    8.9662  -16.1896   23.8848 O   0  0  0  0  0  0  0  0  0  0  0  0
    6.3912  -10.9207   26.2743 C   0  0  0  0  0  0  0  0  0  0  0  0
    7.2239  -12.0692   25.7243 C   0  0  0  0  0  0  0  0  0  0  0  0
    6.7296  -13.4034   26.1733 C   0  0  2  0  0  0  0  0  0  0  0  0
    6.7581  -13.4563   27.6758 C   0  0  0  0  0  0  0  0  0  0  0  0
    7.5143  -14.4967   25.5213 C   0  0  2  0  0  0  0  0  0  0  0  0
    7.7529  -14.2487   24.1192 N   0  0  0  0  0  0  0  0  0  0  0  0
    6.9435  -15.8396   25.7148 C   0  0  0  0  0  0  0  0  0  0  0  0
    7.4198  -16.6861   26.7260 O   0  0  0  0  0  0  0  0  0  0  0  0
    6.0189  -16.2891   24.9997 O   0  0  0  0  0  0  0  0  0  0  0  0
  2  3  1  0
  2  1  1  0
  3  5  1  0
  4  3  2  0
  5  6  1  0
  6 13  1  0
  7  8  1  0
  6  7  1  6
  8 12  1  0
  9 10  1  0
  9  8  2  0
 10 11  1  0
 11 12  2  0
 13 14  2  0
 13 20  1  0
 15 16  1  0
 17 16  1  0
 17 18  1  1
 19 17  1  0
 19 21  1  0
 19 20  1  6
 21 22  1  0
 23 21  2  0
M  END
$$$$
