GHI.pdb
     RDKit          3D

 23 23  0  0  1  0  0  0  0  0999 V2000
    9.2041  -17.2108   18.5267 N   0  0  0  0  0  0  0  0  0  0  0  0
    9.7761  -17.3546   19.8261 C   0  0  0  0  0  0  0  0  0  0  0  0
    8.7781  -17.0769   20.9140 C   0  0  0  0  0  0  0  0  0  0  0  0
    7.6950  -16.4860   20.6717 O   0  0  0  0  0  0  0  0  0  0  0  0
    9.0158  -17.4696   22.2608 N   0  0  0  0  0  0  0  0  0  0  0  0
    8.1368  -17.1625   23.3488 C   0  0  1  0  0  0  0  0  0  0  0  0
    7.6755  -18.4178   24.0828 C   0  0  0  0  0  0  0  0  0  0  0  0
    7.0036  -19.3629   23.1841 C   0  0  0  0  0  0  0  0  0  0  0  0
    5.7114  -19.2492   22.7163 C   0  0  0  0  0  0  0  0  0  0  0  0
    5.4680  -20.3073   21.9233 N   0  0  0  0  0  0  0  0  0  0  0  0
    6.5476  -21.0795   21.8719 C   0  0  0  0  0  0  0  0  0  0  0  0
    7.4835  -20.4931   22.6474 N   0  0  0  0  0  0  0  0  0  0  0  0
    8.6849  -16.1568   24.2787 C   0  0  0  0  0  0  0  0  0  0  0  0
    9.9196  -16.2015   24.5178 O   0  0  0  0  0  0  0  0  0  0  0  0
    5.7209  -11.9040   27.0356 C   0  0  0  0  0  0  0  0  0  0  0  0
    6.4486  -13.1875   26.6643 C   0  0  0  0  0  0  0  0  0  0  0  0
    7.7088  -12.9346   25.9065 C   0  0  2  0  0  0  0  0  0  0  0  0
    7.3665  -12.3181   24.5783 C   0  0  0  0  0  0  0  0  0  0  0  0
    8.5106  -14.1917   25.7936 C   0  0  2  0  0  0  0  0  0  0  0  0
    7.9064  -15.1580   24.9075 N   0  0  0  0  0  0  0  0  0  0  0  0
    8.8325  -14.8138   27.0883 C   0  0  0  0  0  0  0  0  0  0  0  0
    9.6646  -14.1657   28.0120 O   0  0  0  0  0  0  0  0  0  0  0  0
    8.3882  -15.9346   27.4272 O   0  0  0  0  0  0  0  0  0  0  0  0
  2  3  1  0
  2  1  1  0
  3  5  1  0
  4  3  2  0
  5  6  1  0
  6 13  1  0
  7  8  1  0
  6  7  1  1
  8 12  1  0
  9 10  1  0
  9  8  2  0
 10 11  1  0
 11 12  2  0
 13 14  2  0
 13 20  1  0
 15 16  1  0
 17 16  1  0
 17 18  1  6
 19 17  1  0
 19 21  1  0
 19 20  1  6
 21 22  1  0
 23 21  2  0
M  END
$$$$
