GHI.pdb
     RDKit          3D

 23 23  0  0  1  0  0  0  0  0999 V2000
   12.6941  -16.6599   19.9477 N   0  0  0  0  0  0  0  0  0  0  0  0
   11.7251  -17.1793   20.8574 C   0  0  0  0  0  0  0  0  0  0  0  0
   10.9089  -16.0899   21.4927 C   0  0  0  0  0  0  0  0  0  0  0  0
   11.4527  -15.0680   21.9836 O   0  0  0  0  0  0  0  0  0  0  0  0
    9.4900  -16.1683   21.5654 N   0  0  0  0  0  0  0  0  0  0  0  0
    8.6689  -15.1909   22.2143 C   0  0  1  0  0  0  0  0  0  0  0  0
    7.3886  -14.9107   21.4336 C   0  0  0  0  0  0  0  0  0  0  0  0
    7.6680  -14.3963   20.0884 C   0  0  0  0  0  0  0  0  0  0  0  0
    8.9203  -14.1741   19.5554 C   0  0  0  0  0  0  0  0  0  0  0  0
    8.7565  -13.7035   18.3067 N   0  0  0  0  0  0  0  0  0  0  0  0
    7.4598  -13.6202   18.0315 C   0  0  0  0  0  0  0  0  0  0  0  0
    6.8003  -14.0467   19.1289 N   0  0  0  0  0  0  0  0  0  0  0  0
    8.3882  -15.5071   23.6278 C   0  0  0  0  0  0  0  0  0  0  0  0
    8.7636  -16.6294   24.0556 O   0  0  0  0  0  0  0  0  0  0  0  0
    5.8192  -11.8374   27.2615 C   0  0  0  0  0  0  0  0  0  0  0  0
    6.1420  -13.0260   26.3682 C   0  0  0  0  0  0  0  0  0  0  0  0
    7.4065  -13.7133   26.7615 C   0  0  2  0  0  0  0  0  0  0  0  0
    8.5413  -12.7292   26.6917 C   0  0  0  0  0  0  0  0  0  0  0  0
    7.6199  -14.9328   25.9227 C   0  0  2  0  0  0  0  0  0  0  0  0
    7.7281  -14.6271   24.5160 N   0  0  0  0  0  0  0  0  0  0  0  0
    6.6211  -15.9916   26.1422 C   0  0  0  0  0  0  0  0  0  0  0  0
    5.7484  -16.3826   25.1169 O   0  0  0  0  0  0  0  0  0  0  0  0
    6.5001  -16.5885   27.2365 O   0  0  0  0  0  0  0  0  0  0  0  0
  2  3  1  0
  2  1  1  0
  3  5  1  0
  4  3  2  0
  5  6  1  0
  6 13  1  0
  7  8  1  0
  6  7  1  6
  8 12  1  0
  9 10  1  0
  9  8  2  0
 10 11  1  0
 11 12  2  0
 13 14  2  0
 13 20  1  0
 15 16  1  0
 17 16  1  0
 17 18  1  6
 19 17  1  0
 19 21  1  0
 19 20  1  6
 21 22  1  0
 23 21  2  0
M  END
$$$$
