GHI.pdb
     RDKit          3D

 23 23  0  0  1  0  0  0  0  0999 V2000
    5.0312  -19.9194   22.8435 N   0  0  0  0  0  0  0  0  0  0  0  0
    5.2657  -18.7837   23.6751 C   0  0  0  0  0  0  0  0  0  0  0  0
    6.5611  -18.1000   23.3416 C   0  0  0  0  0  0  0  0  0  0  0  0
    7.6532  -18.7228   23.3646 O   0  0  0  0  0  0  0  0  0  0  0  0
    6.6067  -16.7228   22.9868 N   0  0  0  0  0  0  0  0  0  0  0  0
    7.8140  -16.0182   22.6764 C   0  0  1  0  0  0  0  0  0  0  0  0
    7.7007  -15.2378   21.3705 C   0  0  0  0  0  0  0  0  0  0  0  0
    7.5716  -16.1261   20.2101 C   0  0  0  0  0  0  0  0  0  0  0  0
    8.5501  -16.3691   19.2693 C   0  0  0  0  0  0  0  0  0  0  0  0
    8.0487  -17.2343   18.3706 N   0  0  0  0  0  0  0  0  0  0  0  0
    6.8012  -17.5454   18.7040 C   0  0  0  0  0  0  0  0  0  0  0  0
    6.5172  -16.8619   19.8324 N   0  0  0  0  0  0  0  0  0  0  0  0
    8.2959  -15.1670   23.7809 C   0  0  0  0  0  0  0  0  0  0  0  0
    8.3878  -13.9312   23.5619 O   0  0  0  0  0  0  0  0  0  0  0  0
    6.4173  -11.9667   25.6700 C   0  0  0  0  0  0  0  0  0  0  0  0
    7.5403  -12.9419   25.3495 C   0  0  0  0  0  0  0  0  0  0  0  0
    7.8578  -13.8478   26.4917 C   0  0  2  0  0  0  0  0  0  0  0  0
    8.1191  -13.0172   27.7177 C   0  0  0  0  0  0  0  0  0  0  0  0
    8.9877  -14.7601   26.1352 C   0  0  2  0  0  0  0  0  0  0  0  0
    8.6556  -15.6600   25.0563 N   0  0  0  0  0  0  0  0  0  0  0  0
    9.5345  -15.5094   27.2782 C   0  0  0  0  0  0  0  0  0  0  0  0
   10.5471  -14.9633   28.0797 O   0  0  0  0  0  0  0  0  0  0  0  0
    9.1317  -16.6535   27.5897 O   0  0  0  0  0  0  0  0  0  0  0  0
  2  3  1  0
  2  1  1  0
  3  5  1  0
  4  3  2  0
  5  6  1  0
  6 13  1  0
  7  8  1  0
  6  7  1  6
  8 12  1  0
  9 10  1  0
  9  8  2  0
 10 11  1  0
 11 12  2  0
 13 14  2  0
 13 20  1  0
 15 16  1  0
 17 16  1  0
 17 18  1  1
 19 17  1  0
 19 21  1  0
 19 20  1  6
 21 22  1  0
 23 21  2  0
M  END
$$$$
