GHI.pdb
     RDKit          3D

 23 23  0  0  1  0  0  0  0  0999 V2000
    8.5433  -21.3438   23.2862 N   0  0  0  0  0  0  0  0  0  0  0  0
    7.4192  -20.4967   23.5208 C   0  0  0  0  0  0  0  0  0  0  0  0
    7.8028  -19.0443   23.5364 C   0  0  0  0  0  0  0  0  0  0  0  0
    8.8720  -18.6568   24.0729 O   0  0  0  0  0  0  0  0  0  0  0  0
    6.9748  -18.0488   22.9465 N   0  0  0  0  0  0  0  0  0  0  0  0
    7.3073  -16.6566   22.9041 C   0  0  1  0  0  0  0  0  0  0  0  0
    6.7138  -15.9641   21.6812 C   0  0  0  0  0  0  0  0  0  0  0  0
    7.3531  -14.6699   21.4196 C   0  0  0  0  0  0  0  0  0  0  0  0
    6.8434  -13.4358   21.7647 C   0  0  0  0  0  0  0  0  0  0  0  0
    7.7197  -12.5016   21.3558 N   0  0  0  0  0  0  0  0  0  0  0  0
    8.7553  -13.0923   20.7703 C   0  0  0  0  0  0  0  0  0  0  0  0
    8.5222  -14.4208   20.8140 N   0  0  0  0  0  0  0  0  0  0  0  0
    6.9804  -15.9382   24.1505 C   0  0  0  0  0  0  0  0  0  0  0  0
    5.8522  -16.1543   24.6645 O   0  0  0  0  0  0  0  0  0  0  0  0
   10.6019  -14.2821   28.1214 C   0  0  0  0  0  0  0  0  0  0  0  0
    9.3791  -14.8085   27.3848 C   0  0  0  0  0  0  0  0  0  0  0  0
    8.5988  -13.7247   26.7195 C   0  0  2  0  0  0  0  0  0  0  0  0
    8.1960  -12.7071   27.7508 C   0  0  0  0  0  0  0  0  0  0  0  0
    7.4435  -14.3015   25.9654 C   0  0  2  0  0  0  0  0  0  0  0  0
    7.8563  -15.0311   24.7901 N   0  0  0  0  0  0  0  0  0  0  0  0
    6.4041  -13.3181   25.6200 C   0  0  0  0  0  0  0  0  0  0  0  0
    6.4914  -12.5607   24.4432 O   0  0  0  0  0  0  0  0  0  0  0  0
    5.4049  -13.1095   26.3455 O   0  0  0  0  0  0  0  0  0  0  0  0
  2  3  1  0
  2  1  1  0
  3  5  1  0
  4  3  2  0
  5  6  1  0
  6 13  1  0
  7  8  1  0
  6  7  1  6
  8 12  1  0
  9 10  1  0
  9  8  2  0
 10 11  1  0
 11 12  2  0
 13 14  2  0
 13 20  1  0
 15 16  1  0
 17 16  1  0
 17 18  1  1
 19 17  1  0
 19 21  1  0
 19 20  1  6
 21 22  1  0
 23 21  2  0
M  END
$$$$
