GHI.pdb
     RDKit          3D

 23 23  0  0  1  0  0  0  0  0999 V2000
    7.8944  -12.5935   18.1529 N   0  0  0  0  0  0  0  0  0  0  0  0
    8.9344  -13.2792   18.8491 C   0  0  0  0  0  0  0  0  0  0  0  0
    8.4101  -14.0478   20.0286 C   0  0  0  0  0  0  0  0  0  0  0  0
    7.2436  -13.8652   20.4611 O   0  0  0  0  0  0  0  0  0  0  0  0
    9.2093  -15.0120   20.7042 N   0  0  0  0  0  0  0  0  0  0  0  0
    8.7478  -15.7987   21.8082 C   0  0  1  0  0  0  0  0  0  0  0  0
    9.2425  -17.2396   21.7296 C   0  0  0  0  0  0  0  0  0  0  0  0
    8.6340  -17.9682   20.6111 C   0  0  0  0  0  0  0  0  0  0  0  0
    7.7654  -17.4364   19.6812 C   0  0  0  0  0  0  0  0  0  0  0  0
    7.4331  -18.4168   18.8232 N   0  0  0  0  0  0  0  0  0  0  0  0
    8.0529  -19.5388   19.1715 C   0  0  0  0  0  0  0  0  0  0  0  0
    8.7865  -19.2546   20.2680 N   0  0  0  0  0  0  0  0  0  0  0  0
    9.0387  -15.1925   23.1214 C   0  0  0  0  0  0  0  0  0  0  0  0
   10.2144  -14.7938   23.3274 O   0  0  0  0  0  0  0  0  0  0  0  0
    6.9993  -11.4663   27.4006 C   0  0  0  0  0  0  0  0  0  0  0  0
    7.9112  -12.6192   27.0082 C   0  0  0  0  0  0  0  0  0  0  0  0
    7.4609  -13.3101   25.7648 C   0  0  2  0  0  0  0  0  0  0  0  0
    6.0499  -13.7933   25.9564 C   0  0  0  0  0  0  0  0  0  0  0  0
    8.4200  -14.3962   25.3952 C   0  0  2  0  0  0  0  0  0  0  0  0
    8.0786  -15.0376   24.1478 N   0  0  0  0  0  0  0  0  0  0  0  0
    8.6202  -15.4019   26.4512 C   0  0  0  0  0  0  0  0  0  0  0  0
    9.3800  -15.1072   27.5922 O   0  0  0  0  0  0  0  0  0  0  0  0
    8.1315  -16.5532   26.3877 O   0  0  0  0  0  0  0  0  0  0  0  0
  2  3  1  0
  2  1  1  0
  3  5  1  0
  4  3  2  0
  5  6  1  0
  6 13  1  0
  7  8  1  0
  6  7  1  1
  8 12  1  0
  9 10  1  0
  9  8  2  0
 10 11  1  0
 11 12  2  0
 13 14  2  0
 13 20  1  0
 15 16  1  0
 17 16  1  0
 17 18  1  1
 19 17  1  0
 19 21  1  0
 19 20  1  6
 21 22  1  0
 23 21  2  0
M  END
$$$$
