GHI.pdb
     RDKit          3D

 23 23  0  0  1  0  0  0  0  0999 V2000
   12.7302  -14.9615   18.9422 N   0  0  0  0  0  0  0  0  0  0  0  0
   12.2877  -15.6288   20.1234 C   0  0  0  0  0  0  0  0  0  0  0  0
   11.2420  -14.8388   20.8577 C   0  0  0  0  0  0  0  0  0  0  0  0
   11.4217  -13.6287   21.1481 O   0  0  0  0  0  0  0  0  0  0  0  0
   10.0076  -15.4250   21.2543 N   0  0  0  0  0  0  0  0  0  0  0  0
    8.9686  -14.7134   21.9360 C   0  0  1  0  0  0  0  0  0  0  0  0
    7.6473  -14.7633   21.1753 C   0  0  0  0  0  0  0  0  0  0  0  0
    7.8091  -14.3771   19.7692 C   0  0  0  0  0  0  0  0  0  0  0  0
    7.8990  -13.0856   19.2942 C   0  0  0  0  0  0  0  0  0  0  0  0
    8.0398  -13.1490   17.9586 N   0  0  0  0  0  0  0  0  0  0  0  0
    8.0424  -14.4203   17.5737 C   0  0  0  0  0  0  0  0  0  0  0  0
    7.9006  -15.1657   18.6897 N   0  0  0  0  0  0  0  0  0  0  0  0
    8.8040  -15.1237   23.3436 C   0  0  0  0  0  0  0  0  0  0  0  0
    9.2334  -16.2609   23.6692 O   0  0  0  0  0  0  0  0  0  0  0  0
    5.8839  -12.0522   27.2638 C   0  0  0  0  0  0  0  0  0  0  0  0
    6.3442  -13.1079   26.2695 C   0  0  0  0  0  0  0  0  0  0  0  0
    7.6562  -13.7136   26.6410 C   0  0  2  0  0  0  0  0  0  0  0  0
    8.6895  -12.6251   26.7339 C   0  0  0  0  0  0  0  0  0  0  0  0
    8.0184  -14.8019   25.6816 C   0  0  2  0  0  0  0  0  0  0  0  0
    8.1969  -14.3171   24.3336 N   0  0  0  0  0  0  0  0  0  0  0  0
    7.0916  -15.9454   25.6970 C   0  0  0  0  0  0  0  0  0  0  0  0
    6.9888  -16.7744   26.8230 O   0  0  0  0  0  0  0  0  0  0  0  0
    6.3590  -16.2331   24.7229 O   0  0  0  0  0  0  0  0  0  0  0  0
  2  3  1  0
  2  1  1  0
  3  5  1  0
  4  3  2  0
  5  6  1  0
  6 13  1  0
  7  8  1  0
  6  7  1  6
  8 12  1  0
  9 10  1  0
  9  8  2  0
 10 11  1  0
 11 12  2  0
 13 14  2  0
 13 20  1  0
 15 16  1  0
 17 16  1  0
 17 18  1  6
 19 17  1  0
 19 21  1  0
 19 20  1  6
 21 22  1  0
 23 21  2  0
M  END
$$$$
