GHI.pdb
     RDKit          3D

 23 23  0  0  1  0  0  0  0  0999 V2000
    7.8839  -12.8759   17.9332 N   0  0  0  0  0  0  0  0  0  0  0  0
    8.8480  -12.9605   18.9818 C   0  0  0  0  0  0  0  0  0  0  0  0
    8.3434  -13.7640   20.1465 C   0  0  0  0  0  0  0  0  0  0  0  0
    7.2786  -13.4560   20.7402 O   0  0  0  0  0  0  0  0  0  0  0  0
    9.0471  -14.9041   20.6256 N   0  0  0  0  0  0  0  0  0  0  0  0
    8.5902  -15.7296   21.7028 C   0  0  1  0  0  0  0  0  0  0  0  0
    9.0486  -17.1764   21.5484 C   0  0  0  0  0  0  0  0  0  0  0  0
    8.5443  -17.7824   20.3112 C   0  0  0  0  0  0  0  0  0  0  0  0
    7.2745  -18.2854   20.1204 C   0  0  0  0  0  0  0  0  0  0  0  0
    7.2029  -18.7503   18.8609 N   0  0  0  0  0  0  0  0  0  0  0  0
    8.3687  -18.5624   18.2527 C   0  0  0  0  0  0  0  0  0  0  0  0
    9.1846  -17.9688   19.1489 N   0  0  0  0  0  0  0  0  0  0  0  0
    8.9229  -15.1908   23.0353 C   0  0  0  0  0  0  0  0  0  0  0  0
   10.1078  -14.8134   23.2280 O   0  0  0  0  0  0  0  0  0  0  0  0
    6.9045  -11.5628   27.4080 C   0  0  0  0  0  0  0  0  0  0  0  0
    7.8255  -12.6992   26.9894 C   0  0  0  0  0  0  0  0  0  0  0  0
    7.3932  -13.3504   25.7185 C   0  0  2  0  0  0  0  0  0  0  0  0
    5.9760  -13.8294   25.8709 C   0  0  0  0  0  0  0  0  0  0  0  0
    8.3520  -14.4316   25.3342 C   0  0  2  0  0  0  0  0  0  0  0  0
    7.9927  -15.0775   24.0941 N   0  0  0  0  0  0  0  0  0  0  0  0
    8.5764  -15.4342   26.3884 C   0  0  0  0  0  0  0  0  0  0  0  0
    9.3393  -15.1272   27.5240 O   0  0  0  0  0  0  0  0  0  0  0  0
    8.1064  -16.5934   26.3281 O   0  0  0  0  0  0  0  0  0  0  0  0
  2  3  1  0
  2  1  1  0
  3  5  1  0
  4  3  2  0
  5  6  1  0
  6 13  1  0
  7  8  1  0
  6  7  1  6
  8 12  1  0
  9 10  1  0
  9  8  2  0
 10 11  1  0
 11 12  2  0
 13 14  2  0
 13 20  1  0
 15 16  1  0
 17 16  1  0
 17 18  1  1
 19 17  1  0
 19 21  1  0
 19 20  1  6
 21 22  1  0
 23 21  2  0
M  END
$$$$
