GHI.pdb
     RDKit          3D

 23 23  0  0  1  0  0  0  0  0999 V2000
    7.8241  -12.9441   17.9198 N   0  0  0  0  0  0  0  0  0  0  0  0
    8.6857  -12.9756   19.0570 C   0  0  0  0  0  0  0  0  0  0  0  0
    8.1624  -13.8822   20.1344 C   0  0  0  0  0  0  0  0  0  0  0  0
    6.9281  -14.0145   20.3344 O   0  0  0  0  0  0  0  0  0  0  0  0
    9.0390  -14.6274   20.9716 N   0  0  0  0  0  0  0  0  0  0  0  0
    8.5943  -15.5483   21.9741 C   0  0  1  0  0  0  0  0  0  0  0  0
    9.0753  -16.9695   21.6985 C   0  0  0  0  0  0  0  0  0  0  0  0
    8.5909  -17.4718   20.4080 C   0  0  0  0  0  0  0  0  0  0  0  0
    7.4047  -18.1434   20.1993 C   0  0  0  0  0  0  0  0  0  0  0  0
    7.3234  -18.4344   18.8892 N   0  0  0  0  0  0  0  0  0  0  0  0
    8.4036  -17.9765   18.2663 C   0  0  0  0  0  0  0  0  0  0  0  0
    9.1747  -17.3882   19.2047 N   0  0  0  0  0  0  0  0  0  0  0  0
    8.9177  -15.1193   23.3481 C   0  0  0  0  0  0  0  0  0  0  0  0
   10.0878  -14.7109   23.5669 O   0  0  0  0  0  0  0  0  0  0  0  0
    5.8948  -11.7958   26.0203 C   0  0  0  0  0  0  0  0  0  0  0  0
    6.9728  -12.7020   25.4444 C   0  0  0  0  0  0  0  0  0  0  0  0
    7.3390  -13.8165   26.3662 C   0  0  2  0  0  0  0  0  0  0  0  0
    7.7628  -13.2394   27.6886 C   0  0  0  0  0  0  0  0  0  0  0  0
    8.3734  -14.6946   25.7377 C   0  0  2  0  0  0  0  0  0  0  0  0
    7.9945  -15.1425   24.4187 N   0  0  0  0  0  0  0  0  0  0  0  0
    8.7736  -15.8389   26.5727 C   0  0  0  0  0  0  0  0  0  0  0  0
    9.8883  -15.7582   27.4193 O   0  0  0  0  0  0  0  0  0  0  0  0
    8.1510  -16.9255   26.5713 O   0  0  0  0  0  0  0  0  0  0  0  0
  2  3  1  0
  2  1  1  0
  3  5  1  0
  4  3  2  0
  5  6  1  0
  6 13  1  0
  7  8  1  0
  6  7  1  6
  8 12  1  0
  9 10  1  0
  9  8  2  0
 10 11  1  0
 11 12  2  0
 13 14  2  0
 13 20  1  0
 15 16  1  0
 17 16  1  0
 17 18  1  1
 19 17  1  0
 19 21  1  0
 19 20  1  6
 21 22  1  0
 23 21  2  0
M  END
$$$$
