GHI.pdb
     RDKit          3D

 23 23  0  0  1  0  0  0  0  0999 V2000
   13.9134  -17.9121   20.5590 N   0  0  0  0  0  0  0  0  0  0  0  0
   12.7535  -18.2231   21.3298 C   0  0  0  0  0  0  0  0  0  0  0  0
   11.8452  -17.0365   21.4834 C   0  0  0  0  0  0  0  0  0  0  0  0
   12.2170  -15.8820   21.1519 O   0  0  0  0  0  0  0  0  0  0  0  0
   10.5296  -17.1687   22.0091 N   0  0  0  0  0  0  0  0  0  0  0  0
    9.6249  -16.0720   22.1810 C   0  0  1  0  0  0  0  0  0  0  0  0
    8.3099  -16.2943   21.4404 C   0  0  0  0  0  0  0  0  0  0  0  0
    7.8887  -15.0999   20.7001 C   0  0  0  0  0  0  0  0  0  0  0  0
    6.9619  -14.1727   21.1279 C   0  0  0  0  0  0  0  0  0  0  0  0
    6.8526  -13.2320   20.1735 N   0  0  0  0  0  0  0  0  0  0  0  0
    7.6678  -13.5261   19.1668 C   0  0  0  0  0  0  0  0  0  0  0  0
    8.2986  -14.6721   19.4981 N   0  0  0  0  0  0  0  0  0  0  0  0
    9.4015  -15.7131   23.5944 C   0  0  0  0  0  0  0  0  0  0  0  0
   10.0531  -16.3488   24.4633 O   0  0  0  0  0  0  0  0  0  0  0  0
    6.7935  -11.4676   27.3345 C   0  0  0  0  0  0  0  0  0  0  0  0
    7.5159  -12.7822   27.0796 C   0  0  0  0  0  0  0  0  0  0  0  0
    7.4950  -13.1796   25.6417 C   0  0  2  0  0  0  0  0  0  0  0  0
    6.0693  -13.3907   25.2124 C   0  0  0  0  0  0  0  0  0  0  0  0
    8.3699  -14.3713   25.4172 C   0  0  2  0  0  0  0  0  0  0  0  0
    8.5053  -14.7054   24.0193 N   0  0  0  0  0  0  0  0  0  0  0  0
    7.9736  -15.5584   26.1923 C   0  0  0  0  0  0  0  0  0  0  0  0
    7.2189  -16.5836   25.6046 O   0  0  0  0  0  0  0  0  0  0  0  0
    8.2837  -15.7128   27.3957 O   0  0  0  0  0  0  0  0  0  0  0  0
  2  3  1  0
  2  1  1  0
  3  5  1  0
  4  3  2  0
  5  6  1  0
  6 13  1  0
  7  8  1  0
  6  7  1  1
  8 12  1  0
  9 10  1  0
  9  8  2  0
 10 11  1  0
 11 12  2  0
 13 14  2  0
 13 20  1  0
 15 16  1  0
 17 16  1  0
 17 18  1  1
 19 17  1  0
 19 21  1  0
 19 20  1  6
 21 22  1  0
 23 21  2  0
M  END
$$$$
