GHI.pdb
     RDKit          3D

 23 23  0  0  1  0  0  0  0  0999 V2000
    4.7878  -17.8393   20.1650 N   0  0  0  0  0  0  0  0  0  0  0  0
    5.2716  -16.6101   20.7048 C   0  0  0  0  0  0  0  0  0  0  0  0
    6.0929  -16.8245   21.9443 C   0  0  0  0  0  0  0  0  0  0  0  0
    5.6143  -17.4026   22.9531 O   0  0  0  0  0  0  0  0  0  0  0  0
    7.4432  -16.3838   22.0285 N   0  0  0  0  0  0  0  0  0  0  0  0
    8.2949  -16.6314   23.1528 C   0  0  1  0  0  0  0  0  0  0  0  0
    9.5107  -17.4717   22.7747 C   0  0  0  0  0  0  0  0  0  0  0  0
    9.1261  -18.7755   22.2229 C   0  0  0  0  0  0  0  0  0  0  0  0
    8.9613  -19.0667   20.8851 C   0  0  0  0  0  0  0  0  0  0  0  0
    8.6091  -20.3606   20.7877 N   0  0  0  0  0  0  0  0  0  0  0  0
    8.5452  -20.8946   22.0023 C   0  0  0  0  0  0  0  0  0  0  0  0
    8.8636  -19.9162   22.8755 N   0  0  0  0  0  0  0  0  0  0  0  0
    8.6824  -15.4049   23.8754 C   0  0  0  0  0  0  0  0  0  0  0  0
    9.5384  -14.6591   23.3326 O   0  0  0  0  0  0  0  0  0  0  0  0
    5.6771  -12.1288   27.3301 C   0  0  0  0  0  0  0  0  0  0  0  0
    6.4859  -13.2680   26.7276 C   0  0  0  0  0  0  0  0  0  0  0  0
    7.7060  -12.7911   26.0134 C   0  0  2  0  0  0  0  0  0  0  0  0
    7.2971  -12.1668   24.7080 C   0  0  0  0  0  0  0  0  0  0  0  0
    8.6903  -13.9065   25.8607 C   0  0  2  0  0  0  0  0  0  0  0  0
    8.1497  -15.0278   25.1297 N   0  0  0  0  0  0  0  0  0  0  0  0
    9.2825  -14.3592   27.1301 C   0  0  0  0  0  0  0  0  0  0  0  0
    9.1947  -15.7007   27.5281 O   0  0  0  0  0  0  0  0  0  0  0  0
    9.8852  -13.5842   27.9076 O   0  0  0  0  0  0  0  0  0  0  0  0
  2  3  1  0
  2  1  1  0
  3  5  1  0
  4  3  2  0
  5  6  1  0
  6 13  1  0
  7  8  1  0
  6  7  1  6
  8 12  1  0
  9 10  1  0
  9  8  2  0
 10 11  1  0
 11 12  2  0
 13 14  2  0
 13 20  1  0
 15 16  1  0
 17 16  1  0
 17 18  1  6
 19 17  1  0
 19 21  1  0
 19 20  1  1
 21 22  1  0
 23 21  2  0
M  END
$$$$
