GHI.pdb
     RDKit          3D

 23 23  0  0  1  0  0  0  0  0999 V2000
   13.1613  -14.2714   19.9010 N   0  0  0  0  0  0  0  0  0  0  0  0
   12.1143  -15.2315   19.7660 C   0  0  0  0  0  0  0  0  0  0  0  0
   10.9303  -14.8978   20.6283 C   0  0  0  0  0  0  0  0  0  0  0  0
   10.4825  -13.7249   20.6976 O   0  0  0  0  0  0  0  0  0  0  0  0
   10.2676  -15.8922   21.4007 N   0  0  0  0  0  0  0  0  0  0  0  0
    9.0069  -15.6903   22.0493 C   0  0  1  0  0  0  0  0  0  0  0  0
    8.0166  -16.8071   21.7342 C   0  0  0  0  0  0  0  0  0  0  0  0
    7.8436  -16.9953   20.2896 C   0  0  0  0  0  0  0  0  0  0  0  0
    7.2465  -16.1004   19.4269 C   0  0  0  0  0  0  0  0  0  0  0  0
    7.2820  -16.6342   18.1934 N   0  0  0  0  0  0  0  0  0  0  0  0
    7.8737  -17.8224   18.2423 C   0  0  0  0  0  0  0  0  0  0  0  0
    8.2145  -18.0355   19.5305 N   0  0  0  0  0  0  0  0  0  0  0  0
    9.1258  -15.4598   23.5016 C   0  0  0  0  0  0  0  0  0  0  0  0
   10.1626  -15.8870   24.0728 O   0  0  0  0  0  0  0  0  0  0  0  0
    5.8804  -11.6078   25.7441 C   0  0  0  0  0  0  0  0  0  0  0  0
    7.0131  -12.5035   25.2646 C   0  0  0  0  0  0  0  0  0  0  0  0
    7.3476  -13.5795   26.2425 C   0  0  2  0  0  0  0  0  0  0  0  0
    7.7607  -12.9482   27.5433 C   0  0  0  0  0  0  0  0  0  0  0  0
    8.3772  -14.5014   25.6715 C   0  0  2  0  0  0  0  0  0  0  0  0
    8.1488  -14.7929   24.2762 N   0  0  0  0  0  0  0  0  0  0  0  0
    8.5519  -15.7484   26.4340 C   0  0  0  0  0  0  0  0  0  0  0  0
    9.5065  -15.8396   27.4570 O   0  0  0  0  0  0  0  0  0  0  0  0
    7.8697  -16.7751   26.2136 O   0  0  0  0  0  0  0  0  0  0  0  0
  2  3  1  0
  2  1  1  0
  3  5  1  0
  4  3  2  0
  5  6  1  0
  6 13  1  0
  7  8  1  0
  6  7  1  1
  8 12  1  0
  9 10  1  0
  9  8  2  0
 10 11  1  0
 11 12  2  0
 13 14  2  0
 13 20  1  0
 15 16  1  0
 17 16  1  0
 17 18  1  1
 19 17  1  0
 19 21  1  0
 19 20  1  6
 21 22  1  0
 23 21  2  0
M  END
$$$$
