MTF.pdb
     RDKit          3D

 27 27  0  0  1  0  0  0  0  0999 V2000
    8.2582  -11.6753   20.4789 C   0  0  0  0  0  0  0  0  0  0  0  0
    8.0606  -12.3272   18.7962 S   0  0  0  0  0  0  0  0  0  0  0  0
    8.5965  -14.0420   18.6973 C   0  0  0  0  0  0  0  0  0  0  0  0
    8.4527  -14.7723   20.0076 C   0  0  0  0  0  0  0  0  0  0  0  0
    8.8791  -16.2239   19.8966 C   0  0  2  0  0  0  0  0  0  0  0  0
    7.9513  -16.8667   18.9895 N   0  0  0  0  0  0  0  0  0  0  0  0
    8.6987  -16.8081   21.2382 C   0  0  0  0  0  0  0  0  0  0  0  0
    7.5401  -17.0678   21.6372 O   0  0  0  0  0  0  0  0  0  0  0  0
    9.1678  -19.9168   22.4773 C   0  0  0  0  0  0  0  0  0  0  0  0
    9.9165  -19.0847   23.4882 C   0  0  1  0  0  0  0  0  0  0  0  0
   11.2557  -19.0735   23.0502 O   0  0  0  0  0  0  0  0  0  0  0  0
    9.4561  -17.6297   23.4660 C   0  0  2  0  0  0  0  0  0  0  0  0
    9.7598  -17.1014   22.1223 N   0  0  0  0  0  0  0  0  0  0  0  0
   10.1693  -16.7760   24.4222 C   0  0  0  0  0  0  0  0  0  0  0  0
   11.3055  -16.2941   24.1105 O   0  0  0  0  0  0  0  0  0  0  0  0
    9.7272  -16.4005   25.7167 N   0  0  0  0  0  0  0  0  0  0  0  0
   10.5224  -15.6109   26.6259 C   0  0  1  0  0  0  0  0  0  0  0  0
   10.3900  -14.1342   26.4065 C   0  0  0  0  0  0  0  0  0  0  0  0
    8.9950  -13.6400   26.4578 C   0  0  0  0  0  0  0  0  0  0  0  0
    8.0101  -14.0694   25.5711 C   0  0  0  0  0  0  0  0  0  0  0  0
    6.7169  -13.6169   25.6218 C   0  0  0  0  0  0  0  0  0  0  0  0
    6.3383  -12.6983   26.5759 C   0  0  0  0  0  0  0  0  0  0  0  0
    7.2875  -12.2551   27.4657 C   0  0  0  0  0  0  0  0  0  0  0  0
    8.5803  -12.7238   27.3957 C   0  0  0  0  0  0  0  0  0  0  0  0
   10.2900  -16.0427   28.0235 C   0  0  0  0  0  0  0  0  0  0  0  0
   10.8022  -15.5015   29.0082 O   0  0  0  0  0  0  0  0  0  0  0  0
    9.4473  -17.1212   28.2602 O   0  0  0  0  0  0  0  0  0  0  0  0
  2  1  1  0
  3  2  1  0
  4  3  1  0
  4  5  1  0
  5  7  1  0
  5  6  1  6
  7  8  2  0
 10 12  1  0
 10  9  1  6
 11 10  1  0
 13  7  1  0
 12 13  1  6
 14 12  1  0
 14 15  2  0
 16 14  1  0
 17 25  1  0
 17 16  1  0
 17 18  1  1
 19 18  1  0
 20 19  2  0
 21 20  1  0
 22 21  2  0
 22 23  1  0
 23 24  2  0
 24 19  1  0
 25 27  1  0
 26 25  2  0
M  END
$$$$
