MTF.pdb
     RDKit          3D

 27 27  0  0  1  0  0  0  0  0999 V2000
    8.5215  -11.4308   20.4674 C   0  0  0  0  0  0  0  0  0  0  0  0
    8.6039  -12.0012   18.7460 S   0  0  0  0  0  0  0  0  0  0  0  0
    8.8520  -13.7814   18.6633 C   0  0  0  0  0  0  0  0  0  0  0  0
    8.1936  -14.5136   19.8041 C   0  0  0  0  0  0  0  0  0  0  0  0
    8.3804  -16.0152   19.6963 C   0  0  2  0  0  0  0  0  0  0  0  0
    7.6087  -16.4540   18.5522 N   0  0  0  0  0  0  0  0  0  0  0  0
    7.7788  -16.5917   20.9126 C   0  0  0  0  0  0  0  0  0  0  0  0
    6.6606  -17.1506   20.8312 O   0  0  0  0  0  0  0  0  0  0  0  0
    7.1100  -19.1074   21.6733 C   0  0  0  0  0  0  0  0  0  0  0  0
    7.8755  -18.7953   22.9348 C   0  0  1  0  0  0  0  0  0  0  0  0
    9.2296  -19.0276   22.6219 O   0  0  0  0  0  0  0  0  0  0  0  0
    7.7769  -17.3160   23.2973 C   0  0  2  0  0  0  0  0  0  0  0  0
    8.3852  -16.5581   22.1872 N   0  0  0  0  0  0  0  0  0  0  0  0
    8.5257  -16.9592   24.5071 C   0  0  0  0  0  0  0  0  0  0  0  0
    9.7330  -16.5682   24.4080 O   0  0  0  0  0  0  0  0  0  0  0  0
    8.0470  -16.9966   25.8419 N   0  0  0  0  0  0  0  0  0  0  0  0
    8.8351  -16.5800   26.9768 C   0  0  1  0  0  0  0  0  0  0  0  0
    8.1305  -15.6002   27.8655 C   0  0  0  0  0  0  0  0  0  0  0  0
    7.6804  -14.3722   27.1710 C   0  0  0  0  0  0  0  0  0  0  0  0
    8.4643  -13.2236   27.0864 C   0  0  0  0  0  0  0  0  0  0  0  0
    8.0507  -12.0884   26.4385 C   0  0  0  0  0  0  0  0  0  0  0  0
    6.8138  -12.0442   25.8337 C   0  0  0  0  0  0  0  0  0  0  0  0
    6.0167  -13.1620   25.8996 C   0  0  0  0  0  0  0  0  0  0  0  0
    6.4532  -14.2909   26.5559 C   0  0  0  0  0  0  0  0  0  0  0  0
    9.3843  -17.7595   27.6847 C   0  0  0  0  0  0  0  0  0  0  0  0
    9.0623  -18.9256   27.4373 O   0  0  0  0  0  0  0  0  0  0  0  0
   10.3199  -17.5607   28.6920 O   0  0  0  0  0  0  0  0  0  0  0  0
  2  1  1  0
  3  2  1  0
  4  3  1  0
  4  5  1  0
  5  7  1  0
  5  6  1  6
  7  8  2  0
 10 12  1  0
 10  9  1  6
 11 10  1  0
 13  7  1  0
 12 13  1  6
 14 12  1  0
 14 15  2  0
 16 14  1  0
 17 25  1  0
 17 16  1  0
 17 18  1  1
 19 18  1  0
 20 19  2  0
 21 20  1  0
 22 21  2  0
 22 23  1  0
 23 24  2  0
 24 19  1  0
 25 27  1  0
 26 25  2  0
M  END
$$$$
