MTF.pdb
     RDKit          3D

 27 27  0  0  1  0  0  0  0  0999 V2000
    8.0291  -21.4986   22.7106 C   0  0  0  0  0  0  0  0  0  0  0  0
    6.7523  -22.0117   21.5265 S   0  0  0  0  0  0  0  0  0  0  0  0
    6.5183  -20.7697   20.2457 C   0  0  0  0  0  0  0  0  0  0  0  0
    7.3517  -19.5352   20.4741 C   0  0  0  0  0  0  0  0  0  0  0  0
    7.1154  -18.4864   19.4038 C   0  0  2  0  0  0  0  0  0  0  0  0
    7.7504  -18.9685   18.1949 N   0  0  0  0  0  0  0  0  0  0  0  0
    7.8266  -17.2753   19.8521 C   0  0  0  0  0  0  0  0  0  0  0  0
    9.0563  -17.1770   19.6341 O   0  0  0  0  0  0  0  0  0  0  0  0
    8.1477  -12.5591   20.8365 C   0  0  0  0  0  0  0  0  0  0  0  0
    7.4148  -13.7971   20.3836 C   0  0  1  0  0  0  0  0  0  0  0  0
    7.6315  -13.8767   18.9936 O   0  0  0  0  0  0  0  0  0  0  0  0
    8.0317  -15.0608   20.9770 C   0  0  2  0  0  0  0  0  0  0  0  0
    7.2083  -16.1975   20.5225 N   0  0  0  0  0  0  0  0  0  0  0  0
    8.0105  -15.0888   22.4434 C   0  0  0  0  0  0  0  0  0  0  0  0
    6.9003  -15.2058   23.0550 O   0  0  0  0  0  0  0  0  0  0  0  0
    9.1307  -14.9983   23.3090 N   0  0  0  0  0  0  0  0  0  0  0  0
    9.0240  -15.0403   24.7476 C   0  0  1  0  0  0  0  0  0  0  0  0
    7.6154  -14.9215   25.2454 C   0  0  0  0  0  0  0  0  0  0  0  0
    7.2789  -13.5857   25.7887 C   0  0  0  0  0  0  0  0  0  0  0  0
    6.0478  -13.2981   26.3739 C   0  0  0  0  0  0  0  0  0  0  0  0
    5.7378  -12.0633   26.8826 C   0  0  0  0  0  0  0  0  0  0  0  0
    6.6571  -11.0387   26.8306 C   0  0  0  0  0  0  0  0  0  0  0  0
    7.8815  -11.2911   26.2592 C   0  0  0  0  0  0  0  0  0  0  0  0
    8.1706  -12.5393   25.7548 C   0  0  0  0  0  0  0  0  0  0  0  0
    9.7647  -16.2044   25.2863 C   0  0  0  0  0  0  0  0  0  0  0  0
   10.2270  -17.1124   24.5886 O   0  0  0  0  0  0  0  0  0  0  0  0
    9.9605  -16.2974   26.6583 O   0  0  0  0  0  0  0  0  0  0  0  0
  2  1  1  0
  3  2  1  0
  4  3  1  0
  4  5  1  0
  5  7  1  0
  5  6  1  6
  7  8  2  0
 10 12  1  0
 10  9  1  1
 11 10  1  0
 13  7  1  0
 12 13  1  6
 14 12  1  0
 14 15  2  0
 16 14  1  0
 17 25  1  0
 17 16  1  0
 17 18  1  6
 19 18  1  0
 20 19  2  0
 21 20  1  0
 22 21  2  0
 22 23  1  0
 23 24  2  0
 24 19  1  0
 25 27  1  0
 26 25  2  0
M  END
$$$$
