MTF.pdb
     RDKit          3D

 27 27  0  0  1  0  0  0  0  0999 V2000
    9.5102  -12.0450   19.9157 C   0  0  0  0  0  0  0  0  0  0  0  0
    8.5669  -12.4789   18.4265 S   0  0  0  0  0  0  0  0  0  0  0  0
    8.2839  -14.2532   18.3316 C   0  0  0  0  0  0  0  0  0  0  0  0
    9.5595  -15.0508   18.4184 C   0  0  0  0  0  0  0  0  0  0  0  0
    9.2918  -16.5430   18.4728 C   0  0  2  0  0  0  0  0  0  0  0  0
    8.3053  -16.8310   17.4526 N   0  0  0  0  0  0  0  0  0  0  0  0
    8.6869  -16.8033   19.7920 C   0  0  0  0  0  0  0  0  0  0  0  0
    7.5141  -17.2397   19.8473 O   0  0  0  0  0  0  0  0  0  0  0  0
    7.8495  -18.9633   20.8709 C   0  0  0  0  0  0  0  0  0  0  0  0
    8.5788  -18.5882   22.1368 C   0  0  1  0  0  0  0  0  0  0  0  0
    9.8851  -19.0936   21.9836 O   0  0  0  0  0  0  0  0  0  0  0  0
    8.7277  -17.0750   22.2691 C   0  0  2  0  0  0  0  0  0  0  0  0
    9.3487  -16.5916   21.0211 N   0  0  0  0  0  0  0  0  0  0  0  0
    9.6159  -16.6683   23.3633 C   0  0  0  0  0  0  0  0  0  0  0  0
   10.8121  -16.3172   23.1059 O   0  0  0  0  0  0  0  0  0  0  0  0
    9.2907  -16.6135   24.7429 N   0  0  0  0  0  0  0  0  0  0  0  0
    9.9434  -15.7256   25.6747 C   0  0  1  0  0  0  0  0  0  0  0  0
    9.6313  -14.2788   25.4390 C   0  0  0  0  0  0  0  0  0  0  0  0
    8.3056  -13.8577   25.9471 C   0  0  0  0  0  0  0  0  0  0  0  0
    7.1163  -14.1499   25.2832 C   0  0  0  0  0  0  0  0  0  0  0  0
    5.8881  -13.7656   25.7561 C   0  0  0  0  0  0  0  0  0  0  0  0
    5.7863  -13.0592   26.9343 C   0  0  0  0  0  0  0  0  0  0  0  0
    6.9422  -12.7555   27.6131 C   0  0  0  0  0  0  0  0  0  0  0  0
    8.1647  -13.1520   27.1189 C   0  0  0  0  0  0  0  0  0  0  0  0
    9.7157  -16.1794   27.0662 C   0  0  0  0  0  0  0  0  0  0  0  0
   10.1997  -15.6295   28.0602 O   0  0  0  0  0  0  0  0  0  0  0  0
    8.9113  -17.2903   27.2854 O   0  0  0  0  0  0  0  0  0  0  0  0
  2  1  1  0
  3  2  1  0
  4  3  1  0
  4  5  1  0
  5  7  1  0
  5  6  1  6
  7  8  2  0
 10 12  1  0
 10  9  1  6
 11 10  1  0
 13  7  1  0
 12 13  1  6
 14 12  1  0
 14 15  2  0
 16 14  1  0
 17 25  1  0
 17 16  1  0
 17 18  1  1
 19 18  1  0
 20 19  2  0
 21 20  1  0
 22 21  2  0
 22 23  1  0
 23 24  2  0
 24 19  1  0
 25 27  1  0
 26 25  2  0
M  END
$$$$
