MTF.pdb
     RDKit          3D

 27 27  0  0  1  0  0  0  0  0999 V2000
    7.5529  -11.4883   19.6235 C   0  0  0  0  0  0  0  0  0  0  0  0
    8.9071  -11.8132   18.4590 S   0  0  0  0  0  0  0  0  0  0  0  0
    9.3139  -13.5652   18.4092 C   0  0  0  0  0  0  0  0  0  0  0  0
    8.5720  -14.3640   19.4496 C   0  0  0  0  0  0  0  0  0  0  0  0
    8.8157  -15.8538   19.2998 C   0  0  2  0  0  0  0  0  0  0  0  0
    8.1277  -16.2738   18.0968 N   0  0  0  0  0  0  0  0  0  0  0  0
    8.1638  -16.4944   20.4567 C   0  0  0  0  0  0  0  0  0  0  0  0
    7.1413  -17.1931   20.2682 O   0  0  0  0  0  0  0  0  0  0  0  0
    7.4687  -18.9753   21.1679 C   0  0  0  0  0  0  0  0  0  0  0  0
    8.1718  -18.6477   22.4614 C   0  0  1  0  0  0  0  0  0  0  0  0
    9.5464  -18.8034   22.1936 O   0  0  0  0  0  0  0  0  0  0  0  0
    7.9830  -17.1826   22.8452 C   0  0  2  0  0  0  0  0  0  0  0  0
    8.6190  -16.3739   21.7878 N   0  0  0  0  0  0  0  0  0  0  0  0
    8.6421  -16.8182   24.1040 C   0  0  0  0  0  0  0  0  0  0  0  0
    9.8348  -16.3740   24.0846 O   0  0  0  0  0  0  0  0  0  0  0  0
    8.0868  -16.9025   25.4066 N   0  0  0  0  0  0  0  0  0  0  0  0
    8.7385  -16.3723   26.5800 C   0  0  1  0  0  0  0  0  0  0  0  0
    7.8284  -15.5638   27.4542 C   0  0  0  0  0  0  0  0  0  0  0  0
    7.4730  -14.2402   26.8933 C   0  0  0  0  0  0  0  0  0  0  0  0
    8.3826  -13.1884   26.8086 C   0  0  0  0  0  0  0  0  0  0  0  0
    8.0560  -11.9647   26.2839 C   0  0  0  0  0  0  0  0  0  0  0  0
    6.7842  -11.7278   25.8105 C   0  0  0  0  0  0  0  0  0  0  0  0
    5.8636  -12.7461   25.8801 C   0  0  0  0  0  0  0  0  0  0  0  0
    6.2144  -13.9670   26.4112 C   0  0  0  0  0  0  0  0  0  0  0  0
    9.4733  -17.4439   27.2911 C   0  0  0  0  0  0  0  0  0  0  0  0
   10.2053  -17.2498   28.2664 O   0  0  0  0  0  0  0  0  0  0  0  0
    9.3432  -18.7537   26.8473 O   0  0  0  0  0  0  0  0  0  0  0  0
  2  1  1  0
  3  2  1  0
  4  3  1  0
  4  5  1  0
  5  7  1  0
  5  6  1  6
  7  8  2  0
 10 12  1  0
 10  9  1  6
 11 10  1  0
 13  7  1  0
 12 13  1  6
 14 12  1  0
 14 15  2  0
 16 14  1  0
 17 25  1  0
 17 16  1  0
 17 18  1  1
 19 18  1  0
 20 19  2  0
 21 20  1  0
 22 21  2  0
 22 23  1  0
 23 24  2  0
 24 19  1  0
 25 27  1  0
 26 25  2  0
M  END
$$$$
