MTF.pdb
     RDKit          3D

 27 27  0  0  1  0  0  0  0  0999 V2000
    8.4413  -11.7283   20.4730 C   0  0  0  0  0  0  0  0  0  0  0  0
    6.9411  -12.5070   21.1354 S   0  0  0  0  0  0  0  0  0  0  0  0
    7.0923  -14.2998   21.1491 C   0  0  0  0  0  0  0  0  0  0  0  0
    8.3384  -14.7833   20.4533 C   0  0  0  0  0  0  0  0  0  0  0  0
    8.4030  -16.2979   20.3950 C   0  0  2  0  0  0  0  0  0  0  0  0
    7.0864  -16.7605   20.0085 N   0  0  0  0  0  0  0  0  0  0  0  0
    8.6697  -16.7503   21.7726 C   0  0  0  0  0  0  0  0  0  0  0  0
    7.7197  -17.1836   22.4646 O   0  0  0  0  0  0  0  0  0  0  0  0
   11.8750  -19.1896   24.4867 C   0  0  0  0  0  0  0  0  0  0  0  0
   11.5411  -18.2574   23.3490 C   0  0  1  0  0  0  0  0  0  0  0  0
   11.3777  -19.0839   22.2194 O   0  0  0  0  0  0  0  0  0  0  0  0
   10.1949  -17.5714   23.5646 C   0  0  2  0  0  0  0  0  0  0  0  0
    9.9446  -16.7297   22.3790 N   0  0  0  0  0  0  0  0  0  0  0  0
   10.1746  -16.6753   24.7257 C   0  0  0  0  0  0  0  0  0  0  0  0
   10.7825  -15.5584   24.6699 O   0  0  0  0  0  0  0  0  0  0  0  0
    9.5275  -16.9100   25.9661 N   0  0  0  0  0  0  0  0  0  0  0  0
    9.7542  -16.1039   27.1414 C   0  0  1  0  0  0  0  0  0  0  0  0
    8.4915  -15.5998   27.7721 C   0  0  0  0  0  0  0  0  0  0  0  0
    7.8655  -14.4700   27.0479 C   0  0  0  0  0  0  0  0  0  0  0  0
    6.6933  -14.6060   26.3074 C   0  0  0  0  0  0  0  0  0  0  0  0
    6.1099  -13.5591   25.6417 C   0  0  0  0  0  0  0  0  0  0  0  0
    6.6780  -12.3049   25.6837 C   0  0  0  0  0  0  0  0  0  0  0  0
    7.8352  -12.1384   26.4063 C   0  0  0  0  0  0  0  0  0  0  0  0
    8.4032  -13.2045   27.0670 C   0  0  0  0  0  0  0  0  0  0  0  0
   10.6668  -16.8006   28.0771 C   0  0  0  0  0  0  0  0  0  0  0  0
   11.1315  -16.2875   29.0996 O   0  0  0  0  0  0  0  0  0  0  0  0
   11.0337  -18.1120   27.8034 O   0  0  0  0  0  0  0  0  0  0  0  0
  2  1  1  0
  3  2  1  0
  4  3  1  0
  4  5  1  0
  5  7  1  0
  5  6  1  1
  7  8  2  0
 10 12  1  0
 10  9  1  1
 11 10  1  0
 13  7  1  0
 12 13  1  6
 14 12  1  0
 14 15  2  0
 16 14  1  0
 17 25  1  0
 17 16  1  0
 17 18  1  1
 19 18  1  0
 20 19  2  0
 21 20  1  0
 22 21  2  0
 22 23  1  0
 23 24  2  0
 24 19  1  0
 25 27  1  0
 26 25  2  0
M  END
$$$$
