MTF.pdb
     RDKit          3D

 27 27  0  0  1  0  0  0  0  0999 V2000
    6.6937  -12.0283   19.7155 C   0  0  0  0  0  0  0  0  0  0  0  0
    8.5076  -11.9918   19.6525 S   0  0  0  0  0  0  0  0  0  0  0  0
    9.1924  -13.6548   19.7036 C   0  0  0  0  0  0  0  0  0  0  0  0
    8.6482  -14.5412   18.6132 C   0  0  0  0  0  0  0  0  0  0  0  0
    9.2553  -15.9308   18.6571 C   0  0  2  0  0  0  0  0  0  0  0  0
    8.7138  -16.6623   17.5308 N   0  0  0  0  0  0  0  0  0  0  0  0
    8.7618  -16.5549   19.8983 C   0  0  0  0  0  0  0  0  0  0  0  0
    7.8084  -17.3649   19.8338 O   0  0  0  0  0  0  0  0  0  0  0  0
    9.5216  -19.5239   23.1183 C   0  0  0  0  0  0  0  0  0  0  0  0
    9.6676  -18.5465   21.9789 C   0  0  1  0  0  0  0  0  0  0  0  0
    8.9493  -19.1087   20.9049 O   0  0  0  0  0  0  0  0  0  0  0  0
    8.9838  -17.2179   22.2905 C   0  0  2  0  0  0  0  0  0  0  0  0
    9.2980  -16.2997   21.1793 N   0  0  0  0  0  0  0  0  0  0  0  0
    9.4788  -16.5785   23.5143 C   0  0  0  0  0  0  0  0  0  0  0  0
   10.7298  -16.4036   23.6716 O   0  0  0  0  0  0  0  0  0  0  0  0
    8.6968  -16.1054   24.5991 N   0  0  0  0  0  0  0  0  0  0  0  0
    9.2316  -15.8793   25.9203 C   0  0  1  0  0  0  0  0  0  0  0  0
    8.2018  -15.4305   26.9124 C   0  0  0  0  0  0  0  0  0  0  0  0
    7.5519  -14.1456   26.5668 C   0  0  0  0  0  0  0  0  0  0  0  0
    6.1722  -13.9602   26.6205 C   0  0  0  0  0  0  0  0  0  0  0  0
    5.5702  -12.7692   26.3066 C   0  0  0  0  0  0  0  0  0  0  0  0
    6.3291  -11.6875   25.9173 C   0  0  0  0  0  0  0  0  0  0  0  0
    7.6939  -11.8386   25.8546 C   0  0  0  0  0  0  0  0  0  0  0  0
    8.2764  -13.0445   26.1746 C   0  0  0  0  0  0  0  0  0  0  0  0
   10.0334  -17.0449   26.3591 C   0  0  0  0  0  0  0  0  0  0  0  0
    9.6520  -18.2164   26.2761 O   0  0  0  0  0  0  0  0  0  0  0  0
   11.2938  -16.8257   26.8999 O   0  0  0  0  0  0  0  0  0  0  0  0
  2  1  1  0
  3  2  1  0
  4  3  1  0
  4  5  1  0
  5  7  1  0
  5  6  1  6
  7  8  2  0
 10 12  1  0
 10  9  1  1
 11 10  1  0
 13  7  1  0
 12 13  1  6
 14 12  1  0
 14 15  2  0
 16 14  1  0
 17 25  1  0
 17 16  1  0
 17 18  1  1
 19 18  1  0
 20 19  2  0
 21 20  1  0
 22 21  2  0
 22 23  1  0
 23 24  2  0
 24 19  1  0
 25 27  1  0
 26 25  2  0
M  END
$$$$
