MTF.pdb
     RDKit          3D

 27 27  0  0  1  0  0  0  0  0999 V2000
    9.2118  -11.7470   19.6649 C   0  0  0  0  0  0  0  0  0  0  0  0
    8.3827  -12.3077   18.1504 S   0  0  0  0  0  0  0  0  0  0  0  0
    8.5745  -14.0824   17.9246 C   0  0  0  0  0  0  0  0  0  0  0  0
    8.4267  -14.8515   19.2121 C   0  0  0  0  0  0  0  0  0  0  0  0
    8.6540  -16.3381   19.0130 C   0  0  2  0  0  0  0  0  0  0  0  0
    7.5162  -16.8421   18.2724 N   0  0  0  0  0  0  0  0  0  0  0  0
    8.6368  -16.9395   20.3590 C   0  0  0  0  0  0  0  0  0  0  0  0
    7.5353  -17.2219   20.8844 O   0  0  0  0  0  0  0  0  0  0  0  0
   10.4872  -19.7829   23.7949 C   0  0  0  0  0  0  0  0  0  0  0  0
   10.4835  -19.1196   22.4403 C   0  0  1  0  0  0  0  0  0  0  0  0
    9.8046  -20.0108   21.5856 O   0  0  0  0  0  0  0  0  0  0  0  0
    9.6579  -17.8359   22.4483 C   0  0  2  0  0  0  0  0  0  0  0  0
    9.7962  -17.2254   21.1124 N   0  0  0  0  0  0  0  0  0  0  0  0
   10.1342  -16.8404   23.4146 C   0  0  0  0  0  0  0  0  0  0  0  0
   11.1768  -16.1583   23.1538 O   0  0  0  0  0  0  0  0  0  0  0  0
    9.5467  -16.5262   24.6670 N   0  0  0  0  0  0  0  0  0  0  0  0
   10.1413  -15.6125   25.6126 C   0  0  1  0  0  0  0  0  0  0  0  0
    9.7425  -14.1844   25.3943 C   0  0  0  0  0  0  0  0  0  0  0  0
    8.4435  -13.8212   26.0055 C   0  0  0  0  0  0  0  0  0  0  0  0
    8.3341  -12.9270   27.0681 C   0  0  0  0  0  0  0  0  0  0  0  0
    7.1313  -12.5857   27.6305 C   0  0  0  0  0  0  0  0  0  0  0  0
    5.9600  -13.1298   27.1514 C   0  0  0  0  0  0  0  0  0  0  0  0
    6.0348  -14.0157   26.1031 C   0  0  0  0  0  0  0  0  0  0  0  0
    7.2542  -14.3436   25.5541 C   0  0  0  0  0  0  0  0  0  0  0  0
    9.9374  -16.0974   26.9972 C   0  0  0  0  0  0  0  0  0  0  0  0
   10.3896  -15.5356   27.9996 O   0  0  0  0  0  0  0  0  0  0  0  0
    9.1949  -17.2537   27.1997 O   0  0  0  0  0  0  0  0  0  0  0  0
  2  1  1  0
  3  2  1  0
  4  3  1  0
  4  5  1  0
  5  7  1  0
  5  6  1  6
  7  8  2  0
 10 12  1  0
 10  9  1  1
 11 10  1  0
 13  7  1  0
 12 13  1  6
 14 12  1  0
 14 15  2  0
 16 14  1  0
 17 25  1  0
 17 16  1  0
 17 18  1  1
 19 18  1  0
 20 19  2  0
 21 20  1  0
 22 21  2  0
 22 23  1  0
 23 24  2  0
 24 19  1  0
 25 27  1  0
 26 25  2  0
M  END
$$$$
