MTF.pdb
     RDKit          3D

 27 27  0  0  1  0  0  0  0  0999 V2000
    1.2268  -19.6345   19.9144 C   0  0  0  0  0  0  0  0  0  0  0  0
    1.3463  -18.5517   21.3665 S   0  0  0  0  0  0  0  0  0  0  0  0
    2.9228  -18.7648   22.2072 C   0  0  0  0  0  0  0  0  0  0  0  0
    3.9800  -19.3645   21.3164 C   0  0  0  0  0  0  0  0  0  0  0  0
    5.3133  -19.4945   22.0283 C   0  0  2  0  0  0  0  0  0  0  0  0
    5.0501  -19.3468   23.4446 N   0  0  0  0  0  0  0  0  0  0  0  0
    6.1287  -18.3492   21.5844 C   0  0  0  0  0  0  0  0  0  0  0  0
    6.6141  -18.3601   20.4296 O   0  0  0  0  0  0  0  0  0  0  0  0
    6.6655  -15.8828   19.6662 C   0  0  0  0  0  0  0  0  0  0  0  0
    6.9051  -15.2846   21.0299 C   0  0  1  0  0  0  0  0  0  0  0  0
    5.6271  -14.9741   21.5357 O   0  0  0  0  0  0  0  0  0  0  0  0
    7.4996  -16.3084   21.9932 C   0  0  2  0  0  0  0  0  0  0  0  0
    6.4066  -17.2191   22.3838 N   0  0  0  0  0  0  0  0  0  0  0  0
    8.0134  -15.7156   23.2326 C   0  0  0  0  0  0  0  0  0  0  0  0
    7.2826  -14.9121   23.8964 O   0  0  0  0  0  0  0  0  0  0  0  0
    9.2880  -15.9388   23.8140 N   0  0  0  0  0  0  0  0  0  0  0  0
    9.6620  -15.4398   25.1154 C   0  0  1  0  0  0  0  0  0  0  0  0
    8.5679  -15.5496   26.1338 C   0  0  0  0  0  0  0  0  0  0  0  0
    7.8542  -14.2778   26.3910 C   0  0  0  0  0  0  0  0  0  0  0  0
    8.4274  -13.2206   27.0944 C   0  0  0  0  0  0  0  0  0  0  0  0
    7.7695  -12.0406   27.3276 C   0  0  0  0  0  0  0  0  0  0  0  0
    6.4862  -11.8559   26.8624 C   0  0  0  0  0  0  0  0  0  0  0  0
    5.8931  -12.8807   26.1644 C   0  0  0  0  0  0  0  0  0  0  0  0
    6.5733  -14.0571   25.9422 C   0  0  0  0  0  0  0  0  0  0  0  0
   10.9529  -16.0275   25.5421 C   0  0  0  0  0  0  0  0  0  0  0  0
   11.5543  -15.7014   26.5701 O   0  0  0  0  0  0  0  0  0  0  0  0
   11.5380  -17.0066   24.7494 O   0  0  0  0  0  0  0  0  0  0  0  0
  2  1  1  0
  3  2  1  0
  4  3  1  0
  4  5  1  0
  5  7  1  0
  5  6  1  1
  7  8  2  0
 10 12  1  0
 10  9  1  6
 11 10  1  0
 13  7  1  0
 12 13  1  1
 14 12  1  0
 14 15  2  0
 16 14  1  0
 17 25  1  0
 17 16  1  0
 17 18  1  1
 19 18  1  0
 20 19  2  0
 21 20  1  0
 22 21  2  0
 22 23  1  0
 23 24  2  0
 24 19  1  0
 25 27  1  0
 26 25  2  0
M  END
$$$$
