MTF.pdb
     RDKit          3D

 27 27  0  0  1  0  0  0  0  0999 V2000
    8.0195  -11.1153   19.5045 C   0  0  0  0  0  0  0  0  0  0  0  0
    8.3052  -12.7483   20.2442 S   0  0  0  0  0  0  0  0  0  0  0  0
    6.8042  -13.7404   20.2264 C   0  0  0  0  0  0  0  0  0  0  0  0
    6.9402  -15.0143   21.0199 C   0  0  0  0  0  0  0  0  0  0  0  0
    8.2037  -15.7731   20.6608 C   0  0  2  0  0  0  0  0  0  0  0  0
    7.8806  -16.6163   19.5287 N   0  0  0  0  0  0  0  0  0  0  0  0
    8.5042  -16.6391   21.8155 C   0  0  0  0  0  0  0  0  0  0  0  0
    7.8543  -17.6994   21.9655 O   0  0  0  0  0  0  0  0  0  0  0  0
   10.6326  -18.9451   22.0979 C   0  0  0  0  0  0  0  0  0  0  0  0
   10.9710  -18.1736   23.3489 C   0  0  1  0  0  0  0  0  0  0  0  0
   11.9585  -17.2450   22.9641 O   0  0  0  0  0  0  0  0  0  0  0  0
    9.7838  -17.3461   23.8341 C   0  0  2  0  0  0  0  0  0  0  0  0
    9.4919  -16.3527   22.7830 N   0  0  0  0  0  0  0  0  0  0  0  0
   10.0605  -16.5893   25.0598 C   0  0  0  0  0  0  0  0  0  0  0  0
   10.5358  -15.4113   24.9787 O   0  0  0  0  0  0  0  0  0  0  0  0
    9.8524  -17.0289   26.3923 N   0  0  0  0  0  0  0  0  0  0  0  0
    9.9682  -16.1604   27.5389 C   0  0  1  0  0  0  0  0  0  0  0  0
    8.6488  -15.6627   28.0466 C   0  0  0  0  0  0  0  0  0  0  0  0
    8.1837  -14.4167   27.3955 C   0  0  0  0  0  0  0  0  0  0  0  0
    8.9580  -13.2598   27.3419 C   0  0  0  0  0  0  0  0  0  0  0  0
    8.5305  -12.1077   26.7340 C   0  0  0  0  0  0  0  0  0  0  0  0
    7.2886  -12.0539   26.1403 C   0  0  0  0  0  0  0  0  0  0  0  0
    6.5007  -13.1796   26.1763 C   0  0  0  0  0  0  0  0  0  0  0  0
    6.9511  -14.3255   26.7926 C   0  0  0  0  0  0  0  0  0  0  0  0
   10.8238  -16.7842   28.5747 C   0  0  0  0  0  0  0  0  0  0  0  0
   11.1511  -16.2279   29.6275 O   0  0  0  0  0  0  0  0  0  0  0  0
   11.2964  -18.0735   28.3659 O   0  0  0  0  0  0  0  0  0  0  0  0
  2  1  1  0
  3  2  1  0
  4  3  1  0
  4  5  1  0
  5  7  1  0
  5  6  1  6
  7  8  2  0
 10 12  1  0
 10  9  1  6
 11 10  1  0
 13  7  1  0
 12 13  1  6
 14 12  1  0
 14 15  2  0
 16 14  1  0
 17 25  1  0
 17 16  1  0
 17 18  1  1
 19 18  1  0
 20 19  2  0
 21 20  1  0
 22 21  2  0
 22 23  1  0
 23 24  2  0
 24 19  1  0
 25 27  1  0
 26 25  2  0
M  END
$$$$
