MTF.pdb
     RDKit          3D

 27 27  0  0  1  0  0  0  0  0999 V2000
    7.2409  -11.6001   19.8210 C   0  0  0  0  0  0  0  0  0  0  0  0
    8.9467  -12.0712   19.4161 S   0  0  0  0  0  0  0  0  0  0  0  0
    8.9896  -13.5939   18.4586 C   0  0  0  0  0  0  0  0  0  0  0  0
    8.1540  -14.6887   19.0701 C   0  0  0  0  0  0  0  0  0  0  0  0
    8.8827  -16.0192   19.0795 C   0  0  2  0  0  0  0  0  0  0  0  0
    8.4367  -16.7514   17.9125 N   0  0  0  0  0  0  0  0  0  0  0  0
    8.4177  -16.7330   20.2828 C   0  0  0  0  0  0  0  0  0  0  0  0
    7.5677  -17.6447   20.1582 O   0  0  0  0  0  0  0  0  0  0  0  0
    8.2593  -19.2794   21.1350 C   0  0  0  0  0  0  0  0  0  0  0  0
    8.9328  -18.7394   22.3718 C   0  0  1  0  0  0  0  0  0  0  0  0
   10.2949  -18.6112   22.0343 O   0  0  0  0  0  0  0  0  0  0  0  0
    8.4485  -17.3302   22.7023 C   0  0  2  0  0  0  0  0  0  0  0  0
    8.8713  -16.4568   21.5910 N   0  0  0  0  0  0  0  0  0  0  0  0
    9.0483  -16.7766   23.9211 C   0  0  0  0  0  0  0  0  0  0  0  0
   10.1743  -16.1866   23.8568 O   0  0  0  0  0  0  0  0  0  0  0  0
    8.5009  -16.8180   25.2291 N   0  0  0  0  0  0  0  0  0  0  0  0
    9.1490  -16.2300   26.3766 C   0  0  1  0  0  0  0  0  0  0  0  0
    8.2040  -15.5169   27.2957 C   0  0  0  0  0  0  0  0  0  0  0  0
    7.6744  -14.2469   26.7483 C   0  0  0  0  0  0  0  0  0  0  0  0
    6.3319  -14.0686   26.4216 C   0  0  0  0  0  0  0  0  0  0  0  0
    5.8397  -12.8912   25.9205 C   0  0  0  0  0  0  0  0  0  0  0  0
    6.6779  -11.8170   25.7179 C   0  0  0  0  0  0  0  0  0  0  0  0
    8.0085  -11.9616   26.0309 C   0  0  0  0  0  0  0  0  0  0  0  0
    8.4803  -13.1537   26.5330 C   0  0  0  0  0  0  0  0  0  0  0  0
   10.0155  -17.2268   27.0471 C   0  0  0  0  0  0  0  0  0  0  0  0
    9.8348  -18.4471   26.9929 O   0  0  0  0  0  0  0  0  0  0  0  0
   11.1026  -16.7797   27.7872 O   0  0  0  0  0  0  0  0  0  0  0  0
  2  1  1  0
  3  2  1  0
  4  3  1  0
  4  5  1  0
  5  7  1  0
  5  6  1  6
  7  8  2  0
 10 12  1  0
 10  9  1  6
 11 10  1  0
 13  7  1  0
 12 13  1  6
 14 12  1  0
 14 15  2  0
 16 14  1  0
 17 25  1  0
 17 16  1  0
 17 18  1  1
 19 18  1  0
 20 19  2  0
 21 20  1  0
 22 21  2  0
 22 23  1  0
 23 24  2  0
 24 19  1  0
 25 27  1  0
 26 25  2  0
M  END
$$$$
