MTF.pdb
     RDKit          3D

 27 27  0  0  1  0  0  0  0  0999 V2000
    7.1470  -12.5786   26.6087 C   0  0  0  0  0  0  0  0  0  0  0  0
    5.9684  -13.3771   25.4822 S   0  0  0  0  0  0  0  0  0  0  0  0
    5.7611  -15.1179   25.8871 C   0  0  0  0  0  0  0  0  0  0  0  0
    6.9898  -15.9356   25.5831 C   0  0  0  0  0  0  0  0  0  0  0  0
    6.9418  -16.5332   24.1895 C   0  0  2  0  0  0  0  0  0  0  0  0
    5.9431  -17.5814   24.2155 N   0  0  0  0  0  0  0  0  0  0  0  0
    8.2606  -17.1522   23.9631 C   0  0  0  0  0  0  0  0  0  0  0  0
    8.4565  -18.3257   24.3551 O   0  0  0  0  0  0  0  0  0  0  0  0
   10.0732  -17.2085   20.6207 C   0  0  0  0  0  0  0  0  0  0  0  0
   11.0786  -16.8509   21.6867 C   0  0  1  0  0  0  0  0  0  0  0  0
   11.1417  -15.4432   21.6888 O   0  0  0  0  0  0  0  0  0  0  0  0
   10.5874  -17.2504   23.0754 C   0  0  2  0  0  0  0  0  0  0  0  0
    9.3393  -16.5038   23.3232 N   0  0  0  0  0  0  0  0  0  0  0  0
   11.5146  -16.8842   24.1514 C   0  0  0  0  0  0  0  0  0  0  0  0
   12.3825  -15.9746   23.9523 O   0  0  0  0  0  0  0  0  0  0  0  0
   11.5663  -17.4454   25.4532 N   0  0  0  0  0  0  0  0  0  0  0  0
   12.5328  -17.0475   26.4482 C   0  0  1  0  0  0  0  0  0  0  0  0
   12.5937  -15.5653   26.6620 C   0  0  0  0  0  0  0  0  0  0  0  0
   11.3488  -14.9845   27.2149 C   0  0  0  0  0  0  0  0  0  0  0  0
   10.2089  -15.7450   27.4661 C   0  0  0  0  0  0  0  0  0  0  0  0
    9.0579  -15.2091   27.9836 C   0  0  0  0  0  0  0  0  0  0  0  0
    8.9881  -13.8657   28.2800 C   0  0  0  0  0  0  0  0  0  0  0  0
   10.0967  -13.0884   28.0434 C   0  0  0  0  0  0  0  0  0  0  0  0
   11.2418  -13.6486   27.5231 C   0  0  0  0  0  0  0  0  0  0  0  0
   12.3504  -17.8353   27.6891 C   0  0  0  0  0  0  0  0  0  0  0  0
   13.0438  -17.6998   28.7018 O   0  0  0  0  0  0  0  0  0  0  0  0
   11.3425  -18.7900   27.7346 O   0  0  0  0  0  0  0  0  0  0  0  0
  2  1  1  0
  3  2  1  0
  4  3  1  0
  4  5  1  0
  5  7  1  0
  5  6  1  1
  7  8  2  0
 10 12  1  0
 10  9  1  6
 11 10  1  0
 13  7  1  0
 12 13  1  1
 14 12  1  0
 14 15  2  0
 16 14  1  0
 17 25  1  0
 17 16  1  0
 17 18  1  1
 19 18  1  0
 20 19  2  0
 21 20  1  0
 22 21  2  0
 22 23  1  0
 23 24  2  0
 24 19  1  0
 25 27  1  0
 26 25  2  0
M  END
$$$$
