MTF.pdb
     RDKit          3D

 27 27  0  0  1  0  0  0  0  0999 V2000
    1.4538  -18.8863   23.8314 C   0  0  0  0  0  0  0  0  0  0  0  0
    0.7658  -19.6388   22.3294 S   0  0  0  0  0  0  0  0  0  0  0  0
    2.0315  -19.8416   21.0668 C   0  0  0  0  0  0  0  0  0  0  0  0
    3.3708  -19.2986   21.4940 C   0  0  0  0  0  0  0  0  0  0  0  0
    4.4381  -19.5318   20.4415 C   0  0  2  0  0  0  0  0  0  0  0  0
    4.3686  -20.9308   20.0745 N   0  0  0  0  0  0  0  0  0  0  0  0
    5.7309  -19.2889   21.1076 C   0  0  0  0  0  0  0  0  0  0  0  0
    6.1394  -20.1111   21.9597 O   0  0  0  0  0  0  0  0  0  0  0  0
    9.0053  -18.8917   19.5479 C   0  0  0  0  0  0  0  0  0  0  0  0
    8.9174  -17.7685   20.5507 C   0  0  1  0  0  0  0  0  0  0  0  0
    8.4965  -16.6408   19.8182 O   0  0  0  0  0  0  0  0  0  0  0  0
    7.8262  -18.0271   21.5860 C   0  0  2  0  0  0  0  0  0  0  0  0
    6.5571  -18.1738   20.8480 N   0  0  0  0  0  0  0  0  0  0  0  0
    7.6375  -16.9172   22.5263 C   0  0  0  0  0  0  0  0  0  0  0  0
    6.7524  -16.0339   22.2883 O   0  0  0  0  0  0  0  0  0  0  0  0
    8.3544  -16.6951   23.7300 N   0  0  0  0  0  0  0  0  0  0  0  0
    8.3055  -15.4523   24.4618 C   0  0  1  0  0  0  0  0  0  0  0  0
    6.9115  -14.9896   24.7601 C   0  0  0  0  0  0  0  0  0  0  0  0
    6.8453  -13.8255   25.6730 C   0  0  0  0  0  0  0  0  0  0  0  0
    7.8826  -12.9037   25.7957 C   0  0  0  0  0  0  0  0  0  0  0  0
    7.8196  -11.8224   26.6362 C   0  0  0  0  0  0  0  0  0  0  0  0
    6.6993  -11.6055   27.4078 C   0  0  0  0  0  0  0  0  0  0  0  0
    5.6583  -12.4976   27.3091 C   0  0  0  0  0  0  0  0  0  0  0  0
    5.7440  -13.5766   26.4580 C   0  0  0  0  0  0  0  0  0  0  0  0
    9.1933  -15.5152   25.6458 C   0  0  0  0  0  0  0  0  0  0  0  0
    9.8875  -14.5730   26.0398 O   0  0  0  0  0  0  0  0  0  0  0  0
    9.2622  -16.6988   26.3695 O   0  0  0  0  0  0  0  0  0  0  0  0
  2  1  1  0
  3  2  1  0
  4  3  1  0
  4  5  1  0
  5  7  1  0
  5  6  1  1
  7  8  2  0
 10 12  1  0
 10  9  1  6
 11 10  1  0
 13  7  1  0
 12 13  1  6
 14 12  1  0
 14 15  2  0
 16 14  1  0
 17 25  1  0
 17 16  1  0
 17 18  1  1
 19 18  1  0
 20 19  2  0
 21 20  1  0
 22 21  2  0
 22 23  1  0
 23 24  2  0
 24 19  1  0
 25 27  1  0
 26 25  2  0
M  END
$$$$
