MTF.pdb
     RDKit          3D

 27 27  0  0  1  0  0  0  0  0999 V2000
    9.5241  -11.8154   19.4631 C   0  0  0  0  0  0  0  0  0  0  0  0
    8.2154  -12.4303   18.3654 S   0  0  0  0  0  0  0  0  0  0  0  0
    8.0117  -14.2103   18.5319 C   0  0  0  0  0  0  0  0  0  0  0  0
    9.3265  -14.9463   18.5519 C   0  0  0  0  0  0  0  0  0  0  0  0
    9.1345  -16.4448   18.6902 C   0  0  2  0  0  0  0  0  0  0  0  0
    8.0986  -16.8246   17.7524 N   0  0  0  0  0  0  0  0  0  0  0  0
    8.6300  -16.6692   20.0573 C   0  0  0  0  0  0  0  0  0  0  0  0
    7.4087  -16.5128   20.2876 O   0  0  0  0  0  0  0  0  0  0  0  0
    8.2941  -19.6408   21.4991 C   0  0  0  0  0  0  0  0  0  0  0  0
    8.9302  -18.8828   22.6373 C   0  0  1  0  0  0  0  0  0  0  0  0
   10.3068  -19.1742   22.5621 O   0  0  0  0  0  0  0  0  0  0  0  0
    8.8098  -17.3740   22.4410 C   0  0  2  0  0  0  0  0  0  0  0  0
    9.4413  -17.0555   21.1463 N   0  0  0  0  0  0  0  0  0  0  0  0
    9.5230  -16.5933   23.4577 C   0  0  0  0  0  0  0  0  0  0  0  0
   10.5428  -15.9083   23.1248 O   0  0  0  0  0  0  0  0  0  0  0  0
    9.2002  -16.5011   24.8359 N   0  0  0  0  0  0  0  0  0  0  0  0
    9.9831  -15.7438   25.7826 C   0  0  1  0  0  0  0  0  0  0  0  0
    9.7931  -14.2619   25.6642 C   0  0  0  0  0  0  0  0  0  0  0  0
    8.4949  -13.7771   26.1861 C   0  0  0  0  0  0  0  0  0  0  0  0
    7.3053  -13.8888   25.4697 C   0  0  0  0  0  0  0  0  0  0  0  0
    6.1020  -13.4457   25.9548 C   0  0  0  0  0  0  0  0  0  0  0  0
    6.0268  -12.8598   27.1992 C   0  0  0  0  0  0  0  0  0  0  0  0
    7.1837  -12.7352   27.9309 C   0  0  0  0  0  0  0  0  0  0  0  0
    8.3809  -13.1877   27.4233 C   0  0  0  0  0  0  0  0  0  0  0  0
    9.7926  -16.2751   27.1520 C   0  0  0  0  0  0  0  0  0  0  0  0
   10.3473  -15.8153   28.1549 O   0  0  0  0  0  0  0  0  0  0  0  0
    8.9418  -17.3571   27.3386 O   0  0  0  0  0  0  0  0  0  0  0  0
  2  1  1  0
  3  2  1  0
  4  3  1  0
  4  5  1  0
  5  7  1  0
  5  6  1  6
  7  8  2  0
 10 12  1  0
 10  9  1  6
 11 10  1  0
 13  7  1  0
 12 13  1  6
 14 12  1  0
 14 15  2  0
 16 14  1  0
 17 25  1  0
 17 16  1  0
 17 18  1  1
 19 18  1  0
 20 19  2  0
 21 20  1  0
 22 21  2  0
 22 23  1  0
 23 24  2  0
 24 19  1  0
 25 27  1  0
 26 25  2  0
M  END
$$$$
