MTF.pdb
     RDKit          3D

 27 27  0  0  1  0  0  0  0  0999 V2000
    7.8246  -11.9556   19.9008 C   0  0  0  0  0  0  0  0  0  0  0  0
    9.0186  -13.1112   19.1698 S   0  0  0  0  0  0  0  0  0  0  0  0
    8.2328  -14.1660   17.9421 C   0  0  0  0  0  0  0  0  0  0  0  0
    7.2836  -15.1633   18.5547 C   0  0  0  0  0  0  0  0  0  0  0  0
    7.9438  -16.5110   18.7768 C   0  0  2  0  0  0  0  0  0  0  0  0
    7.3059  -17.4459   17.8735 N   0  0  0  0  0  0  0  0  0  0  0  0
    7.6182  -16.9042   20.1599 C   0  0  0  0  0  0  0  0  0  0  0  0
    6.6035  -17.6085   20.3687 O   0  0  0  0  0  0  0  0  0  0  0  0
    7.1958  -19.1583   21.4283 C   0  0  0  0  0  0  0  0  0  0  0  0
    8.1604  -18.6328   22.4619 C   0  0  1  0  0  0  0  0  0  0  0  0
    9.4454  -18.8856   21.9419 O   0  0  0  0  0  0  0  0  0  0  0  0
    8.0567  -17.1167   22.6041 C   0  0  2  0  0  0  0  0  0  0  0  0
    8.3838  -16.5363   21.2878 N   0  0  0  0  0  0  0  0  0  0  0  0
    9.0153  -16.5521   23.5602 C   0  0  0  0  0  0  0  0  0  0  0  0
   10.1887  -16.2491   23.1708 O   0  0  0  0  0  0  0  0  0  0  0  0
    8.7852  -16.2872   24.9346 N   0  0  0  0  0  0  0  0  0  0  0  0
    9.7751  -15.6963   25.8027 C   0  0  1  0  0  0  0  0  0  0  0  0
    9.7723  -14.1978   25.7782 C   0  0  0  0  0  0  0  0  0  0  0  0
    8.4603  -13.5922   26.1021 C   0  0  0  0  0  0  0  0  0  0  0  0
    7.3322  -13.7658   25.3034 C   0  0  0  0  0  0  0  0  0  0  0  0
    6.1157  -13.2105   25.6058 C   0  0  0  0  0  0  0  0  0  0  0  0
    5.9642  -12.4422   26.7390 C   0  0  0  0  0  0  0  0  0  0  0  0
    7.0591  -12.2524   27.5480 C   0  0  0  0  0  0  0  0  0  0  0  0
    8.2710  -12.8200   27.2241 C   0  0  0  0  0  0  0  0  0  0  0  0
    9.6885  -16.2838   27.1596 C   0  0  0  0  0  0  0  0  0  0  0  0
   10.4084  -15.9483   28.1051 O   0  0  0  0  0  0  0  0  0  0  0  0
    8.7456  -17.2747   27.4018 O   0  0  0  0  0  0  0  0  0  0  0  0
  2  1  1  0
  3  2  1  0
  4  3  1  0
  4  5  1  0
  5  7  1  0
  5  6  1  6
  7  8  2  0
 10 12  1  0
 10  9  1  6
 11 10  1  0
 13  7  1  0
 12 13  1  6
 14 12  1  0
 14 15  2  0
 16 14  1  0
 17 25  1  0
 17 16  1  0
 17 18  1  1
 19 18  1  0
 20 19  2  0
 21 20  1  0
 22 21  2  0
 22 23  1  0
 23 24  2  0
 24 19  1  0
 25 27  1  0
 26 25  2  0
M  END
$$$$
