PTE.pdb
     RDKit          3D

 24 24  0  0  1  0  0  0  0  0999 V2000
   22.1111  -12.2746  -17.8947 N   0  0  0  0  0  0  0  0  0  0  0  0
   22.3965  -13.6379  -18.3234 C   0  0  0  0  0  0  0  0  0  0  0  0
   21.1552  -14.1816  -18.9498 C   0  0  0  0  0  0  0  0  0  0  0  0
   20.1016  -13.1807  -18.5015 C   0  0  0  0  0  0  0  0  0  0  0  0
   20.9015  -11.9060  -18.5537 C   0  0  1  0  0  0  0  0  0  0  0  0
   20.2336  -10.7267  -17.9866 C   0  0  0  0  0  0  0  0  0  0  0  0
   19.2666  -10.2257  -18.6184 O   0  0  0  0  0  0  0  0  0  0  0  0
   18.2614  -10.5651  -15.0983 C   0  0  0  0  0  0  0  0  0  0  0  0
   19.3250   -9.5415  -14.8720 C   0  0  1  0  0  0  0  0  0  0  0  0
   20.3962  -10.2461  -14.2506 O   0  0  0  0  0  0  0  0  0  0  0  0
   19.8554   -8.9624  -16.1932 C   0  0  2  0  0  0  0  0  0  0  0  0
   20.5928  -10.0987  -16.7734 N   0  0  0  0  0  0  0  0  0  0  0  0
   20.8015   -7.8811  -15.8434 C   0  0  0  0  0  0  0  0  0  0  0  0
   22.0362   -8.1835  -15.6874 O   0  0  0  0  0  0  0  0  0  0  0  0
   20.4739   -6.5434  -15.6670 N   0  0  0  0  0  0  0  0  0  0  0  0
   21.4640   -5.4994  -15.3660 C   0  0  1  0  0  0  0  0  0  0  0  0
   20.7722   -4.1997  -15.6792 C   0  0  0  0  0  0  0  0  0  0  0  0
   21.5888   -2.9725  -15.4973 C   0  0  0  0  0  0  0  0  0  0  0  0
   20.8822   -1.7086  -15.7567 C   0  0  0  0  0  0  0  0  0  0  0  0
   21.4319   -0.5961  -15.6336 O   0  0  0  0  0  0  0  0  0  0  0  0
   21.8509   -5.5211  -13.9533 C   0  0  0  0  0  0  0  0  0  0  0  0
   21.1603   -6.0765  -13.0757 O   0  0  0  0  0  0  0  0  0  0  0  0
   19.5310   -1.7321  -16.1626 O   0  0  0  0  0  0  0  0  0  0  0  0
   23.0383   -4.9133  -13.4853 O   0  0  0  0  0  0  0  0  0  0  0  0
  1  2  1  0
  3  2  1  0
  4  3  1  0
  4  5  1  0
  5  1  1  0
  6 12  1  0
  5  6  1  1
  7  6  2  0
  9  8  1  6
  9 11  1  0
 10  9  1  0
 11 12  1  1
 11 13  1  0
 13 15  1  0
 14 13  2  0
 15 16  1  0
 16 17  1  1
 16 21  1  0
 18 17  1  0
 19 23  1  0
 19 18  1  0
 20 19  2  0
 21 24  1  0
 22 21  2  0
M  END
$$$$
