PTE.pdb
     RDKit          3D

 24 24  0  0  1  0  0  0  0  0999 V2000
   21.6813  -14.6795  -17.0760 N   0  0  0  0  0  0  0  0  0  0  0  0
   21.9335  -16.0328  -17.5542 C   0  0  0  0  0  0  0  0  0  0  0  0
   22.6957  -15.9231  -18.8333 C   0  0  0  0  0  0  0  0  0  0  0  0
   22.5123  -14.4572  -19.1943 C   0  0  0  0  0  0  0  0  0  0  0  0
   22.5537  -13.8350  -17.8236 C   0  0  1  0  0  0  0  0  0  0  0  0
   22.2090  -12.4077  -17.7759 C   0  0  0  0  0  0  0  0  0  0  0  0
   22.9792  -11.5873  -18.3407 O   0  0  0  0  0  0  0  0  0  0  0  0
   19.5779  -10.5675  -19.3127 C   0  0  0  0  0  0  0  0  0  0  0  0
   19.4140  -10.3553  -17.8435 C   0  0  1  0  0  0  0  0  0  0  0  0
   18.6110  -11.4437  -17.3956 O   0  0  0  0  0  0  0  0  0  0  0  0
   20.7562  -10.4320  -17.0987 C   0  0  2  0  0  0  0  0  0  0  0  0
   21.0682  -11.8717  -17.1383 N   0  0  0  0  0  0  0  0  0  0  0  0
   20.5015  -10.0157  -15.7028 C   0  0  0  0  0  0  0  0  0  0  0  0
   19.9951  -10.8734  -14.8977 O   0  0  0  0  0  0  0  0  0  0  0  0
   20.7661   -8.7610  -15.1704 N   0  0  0  0  0  0  0  0  0  0  0  0
   20.4567   -8.3878  -13.7826 C   0  0  1  0  0  0  0  0  0  0  0  0
   21.4411   -7.3020  -13.4389 C   0  0  0  0  0  0  0  0  0  0  0  0
   21.1943   -5.9815  -14.0723 C   0  0  0  0  0  0  0  0  0  0  0  0
   22.1901   -4.9444  -13.7613 C   0  0  0  0  0  0  0  0  0  0  0  0
   23.0946   -5.1145  -12.9199 O   0  0  0  0  0  0  0  0  0  0  0  0
   19.0921   -7.8694  -13.6601 C   0  0  0  0  0  0  0  0  0  0  0  0
   18.4990   -7.7900  -12.5658 O   0  0  0  0  0  0  0  0  0  0  0  0
   22.1399   -3.7024  -14.4293 O   0  0  0  0  0  0  0  0  0  0  0  0
   18.3508   -7.4205  -14.7769 O   0  0  0  0  0  0  0  0  0  0  0  0
  1  2  1  0
  3  2  1  0
  4  3  1  0
  4  5  1  0
  5  1  1  0
  6 12  1  0
  5  6  1  6
  7  6  2  0
  9  8  1  6
  9 11  1  0
 10  9  1  0
 11 12  1  1
 11 13  1  0
 13 15  1  0
 14 13  2  0
 15 16  1  0
 16 17  1  6
 16 21  1  0
 18 17  1  0
 19 23  1  0
 19 18  1  0
 20 19  2  0
 21 24  1  0
 22 21  2  0
M  END
$$$$
