PTE.pdb
     RDKit          3D

 24 24  0  0  1  0  0  0  0  0999 V2000
   19.1492  -13.7167  -16.2214 N   0  0  0  0  0  0  0  0  0  0  0  0
   17.9556  -14.4615  -16.6014 C   0  0  0  0  0  0  0  0  0  0  0  0
   16.8013  -13.5157  -16.5544 C   0  0  0  0  0  0  0  0  0  0  0  0
   17.3777  -12.3403  -15.7803 C   0  0  0  0  0  0  0  0  0  0  0  0
   18.7896  -12.3393  -16.3038 C   0  0  1  0  0  0  0  0  0  0  0  0
   19.7105  -11.4268  -15.6127 C   0  0  0  0  0  0  0  0  0  0  0  0
   20.2466  -11.8161  -14.5420 O   0  0  0  0  0  0  0  0  0  0  0  0
   22.8574   -9.9689  -16.8533 C   0  0  0  0  0  0  0  0  0  0  0  0
   21.9728   -8.8351  -16.4504 C   0  0  1  0  0  0  0  0  0  0  0  0
   21.2115   -8.5230  -17.6136 O   0  0  0  0  0  0  0  0  0  0  0  0
   20.9853   -9.2415  -15.3450 C   0  0  2  0  0  0  0  0  0  0  0  0
   20.0483  -10.1290  -16.0564 N   0  0  0  0  0  0  0  0  0  0  0  0
   20.2816   -8.0125  -14.9195 C   0  0  0  0  0  0  0  0  0  0  0  0
   19.1804   -7.7129  -15.5008 O   0  0  0  0  0  0  0  0  0  0  0  0
   20.7069   -7.1369  -13.9295 N   0  0  0  0  0  0  0  0  0  0  0  0
   19.9462   -5.9486  -13.5172 C   0  0  1  0  0  0  0  0  0  0  0  0
   19.2735   -6.3401  -12.2287 C   0  0  0  0  0  0  0  0  0  0  0  0
   18.3969   -5.3086  -11.6175 C   0  0  0  0  0  0  0  0  0  0  0  0
   17.9384   -5.6085  -10.2524 C   0  0  0  0  0  0  0  0  0  0  0  0
   18.3301   -6.6083   -9.6183 O   0  0  0  0  0  0  0  0  0  0  0  0
   20.8293   -4.8039  -13.2813 C   0  0  0  0  0  0  0  0  0  0  0  0
   22.0315   -4.9343  -12.9756 O   0  0  0  0  0  0  0  0  0  0  0  0
   17.0216   -4.7450   -9.6159 O   0  0  0  0  0  0  0  0  0  0  0  0
   20.3795   -3.4678  -13.3854 O   0  0  0  0  0  0  0  0  0  0  0  0
  1  2  1  0
  3  2  1  0
  4  3  1  0
  4  5  1  0
  5  1  1  0
  6 12  1  0
  5  6  1  1
  7  6  2  0
  9  8  1  6
  9 11  1  0
 10  9  1  0
 11 12  1  6
 11 13  1  0
 13 15  1  0
 14 13  2  0
 15 16  1  0
 16 17  1  1
 16 21  1  0
 18 17  1  0
 19 23  1  0
 19 18  1  0
 20 19  2  0
 21 24  1  0
 22 21  2  0
M  END
$$$$
