PTE.pdb
     RDKit          3D

 24 24  0  0  1  0  0  0  0  0999 V2000
   22.3910  -12.6541  -18.4555 N   0  0  0  0  0  0  0  0  0  0  0  0
   22.0612  -13.9328  -19.0718 C   0  0  0  0  0  0  0  0  0  0  0  0
   21.6544  -14.8667  -17.9804 C   0  0  0  0  0  0  0  0  0  0  0  0
   22.1368  -14.1386  -16.7353 C   0  0  0  0  0  0  0  0  0  0  0  0
   21.8608  -12.7127  -17.1331 C   0  0  1  0  0  0  0  0  0  0  0  0
   22.3939  -11.6953  -16.2172 C   0  0  0  0  0  0  0  0  0  0  0  0
   21.9230  -11.6349  -15.0511 O   0  0  0  0  0  0  0  0  0  0  0  0
   26.1182  -10.8605  -15.5658 C   0  0  0  0  0  0  0  0  0  0  0  0
   25.3773   -9.6237  -15.9554 C   0  0  1  0  0  0  0  0  0  0  0  0
   25.4941   -9.5486  -17.3734 O   0  0  0  0  0  0  0  0  0  0  0  0
   23.8810   -9.7200  -15.6177 C   0  0  2  0  0  0  0  0  0  0  0  0
   23.4057  -10.7647  -16.5420 N   0  0  0  0  0  0  0  0  0  0  0  0
   23.2713   -8.4217  -15.9774 C   0  0  0  0  0  0  0  0  0  0  0  0
   23.0730   -8.1684  -17.2171 O   0  0  0  0  0  0  0  0  0  0  0  0
   22.8833   -7.4332  -15.0829 N   0  0  0  0  0  0  0  0  0  0  0  0
   22.2894   -6.1538  -15.4965 C   0  0  1  0  0  0  0  0  0  0  0  0
   20.8015   -6.3652  -15.4108 C   0  0  0  0  0  0  0  0  0  0  0  0
   19.9604   -5.1954  -15.7714 C   0  0  0  0  0  0  0  0  0  0  0  0
   18.5104   -5.4054  -15.6412 C   0  0  0  0  0  0  0  0  0  0  0  0
   18.0219   -6.4836  -15.2486 O   0  0  0  0  0  0  0  0  0  0  0  0
   22.6829   -5.0664  -14.5973 C   0  0  0  0  0  0  0  0  0  0  0  0
   23.0060   -5.2610  -13.4084 O   0  0  0  0  0  0  0  0  0  0  0  0
   17.6192   -4.3606  -15.9659 O   0  0  0  0  0  0  0  0  0  0  0  0
   22.7252   -3.7169  -15.0160 O   0  0  0  0  0  0  0  0  0  0  0  0
  1  2  1  0
  3  2  1  0
  4  3  1  0
  4  5  1  0
  5  1  1  0
  6 12  1  0
  5  6  1  1
  7  6  2  0
  9  8  1  6
  9 11  1  0
 10  9  1  0
 11 12  1  6
 11 13  1  0
 13 15  1  0
 14 13  2  0
 15 16  1  0
 16 17  1  1
 16 21  1  0
 18 17  1  0
 19 23  1  0
 19 18  1  0
 20 19  2  0
 21 24  1  0
 22 21  2  0
M  END
$$$$
