PTE.pdb
     RDKit          3D

 24 24  0  0  1  0  0  0  0  0999 V2000
   21.8044  -15.8130  -17.1184 N   0  0  0  0  0  0  0  0  0  0  0  0
   21.4180  -17.1901  -17.3978 C   0  0  0  0  0  0  0  0  0  0  0  0
   21.0131  -17.8150  -16.1038 C   0  0  0  0  0  0  0  0  0  0  0  0
   21.5527  -16.8246  -15.0835 C   0  0  0  0  0  0  0  0  0  0  0  0
   21.3100  -15.5289  -15.8115 C   0  0  1  0  0  0  0  0  0  0  0  0
   21.9000  -14.3398  -15.1820 C   0  0  0  0  0  0  0  0  0  0  0  0
   21.5738  -14.0665  -13.9970 O   0  0  0  0  0  0  0  0  0  0  0  0
   25.6444  -13.3401  -15.0187 C   0  0  0  0  0  0  0  0  0  0  0  0
   24.8305  -12.2595  -15.6512 C   0  0  1  0  0  0  0  0  0  0  0  0
   24.8100  -12.5716  -17.0413 O   0  0  0  0  0  0  0  0  0  0  0  0
   23.3767  -12.2684  -15.1524 C   0  0  2  0  0  0  0  0  0  0  0  0
   22.8161  -13.4643  -15.8060 N   0  0  0  0  0  0  0  0  0  0  0  0
   22.7263  -11.0548  -15.6917 C   0  0  0  0  0  0  0  0  0  0  0  0
   21.9952  -11.1730  -16.7366 O   0  0  0  0  0  0  0  0  0  0  0  0
   22.8320   -9.7757  -15.1623 N   0  0  0  0  0  0  0  0  0  0  0  0
   22.1324   -8.6083  -15.7180 C   0  0  1  0  0  0  0  0  0  0  0  0
   22.3868   -7.4944  -14.7379 C   0  0  0  0  0  0  0  0  0  0  0  0
   21.8258   -6.1692  -15.1055 C   0  0  0  0  0  0  0  0  0  0  0  0
   22.1159   -5.0837  -14.1561 C   0  0  0  0  0  0  0  0  0  0  0  0
   22.6110   -5.2921  -13.0307 O   0  0  0  0  0  0  0  0  0  0  0  0
   22.6684   -8.2388  -17.0303 C   0  0  0  0  0  0  0  0  0  0  0  0
   23.8827   -8.3124  -17.3054 O   0  0  0  0  0  0  0  0  0  0  0  0
   21.8326   -3.7478  -14.5117 O   0  0  0  0  0  0  0  0  0  0  0  0
   21.8439   -7.7730  -18.0799 O   0  0  0  0  0  0  0  0  0  0  0  0
  1  2  1  0
  3  2  1  0
  4  3  1  0
  4  5  1  0
  5  1  1  0
  6 12  1  0
  5  6  1  1
  7  6  2  0
  9  8  1  1
  9 11  1  0
 10  9  1  0
 11 12  1  6
 11 13  1  0
 13 15  1  0
 14 13  2  0
 15 16  1  0
 16 17  1  1
 16 21  1  0
 18 17  1  0
 19 23  1  0
 19 18  1  0
 20 19  2  0
 21 24  1  0
 22 21  2  0
M  END
$$$$
