PTE.pdb
     RDKit          3D

 24 24  0  0  1  0  0  0  0  0999 V2000
   22.6381  -12.1372  -19.0220 N   0  0  0  0  0  0  0  0  0  0  0  0
   22.4146  -13.3078  -19.8609 C   0  0  0  0  0  0  0  0  0  0  0  0
   22.0309  -14.4376  -18.9635 C   0  0  0  0  0  0  0  0  0  0  0  0
   22.4201  -13.9079  -17.5921 C   0  0  0  0  0  0  0  0  0  0  0  0
   22.0660  -12.4534  -17.7547 C   0  0  1  0  0  0  0  0  0  0  0  0
   22.4987  -11.5795  -16.6558 C   0  0  0  0  0  0  0  0  0  0  0  0
   21.9409  -11.7081  -15.5344 O   0  0  0  0  0  0  0  0  0  0  0  0
   26.0941  -10.8731  -15.6082 C   0  0  0  0  0  0  0  0  0  0  0  0
   25.3999   -9.5670  -15.8138 C   0  0  1  0  0  0  0  0  0  0  0  0
   25.6574   -9.2159  -17.1705 O   0  0  0  0  0  0  0  0  0  0  0  0
   23.8771   -9.6933  -15.6484 C   0  0  2  0  0  0  0  0  0  0  0  0
   23.5033  -10.5915  -16.7553 N   0  0  0  0  0  0  0  0  0  0  0  0
   23.3031   -8.3505  -15.8810 C   0  0  0  0  0  0  0  0  0  0  0  0
   22.9930   -8.0237  -17.0799 O   0  0  0  0  0  0  0  0  0  0  0  0
   23.0611   -7.3927  -14.9054 N   0  0  0  0  0  0  0  0  0  0  0  0
   22.3753   -6.1201  -15.1717 C   0  0  1  0  0  0  0  0  0  0  0  0
   20.9612   -6.5010  -15.5200 C   0  0  0  0  0  0  0  0  0  0  0  0
   20.0176   -5.3714  -15.7186 C   0  0  0  0  0  0  0  0  0  0  0  0
   18.6511   -5.7595  -16.1005 C   0  0  0  0  0  0  0  0  0  0  0  0
   18.3028   -5.9037  -17.2891 O   0  0  0  0  0  0  0  0  0  0  0  0
   22.3733   -5.2563  -13.9885 C   0  0  0  0  0  0  0  0  0  0  0  0
   22.5208   -5.7000  -12.8322 O   0  0  0  0  0  0  0  0  0  0  0  0
   17.6813   -5.9837  -15.1002 O   0  0  0  0  0  0  0  0  0  0  0  0
   22.2048   -3.8555  -14.0754 O   0  0  0  0  0  0  0  0  0  0  0  0
  1  2  1  0
  3  2  1  0
  4  3  1  0
  4  5  1  0
  5  1  1  0
  6 12  1  0
  5  6  1  1
  7  6  2  0
  9  8  1  6
  9 11  1  0
 10  9  1  0
 11 12  1  6
 11 13  1  0
 13 15  1  0
 14 13  2  0
 15 16  1  0
 16 17  1  1
 16 21  1  0
 18 17  1  0
 19 23  1  0
 19 18  1  0
 20 19  2  0
 21 24  1  0
 22 21  2  0
M  END
$$$$
