PTE.pdb
     RDKit          3D

 24 24  0  0  1  0  0  0  0  0999 V2000
   28.3802  -20.4843  -15.7220 N   0  0  0  0  0  0  0  0  0  0  0  0
   28.9565  -19.3851  -16.4859 C   0  0  0  0  0  0  0  0  0  0  0  0
   28.3494  -18.1186  -15.9796 C   0  0  0  0  0  0  0  0  0  0  0  0
   27.1633  -18.6275  -15.1751 C   0  0  0  0  0  0  0  0  0  0  0  0
   27.7533  -19.8838  -14.5908 C   0  0  1  0  0  0  0  0  0  0  0  0
   26.7991  -20.7535  -13.8898 C   0  0  0  0  0  0  0  0  0  0  0  0
   26.4989  -21.8576  -14.4153 O   0  0  0  0  0  0  0  0  0  0  0  0
   26.4145  -21.5376  -10.1009 C   0  0  0  0  0  0  0  0  0  0  0  0
   25.1312  -20.9768  -10.6194 C   0  0  1  0  0  0  0  0  0  0  0  0
   25.2014  -19.5780  -10.3578 O   0  0  0  0  0  0  0  0  0  0  0  0
   24.9975  -21.1583  -12.1397 C   0  0  2  0  0  0  0  0  0  0  0  0
   26.1807  -20.4483  -12.6571 N   0  0  0  0  0  0  0  0  0  0  0  0
   23.7691  -20.4473  -12.5546 C   0  0  0  0  0  0  0  0  0  0  0  0
   23.8564  -19.2010  -12.8364 O   0  0  0  0  0  0  0  0  0  0  0  0
   22.5065  -21.0126  -12.6727 N   0  0  0  0  0  0  0  0  0  0  0  0
   21.3158  -20.2569  -13.0875 C   0  0  1  0  0  0  0  0  0  0  0  0
   21.0861  -20.6430  -14.5242 C   0  0  0  0  0  0  0  0  0  0  0  0
   19.9609  -19.9545  -15.2067 C   0  0  0  0  0  0  0  0  0  0  0  0
   19.7213  -20.3763  -16.5954 C   0  0  0  0  0  0  0  0  0  0  0  0
   19.7438  -19.5768  -17.5521 O   0  0  0  0  0  0  0  0  0  0  0  0
   20.1446  -20.6237  -12.2878 C   0  0  0  0  0  0  0  0  0  0  0  0
   20.0593  -21.7093  -11.6794 O   0  0  0  0  0  0  0  0  0  0  0  0
   19.4552  -21.7327  -16.8794 O   0  0  0  0  0  0  0  0  0  0  0  0
   19.0267  -19.7698  -12.1484 O   0  0  0  0  0  0  0  0  0  0  0  0
  1  2  1  0
  3  2  1  0
  4  3  1  0
  4  5  1  0
  5  1  1  0
  6 12  1  0
  5  6  1  6
  7  6  2  0
  9  8  1  6
  9 11  1  0
 10  9  1  0
 11 12  1  6
 11 13  1  0
 13 15  1  0
 14 13  2  0
 15 16  1  0
 16 17  1  6
 16 21  1  0
 18 17  1  0
 19 23  1  0
 19 18  1  0
 20 19  2  0
 21 24  1  0
 22 21  2  0
M  END
$$$$
