PTE.pdb
     RDKit          3D

 24 24  0  0  1  0  0  0  0  0999 V2000
   17.8236  -14.2309  -17.1260 N   0  0  0  0  0  0  0  0  0  0  0  0
   17.5311  -15.3739  -16.2707 C   0  0  0  0  0  0  0  0  0  0  0  0
   17.5618  -14.8969  -14.8563 C   0  0  0  0  0  0  0  0  0  0  0  0
   18.2434  -13.5435  -14.9862 C   0  0  0  0  0  0  0  0  0  0  0  0
   17.6716  -13.0789  -16.2995 C   0  0  1  0  0  0  0  0  0  0  0  0
   18.2740  -11.8546  -16.8439 C   0  0  0  0  0  0  0  0  0  0  0  0
   19.3960  -11.9404  -17.4087 O   0  0  0  0  0  0  0  0  0  0  0  0
   17.4067   -9.9059  -19.6108 C   0  0  0  0  0  0  0  0  0  0  0  0
   17.3562   -8.9542  -18.4610 C   0  0  1  0  0  0  0  0  0  0  0  0
   16.0314   -9.0586  -17.9470 O   0  0  0  0  0  0  0  0  0  0  0  0
   18.3231   -9.3592  -17.3370 C   0  0  2  0  0  0  0  0  0  0  0  0
   17.6901  -10.5698  -16.7842 N   0  0  0  0  0  0  0  0  0  0  0  0
   18.2936   -8.2773  -16.3294 C   0  0  0  0  0  0  0  0  0  0  0  0
   17.3334   -8.2648  -15.4819 O   0  0  0  0  0  0  0  0  0  0  0  0
   19.2262   -7.2556  -16.2101 N   0  0  0  0  0  0  0  0  0  0  0  0
   19.1253   -6.1784  -15.2149 C   0  0  1  0  0  0  0  0  0  0  0  0
   20.5402   -5.9192  -14.7714 C   0  0  0  0  0  0  0  0  0  0  0  0
   20.7276   -4.7743  -13.8441 C   0  0  0  0  0  0  0  0  0  0  0  0
   22.1259   -4.4681  -13.5052 C   0  0  0  0  0  0  0  0  0  0  0  0
   23.0638   -5.2493  -13.7602 O   0  0  0  0  0  0  0  0  0  0  0  0
   18.5642   -4.9593  -15.8021 C   0  0  0  0  0  0  0  0  0  0  0  0
   18.0032   -4.0802  -15.1177 O   0  0  0  0  0  0  0  0  0  0  0  0
   22.4415   -3.2490  -12.8683 O   0  0  0  0  0  0  0  0  0  0  0  0
   18.6208   -4.6928  -17.1892 O   0  0  0  0  0  0  0  0  0  0  0  0
  1  2  1  0
  3  2  1  0
  4  3  1  0
  4  5  1  0
  5  1  1  0
  6 12  1  0
  5  6  1  6
  7  6  2  0
  9  8  1  6
  9 11  1  0
 10  9  1  0
 11 12  1  1
 11 13  1  0
 13 15  1  0
 14 13  2  0
 15 16  1  0
 16 17  1  6
 16 21  1  0
 18 17  1  0
 19 23  1  0
 19 18  1  0
 20 19  2  0
 21 24  1  0
 22 21  2  0
M  END
$$$$
