PTE.pdb
     RDKit          3D

 24 24  0  0  1  0  0  0  0  0999 V2000
   25.1103  -12.8325  -15.4564 N   0  0  0  0  0  0  0  0  0  0  0  0
   25.7946  -14.1103  -15.3062 C   0  0  0  0  0  0  0  0  0  0  0  0
   25.1804  -15.0660  -16.2749 C   0  0  0  0  0  0  0  0  0  0  0  0
   23.9044  -14.3431  -16.6774 C   0  0  0  0  0  0  0  0  0  0  0  0
   24.3928  -12.9187  -16.6856 C   0  0  1  0  0  0  0  0  0  0  0  0
   23.3463  -11.9014  -16.8530 C   0  0  0  0  0  0  0  0  0  0  0  0
   22.8272  -11.7592  -17.9913 O   0  0  0  0  0  0  0  0  0  0  0  0
   20.0287  -11.6955  -15.6505 C   0  0  0  0  0  0  0  0  0  0  0  0
   20.7002  -10.4682  -15.1282 C   0  0  1  0  0  0  0  0  0  0  0  0
   21.2676  -10.8547  -13.8797 O   0  0  0  0  0  0  0  0  0  0  0  0
   21.8509  -10.0111  -16.0389 C   0  0  2  0  0  0  0  0  0  0  0  0
   22.8678  -11.0563  -15.8273 N   0  0  0  0  0  0  0  0  0  0  0  0
   22.3416   -8.7229  -15.5036 C   0  0  0  0  0  0  0  0  0  0  0  0
   23.2286   -8.7493  -14.5801 O   0  0  0  0  0  0  0  0  0  0  0  0
   21.9268   -7.4636  -15.9156 N   0  0  0  0  0  0  0  0  0  0  0  0
   22.3767   -6.2151  -15.2834 C   0  0  1  0  0  0  0  0  0  0  0  0
   21.9969   -5.1258  -16.2504 C   0  0  0  0  0  0  0  0  0  0  0  0
   22.2889   -3.7382  -15.8084 C   0  0  0  0  0  0  0  0  0  0  0  0
   21.8893   -2.6849  -16.7541 C   0  0  0  0  0  0  0  0  0  0  0  0
   21.3850   -2.9386  -17.8660 O   0  0  0  0  0  0  0  0  0  0  0  0
   21.7017   -5.9913  -14.0026 C   0  0  0  0  0  0  0  0  0  0  0  0
   20.6218   -6.5407  -13.7070 O   0  0  0  0  0  0  0  0  0  0  0  0
   22.0730   -1.3286  -16.4106 O   0  0  0  0  0  0  0  0  0  0  0  0
   22.2298   -5.1354  -13.0092 O   0  0  0  0  0  0  0  0  0  0  0  0
  1  2  1  0
  3  2  1  0
  4  3  1  0
  4  5  1  0
  5  1  1  0
  6 12  1  0
  5  6  1  1
  7  6  2  0
  9  8  1  6
  9 11  1  0
 10  9  1  0
 11 12  1  1
 11 13  1  0
 13 15  1  0
 14 13  2  0
 15 16  1  0
 16 17  1  6
 16 21  1  0
 18 17  1  0
 19 23  1  0
 19 18  1  0
 20 19  2  0
 21 24  1  0
 22 21  2  0
M  END
$$$$
