PTE.pdb
     RDKit          3D

 24 24  0  0  1  0  0  0  0  0999 V2000
   18.2392  -13.1327  -15.2749 N   0  0  0  0  0  0  0  0  0  0  0  0
   17.6015  -14.4429  -15.2549 C   0  0  0  0  0  0  0  0  0  0  0  0
   18.1166  -15.2119  -16.4263 C   0  0  0  0  0  0  0  0  0  0  0  0
   18.7677  -14.1240  -17.2663 C   0  0  0  0  0  0  0  0  0  0  0  0
   19.3347  -13.2483  -16.1803 C   0  0  1  0  0  0  0  0  0  0  0  0
   19.8854  -11.9654  -16.6375 C   0  0  0  0  0  0  0  0  0  0  0  0
   20.9973  -11.9684  -17.2281 O   0  0  0  0  0  0  0  0  0  0  0  0
   18.7191   -9.5957  -19.1858 C   0  0  0  0  0  0  0  0  0  0  0  0
   18.7381   -8.8947  -17.8673 C   0  0  1  0  0  0  0  0  0  0  0  0
   17.4821   -9.1953  -17.2657 O   0  0  0  0  0  0  0  0  0  0  0  0
   19.8378   -9.4401  -16.9424 C   0  0  2  0  0  0  0  0  0  0  0  0
   19.2615  -10.7098  -16.4657 N   0  0  0  0  0  0  0  0  0  0  0  0
   19.9622   -8.4941  -15.8126 C   0  0  0  0  0  0  0  0  0  0  0  0
   19.3092   -8.7433  -14.7393 O   0  0  0  0  0  0  0  0  0  0  0  0
   20.7357   -7.3412  -15.8025 N   0  0  0  0  0  0  0  0  0  0  0  0
   20.7373   -6.3760  -14.6938 C   0  0  1  0  0  0  0  0  0  0  0  0
   21.7217   -5.3122  -15.1003 C   0  0  0  0  0  0  0  0  0  0  0  0
   21.8890   -4.1872  -14.1450 C   0  0  0  0  0  0  0  0  0  0  0  0
   22.8731   -3.1698  -14.5452 C   0  0  0  0  0  0  0  0  0  0  0  0
   23.7835   -3.4038  -15.3646 O   0  0  0  0  0  0  0  0  0  0  0  0
   19.4147   -5.7747  -14.5068 C   0  0  0  0  0  0  0  0  0  0  0  0
   18.6689   -5.4806  -15.4623 O   0  0  0  0  0  0  0  0  0  0  0  0
   22.8025   -1.8724  -13.9948 O   0  0  0  0  0  0  0  0  0  0  0  0
   18.8895   -5.4864  -13.2265 O   0  0  0  0  0  0  0  0  0  0  0  0
  1  2  1  0
  3  2  1  0
  4  3  1  0
  4  5  1  0
  5  1  1  0
  6 12  1  0
  5  6  1  6
  7  6  2  0
  9  8  1  6
  9 11  1  0
 10  9  1  0
 11 12  1  1
 11 13  1  0
 13 15  1  0
 14 13  2  0
 15 16  1  0
 16 17  1  6
 16 21  1  0
 18 17  1  0
 19 23  1  0
 19 18  1  0
 20 19  2  0
 21 24  1  0
 22 21  2  0
M  END
$$$$
