PTE.pdb
     RDKit          3D

 24 24  0  0  1  0  0  0  0  0999 V2000
   23.5173  -14.8670  -16.4750 N   0  0  0  0  0  0  0  0  0  0  0  0
   24.4482  -15.8603  -15.9548 C   0  0  0  0  0  0  0  0  0  0  0  0
   25.4703  -15.1367  -15.1419 C   0  0  0  0  0  0  0  0  0  0  0  0
   25.2511  -13.6908  -15.5594 C   0  0  0  0  0  0  0  0  0  0  0  0
   23.7538  -13.6808  -15.7198 C   0  0  1  0  0  0  0  0  0  0  0  0
   23.1985  -12.4582  -16.3158 C   0  0  0  0  0  0  0  0  0  0  0  0
   23.4511  -12.2145  -17.5249 O   0  0  0  0  0  0  0  0  0  0  0  0
   19.8118  -11.6629  -17.0114 C   0  0  0  0  0  0  0  0  0  0  0  0
   20.2976  -10.5679  -16.1197 C   0  0  1  0  0  0  0  0  0  0  0  0
   20.0705  -11.0369  -14.7936 O   0  0  0  0  0  0  0  0  0  0  0  0
   21.8079  -10.3282  -16.2746 C   0  0  2  0  0  0  0  0  0  0  0  0
   22.3934  -11.5191  -15.6338 N   0  0  0  0  0  0  0  0  0  0  0  0
   22.1387   -9.1235  -15.4835 C   0  0  0  0  0  0  0  0  0  0  0  0
   22.5545   -9.2827  -14.2826 O   0  0  0  0  0  0  0  0  0  0  0  0
   22.0424   -7.8113  -15.9270 N   0  0  0  0  0  0  0  0  0  0  0  0
   22.4123   -6.6493  -15.1063 C   0  0  1  0  0  0  0  0  0  0  0  0
   22.3157   -5.4669  -16.0329 C   0  0  0  0  0  0  0  0  0  0  0  0
   22.6207   -4.1450  -15.4282 C   0  0  0  0  0  0  0  0  0  0  0  0
   22.4508   -2.9933  -16.3274 C   0  0  0  0  0  0  0  0  0  0  0  0
   22.8341   -3.0072  -17.5140 O   0  0  0  0  0  0  0  0  0  0  0  0
   21.4867   -6.4706  -13.9850 C   0  0  0  0  0  0  0  0  0  0  0  0
   21.8382   -5.9750  -12.8957 O   0  0  0  0  0  0  0  0  0  0  0  0
   21.8319   -1.8180  -15.8510 O   0  0  0  0  0  0  0  0  0  0  0  0
   20.1263   -6.8473  -14.0602 O   0  0  0  0  0  0  0  0  0  0  0  0
  1  2  1  0
  3  2  1  0
  4  3  1  0
  4  5  1  0
  5  1  1  0
  6 12  1  0
  5  6  1  6
  7  6  2  0
  9  8  1  6
  9 11  1  0
 10  9  1  0
 11 12  1  1
 11 13  1  0
 13 15  1  0
 14 13  2  0
 15 16  1  0
 16 17  1  6
 16 21  1  0
 18 17  1  0
 19 23  1  0
 19 18  1  0
 20 19  2  0
 21 24  1  0
 22 21  2  0
M  END
$$$$
