PTE.pdb
     RDKit          3D

 24 24  0  0  1  0  0  0  0  0999 V2000
   20.5377  -12.0722  -18.8834 N   0  0  0  0  0  0  0  0  0  0  0  0
   20.0724  -13.2400  -19.6205 C   0  0  0  0  0  0  0  0  0  0  0  0
   19.4367  -14.1678  -18.6387 C   0  0  0  0  0  0  0  0  0  0  0  0
   19.9151  -13.6078  -17.3081 C   0  0  0  0  0  0  0  0  0  0  0  0
   19.8933  -12.1333  -17.6129 C   0  0  1  0  0  0  0  0  0  0  0  0
   20.4937  -11.2746  -16.5832 C   0  0  0  0  0  0  0  0  0  0  0  0
   19.8996  -11.1603  -15.4790 O   0  0  0  0  0  0  0  0  0  0  0  0
   24.0565  -11.5519  -15.3520 C   0  0  0  0  0  0  0  0  0  0  0  0
   23.8039  -10.1394  -15.7657 C   0  0  1  0  0  0  0  0  0  0  0  0
   24.1574  -10.0845  -17.1448 O   0  0  0  0  0  0  0  0  0  0  0  0
   22.3176   -9.7647  -15.6526 C   0  0  2  0  0  0  0  0  0  0  0  0
   21.7000  -10.5550  -16.7322 N   0  0  0  0  0  0  0  0  0  0  0  0
   22.2091   -8.3235  -15.9657 C   0  0  0  0  0  0  0  0  0  0  0  0
   22.2756   -7.9636  -17.1930 O   0  0  0  0  0  0  0  0  0  0  0  0
   22.0362   -7.3039  -15.0393 N   0  0  0  0  0  0  0  0  0  0  0  0
   21.9570   -5.8822  -15.4043 C   0  0  1  0  0  0  0  0  0  0  0  0
   20.5156   -5.6505  -15.7716 C   0  0  0  0  0  0  0  0  0  0  0  0
   20.1751   -4.2751  -16.2170 C   0  0  0  0  0  0  0  0  0  0  0  0
   18.7729   -4.0774  -16.6153 C   0  0  0  0  0  0  0  0  0  0  0  0
   17.9383   -5.0039  -16.6120 O   0  0  0  0  0  0  0  0  0  0  0  0
   22.3205   -5.0200  -14.2772 C   0  0  0  0  0  0  0  0  0  0  0  0
   22.3310   -5.4246  -13.0974 O   0  0  0  0  0  0  0  0  0  0  0  0
   18.3330   -2.7988  -17.0187 O   0  0  0  0  0  0  0  0  0  0  0  0
   22.6873   -3.6656  -14.4489 O   0  0  0  0  0  0  0  0  0  0  0  0
  1  2  1  0
  3  2  1  0
  4  3  1  0
  4  5  1  0
  5  1  1  0
  6 12  1  0
  5  6  1  1
  7  6  2  0
  9  8  1  6
  9 11  1  0
 10  9  1  0
 11 12  1  6
 11 13  1  0
 13 15  1  0
 14 13  2  0
 15 16  1  0
 16 17  1  1
 16 21  1  0
 18 17  1  0
 19 23  1  0
 19 18  1  0
 20 19  2  0
 21 24  1  0
 22 21  2  0
M  END
$$$$
