TAY.pdb
     RDKit          3D

 25 25  0  0  1  0  0  0  0  0999 V2000
    7.7206  -12.9469   17.2225 C   0  0  0  0  0  0  0  0  0  0  0  0
    7.8704  -14.1639   18.0813 C   0  0  1  0  0  0  0  0  0  0  0  0
    8.0751  -15.3167   17.3326 O   0  0  0  0  0  0  0  0  0  0  0  0
    9.0354  -13.9602   19.0296 C   0  0  2  0  0  0  0  0  0  0  0  0
   10.2959  -13.8825   18.3567 N   0  0  0  0  0  0  0  0  0  0  0  0
    9.0317  -15.0798   19.9891 C   0  0  0  0  0  0  0  0  0  0  0  0
    8.0263  -15.2366   20.7503 O   0  0  0  0  0  0  0  0  0  0  0  0
   11.2790  -17.8938   20.9967 C   0  0  0  0  0  0  0  0  0  0  0  0
   10.0889  -16.9568   21.1729 C   0  0  2  0  0  0  0  0  0  0  0  0
   10.0989  -16.0070   20.1159 N   0  0  0  0  0  0  0  0  0  0  0  0
   10.1533  -16.3455   22.5216 C   0  0  0  0  0  0  0  0  0  0  0  0
   11.1049  -15.6617   22.9416 O   0  0  0  0  0  0  0  0  0  0  0  0
    6.3605  -11.3610   28.5144 O   0  0  0  0  0  0  0  0  0  0  0  0
    6.6904  -12.2217   27.4812 C   0  0  0  0  0  0  0  0  0  0  0  0
    5.7802  -13.1491   27.0352 C   0  0  0  0  0  0  0  0  0  0  0  0
    6.0720  -14.0195   26.0123 C   0  0  0  0  0  0  0  0  0  0  0  0
    7.3119  -13.9646   25.4132 C   0  0  0  0  0  0  0  0  0  0  0  0
    7.7423  -14.8342   24.3248 C   0  0  0  0  0  0  0  0  0  0  0  0
    8.8537  -15.7783   24.6248 C   0  0  2  0  0  0  0  0  0  0  0  0
    9.0527  -16.5564   23.3913 N   0  0  0  0  0  0  0  0  0  0  0  0
    8.5008  -16.6777   25.7474 C   0  0  0  0  0  0  0  0  0  0  0  0
    8.9615  -16.4470   27.0293 O   0  0  0  0  0  0  0  0  0  0  0  0
    8.2149  -13.0207   25.8796 C   0  0  0  0  0  0  0  0  0  0  0  0
    7.9276  -12.1459   26.9045 C   0  0  0  0  0  0  0  0  0  0  0  0
    7.7690  -17.6751   25.5467 O   0  0  0  0  0  0  0  0  0  0  0  0
  2  4  1  0
  2  1  1  6
  3  2  1  0
  4  6  1  0
  4  5  1  6
  6 10  1  0
  6  7  2  0
  9  8  1  6
  9 11  1  0
 10  9  1  0
 11 12  2  0
 13 14  1  0
 14 15  2  0
 15 16  1  0
 17 18  1  0
 17 16  2  0
 19 18  1  6
 19 21  1  0
 20 19  1  0
 20 11  1  0
 21 22  1  0
 23 17  1  0
 24 23  2  0
 24 14  1  0
 25 21  2  0
M  END
$$$$
