TAY.pdb
     RDKit          3D

 25 25  0  0  1  0  0  0  0  0999 V2000
   10.3253  -13.4299   20.0772 C   0  0  0  0  0  0  0  0  0  0  0  0
    8.9726  -12.8853   19.7383 C   0  0  1  0  0  0  0  0  0  0  0  0
    9.0147  -11.9902   18.6760 O   0  0  0  0  0  0  0  0  0  0  0  0
    8.0470  -14.0363   19.3966 C   0  0  2  0  0  0  0  0  0  0  0  0
    6.7466  -13.6036   18.9852 N   0  0  0  0  0  0  0  0  0  0  0  0
    7.9498  -14.9002   20.5875 C   0  0  0  0  0  0  0  0  0  0  0  0
    7.2160  -14.5330   21.5578 O   0  0  0  0  0  0  0  0  0  0  0  0
    8.9709  -18.3315   21.6092 C   0  0  0  0  0  0  0  0  0  0  0  0
    8.4626  -16.9213   21.8891 C   0  0  2  0  0  0  0  0  0  0  0  0
    8.6365  -16.1356   20.7179 N   0  0  0  0  0  0  0  0  0  0  0  0
    9.1678  -16.3824   23.0762 C   0  0  0  0  0  0  0  0  0  0  0  0
   10.2491  -15.7668   23.0354 O   0  0  0  0  0  0  0  0  0  0  0  0
    5.9060  -10.5668   26.0869 O   0  0  0  0  0  0  0  0  0  0  0  0
    6.4423  -11.8394   26.1870 C   0  0  0  0  0  0  0  0  0  0  0  0
    7.7937  -12.0092   26.3667 C   0  0  0  0  0  0  0  0  0  0  0  0
    8.3617  -13.2565   26.4703 C   0  0  0  0  0  0  0  0  0  0  0  0
    7.5568  -14.3725   26.3925 C   0  0  0  0  0  0  0  0  0  0  0  0
    8.0383  -15.7458   26.4834 C   0  0  0  0  0  0  0  0  0  0  0  0
    9.1777  -16.1133   25.5984 C   0  0  2  0  0  0  0  0  0  0  0  0
    8.5663  -16.5840   24.3449 N   0  0  0  0  0  0  0  0  0  0  0  0
    9.9981  -17.1875   26.2040 C   0  0  0  0  0  0  0  0  0  0  0  0
   10.0253  -18.4621   25.6716 O   0  0  0  0  0  0  0  0  0  0  0  0
    6.1957  -14.1774   26.2109 C   0  0  0  0  0  0  0  0  0  0  0  0
    5.6212  -12.9295   26.1064 C   0  0  0  0  0  0  0  0  0  0  0  0
   10.6888  -16.9514   27.2227 O   0  0  0  0  0  0  0  0  0  0  0  0
  2  4  1  0
  2  1  1  6
  3  2  1  0
  4  6  1  0
  4  5  1  1
  6 10  1  0
  6  7  2  0
  9  8  1  6
  9 11  1  0
 10  9  1  0
 11 12  2  0
 13 14  1  0
 14 15  2  0
 15 16  1  0
 17 18  1  0
 17 16  2  0
 19 18  1  1
 19 21  1  0
 20 19  1  0
 20 11  1  0
 21 22  1  0
 23 17  1  0
 24 23  2  0
 24 14  1  0
 25 21  2  0
M  END
$$$$
