TAY.pdb
     RDKit          3D

 25 25  0  0  1  0  0  0  0  0999 V2000
   10.0302  -12.9424   20.3173 C   0  0  0  0  0  0  0  0  0  0  0  0
    8.6783  -12.8585   19.6797 C   0  0  1  0  0  0  0  0  0  0  0  0
    8.6664  -12.0142   18.5759 O   0  0  0  0  0  0  0  0  0  0  0  0
    8.2413  -14.2484   19.2613 C   0  0  2  0  0  0  0  0  0  0  0  0
    6.9659  -14.2609   18.6126 N   0  0  0  0  0  0  0  0  0  0  0  0
    8.2123  -15.0909   20.4711 C   0  0  0  0  0  0  0  0  0  0  0  0
    7.2466  -14.9651   21.2875 O   0  0  0  0  0  0  0  0  0  0  0  0
    9.8179  -18.1949   21.6518 C   0  0  0  0  0  0  0  0  0  0  0  0
    9.0462  -16.9044   21.9056 C   0  0  2  0  0  0  0  0  0  0  0  0
    9.2126  -16.0481   20.7838 N   0  0  0  0  0  0  0  0  0  0  0  0
    9.5104  -16.3092   23.1813 C   0  0  0  0  0  0  0  0  0  0  0  0
   10.4301  -15.4758   23.2777 O   0  0  0  0  0  0  0  0  0  0  0  0
    6.2176  -10.7218   26.3645 O   0  0  0  0  0  0  0  0  0  0  0  0
    6.6672  -12.0312   26.3841 C   0  0  0  0  0  0  0  0  0  0  0  0
    6.1043  -12.9692   25.5531 C   0  0  0  0  0  0  0  0  0  0  0  0
    6.5244  -14.2778   25.5446 C   0  0  0  0  0  0  0  0  0  0  0  0
    7.5395  -14.6656   26.3924 C   0  0  0  0  0  0  0  0  0  0  0  0
    8.0693  -16.0212   26.4804 C   0  0  0  0  0  0  0  0  0  0  0  0
    9.3116  -16.3033   25.7100 C   0  0  2  0  0  0  0  0  0  0  0  0
    8.8593  -16.7199   24.3727 N   0  0  0  0  0  0  0  0  0  0  0  0
   10.0988  -17.3851   26.3454 C   0  0  0  0  0  0  0  0  0  0  0  0
   10.8742  -17.1516   27.4648 O   0  0  0  0  0  0  0  0  0  0  0  0
    8.0929  -13.7021   27.2226 C   0  0  0  0  0  0  0  0  0  0  0  0
    7.6756  -12.3891   27.2350 C   0  0  0  0  0  0  0  0  0  0  0  0
   10.0722  -18.5439   25.8690 O   0  0  0  0  0  0  0  0  0  0  0  0
  2  4  1  0
  2  1  1  6
  3  2  1  0
  4  6  1  0
  4  5  1  1
  6 10  1  0
  6  7  2  0
  9  8  1  6
  9 11  1  0
 10  9  1  0
 11 12  2  0
 13 14  1  0
 14 15  2  0
 15 16  1  0
 17 18  1  0
 17 16  2  0
 19 18  1  1
 19 21  1  0
 20 19  1  0
 20 11  1  0
 21 22  1  0
 23 17  1  0
 24 23  2  0
 24 14  1  0
 25 21  2  0
M  END
$$$$
