TAY.pdb
     RDKit          3D

 25 25  0  0  1  0  0  0  0  0999 V2000
    9.8744  -13.9288   16.8064 C   0  0  0  0  0  0  0  0  0  0  0  0
    9.5024  -14.3424   18.1963 C   0  0  1  0  0  0  0  0  0  0  0  0
   10.2786  -13.7110   19.1608 O   0  0  0  0  0  0  0  0  0  0  0  0
    8.0394  -14.0236   18.4327 C   0  0  2  0  0  0  0  0  0  0  0  0
    7.7532  -12.6238   18.3537 N   0  0  0  0  0  0  0  0  0  0  0  0
    7.6765  -14.5495   19.7615 C   0  0  0  0  0  0  0  0  0  0  0  0
    7.5242  -13.7365   20.7262 O   0  0  0  0  0  0  0  0  0  0  0  0
    6.9578  -17.8618   21.3432 C   0  0  0  0  0  0  0  0  0  0  0  0
    7.2129  -16.3584   21.3600 C   0  0  2  0  0  0  0  0  0  0  0  0
    7.4840  -15.9294   20.0327 N   0  0  0  0  0  0  0  0  0  0  0  0
    8.3092  -16.0671   22.3141 C   0  0  0  0  0  0  0  0  0  0  0  0
    9.4881  -15.8386   21.9859 O   0  0  0  0  0  0  0  0  0  0  0  0
    5.9099  -10.4613   26.3279 O   0  0  0  0  0  0  0  0  0  0  0  0
    6.4705  -11.7248   26.2478 C   0  0  0  0  0  0  0  0  0  0  0  0
    5.7445  -12.8295   26.6218 C   0  0  0  0  0  0  0  0  0  0  0  0
    6.2675  -14.0988   26.5559 C   0  0  0  0  0  0  0  0  0  0  0  0
    7.5571  -14.2741   26.1024 C   0  0  0  0  0  0  0  0  0  0  0  0
    8.2247  -15.5656   25.9907 C   0  0  0  0  0  0  0  0  0  0  0  0
    8.9973  -15.8115   24.7421 C   0  0  2  0  0  0  0  0  0  0  0  0
    7.9893  -16.0480   23.6959 N   0  0  0  0  0  0  0  0  0  0  0  0
    9.8769  -16.9947   24.8837 C   0  0  0  0  0  0  0  0  0  0  0  0
   11.1057  -16.9097   25.5096 O   0  0  0  0  0  0  0  0  0  0  0  0
    8.2714  -13.1449   25.7304 C   0  0  0  0  0  0  0  0  0  0  0  0
    7.7520  -11.8704   25.7944 C   0  0  0  0  0  0  0  0  0  0  0  0
    9.5134  -18.1052   24.4308 O   0  0  0  0  0  0  0  0  0  0  0  0
  2  4  1  0
  2  1  1  6
  3  2  1  0
  4  6  1  0
  4  5  1  1
  6 10  1  0
  6  7  2  0
  9  8  1  6
  9 11  1  0
 10  9  1  0
 11 12  2  0
 13 14  1  0
 14 15  2  0
 15 16  1  0
 17 18  1  0
 17 16  2  0
 19 18  1  1
 19 21  1  0
 20 19  1  0
 20 11  1  0
 21 22  1  0
 23 17  1  0
 24 23  2  0
 24 14  1  0
 25 21  2  0
M  END
$$$$
