TAY.pdb
     RDKit          3D

 25 25  0  0  1  0  0  0  0  0999 V2000
    7.1486  -12.7803   18.6730 C   0  0  0  0  0  0  0  0  0  0  0  0
    7.2703  -13.9092   19.6486 C   0  0  1  0  0  0  0  0  0  0  0  0
    7.2898  -15.1493   19.0216 O   0  0  0  0  0  0  0  0  0  0  0  0
    8.5392  -13.7290   20.4583 C   0  0  2  0  0  0  0  0  0  0  0  0
    9.7262  -13.8294   19.6655 N   0  0  0  0  0  0  0  0  0  0  0  0
    8.5407  -14.7520   21.5202 C   0  0  0  0  0  0  0  0  0  0  0  0
    7.5874  -14.7706   22.3602 O   0  0  0  0  0  0  0  0  0  0  0  0
   10.3078  -17.9286   22.2462 C   0  0  0  0  0  0  0  0  0  0  0  0
    9.4253  -16.7506   22.6450 C   0  0  2  0  0  0  0  0  0  0  0  0
    9.5577  -15.7318   21.6632 N   0  0  0  0  0  0  0  0  0  0  0  0
    9.7973  -16.3114   24.0109 C   0  0  0  0  0  0  0  0  0  0  0  0
   10.7647  -15.5743   24.2761 O   0  0  0  0  0  0  0  0  0  0  0  0
    6.5379  -10.8106   26.4364 O   0  0  0  0  0  0  0  0  0  0  0  0
    6.9112  -12.1321   26.6139 C   0  0  0  0  0  0  0  0  0  0  0  0
    6.0643  -13.1471   26.2402 C   0  0  0  0  0  0  0  0  0  0  0  0
    6.4005  -14.4700   26.4009 C   0  0  0  0  0  0  0  0  0  0  0  0
    7.6215  -14.7932   26.9525 C   0  0  0  0  0  0  0  0  0  0  0  0
    8.0911  -16.1551   27.1784 C   0  0  0  0  0  0  0  0  0  0  0  0
    9.3560  -16.5461   26.4977 C   0  0  2  0  0  0  0  0  0  0  0  0
    8.9931  -16.7643   25.0880 N   0  0  0  0  0  0  0  0  0  0  0  0
    9.9139  -17.7876   27.0818 C   0  0  0  0  0  0  0  0  0  0  0  0
    9.8971  -18.9825   26.3885 O   0  0  0  0  0  0  0  0  0  0  0  0
    8.4604  -13.7524   27.3224 C   0  0  0  0  0  0  0  0  0  0  0  0
    8.1283  -12.4248   27.1635 C   0  0  0  0  0  0  0  0  0  0  0  0
   10.4158  -17.7709   28.2301 O   0  0  0  0  0  0  0  0  0  0  0  0
  2  4  1  0
  2  1  1  6
  3  2  1  0
  4  6  1  0
  4  5  1  6
  6 10  1  0
  6  7  2  0
  9  8  1  6
  9 11  1  0
 10  9  1  0
 11 12  2  0
 13 14  1  0
 14 15  2  0
 15 16  1  0
 17 18  1  0
 17 16  2  0
 19 18  1  1
 19 21  1  0
 20 19  1  0
 20 11  1  0
 21 22  1  0
 23 17  1  0
 24 23  2  0
 24 14  1  0
 25 21  2  0
M  END
$$$$
