TAY.pdb
     RDKit          3D

 25 25  0  0  1  0  0  0  0  0999 V2000
    6.8599  -18.7487   23.5851 C   0  0  0  0  0  0  0  0  0  0  0  0
    7.2251  -19.5046   22.3455 C   0  0  1  0  0  0  0  0  0  0  0  0
    6.5851  -20.7359   22.2699 O   0  0  0  0  0  0  0  0  0  0  0  0
    6.8653  -18.6694   21.1325 C   0  0  2  0  0  0  0  0  0  0  0  0
    7.0165  -19.3809   19.9002 N   0  0  0  0  0  0  0  0  0  0  0  0
    7.7241  -17.4710   21.1444 C   0  0  0  0  0  0  0  0  0  0  0  0
    8.9356  -17.5766   20.7756 O   0  0  0  0  0  0  0  0  0  0  0  0
    7.3784  -13.7972   21.4797 C   0  0  0  0  0  0  0  0  0  0  0  0
    8.1788  -15.0924   21.5660 C   0  0  2  0  0  0  0  0  0  0  0  0
    7.2731  -16.1874   21.5488 N   0  0  0  0  0  0  0  0  0  0  0  0
    9.0355  -15.0490   22.7747 C   0  0  0  0  0  0  0  0  0  0  0  0
   10.0292  -14.3112   22.9092 O   0  0  0  0  0  0  0  0  0  0  0  0
    6.0058  -10.7706   26.9490 O   0  0  0  0  0  0  0  0  0  0  0  0
    6.6076  -12.0039   26.7640 C   0  0  0  0  0  0  0  0  0  0  0  0
    7.9703  -12.1337   26.8796 C   0  0  0  0  0  0  0  0  0  0  0  0
    8.6026  -13.3412   26.7029 C   0  0  0  0  0  0  0  0  0  0  0  0
    7.8524  -14.4573   26.4010 C   0  0  0  0  0  0  0  0  0  0  0  0
    8.4043  -15.7898   26.1863 C   0  0  0  0  0  0  0  0  0  0  0  0
    9.4377  -15.9205   25.1226 C   0  0  2  0  0  0  0  0  0  0  0  0
    8.6968  -15.9089   23.8508 N   0  0  0  0  0  0  0  0  0  0  0  0
   10.1922  -17.1871   25.2652 C   0  0  0  0  0  0  0  0  0  0  0  0
   11.0512  -17.3999   26.3262 O   0  0  0  0  0  0  0  0  0  0  0  0
    6.4786  -14.3029   26.2890 C   0  0  0  0  0  0  0  0  0  0  0  0
    5.8399  -13.0949   26.4651 C   0  0  0  0  0  0  0  0  0  0  0  0
   10.0601  -18.0961   24.4127 O   0  0  0  0  0  0  0  0  0  0  0  0
  2  4  1  0
  2  1  1  1
  3  2  1  0
  4  6  1  0
  4  5  1  6
  6 10  1  0
  6  7  2  0
  9  8  1  1
  9 11  1  0
 10  9  1  0
 11 12  2  0
 13 14  1  0
 14 15  2  0
 15 16  1  0
 17 18  1  0
 17 16  2  0
 19 18  1  1
 19 21  1  0
 20 19  1  0
 20 11  1  0
 21 22  1  0
 23 17  1  0
 24 23  2  0
 24 14  1  0
 25 21  2  0
M  END
$$$$
