TAY.pdb
     RDKit          3D

 25 25  0  0  1  0  0  0  0  0999 V2000
    4.9301  -19.7303   22.3680 C   0  0  0  0  0  0  0  0  0  0  0  0
    6.0698  -18.7603   22.4069 C   0  0  1  0  0  0  0  0  0  0  0  0
    7.2307  -19.3296   22.9165 O   0  0  0  0  0  0  0  0  0  0  0  0
    6.3294  -18.2452   21.0050 C   0  0  2  0  0  0  0  0  0  0  0  0
    6.7548  -19.2715   20.1031 N   0  0  0  0  0  0  0  0  0  0  0  0
    7.3513  -17.1866   21.1000 C   0  0  0  0  0  0  0  0  0  0  0  0
    8.5701  -17.4861   20.9008 O   0  0  0  0  0  0  0  0  0  0  0  0
    7.4627  -13.4794   21.2644 C   0  0  0  0  0  0  0  0  0  0  0  0
    8.0895  -14.8622   21.4072 C   0  0  2  0  0  0  0  0  0  0  0  0
    7.0518  -15.8331   21.4049 N   0  0  0  0  0  0  0  0  0  0  0  0
    8.9244  -14.8879   22.6316 C   0  0  0  0  0  0  0  0  0  0  0  0
    9.9379  -14.1873   22.8094 O   0  0  0  0  0  0  0  0  0  0  0  0
    6.0614  -10.7435   27.0907 O   0  0  0  0  0  0  0  0  0  0  0  0
    6.6162  -11.9847   26.8285 C   0  0  0  0  0  0  0  0  0  0  0  0
    7.9663  -12.1864   26.9832 C   0  0  0  0  0  0  0  0  0  0  0  0
    8.5522  -13.4041   26.7325 C   0  0  0  0  0  0  0  0  0  0  0  0
    7.7673  -14.4567   26.3135 C   0  0  0  0  0  0  0  0  0  0  0  0
    8.2692  -15.7921   26.0119 C   0  0  0  0  0  0  0  0  0  0  0  0
    9.2886  -15.8934   24.9317 C   0  0  2  0  0  0  0  0  0  0  0  0
    8.5390  -15.7733   23.6707 N   0  0  0  0  0  0  0  0  0  0  0  0
    9.9958  -17.1937   24.9863 C   0  0  0  0  0  0  0  0  0  0  0  0
    9.8738  -18.1248   23.9730 O   0  0  0  0  0  0  0  0  0  0  0  0
    6.4071  -14.2303   26.1640 C   0  0  0  0  0  0  0  0  0  0  0  0
    5.8147  -13.0117   26.4140 C   0  0  0  0  0  0  0  0  0  0  0  0
   10.7247  -17.4713   25.9672 O   0  0  0  0  0  0  0  0  0  0  0  0
  2  4  1  0
  2  1  1  6
  3  2  1  0
  4  6  1  0
  4  5  1  6
  6 10  1  0
  6  7  2  0
  9  8  1  1
  9 11  1  0
 10  9  1  0
 11 12  2  0
 13 14  1  0
 14 15  2  0
 15 16  1  0
 17 18  1  0
 17 16  2  0
 19 18  1  1
 19 21  1  0
 20 19  1  0
 20 11  1  0
 21 22  1  0
 23 17  1  0
 24 23  2  0
 24 14  1  0
 25 21  2  0
M  END
$$$$
