TAY.pdb
     RDKit          3D

 25 25  0  0  1  0  0  0  0  0999 V2000
    6.1922  -10.7955   25.8757 C   0  0  0  0  0  0  0  0  0  0  0  0
    6.8828  -11.9575   25.2322 C   0  0  1  0  0  0  0  0  0  0  0  0
    7.8455  -12.5237   26.0592 O   0  0  0  0  0  0  0  0  0  0  0  0
    5.8503  -13.0044   24.8632 C   0  0  2  0  0  0  0  0  0  0  0  0
    5.1705  -13.5433   26.0012 N   0  0  0  0  0  0  0  0  0  0  0  0
    6.5438  -14.0744   24.1228 C   0  0  0  0  0  0  0  0  0  0  0  0
    6.9187  -15.1147   24.7489 O   0  0  0  0  0  0  0  0  0  0  0  0
    7.7749  -14.6890   20.6437 C   0  0  0  0  0  0  0  0  0  0  0  0
    7.6416  -15.0043   22.1298 C   0  0  2  0  0  0  0  0  0  0  0  0
    6.8221  -14.0120   22.7323 N   0  0  0  0  0  0  0  0  0  0  0  0
    8.9958  -15.0982   22.7251 C   0  0  0  0  0  0  0  0  0  0  0  0
    9.9485  -14.3523   22.4323 O   0  0  0  0  0  0  0  0  0  0  0  0
   11.9312  -15.9107   30.9975 O   0  0  0  0  0  0  0  0  0  0  0  0
   11.2808  -15.9014   29.7752 C   0  0  0  0  0  0  0  0  0  0  0  0
   10.9800  -14.7105   29.1599 C   0  0  0  0  0  0  0  0  0  0  0  0
   10.3354  -14.6620   27.9469 C   0  0  0  0  0  0  0  0  0  0  0  0
    9.9783  -15.8393   27.3256 C   0  0  0  0  0  0  0  0  0  0  0  0
    9.2888  -15.9200   26.0433 C   0  0  0  0  0  0  0  0  0  0  0  0
   10.1449  -15.9360   24.8254 C   0  0  2  0  0  0  0  0  0  0  0  0
    9.2179  -16.1089   23.6952 N   0  0  0  0  0  0  0  0  0  0  0  0
   11.1141  -17.0551   24.8698 C   0  0  0  0  0  0  0  0  0  0  0  0
   10.7674  -18.3271   24.4566 O   0  0  0  0  0  0  0  0  0  0  0  0
   10.2917  -17.0295   27.9650 C   0  0  0  0  0  0  0  0  0  0  0  0
   10.9377  -17.0838   29.1808 C   0  0  0  0  0  0  0  0  0  0  0  0
   12.2789  -16.8608   25.2894 O   0  0  0  0  0  0  0  0  0  0  0  0
  2  4  1  0
  2  1  1  1
  3  2  1  0
  4  6  1  0
  4  5  1  1
  6 10  1  0
  6  7  2  0
  9  8  1  6
  9 11  1  0
 10  9  1  0
 11 12  2  0
 13 14  1  0
 14 15  2  0
 15 16  1  0
 17 18  1  0
 17 16  2  0
 19 18  1  1
 19 21  1  0
 20 19  1  0
 20 11  1  0
 21 22  1  0
 23 17  1  0
 24 23  2  0
 24 14  1  0
 25 21  2  0
M  END
$$$$
