TAY.pdb
     RDKit          3D

 25 25  0  0  1  0  0  0  0  0999 V2000
    7.1103  -18.7417   22.3699 C   0  0  0  0  0  0  0  0  0  0  0  0
    7.8064  -19.2381   21.1409 C   0  0  1  0  0  0  0  0  0  0  0  0
    7.4029  -20.5200   20.7869 O   0  0  0  0  0  0  0  0  0  0  0  0
    7.5299  -18.2838   19.9959 C   0  0  2  0  0  0  0  0  0  0  0  0
    7.9322  -18.8050   18.7255 N   0  0  0  0  0  0  0  0  0  0  0  0
    8.2387  -17.0233   20.2837 C   0  0  0  0  0  0  0  0  0  0  0  0
    9.4838  -16.9466   20.0417 O   0  0  0  0  0  0  0  0  0  0  0  0
    7.4151  -13.4970   21.0378 C   0  0  0  0  0  0  0  0  0  0  0  0
    8.3613  -14.6928   21.0555 C   0  0  2  0  0  0  0  0  0  0  0  0
    7.6051  -15.8732   20.8226 N   0  0  0  0  0  0  0  0  0  0  0  0
    9.0988  -14.7038   22.3412 C   0  0  0  0  0  0  0  0  0  0  0  0
    9.8893  -13.8152   22.7088 O   0  0  0  0  0  0  0  0  0  0  0  0
    5.7362  -11.1126   26.8016 O   0  0  0  0  0  0  0  0  0  0  0  0
    6.3811  -12.2958   26.4835 C   0  0  0  0  0  0  0  0  0  0  0  0
    7.7302  -12.4306   26.7054 C   0  0  0  0  0  0  0  0  0  0  0  0
    8.4040  -13.5895   26.4024 C   0  0  0  0  0  0  0  0  0  0  0  0
    7.7111  -14.6503   25.8601 C   0  0  0  0  0  0  0  0  0  0  0  0
    8.3113  -15.9273   25.4925 C   0  0  0  0  0  0  0  0  0  0  0  0
    9.4704  -15.8758   24.5598 C   0  0  2  0  0  0  0  0  0  0  0  0
    8.8867  -15.8045   23.2104 N   0  0  0  0  0  0  0  0  0  0  0  0
   10.3140  -17.0862   24.6905 C   0  0  0  0  0  0  0  0  0  0  0  0
   11.1373  -17.2777   25.7833 O   0  0  0  0  0  0  0  0  0  0  0  0
    6.3501  -14.4920   25.6446 C   0  0  0  0  0  0  0  0  0  0  0  0
    5.6698  -13.3325   25.9465 C   0  0  0  0  0  0  0  0  0  0  0  0
   10.2925  -17.9659   23.7981 O   0  0  0  0  0  0  0  0  0  0  0  0
  2  4  1  0
  2  1  1  1
  3  2  1  0
  4  6  1  0
  4  5  1  6
  6 10  1  0
  6  7  2  0
  9  8  1  1
  9 11  1  0
 10  9  1  0
 11 12  2  0
 13 14  1  0
 14 15  2  0
 15 16  1  0
 17 18  1  0
 17 16  2  0
 19 18  1  1
 19 21  1  0
 20 19  1  0
 20 11  1  0
 21 22  1  0
 23 17  1  0
 24 23  2  0
 24 14  1  0
 25 21  2  0
M  END
$$$$
