TAY.pdb
     RDKit          3D

 25 25  0  0  1  0  0  0  0  0999 V2000
    6.8557  -18.4190   22.3105 C   0  0  0  0  0  0  0  0  0  0  0  0
    7.3368  -19.0431   21.0376 C   0  0  1  0  0  0  0  0  0  0  0  0
    6.6937  -20.2439   20.7622 O   0  0  0  0  0  0  0  0  0  0  0  0
    7.1123  -18.0726   19.8948 C   0  0  2  0  0  0  0  0  0  0  0  0
    7.2849  -18.6753   18.6086 N   0  0  0  0  0  0  0  0  0  0  0  0
    8.0540  -16.9515   20.0691 C   0  0  0  0  0  0  0  0  0  0  0  0
    9.3020  -17.1751   19.9833 O   0  0  0  0  0  0  0  0  0  0  0  0
    7.9712  -13.2467   20.3529 C   0  0  0  0  0  0  0  0  0  0  0  0
    8.6212  -14.6106   20.5597 C   0  0  2  0  0  0  0  0  0  0  0  0
    7.6451  -15.6177   20.3308 N   0  0  0  0  0  0  0  0  0  0  0  0
    9.2176  -14.6587   21.9158 C   0  0  0  0  0  0  0  0  0  0  0  0
   10.1939  -13.9785   22.2817 O   0  0  0  0  0  0  0  0  0  0  0  0
    5.6815  -10.7124   26.7401 O   0  0  0  0  0  0  0  0  0  0  0  0
    6.1759  -11.9369   26.3238 C   0  0  0  0  0  0  0  0  0  0  0  0
    5.5924  -13.1028   26.7568 C   0  0  0  0  0  0  0  0  0  0  0  0
    6.0554  -14.3361   26.3649 C   0  0  0  0  0  0  0  0  0  0  0  0
    7.1361  -14.4110   25.5129 C   0  0  0  0  0  0  0  0  0  0  0  0
    7.7220  -15.6558   25.0298 C   0  0  0  0  0  0  0  0  0  0  0  0
    9.0052  -15.5437   24.2834 C   0  0  2  0  0  0  0  0  0  0  0  0
    8.6331  -15.5420   22.8593 N   0  0  0  0  0  0  0  0  0  0  0  0
    9.8960  -16.6893   24.5795 C   0  0  0  0  0  0  0  0  0  0  0  0
   10.1081  -17.6960   23.6573 O   0  0  0  0  0  0  0  0  0  0  0  0
    7.7095  -13.2215   25.0886 C   0  0  0  0  0  0  0  0  0  0  0  0
    7.2493  -11.9827   25.4783 C   0  0  0  0  0  0  0  0  0  0  0  0
   10.4778  -16.7625   25.6871 O   0  0  0  0  0  0  0  0  0  0  0  0
  2  4  1  0
  2  1  1  1
  3  2  1  0
  4  6  1  0
  4  5  1  6
  6 10  1  0
  6  7  2  0
  9  8  1  1
  9 11  1  0
 10  9  1  0
 11 12  2  0
 13 14  1  0
 14 15  2  0
 15 16  1  0
 17 18  1  0
 17 16  2  0
 19 18  1  1
 19 21  1  0
 20 19  1  0
 20 11  1  0
 21 22  1  0
 23 17  1  0
 24 23  2  0
 24 14  1  0
 25 21  2  0
M  END
$$$$
