TAY.pdb
     RDKit          3D

 25 25  0  0  1  0  0  0  0  0999 V2000
    6.6558  -19.7593   18.9939 C   0  0  0  0  0  0  0  0  0  0  0  0
    7.4024  -18.7915   19.8583 C   0  0  1  0  0  0  0  0  0  0  0  0
    8.4398  -19.3982   20.5562 O   0  0  0  0  0  0  0  0  0  0  0  0
    7.9559  -17.6782   18.9910 C   0  0  2  0  0  0  0  0  0  0  0  0
    8.9638  -18.1286   18.0805 N   0  0  0  0  0  0  0  0  0  0  0  0
    8.4980  -16.6407   19.8876 C   0  0  0  0  0  0  0  0  0  0  0  0
    9.6748  -16.7763   20.3475 O   0  0  0  0  0  0  0  0  0  0  0  0
    7.3975  -13.3955   21.3834 C   0  0  0  0  0  0  0  0  0  0  0  0
    8.3037  -14.6165   21.2685 C   0  0  2  0  0  0  0  0  0  0  0  0
    7.7742  -15.4824   20.2739 N   0  0  0  0  0  0  0  0  0  0  0  0
    8.4286  -15.2503   22.6025 C   0  0  0  0  0  0  0  0  0  0  0  0
    7.6745  -16.1421   23.0335 O   0  0  0  0  0  0  0  0  0  0  0  0
    5.5001  -11.0265   27.1387 O   0  0  0  0  0  0  0  0  0  0  0  0
    6.2128  -12.1327   26.7078 C   0  0  0  0  0  0  0  0  0  0  0  0
    7.5864  -12.1111   26.6987 C   0  0  0  0  0  0  0  0  0  0  0  0
    8.3271  -13.1897   26.2781 C   0  0  0  0  0  0  0  0  0  0  0  0
    7.6781  -14.3284   25.8520 C   0  0  0  0  0  0  0  0  0  0  0  0
    8.3494  -15.5335   25.3792 C   0  0  0  0  0  0  0  0  0  0  0  0
    9.7056  -15.3547   24.7917 C   0  0  2  0  0  0  0  0  0  0  0  0
    9.4814  -14.8076   23.4438 N   0  0  0  0  0  0  0  0  0  0  0  0
   10.4246  -16.6469   24.7078 C   0  0  0  0  0  0  0  0  0  0  0  0
   10.8921  -17.2876   25.8391 O   0  0  0  0  0  0  0  0  0  0  0  0
    6.2912  -14.3279   25.8696 C   0  0  0  0  0  0  0  0  0  0  0  0
    5.5439  -13.2496   26.2903 C   0  0  0  0  0  0  0  0  0  0  0  0
   10.6222  -17.1844   23.5930 O   0  0  0  0  0  0  0  0  0  0  0  0
  2  4  1  0
  2  1  1  6
  3  2  1  0
  4  6  1  0
  4  5  1  6
  6 10  1  0
  6  7  2  0
  9  8  1  1
  9 11  1  0
 10  9  1  0
 11 12  2  0
 13 14  1  0
 14 15  2  0
 15 16  1  0
 17 18  1  0
 17 16  2  0
 19 18  1  6
 19 21  1  0
 20 19  1  0
 20 11  1  0
 21 22  1  0
 23 17  1  0
 24 23  2  0
 24 14  1  0
 25 21  2  0
M  END
$$$$
