TAY.pdb
     RDKit          3D

 25 25  0  0  1  0  0  0  0  0999 V2000
    8.4763  -15.8213   14.9274 C   0  0  0  0  0  0  0  0  0  0  0  0
    8.8198  -15.6082   16.3688 C   0  0  1  0  0  0  0  0  0  0  0  0
   10.1775  -15.3818   16.5603 O   0  0  0  0  0  0  0  0  0  0  0  0
    8.0282  -14.4282   16.8971 C   0  0  2  0  0  0  0  0  0  0  0  0
    8.3750  -13.1940   16.2615 N   0  0  0  0  0  0  0  0  0  0  0  0
    8.2665  -14.3445   18.3497 C   0  0  0  0  0  0  0  0  0  0  0  0
    9.3366  -13.8024   18.7691 O   0  0  0  0  0  0  0  0  0  0  0  0
    6.4826  -15.2064   21.5193 C   0  0  0  0  0  0  0  0  0  0  0  0
    7.6933  -14.7683   20.7022 C   0  0  2  0  0  0  0  0  0  0  0  0
    7.3597  -14.8401   19.3227 N   0  0  0  0  0  0  0  0  0  0  0  0
    8.8560  -15.6078   21.0767 C   0  0  0  0  0  0  0  0  0  0  0  0
    9.2495  -16.5966   20.4309 O   0  0  0  0  0  0  0  0  0  0  0  0
   14.2565  -14.4519   17.7424 O   0  0  0  0  0  0  0  0  0  0  0  0
   13.6753  -14.6469   18.9840 C   0  0  0  0  0  0  0  0  0  0  0  0
   14.1492  -15.6248   19.8245 C   0  0  0  0  0  0  0  0  0  0  0  0
   13.5979  -15.8474   21.0637 C   0  0  0  0  0  0  0  0  0  0  0  0
   12.5389  -15.0699   21.4801 C   0  0  0  0  0  0  0  0  0  0  0  0
   11.8668  -15.2105   22.7664 C   0  0  0  0  0  0  0  0  0  0  0  0
   10.6593  -16.0808   22.7967 C   0  0  2  0  0  0  0  0  0  0  0  0
    9.5671  -15.2573   22.2529 N   0  0  0  0  0  0  0  0  0  0  0  0
   10.3424  -16.5048   24.1799 C   0  0  0  0  0  0  0  0  0  0  0  0
   11.1214  -17.4300   24.8477 O   0  0  0  0  0  0  0  0  0  0  0  0
   12.0768  -14.0889   20.6152 C   0  0  0  0  0  0  0  0  0  0  0  0
   12.6258  -13.8616   19.3722 C   0  0  0  0  0  0  0  0  0  0  0  0
    9.3483  -16.0234   24.7721 O   0  0  0  0  0  0  0  0  0  0  0  0
  2  4  1  0
  2  1  1  6
  3  2  1  0
  4  6  1  0
  4  5  1  6
  6 10  1  0
  6  7  2  0
  9  8  1  1
  9 11  1  0
 10  9  1  0
 11 12  2  0
 13 14  1  0
 14 15  2  0
 15 16  1  0
 17 18  1  0
 17 16  2  0
 19 18  1  1
 19 21  1  0
 20 19  1  0
 20 11  1  0
 21 22  1  0
 23 17  1  0
 24 23  2  0
 24 14  1  0
 25 21  2  0
M  END
$$$$
