TAY.pdb
     RDKit          3D

 25 25  0  0  1  0  0  0  0  0999 V2000
    8.1287  -12.7196   19.8284 C   0  0  0  0  0  0  0  0  0  0  0  0
    8.4052  -13.5904   21.0144 C   0  0  1  0  0  0  0  0  0  0  0  0
    7.9121  -13.0473   22.1948 O   0  0  0  0  0  0  0  0  0  0  0  0
    7.7833  -14.9535   20.7833 C   0  0  2  0  0  0  0  0  0  0  0  0
    6.3666  -14.8952   20.5903 N   0  0  0  0  0  0  0  0  0  0  0  0
    8.1105  -15.7971   21.9475 C   0  0  0  0  0  0  0  0  0  0  0  0
    7.2513  -15.9293   22.8744 O   0  0  0  0  0  0  0  0  0  0  0  0
   10.7235  -18.2072   23.0188 C   0  0  0  0  0  0  0  0  0  0  0  0
    9.6169  -17.1952   23.2959 C   0  0  2  0  0  0  0  0  0  0  0  0
    9.3453  -16.4807   22.0979 N   0  0  0  0  0  0  0  0  0  0  0  0
   10.0298  -16.3276   24.4244 C   0  0  0  0  0  0  0  0  0  0  0  0
   10.6676  -15.2656   24.3014 O   0  0  0  0  0  0  0  0  0  0  0  0
    6.1367  -11.0825   25.9927 O   0  0  0  0  0  0  0  0  0  0  0  0
    6.8320  -12.2037   26.4132 C   0  0  0  0  0  0  0  0  0  0  0  0
    8.1465  -12.0993   26.7986 C   0  0  0  0  0  0  0  0  0  0  0  0
    8.8682  -13.1897   27.2217 C   0  0  0  0  0  0  0  0  0  0  0  0
    8.2605  -14.4260   27.2626 C   0  0  0  0  0  0  0  0  0  0  0  0
    8.9187  -15.6560   27.6870 C   0  0  0  0  0  0  0  0  0  0  0  0
   10.1474  -16.0464   26.9426 C   0  0  2  0  0  0  0  0  0  0  0  0
    9.6717  -16.7388   25.7339 N   0  0  0  0  0  0  0  0  0  0  0  0
   10.9960  -16.9512   27.7517 C   0  0  0  0  0  0  0  0  0  0  0  0
   11.7272  -16.4851   28.8273 O   0  0  0  0  0  0  0  0  0  0  0  0
    6.9331  -14.5080   26.8689 C   0  0  0  0  0  0  0  0  0  0  0  0
    6.2050  -13.4182   26.4440 C   0  0  0  0  0  0  0  0  0  0  0  0
   11.0638  -18.1699   27.4673 O   0  0  0  0  0  0  0  0  0  0  0  0
  2  4  1  0
  2  1  1  6
  3  2  1  0
  4  6  1  0
  4  5  1  1
  6 10  1  0
  6  7  2  0
  9  8  1  6
  9 11  1  0
 10  9  1  0
 11 12  2  0
 13 14  1  0
 14 15  2  0
 15 16  1  0
 17 18  1  0
 17 16  2  0
 19 18  1  1
 19 21  1  0
 20 19  1  0
 20 11  1  0
 21 22  1  0
 23 17  1  0
 24 23  2  0
 24 14  1  0
 25 21  2  0
M  END
$$$$
