TAY.pdb
     RDKit          3D

 25 25  0  0  1  0  0  0  0  0999 V2000
    5.5916  -19.4527   20.9838 C   0  0  0  0  0  0  0  0  0  0  0  0
    6.6494  -18.4040   21.1340 C   0  0  1  0  0  0  0  0  0  0  0  0
    7.8526  -18.9291   21.5898 O   0  0  0  0  0  0  0  0  0  0  0  0
    6.8657  -17.7241   19.7965 C   0  0  2  0  0  0  0  0  0  0  0  0
    7.3701  -18.6120   18.7941 N   0  0  0  0  0  0  0  0  0  0  0  0
    7.8007  -16.6042   20.0105 C   0  0  0  0  0  0  0  0  0  0  0  0
    9.0339  -16.7726   19.7542 O   0  0  0  0  0  0  0  0  0  0  0  0
    7.6904  -12.9579   20.6177 C   0  0  0  0  0  0  0  0  0  0  0  0
    8.3744  -14.3179   20.7073 C   0  0  2  0  0  0  0  0  0  0  0  0
    7.4008  -15.3305   20.4926 N   0  0  0  0  0  0  0  0  0  0  0  0
    9.0639  -14.4244   22.0151 C   0  0  0  0  0  0  0  0  0  0  0  0
    9.9899  -13.6802   22.3872 O   0  0  0  0  0  0  0  0  0  0  0  0
    6.0128  -10.8136   27.0174 O   0  0  0  0  0  0  0  0  0  0  0  0
    6.5438  -12.0108   26.5679 C   0  0  0  0  0  0  0  0  0  0  0  0
    7.8995  -12.1436   26.3898 C   0  0  0  0  0  0  0  0  0  0  0  0
    8.4624  -13.3160   25.9454 C   0  0  0  0  0  0  0  0  0  0  0  0
    7.6478  -14.3929   25.6690 C   0  0  0  0  0  0  0  0  0  0  0  0
    8.1221  -15.6854   25.1888 C   0  0  0  0  0  0  0  0  0  0  0  0
    9.2526  -15.6633   24.2204 C   0  0  2  0  0  0  0  0  0  0  0  0
    8.6365  -15.4461   22.9014 N   0  0  0  0  0  0  0  0  0  0  0  0
    9.9929  -16.9461   24.2359 C   0  0  0  0  0  0  0  0  0  0  0  0
    9.9699  -17.8058   23.1546 O   0  0  0  0  0  0  0  0  0  0  0  0
    6.2824  -14.2362   25.8559 C   0  0  0  0  0  0  0  0  0  0  0  0
    5.7130  -13.0633   26.3012 C   0  0  0  0  0  0  0  0  0  0  0  0
   10.6596  -17.2742   25.2450 O   0  0  0  0  0  0  0  0  0  0  0  0
  2  4  1  0
  2  1  1  6
  3  2  1  0
  4  6  1  0
  4  5  1  6
  6 10  1  0
  6  7  2  0
  9  8  1  1
  9 11  1  0
 10  9  1  0
 11 12  2  0
 13 14  1  0
 14 15  2  0
 15 16  1  0
 17 18  1  0
 17 16  2  0
 19 18  1  1
 19 21  1  0
 20 19  1  0
 20 11  1  0
 21 22  1  0
 23 17  1  0
 24 23  2  0
 24 14  1  0
 25 21  2  0
M  END
$$$$
