TAY.pdb
     RDKit          3D

 25 25  0  0  1  0  0  0  0  0999 V2000
    5.5469  -19.1742   20.2005 C   0  0  0  0  0  0  0  0  0  0  0  0
    6.5918  -18.1627   20.5558 C   0  0  1  0  0  0  0  0  0  0  0  0
    7.6988  -18.7393   21.1671 O   0  0  0  0  0  0  0  0  0  0  0  0
    7.0264  -17.4372   19.2977 C   0  0  2  0  0  0  0  0  0  0  0  0
    7.6682  -18.2971   18.3510 N   0  0  0  0  0  0  0  0  0  0  0  0
    7.9334  -16.3470   19.7013 C   0  0  0  0  0  0  0  0  0  0  0  0
    9.1875  -16.5097   19.5763 O   0  0  0  0  0  0  0  0  0  0  0  0
    7.6777  -12.7320   20.4397 C   0  0  0  0  0  0  0  0  0  0  0  0
    8.4167  -14.0654   20.4776 C   0  0  2  0  0  0  0  0  0  0  0  0
    7.4840  -15.1082   20.2287 N   0  0  0  0  0  0  0  0  0  0  0  0
    9.1155  -14.1913   21.7787 C   0  0  0  0  0  0  0  0  0  0  0  0
    9.9974  -13.4119   22.1843 O   0  0  0  0  0  0  0  0  0  0  0  0
    6.0231  -11.1156   27.0389 O   0  0  0  0  0  0  0  0  0  0  0  0
    6.5758  -12.2655   26.5010 C   0  0  0  0  0  0  0  0  0  0  0  0
    5.7906  -13.1495   25.8014 C   0  0  0  0  0  0  0  0  0  0  0  0
    6.3040  -14.3007   25.2533 C   0  0  0  0  0  0  0  0  0  0  0  0
    7.6445  -14.5811   25.4071 C   0  0  0  0  0  0  0  0  0  0  0  0
    8.3057  -15.7683   24.8783 C   0  0  0  0  0  0  0  0  0  0  0  0
    9.4103  -15.5398   23.9067 C   0  0  2  0  0  0  0  0  0  0  0  0
    8.7517  -15.2762   22.6171 N   0  0  0  0  0  0  0  0  0  0  0  0
   10.2837  -16.7315   23.8026 C   0  0  0  0  0  0  0  0  0  0  0  0
   10.2951  -17.5212   22.6691 O   0  0  0  0  0  0  0  0  0  0  0  0
    8.4181  -13.6748   26.1170 C   0  0  0  0  0  0  0  0  0  0  0  0
    7.9087  -12.5195   26.6683 C   0  0  0  0  0  0  0  0  0  0  0  0
   11.0350  -17.0446   24.7556 O   0  0  0  0  0  0  0  0  0  0  0  0
  2  4  1  0
  2  1  1  6
  3  2  1  0
  4  6  1  0
  4  5  1  6
  6 10  1  0
  6  7  2  0
  9  8  1  1
  9 11  1  0
 10  9  1  0
 11 12  2  0
 13 14  1  0
 14 15  2  0
 15 16  1  0
 17 18  1  0
 17 16  2  0
 19 18  1  1
 19 21  1  0
 20 19  1  0
 20 11  1  0
 21 22  1  0
 23 17  1  0
 24 23  2  0
 24 14  1  0
 25 21  2  0
M  END
$$$$
