TAY.pdb
     RDKit          3D

 25 25  0  0  1  0  0  0  0  0999 V2000
   10.3404  -18.0281   14.9751 C   0  0  0  0  0  0  0  0  0  0  0  0
   10.0041  -17.8126   16.4179 C   0  0  1  0  0  0  0  0  0  0  0  0
    9.8004  -16.4710   16.7179 O   0  0  0  0  0  0  0  0  0  0  0  0
    8.7574  -18.6047   16.7591 C   0  0  2  0  0  0  0  0  0  0  0  0
    7.6127  -18.1967   16.0037 N   0  0  0  0  0  0  0  0  0  0  0  0
    8.5064  -18.4427   18.2030 C   0  0  0  0  0  0  0  0  0  0  0  0
    7.7848  -17.4745   18.5989 O   0  0  0  0  0  0  0  0  0  0  0  0
    9.1360  -20.2697   21.3849 C   0  0  0  0  0  0  0  0  0  0  0  0
    8.8491  -19.0135   20.5692 C   0  0  2  0  0  0  0  0  0  0  0  0
    9.0296  -19.3156   19.1924 N   0  0  0  0  0  0  0  0  0  0  0  0
    9.7179  -17.9154   21.0553 C   0  0  0  0  0  0  0  0  0  0  0  0
   10.8580  -17.6717   20.6189 O   0  0  0  0  0  0  0  0  0  0  0  0
    7.3158  -12.7117   17.8005 O   0  0  0  0  0  0  0  0  0  0  0  0
    7.7544  -13.2262   19.0089 C   0  0  0  0  0  0  0  0  0  0  0  0
    9.0634  -13.0676   19.3948 C   0  0  0  0  0  0  0  0  0  0  0  0
    9.5346  -13.5642   20.5866 C   0  0  0  0  0  0  0  0  0  0  0  0
    8.6733  -14.2417   21.4225 C   0  0  0  0  0  0  0  0  0  0  0  0
    9.0521  -14.8180   22.7072 C   0  0  0  0  0  0  0  0  0  0  0  0
    9.9858  -15.9770   22.6692 C   0  0  2  0  0  0  0  0  0  0  0  0
    9.2119  -17.0868   22.0895 N   0  0  0  0  0  0  0  0  0  0  0  0
   10.4507  -16.3317   24.0300 C   0  0  0  0  0  0  0  0  0  0  0  0
    9.9457  -17.4278   24.7025 O   0  0  0  0  0  0  0  0  0  0  0  0
    7.3566  -14.3900   21.0126 C   0  0  0  0  0  0  0  0  0  0  0  0
    6.8790  -13.8942   19.8191 C   0  0  0  0  0  0  0  0  0  0  0  0
   11.3211  -15.6318   24.5985 O   0  0  0  0  0  0  0  0  0  0  0  0
  2  4  1  0
  2  1  1  6
  3  2  1  0
  4  6  1  0
  4  5  1  6
  6 10  1  0
  6  7  2  0
  9  8  1  1
  9 11  1  0
 10  9  1  0
 11 12  2  0
 13 14  1  0
 14 15  2  0
 15 16  1  0
 17 18  1  0
 17 16  2  0
 19 18  1  1
 19 21  1  0
 20 19  1  0
 20 11  1  0
 21 22  1  0
 23 17  1  0
 24 23  2  0
 24 14  1  0
 25 21  2  0
M  END
$$$$
