TAY.pdb
     RDKit          3D

 25 25  0  0  1  0  0  0  0  0999 V2000
    9.8155  -13.4036   20.5105 C   0  0  0  0  0  0  0  0  0  0  0  0
    8.3809  -13.0741   20.2377 C   0  0  1  0  0  0  0  0  0  0  0  0
    8.2328  -12.2167   19.1540 O   0  0  0  0  0  0  0  0  0  0  0  0
    7.6188  -14.3585   19.9775 C   0  0  2  0  0  0  0  0  0  0  0  0
    6.2632  -14.1323   19.5792 N   0  0  0  0  0  0  0  0  0  0  0  0
    7.6658  -15.1638   21.2118 C   0  0  0  0  0  0  0  0  0  0  0  0
    6.9747  -14.7981   22.2136 O   0  0  0  0  0  0  0  0  0  0  0  0
    8.9360  -18.4869   22.2899 C   0  0  0  0  0  0  0  0  0  0  0  0
    8.3921  -17.0877   22.5582 C   0  0  2  0  0  0  0  0  0  0  0  0
    8.4477  -16.3402   21.3510 N   0  0  0  0  0  0  0  0  0  0  0  0
    9.1595  -16.4783   23.6702 C   0  0  0  0  0  0  0  0  0  0  0  0
   10.1893  -15.7941   23.5251 O   0  0  0  0  0  0  0  0  0  0  0  0
    5.9402  -10.7941   25.8659 O   0  0  0  0  0  0  0  0  0  0  0  0
    6.5446  -12.0007   26.1758 C   0  0  0  0  0  0  0  0  0  0  0  0
    7.8405  -12.0294   26.6308 C   0  0  0  0  0  0  0  0  0  0  0  0
    8.4730  -13.2076   26.9483 C   0  0  0  0  0  0  0  0  0  0  0  0
    7.7921  -14.3976   26.8080 C   0  0  0  0  0  0  0  0  0  0  0  0
    8.3528  -15.7100   27.1067 C   0  0  0  0  0  0  0  0  0  0  0  0
    9.4048  -16.2124   26.1808 C   0  0  2  0  0  0  0  0  0  0  0  0
    8.6847  -16.6914   24.9898 N   0  0  0  0  0  0  0  0  0  0  0  0
   10.1720  -17.3198   26.7963 C   0  0  0  0  0  0  0  0  0  0  0  0
   10.0708  -18.6156   26.3279 O   0  0  0  0  0  0  0  0  0  0  0  0
    6.4850  -14.3448   26.3470 C   0  0  0  0  0  0  0  0  0  0  0  0
    5.8462  -13.1666   26.0274 C   0  0  0  0  0  0  0  0  0  0  0  0
   10.9342  -17.0933   27.7649 O   0  0  0  0  0  0  0  0  0  0  0  0
  2  4  1  0
  2  1  1  6
  3  2  1  0
  4  6  1  0
  4  5  1  1
  6 10  1  0
  6  7  2  0
  9  8  1  6
  9 11  1  0
 10  9  1  0
 11 12  2  0
 13 14  1  0
 14 15  2  0
 15 16  1  0
 17 18  1  0
 17 16  2  0
 19 18  1  1
 19 21  1  0
 20 19  1  0
 20 11  1  0
 21 22  1  0
 23 17  1  0
 24 23  2  0
 24 14  1  0
 25 21  2  0
M  END
$$$$
