SRA.pdb
     RDKit          3D

 23 22  0  0  1  0  0  0  0  0999 V2000
    9.3092   -8.0980   -9.9684 O   0  0  0  0  0  0  0  0  0  0  0  0
   10.3877   -7.5708   -9.2551 C   0  0  0  0  0  0  0  0  0  0  0  0
   11.5353   -8.5814   -9.1967 C   0  0  2  0  0  0  0  0  0  0  0  0
   11.1445   -9.6284   -8.2943 N   0  0  0  0  0  0  0  0  0  0  0  0
   12.7281   -7.8364   -8.7188 C   0  0  0  0  0  0  0  0  0  0  0  0
   12.8684   -7.5995   -7.4915 O   0  0  0  0  0  0  0  0  0  0  0  0
   19.5657   -9.3731  -13.0905 N   0  0  0  0  0  0  0  0  0  0  0  0
   18.5091  -10.2724  -12.7771 C   0  0  0  0  0  0  0  0  0  0  0  0
   18.4940  -11.4777  -13.2305 N   0  0  0  0  0  0  0  0  0  0  0  0
   17.4120   -9.8934  -11.9479 N   0  0  0  0  0  0  0  0  0  0  0  0
   17.3245   -8.5347  -11.4834 C   0  0  0  0  0  0  0  0  0  0  0  0
   16.1409   -8.3522  -10.5373 C   0  0  0  0  0  0  0  0  0  0  0  0
   16.0349   -6.9528  -10.0480 C   0  0  0  0  0  0  0  0  0  0  0  0
   14.9455   -6.6774   -9.0740 C   0  0  2  0  0  0  0  0  0  0  0  0
   13.7447   -7.3641   -9.5849 N   0  0  0  0  0  0  0  0  0  0  0  0
   14.6632   -5.2386   -8.8605 C   0  0  0  0  0  0  0  0  0  0  0  0
   14.2566   -4.5608   -9.8320 O   0  0  0  0  0  0  0  0  0  0  0  0
   17.7040  -12.0919  -12.9420 C   0  0  0  0  0  0  0  0  0  0  0  0
   14.4862   -2.8020   -5.9526 C   0  0  1  0  0  0  0  0  0  0  0  0
   14.5772   -3.1733   -7.3999 N   0  0  0  0  0  0  0  0  0  0  0  0
   14.8260   -4.5770   -7.6157 C   0  0  0  0  0  0  0  0  0  0  0  0
   15.5378   -2.3038   -8.0989 O   0  0  0  0  0  0  0  0  0  0  0  0
   15.2798   -0.9614   -8.2284 O   0  0  0  0  0  0  0  0  0  0  0  0
  2  1  1  0
  3  5  1  0
  3  2  1  0
  3  4  1  1
  5  6  2  0
  7  8  1  0
  8 10  1  0
  8  9  2  0
 10 11  1  0
 11 12  1  0
 12 13  1  0
 14 13  1  6
 14 15  1  0
 14 16  1  0
 15  5  1  0
 16 20  1  0
 17 16  2  0
 19 18  1  6
 19 21  1  0
 20 19  1  0
 21 23  2  0
 21 22  1  0
M  END
$$$$
