SRA.pdb
     RDKit          3D

 23 22  0  0  1  0  0  0  0  0999 V2000
   25.9060  -12.2810  -15.5359 O   0  0  0  0  0  0  0  0  0  0  0  0
   25.1666  -11.1131  -15.7340 C   0  0  0  0  0  0  0  0  0  0  0  0
   23.8630  -11.4243  -16.4725 C   0  0  2  0  0  0  0  0  0  0  0  0
   24.2094  -11.8648  -17.7950 N   0  0  0  0  0  0  0  0  0  0  0  0
   23.0740  -10.1660  -16.4822 C   0  0  0  0  0  0  0  0  0  0  0  0
   23.2142   -9.3460  -17.4256 O   0  0  0  0  0  0  0  0  0  0  0  0
   15.3622  -11.5613  -14.4620 N   0  0  0  0  0  0  0  0  0  0  0  0
   15.7494  -11.5919  -15.8305 C   0  0  0  0  0  0  0  0  0  0  0  0
   15.0438  -12.2051  -16.7163 N   0  0  0  0  0  0  0  0  0  0  0  0
   16.9343  -10.9494  -16.2975 N   0  0  0  0  0  0  0  0  0  0  0  0
   17.7800  -10.2714  -15.3518 C   0  0  0  0  0  0  0  0  0  0  0  0
   19.0352   -9.7272  -16.0283 C   0  0  0  0  0  0  0  0  0  0  0  0
   19.9403   -9.0579  -15.0577 C   0  0  0  0  0  0  0  0  0  0  0  0
   21.2710   -8.6442  -15.5768 C   0  0  2  0  0  0  0  0  0  0  0  0
   22.1482   -9.8244  -15.4659 N   0  0  0  0  0  0  0  0  0  0  0  0
   21.8723   -7.4886  -14.8708 C   0  0  0  0  0  0  0  0  0  0  0  0
   22.2874   -7.6555  -13.7011 O   0  0  0  0  0  0  0  0  0  0  0  0
   15.3651  -12.1588  -17.7059 C   0  0  0  0  0  0  0  0  0  0  0  0
   23.0223   -3.9835  -15.7661 C   0  0  1  0  0  0  0  0  0  0  0  0
   22.7078   -5.1000  -14.8199 N   0  0  0  0  0  0  0  0  0  0  0  0
   22.0078   -6.1964  -15.4416 C   0  0  0  0  0  0  0  0  0  0  0  0
   22.0254   -4.5866  -13.6208 O   0  0  0  0  0  0  0  0  0  0  0  0
   22.6974   -3.7685  -12.7464 O   0  0  0  0  0  0  0  0  0  0  0  0
  2  1  1  0
  3  5  1  0
  3  2  1  0
  3  4  1  6
  5  6  2  0
  7  8  1  0
  8 10  1  0
  8  9  2  0
 10 11  1  0
 11 12  1  0
 12 13  1  0
 14 13  1  1
 14 15  1  0
 14 16  1  0
 15  5  1  0
 16 20  1  0
 17 16  2  0
 19 18  1  6
 19 21  1  0
 20 19  1  0
 21 23  2  0
 21 22  1  0
M  END
$$$$
