SRA.pdb
     RDKit          3D

 23 22  0  0  1  0  0  0  0  0999 V2000
   18.4570  -27.0032  -11.3607 O   0  0  0  0  0  0  0  0  0  0  0  0
   18.4523  -26.4997  -10.0583 C   0  0  0  0  0  0  0  0  0  0  0  0
   18.1020  -25.0101  -10.0622 C   0  0  2  0  0  0  0  0  0  0  0  0
   19.1749  -24.3149  -10.7170 N   0  0  0  0  0  0  0  0  0  0  0  0
   17.9511  -24.6094   -8.6399 C   0  0  0  0  0  0  0  0  0  0  0  0
   18.8839  -23.9972   -8.0593 O   0  0  0  0  0  0  0  0  0  0  0  0
   11.0920  -21.1986   -4.6950 N   0  0  0  0  0  0  0  0  0  0  0  0
   12.0446  -21.2715   -3.6412 C   0  0  0  0  0  0  0  0  0  0  0  0
   11.8050  -20.7667   -2.4809 N   0  0  0  0  0  0  0  0  0  0  0  0
   13.3124  -21.9039   -3.8078 N   0  0  0  0  0  0  0  0  0  0  0  0
   13.7207  -22.3134   -5.1250 C   0  0  0  0  0  0  0  0  0  0  0  0
   15.0037  -23.1381   -5.0713 C   0  0  0  0  0  0  0  0  0  0  0  0
   15.4015  -23.6298   -6.4163 C   0  0  0  0  0  0  0  0  0  0  0  0
   16.6516  -24.4328   -6.4798 C   0  0  2  0  0  0  0  0  0  0  0  0
   16.7889  -24.8825   -7.8774 N   0  0  0  0  0  0  0  0  0  0  0  0
   16.6815  -25.5945   -5.5606 C   0  0  0  0  0  0  0  0  0  0  0  0
   15.8702  -26.5287   -5.7549 O   0  0  0  0  0  0  0  0  0  0  0  0
   12.5536  -20.8370   -1.7602 C   0  0  0  0  0  0  0  0  0  0  0  0
   18.7922  -26.8430   -2.6548 C   0  0  1  0  0  0  0  0  0  0  0  0
   17.5788  -26.8113   -3.5308 N   0  0  0  0  0  0  0  0  0  0  0  0
   17.5779  -25.7150   -4.4671 C   0  0  0  0  0  0  0  0  0  0  0  0
   16.3520  -26.8774   -2.7198 O   0  0  0  0  0  0  0  0  0  0  0  0
   16.0587  -28.0162   -2.0109 O   0  0  0  0  0  0  0  0  0  0  0  0
  2  1  1  0
  3  5  1  0
  3  2  1  0
  3  4  1  1
  5  6  2  0
  7  8  1  0
  8 10  1  0
  8  9  2  0
 10 11  1  0
 11 12  1  0
 12 13  1  0
 14 13  1  6
 14 15  1  0
 14 16  1  0
 15  5  1  0
 16 20  1  0
 17 16  2  0
 19 18  1  6
 19 21  1  0
 20 19  1  0
 21 23  2  0
 21 22  1  0
M  END
$$$$
