SRA.pdb
     RDKit          3D

 23 22  0  0  1  0  0  0  0  0999 V2000
   29.0061  -19.7865  -17.9460 O   0  0  0  0  0  0  0  0  0  0  0  0
   27.7739  -20.2443  -17.4749 C   0  0  0  0  0  0  0  0  0  0  0  0
   27.9766  -21.3044  -16.3901 C   0  0  2  0  0  0  0  0  0  0  0  0
   28.3244  -22.5339  -17.0462 N   0  0  0  0  0  0  0  0  0  0  0  0
   26.6924  -21.4000  -15.6499 C   0  0  0  0  0  0  0  0  0  0  0  0
   25.7896  -22.1741  -16.0592 O   0  0  0  0  0  0  0  0  0  0  0  0
   22.9029  -20.3617  -10.2366 N   0  0  0  0  0  0  0  0  0  0  0  0
   23.5810  -20.9376   -9.1267 C   0  0  0  0  0  0  0  0  0  0  0  0
   22.9383  -21.5006   -8.1631 N   0  0  0  0  0  0  0  0  0  0  0  0
   25.0033  -20.9247   -9.0176 N   0  0  0  0  0  0  0  0  0  0  0  0
   25.7764  -20.2755  -10.0424 C   0  0  0  0  0  0  0  0  0  0  0  0
   25.6450  -21.0060  -11.3759 C   0  0  0  0  0  0  0  0  0  0  0  0
   25.2748  -20.0810  -12.4788 C   0  0  0  0  0  0  0  0  0  0  0  0
   25.0967  -20.6958  -13.8211 C   0  0  2  0  0  0  0  0  0  0  0  0
   26.4156  -20.6518  -14.4792 N   0  0  0  0  0  0  0  0  0  0  0  0
   24.0770  -20.0341  -14.6683 C   0  0  0  0  0  0  0  0  0  0  0  0
   24.4320  -19.0691  -15.3834 O   0  0  0  0  0  0  0  0  0  0  0  0
   23.4970  -21.9236   -7.3927 C   0  0  0  0  0  0  0  0  0  0  0  0
   21.8343  -20.2857  -17.0081 C   0  0  1  0  0  0  0  0  0  0  0  0
   21.7264  -19.8341  -15.5850 N   0  0  0  0  0  0  0  0  0  0  0  0
   22.7149  -20.4285  -14.7199 C   0  0  0  0  0  0  0  0  0  0  0  0
   20.3505  -20.0042  -15.0899 O   0  0  0  0  0  0  0  0  0  0  0  0
   19.3189  -19.3173  -15.6810 O   0  0  0  0  0  0  0  0  0  0  0  0
  2  1  1  0
  3  5  1  0
  3  2  1  0
  3  4  1  6
  5  6  2  0
  7  8  1  0
  8 10  1  0
  8  9  2  0
 10 11  1  0
 11 12  1  0
 12 13  1  0
 14 13  1  1
 14 15  1  0
 14 16  1  0
 15  5  1  0
 16 20  1  0
 17 16  2  0
 19 18  1  6
 19 21  1  0
 20 19  1  0
 21 23  2  0
 21 22  1  0
M  END
$$$$
