SRA.pdb
     RDKit          3D

 23 22  0  0  1  0  0  0  0  0999 V2000
   26.0688  -11.9559  -15.5603 O   0  0  0  0  0  0  0  0  0  0  0  0
   25.2698  -10.8323  -15.7819 C   0  0  0  0  0  0  0  0  0  0  0  0
   24.0298  -11.2100  -16.5953 C   0  0  2  0  0  0  0  0  0  0  0  0
   24.4582  -11.4718  -17.9410 N   0  0  0  0  0  0  0  0  0  0  0  0
   23.1022  -10.0531  -16.5102 C   0  0  0  0  0  0  0  0  0  0  0  0
   23.2210   -9.0944  -17.3156 O   0  0  0  0  0  0  0  0  0  0  0  0
   15.7580  -10.7558  -12.6805 N   0  0  0  0  0  0  0  0  0  0  0  0
   16.7022   -9.9255  -12.0153 C   0  0  0  0  0  0  0  0  0  0  0  0
   16.6938   -9.7885  -10.7348 N   0  0  0  0  0  0  0  0  0  0  0  0
   17.7064   -9.2013  -12.7237 N   0  0  0  0  0  0  0  0  0  0  0  0
   17.5294   -8.9562  -14.1301 C   0  0  0  0  0  0  0  0  0  0  0  0
   18.7794   -8.3283  -14.7404 C   0  0  0  0  0  0  0  0  0  0  0  0
   19.8819   -9.3152  -14.8799 C   0  0  0  0  0  0  0  0  0  0  0  0
   21.1292   -8.8216  -15.5218 C   0  0  2  0  0  0  0  0  0  0  0  0
   22.0638   -9.9618  -15.5510 N   0  0  0  0  0  0  0  0  0  0  0  0
   21.7526   -7.6631  -14.8402 C   0  0  0  0  0  0  0  0  0  0  0  0
   22.2880   -7.8469  -13.7229 O   0  0  0  0  0  0  0  0  0  0  0  0
   17.4096   -9.1611  -10.3119 C   0  0  0  0  0  0  0  0  0  0  0  0
   22.5473   -4.0294  -15.6186 C   0  0  1  0  0  0  0  0  0  0  0  0
   22.3678   -5.2111  -14.7174 N   0  0  0  0  0  0  0  0  0  0  0  0
   21.7809   -6.3503  -15.3781 C   0  0  0  0  0  0  0  0  0  0  0  0
   21.6510   -4.8238  -13.4912 O   0  0  0  0  0  0  0  0  0  0  0  0
   22.2405   -3.9686  -12.5931 O   0  0  0  0  0  0  0  0  0  0  0  0
  2  1  1  0
  3  5  1  0
  3  2  1  0
  3  4  1  6
  5  6  2  0
  7  8  1  0
  8 10  1  0
  8  9  2  0
 10 11  1  0
 11 12  1  0
 12 13  1  0
 14 13  1  1
 14 15  1  0
 14 16  1  0
 15  5  1  0
 16 20  1  0
 17 16  2  0
 19 18  1  6
 19 21  1  0
 20 19  1  0
 21 23  2  0
 21 22  1  0
M  END
$$$$
