SRA.pdb
     RDKit          3D

 23 22  0  0  1  0  0  0  0  0999 V2000
   27.1204  -19.3536  -18.1843 O   0  0  0  0  0  0  0  0  0  0  0  0
   28.3018  -19.5108  -17.4566 C   0  0  0  0  0  0  0  0  0  0  0  0
   28.5312  -20.9862  -17.1217 C   0  0  2  0  0  0  0  0  0  0  0  0
   28.5997  -21.7061  -18.3627 N   0  0  0  0  0  0  0  0  0  0  0  0
   27.3818  -21.4109  -16.2822 C   0  0  0  0  0  0  0  0  0  0  0  0
   26.5264  -22.2068  -16.7478 O   0  0  0  0  0  0  0  0  0  0  0  0
   23.1667  -19.5671  -10.2571 N   0  0  0  0  0  0  0  0  0  0  0  0
   23.4850  -20.5844   -9.3151 C   0  0  0  0  0  0  0  0  0  0  0  0
   22.6662  -20.9136   -8.3772 N   0  0  0  0  0  0  0  0  0  0  0  0
   24.7218  -21.2941   -9.3548 N   0  0  0  0  0  0  0  0  0  0  0  0
   25.7132  -20.9156  -10.3261 C   0  0  0  0  0  0  0  0  0  0  0  0
   25.2844  -21.3175  -11.7346 C   0  0  0  0  0  0  0  0  0  0  0  0
   26.3546  -21.0589  -12.7331 C   0  0  0  0  0  0  0  0  0  0  0  0
   26.0353  -21.4047  -14.1437 C   0  0  2  0  0  0  0  0  0  0  0  0
   27.1855  -20.9616  -14.9532 N   0  0  0  0  0  0  0  0  0  0  0  0
   24.7832  -20.7996  -14.6551 C   0  0  0  0  0  0  0  0  0  0  0  0
   24.7191  -19.5523  -14.7481 O   0  0  0  0  0  0  0  0  0  0  0  0
   22.9924  -21.6093   -7.6741 C   0  0  0  0  0  0  0  0  0  0  0  0
   21.7755  -21.8832  -16.6058 C   0  0  1  0  0  0  0  0  0  0  0  0
   22.4505  -20.9808  -15.6205 N   0  0  0  0  0  0  0  0  0  0  0  0
   23.6451  -21.5505  -15.0484 C   0  0  0  0  0  0  0  0  0  0  0  0
   21.4926  -20.5122  -14.6056 O   0  0  0  0  0  0  0  0  0  0  0  0
   20.4441  -19.7052  -14.9728 O   0  0  0  0  0  0  0  0  0  0  0  0
  2  1  1  0
  3  5  1  0
  3  2  1  0
  3  4  1  6
  5  6  2  0
  7  8  1  0
  8 10  1  0
  8  9  2  0
 10 11  1  0
 11 12  1  0
 12 13  1  0
 14 13  1  1
 14 15  1  0
 14 16  1  0
 15  5  1  0
 16 20  1  0
 17 16  2  0
 19 18  1  6
 19 21  1  0
 20 19  1  0
 21 23  2  0
 21 22  1  0
M  END
$$$$
