SRA.pdb
     RDKit          3D

 23 22  0  0  1  0  0  0  0  0999 V2000
   21.5139   -4.6156  -14.7917 O   0  0  0  0  0  0  0  0  0  0  0  0
   22.0496   -5.8908  -14.5999 C   0  0  0  0  0  0  0  0  0  0  0  0
   20.9428   -6.9468  -14.6369 C   0  0  2  0  0  0  0  0  0  0  0  0
   20.1522   -6.7869  -13.4483 N   0  0  0  0  0  0  0  0  0  0  0  0
   21.6219   -8.2666  -14.6931 C   0  0  0  0  0  0  0  0  0  0  0  0
   21.9267   -8.8601  -13.6269 O   0  0  0  0  0  0  0  0  0  0  0  0
   22.9818  -13.8183  -20.1607 N   0  0  0  0  0  0  0  0  0  0  0  0
   22.6554  -14.8537  -19.2416 C   0  0  0  0  0  0  0  0  0  0  0  0
   23.1062  -16.0511  -19.3882 N   0  0  0  0  0  0  0  0  0  0  0  0
   21.8149  -14.6268  -18.1115 N   0  0  0  0  0  0  0  0  0  0  0  0
   21.3038  -13.3030  -17.8759 C   0  0  0  0  0  0  0  0  0  0  0  0
   22.2673  -12.4860  -17.0196 C   0  0  0  0  0  0  0  0  0  0  0  0
   21.7340  -11.1295  -16.7284 C   0  0  0  0  0  0  0  0  0  0  0  0
   22.6134  -10.2344  -15.9304 C   0  0  2  0  0  0  0  0  0  0  0  0
   21.9561   -8.9146  -15.9076 N   0  0  0  0  0  0  0  0  0  0  0  0
   23.9958  -10.1114  -16.4491 C   0  0  0  0  0  0  0  0  0  0  0  0
   24.1761   -9.4928  -17.5231 O   0  0  0  0  0  0  0  0  0  0  0  0
   22.7950  -16.7711  -18.7031 C   0  0  0  0  0  0  0  0  0  0  0  0
   27.5034  -11.1478  -15.3764 C   0  0  1  0  0  0  0  0  0  0  0  0
   26.4908  -10.4951  -16.2649 N   0  0  0  0  0  0  0  0  0  0  0  0
   25.1352  -10.6545  -15.8005 C   0  0  0  0  0  0  0  0  0  0  0  0
   26.6751  -10.9216  -17.6618 O   0  0  0  0  0  0  0  0  0  0  0  0
   27.6089  -10.2978  -18.4519 O   0  0  0  0  0  0  0  0  0  0  0  0
  2  1  1  0
  3  5  1  0
  3  2  1  0
  3  4  1  1
  5  6  2  0
  7  8  1  0
  8 10  1  0
  8  9  2  0
 10 11  1  0
 11 12  1  0
 12 13  1  0
 14 13  1  6
 14 15  1  0
 14 16  1  0
 15  5  1  0
 16 20  1  0
 17 16  2  0
 19 18  1  1
 19 21  1  0
 20 19  1  0
 21 23  2  0
 21 22  1  0
M  END
$$$$
