SRA.pdb
     RDKit          3D

 23 22  0  0  1  0  0  0  0  0999 V2000
   19.7844  -20.5331  -14.5767 O   0  0  0  0  0  0  0  0  0  0  0  0
   20.3994  -21.5327  -15.3333 C   0  0  0  0  0  0  0  0  0  0  0  0
   20.6326  -22.7816  -14.4804 C   0  0  2  0  0  0  0  0  0  0  0  0
   21.2710  -23.7618  -15.3139 N   0  0  0  0  0  0  0  0  0  0  0  0
   19.2960  -23.2236  -14.0069 C   0  0  0  0  0  0  0  0  0  0  0  0
   18.4734  -23.7144  -14.8221 O   0  0  0  0  0  0  0  0  0  0  0  0
   18.4631  -26.8827   -6.8571 N   0  0  0  0  0  0  0  0  0  0  0  0
   17.8035  -25.6928   -7.2726 C   0  0  0  0  0  0  0  0  0  0  0  0
   17.1668  -24.9488   -6.4363 N   0  0  0  0  0  0  0  0  0  0  0  0
   17.8093  -25.2580   -8.6312 N   0  0  0  0  0  0  0  0  0  0  0  0
   17.9602  -26.2348   -9.6764 C   0  0  0  0  0  0  0  0  0  0  0  0
   17.8629  -25.5854  -11.0541 C   0  0  0  0  0  0  0  0  0  0  0  0
   17.5637  -24.1326  -10.9605 C   0  0  0  0  0  0  0  0  0  0  0  0
   17.4893  -23.3921  -12.2480 C   0  0  2  0  0  0  0  0  0  0  0  0
   18.8804  -23.1231  -12.6564 N   0  0  0  0  0  0  0  0  0  0  0  0
   16.7184  -22.1283  -12.1849 C   0  0  0  0  0  0  0  0  0  0  0  0
   17.3485  -21.0511  -12.0793 O   0  0  0  0  0  0  0  0  0  0  0  0
   16.6311  -24.1418   -6.8191 C   0  0  0  0  0  0  0  0  0  0  0  0
   15.3661  -19.6355  -11.8673 C   0  0  2  0  0  0  0  0  0  0  0  0
   14.5409  -20.8384  -12.2032 N   0  0  0  0  0  0  0  0  0  0  0  0
   15.3019  -22.0626  -12.2370 C   0  0  0  0  0  0  0  0  0  0  0  0
   13.7651  -20.6081  -13.4329 O   0  0  0  0  0  0  0  0  0  0  0  0
   12.8736  -19.5657  -13.4965 O   0  0  0  0  0  0  0  0  0  0  0  0
  2  1  1  0
  3  5  1  0
  3  2  1  0
  3  4  1  6
  5  6  2  0
  7  8  1  0
  8 10  1  0
  8  9  2  0
 10 11  1  0
 11 12  1  0
 12 13  1  0
 14 13  1  1
 14 15  1  0
 14 16  1  0
 15  5  1  0
 16 20  1  0
 17 16  2  0
 19 18  1  1
 19 21  1  0
 20 19  1  0
 21 23  2  0
 21 22  1  0
M  END
$$$$
