SRA.pdb
     RDKit          3D

 23 22  0  0  1  0  0  0  0  0999 V2000
   25.9667  -16.4745  -20.0474 O   0  0  0  0  0  0  0  0  0  0  0  0
   26.9852  -15.8329  -19.3396 C   0  0  0  0  0  0  0  0  0  0  0  0
   28.0953  -16.8240  -18.9835 C   0  0  2  0  0  0  0  0  0  0  0  0
   28.6433  -17.3208  -20.2148 N   0  0  0  0  0  0  0  0  0  0  0  0
   27.4600  -17.8942  -18.1728 C   0  0  0  0  0  0  0  0  0  0  0  0
   27.3089  -19.0436  -18.6608 O   0  0  0  0  0  0  0  0  0  0  0  0
   26.0297  -22.0326  -11.5579 N   0  0  0  0  0  0  0  0  0  0  0  0
   26.2243  -20.8832  -10.7428 C   0  0  0  0  0  0  0  0  0  0  0  0
   25.8621  -20.8649   -9.5071 N   0  0  0  0  0  0  0  0  0  0  0  0
   26.8279  -19.6919  -11.2441 N   0  0  0  0  0  0  0  0  0  0  0  0
   26.2581  -19.0536  -12.4006 C   0  0  0  0  0  0  0  0  0  0  0  0
   26.7488  -19.7097  -13.6882 C   0  0  0  0  0  0  0  0  0  0  0  0
   27.1477  -18.7017  -14.7050 C   0  0  0  0  0  0  0  0  0  0  0  0
   26.4775  -18.8020  -16.0287 C   0  0  2  0  0  0  0  0  0  0  0  0
   27.0017  -17.6933  -16.8476 N   0  0  0  0  0  0  0  0  0  0  0  0
   24.9980  -18.7451  -15.9728 C   0  0  0  0  0  0  0  0  0  0  0  0
   24.4556  -17.6664  -15.6401 O   0  0  0  0  0  0  0  0  0  0  0  0
   25.9665  -19.9687   -8.9869 C   0  0  0  0  0  0  0  0  0  0  0  0
   22.0517  -20.9679  -16.8712 C   0  0  1  0  0  0  0  0  0  0  0  0
   22.7137  -19.8144  -16.1842 N   0  0  0  0  0  0  0  0  0  0  0  0
   24.1524  -19.8440  -16.2748 C   0  0  0  0  0  0  0  0  0  0  0  0
   22.2261  -19.6855  -14.8012 O   0  0  0  0  0  0  0  0  0  0  0  0
   23.0316  -20.0554  -13.7524 O   0  0  0  0  0  0  0  0  0  0  0  0
  2  1  1  0
  3  5  1  0
  3  2  1  0
  3  4  1  6
  5  6  2  0
  7  8  1  0
  8 10  1  0
  8  9  2  0
 10 11  1  0
 11 12  1  0
 12 13  1  0
 14 13  1  1
 14 15  1  0
 14 16  1  0
 15  5  1  0
 16 20  1  0
 17 16  2  0
 19 18  1  6
 19 21  1  0
 20 19  1  0
 21 23  2  0
 21 22  1  0
M  END
$$$$
