SRA.pdb
     RDKit          3D

 23 22  0  0  1  0  0  0  0  0999 V2000
   25.9728  -18.9950  -16.8085 O   0  0  0  0  0  0  0  0  0  0  0  0
   27.1313  -18.9419  -16.0307 C   0  0  0  0  0  0  0  0  0  0  0  0
   27.6334  -20.3541  -15.7221 C   0  0  2  0  0  0  0  0  0  0  0  0
   27.7447  -21.0562  -16.9702 N   0  0  0  0  0  0  0  0  0  0  0  0
   26.6316  -20.9678  -14.8134 C   0  0  0  0  0  0  0  0  0  0  0  0
   25.9493  -21.9493  -15.2046 O   0  0  0  0  0  0  0  0  0  0  0  0
   26.7031  -19.1797   -6.6473 N   0  0  0  0  0  0  0  0  0  0  0  0
   27.2621  -20.0678   -7.6076 C   0  0  0  0  0  0  0  0  0  0  0  0
   28.3995  -20.6398   -7.4138 N   0  0  0  0  0  0  0  0  0  0  0  0
   26.5992  -20.3740   -8.8331 N   0  0  0  0  0  0  0  0  0  0  0  0
   25.2793  -20.9442   -8.7894 C   0  0  0  0  0  0  0  0  0  0  0  0
   24.7482  -21.2095  -10.1954 C   0  0  0  0  0  0  0  0  0  0  0  0
   25.7206  -20.7962  -11.2407 C   0  0  0  0  0  0  0  0  0  0  0  0
   25.3330  -21.0790  -12.6483 C   0  0  2  0  0  0  0  0  0  0  0  0
   26.3916  -20.5019  -13.4973 N   0  0  0  0  0  0  0  0  0  0  0  0
   24.0093  -20.5404  -13.0397 C   0  0  0  0  0  0  0  0  0  0  0  0
   23.8761  -19.2988  -13.1355 O   0  0  0  0  0  0  0  0  0  0  0  0
   28.7735  -21.2413   -8.1774 C   0  0  0  0  0  0  0  0  0  0  0  0
   20.8483  -21.8101  -14.6211 C   0  0  1  0  0  0  0  0  0  0  0  0
   21.6027  -20.8433  -13.7627 N   0  0  0  0  0  0  0  0  0  0  0  0
   22.8762  -21.3494  -13.3146 C   0  0  0  0  0  0  0  0  0  0  0  0
   20.7557  -20.3579  -12.6608 O   0  0  0  0  0  0  0  0  0  0  0  0
   21.0194  -20.7463  -11.3704 O   0  0  0  0  0  0  0  0  0  0  0  0
  2  1  1  0
  3  5  1  0
  3  2  1  0
  3  4  1  6
  5  6  2  0
  7  8  1  0
  8 10  1  0
  8  9  2  0
 10 11  1  0
 11 12  1  0
 12 13  1  0
 14 13  1  1
 14 15  1  0
 14 16  1  0
 15  5  1  0
 16 20  1  0
 17 16  2  0
 19 18  1  6
 19 21  1  0
 20 19  1  0
 21 23  2  0
 21 22  1  0
M  END
$$$$
