SRA.pdb
     RDKit          3D

 23 22  0  0  1  0  0  0  0  0999 V2000
   26.8048  -11.7990  -15.6857 O   0  0  0  0  0  0  0  0  0  0  0  0
   25.8966  -10.7612  -15.9051 C   0  0  0  0  0  0  0  0  0  0  0  0
   24.6227  -11.2958  -16.5631 C   0  0  2  0  0  0  0  0  0  0  0  0
   24.9693  -11.7306  -17.8875 N   0  0  0  0  0  0  0  0  0  0  0  0
   23.6501  -10.1732  -16.5710 C   0  0  0  0  0  0  0  0  0  0  0  0
   23.5938   -9.4002  -17.5616 O   0  0  0  0  0  0  0  0  0  0  0  0
   16.4235  -10.2600  -16.7595 N   0  0  0  0  0  0  0  0  0  0  0  0
   16.8265  -11.6065  -16.5401 C   0  0  0  0  0  0  0  0  0  0  0  0
   16.3244  -12.5787  -17.2193 N   0  0  0  0  0  0  0  0  0  0  0  0
   17.8037  -11.9553  -15.5613 N   0  0  0  0  0  0  0  0  0  0  0  0
   18.5005  -10.9066  -14.8655 C   0  0  0  0  0  0  0  0  0  0  0  0
   19.7200  -10.4390  -15.6550 C   0  0  0  0  0  0  0  0  0  0  0  0
   20.5135   -9.4328  -14.9019 C   0  0  0  0  0  0  0  0  0  0  0  0
   21.7077   -8.8830  -15.5969 C   0  0  2  0  0  0  0  0  0  0  0  0
   22.7581   -9.9135  -15.5016 N   0  0  0  0  0  0  0  0  0  0  0  0
   22.1981   -7.5968  -15.0487 C   0  0  0  0  0  0  0  0  0  0  0  0
   22.7421   -7.5989  -13.9206 O   0  0  0  0  0  0  0  0  0  0  0  0
   15.5619  -12.3540  -17.8922 C   0  0  0  0  0  0  0  0  0  0  0  0
   22.5886   -4.0122  -16.2682 C   0  0  1  0  0  0  0  0  0  0  0  0
   22.6715   -5.1198  -15.2646 N   0  0  0  0  0  0  0  0  0  0  0  0
   22.0889   -6.3550  -15.7269 C   0  0  0  0  0  0  0  0  0  0  0  0
   22.1381   -4.6823  -13.9642 O   0  0  0  0  0  0  0  0  0  0  0  0
   22.8447   -3.7877  -13.1987 O   0  0  0  0  0  0  0  0  0  0  0  0
  2  1  1  0
  3  5  1  0
  3  2  1  0
  3  4  1  6
  5  6  2  0
  7  8  1  0
  8 10  1  0
  8  9  2  0
 10 11  1  0
 11 12  1  0
 12 13  1  0
 14 13  1  1
 14 15  1  0
 14 16  1  0
 15  5  1  0
 16 20  1  0
 17 16  2  0
 19 18  1  6
 19 21  1  0
 20 19  1  0
 21 23  2  0
 21 22  1  0
M  END
$$$$
