SRA.pdb
     RDKit          3D

 23 22  0  0  1  0  0  0  0  0999 V2000
   21.2581  -13.4367  -15.7836 O   0  0  0  0  0  0  0  0  0  0  0  0
   20.9802  -14.7766  -16.0619 C   0  0  0  0  0  0  0  0  0  0  0  0
   21.8638  -15.2796  -17.2055 C   0  0  2  0  0  0  0  0  0  0  0  0
   21.3541  -14.7181  -18.4254 N   0  0  0  0  0  0  0  0  0  0  0  0
   21.7770  -16.7622  -17.1837 C   0  0  0  0  0  0  0  0  0  0  0  0
   20.8942  -17.3480  -17.8615 O   0  0  0  0  0  0  0  0  0  0  0  0
   24.8511  -23.1763  -13.8453 N   0  0  0  0  0  0  0  0  0  0  0  0
   25.3115  -23.6916  -15.0887 C   0  0  0  0  0  0  0  0  0  0  0  0
   25.3444  -24.9577  -15.3221 N   0  0  0  0  0  0  0  0  0  0  0  0
   25.7605  -22.8409  -16.1421 N   0  0  0  0  0  0  0  0  0  0  0  0
   25.5944  -21.4182  -16.0096 C   0  0  0  0  0  0  0  0  0  0  0  0
   24.1265  -21.0215  -16.1398 C   0  0  0  0  0  0  0  0  0  0  0  0
   23.9533  -19.5457  -16.1711 C   0  0  0  0  0  0  0  0  0  0  0  0
   22.5852  -19.0504  -16.4785 C   0  0  2  0  0  0  0  0  0  0  0  0
   22.6519  -17.5782  -16.4253 N   0  0  0  0  0  0  0  0  0  0  0  0
   21.5321  -19.5507  -15.5642 C   0  0  0  0  0  0  0  0  0  0  0  0
   21.5760  -19.2073  -14.3606 O   0  0  0  0  0  0  0  0  0  0  0  0
   25.7681  -25.2719  -16.2202 C   0  0  0  0  0  0  0  0  0  0  0  0
   18.1202  -21.0900  -15.7895 C   0  0  1  0  0  0  0  0  0  0  0  0
   19.4296  -20.8796  -15.0952 N   0  0  0  0  0  0  0  0  0  0  0  0
   20.4704  -20.4002  -15.9704 C   0  0  0  0  0  0  0  0  0  0  0  0
   19.8180  -22.0848  -14.3444 O   0  0  0  0  0  0  0  0  0  0  0  0
   19.1049  -22.4598  -13.2325 O   0  0  0  0  0  0  0  0  0  0  0  0
  2  1  1  0
  3  5  1  0
  3  2  1  0
  3  4  1  6
  5  6  2  0
  7  8  1  0
  8 10  1  0
  8  9  2  0
 10 11  1  0
 11 12  1  0
 12 13  1  0
 14 13  1  1
 14 15  1  0
 14 16  1  0
 15  5  1  0
 16 20  1  0
 17 16  2  0
 19 18  1  1
 19 21  1  0
 20 19  1  0
 21 23  2  0
 21 22  1  0
M  END
$$$$
