SRA.pdb
     RDKit          3D

 23 22  0  0  1  0  0  0  0  0999 V2000
   14.5112   -7.3102  -11.7987 O   0  0  0  0  0  0  0  0  0  0  0  0
   15.8713   -7.4863  -12.0612 C   0  0  0  0  0  0  0  0  0  0  0  0
   16.1983   -8.9734  -12.2132 C   0  0  2  0  0  0  0  0  0  0  0  0
   15.9942   -9.5944  -10.9342 N   0  0  0  0  0  0  0  0  0  0  0  0
   17.6123   -9.0498  -12.6616 C   0  0  0  0  0  0  0  0  0  0  0  0
   18.5406   -9.0257  -11.8132 O   0  0  0  0  0  0  0  0  0  0  0  0
   20.1282  -11.9433  -20.3170 N   0  0  0  0  0  0  0  0  0  0  0  0
   20.0724  -10.5442  -20.0666 C   0  0  0  0  0  0  0  0  0  0  0  0
   19.7833   -9.7043  -20.9990 N   0  0  0  0  0  0  0  0  0  0  0  0
   20.3321   -9.9941  -18.7762 N   0  0  0  0  0  0  0  0  0  0  0  0
   20.6607  -10.8811  -17.6924 C   0  0  0  0  0  0  0  0  0  0  0  0
   20.7556  -10.1231  -16.3712 C   0  0  0  0  0  0  0  0  0  0  0  0
   19.4210   -9.9355  -15.7444 C   0  0  0  0  0  0  0  0  0  0  0  0
   19.4021   -9.2275  -14.4368 C   0  0  2  0  0  0  0  0  0  0  0  0
   17.9887   -9.1507  -14.0235 N   0  0  0  0  0  0  0  0  0  0  0  0
   20.0042   -7.8740  -14.4636 C   0  0  0  0  0  0  0  0  0  0  0  0
   19.2755   -6.9040  -14.7746 O   0  0  0  0  0  0  0  0  0  0  0  0
   19.7428   -8.6953  -20.7441 C   0  0  0  0  0  0  0  0  0  0  0  0
   21.7324   -5.6309  -15.5677 C   0  0  2  0  0  0  0  0  0  0  0  0
   21.9820   -6.3083  -14.2563 N   0  0  0  0  0  0  0  0  0  0  0  0
   21.3638   -7.6070  -14.1568 C   0  0  0  0  0  0  0  0  0  0  0  0
   21.6335   -5.4170  -13.1377 O   0  0  0  0  0  0  0  0  0  0  0  0
   22.2075   -4.1729  -13.0473 O   0  0  0  0  0  0  0  0  0  0  0  0
  2  1  1  0
  3  5  1  0
  3  2  1  0
  3  4  1  1
  5  6  2  0
  7  8  1  0
  8 10  1  0
  8  9  2  0
 10 11  1  0
 11 12  1  0
 12 13  1  0
 14 13  1  6
 14 15  1  0
 14 16  1  0
 15  5  1  0
 16 20  1  0
 17 16  2  0
 19 18  1  6
 19 21  1  0
 20 19  1  0
 21 23  2  0
 21 22  1  0
M  END
$$$$
