YVK.pdb
     RDKit          3D

 29 29  0  0  1  0  0  0  0  0999 V2000
   15.6124  -24.5553   -8.7091 O   0  0  0  0  0  0  0  0  0  0  0  0
   16.7514  -23.8736   -9.1661 C   0  0  0  0  0  0  0  0  0  0  0  0
   18.0222  -24.2782   -8.7894 C   0  0  0  0  0  0  0  0  0  0  0  0
   19.1423  -23.6014   -9.2436 C   0  0  0  0  0  0  0  0  0  0  0  0
   19.0115  -22.5132  -10.0786 C   0  0  0  0  0  0  0  0  0  0  0  0
   20.2002  -21.8019  -10.5578 C   0  0  0  0  0  0  0  0  0  0  0  0
   20.2780  -21.7695  -12.0631 C   0  0  2  0  0  0  0  0  0  0  0  0
   20.3994  -23.1456  -12.4977 N   0  0  0  0  0  0  0  0  0  0  0  0
   21.3641  -20.9720  -12.6167 C   0  0  0  0  0  0  0  0  0  0  0  0
   22.2105  -20.4508  -11.8250 O   0  0  0  0  0  0  0  0  0  0  0  0
   17.7653  -22.1075  -10.4549 C   0  0  0  0  0  0  0  0  0  0  0  0
   16.6417  -22.7849  -10.0004 C   0  0  0  0  0  0  0  0  0  0  0  0
   24.1203  -22.0296  -14.3089 C   0  0  0  0  0  0  0  0  0  0  0  0
   23.5928  -20.9495  -15.1869 C   0  0  1  0  0  0  0  0  0  0  0  0
   22.7202  -21.6203  -16.2557 C   0  0  0  0  0  0  0  0  0  0  0  0
   22.7143  -19.9365  -14.5009 C   0  0  2  0  0  0  0  0  0  0  0  0
   21.5774  -20.7143  -13.9857 N   0  0  0  0  0  0  0  0  0  0  0  0
   22.2271  -18.8629  -15.3651 C   0  0  0  0  0  0  0  0  0  0  0  0
   21.1063  -19.0555  -15.9484 O   0  0  0  0  0  0  0  0  0  0  0  0
   22.8635  -17.6478  -15.6164 N   0  0  0  0  0  0  0  0  0  0  0  0
   22.2592  -16.6749  -16.5162 C   0  0  1  0  0  0  0  0  0  0  0  0
   22.7508  -15.2964  -16.2559 C   0  0  0  0  0  0  0  0  0  0  0  0
   22.0150  -14.2832  -17.0591 C   0  0  0  0  0  0  0  0  0  0  0  0
   22.4642  -12.8558  -16.7252 C   0  0  0  0  0  0  0  0  0  0  0  0
   21.6724  -11.8285  -17.4879 C   0  0  0  0  0  0  0  0  0  0  0  0
   22.0488  -10.4732  -17.0960 N   0  0  0  0  0  0  0  0  0  0  0  0
   22.4821  -17.0589  -17.9271 C   0  0  0  0  0  0  0  0  0  0  0  0
   21.4499  -16.7443  -18.8396 O   0  0  0  0  0  0  0  0  0  0  0  0
   23.4617  -17.6232  -18.4132 O   0  0  0  0  0  0  0  0  0  0  0  0
  2  3  2  0
  2  1  1  0
  4  3  1  0
  5  4  2  0
  6  5  1  0
  7  6  1  0
  7  8  1  1
  9  7  1  0
  9 10  2  0
 11  5  1  0
 11 12  2  0
 12  2  1  0
 14 13  1  1
 14 16  1  0
 15 14  1  0
 16 17  1  6
 17  9  1  0
 18 16  1  0
 19 18  2  0
 20 18  1  0
 21 20  1  0
 21 27  1  0
 21 22  1  6
 23 22  1  0
 24 23  1  0
 25 24  1  0
 26 25  1  0
 27 28  1  0
 29 27  2  0
M  END
$$$$
