YVK.pdb
     RDKit          3D

 29 29  0  0  1  0  0  0  0  0999 V2000
   20.4029  -23.0332   -5.9070 O   0  0  0  0  0  0  0  0  0  0  0  0
   21.2193  -22.3182   -6.7974 C   0  0  0  0  0  0  0  0  0  0  0  0
   22.2473  -21.5140   -6.3316 C   0  0  0  0  0  0  0  0  0  0  0  0
   23.0496  -20.8108   -7.2153 C   0  0  0  0  0  0  0  0  0  0  0  0
   22.8386  -20.8993   -8.5740 C   0  0  0  0  0  0  0  0  0  0  0  0
   23.6918  -20.1547   -9.5047 C   0  0  0  0  0  0  0  0  0  0  0  0
   24.6274  -21.0572  -10.2684 C   0  0  2  0  0  0  0  0  0  0  0  0
   25.7853  -21.2586   -9.4224 N   0  0  0  0  0  0  0  0  0  0  0  0
   25.0419  -20.5666  -11.5759 C   0  0  0  0  0  0  0  0  0  0  0  0
   25.8848  -19.6178  -11.6384 O   0  0  0  0  0  0  0  0  0  0  0  0
   21.8296  -21.6881   -9.0422 C   0  0  0  0  0  0  0  0  0  0  0  0
   21.0247  -22.3934   -8.1575 C   0  0  0  0  0  0  0  0  0  0  0  0
   24.7821  -22.8859  -15.0121 C   0  0  0  0  0  0  0  0  0  0  0  0
   25.6814  -21.7191  -14.7986 C   0  0  1  0  0  0  0  0  0  0  0  0
   26.1224  -21.2277  -16.1834 C   0  0  0  0  0  0  0  0  0  0  0  0
   25.0470  -20.5366  -14.1145 C   0  0  2  0  0  0  0  0  0  0  0  0
   24.5884  -21.0559  -12.8173 N   0  0  0  0  0  0  0  0  0  0  0  0
   23.9219  -19.9433  -14.8349 C   0  0  0  0  0  0  0  0  0  0  0  0
   22.7740  -20.4737  -14.6494 O   0  0  0  0  0  0  0  0  0  0  0  0
   23.9759  -18.8545  -15.7045 N   0  0  0  0  0  0  0  0  0  0  0  0
   22.7649  -18.3749  -16.3563 C   0  0  1  0  0  0  0  0  0  0  0  0
   22.8539  -16.9318  -16.7021 C   0  0  0  0  0  0  0  0  0  0  0  0
   21.6262  -16.4485  -17.3893 C   0  0  0  0  0  0  0  0  0  0  0  0
   21.9056  -15.2124  -18.2523 C   0  0  0  0  0  0  0  0  0  0  0  0
   20.6658  -14.7310  -18.9560 C   0  0  0  0  0  0  0  0  0  0  0  0
   20.9655  -13.6183  -19.8529 N   0  0  0  0  0  0  0  0  0  0  0  0
   22.4582  -19.1881  -17.5531 C   0  0  0  0  0  0  0  0  0  0  0  0
   23.5587  -19.5975  -18.3396 O   0  0  0  0  0  0  0  0  0  0  0  0
   21.3557  -19.5577  -17.9560 O   0  0  0  0  0  0  0  0  0  0  0  0
  2  3  2  0
  2  1  1  0
  4  3  1  0
  5  4  2  0
  6  5  1  0
  7  6  1  0
  7  8  1  1
  9  7  1  0
  9 10  2  0
 11  5  1  0
 11 12  2  0
 12  2  1  0
 14 13  1  6
 14 16  1  0
 15 14  1  0
 16 17  1  1
 17  9  1  0
 18 16  1  0
 19 18  2  0
 20 18  1  0
 21 20  1  0
 21 27  1  0
 21 22  1  6
 23 22  1  0
 24 23  1  0
 25 24  1  0
 26 25  1  0
 27 28  1  0
 29 27  2  0
M  END
$$$$
