YVK.pdb
     RDKit          3D

 29 29  0  0  1  0  0  0  0  0999 V2000
   20.4183  -12.5714  -17.9009 O   0  0  0  0  0  0  0  0  0  0  0  0
   20.2980  -13.9051  -17.4795 C   0  0  0  0  0  0  0  0  0  0  0  0
   20.3235  -14.9458  -18.3942 C   0  0  0  0  0  0  0  0  0  0  0  0
   20.2043  -16.2599  -17.9722 C   0  0  0  0  0  0  0  0  0  0  0  0
   20.0582  -16.5545  -16.6341 C   0  0  0  0  0  0  0  0  0  0  0  0
   19.9346  -17.9468  -16.1928 C   0  0  0  0  0  0  0  0  0  0  0  0
   21.1469  -18.4131  -15.4275 C   0  0  2  0  0  0  0  0  0  0  0  0
   22.2089  -18.5737  -16.3989 N   0  0  0  0  0  0  0  0  0  0  0  0
   20.9725  -19.6441  -14.6683 C   0  0  0  0  0  0  0  0  0  0  0  0
   21.2036  -20.7563  -15.2376 O   0  0  0  0  0  0  0  0  0  0  0  0
   20.0321  -15.5373  -15.7264 C   0  0  0  0  0  0  0  0  0  0  0  0
   20.1514  -14.2198  -16.1480 C   0  0  0  0  0  0  0  0  0  0  0  0
   22.5830  -20.1785  -11.3207 C   0  0  0  0  0  0  0  0  0  0  0  0
   21.1714  -20.6434  -11.2374 C   0  0  1  0  0  0  0  0  0  0  0  0
   20.3499  -19.4923  -10.6425 C   0  0  0  0  0  0  0  0  0  0  0  0
   20.5283  -20.9818  -12.5567 C   0  0  2  0  0  0  0  0  0  0  0  0
   20.5619  -19.7268  -13.3227 N   0  0  0  0  0  0  0  0  0  0  0  0
   19.1523  -21.4656  -12.4612 C   0  0  0  0  0  0  0  0  0  0  0  0
   18.2247  -20.5954  -12.5877 O   0  0  0  0  0  0  0  0  0  0  0  0
   18.7500  -22.7834  -12.2465 N   0  0  0  0  0  0  0  0  0  0  0  0
   17.3349  -23.1106  -12.1384 C   0  0  1  0  0  0  0  0  0  0  0  0
   17.0743  -24.5487  -12.4103 C   0  0  0  0  0  0  0  0  0  0  0  0
   15.6237  -24.8267  -12.5876 C   0  0  0  0  0  0  0  0  0  0  0  0
   15.3622  -26.3012  -12.9163 C   0  0  0  0  0  0  0  0  0  0  0  0
   13.9294  -26.5401  -13.3090 C   0  0  0  0  0  0  0  0  0  0  0  0
   13.7226  -27.9197  -13.7405 N   0  0  0  0  0  0  0  0  0  0  0  0
   16.8074  -22.7184  -10.8133 C   0  0  0  0  0  0  0  0  0  0  0  0
   15.4902  -22.2074  -10.7821 O   0  0  0  0  0  0  0  0  0  0  0  0
   17.3749  -22.7806   -9.7231 O   0  0  0  0  0  0  0  0  0  0  0  0
  2  3  2  0
  2  1  1  0
  4  3  1  0
  5  4  2  0
  6  5  1  0
  7  6  1  0
  7  8  1  6
  9  7  1  0
  9 10  2  0
 11  5  1  0
 11 12  2  0
 12  2  1  0
 14 13  1  6
 14 16  1  0
 15 14  1  0
 16 17  1  6
 17  9  1  0
 18 16  1  0
 19 18  2  0
 20 18  1  0
 21 20  1  0
 21 27  1  0
 21 22  1  1
 23 22  1  0
 24 23  1  0
 25 24  1  0
 26 25  1  0
 27 28  1  0
 29 27  2  0
M  END
$$$$
