YVK.pdb
     RDKit          3D

 29 29  0  0  1  0  0  0  0  0999 V2000
   30.2601  -15.7404  -19.4066 O   0  0  0  0  0  0  0  0  0  0  0  0
   29.3936  -16.5956  -18.7075 C   0  0  0  0  0  0  0  0  0  0  0  0
   28.7263  -17.6206  -19.3589 C   0  0  0  0  0  0  0  0  0  0  0  0
   27.8724  -18.4613  -18.6637 C   0  0  0  0  0  0  0  0  0  0  0  0
   27.6721  -18.2919  -17.3110 C   0  0  0  0  0  0  0  0  0  0  0  0
   26.7691  -19.1855  -16.5798 C   0  0  0  0  0  0  0  0  0  0  0  0
   27.5143  -20.1429  -15.6847 C   0  0  2  0  0  0  0  0  0  0  0  0
   28.2058  -21.0679  -16.5584 N   0  0  0  0  0  0  0  0  0  0  0  0
   26.6931  -20.8749  -14.7298 C   0  0  0  0  0  0  0  0  0  0  0  0
   26.1071  -21.9368  -15.1088 O   0  0  0  0  0  0  0  0  0  0  0  0
   28.3242  -17.2862  -16.6611 C   0  0  0  0  0  0  0  0  0  0  0  0
   29.1803  -16.4429  -17.3567 C   0  0  0  0  0  0  0  0  0  0  0  0
   26.1572  -19.4461  -10.7903 C   0  0  0  0  0  0  0  0  0  0  0  0
   26.0390  -20.8971  -11.1005 C   0  0  1  0  0  0  0  0  0  0  0  0
   25.0015  -21.4837  -10.1344 C   0  0  0  0  0  0  0  0  0  0  0  0
   25.5510  -21.2189  -12.4887 C   0  0  2  0  0  0  0  0  0  0  0  0
   26.4786  -20.5124  -13.3850 N   0  0  0  0  0  0  0  0  0  0  0  0
   24.1787  -20.8001  -12.7680 C   0  0  0  0  0  0  0  0  0  0  0  0
   24.0154  -19.6062  -13.1940 O   0  0  0  0  0  0  0  0  0  0  0  0
   23.0287  -21.5741  -12.6168 N   0  0  0  0  0  0  0  0  0  0  0  0
   21.7228  -21.0215  -12.9492 C   0  0  1  0  0  0  0  0  0  0  0  0
   21.2785  -21.4242  -14.3095 C   0  0  0  0  0  0  0  0  0  0  0  0
   21.0655  -22.8929  -14.4123 C   0  0  0  0  0  0  0  0  0  0  0  0
   20.5972  -23.3040  -15.8131 C   0  0  0  0  0  0  0  0  0  0  0  0
   20.3917  -24.7908  -15.9191 C   0  0  0  0  0  0  0  0  0  0  0  0
   19.9836  -25.1732  -17.2680 N   0  0  0  0  0  0  0  0  0  0  0  0
   20.7198  -21.4012  -11.9307 C   0  0  0  0  0  0  0  0  0  0  0  0
   19.4685  -20.7480  -11.9998 O   0  0  0  0  0  0  0  0  0  0  0  0
   20.8367  -22.2218  -11.0210 O   0  0  0  0  0  0  0  0  0  0  0  0
  2  3  2  0
  2  1  1  0
  4  3  1  0
  5  4  2  0
  6  5  1  0
  7  6  1  0
  7  8  1  6
  9  7  1  0
  9 10  2  0
 11  5  1  0
 11 12  2  0
 12  2  1  0
 14 13  1  6
 14 16  1  0
 15 14  1  0
 16 17  1  6
 17  9  1  0
 18 16  1  0
 19 18  2  0
 20 18  1  0
 21 20  1  0
 21 27  1  0
 21 22  1  6
 23 22  1  0
 24 23  1  0
 25 24  1  0
 26 25  1  0
 27 28  1  0
 29 27  2  0
M  END
$$$$
