YVK.pdb
     RDKit          3D

 29 29  0  0  1  0  0  0  0  0999 V2000
   28.7256  -24.6598  -17.6543 O   0  0  0  0  0  0  0  0  0  0  0  0
   27.8461  -23.9959  -16.7846 C   0  0  0  0  0  0  0  0  0  0  0  0
   28.0749  -22.6824  -16.4068 C   0  0  0  0  0  0  0  0  0  0  0  0
   27.2034  -22.0325  -15.5482 C   0  0  0  0  0  0  0  0  0  0  0  0
   26.0929  -22.6822  -15.0549 C   0  0  0  0  0  0  0  0  0  0  0  0
   25.1729  -21.9892  -14.1483 C   0  0  0  0  0  0  0  0  0  0  0  0
   23.8775  -21.6171  -14.8241 C   0  0  2  0  0  0  0  0  0  0  0  0
   24.1999  -20.5891  -15.7919 N   0  0  0  0  0  0  0  0  0  0  0  0
   22.8189  -21.1548  -13.9367 C   0  0  0  0  0  0  0  0  0  0  0  0
   22.7297  -19.9136  -13.6792 O   0  0  0  0  0  0  0  0  0  0  0  0
   25.8591  -23.9747  -15.4209 C   0  0  0  0  0  0  0  0  0  0  0  0
   26.7319  -24.6273  -16.2814 C   0  0  0  0  0  0  0  0  0  0  0  0
   20.7346  -19.5779  -14.2507 C   0  0  0  0  0  0  0  0  0  0  0  0
   19.9391  -20.6112  -13.5330 C   0  0  1  0  0  0  0  0  0  0  0  0
   19.3993  -21.5827  -14.5906 C   0  0  0  0  0  0  0  0  0  0  0  0
   20.7134  -21.4480  -12.5486 C   0  0  2  0  0  0  0  0  0  0  0  0
   21.8525  -21.9723  -13.3171 N   0  0  0  0  0  0  0  0  0  0  0  0
   19.9617  -22.5557  -11.9617 C   0  0  0  0  0  0  0  0  0  0  0  0
   19.8410  -23.6114  -12.6720 O   0  0  0  0  0  0  0  0  0  0  0  0
   19.3631  -22.5761  -10.7024 N   0  0  0  0  0  0  0  0  0  0  0  0
   18.7005  -23.7816  -10.2239 C   0  0  1  0  0  0  0  0  0  0  0  0
   18.6139  -23.8169   -8.7403 C   0  0  0  0  0  0  0  0  0  0  0  0
   17.9237  -25.0414   -8.2530 C   0  0  0  0  0  0  0  0  0  0  0  0
   17.8080  -25.0600   -6.7243 C   0  0  0  0  0  0  0  0  0  0  0  0
   17.0142  -26.2425   -6.2389 C   0  0  0  0  0  0  0  0  0  0  0  0
   16.7231  -26.1339   -4.8121 N   0  0  0  0  0  0  0  0  0  0  0  0
   17.3610  -23.9198  -10.8358 C   0  0  0  0  0  0  0  0  0  0  0  0
   16.9755  -25.2213  -11.2287 O   0  0  0  0  0  0  0  0  0  0  0  0
   16.5305  -23.0370  -11.0489 O   0  0  0  0  0  0  0  0  0  0  0  0
  2  3  2  0
  2  1  1  0
  4  3  1  0
  5  4  2  0
  6  5  1  0
  7  6  1  0
  7  8  1  6
  9  7  1  0
  9 10  2  0
 11  5  1  0
 11 12  2  0
 12  2  1  0
 14 13  1  6
 14 16  1  0
 15 14  1  0
 16 17  1  6
 17  9  1  0
 18 16  1  0
 19 18  2  0
 20 18  1  0
 21 20  1  0
 21 27  1  0
 21 22  1  1
 23 22  1  0
 24 23  1  0
 25 24  1  0
 26 25  1  0
 27 28  1  0
 29 27  2  0
M  END
$$$$
