YVK.pdb
     RDKit          3D

 29 29  0  0  1  0  0  0  0  0999 V2000
   24.9849  -18.9609  -21.2098 O   0  0  0  0  0  0  0  0  0  0  0  0
   24.6234  -19.0792  -19.8585 C   0  0  0  0  0  0  0  0  0  0  0  0
   24.3927  -20.3215  -19.2894 C   0  0  0  0  0  0  0  0  0  0  0  0
   24.0362  -20.4318  -17.9553 C   0  0  0  0  0  0  0  0  0  0  0  0
   23.9050  -19.3067  -17.1708 C   0  0  0  0  0  0  0  0  0  0  0  0
   23.5295  -19.4293  -15.7592 C   0  0  0  0  0  0  0  0  0  0  0  0
   22.0371  -19.3597  -15.5572 C   0  0  2  0  0  0  0  0  0  0  0  0
   21.6517  -17.9874  -15.8131 N   0  0  0  0  0  0  0  0  0  0  0  0
   21.5632  -19.7763  -14.2442 C   0  0  0  0  0  0  0  0  0  0  0  0
   21.7512  -19.0080  -13.2497 O   0  0  0  0  0  0  0  0  0  0  0  0
   24.1300  -18.0798  -17.7216 C   0  0  0  0  0  0  0  0  0  0  0  0
   24.4873  -17.9678  -19.0587 C   0  0  0  0  0  0  0  0  0  0  0  0
   19.8035  -18.8627  -12.6570 C   0  0  0  0  0  0  0  0  0  0  0  0
   19.3657  -20.2454  -12.3219 C   0  0  1  0  0  0  0  0  0  0  0  0
   18.1292  -20.5488  -13.1780 C   0  0  0  0  0  0  0  0  0  0  0  0
   20.3668  -21.3278  -12.6296 C   0  0  2  0  0  0  0  0  0  0  0  0
   20.8945  -20.9834  -13.9585 N   0  0  0  0  0  0  0  0  0  0  0  0
   19.8173  -22.6821  -12.6520 C   0  0  0  0  0  0  0  0  0  0  0  0
   19.1472  -23.0157  -13.6880 O   0  0  0  0  0  0  0  0  0  0  0  0
   19.9519  -23.6479  -11.6552 N   0  0  0  0  0  0  0  0  0  0  0  0
   19.4622  -25.0020  -11.8740 C   0  0  1  0  0  0  0  0  0  0  0  0
   20.2858  -26.0133  -11.1606 C   0  0  0  0  0  0  0  0  0  0  0  0
   19.7776  -27.3949  -11.3746 C   0  0  0  0  0  0  0  0  0  0  0  0
   20.6452  -28.4380  -10.6604 C   0  0  0  0  0  0  0  0  0  0  0  0
   20.2649  -29.8410  -11.0491 C   0  0  0  0  0  0  0  0  0  0  0  0
   21.0849  -30.8245  -10.3474 N   0  0  0  0  0  0  0  0  0  0  0  0
   18.0384  -25.1117  -11.4888 C   0  0  0  0  0  0  0  0  0  0  0  0
   17.3035  -26.1674  -12.0742 O   0  0  0  0  0  0  0  0  0  0  0  0
   17.4050  -24.3937  -10.7157 O   0  0  0  0  0  0  0  0  0  0  0  0
  2  3  2  0
  2  1  1  0
  4  3  1  0
  5  4  2  0
  6  5  1  0
  7  6  1  0
  7  8  1  1
  9  7  1  0
  9 10  2  0
 11  5  1  0
 11 12  2  0
 12  2  1  0
 14 13  1  6
 14 16  1  0
 15 14  1  0
 16 17  1  6
 17  9  1  0
 18 16  1  0
 19 18  2  0
 20 18  1  0
 21 20  1  0
 21 27  1  0
 21 22  1  1
 23 22  1  0
 24 23  1  0
 25 24  1  0
 26 25  1  0
 27 28  1  0
 29 27  2  0
M  END
$$$$
