YVK.pdb
     RDKit          3D

 29 29  0  0  1  0  0  0  0  0999 V2000
   27.9159  -19.0534   -4.3523 O   0  0  0  0  0  0  0  0  0  0  0  0
   27.8237  -19.5812   -5.6498 C   0  0  0  0  0  0  0  0  0  0  0  0
   26.5944  -19.9078   -6.1999 C   0  0  0  0  0  0  0  0  0  0  0  0
   26.5098  -20.4284   -7.4809 C   0  0  0  0  0  0  0  0  0  0  0  0
   27.6481  -20.6304   -8.2305 C   0  0  0  0  0  0  0  0  0  0  0  0
   27.5527  -21.1796   -9.5862 C   0  0  0  0  0  0  0  0  0  0  0  0
   26.2352  -20.8542  -10.2428 C   0  0  2  0  0  0  0  0  0  0  0  0
   25.6073  -22.1216  -10.5538 N   0  0  0  0  0  0  0  0  0  0  0  0
   26.3197  -20.0300  -11.4410 C   0  0  0  0  0  0  0  0  0  0  0  0
   26.1428  -18.7758  -11.3392 O   0  0  0  0  0  0  0  0  0  0  0  0
   28.8623  -20.3121   -7.6981 C   0  0  0  0  0  0  0  0  0  0  0  0
   28.9485  -19.7903   -6.4143 C   0  0  0  0  0  0  0  0  0  0  0  0
   29.1517  -19.4631  -13.5403 C   0  0  0  0  0  0  0  0  0  0  0  0
   28.0477  -19.8298  -14.4690 C   0  0  1  0  0  0  0  0  0  0  0  0
   28.1806  -21.3302  -14.7604 C   0  0  0  0  0  0  0  0  0  0  0  0
   26.6578  -19.6281  -13.9249 C   0  0  2  0  0  0  0  0  0  0  0  0
   26.5882  -20.4996  -12.7423 N   0  0  0  0  0  0  0  0  0  0  0  0
   25.5812  -19.9682  -14.8533 C   0  0  0  0  0  0  0  0  0  0  0  0
   25.2863  -21.2067  -14.9658 O   0  0  0  0  0  0  0  0  0  0  0  0
   24.8422  -19.0752  -15.6287 N   0  0  0  0  0  0  0  0  0  0  0  0
   23.4362  -19.3339  -15.9068 C   0  0  1  0  0  0  0  0  0  0  0  0
   22.6433  -19.4958  -14.6598 C   0  0  0  0  0  0  0  0  0  0  0  0
   21.2064  -19.7549  -14.9447 C   0  0  0  0  0  0  0  0  0  0  0  0
   20.3864  -19.8947  -13.6568 C   0  0  0  0  0  0  0  0  0  0  0  0
   18.9387  -20.1863  -13.9456 C   0  0  0  0  0  0  0  0  0  0  0  0
   18.5637  -21.5171  -13.4759 N   0  0  0  0  0  0  0  0  0  0  0  0
   22.8677  -18.2685  -16.7610 C   0  0  0  0  0  0  0  0  0  0  0  0
   21.6188  -18.5394  -17.3642 O   0  0  0  0  0  0  0  0  0  0  0  0
   23.3483  -17.1648  -17.0165 O   0  0  0  0  0  0  0  0  0  0  0  0
  2  3  2  0
  2  1  1  0
  4  3  1  0
  5  4  2  0
  6  5  1  0
  7  6  1  0
  7  8  1  6
  9  7  1  0
  9 10  2  0
 11  5  1  0
 11 12  2  0
 12  2  1  0
 14 13  1  1
 14 16  1  0
 15 14  1  0
 16 17  1  1
 17  9  1  0
 18 16  1  0
 19 18  2  0
 20 18  1  0
 21 20  1  0
 21 27  1  0
 21 22  1  1
 23 22  1  0
 24 23  1  0
 25 24  1  0
 26 25  1  0
 27 28  1  0
 29 27  2  0
M  END
$$$$
