YVK.pdb
     RDKit          3D

 29 29  0  0  1  0  0  0  0  0999 V2000
   20.0146  -23.5958   -7.1739 O   0  0  0  0  0  0  0  0  0  0  0  0
   20.6787  -22.8205   -8.1375 C   0  0  0  0  0  0  0  0  0  0  0  0
   20.6850  -23.1951   -9.4717 C   0  0  0  0  0  0  0  0  0  0  0  0
   21.3422  -22.4259  -10.4181 C   0  0  0  0  0  0  0  0  0  0  0  0
   22.0015  -21.2740  -10.0481 C   0  0  0  0  0  0  0  0  0  0  0  0
   22.6936  -20.4628  -11.0538 C   0  0  0  0  0  0  0  0  0  0  0  0
   23.9389  -21.1362  -11.5723 C   0  0  2  0  0  0  0  0  0  0  0  0
   24.9121  -21.0801  -10.5013 N   0  0  0  0  0  0  0  0  0  0  0  0
   24.4997  -20.5637  -12.7888 C   0  0  0  0  0  0  0  0  0  0  0  0
   25.1103  -19.4514  -12.7210 O   0  0  0  0  0  0  0  0  0  0  0  0
   22.0010  -20.8970   -8.7377 C   0  0  0  0  0  0  0  0  0  0  0  0
   21.3427  -21.6671   -7.7881 C   0  0  0  0  0  0  0  0  0  0  0  0
   27.1549  -21.8065  -14.6427 C   0  0  0  0  0  0  0  0  0  0  0  0
   26.1184  -21.5293  -15.6745 C   0  0  1  0  0  0  0  0  0  0  0  0
   25.3946  -22.8524  -15.9561 C   0  0  0  0  0  0  0  0  0  0  0  0
   25.0536  -20.5453  -15.2664 C   0  0  2  0  0  0  0  0  0  0  0  0
   24.4319  -21.1395  -14.0733 N   0  0  0  0  0  0  0  0  0  0  0  0
   24.0325  -20.2918  -16.2811 C   0  0  0  0  0  0  0  0  0  0  0  0
   23.1007  -21.1597  -16.3914 O   0  0  0  0  0  0  0  0  0  0  0  0
   23.9728  -19.1958  -17.1413 N   0  0  0  0  0  0  0  0  0  0  0  0
   22.9272  -19.1117  -18.1516 C   0  0  1  0  0  0  0  0  0  0  0  0
   22.3333  -17.7508  -18.2252 C   0  0  0  0  0  0  0  0  0  0  0  0
   20.9706  -17.7064  -17.6302 C   0  0  0  0  0  0  0  0  0  0  0  0
   20.9121  -16.7814  -16.4089 C   0  0  0  0  0  0  0  0  0  0  0  0
   19.5463  -16.7762  -15.7774 C   0  0  0  0  0  0  0  0  0  0  0  0
   19.5293  -15.9678  -14.5615 N   0  0  0  0  0  0  0  0  0  0  0  0
   23.4404  -19.5373  -19.4719 C   0  0  0  0  0  0  0  0  0  0  0  0
   22.5843  -20.3456  -20.2535 O   0  0  0  0  0  0  0  0  0  0  0  0
   24.5291  -19.2750  -19.9822 O   0  0  0  0  0  0  0  0  0  0  0  0
  2  3  2  0
  2  1  1  0
  4  3  1  0
  5  4  2  0
  6  5  1  0
  7  6  1  0
  7  8  1  1
  9  7  1  0
  9 10  2  0
 11  5  1  0
 11 12  2  0
 12  2  1  0
 14 13  1  1
 14 16  1  0
 15 14  1  0
 16 17  1  1
 17  9  1  0
 18 16  1  0
 19 18  2  0
 20 18  1  0
 21 20  1  0
 21 27  1  0
 21 22  1  6
 23 22  1  0
 24 23  1  0
 25 24  1  0
 26 25  1  0
 27 28  1  0
 29 27  2  0
M  END
$$$$
