YVK.pdb
     RDKit          3D

 29 29  0  0  1  0  0  0  0  0999 V2000
   28.7793  -18.6637   -5.2799 O   0  0  0  0  0  0  0  0  0  0  0  0
   28.3909  -19.0815   -6.5625 C   0  0  0  0  0  0  0  0  0  0  0  0
   28.9324  -20.2219   -7.1342 C   0  0  0  0  0  0  0  0  0  0  0  0
   28.5451  -20.6292   -8.4004 C   0  0  0  0  0  0  0  0  0  0  0  0
   27.6138  -19.9063   -9.1135 C   0  0  0  0  0  0  0  0  0  0  0  0
   27.2061  -20.3428  -10.4521 C   0  0  0  0  0  0  0  0  0  0  0  0
   25.7520  -20.7376  -10.5057 C   0  0  2  0  0  0  0  0  0  0  0  0
   25.5956  -21.8530   -9.5954 N   0  0  0  0  0  0  0  0  0  0  0  0
   25.2486  -21.0941  -11.8254 C   0  0  0  0  0  0  0  0  0  0  0  0
   25.5481  -22.2288  -12.3126 O   0  0  0  0  0  0  0  0  0  0  0  0
   27.0751  -18.7828   -8.5595 C   0  0  0  0  0  0  0  0  0  0  0  0
   27.4624  -18.3734   -7.2905 C   0  0  0  0  0  0  0  0  0  0  0  0
   22.3850  -21.6888  -11.8947 C   0  0  0  0  0  0  0  0  0  0  0  0
   22.8030  -21.8431  -13.3150 C   0  0  1  0  0  0  0  0  0  0  0  0
   21.5329  -21.7643  -14.1720 C   0  0  0  0  0  0  0  0  0  0  0  0
   23.7270  -20.7718  -13.8320 C   0  0  2  0  0  0  0  0  0  0  0  0
   24.4355  -20.2811  -12.6403 N   0  0  0  0  0  0  0  0  0  0  0  0
   23.0590  -19.6583  -14.5031 C   0  0  0  0  0  0  0  0  0  0  0  0
   22.3423  -18.8914  -13.7738 O   0  0  0  0  0  0  0  0  0  0  0  0
   23.1262  -19.3481  -15.8610 N   0  0  0  0  0  0  0  0  0  0  0  0
   22.4671  -18.1555  -16.3751 C   0  0  1  0  0  0  0  0  0  0  0  0
   22.8994  -17.8349  -17.7608 C   0  0  0  0  0  0  0  0  0  0  0  0
   22.2583  -16.5926  -18.2695 C   0  0  0  0  0  0  0  0  0  0  0  0
   23.0927  -15.9316  -19.3729 C   0  0  0  0  0  0  0  0  0  0  0  0
   22.4407  -14.6783  -19.8908 C   0  0  0  0  0  0  0  0  0  0  0  0
   23.1456  -14.1601  -21.0600 N   0  0  0  0  0  0  0  0  0  0  0  0
   20.9967  -18.2967  -16.2986 C   0  0  0  0  0  0  0  0  0  0  0  0
   20.2661  -17.1365  -15.9563 O   0  0  0  0  0  0  0  0  0  0  0  0
   20.3211  -19.3060  -16.4970 O   0  0  0  0  0  0  0  0  0  0  0  0
  2  3  2  0
  2  1  1  0
  4  3  1  0
  5  4  2  0
  6  5  1  0
  7  6  1  0
  7  8  1  1
  9  7  1  0
  9 10  2  0
 11  5  1  0
 11 12  2  0
 12  2  1  0
 14 13  1  1
 14 16  1  0
 15 14  1  0
 16 17  1  1
 17  9  1  0
 18 16  1  0
 19 18  2  0
 20 18  1  0
 21 20  1  0
 21 27  1  0
 21 22  1  6
 23 22  1  0
 24 23  1  0
 25 24  1  0
 26 25  1  0
 27 28  1  0
 29 27  2  0
M  END
$$$$
