YVK.pdb
     RDKit          3D

 29 29  0  0  1  0  0  0  0  0999 V2000
   27.4521  -19.0959   -6.3976 O   0  0  0  0  0  0  0  0  0  0  0  0
   26.9301  -19.5232   -7.6287 C   0  0  0  0  0  0  0  0  0  0  0  0
   26.9123  -18.6776   -8.7265 C   0  0  0  0  0  0  0  0  0  0  0  0
   26.3958  -19.1050   -9.9388 C   0  0  0  0  0  0  0  0  0  0  0  0
   25.8904  -20.3797  -10.0735 C   0  0  0  0  0  0  0  0  0  0  0  0
   25.3469  -20.8275  -11.3590 C   0  0  0  0  0  0  0  0  0  0  0  0
   23.9339  -20.3497  -11.5792 C   0  0  2  0  0  0  0  0  0  0  0  0
   23.1181  -21.0059  -10.5786 N   0  0  0  0  0  0  0  0  0  0  0  0
   23.3901  -20.5952  -12.9081 C   0  0  0  0  0  0  0  0  0  0  0  0
   22.7345  -21.6634  -13.1172 O   0  0  0  0  0  0  0  0  0  0  0  0
   25.9035  -21.2192   -8.9991 C   0  0  0  0  0  0  0  0  0  0  0  0
   26.4209  -20.7921   -7.7834 C   0  0  0  0  0  0  0  0  0  0  0  0
   23.5389  -17.6038  -15.9524 C   0  0  0  0  0  0  0  0  0  0  0  0
   22.4029  -18.5348  -15.7106 C   0  0  1  0  0  0  0  0  0  0  0  0
   21.6530  -18.6893  -17.0401 C   0  0  0  0  0  0  0  0  0  0  0  0
   22.7928  -19.9254  -15.2830 C   0  0  2  0  0  0  0  0  0  0  0  0
   23.5214  -19.7383  -14.0192 N   0  0  0  0  0  0  0  0  0  0  0  0
   23.6344  -20.6461  -16.2364 C   0  0  0  0  0  0  0  0  0  0  0  0
   24.8877  -20.3983  -16.2019 O   0  0  0  0  0  0  0  0  0  0  0  0
   23.2060  -21.5788  -17.1805 N   0  0  0  0  0  0  0  0  0  0  0  0
   24.0199  -22.7495  -17.4776 C   0  0  1  0  0  0  0  0  0  0  0  0
   24.2707  -23.5744  -16.2666 C   0  0  0  0  0  0  0  0  0  0  0  0
   25.1832  -24.7145  -16.5501 C   0  0  0  0  0  0  0  0  0  0  0  0
   24.4573  -26.0618  -16.4575 C   0  0  0  0  0  0  0  0  0  0  0  0
   25.3963  -27.2178  -16.6722 C   0  0  0  0  0  0  0  0  0  0  0  0
   24.7252  -28.4939  -16.4410 N   0  0  0  0  0  0  0  0  0  0  0  0
   23.4006  -23.5582  -18.5501 C   0  0  0  0  0  0  0  0  0  0  0  0
   24.2592  -24.0132  -19.5762 O   0  0  0  0  0  0  0  0  0  0  0  0
   22.2208  -23.8890  -18.6644 O   0  0  0  0  0  0  0  0  0  0  0  0
  2  3  2  0
  2  1  1  0
  4  3  1  0
  5  4  2  0
  6  5  1  0
  7  6  1  0
  7  8  1  1
  9  7  1  0
  9 10  2  0
 11  5  1  0
 11 12  2  0
 12  2  1  0
 14 13  1  6
 14 16  1  0
 15 14  1  0
 16 17  1  1
 17  9  1  0
 18 16  1  0
 19 18  2  0
 20 18  1  0
 21 20  1  0
 21 27  1  0
 21 22  1  1
 23 22  1  0
 24 23  1  0
 25 24  1  0
 26 25  1  0
 27 28  1  0
 29 27  2  0
M  END
$$$$
