LKM.pdb
     RDKit          3D

 26 25  0  0  1  0  0  0  0  0999 V2000
    8.4373  -11.9876   19.6769 C   0  0  0  0  0  0  0  0  0  0  0  0
    7.8057  -13.0224   18.7728 C   0  0  1  0  0  0  0  0  0  0  0  0
    8.8237  -13.6186   17.8264 C   0  0  0  0  0  0  0  0  0  0  0  0
    7.1137  -14.0832   19.5891 C   0  0  0  0  0  0  0  0  0  0  0  0
    8.1391  -15.0346   20.1561 C   0  0  2  0  0  0  0  0  0  0  0  0
    8.6097  -16.0052   19.2242 N   0  0  0  0  0  0  0  0  0  0  0  0
    7.6353  -15.6579   21.4221 C   0  0  0  0  0  0  0  0  0  0  0  0
    6.9743  -14.9828   22.2451 O   0  0  0  0  0  0  0  0  0  0  0  0
    7.8741  -17.0196   21.7525 N   0  0  0  0  0  0  0  0  0  0  0  0
    7.4818  -17.6255   23.0076 C   0  0  1  0  0  0  0  0  0  0  0  0
    7.7795  -19.1068   23.0314 C   0  0  0  0  0  0  0  0  0  0  0  0
    7.5670  -19.7392   24.3600 C   0  0  0  0  0  0  0  0  0  0  0  0
    6.4197  -20.7196   24.3803 C   0  0  0  0  0  0  0  0  0  0  0  0
    6.2790  -21.3840   25.7354 C   0  0  0  0  0  0  0  0  0  0  0  0
    5.2910  -22.4376   25.7242 N   0  0  0  0  0  0  0  0  0  0  0  0
    8.3090  -17.0223   24.1142 C   0  0  0  0  0  0  0  0  0  0  0  0
    9.5481  -16.9000   23.9337 O   0  0  0  0  0  0  0  0  0  0  0  0
    5.8505  -12.0621   26.4498 C   0  0  0  0  0  0  0  0  0  0  0  0
    7.1410  -12.0681   27.7518 S   0  0  0  0  0  0  0  0  0  0  0  0
    8.2517  -13.4685   27.3397 C   0  0  0  0  0  0  0  0  0  0  0  0
    7.5418  -14.4719   26.4856 C   0  0  0  0  0  0  0  0  0  0  0  0
    8.4248  -15.6059   26.1272 C   0  0  2  0  0  0  0  0  0  0  0  0
    7.7149  -16.6018   25.3275 N   0  0  0  0  0  0  0  0  0  0  0  0
    8.9960  -16.2815   27.2869 C   0  0  0  0  0  0  0  0  0  0  0  0
    9.8959  -15.6719   28.1201 O   0  0  0  0  0  0  0  0  0  0  0  0
    8.6677  -17.4830   27.5573 O   0  0  0  0  0  0  0  0  0  0  0  0
  2  3  1  1
  2  1  1  0
  4  2  1  0
  5  6  1  6
  5  4  1  0
  7  5  1  0
  8  7  2  0
  9  7  1  0
 10  9  1  0
 10 11  1  6
 11 12  1  0
 12 13  1  0
 13 14  1  0
 15 14  1  0
 16 10  1  0
 17 16  2  0
 19 20  1  0
 19 18  1  0
 20 21  1  0
 22 21  1  1
 22 24  1  0
 22 23  1  0
 23 16  1  0
 24 25  1  0
 26 24  2  0
M  END
$$$$
