LKM.pdb
     RDKit          3D

 26 25  0  0  1  0  0  0  0  0999 V2000
    8.1319  -11.8119   18.6382 C   0  0  0  0  0  0  0  0  0  0  0  0
    8.5943  -13.2488   18.5442 C   0  0  1  0  0  0  0  0  0  0  0  0
    9.9542  -13.4302   19.1806 C   0  0  0  0  0  0  0  0  0  0  0  0
    7.5681  -14.1730   19.1470 C   0  0  0  0  0  0  0  0  0  0  0  0
    8.1471  -15.5614   19.2690 C   0  0  2  0  0  0  0  0  0  0  0  0
    7.7488  -16.4510   18.2289 N   0  0  0  0  0  0  0  0  0  0  0  0
    7.8823  -16.1241   20.6323 C   0  0  0  0  0  0  0  0  0  0  0  0
    6.7721  -15.9531   21.1871 O   0  0  0  0  0  0  0  0  0  0  0  0
    8.8548  -16.8667   21.3558 N   0  0  0  0  0  0  0  0  0  0  0  0
    8.6131  -17.4624   22.6532 C   0  0  1  0  0  0  0  0  0  0  0  0
    9.5440  -18.6227   22.9186 C   0  0  0  0  0  0  0  0  0  0  0  0
    9.3916  -19.2152   24.2736 C   0  0  0  0  0  0  0  0  0  0  0  0
   10.2931  -20.4016   24.5136 C   0  0  0  0  0  0  0  0  0  0  0  0
    9.6110  -21.7033   24.1424 C   0  0  0  0  0  0  0  0  0  0  0  0
   10.4863  -22.8409   24.3037 N   0  0  0  0  0  0  0  0  0  0  0  0
    8.9172  -16.4396   23.7181 C   0  0  0  0  0  0  0  0  0  0  0  0
   10.0410  -15.8742   23.6984 O   0  0  0  0  0  0  0  0  0  0  0  0
    6.1347  -10.7644   26.3512 C   0  0  0  0  0  0  0  0  0  0  0  0
    6.0831  -12.1886   27.5043 S   0  0  0  0  0  0  0  0  0  0  0  0
    7.5387  -13.2209   27.0793 C   0  0  0  0  0  0  0  0  0  0  0  0
    7.1731  -14.2560   26.0618 C   0  0  0  0  0  0  0  0  0  0  0  0
    8.3335  -15.1048   25.7053 C   0  0  2  0  0  0  0  0  0  0  0  0
    7.9688  -16.1180   24.7176 N   0  0  0  0  0  0  0  0  0  0  0  0
    8.9254  -15.7844   26.8522 C   0  0  0  0  0  0  0  0  0  0  0  0
    9.7748  -15.1516   27.7203 O   0  0  0  0  0  0  0  0  0  0  0  0
    8.6642  -17.0113   27.0777 O   0  0  0  0  0  0  0  0  0  0  0  0
  2  3  1  1
  2  1  1  0
  4  2  1  0
  5  6  1  6
  5  4  1  0
  7  5  1  0
  8  7  2  0
  9  7  1  0
 10  9  1  0
 10 11  1  1
 11 12  1  0
 12 13  1  0
 13 14  1  0
 15 14  1  0
 16 10  1  0
 17 16  2  0
 19 20  1  0
 19 18  1  0
 20 21  1  0
 22 21  1  1
 22 24  1  0
 22 23  1  0
 23 16  1  0
 24 25  1  0
 26 24  2  0
M  END
$$$$
