LKM.pdb
     RDKit          3D

 26 25  0  0  1  0  0  0  0  0999 V2000
    7.6902  -12.1697   19.0415 C   0  0  0  0  0  0  0  0  0  0  0  0
    8.3023  -13.5511   19.1071 C   0  0  1  0  0  0  0  0  0  0  0  0
    9.7708  -13.4841   19.4622 C   0  0  0  0  0  0  0  0  0  0  0  0
    7.5348  -14.4223   20.0676 C   0  0  0  0  0  0  0  0  0  0  0  0
    8.2613  -15.7320   20.2540 C   0  0  2  0  0  0  0  0  0  0  0  0
    7.9336  -16.7221   19.2823 N   0  0  0  0  0  0  0  0  0  0  0  0
    8.0926  -16.2325   21.6563 C   0  0  0  0  0  0  0  0  0  0  0  0
    7.2255  -15.7335   22.4105 O   0  0  0  0  0  0  0  0  0  0  0  0
    8.8896  -17.2782   22.1967 N   0  0  0  0  0  0  0  0  0  0  0  0
    8.8005  -17.7331   23.5684 C   0  0  1  0  0  0  0  0  0  0  0  0
    9.6092  -18.9893   23.7951 C   0  0  0  0  0  0  0  0  0  0  0  0
    9.5468  -19.4981   25.1907 C   0  0  0  0  0  0  0  0  0  0  0  0
   10.2882  -20.7978   25.3883 C   0  0  0  0  0  0  0  0  0  0  0  0
   10.1706  -21.2944   26.8156 C   0  0  0  0  0  0  0  0  0  0  0  0
   10.9286  -22.5043   27.0343 N   0  0  0  0  0  0  0  0  0  0  0  0
    9.4092  -16.6851   24.4649 C   0  0  0  0  0  0  0  0  0  0  0  0
   10.5896  -16.3157   24.2345 O   0  0  0  0  0  0  0  0  0  0  0  0
    6.2078  -11.8751   26.3005 C   0  0  0  0  0  0  0  0  0  0  0  0
    7.7500  -11.2808   27.0940 S   0  0  0  0  0  0  0  0  0  0  0  0
    8.8708  -12.7320   27.1433 C   0  0  0  0  0  0  0  0  0  0  0  0
    8.3467  -13.8338   26.2763 C   0  0  0  0  0  0  0  0  0  0  0  0
    9.2675  -14.9938   26.2512 C   0  0  2  0  0  0  0  0  0  0  0  0
    8.6786  -16.1262   25.5400 N   0  0  0  0  0  0  0  0  0  0  0  0
    9.6584  -15.4492   27.5807 C   0  0  0  0  0  0  0  0  0  0  0  0
   10.7135  -14.9024   28.2614 O   0  0  0  0  0  0  0  0  0  0  0  0
    9.0163  -16.3900   28.1526 O   0  0  0  0  0  0  0  0  0  0  0  0
  2  3  1  1
  2  1  1  0
  4  2  1  0
  5  6  1  6
  5  4  1  0
  7  5  1  0
  8  7  2  0
  9  7  1  0
 10  9  1  0
 10 11  1  6
 11 12  1  0
 12 13  1  0
 13 14  1  0
 15 14  1  0
 16 10  1  0
 17 16  2  0
 19 20  1  0
 19 18  1  0
 20 21  1  0
 22 21  1  1
 22 24  1  0
 22 23  1  0
 23 16  1  0
 24 25  1  0
 26 24  2  0
M  END
$$$$
