LKM.pdb
     RDKit          3D

 26 25  0  0  1  0  0  0  0  0999 V2000
    7.0971  -12.2919   18.0630 C   0  0  0  0  0  0  0  0  0  0  0  0
    7.9661  -13.4130   18.5876 C   0  0  1  0  0  0  0  0  0  0  0  0
    9.3759  -12.9351   18.8551 C   0  0  0  0  0  0  0  0  0  0  0  0
    7.3446  -14.0323   19.8127 C   0  0  0  0  0  0  0  0  0  0  0  0
    8.2944  -15.0446   20.4052 C   0  0  2  0  0  0  0  0  0  0  0  0
    8.6747  -16.0819   19.5044 N   0  0  0  0  0  0  0  0  0  0  0  0
    7.7541  -15.5807   21.6959 C   0  0  0  0  0  0  0  0  0  0  0  0
    7.1038  -14.8410   22.4702 O   0  0  0  0  0  0  0  0  0  0  0  0
    7.9453  -16.9287   22.1044 N   0  0  0  0  0  0  0  0  0  0  0  0
    7.4095  -17.4835   23.3298 C   0  0  1  0  0  0  0  0  0  0  0  0
    7.5554  -18.9868   23.3744 C   0  0  0  0  0  0  0  0  0  0  0  0
    6.8862  -19.6873   22.2467 C   0  0  0  0  0  0  0  0  0  0  0  0
    5.3983  -19.8502   22.4410 C   0  0  0  0  0  0  0  0  0  0  0  0
    4.7619  -20.5843   21.2775 C   0  0  0  0  0  0  0  0  0  0  0  0
    3.3203  -20.5966   21.3656 N   0  0  0  0  0  0  0  0  0  0  0  0
    8.2153  -16.9578   24.4904 C   0  0  0  0  0  0  0  0  0  0  0  0
    9.4691  -17.0472   24.4351 O   0  0  0  0  0  0  0  0  0  0  0  0
    6.5088  -12.4727   28.7282 C   0  0  0  0  0  0  0  0  0  0  0  0
    6.3178  -12.2674   26.9165 S   0  0  0  0  0  0  0  0  0  0  0  0
    7.2443  -13.6589   26.1615 C   0  0  0  0  0  0  0  0  0  0  0  0
    7.7951  -14.5626   27.2199 C   0  0  0  0  0  0  0  0  0  0  0  0
    8.4357  -15.7627   26.6339 C   0  0  2  0  0  0  0  0  0  0  0  0
    7.5857  -16.3773   25.6166 N   0  0  0  0  0  0  0  0  0  0  0  0
    8.7650  -16.7825   27.6236 C   0  0  0  0  0  0  0  0  0  0  0  0
    9.7481  -16.6038   28.5601 O   0  0  0  0  0  0  0  0  0  0  0  0
    8.1350  -17.8903   27.6393 O   0  0  0  0  0  0  0  0  0  0  0  0
  2  3  1  1
  2  1  1  0
  4  2  1  0
  5  6  1  6
  5  4  1  0
  7  5  1  0
  8  7  2  0
  9  7  1  0
 10  9  1  0
 10 11  1  6
 11 12  1  0
 12 13  1  0
 13 14  1  0
 15 14  1  0
 16 10  1  0
 17 16  2  0
 19 20  1  0
 19 18  1  0
 20 21  1  0
 22 21  1  1
 22 24  1  0
 22 23  1  0
 23 16  1  0
 24 25  1  0
 26 24  2  0
M  END
$$$$
