LKM.pdb
     RDKit          3D

 26 25  0  0  1  0  0  0  0  0999 V2000
    6.9950  -12.4154   18.8245 C   0  0  0  0  0  0  0  0  0  0  0  0
    8.0444  -13.4998   18.9260 C   0  0  1  0  0  0  0  0  0  0  0  0
    9.4390  -12.9148   18.9314 C   0  0  0  0  0  0  0  0  0  0  0  0
    7.7958  -14.3619   20.1366 C   0  0  0  0  0  0  0  0  0  0  0  0
    8.9791  -15.2712   20.3618 C   0  0  2  0  0  0  0  0  0  0  0  0
    9.0970  -16.3201   19.4038 N   0  0  0  0  0  0  0  0  0  0  0  0
    8.9894  -15.7824   21.7703 C   0  0  0  0  0  0  0  0  0  0  0  0
    8.1028  -15.4297   22.5823 O   0  0  0  0  0  0  0  0  0  0  0  0
    9.9839  -16.6762   22.2528 N   0  0  0  0  0  0  0  0  0  0  0  0
    9.9581  -17.2760   23.5704 C   0  0  1  0  0  0  0  0  0  0  0  0
   11.0837  -18.2667   23.7566 C   0  0  0  0  0  0  0  0  0  0  0  0
   11.0579  -19.3921   22.7855 C   0  0  0  0  0  0  0  0  0  0  0  0
    9.9817  -20.4097   23.0760 C   0  0  0  0  0  0  0  0  0  0  0  0
    9.9792  -21.5257   22.0503 C   0  0  0  0  0  0  0  0  0  0  0  0
   10.9795  -22.5280   22.3351 N   0  0  0  0  0  0  0  0  0  0  0  0
   10.1872  -16.1959   24.5968 C   0  0  0  0  0  0  0  0  0  0  0  0
   11.1694  -15.4250   24.4423 O   0  0  0  0  0  0  0  0  0  0  0  0
    6.2205  -12.0378   26.2299 C   0  0  0  0  0  0  0  0  0  0  0  0
    7.0092  -11.9654   27.8833 S   0  0  0  0  0  0  0  0  0  0  0  0
    8.5209  -12.9964   27.7548 C   0  0  0  0  0  0  0  0  0  0  0  0
    8.3403  -14.0732   26.7311 C   0  0  0  0  0  0  0  0  0  0  0  0
    9.5530  -14.9141   26.6034 C   0  0  2  0  0  0  0  0  0  0  0  0
    9.3245  -16.0462   25.7083 N   0  0  0  0  0  0  0  0  0  0  0  0
   10.0302  -15.4361   27.8792 C   0  0  0  0  0  0  0  0  0  0  0  0
   10.1348  -16.7788   28.1281 O   0  0  0  0  0  0  0  0  0  0  0  0
   10.3652  -14.6387   28.8153 O   0  0  0  0  0  0  0  0  0  0  0  0
  2  3  1  1
  2  1  1  0
  4  2  1  0
  5  6  1  6
  5  4  1  0
  7  5  1  0
  8  7  2  0
  9  7  1  0
 10  9  1  0
 10 11  1  6
 11 12  1  0
 12 13  1  0
 13 14  1  0
 15 14  1  0
 16 10  1  0
 17 16  2  0
 19 20  1  0
 19 18  1  0
 20 21  1  0
 22 21  1  1
 22 24  1  0
 22 23  1  0
 23 16  1  0
 24 25  1  0
 26 24  2  0
M  END
$$$$
