LKM.pdb
     RDKit          3D

 26 25  0  0  1  0  0  0  0  0999 V2000
    7.4972  -12.0558   19.5500 C   0  0  0  0  0  0  0  0  0  0  0  0
    7.8544  -13.5207   19.4327 C   0  0  1  0  0  0  0  0  0  0  0  0
    9.2537  -13.7022   18.8882 C   0  0  0  0  0  0  0  0  0  0  0  0
    7.6770  -14.2141   20.7587 C   0  0  0  0  0  0  0  0  0  0  0  0
    7.9699  -15.6865   20.6029 C   0  0  2  0  0  0  0  0  0  0  0  0
    6.9893  -16.3982   19.8521 N   0  0  0  0  0  0  0  0  0  0  0  0
    8.2321  -16.3150   21.9376 C   0  0  0  0  0  0  0  0  0  0  0  0
    7.3215  -16.3930   22.7947 O   0  0  0  0  0  0  0  0  0  0  0  0
    9.5006  -16.8459   22.2976 N   0  0  0  0  0  0  0  0  0  0  0  0
    9.7977  -17.4147   23.5955 C   0  0  1  0  0  0  0  0  0  0  0  0
   11.0868  -18.2030   23.5795 C   0  0  0  0  0  0  0  0  0  0  0  0
   11.4277  -18.8203   24.8883 C   0  0  0  0  0  0  0  0  0  0  0  0
   12.7002  -19.6312   24.8550 C   0  0  0  0  0  0  0  0  0  0  0  0
   12.9702  -20.2986   26.1888 C   0  0  0  0  0  0  0  0  0  0  0  0
   14.2086  -21.0420   26.1839 N   0  0  0  0  0  0  0  0  0  0  0  0
   10.0153  -16.2910   24.5766 C   0  0  0  0  0  0  0  0  0  0  0  0
   10.8198  -15.3751   24.2655 O   0  0  0  0  0  0  0  0  0  0  0  0
    7.0263  -11.4863   25.8313 C   0  0  0  0  0  0  0  0  0  0  0  0
    7.3044  -11.8527   27.6059 S   0  0  0  0  0  0  0  0  0  0  0  0
    8.7043  -13.0373   27.6519 C   0  0  0  0  0  0  0  0  0  0  0  0
    8.4882  -14.1485   26.6727 C   0  0  0  0  0  0  0  0  0  0  0  0
    9.5951  -15.1321   26.7101 C   0  0  2  0  0  0  0  0  0  0  0  0
    9.3362  -16.2596   25.8175 N   0  0  0  0  0  0  0  0  0  0  0  0
    9.8512  -15.6621   28.0448 C   0  0  0  0  0  0  0  0  0  0  0  0
   10.5023  -14.9381   29.0078 O   0  0  0  0  0  0  0  0  0  0  0  0
    9.4708  -16.8388   28.3532 O   0  0  0  0  0  0  0  0  0  0  0  0
  2  3  1  1
  2  1  1  0
  4  2  1  0
  5  6  1  1
  5  4  1  0
  7  5  1  0
  8  7  2  0
  9  7  1  0
 10  9  1  0
 10 11  1  6
 11 12  1  0
 12 13  1  0
 13 14  1  0
 15 14  1  0
 16 10  1  0
 17 16  2  0
 19 20  1  0
 19 18  1  0
 20 21  1  0
 22 21  1  1
 22 24  1  0
 22 23  1  0
 23 16  1  0
 24 25  1  0
 26 24  2  0
M  END
$$$$
