LKM.pdb
     RDKit          3D

 26 25  0  0  1  0  0  0  0  0999 V2000
    7.3860  -12.3916   17.9485 C   0  0  0  0  0  0  0  0  0  0  0  0
    8.2215  -13.5314   18.4871 C   0  0  1  0  0  0  0  0  0  0  0  0
    9.5485  -13.0361   19.0173 C   0  0  0  0  0  0  0  0  0  0  0  0
    7.4541  -14.2990   19.5323 C   0  0  0  0  0  0  0  0  0  0  0  0
    8.3545  -15.3325   20.1640 C   0  0  2  0  0  0  0  0  0  0  0  0
    8.7298  -16.3912   19.2862 N   0  0  0  0  0  0  0  0  0  0  0  0
    7.7599  -15.8372   21.4434 C   0  0  0  0  0  0  0  0  0  0  0  0
    7.2192  -15.0456   22.2501 O   0  0  0  0  0  0  0  0  0  0  0  0
    7.7760  -17.2118   21.8049 N   0  0  0  0  0  0  0  0  0  0  0  0
    7.2105  -17.7290   23.0334 C   0  0  1  0  0  0  0  0  0  0  0  0
    7.2979  -19.2361   23.0989 C   0  0  0  0  0  0  0  0  0  0  0  0
    6.8148  -19.8089   24.3829 C   0  0  0  0  0  0  0  0  0  0  0  0
    6.9083  -21.3143   24.4404 C   0  0  0  0  0  0  0  0  0  0  0  0
    6.4709  -21.8482   25.7898 C   0  0  0  0  0  0  0  0  0  0  0  0
    5.1167  -22.3498   25.7630 N   0  0  0  0  0  0  0  0  0  0  0  0
    8.0277  -17.2192   24.1931 C   0  0  0  0  0  0  0  0  0  0  0  0
    9.2650  -17.4475   24.1968 O   0  0  0  0  0  0  0  0  0  0  0  0
    5.6595  -12.1824   27.2566 C   0  0  0  0  0  0  0  0  0  0  0  0
    7.4458  -11.8133   27.4408 S   0  0  0  0  0  0  0  0  0  0  0  0
    8.3075  -13.4161   27.2098 C   0  0  0  0  0  0  0  0  0  0  0  0
    7.5319  -14.3047   26.2884 C   0  0  0  0  0  0  0  0  0  0  0  0
    8.2594  -15.5630   26.0027 C   0  0  2  0  0  0  0  0  0  0  0  0
    7.4266  -16.5016   25.2540 N   0  0  0  0  0  0  0  0  0  0  0  0
    8.7352  -16.2400   27.2039 C   0  0  0  0  0  0  0  0  0  0  0  0
    9.8718  -15.8518   27.8619 O   0  0  0  0  0  0  0  0  0  0  0  0
    8.0933  -17.2333   27.6790 O   0  0  0  0  0  0  0  0  0  0  0  0
  2  3  1  1
  2  1  1  0
  4  2  1  0
  5  6  1  6
  5  4  1  0
  7  5  1  0
  8  7  2  0
  9  7  1  0
 10  9  1  0
 10 11  1  6
 11 12  1  0
 12 13  1  0
 13 14  1  0
 15 14  1  0
 16 10  1  0
 17 16  2  0
 19 20  1  0
 19 18  1  0
 20 21  1  0
 22 21  1  1
 22 24  1  0
 22 23  1  0
 23 16  1  0
 24 25  1  0
 26 24  2  0
M  END
$$$$
