LKM.pdb
     RDKit          3D

 26 25  0  0  1  0  0  0  0  0999 V2000
    7.3968  -11.8389   18.9717 C   0  0  0  0  0  0  0  0  0  0  0  0
    8.2774  -13.0577   18.8095 C   0  0  1  0  0  0  0  0  0  0  0  0
    9.6796  -12.7919   19.3099 C   0  0  0  0  0  0  0  0  0  0  0  0
    7.6577  -14.2499   19.4918 C   0  0  0  0  0  0  0  0  0  0  0  0
    8.6029  -15.4241   19.4159 C   0  0  2  0  0  0  0  0  0  0  0  0
    8.3974  -16.2637   18.2824 N   0  0  0  0  0  0  0  0  0  0  0  0
    8.5928  -16.1918   20.7027 C   0  0  0  0  0  0  0  0  0  0  0  0
    7.5244  -16.6681   21.1516 O   0  0  0  0  0  0  0  0  0  0  0  0
    9.7689  -16.4173   21.4686 N   0  0  0  0  0  0  0  0  0  0  0  0
    9.7904  -17.1538   22.7150 C   0  0  1  0  0  0  0  0  0  0  0  0
   11.0564  -17.9651   22.8640 C   0  0  0  0  0  0  0  0  0  0  0  0
   11.1341  -19.1288   21.9420 C   0  0  0  0  0  0  0  0  0  0  0  0
   12.4121  -19.9195   22.0815 C   0  0  0  0  0  0  0  0  0  0  0  0
   12.4632  -21.0729   21.0993 C   0  0  0  0  0  0  0  0  0  0  0  0
   13.7449  -21.7387   21.1090 N   0  0  0  0  0  0  0  0  0  0  0  0
    9.7962  -16.1697   23.8570 C   0  0  0  0  0  0  0  0  0  0  0  0
   10.7287  -15.3270   23.9134 O   0  0  0  0  0  0  0  0  0  0  0  0
    7.2133  -10.7839   26.9752 C   0  0  0  0  0  0  0  0  0  0  0  0
    6.4753  -12.3830   27.4845 S   0  0  0  0  0  0  0  0  0  0  0  0
    7.8426  -13.6036   27.4104 C   0  0  0  0  0  0  0  0  0  0  0  0
    7.7482  -14.4273   26.1643 C   0  0  0  0  0  0  0  0  0  0  0  0
    8.9341  -15.2985   25.9946 C   0  0  2  0  0  0  0  0  0  0  0  0
    8.7826  -16.1864   24.8441 N   0  0  0  0  0  0  0  0  0  0  0  0
    9.2184  -16.1207   27.1655 C   0  0  0  0  0  0  0  0  0  0  0  0
    9.7413  -15.5979   28.3182 O   0  0  0  0  0  0  0  0  0  0  0  0
    8.9857  -17.3736   27.1431 O   0  0  0  0  0  0  0  0  0  0  0  0
  2  3  1  1
  2  1  1  0
  4  2  1  0
  5  6  1  6
  5  4  1  0
  7  5  1  0
  8  7  2  0
  9  7  1  0
 10  9  1  0
 10 11  1  6
 11 12  1  0
 12 13  1  0
 13 14  1  0
 15 14  1  0
 16 10  1  0
 17 16  2  0
 19 20  1  0
 19 18  1  0
 20 21  1  0
 22 21  1  1
 22 24  1  0
 22 23  1  0
 23 16  1  0
 24 25  1  0
 26 24  2  0
M  END
$$$$
