LKM.pdb
     RDKit          3D

 26 25  0  0  1  0  0  0  0  0999 V2000
    7.8677  -12.1579   19.6156 C   0  0  0  0  0  0  0  0  0  0  0  0
    8.0723  -13.6538   19.5268 C   0  0  1  0  0  0  0  0  0  0  0  0
    9.5428  -14.0071   19.5236 C   0  0  0  0  0  0  0  0  0  0  0  0
    7.3324  -14.3536   20.6374 C   0  0  0  0  0  0  0  0  0  0  0  0
    7.6134  -15.8353   20.5775 C   0  0  2  0  0  0  0  0  0  0  0  0
    6.6304  -16.5854   19.8684 N   0  0  0  0  0  0  0  0  0  0  0  0
    7.8636  -16.3794   21.9510 C   0  0  0  0  0  0  0  0  0  0  0  0
    6.9639  -16.3473   22.8223 O   0  0  0  0  0  0  0  0  0  0  0  0
    9.1084  -16.9496   22.3333 N   0  0  0  0  0  0  0  0  0  0  0  0
    9.4014  -17.4240   23.6695 C   0  0  1  0  0  0  0  0  0  0  0  0
   10.6329  -18.2992   23.6953 C   0  0  0  0  0  0  0  0  0  0  0  0
   10.9960  -18.7825   25.0535 C   0  0  0  0  0  0  0  0  0  0  0  0
   12.2280  -19.6542   25.0699 C   0  0  0  0  0  0  0  0  0  0  0  0
   12.5442  -20.1451   26.4686 C   0  0  0  0  0  0  0  0  0  0  0  0
   13.6101  -21.1198   26.4747 N   0  0  0  0  0  0  0  0  0  0  0  0
    9.7218  -16.2380   24.5433 C   0  0  0  0  0  0  0  0  0  0  0  0
   10.5628  -15.4001   24.1266 O   0  0  0  0  0  0  0  0  0  0  0  0
    6.1762  -11.7255   26.2157 C   0  0  0  0  0  0  0  0  0  0  0  0
    6.9066  -11.8713   27.8909 S   0  0  0  0  0  0  0  0  0  0  0  0
    8.4236  -12.8812   27.6819 C   0  0  0  0  0  0  0  0  0  0  0  0
    8.1663  -14.0375   26.7669 C   0  0  0  0  0  0  0  0  0  0  0  0
    9.3902  -14.8422   26.5466 C   0  0  2  0  0  0  0  0  0  0  0  0
    9.0973  -16.0642   25.8009 N   0  0  0  0  0  0  0  0  0  0  0  0
   10.0638  -15.2188   27.7844 C   0  0  0  0  0  0  0  0  0  0  0  0
   10.1199  -16.5151   28.2225 O   0  0  0  0  0  0  0  0  0  0  0  0
   10.6256  -14.3314   28.5064 O   0  0  0  0  0  0  0  0  0  0  0  0
  2  3  1  1
  2  1  1  0
  4  2  1  0
  5  6  1  1
  5  4  1  0
  7  5  1  0
  8  7  2  0
  9  7  1  0
 10  9  1  0
 10 11  1  6
 11 12  1  0
 12 13  1  0
 13 14  1  0
 15 14  1  0
 16 10  1  0
 17 16  2  0
 19 20  1  0
 19 18  1  0
 20 21  1  0
 22 21  1  1
 22 24  1  0
 22 23  1  0
 23 16  1  0
 24 25  1  0
 26 24  2  0
M  END
$$$$
