LKM.pdb
     RDKit          3D

 26 25  0  0  1  0  0  0  0  0999 V2000
    7.2458  -12.0134   19.0157 C   0  0  0  0  0  0  0  0  0  0  0  0
    7.7857  -13.4251   19.0698 C   0  0  1  0  0  0  0  0  0  0  0  0
    9.2917  -13.4315   19.2082 C   0  0  0  0  0  0  0  0  0  0  0  0
    7.1200  -14.2018   20.1763 C   0  0  0  0  0  0  0  0  0  0  0  0
    8.0163  -15.3368   20.6079 C   0  0  2  0  0  0  0  0  0  0  0  0
    8.0858  -16.4106   19.6730 N   0  0  0  0  0  0  0  0  0  0  0  0
    7.6498  -15.8026   21.9841 C   0  0  0  0  0  0  0  0  0  0  0  0
    7.2455  -14.9876   22.8456 O   0  0  0  0  0  0  0  0  0  0  0  0
    7.7387  -17.1650   22.3799 N   0  0  0  0  0  0  0  0  0  0  0  0
    7.3851  -17.6460   23.6990 C   0  0  1  0  0  0  0  0  0  0  0  0
    7.4450  -19.1537   23.7796 C   0  0  0  0  0  0  0  0  0  0  0  0
    6.8831  -19.7090   25.0391 C   0  0  0  0  0  0  0  0  0  0  0  0
    6.8823  -21.2177   25.0809 C   0  0  0  0  0  0  0  0  0  0  0  0
    6.1696  -21.7402   26.3123 C   0  0  0  0  0  0  0  0  0  0  0  0
    6.2752  -23.1757   26.4335 N   0  0  0  0  0  0  0  0  0  0  0  0
    8.4058  -17.1408   24.6867 C   0  0  0  0  0  0  0  0  0  0  0  0
    9.6147  -17.1231   24.3386 O   0  0  0  0  0  0  0  0  0  0  0  0
    6.5615  -11.8713   26.1526 C   0  0  0  0  0  0  0  0  0  0  0  0
    7.8126  -11.7541   27.4875 S   0  0  0  0  0  0  0  0  0  0  0  0
    8.8064  -13.2913   27.3691 C   0  0  0  0  0  0  0  0  0  0  0  0
    8.0270  -14.3730   26.6889 C   0  0  0  0  0  0  0  0  0  0  0  0
    8.8071  -15.6284   26.5901 C   0  0  2  0  0  0  0  0  0  0  0  0
    8.0224  -16.6960   25.9740 N   0  0  0  0  0  0  0  0  0  0  0  0
    9.2912  -16.1098   27.8792 C   0  0  0  0  0  0  0  0  0  0  0  0
   10.2981  -15.4831   28.5639 O   0  0  0  0  0  0  0  0  0  0  0  0
    8.7809  -17.1502   28.4098 O   0  0  0  0  0  0  0  0  0  0  0  0
  2  3  1  1
  2  1  1  0
  4  2  1  0
  5  6  1  6
  5  4  1  0
  7  5  1  0
  8  7  2  0
  9  7  1  0
 10  9  1  0
 10 11  1  6
 11 12  1  0
 12 13  1  0
 13 14  1  0
 15 14  1  0
 16 10  1  0
 17 16  2  0
 19 20  1  0
 19 18  1  0
 20 21  1  0
 22 21  1  1
 22 24  1  0
 22 23  1  0
 23 16  1  0
 24 25  1  0
 26 24  2  0
M  END
$$$$
