LKM.pdb
     RDKit          3D

 26 25  0  0  1  0  0  0  0  0999 V2000
    7.8645  -12.0931   18.7711 C   0  0  0  0  0  0  0  0  0  0  0  0
    8.1092  -13.5844   18.7108 C   0  0  1  0  0  0  0  0  0  0  0  0
    9.5888  -13.8976   18.7023 C   0  0  0  0  0  0  0  0  0  0  0  0
    7.3974  -14.2812   19.8415 C   0  0  0  0  0  0  0  0  0  0  0  0
    7.7147  -15.7563   19.8065 C   0  0  2  0  0  0  0  0  0  0  0  0
    6.9667  -16.4891   18.8393 N   0  0  0  0  0  0  0  0  0  0  0  0
    7.6084  -16.3502   21.1780 C   0  0  0  0  0  0  0  0  0  0  0  0
    6.5465  -16.2489   21.8353 O   0  0  0  0  0  0  0  0  0  0  0  0
    8.6828  -17.0461   21.7961 N   0  0  0  0  0  0  0  0  0  0  0  0
    8.6305  -17.5789   23.1414 C   0  0  1  0  0  0  0  0  0  0  0  0
    9.6036  -18.7194   23.3299 C   0  0  0  0  0  0  0  0  0  0  0  0
    9.6598  -19.2346   24.7234 C   0  0  0  0  0  0  0  0  0  0  0  0
    9.5949  -20.7401   24.8087 C   0  0  0  0  0  0  0  0  0  0  0  0
    9.6130  -21.2176   26.2472 C   0  0  0  0  0  0  0  0  0  0  0  0
   10.9235  -21.0991   26.8428 N   0  0  0  0  0  0  0  0  0  0  0  0
    9.0665  -16.5034   24.1037 C   0  0  0  0  0  0  0  0  0  0  0  0
   10.1057  -15.8475   23.8341 O   0  0  0  0  0  0  0  0  0  0  0  0
    5.9020  -11.7221   26.1982 C   0  0  0  0  0  0  0  0  0  0  0  0
    6.7457  -12.0020   27.8016 S   0  0  0  0  0  0  0  0  0  0  0  0
    8.1222  -13.1592   27.4398 C   0  0  0  0  0  0  0  0  0  0  0  0
    7.6834  -14.2170   26.4760 C   0  0  0  0  0  0  0  0  0  0  0  0
    8.7907  -15.1410   26.1382 C   0  0  2  0  0  0  0  0  0  0  0  0
    8.3314  -16.2323   25.2818 N   0  0  0  0  0  0  0  0  0  0  0  0
    9.4321  -15.7261   27.3104 C   0  0  0  0  0  0  0  0  0  0  0  0
   10.3248  -15.0297   28.0809 O   0  0  0  0  0  0  0  0  0  0  0  0
    9.1750  -16.9268   27.6519 O   0  0  0  0  0  0  0  0  0  0  0  0
  2  3  1  1
  2  1  1  0
  4  2  1  0
  5  6  1  6
  5  4  1  0
  7  5  1  0
  8  7  2  0
  9  7  1  0
 10  9  1  0
 10 11  1  6
 11 12  1  0
 12 13  1  0
 13 14  1  0
 15 14  1  0
 16 10  1  0
 17 16  2  0
 19 20  1  0
 19 18  1  0
 20 21  1  0
 22 21  1  1
 22 24  1  0
 22 23  1  0
 23 16  1  0
 24 25  1  0
 26 24  2  0
M  END
$$$$
