LKM.pdb
     RDKit          3D

 26 25  0  0  1  0  0  0  0  0999 V2000
    7.6803  -12.1293   18.6290 C   0  0  0  0  0  0  0  0  0  0  0  0
    8.1239  -13.5609   18.8311 C   0  0  1  0  0  0  0  0  0  0  0  0
    9.6285  -13.6867   18.7425 C   0  0  0  0  0  0  0  0  0  0  0  0
    7.5947  -14.0973   20.1360 C   0  0  0  0  0  0  0  0  0  0  0  0
    7.9979  -15.5436   20.2894 C   0  0  2  0  0  0  0  0  0  0  0  0
    7.4197  -16.4143   19.3201 N   0  0  0  0  0  0  0  0  0  0  0  0
    7.7555  -16.0117   21.6920 C   0  0  0  0  0  0  0  0  0  0  0  0
    6.8429  -15.5037   22.3840 O   0  0  0  0  0  0  0  0  0  0  0  0
    8.5306  -17.0353   22.3019 N   0  0  0  0  0  0  0  0  0  0  0  0
    8.3067  -17.5233   23.6466 C   0  0  1  0  0  0  0  0  0  0  0  0
    9.0053  -18.8413   23.8874 C   0  0  0  0  0  0  0  0  0  0  0  0
    8.9365  -19.3068   25.2977 C   0  0  0  0  0  0  0  0  0  0  0  0
    8.1828  -20.6037   25.4645 C   0  0  0  0  0  0  0  0  0  0  0  0
    8.0017  -20.9583   26.9270 C   0  0  0  0  0  0  0  0  0  0  0  0
    7.1225  -22.0900   27.1072 N   0  0  0  0  0  0  0  0  0  0  0  0
    8.9186  -16.5497   24.6214 C   0  0  0  0  0  0  0  0  0  0  0  0
   10.0714  -16.1079   24.3788 O   0  0  0  0  0  0  0  0  0  0  0  0
    6.3760  -11.3672   25.7628 C   0  0  0  0  0  0  0  0  0  0  0  0
    7.1239  -11.3611   27.4366 S   0  0  0  0  0  0  0  0  0  0  0  0
    8.2947  -12.7731   27.4594 C   0  0  0  0  0  0  0  0  0  0  0  0
    7.7953  -13.8872   26.5936 C   0  0  0  0  0  0  0  0  0  0  0  0
    8.7595  -15.0103   26.5388 C   0  0  2  0  0  0  0  0  0  0  0  0
    8.2212  -16.1382   25.7816 N   0  0  0  0  0  0  0  0  0  0  0  0
    9.1534  -15.4975   27.8562 C   0  0  0  0  0  0  0  0  0  0  0  0
    8.6186  -16.6312   28.4078 O   0  0  0  0  0  0  0  0  0  0  0  0
   10.0207  -14.8645   28.5428 O   0  0  0  0  0  0  0  0  0  0  0  0
  2  3  1  1
  2  1  1  0
  4  2  1  0
  5  6  1  6
  5  4  1  0
  7  5  1  0
  8  7  2  0
  9  7  1  0
 10  9  1  0
 10 11  1  6
 11 12  1  0
 12 13  1  0
 13 14  1  0
 15 14  1  0
 16 10  1  0
 17 16  2  0
 19 20  1  0
 19 18  1  0
 20 21  1  0
 22 21  1  1
 22 24  1  0
 22 23  1  0
 23 16  1  0
 24 25  1  0
 26 24  2  0
M  END
$$$$
