LKM.pdb
     RDKit          3D

 26 25  0  0  1  0  0  0  0  0999 V2000
    7.6041  -11.9245   18.7746 C   0  0  0  0  0  0  0  0  0  0  0  0
    8.5101  -13.1350   18.8082 C   0  0  1  0  0  0  0  0  0  0  0  0
    9.4235  -13.1034   20.0131 C   0  0  0  0  0  0  0  0  0  0  0  0
    7.6973  -14.4029   18.7568 C   0  0  0  0  0  0  0  0  0  0  0  0
    8.5887  -15.5872   19.0410 C   0  0  2  0  0  0  0  0  0  0  0  0
    8.7029  -16.5029   17.9546 N   0  0  0  0  0  0  0  0  0  0  0  0
    8.1772  -16.2621   20.3140 C   0  0  0  0  0  0  0  0  0  0  0  0
    7.1700  -17.0068   20.3431 O   0  0  0  0  0  0  0  0  0  0  0  0
    8.8910  -16.0985   21.5323 N   0  0  0  0  0  0  0  0  0  0  0  0
    8.7743  -16.9967   22.6619 C   0  0  1  0  0  0  0  0  0  0  0  0
    9.5863  -18.2554   22.4625 C   0  0  0  0  0  0  0  0  0  0  0  0
    8.9784  -19.4642   23.0786 C   0  0  0  0  0  0  0  0  0  0  0  0
    9.7870  -20.7196   22.8590 C   0  0  0  0  0  0  0  0  0  0  0  0
    9.0939  -21.9367   23.4384 C   0  0  0  0  0  0  0  0  0  0  0  0
    9.8972  -23.1306   23.3135 N   0  0  0  0  0  0  0  0  0  0  0  0
    9.3555  -16.3211   23.8778 C   0  0  0  0  0  0  0  0  0  0  0  0
   10.5354  -15.8891   23.8132 O   0  0  0  0  0  0  0  0  0  0  0  0
    6.1680  -11.6269   25.6108 C   0  0  0  0  0  0  0  0  0  0  0  0
    6.9173  -11.8083   27.2741 S   0  0  0  0  0  0  0  0  0  0  0  0
    8.2941  -13.0027   27.0678 C   0  0  0  0  0  0  0  0  0  0  0  0
    7.8866  -14.1285   26.1696 C   0  0  0  0  0  0  0  0  0  0  0  0
    8.9830  -15.1080   25.9900 C   0  0  2  0  0  0  0  0  0  0  0  0
    8.6003  -16.1725   25.0650 N   0  0  0  0  0  0  0  0  0  0  0  0
    9.4136  -15.7276   27.2384 C   0  0  0  0  0  0  0  0  0  0  0  0
   10.1014  -15.0364   28.2000 O   0  0  0  0  0  0  0  0  0  0  0  0
    9.1581  -16.9549   27.4686 O   0  0  0  0  0  0  0  0  0  0  0  0
  2  3  1  1
  2  1  1  0
  4  2  1  0
  5  6  1  6
  5  4  1  0
  7  5  1  0
  8  7  2  0
  9  7  1  0
 10  9  1  0
 10 11  1  6
 11 12  1  0
 12 13  1  0
 13 14  1  0
 15 14  1  0
 16 10  1  0
 17 16  2  0
 19 20  1  0
 19 18  1  0
 20 21  1  0
 22 21  1  1
 22 24  1  0
 22 23  1  0
 23 16  1  0
 24 25  1  0
 26 24  2  0
M  END
$$$$
