LKM.pdb
     RDKit          3D

 26 25  0  0  1  0  0  0  0  0999 V2000
    7.5385  -12.0724   19.5609 C   0  0  0  0  0  0  0  0  0  0  0  0
    7.8673  -13.5103   19.2269 C   0  0  1  0  0  0  0  0  0  0  0  0
    9.3141  -13.6603   18.8129 C   0  0  0  0  0  0  0  0  0  0  0  0
    7.5211  -14.4122   20.3833 C   0  0  0  0  0  0  0  0  0  0  0  0
    7.8561  -15.8405   20.0291 C   0  0  2  0  0  0  0  0  0  0  0  0
    6.7964  -16.5438   19.3853 N   0  0  0  0  0  0  0  0  0  0  0  0
    8.3789  -16.5714   21.2281 C   0  0  0  0  0  0  0  0  0  0  0  0
    7.6263  -16.8260   22.1968 O   0  0  0  0  0  0  0  0  0  0  0  0
    9.7282  -17.0067   21.3308 N   0  0  0  0  0  0  0  0  0  0  0  0
   10.2399  -17.7934   22.4334 C   0  0  1  0  0  0  0  0  0  0  0  0
   11.5119  -18.5188   22.0606 C   0  0  0  0  0  0  0  0  0  0  0  0
   11.2993  -19.6655   21.1385 C   0  0  0  0  0  0  0  0  0  0  0  0
   10.5640  -20.8190   21.7763 C   0  0  0  0  0  0  0  0  0  0  0  0
   10.3303  -21.9447   20.7886 C   0  0  0  0  0  0  0  0  0  0  0  0
    9.5329  -23.0077   21.3546 N   0  0  0  0  0  0  0  0  0  0  0  0
   10.6126  -16.8621   23.5587 C   0  0  0  0  0  0  0  0  0  0  0  0
   11.4271  -15.9335   23.3193 O   0  0  0  0  0  0  0  0  0  0  0  0
    9.1243  -12.2284   29.3660 C   0  0  0  0  0  0  0  0  0  0  0  0
    8.4724  -13.2184   27.9674 S   0  0  0  0  0  0  0  0  0  0  0  0
    9.8439  -14.3290   27.4671 C   0  0  0  0  0  0  0  0  0  0  0  0
    9.4514  -15.1508   26.2793 C   0  0  0  0  0  0  0  0  0  0  0  0
   10.5158  -16.1098   25.9031 C   0  0  2  0  0  0  0  0  0  0  0  0
   10.0651  -17.0212   24.8536 N   0  0  0  0  0  0  0  0  0  0  0  0
   10.9922  -16.9122   27.0242 C   0  0  0  0  0  0  0  0  0  0  0  0
   11.8942  -16.4332   27.9367 O   0  0  0  0  0  0  0  0  0  0  0  0
   10.5749  -18.1058   27.1838 O   0  0  0  0  0  0  0  0  0  0  0  0
  2  3  1  1
  2  1  1  0
  4  2  1  0
  5  6  1  1
  5  4  1  0
  7  5  1  0
  8  7  2  0
  9  7  1  0
 10  9  1  0
 10 11  1  6
 11 12  1  0
 12 13  1  0
 13 14  1  0
 15 14  1  0
 16 10  1  0
 17 16  2  0
 19 20  1  0
 19 18  1  0
 20 21  1  0
 22 21  1  1
 22 24  1  0
 22 23  1  0
 23 16  1  0
 24 25  1  0
 26 24  2  0
M  END
$$$$
