LKM.pdb
     RDKit          3D

 26 25  0  0  1  0  0  0  0  0999 V2000
    6.2800  -22.5779   25.8551 C   0  0  0  0  0  0  0  0  0  0  0  0
    5.8357  -21.8981   24.5793 C   0  0  1  0  0  0  0  0  0  0  0  0
    4.3394  -21.6788   24.5669 C   0  0  0  0  0  0  0  0  0  0  0  0
    6.5905  -20.6094   24.3785 C   0  0  0  0  0  0  0  0  0  0  0  0
    6.1989  -19.9942   23.0571 C   0  0  2  0  0  0  0  0  0  0  0  0
    6.1834  -20.9149   21.9690 N   0  0  0  0  0  0  0  0  0  0  0  0
    7.0381  -18.7866   22.7695 C   0  0  0  0  0  0  0  0  0  0  0  0
    8.2613  -18.7818   23.0412 O   0  0  0  0  0  0  0  0  0  0  0  0
    6.5048  -17.6055   22.1855 N   0  0  0  0  0  0  0  0  0  0  0  0
    7.2767  -16.4035   21.9492 C   0  0  1  0  0  0  0  0  0  0  0  0
    6.4889  -15.3765   21.1695 C   0  0  0  0  0  0  0  0  0  0  0  0
    7.2678  -14.1571   20.8278 C   0  0  0  0  0  0  0  0  0  0  0  0
    7.3162  -13.8726   19.3464 C   0  0  0  0  0  0  0  0  0  0  0  0
    8.1448  -12.6402   19.0429 C   0  0  0  0  0  0  0  0  0  0  0  0
    8.2818  -12.4134   17.6231 N   0  0  0  0  0  0  0  0  0  0  0  0
    7.5881  -15.7611   23.2770 C   0  0  0  0  0  0  0  0  0  0  0  0
    6.6646  -15.6697   24.1265 O   0  0  0  0  0  0  0  0  0  0  0  0
    6.1706  -11.1354   26.6088 C   0  0  0  0  0  0  0  0  0  0  0  0
    6.4219  -12.7810   27.3767 S   0  0  0  0  0  0  0  0  0  0  0  0
    8.0176  -13.3967   26.7138 C   0  0  0  0  0  0  0  0  0  0  0  0
    7.8134  -14.0857   25.4008 C   0  0  0  0  0  0  0  0  0  0  0  0
    9.0882  -14.6021   24.8512 C   0  0  2  0  0  0  0  0  0  0  0  0
    8.8831  -15.2712   23.5684 N   0  0  0  0  0  0  0  0  0  0  0  0
    9.7656  -15.5356   25.7443 C   0  0  0  0  0  0  0  0  0  0  0  0
   10.5342  -15.1152   26.7969 O   0  0  0  0  0  0  0  0  0  0  0  0
    9.6598  -16.7924   25.5610 O   0  0  0  0  0  0  0  0  0  0  0  0
  2  3  1  1
  2  1  1  0
  4  2  1  0
  5  6  1  6
  5  4  1  0
  7  5  1  0
  8  7  2  0
  9  7  1  0
 10  9  1  0
 10 11  1  6
 11 12  1  0
 12 13  1  0
 13 14  1  0
 15 14  1  0
 16 10  1  0
 17 16  2  0
 19 20  1  0
 19 18  1  0
 20 21  1  0
 22 21  1  1
 22 24  1  0
 22 23  1  0
 23 16  1  0
 24 25  1  0
 26 24  2  0
M  END
$$$$
