LKM.pdb
     RDKit          3D

 26 25  0  0  1  0  0  0  0  0999 V2000
    7.8852  -12.0137   19.4610 C   0  0  0  0  0  0  0  0  0  0  0  0
    8.0549  -13.5148   19.3884 C   0  0  1  0  0  0  0  0  0  0  0  0
    9.4775  -13.8897   19.0374 C   0  0  0  0  0  0  0  0  0  0  0  0
    7.6095  -14.1583   20.6761 C   0  0  0  0  0  0  0  0  0  0  0  0
    7.8097  -15.6518   20.5912 C   0  0  2  0  0  0  0  0  0  0  0  0
    6.7720  -16.3389   19.8961 N   0  0  0  0  0  0  0  0  0  0  0  0
    8.0620  -16.2272   21.9515 C   0  0  0  0  0  0  0  0  0  0  0  0
    7.1720  -16.1923   22.8327 O   0  0  0  0  0  0  0  0  0  0  0  0
    9.2979  -16.8312   22.3097 N   0  0  0  0  0  0  0  0  0  0  0  0
    9.5759  -17.3830   23.6192 C   0  0  1  0  0  0  0  0  0  0  0  0
   10.7982  -18.2712   23.6043 C   0  0  0  0  0  0  0  0  0  0  0  0
   11.1707  -18.8000   24.9429 C   0  0  0  0  0  0  0  0  0  0  0  0
   12.3613  -19.7272   24.9109 C   0  0  0  0  0  0  0  0  0  0  0  0
   12.6932  -20.2551   26.2924 C   0  0  0  0  0  0  0  0  0  0  0  0
   13.7622  -21.2259   26.2609 N   0  0  0  0  0  0  0  0  0  0  0  0
    9.9016  -16.2515   24.5606 C   0  0  0  0  0  0  0  0  0  0  0  0
   10.6668  -15.3392   24.1544 O   0  0  0  0  0  0  0  0  0  0  0  0
    5.8558  -12.7065   27.3927 C   0  0  0  0  0  0  0  0  0  0  0  0
    7.4016  -11.7379   27.5749 S   0  0  0  0  0  0  0  0  0  0  0  0
    8.7506  -12.9762   27.6816 C   0  0  0  0  0  0  0  0  0  0  0  0
    8.5423  -14.0715   26.6830 C   0  0  0  0  0  0  0  0  0  0  0  0
    9.6633  -15.0397   26.6928 C   0  0  2  0  0  0  0  0  0  0  0  0
    9.3645  -16.2089   25.8689 N   0  0  0  0  0  0  0  0  0  0  0  0
   10.0110  -15.5065   28.0303 C   0  0  0  0  0  0  0  0  0  0  0  0
   10.7293  -14.7407   28.9096 O   0  0  0  0  0  0  0  0  0  0  0  0
    9.6505  -16.6649   28.4209 O   0  0  0  0  0  0  0  0  0  0  0  0
  2  3  1  1
  2  1  1  0
  4  2  1  0
  5  6  1  1
  5  4  1  0
  7  5  1  0
  8  7  2  0
  9  7  1  0
 10  9  1  0
 10 11  1  6
 11 12  1  0
 12 13  1  0
 13 14  1  0
 15 14  1  0
 16 10  1  0
 17 16  2  0
 19 20  1  0
 19 18  1  0
 20 21  1  0
 22 21  1  1
 22 24  1  0
 22 23  1  0
 23 16  1  0
 24 25  1  0
 26 24  2  0
M  END
$$$$
