NWG.pdb
     RDKit          3D

 27 28  0  0  1  0  0  0  0  0999 V2000
   20.0150  -20.3851  -15.9870 N   0  0  0  0  0  0  0  0  0  0  0  0
   20.9848  -21.1587  -15.3062 C   0  0  0  0  0  0  0  0  0  0  0  0
   20.8350  -22.3906  -15.1650 O   0  0  0  0  0  0  0  0  0  0  0  0
   22.1848  -20.5000  -14.7592 C   0  0  0  0  0  0  0  0  0  0  0  0
   22.4628  -21.0491  -13.3691 C   0  0  2  0  0  0  0  0  0  0  0  0
   21.5145  -20.3510  -12.4912 N   0  0  0  0  0  0  0  0  0  0  0  0
   23.8218  -20.6058  -13.0031 C   0  0  0  0  0  0  0  0  0  0  0  0
   24.0782  -19.3907  -12.7672 O   0  0  0  0  0  0  0  0  0  0  0  0
   24.9080  -21.5544  -12.9034 N   0  0  0  0  0  0  0  0  0  0  0  0
   26.2108  -21.1307  -12.5003 C   0  0  1  0  0  0  0  0  0  0  0  0
   26.7705  -21.7489  -11.2828 C   0  0  0  0  0  0  0  0  0  0  0  0
   26.4686  -21.1574   -9.9926 C   0  0  0  0  0  0  0  0  0  0  0  0
   25.2959  -20.6514   -9.4868 C   0  0  0  0  0  0  0  0  0  0  0  0
   25.5044  -20.2045   -8.2156 N   0  0  0  0  0  0  0  0  0  0  0  0
   26.7906  -20.4240   -7.9195 C   0  0  0  0  0  0  0  0  0  0  0  0
   27.5536  -20.1752   -6.7763 C   0  0  0  0  0  0  0  0  0  0  0  0
   28.8923  -20.4956   -6.6940 C   0  0  0  0  0  0  0  0  0  0  0  0
   29.5093  -21.0846   -7.7779 C   0  0  0  0  0  0  0  0  0  0  0  0
   28.7653  -21.3328   -8.9070 C   0  0  0  0  0  0  0  0  0  0  0  0
   27.4027  -21.0045   -8.9850 C   0  0  0  0  0  0  0  0  0  0  0  0
   27.1760  -21.1133  -13.6505 C   0  0  0  0  0  0  0  0  0  0  0  0
   27.5418  -22.2145  -14.1160 O   0  0  0  0  0  0  0  0  0  0  0  0
   27.6891  -19.9307  -14.2303 N   0  0  0  0  0  0  0  0  0  0  0  0
   28.6866  -19.8905  -15.2674 C   0  0  0  0  0  0  0  0  0  0  0  0
   28.1279  -19.7877  -16.6169 C   0  0  0  0  0  0  0  0  0  0  0  0
   28.3361  -18.6614  -17.3744 O   0  0  0  0  0  0  0  0  0  0  0  0
   27.4584  -20.7281  -17.0814 O   0  0  0  0  0  0  0  0  0  0  0  0
  2  1  1  0
  3  2  2  0
  4  2  1  0
  5  4  1  0
  5  7  1  0
  5  6  1  1
  7  8  2  0
  9  7  1  0
  9 10  1  0
 10 11  1  1
 12 11  1  0
 12 20  1  0
 13 14  1  0
 13 12  2  0
 14 15  1  0
 15 16  1  0
 15 20  2  0
 16 17  2  0
 17 18  1  0
 19 18  2  0
 20 19  1  0
 21 10  1  0
 21 22  2  0
 23 21  1  0
 24 23  1  0
 25 24  1  0
 26 25  1  0
 27 25  2  0
M  END
$$$$
