NWG.pdb
     RDKit          3D

 27 28  0  0  1  0  0  0  0  0999 V2000
   27.2746  -21.5884  -17.7202 N   0  0  0  0  0  0  0  0  0  0  0  0
   26.2348  -22.5060  -17.4388 C   0  0  0  0  0  0  0  0  0  0  0  0
   25.6939  -23.1591  -18.3558 O   0  0  0  0  0  0  0  0  0  0  0  0
   25.7878  -22.6913  -16.0464 C   0  0  0  0  0  0  0  0  0  0  0  0
   26.5448  -21.7254  -15.1490 C   0  0  2  0  0  0  0  0  0  0  0  0
   27.9081  -22.2675  -15.0767 N   0  0  0  0  0  0  0  0  0  0  0  0
   25.9459  -21.8386  -13.8052 C   0  0  0  0  0  0  0  0  0  0  0  0
   25.6412  -22.9615  -13.3112 O   0  0  0  0  0  0  0  0  0  0  0  0
   25.6874  -20.6603  -13.0085 N   0  0  0  0  0  0  0  0  0  0  0  0
   25.1238  -20.7739  -11.7013 C   0  0  1  0  0  0  0  0  0  0  0  0
   25.8389  -20.0983  -10.6014 C   0  0  0  0  0  0  0  0  0  0  0  0
   27.1274  -20.6153  -10.1796 C   0  0  0  0  0  0  0  0  0  0  0  0
   28.0626  -21.3615  -10.8548 C   0  0  0  0  0  0  0  0  0  0  0  0
   29.1259  -21.6060  -10.0370 N   0  0  0  0  0  0  0  0  0  0  0  0
   28.8689  -21.0234   -8.8604 C   0  0  0  0  0  0  0  0  0  0  0  0
   29.5905  -20.9433   -7.6671 C   0  0  0  0  0  0  0  0  0  0  0  0
   29.1190  -20.2715   -6.5590 C   0  0  0  0  0  0  0  0  0  0  0  0
   27.8882  -19.6521   -6.6230 C   0  0  0  0  0  0  0  0  0  0  0  0
   27.1716  -19.7263   -7.7938 C   0  0  0  0  0  0  0  0  0  0  0  0
   27.6568  -20.4116   -8.9189 C   0  0  0  0  0  0  0  0  0  0  0  0
   23.6473  -20.5001  -11.7013 C   0  0  0  0  0  0  0  0  0  0  0  0
   23.2505  -19.4645  -12.2786 O   0  0  0  0  0  0  0  0  0  0  0  0
   22.6902  -21.3415  -11.0896 N   0  0  0  0  0  0  0  0  0  0  0  0
   21.2819  -21.0562  -11.0033 C   0  0  0  0  0  0  0  0  0  0  0  0
   20.5208  -21.4921  -12.1758 C   0  0  0  0  0  0  0  0  0  0  0  0
   19.1878  -21.8028  -12.0663 O   0  0  0  0  0  0  0  0  0  0  0  0
   21.0863  -21.5823  -13.2804 O   0  0  0  0  0  0  0  0  0  0  0  0
  2  1  1  0
  3  2  2  0
  4  2  1  0
  5  4  1  0
  5  7  1  0
  5  6  1  1
  7  8  2  0
  9  7  1  0
  9 10  1  0
 10 11  1  1
 12 11  1  0
 12 20  1  0
 13 14  1  0
 13 12  2  0
 14 15  1  0
 15 16  1  0
 15 20  2  0
 16 17  2  0
 17 18  1  0
 19 18  2  0
 20 19  1  0
 21 10  1  0
 21 22  2  0
 23 21  1  0
 24 23  1  0
 25 24  1  0
 26 25  1  0
 27 25  2  0
M  END
$$$$
