NWG.pdb
     RDKit          3D

 27 28  0  0  1  0  0  0  0  0999 V2000
   17.5813  -12.2762  -19.1437 N   0  0  0  0  0  0  0  0  0  0  0  0
   17.1056  -11.7048  -17.9396 C   0  0  0  0  0  0  0  0  0  0  0  0
   15.8817  -11.5448  -17.7486 O   0  0  0  0  0  0  0  0  0  0  0  0
   18.0681  -11.2957  -16.9008 C   0  0  0  0  0  0  0  0  0  0  0  0
   19.4807  -11.5137  -17.4189 C   0  0  2  0  0  0  0  0  0  0  0  0
   19.7641  -12.9308  -17.1565 N   0  0  0  0  0  0  0  0  0  0  0  0
   20.3743  -10.7118  -16.5612 C   0  0  0  0  0  0  0  0  0  0  0  0
   20.4605  -10.9237  -15.3180 O   0  0  0  0  0  0  0  0  0  0  0  0
   21.1830   -9.6523  -17.1210 N   0  0  0  0  0  0  0  0  0  0  0  0
   22.1713   -8.9936  -16.3282 C   0  0  1  0  0  0  0  0  0  0  0  0
   23.5760   -9.1265  -16.7605 C   0  0  0  0  0  0  0  0  0  0  0  0
   24.1699  -10.4491  -16.8206 C   0  0  0  0  0  0  0  0  0  0  0  0
   23.6595  -11.6456  -17.2623 C   0  0  0  0  0  0  0  0  0  0  0  0
   24.6025  -12.6207  -17.1242 N   0  0  0  0  0  0  0  0  0  0  0  0
   25.6949  -12.0510  -16.6027 C   0  0  0  0  0  0  0  0  0  0  0  0
   26.9495  -12.5558  -16.2531 C   0  0  0  0  0  0  0  0  0  0  0  0
   27.9459  -11.7640  -15.7224 C   0  0  0  0  0  0  0  0  0  0  0  0
   27.7025  -10.4206  -15.5259 C   0  0  0  0  0  0  0  0  0  0  0  0
   26.4702   -9.9158  -15.8674 C   0  0  0  0  0  0  0  0  0  0  0  0
   25.4596  -10.7269  -16.4075 C   0  0  0  0  0  0  0  0  0  0  0  0
   21.7833   -7.5783  -16.0098 C   0  0  0  0  0  0  0  0  0  0  0  0
   21.9360   -6.7204  -16.9065 O   0  0  0  0  0  0  0  0  0  0  0  0
   21.2597   -7.1665  -14.7631 N   0  0  0  0  0  0  0  0  0  0  0  0
   20.7631   -5.8461  -14.4768 C   0  0  0  0  0  0  0  0  0  0  0  0
   19.3517   -5.6615  -14.8204 C   0  0  0  0  0  0  0  0  0  0  0  0
   18.7151   -4.4770  -14.5425 O   0  0  0  0  0  0  0  0  0  0  0  0
   18.7236   -6.5854  -15.3682 O   0  0  0  0  0  0  0  0  0  0  0  0
  2  1  1  0
  3  2  2  0
  4  2  1  0
  5  4  1  0
  5  7  1  0
  5  6  1  1
  7  8  2  0
  9  7  1  0
  9 10  1  0
 10 11  1  6
 12 11  1  0
 12 20  1  0
 13 14  1  0
 13 12  2  0
 14 15  1  0
 15 16  1  0
 15 20  2  0
 16 17  2  0
 17 18  1  0
 19 18  2  0
 20 19  1  0
 21 10  1  0
 21 22  2  0
 23 21  1  0
 24 23  1  0
 25 24  1  0
 26 25  1  0
 27 25  2  0
M  END
$$$$
