NWG.pdb
     RDKit          3D

 27 28  0  0  1  0  0  0  0  0999 V2000
   27.7372  -19.1014  -16.8778 N   0  0  0  0  0  0  0  0  0  0  0  0
   27.5201  -18.7365  -15.5280 C   0  0  0  0  0  0  0  0  0  0  0  0
   27.9890  -17.6730  -15.0706 O   0  0  0  0  0  0  0  0  0  0  0  0
   26.7305  -19.6234  -14.6546 C   0  0  0  0  0  0  0  0  0  0  0  0
   27.6160  -20.1254  -13.5253 C   0  0  2  0  0  0  0  0  0  0  0  0
   28.4562  -21.1630  -14.1376 N   0  0  0  0  0  0  0  0  0  0  0  0
   26.7259  -20.7865  -12.5517 C   0  0  0  0  0  0  0  0  0  0  0  0
   26.2362  -21.9300  -12.7761 O   0  0  0  0  0  0  0  0  0  0  0  0
   26.3847  -20.1413  -11.3038 N   0  0  0  0  0  0  0  0  0  0  0  0
   25.5978  -20.8197  -10.3242 C   0  0  1  0  0  0  0  0  0  0  0  0
   25.9641  -20.6140   -8.9095 C   0  0  0  0  0  0  0  0  0  0  0  0
   27.3292  -20.8752   -8.4926 C   0  0  0  0  0  0  0  0  0  0  0  0
   28.3433  -21.5643   -9.1124 C   0  0  0  0  0  0  0  0  0  0  0  0
   29.4578  -21.5363   -8.3275 N   0  0  0  0  0  0  0  0  0  0  0  0
   29.1551  -20.8396   -7.2261 C   0  0  0  0  0  0  0  0  0  0  0  0
   29.8956  -20.4911   -6.0942 C   0  0  0  0  0  0  0  0  0  0  0  0
   29.3653  -19.7477   -5.0609 C   0  0  0  0  0  0  0  0  0  0  0  0
   28.0536  -19.3282   -5.1403 C   0  0  0  0  0  0  0  0  0  0  0  0
   27.3179  -19.6671   -6.2511 C   0  0  0  0  0  0  0  0  0  0  0  0
   27.8633  -20.4241   -7.3000 C   0  0  0  0  0  0  0  0  0  0  0  0
   24.1264  -20.6652  -10.5812 C   0  0  0  0  0  0  0  0  0  0  0  0
   23.5877  -19.5916  -10.2340 O   0  0  0  0  0  0  0  0  0  0  0  0
   23.3243  -21.6580  -11.1886 N   0  0  0  0  0  0  0  0  0  0  0  0
   21.8866  -21.6267  -11.2521 C   0  0  0  0  0  0  0  0  0  0  0  0
   21.3644  -20.8300  -12.3643 C   0  0  0  0  0  0  0  0  0  0  0  0
   20.0365  -20.4838  -12.4114 O   0  0  0  0  0  0  0  0  0  0  0  0
   22.1298  -20.4641  -13.2744 O   0  0  0  0  0  0  0  0  0  0  0  0
  2  1  1  0
  3  2  2  0
  4  2  1  0
  5  4  1  0
  5  7  1  0
  5  6  1  6
  7  8  2  0
  9  7  1  0
  9 10  1  0
 10 11  1  1
 12 11  1  0
 12 20  1  0
 13 14  1  0
 13 12  2  0
 14 15  1  0
 15 16  1  0
 15 20  2  0
 16 17  2  0
 17 18  1  0
 19 18  2  0
 20 19  1  0
 21 10  1  0
 21 22  2  0
 23 21  1  0
 24 23  1  0
 25 24  1  0
 26 25  1  0
 27 25  2  0
M  END
$$$$
