NWG.pdb
     RDKit          3D

 27 28  0  0  1  0  0  0  0  0999 V2000
   27.5124  -20.5754  -18.8146 N   0  0  0  0  0  0  0  0  0  0  0  0
   27.7624  -20.0596  -17.5207 C   0  0  0  0  0  0  0  0  0  0  0  0
   28.6412  -19.1911  -17.3383 O   0  0  0  0  0  0  0  0  0  0  0  0
   26.9741  -20.5546  -16.3777 C   0  0  0  0  0  0  0  0  0  0  0  0
   27.8606  -21.4272  -15.5036 C   0  0  2  0  0  0  0  0  0  0  0  0
   27.9059  -22.7253  -16.1895 N   0  0  0  0  0  0  0  0  0  0  0  0
   27.1415  -21.6186  -14.2294 C   0  0  0  0  0  0  0  0  0  0  0  0
   26.0728  -22.2910  -14.1696 O   0  0  0  0  0  0  0  0  0  0  0  0
   27.6409  -21.0382  -13.0032 N   0  0  0  0  0  0  0  0  0  0  0  0
   26.9011  -21.1554  -11.7875 C   0  0  1  0  0  0  0  0  0  0  0  0
   27.6476  -20.9732  -10.5276 C   0  0  0  0  0  0  0  0  0  0  0  0
   26.9075  -20.7826   -9.2942 C   0  0  0  0  0  0  0  0  0  0  0  0
   25.5600  -20.8454   -9.0343 C   0  0  0  0  0  0  0  0  0  0  0  0
   25.3399  -20.5955   -7.7121 N   0  0  0  0  0  0  0  0  0  0  0  0
   26.5303  -20.3776   -7.1417 C   0  0  0  0  0  0  0  0  0  0  0  0
   26.9109  -20.0811   -5.8309 C   0  0  0  0  0  0  0  0  0  0  0  0
   28.2274  -19.8965   -5.4646 C   0  0  0  0  0  0  0  0  0  0  0  0
   29.2127  -20.0070   -6.4235 C   0  0  0  0  0  0  0  0  0  0  0  0
   28.8465  -20.2986   -7.7161 C   0  0  0  0  0  0  0  0  0  0  0  0
   27.5044  -20.4856   -8.0832 C   0  0  0  0  0  0  0  0  0  0  0  0
   25.6201  -20.3732  -11.8327 C   0  0  0  0  0  0  0  0  0  0  0  0
   25.6969  -19.1297  -11.7268 O   0  0  0  0  0  0  0  0  0  0  0  0
   24.3435  -20.9604  -11.9869 N   0  0  0  0  0  0  0  0  0  0  0  0
   23.1036  -20.2304  -12.0294 C   0  0  0  0  0  0  0  0  0  0  0  0
   21.9325  -21.0746  -12.2749 C   0  0  0  0  0  0  0  0  0  0  0  0
   20.6739  -20.5271  -12.3150 O   0  0  0  0  0  0  0  0  0  0  0  0
   22.0787  -22.2980  -12.4481 O   0  0  0  0  0  0  0  0  0  0  0  0
  2  1  1  0
  3  2  2  0
  4  2  1  0
  5  4  1  0
  5  7  1  0
  5  6  1  6
  7  8  2  0
  9  7  1  0
  9 10  1  0
 10 11  1  1
 12 11  1  0
 12 20  1  0
 13 14  1  0
 13 12  2  0
 14 15  1  0
 15 16  1  0
 15 20  2  0
 16 17  2  0
 17 18  1  0
 19 18  2  0
 20 19  1  0
 21 10  1  0
 21 22  2  0
 23 21  1  0
 24 23  1  0
 25 24  1  0
 26 25  1  0
 27 25  2  0
M  END
$$$$
