NWG.pdb
     RDKit          3D

 27 28  0  0  1  0  0  0  0  0999 V2000
-1600.3855-5213.4780 3791.0288 N   0  0  0  0  0  0  0  0  0  0  0  0
-1599.0962-5213.8052 3791.5149 C   0  0  0  0  0  0  0  0  0  0  0  0
-1598.8419-5214.9600 3791.9236 O   0  0  0  0  0  0  0  0  0  0  0  0
-1598.0443-5212.7715 3791.5403 C   0  0  0  0  0  0  0  0  0  0  0  0
-1598.1388-5211.9399 3790.2727 C   0  0  2  0  0  0  0  0  0  0  0  0
-1597.3455-5212.6738 3789.2783 N   0  0  0  0  0  0  0  0  0  0  0  0
-1597.4423-5210.6675 3790.5483 C   0  0  0  0  0  0  0  0  0  0  0  0
-1597.8226-5209.5811 3790.0278 O   0  0  0  0  0  0  0  0  0  0  0  0
-1596.2965-5210.6284 3791.4277 N   0  0  0  0  0  0  0  0  0  0  0  0
-1596.3440-5209.8955 3792.6536 C   0  0  1  0  0  0  0  0  0  0  0  0
-1595.0645-5209.6768 3793.3545 C   0  0  0  0  0  0  0  0  0  0  0  0
-1595.0222-5208.7363 3794.4600 C   0  0  0  0  0  0  0  0  0  0  0  0
-1596.0287-5208.0483 3795.0959 C   0  0  0  0  0  0  0  0  0  0  0  0
-1595.4956-5207.2812 3796.0884 N   0  0  0  0  0  0  0  0  0  0  0  0
-1594.1722-5207.4771 3796.0806 C   0  0  0  0  0  0  0  0  0  0  0  0
-1593.1360-5206.9619 3796.8625 C   0  0  0  0  0  0  0  0  0  0  0  0
-1591.8171-5207.3149 3796.6721 C   0  0  0  0  0  0  0  0  0  0  0  0
-1591.5009-5208.2144 3795.6753 C   0  0  0  0  0  0  0  0  0  0  0  0
-1592.5144-5208.7236 3794.9004 C   0  0  0  0  0  0  0  0  0  0  0  0
-1593.8558-5208.3604 3795.0972 C   0  0  0  0  0  0  0  0  0  0  0  0
-1597.1707-5208.6484 3792.5271 C   0  0  0  0  0  0  0  0  0  0  0  0
-1598.3612-5208.7764 3792.1653 O   0  0  0  0  0  0  0  0  0  0  0  0
-1596.6814-5207.3486 3792.7917 N   0  0  0  0  0  0  0  0  0  0  0  0
-1595.5879-5206.7256 3792.0942 C   0  0  0  0  0  0  0  0  0  0  0  0
-1595.2365-5207.3896 3790.8367 C   0  0  0  0  0  0  0  0  0  0  0  0
-1595.8810-5207.0571 3789.6714 O   0  0  0  0  0  0  0  0  0  0  0  0
-1594.3484-5208.2593 3790.8225 O   0  0  0  0  0  0  0  0  0  0  0  0
  2  1  1  0
  3  2  2  0
  4  2  1  0
  5  4  1  0
  5  7  1  0
  5  6  1  6
  7  8  2  0
  9  7  1  0
  9 10  1  0
 10 11  1  6
 12 11  1  0
 12 20  1  0
 13 14  1  0
 13 12  2  0
 14 15  1  0
 15 16  1  0
 15 20  2  0
 16 17  2  0
 17 18  1  0
 19 18  2  0
 20 19  1  0
 21 10  1  0
 21 22  2  0
 23 21  1  0
 24 23  1  0
 25 24  1  0
 26 25  1  0
 27 25  2  0
M  END
$$$$
