NWG.pdb
     RDKit          3D

 27 28  0  0  1  0  0  0  0  0999 V2000
   19.4078  -20.2421  -14.0946 N   0  0  0  0  0  0  0  0  0  0  0  0
   20.5969  -21.0064  -14.0297 C   0  0  0  0  0  0  0  0  0  0  0  0
   20.5819  -22.2324  -14.2679 O   0  0  0  0  0  0  0  0  0  0  0  0
   21.8662  -20.3448  -13.6775 C   0  0  0  0  0  0  0  0  0  0  0  0
   22.5318  -21.1158  -12.5488 C   0  0  2  0  0  0  0  0  0  0  0  0
   21.7912  -20.7298  -11.3405 N   0  0  0  0  0  0  0  0  0  0  0  0
   23.9023  -20.5835  -12.4235 C   0  0  0  0  0  0  0  0  0  0  0  0
   24.1219  -19.3422  -12.3301 O   0  0  0  0  0  0  0  0  0  0  0  0
   25.0425  -21.4720  -12.4041 N   0  0  0  0  0  0  0  0  0  0  0  0
   26.3697  -20.9524  -12.3162 C   0  0  1  0  0  0  0  0  0  0  0  0
   27.1674  -21.3454  -11.1385 C   0  0  0  0  0  0  0  0  0  0  0  0
   26.8387  -20.7745   -9.8456 C   0  0  0  0  0  0  0  0  0  0  0  0
   25.6400  -20.3447   -9.3301 C   0  0  0  0  0  0  0  0  0  0  0  0
   25.8298  -19.8854   -8.0604 N   0  0  0  0  0  0  0  0  0  0  0  0
   27.1297  -20.0220   -7.7748 C   0  0  0  0  0  0  0  0  0  0  0  0
   27.8845  -19.7250   -6.6376 C   0  0  0  0  0  0  0  0  0  0  0  0
   29.2416  -19.9590   -6.5663 C   0  0  0  0  0  0  0  0  0  0  0  0
   29.8863  -20.5072   -7.6555 C   0  0  0  0  0  0  0  0  0  0  0  0
   29.1506  -20.8025   -8.7787 C   0  0  0  0  0  0  0  0  0  0  0  0
   27.7691  -20.5621   -8.8455 C   0  0  0  0  0  0  0  0  0  0  0  0
   27.1166  -21.0994  -13.6106 C   0  0  0  0  0  0  0  0  0  0  0  0
   27.8134  -22.1262  -13.7636 O   0  0  0  0  0  0  0  0  0  0  0  0
   27.0755  -20.1490  -14.6561 N   0  0  0  0  0  0  0  0  0  0  0  0
   27.8105  -20.2527  -15.8895 C   0  0  0  0  0  0  0  0  0  0  0  0
   27.6884  -19.0725  -16.7477 C   0  0  0  0  0  0  0  0  0  0  0  0
   26.5963  -18.9139  -17.5647 O   0  0  0  0  0  0  0  0  0  0  0  0
   28.5816  -18.2064  -16.7371 O   0  0  0  0  0  0  0  0  0  0  0  0
  2  1  1  0
  3  2  2  0
  4  2  1  0
  5  4  1  0
  5  7  1  0
  5  6  1  1
  7  8  2  0
  9  7  1  0
  9 10  1  0
 10 11  1  1
 12 11  1  0
 12 20  1  0
 13 14  1  0
 13 12  2  0
 14 15  1  0
 15 16  1  0
 15 20  2  0
 16 17  2  0
 17 18  1  0
 19 18  2  0
 20 19  1  0
 21 10  1  0
 21 22  2  0
 23 21  1  0
 24 23  1  0
 25 24  1  0
 26 25  1  0
 27 25  2  0
M  END
$$$$
