NWG.pdb
     RDKit          3D

 27 28  0  0  1  0  0  0  0  0999 V2000
   14.0883  -23.8991    1.6081 N   0  0  0  0  0  0  0  0  0  0  0  0
   14.5708  -22.9265    2.5157 C   0  0  0  0  0  0  0  0  0  0  0  0
   13.8841  -22.5726    3.4971 O   0  0  0  0  0  0  0  0  0  0  0  0
   15.8996  -22.3268    2.2977 C   0  0  0  0  0  0  0  0  0  0  0  0
   15.8343  -20.8430    2.6225 C   0  0  2  0  0  0  0  0  0  0  0  0
   15.5923  -20.1848    1.3319 N   0  0  0  0  0  0  0  0  0  0  0  0
   17.1811  -20.4504    3.0801 C   0  0  0  0  0  0  0  0  0  0  0  0
   18.1677  -20.4347    2.2901 O   0  0  0  0  0  0  0  0  0  0  0  0
   17.4138  -20.0700    4.4552 N   0  0  0  0  0  0  0  0  0  0  0  0
   18.7063  -19.6395    4.8832 C   0  0  1  0  0  0  0  0  0  0  0  0
   18.8370  -18.2338    5.3132 C   0  0  0  0  0  0  0  0  0  0  0  0
   18.6842  -17.1807    4.3268 C   0  0  0  0  0  0  0  0  0  0  0  0
   17.6763  -16.2672    4.1342 C   0  0  0  0  0  0  0  0  0  0  0  0
   17.9832  -15.4688    3.0724 N   0  0  0  0  0  0  0  0  0  0  0  0
   19.1683  -15.8699    2.5985 C   0  0  0  0  0  0  0  0  0  0  0  0
   19.9637  -15.4242    1.5403 C   0  0  0  0  0  0  0  0  0  0  0  0
   21.1777  -16.0005    1.2312 C   0  0  0  0  0  0  0  0  0  0  0  0
   21.6314  -17.0584    1.9912 C   0  0  0  0  0  0  0  0  0  0  0  0
   20.8545  -17.5032    3.0345 C   0  0  0  0  0  0  0  0  0  0  0  0
   19.6193  -16.9125    3.3446 C   0  0  0  0  0  0  0  0  0  0  0  0
   19.3319  -20.6106    5.8426 C   0  0  0  0  0  0  0  0  0  0  0  0
   18.5743  -21.2089    6.6372 O   0  0  0  0  0  0  0  0  0  0  0  0
   20.7180  -20.8829    5.8962 N   0  0  0  0  0  0  0  0  0  0  0  0
   21.3445  -21.7708    6.8403 C   0  0  0  0  0  0  0  0  0  0  0  0
   21.4595  -21.2099    8.1880 C   0  0  0  0  0  0  0  0  0  0  0  0
   21.9829  -21.9587    9.2130 O   0  0  0  0  0  0  0  0  0  0  0  0
   21.0796  -20.0454    8.4066 O   0  0  0  0  0  0  0  0  0  0  0  0
  2  1  1  0
  3  2  2  0
  4  2  1  0
  5  4  1  0
  5  7  1  0
  5  6  1  6
  7  8  2  0
  9  7  1  0
  9 10  1  0
 10 11  1  1
 12 11  1  0
 12 20  1  0
 13 14  1  0
 13 12  2  0
 14 15  1  0
 15 16  1  0
 15 20  2  0
 16 17  2  0
 17 18  1  0
 19 18  2  0
 20 19  1  0
 21 10  1  0
 21 22  2  0
 23 21  1  0
 24 23  1  0
 25 24  1  0
 26 25  1  0
 27 25  2  0
M  END
$$$$
