NWG.pdb
     RDKit          3D

 27 28  0  0  1  0  0  0  0  0999 V2000
   28.9244  -19.0674  -16.4677 N   0  0  0  0  0  0  0  0  0  0  0  0
   27.5383  -19.1116  -16.7495 C   0  0  0  0  0  0  0  0  0  0  0  0
   27.0582  -18.4551  -17.6974 O   0  0  0  0  0  0  0  0  0  0  0  0
   26.6541  -19.9434  -15.9135 C   0  0  0  0  0  0  0  0  0  0  0  0
   27.4896  -20.6527  -14.8598 C   0  0  2  0  0  0  0  0  0  0  0  0
   28.1385  -21.7594  -15.5752 N   0  0  0  0  0  0  0  0  0  0  0  0
   26.5418  -21.2391  -13.8926 C   0  0  0  0  0  0  0  0  0  0  0  0
   26.1397  -22.4323  -14.0036 O   0  0  0  0  0  0  0  0  0  0  0  0
   26.0412  -20.4607  -12.7821 N   0  0  0  0  0  0  0  0  0  0  0  0
   25.1187  -21.0284  -11.8516 C   0  0  1  0  0  0  0  0  0  0  0  0
   25.4180  -20.8515  -10.4174 C   0  0  0  0  0  0  0  0  0  0  0  0
   26.7713  -21.0846   -9.9486 C   0  0  0  0  0  0  0  0  0  0  0  0
   27.8324  -21.7229  -10.5435 C   0  0  0  0  0  0  0  0  0  0  0  0
   28.9105  -21.6862   -9.7096 N   0  0  0  0  0  0  0  0  0  0  0  0
   28.5386  -21.0341   -8.6021 C   0  0  0  0  0  0  0  0  0  0  0  0
   29.2182  -20.6994   -7.4285 C   0  0  0  0  0  0  0  0  0  0  0  0
   28.6205  -20.0053   -6.3978 C   0  0  0  0  0  0  0  0  0  0  0  0
   27.3010  -19.6231   -6.5223 C   0  0  0  0  0  0  0  0  0  0  0  0
   26.6251  -19.9487   -7.6743 C   0  0  0  0  0  0  0  0  0  0  0  0
   27.2388  -20.6555   -8.7205 C   0  0  0  0  0  0  0  0  0  0  0  0
   23.6956  -20.7017  -12.2022 C   0  0  0  0  0  0  0  0  0  0  0  0
   23.3725  -19.4946  -12.2454 O   0  0  0  0  0  0  0  0  0  0  0  0
   22.7101  -21.6753  -12.4832 N   0  0  0  0  0  0  0  0  0  0  0  0
   21.3580  -21.3838  -12.8817 C   0  0  0  0  0  0  0  0  0  0  0  0
   20.4436  -21.1825  -11.7559 C   0  0  0  0  0  0  0  0  0  0  0  0
   19.5620  -20.1298  -11.7526 O   0  0  0  0  0  0  0  0  0  0  0  0
   20.4658  -21.9713  -10.7938 O   0  0  0  0  0  0  0  0  0  0  0  0
  2  1  1  0
  3  2  2  0
  4  2  1  0
  5  4  1  0
  5  7  1  0
  5  6  1  6
  7  8  2  0
  9  7  1  0
  9 10  1  0
 10 11  1  1
 12 11  1  0
 12 20  1  0
 13 14  1  0
 13 12  2  0
 14 15  1  0
 15 16  1  0
 15 20  2  0
 16 17  2  0
 17 18  1  0
 19 18  2  0
 20 19  1  0
 21 10  1  0
 21 22  2  0
 23 21  1  0
 24 23  1  0
 25 24  1  0
 26 25  1  0
 27 25  2  0
M  END
$$$$
