YVR.pdb
     RDKit          3D

 31 31  0  0  1  0  0  0  0  0999 V2000
   11.1189  -14.2122   30.0809 O   0  0  0  0  0  0  0  0  0  0  0  0
   10.7965  -14.3052   28.7305 C   0  0  0  0  0  0  0  0  0  0  0  0
   11.0179  -15.4944   28.0850 C   0  0  0  0  0  0  0  0  0  0  0  0
   10.7126  -15.6353   26.7400 C   0  0  0  0  0  0  0  0  0  0  0  0
   10.1795  -14.5950   26.0061 C   0  0  0  0  0  0  0  0  0  0  0  0
    9.8884  -14.8331   24.5901 C   0  0  0  0  0  0  0  0  0  0  0  0
    8.4760  -15.3016   24.3376 C   0  0  2  0  0  0  0  0  0  0  0  0
    8.0845  -16.3601   25.2112 N   0  0  0  0  0  0  0  0  0  0  0  0
    8.2740  -15.5508   22.9082 C   0  0  0  0  0  0  0  0  0  0  0  0
    8.1946  -16.7573   22.4999 O   0  0  0  0  0  0  0  0  0  0  0  0
    9.9576  -13.3998   26.6569 C   0  0  0  0  0  0  0  0  0  0  0  0
   10.2673  -13.2754   27.9981 C   0  0  0  0  0  0  0  0  0  0  0  0
    8.7174  -12.6976   19.5420 C   0  0  0  0  0  0  0  0  0  0  0  0
    7.6223  -13.7246   19.6655 C   0  0  2  0  0  0  0  0  0  0  0  0
    6.3081  -13.1595   20.0952 C   0  0  0  0  0  0  0  0  0  0  0  0
    8.0670  -14.9067   20.5260 C   0  0  2  0  0  0  0  0  0  0  0  0
    8.1562  -14.5478   21.9113 N   0  0  0  0  0  0  0  0  0  0  0  0
    9.3410  -15.3661   19.9480 C   0  0  0  0  0  0  0  0  0  0  0  0
   10.1493  -14.4710   19.5773 O   0  0  0  0  0  0  0  0  0  0  0  0
   16.0825  -14.6774   20.4739 N   0  0  0  0  0  0  0  0  0  0  0  0
   15.7167  -14.0774   19.2411 C   0  0  0  0  0  0  0  0  0  0  0  0
   16.6056  -13.6348   18.3851 N   0  0  0  0  0  0  0  0  0  0  0  0
   14.3356  -13.9175   18.8554 N   0  0  0  0  0  0  0  0  0  0  0  0
   13.2724  -14.5296   19.6023 C   0  0  0  0  0  0  0  0  0  0  0  0
   13.2884  -16.0554   19.4907 C   0  0  0  0  0  0  0  0  0  0  0  0
   12.1038  -16.5557   20.2741 C   0  0  0  0  0  0  0  0  0  0  0  0
   11.0523  -17.1598   19.4077 C   0  0  2  0  0  0  0  0  0  0  0  0
    9.7169  -16.7052   19.7827 N   0  0  0  0  0  0  0  0  0  0  0  0
   11.0649  -18.6233   19.3154 C   0  0  0  0  0  0  0  0  0  0  0  0
   11.9766  -19.3881   18.6151 O   0  0  0  0  0  0  0  0  0  0  0  0
   10.1631  -19.2762   19.9264 O   0  0  0  0  0  0  0  0  0  0  0  0
  2 12  2  0
  2  1  1  0
  3  2  1  0
  4  5  1  0
  4  3  2  0
  5 11  2  0
  6  5  1  0
  7  6  1  0
  7  8  1  1
  9 10  2  0
  9  7  1  0
 11 12  1  0
 14 13  1  1
 14 16  1  0
 15 14  1  0
 16 18  1  0
 16 17  1  1
 17  9  1  0
 18 19  2  0
 21 20  1  0
 21 23  1  0
 22 21  2  0
 23 24  1  0
 24 25  1  0
 26 25  1  0
 27 26  1  1
 28 27  1  0
 28 18  1  0
 29 27  1  0
 30 29  1  0
 31 29  2  0
M  END
$$$$
