YVR.pdb
     RDKit          3D

 31 31  0  0  1  0  0  0  0  0999 V2000
    5.9610  -10.3908   28.0010 O   0  0  0  0  0  0  0  0  0  0  0  0
    6.2693  -11.6360   27.4620 C   0  0  0  0  0  0  0  0  0  0  0  0
    7.5572  -11.8727   27.0557 C   0  0  0  0  0  0  0  0  0  0  0  0
    7.9125  -13.0979   26.5127 C   0  0  0  0  0  0  0  0  0  0  0  0
    6.9932  -14.1163   26.3615 C   0  0  0  0  0  0  0  0  0  0  0  0
    7.4566  -15.3775   25.7774 C   0  0  0  0  0  0  0  0  0  0  0  0
    6.5415  -15.9147   24.7041 C   0  0  2  0  0  0  0  0  0  0  0  0
    5.8600  -17.1019   25.1078 N   0  0  0  0  0  0  0  0  0  0  0  0
    7.2535  -15.9948   23.4263 C   0  0  0  0  0  0  0  0  0  0  0  0
    7.7664  -17.1101   23.0775 O   0  0  0  0  0  0  0  0  0  0  0  0
    5.6985  -13.8763   26.7706 C   0  0  0  0  0  0  0  0  0  0  0  0
    5.3602  -12.6496   27.3100 C   0  0  0  0  0  0  0  0  0  0  0  0
    6.8515  -13.2099   20.2638 C   0  0  0  0  0  0  0  0  0  0  0  0
    8.2107  -13.8260   20.4687 C   0  0  2  0  0  0  0  0  0  0  0  0
    8.9983  -13.9872   19.2098 C   0  0  0  0  0  0  0  0  0  0  0  0
    8.1156  -15.1200   21.2760 C   0  0  2  0  0  0  0  0  0  0  0  0
    7.4296  -14.9183   22.5188 N   0  0  0  0  0  0  0  0  0  0  0  0
    9.4998  -15.5975   21.4321 C   0  0  0  0  0  0  0  0  0  0  0  0
   10.2190  -14.9836   22.2676 O   0  0  0  0  0  0  0  0  0  0  0  0
   14.0718  -22.4214   23.2380 N   0  0  0  0  0  0  0  0  0  0  0  0
   12.7252  -22.0565   23.4973 C   0  0  0  0  0  0  0  0  0  0  0  0
   12.0777  -22.4717   24.5590 N   0  0  0  0  0  0  0  0  0  0  0  0
   11.9846  -21.2021   22.6011 N   0  0  0  0  0  0  0  0  0  0  0  0
   12.4937  -20.8548   21.3037 C   0  0  0  0  0  0  0  0  0  0  0  0
   12.7084  -19.3479   21.1488 C   0  0  0  0  0  0  0  0  0  0  0  0
   11.3397  -18.7237   21.0827 C   0  0  0  0  0  0  0  0  0  0  0  0
   11.3871  -17.2366   20.9968 C   0  0  2  0  0  0  0  0  0  0  0  0
   10.0688  -16.6688   20.7319 N   0  0  0  0  0  0  0  0  0  0  0  0
   12.3597  -16.6829   20.0493 C   0  0  0  0  0  0  0  0  0  0  0  0
   13.7136  -16.5254   20.2694 O   0  0  0  0  0  0  0  0  0  0  0  0
   11.9462  -16.3024   18.9103 O   0  0  0  0  0  0  0  0  0  0  0  0
  2 12  2  0
  2  1  1  0
  3  2  1  0
  4  5  1  0
  4  3  2  0
  5 11  2  0
  6  5  1  0
  7  6  1  0
  7  8  1  1
  9 10  2  0
  9  7  1  0
 11 12  1  0
 14 13  1  6
 14 16  1  0
 15 14  1  0
 16 18  1  0
 16 17  1  1
 17  9  1  0
 18 19  2  0
 21 20  1  0
 21 23  1  0
 22 21  2  0
 23 24  1  0
 24 25  1  0
 26 25  1  0
 27 26  1  6
 28 27  1  0
 28 18  1  0
 29 27  1  0
 30 29  1  0
 31 29  2  0
M  END
$$$$
