YVR.pdb
     RDKit          3D

 31 31  0  0  1  0  0  0  0  0999 V2000
    6.4189  -10.5331   27.9431 O   0  0  0  0  0  0  0  0  0  0  0  0
    6.6932  -11.6512   27.1615 C   0  0  0  0  0  0  0  0  0  0  0  0
    5.7387  -12.0811   26.2761 C   0  0  0  0  0  0  0  0  0  0  0  0
    5.9662  -13.1902   25.4759 C   0  0  0  0  0  0  0  0  0  0  0  0
    7.1498  -13.8974   25.5389 C   0  0  0  0  0  0  0  0  0  0  0  0
    7.3035  -15.0572   24.6570 C   0  0  0  0  0  0  0  0  0  0  0  0
    6.4813  -16.2491   25.0829 C   0  0  2  0  0  0  0  0  0  0  0  0
    6.8079  -16.6996   26.3971 N   0  0  0  0  0  0  0  0  0  0  0  0
    6.4993  -17.2752   24.0375 C   0  0  0  0  0  0  0  0  0  0  0  0
    7.2653  -18.2857   24.1812 O   0  0  0  0  0  0  0  0  0  0  0  0
    8.1084  -13.4637   26.4300 C   0  0  0  0  0  0  0  0  0  0  0  0
    7.8664  -12.3562   27.2206 C   0  0  0  0  0  0  0  0  0  0  0  0
    3.4318  -18.2437   21.3463 C   0  0  0  0  0  0  0  0  0  0  0  0
    4.8178  -18.1580   20.7626 C   0  0  2  0  0  0  0  0  0  0  0  0
    5.0559  -19.0995   19.6276 C   0  0  0  0  0  0  0  0  0  0  0  0
    5.8844  -18.2640   21.8519 C   0  0  2  0  0  0  0  0  0  0  0  0
    5.7235  -17.2469   22.8496 N   0  0  0  0  0  0  0  0  0  0  0  0
    7.1788  -18.2102   21.1518 C   0  0  0  0  0  0  0  0  0  0  0  0
    7.4418  -17.1440   20.5305 O   0  0  0  0  0  0  0  0  0  0  0  0
   12.7875  -16.8003   25.7646 N   0  0  0  0  0  0  0  0  0  0  0  0
   11.7433  -16.3130   24.9366 C   0  0  0  0  0  0  0  0  0  0  0  0
   10.6000  -15.8940   25.4225 N   0  0  0  0  0  0  0  0  0  0  0  0
   11.8794  -16.2506   23.5015 N   0  0  0  0  0  0  0  0  0  0  0  0
   11.8478  -17.4370   22.6926 C   0  0  0  0  0  0  0  0  0  0  0  0
   10.4226  -17.8398   22.3085 C   0  0  0  0  0  0  0  0  0  0  0  0
   10.5427  -19.0533   21.4252 C   0  0  0  0  0  0  0  0  0  0  0  0
    9.4199  -19.1725   20.4524 C   0  0  2  0  0  0  0  0  0  0  0  0
    8.1268  -19.2409   21.1261 N   0  0  0  0  0  0  0  0  0  0  0  0
    9.5279  -20.2688   19.4845 C   0  0  0  0  0  0  0  0  0  0  0  0
   10.0834  -20.1907   18.2229 O   0  0  0  0  0  0  0  0  0  0  0  0
    9.0749  -21.4100   19.8093 O   0  0  0  0  0  0  0  0  0  0  0  0
  2 12  2  0
  2  1  1  0
  3  2  1  0
  4  5  1  0
  4  3  2  0
  5 11  2  0
  6  5  1  0
  7  6  1  0
  7  8  1  1
  9 10  2  0
  9  7  1  0
 11 12  1  0
 14 13  1  1
 14 16  1  0
 15 14  1  0
 16 18  1  0
 16 17  1  1
 17  9  1  0
 18 19  2  0
 21 20  1  0
 21 23  1  0
 22 21  2  0
 23 24  1  0
 24 25  1  0
 26 25  1  0
 27 26  1  1
 28 27  1  0
 28 18  1  0
 29 27  1  0
 30 29  1  0
 31 29  2  0
M  END
$$$$
