YVR.pdb
     RDKit          3D

 31 31  0  0  1  0  0  0  0  0999 V2000
   10.5360  -14.9211   30.9197 O   0  0  0  0  0  0  0  0  0  0  0  0
   10.2881  -15.0550   29.5571 C   0  0  0  0  0  0  0  0  0  0  0  0
   10.3031  -16.3117   29.0093 C   0  0  0  0  0  0  0  0  0  0  0  0
   10.0617  -16.4954   27.6565 C   0  0  0  0  0  0  0  0  0  0  0  0
    9.7997  -15.4314   26.8172 C   0  0  0  0  0  0  0  0  0  0  0  0
    9.5569  -15.7184   25.4012 C   0  0  0  0  0  0  0  0  0  0  0  0
    8.1481  -15.4070   24.9580 C   0  0  2  0  0  0  0  0  0  0  0  0
    7.1684  -16.1528   25.6797 N   0  0  0  0  0  0  0  0  0  0  0  0
    8.0504  -15.4770   23.4980 C   0  0  0  0  0  0  0  0  0  0  0  0
    7.6598  -16.5661   22.9596 O   0  0  0  0  0  0  0  0  0  0  0  0
    9.7852  -14.1682   27.3699 C   0  0  0  0  0  0  0  0  0  0  0  0
   10.0277  -14.0019   28.7204 C   0  0  0  0  0  0  0  0  0  0  0  0
    9.3310  -12.3894   20.6156 C   0  0  0  0  0  0  0  0  0  0  0  0
    8.2126  -13.3737   20.3931 C   0  0  2  0  0  0  0  0  0  0  0  0
    6.8496  -12.7970   20.5955 C   0  0  0  0  0  0  0  0  0  0  0  0
    8.4365  -14.6559   21.1938 C   0  0  2  0  0  0  0  0  0  0  0  0
    8.3587  -14.4177   22.6056 N   0  0  0  0  0  0  0  0  0  0  0  0
    9.7384  -15.1825   20.7510 C   0  0  0  0  0  0  0  0  0  0  0  0
   10.6727  -15.1672   21.5989 O   0  0  0  0  0  0  0  0  0  0  0  0
    7.6468  -16.1776   16.6421 N   0  0  0  0  0  0  0  0  0  0  0  0
    8.6168  -15.6944   15.7259 C   0  0  0  0  0  0  0  0  0  0  0  0
    8.5817  -14.4753   15.2449 N   0  0  0  0  0  0  0  0  0  0  0  0
    9.7052  -16.5226   15.2665 N   0  0  0  0  0  0  0  0  0  0  0  0
    9.9837  -17.7971   15.8674 C   0  0  0  0  0  0  0  0  0  0  0  0
   10.1439  -17.7002   17.3858 C   0  0  0  0  0  0  0  0  0  0  0  0
   11.2538  -16.7146   17.6385 C   0  0  0  0  0  0  0  0  0  0  0  0
   11.2960  -16.2426   19.0516 C   0  0  2  0  0  0  0  0  0  0  0  0
   10.0120  -15.6930   19.4757 N   0  0  0  0  0  0  0  0  0  0  0  0
   12.3670  -15.2950   19.3760 C   0  0  0  0  0  0  0  0  0  0  0  0
   13.6791  -15.6147   19.6634 O   0  0  0  0  0  0  0  0  0  0  0  0
   12.0909  -14.0556   19.4039 O   0  0  0  0  0  0  0  0  0  0  0  0
  2 12  2  0
  2  1  1  0
  3  2  1  0
  4  5  1  0
  4  3  2  0
  5 11  2  0
  6  5  1  0
  7  6  1  0
  7  8  1  1
  9 10  2  0
  9  7  1  0
 11 12  1  0
 14 13  1  1
 14 16  1  0
 15 14  1  0
 16 18  1  0
 16 17  1  1
 17  9  1  0
 18 19  2  0
 21 20  1  0
 21 23  1  0
 22 21  2  0
 23 24  1  0
 24 25  1  0
 26 25  1  0
 27 26  1  6
 28 27  1  0
 28 18  1  0
 29 27  1  0
 30 29  1  0
 31 29  2  0
M  END
$$$$
