YVR.pdb
     RDKit          3D

 31 31  0  0  1  0  0  0  0  0999 V2000
    7.1082  -13.8538   15.3522 O   0  0  0  0  0  0  0  0  0  0  0  0
    7.1842  -13.9447   16.7385 C   0  0  0  0  0  0  0  0  0  0  0  0
    6.9903  -15.1682   17.3260 C   0  0  0  0  0  0  0  0  0  0  0  0
    7.0563  -15.3086   18.7038 C   0  0  0  0  0  0  0  0  0  0  0  0
    7.3170  -14.2333   19.5289 C   0  0  0  0  0  0  0  0  0  0  0  0
    7.3676  -14.4736   20.9733 C   0  0  0  0  0  0  0  0  0  0  0  0
    8.6771  -14.0673   21.6045 C   0  0  2  0  0  0  0  0  0  0  0  0
    9.8033  -14.6699   20.9678 N   0  0  0  0  0  0  0  0  0  0  0  0
    8.6087  -14.2286   23.0589 C   0  0  0  0  0  0  0  0  0  0  0  0
    9.3590  -15.0970   23.6170 O   0  0  0  0  0  0  0  0  0  0  0  0
    7.5117  -13.0036   18.9364 C   0  0  0  0  0  0  0  0  0  0  0  0
    7.4426  -12.8803   17.5615 C   0  0  0  0  0  0  0  0  0  0  0  0
    6.9513  -11.2881   25.5003 C   0  0  0  0  0  0  0  0  0  0  0  0
    6.9323  -12.6769   26.0834 C   0  0  2  0  0  0  0  0  0  0  0  0
    7.1114  -12.7135   27.5659 C   0  0  0  0  0  0  0  0  0  0  0  0
    7.9039  -13.5991   25.3479 C   0  0  2  0  0  0  0  0  0  0  0  0
    7.7626  -13.4889   23.9253 N   0  0  0  0  0  0  0  0  0  0  0  0
    7.6436  -14.9519   25.8679 C   0  0  0  0  0  0  0  0  0  0  0  0
    6.6742  -15.5774   25.3569 O   0  0  0  0  0  0  0  0  0  0  0  0
   10.6590  -20.3895   21.9253 N   0  0  0  0  0  0  0  0  0  0  0  0
   11.5097  -20.7290   23.0091 C   0  0  0  0  0  0  0  0  0  0  0  0
   11.9929  -21.9371   23.1701 N   0  0  0  0  0  0  0  0  0  0  0  0
   11.8946  -19.7580   24.0045 N   0  0  0  0  0  0  0  0  0  0  0  0
   11.1738  -18.5268   24.1696 C   0  0  0  0  0  0  0  0  0  0  0  0
   10.3975  -18.4809   25.4871 C   0  0  0  0  0  0  0  0  0  0  0  0
    9.7466  -17.1248   25.5550 C   0  0  0  0  0  0  0  0  0  0  0  0
    8.9269  -16.9390   26.7858 C   0  0  2  0  0  0  0  0  0  0  0  0
    8.3833  -15.5872   26.8734 N   0  0  0  0  0  0  0  0  0  0  0  0
    9.5851  -17.2864   28.0493 C   0  0  0  0  0  0  0  0  0  0  0  0
    9.8807  -16.4172   29.0805 O   0  0  0  0  0  0  0  0  0  0  0  0
    9.9287  -18.4940   28.2409 O   0  0  0  0  0  0  0  0  0  0  0  0
  2 12  2  0
  2  1  1  0
  3  2  1  0
  4  5  1  0
  4  3  2  0
  5 11  2  0
  6  5  1  0
  7  6  1  0
  7  8  1  6
  9 10  2  0
  9  7  1  0
 11 12  1  0
 14 13  1  6
 14 16  1  0
 15 14  1  0
 16 18  1  0
 16 17  1  6
 17  9  1  0
 18 19  2  0
 21 20  1  0
 21 23  1  0
 22 21  2  0
 23 24  1  0
 24 25  1  0
 26 25  1  0
 27 26  1  6
 28 27  1  0
 28 18  1  0
 29 27  1  0
 30 29  1  0
 31 29  2  0
M  END
$$$$
