YVR.pdb
     RDKit          3D

 31 31  0  0  1  0  0  0  0  0999 V2000
    7.2521  -14.3028   15.6012 O   0  0  0  0  0  0  0  0  0  0  0  0
    7.6129  -14.0913   16.9284 C   0  0  0  0  0  0  0  0  0  0  0  0
    8.2231  -15.1115   17.6115 C   0  0  0  0  0  0  0  0  0  0  0  0
    8.6009  -14.9481   18.9354 C   0  0  0  0  0  0  0  0  0  0  0  0
    8.3798  -13.7646   19.6102 C   0  0  0  0  0  0  0  0  0  0  0  0
    8.8113  -13.6810   21.0078 C   0  0  0  0  0  0  0  0  0  0  0  0
    8.2517  -14.7814   21.8762 C   0  0  2  0  0  0  0  0  0  0  0  0
    6.8506  -14.9733   21.6839 N   0  0  0  0  0  0  0  0  0  0  0  0
    8.6826  -14.5985   23.2643 C   0  0  0  0  0  0  0  0  0  0  0  0
    9.9311  -14.6180   23.5279 O   0  0  0  0  0  0  0  0  0  0  0  0
    7.7660  -12.7397   18.9216 C   0  0  0  0  0  0  0  0  0  0  0  0
    7.3954  -12.9184   17.6021 C   0  0  0  0  0  0  0  0  0  0  0  0
    6.0947  -13.7861   26.6835 C   0  0  0  0  0  0  0  0  0  0  0  0
    7.5018  -13.2723   26.5248 C   0  0  2  0  0  0  0  0  0  0  0  0
    7.5801  -11.8615   26.0404 C   0  0  0  0  0  0  0  0  0  0  0  0
    8.3502  -14.2314   25.6907 C   0  0  2  0  0  0  0  0  0  0  0  0
    7.8166  -14.3969   24.3702 N   0  0  0  0  0  0  0  0  0  0  0  0
    8.4190  -15.4822   26.4648 C   0  0  0  0  0  0  0  0  0  0  0  0
    7.3290  -16.0873   26.6598 O   0  0  0  0  0  0  0  0  0  0  0  0
   10.0690  -20.0532   22.0294 N   0  0  0  0  0  0  0  0  0  0  0  0
   11.0781  -19.0764   22.2321 C   0  0  0  0  0  0  0  0  0  0  0  0
   11.9600  -18.7767   21.3095 N   0  0  0  0  0  0  0  0  0  0  0  0
   11.1938  -18.3515   23.4743 N   0  0  0  0  0  0  0  0  0  0  0  0
   11.1690  -19.0264   24.7418 C   0  0  0  0  0  0  0  0  0  0  0  0
    9.9659  -18.6172   25.5938 C   0  0  0  0  0  0  0  0  0  0  0  0
   10.4980  -18.3084   26.9681 C   0  0  0  0  0  0  0  0  0  0  0  0
    9.6618  -17.3163   27.7014 C   0  0  2  0  0  0  0  0  0  0  0  0
    9.5892  -16.0425   26.9924 N   0  0  0  0  0  0  0  0  0  0  0  0
   10.0324  -17.0793   29.1002 C   0  0  0  0  0  0  0  0  0  0  0  0
    9.9305  -17.9870   30.1357 O   0  0  0  0  0  0  0  0  0  0  0  0
   10.4928  -15.9396   29.4198 O   0  0  0  0  0  0  0  0  0  0  0  0
  2 12  2  0
  2  1  1  0
  3  2  1  0
  4  5  1  0
  4  3  2  0
  5 11  2  0
  6  5  1  0
  7  6  1  0
  7  8  1  1
  9 10  2  0
  9  7  1  0
 11 12  1  0
 14 13  1  6
 14 16  1  0
 15 14  1  0
 16 18  1  0
 16 17  1  6
 17  9  1  0
 18 19  2  0
 21 20  1  0
 21 23  1  0
 22 21  2  0
 23 24  1  0
 24 25  1  0
 26 25  1  0
 27 26  1  6
 28 27  1  0
 28 18  1  0
 29 27  1  0
 30 29  1  0
 31 29  2  0
M  END
$$$$
