YVR.pdb
     RDKit          3D

 31 31  0  0  1  0  0  0  0  0999 V2000
    5.1066  -24.9888   24.6350 O   0  0  0  0  0  0  0  0  0  0  0  0
    5.0969  -23.6146   24.4166 C   0  0  0  0  0  0  0  0  0  0  0  0
    6.2190  -23.0273   23.8914 C   0  0  0  0  0  0  0  0  0  0  0  0
    6.2569  -21.6615   23.6561 C   0  0  0  0  0  0  0  0  0  0  0  0
    5.1779  -20.8484   23.9383 C   0  0  0  0  0  0  0  0  0  0  0  0
    5.3067  -19.4161   23.6582 C   0  0  0  0  0  0  0  0  0  0  0  0
    6.3139  -18.7195   24.5404 C   0  0  2  0  0  0  0  0  0  0  0  0
    6.1280  -19.0145   25.9244 N   0  0  0  0  0  0  0  0  0  0  0  0
    6.3866  -17.2968   24.1989 C   0  0  0  0  0  0  0  0  0  0  0  0
    6.3449  -16.9570   22.9695 O   0  0  0  0  0  0  0  0  0  0  0  0
    4.0504  -21.4408   24.4665 C   0  0  0  0  0  0  0  0  0  0  0  0
    4.0284  -22.8037   24.6953 C   0  0  0  0  0  0  0  0  0  0  0  0
    6.0622  -13.7673   26.2636 C   0  0  0  0  0  0  0  0  0  0  0  0
    7.4915  -14.2184   26.1130 C   0  0  2  0  0  0  0  0  0  0  0  0
    8.4572  -13.1027   25.8811 C   0  0  0  0  0  0  0  0  0  0  0  0
    7.6137  -15.3315   25.0730 C   0  0  2  0  0  0  0  0  0  0  0  0
    6.5026  -16.2357   25.1338 N   0  0  0  0  0  0  0  0  0  0  0  0
    8.9157  -15.9723   25.3231 C   0  0  0  0  0  0  0  0  0  0  0  0
    8.9066  -17.0104   26.0404 O   0  0  0  0  0  0  0  0  0  0  0  0
    7.5299  -14.6377   17.9205 N   0  0  0  0  0  0  0  0  0  0  0  0
    8.4084  -13.7608   18.6082 C   0  0  0  0  0  0  0  0  0  0  0  0
    8.4547  -12.4749   18.3572 N   0  0  0  0  0  0  0  0  0  0  0  0
    9.3088  -14.2367   19.6303 N   0  0  0  0  0  0  0  0  0  0  0  0
    9.3310  -15.6168   20.0273 C   0  0  0  0  0  0  0  0  0  0  0  0
   10.4143  -15.9038   21.0688 C   0  0  0  0  0  0  0  0  0  0  0  0
    9.8245  -15.5540   22.4094 C   0  0  0  0  0  0  0  0  0  0  0  0
   10.7242  -15.9041   23.5449 C   0  0  2  0  0  0  0  0  0  0  0  0
   10.1464  -15.5212   24.8294 N   0  0  0  0  0  0  0  0  0  0  0  0
   12.0962  -15.3947   23.4522 C   0  0  0  0  0  0  0  0  0  0  0  0
   12.7303  -14.5876   24.3758 O   0  0  0  0  0  0  0  0  0  0  0  0
   12.7911  -15.7083   22.4365 O   0  0  0  0  0  0  0  0  0  0  0  0
  2 12  2  0
  2  1  1  0
  3  2  1  0
  4  5  1  0
  4  3  2  0
  5 11  2  0
  6  5  1  0
  7  6  1  0
  7  8  1  1
  9 10  2  0
  9  7  1  0
 11 12  1  0
 14 13  1  6
 14 16  1  0
 15 14  1  0
 16 18  1  0
 16 17  1  1
 17  9  1  0
 18 19  2  0
 21 20  1  0
 21 23  1  0
 22 21  2  0
 23 24  1  0
 24 25  1  0
 26 25  1  0
 27 26  1  6
 28 27  1  0
 28 18  1  0
 29 27  1  0
 30 29  1  0
 31 29  2  0
M  END
$$$$
