YVR.pdb
     RDKit          3D

 31 31  0  0  1  0  0  0  0  0999 V2000
   10.3210  -14.1390   31.0739 O   0  0  0  0  0  0  0  0  0  0  0  0
   10.1072  -14.4112   29.7262 C   0  0  0  0  0  0  0  0  0  0  0  0
   10.4584  -15.6456   29.2439 C   0  0  0  0  0  0  0  0  0  0  0  0
   10.2645  -15.9633   27.9084 C   0  0  0  0  0  0  0  0  0  0  0  0
    9.7163  -15.0588   27.0216 C   0  0  0  0  0  0  0  0  0  0  0  0
    9.5486  -15.4798   25.6284 C   0  0  0  0  0  0  0  0  0  0  0  0
    8.1055  -15.6620   25.2253 C   0  0  2  0  0  0  0  0  0  0  0  0
    7.4405  -16.6580   26.0017 N   0  0  0  0  0  0  0  0  0  0  0  0
    8.0022  -15.8162   23.7722 C   0  0  0  0  0  0  0  0  0  0  0  0
    7.9200  -16.9921   23.2832 O   0  0  0  0  0  0  0  0  0  0  0  0
    9.3638  -13.8178   27.5084 C   0  0  0  0  0  0  0  0  0  0  0  0
    9.5635  -13.5166   28.8425 C   0  0  0  0  0  0  0  0  0  0  0  0
    6.9325  -12.9033   20.9634 C   0  0  0  0  0  0  0  0  0  0  0  0
    8.1524  -13.7172   20.6194 C   0  0  2  0  0  0  0  0  0  0  0  0
    8.3256  -13.9594   19.1556 C   0  0  0  0  0  0  0  0  0  0  0  0
    8.2091  -15.0038   21.4420 C   0  0  2  0  0  0  0  0  0  0  0  0
    7.9851  -14.7505   22.8353 N   0  0  0  0  0  0  0  0  0  0  0  0
    9.5202  -15.6078   21.1511 C   0  0  0  0  0  0  0  0  0  0  0  0
   10.5118  -15.1321   21.7696 O   0  0  0  0  0  0  0  0  0  0  0  0
    7.1879  -21.5437   18.6140 N   0  0  0  0  0  0  0  0  0  0  0  0
    7.9850  -22.2475   19.5536 C   0  0  0  0  0  0  0  0  0  0  0  0
    7.5072  -23.2222   20.2886 N   0  0  0  0  0  0  0  0  0  0  0  0
    9.3774  -21.9285   19.7570 N   0  0  0  0  0  0  0  0  0  0  0  0
    9.9947  -20.8106   19.0997 C   0  0  0  0  0  0  0  0  0  0  0  0
   10.2089  -19.6272   20.0455 C   0  0  0  0  0  0  0  0  0  0  0  0
   10.9016  -18.5570   19.2441 C   0  0  0  0  0  0  0  0  0  0  0  0
   11.0413  -17.2753   19.9920 C   0  0  2  0  0  0  0  0  0  0  0  0
    9.7444  -16.6578   20.2517 N   0  0  0  0  0  0  0  0  0  0  0  0
   11.9464  -16.2859   19.3987 C   0  0  0  0  0  0  0  0  0  0  0  0
   13.2928  -16.1460   19.6709 O   0  0  0  0  0  0  0  0  0  0  0  0
   11.4750  -15.4654   18.5515 O   0  0  0  0  0  0  0  0  0  0  0  0
  2 12  2  0
  2  1  1  0
  3  2  1  0
  4  5  1  0
  4  3  2  0
  5 11  2  0
  6  5  1  0
  7  6  1  0
  7  8  1  1
  9 10  2  0
  9  7  1  0
 11 12  1  0
 14 13  1  6
 14 16  1  0
 15 14  1  0
 16 18  1  0
 16 17  1  1
 17  9  1  0
 18 19  2  0
 21 20  1  0
 21 23  1  0
 22 21  2  0
 23 24  1  0
 24 25  1  0
 26 25  1  0
 27 26  1  6
 28 27  1  0
 28 18  1  0
 29 27  1  0
 30 29  1  0
 31 29  2  0
M  END
$$$$
