YVR.pdb
     RDKit          3D

 31 31  0  0  1  0  0  0  0  0999 V2000
    6.7155  -13.8251   15.4426 O   0  0  0  0  0  0  0  0  0  0  0  0
    6.8649  -13.9803   16.8172 C   0  0  0  0  0  0  0  0  0  0  0  0
    6.7973  -15.2441   17.3446 C   0  0  0  0  0  0  0  0  0  0  0  0
    6.9403  -15.4488   18.7083 C   0  0  0  0  0  0  0  0  0  0  0  0
    7.1541  -14.3995   19.5791 C   0  0  0  0  0  0  0  0  0  0  0  0
    7.2929  -14.7084   21.0045 C   0  0  0  0  0  0  0  0  0  0  0  0
    8.6398  -14.3323   21.5724 C   0  0  2  0  0  0  0  0  0  0  0  0
    9.7209  -14.9535   20.8780 N   0  0  0  0  0  0  0  0  0  0  0  0
    8.6397  -14.5009   23.0276 C   0  0  0  0  0  0  0  0  0  0  0  0
    9.4388  -15.3489   23.5481 O   0  0  0  0  0  0  0  0  0  0  0  0
    7.2217  -13.1292   19.0470 C   0  0  0  0  0  0  0  0  0  0  0  0
    7.0771  -12.9418   17.6852 C   0  0  0  0  0  0  0  0  0  0  0  0
    6.7275  -11.6856   25.4609 C   0  0  0  0  0  0  0  0  0  0  0  0
    7.0657  -12.9930   26.1282 C   0  0  2  0  0  0  0  0  0  0  0  0
    7.4147  -12.8619   27.5747 C   0  0  0  0  0  0  0  0  0  0  0  0
    8.1196  -13.7634   25.3337 C   0  0  2  0  0  0  0  0  0  0  0  0
    7.8110  -13.7897   23.9337 N   0  0  0  0  0  0  0  0  0  0  0  0
    8.1908  -15.0981   25.9516 C   0  0  0  0  0  0  0  0  0  0  0  0
    7.1603  -15.8203   25.8581 O   0  0  0  0  0  0  0  0  0  0  0  0
   10.9787  -19.3177   21.9562 N   0  0  0  0  0  0  0  0  0  0  0  0
   12.0524  -19.3235   22.8839 C   0  0  0  0  0  0  0  0  0  0  0  0
   13.3065  -19.2684   22.5060 N   0  0  0  0  0  0  0  0  0  0  0  0
   11.8251  -19.3916   24.3071 N   0  0  0  0  0  0  0  0  0  0  0  0
   10.5166  -19.6352   24.8471 C   0  0  0  0  0  0  0  0  0  0  0  0
    9.7697  -18.3386   25.1659 C   0  0  0  0  0  0  0  0  0  0  0  0
   10.3364  -17.8243   26.4627 C   0  0  0  0  0  0  0  0  0  0  0  0
    9.3807  -16.9552   27.2059 C   0  0  2  0  0  0  0  0  0  0  0  0
    9.3032  -15.6182   26.6253 N   0  0  0  0  0  0  0  0  0  0  0  0
    9.6048  -16.8506   28.6513 C   0  0  0  0  0  0  0  0  0  0  0  0
   10.1027  -15.7510   29.3217 O   0  0  0  0  0  0  0  0  0  0  0  0
    9.3245  -17.8514   29.3813 O   0  0  0  0  0  0  0  0  0  0  0  0
  2 12  2  0
  2  1  1  0
  3  2  1  0
  4  5  1  0
  4  3  2  0
  5 11  2  0
  6  5  1  0
  7  6  1  0
  7  8  1  6
  9 10  2  0
  9  7  1  0
 11 12  1  0
 14 13  1  6
 14 16  1  0
 15 14  1  0
 16 18  1  0
 16 17  1  6
 17  9  1  0
 18 19  2  0
 21 20  1  0
 21 23  1  0
 22 21  2  0
 23 24  1  0
 24 25  1  0
 26 25  1  0
 27 26  1  6
 28 27  1  0
 28 18  1  0
 29 27  1  0
 30 29  1  0
 31 29  2  0
M  END
$$$$
