YVR.pdb
     RDKit          3D

 31 31  0  0  1  0  0  0  0  0999 V2000
    7.8238  -14.3479   15.6955 O   0  0  0  0  0  0  0  0  0  0  0  0
    7.9511  -14.1107   17.0606 C   0  0  0  0  0  0  0  0  0  0  0  0
    8.6558  -15.0100   17.8185 C   0  0  0  0  0  0  0  0  0  0  0  0
    8.8098  -14.8164   19.1827 C   0  0  0  0  0  0  0  0  0  0  0  0
    8.2655  -13.7222   19.8242 C   0  0  0  0  0  0  0  0  0  0  0  0
    8.4775  -13.5984   21.2686 C   0  0  0  0  0  0  0  0  0  0  0  0
    8.2576  -14.8883   22.0209 C   0  0  2  0  0  0  0  0  0  0  0  0
    7.0031  -15.4956   21.7137 N   0  0  0  0  0  0  0  0  0  0  0  0
    8.5378  -14.6964   23.4459 C   0  0  0  0  0  0  0  0  0  0  0  0
    9.7519  -14.5908   23.8248 O   0  0  0  0  0  0  0  0  0  0  0  0
    7.5571  -12.8189   19.0605 C   0  0  0  0  0  0  0  0  0  0  0  0
    7.4126  -13.0262   17.7016 C   0  0  0  0  0  0  0  0  0  0  0  0
    6.0953  -12.6332   25.7727 C   0  0  0  0  0  0  0  0  0  0  0  0
    6.7984  -13.6763   26.6014 C   0  0  2  0  0  0  0  0  0  0  0  0
    7.2227  -13.1934   27.9497 C   0  0  0  0  0  0  0  0  0  0  0  0
    7.9399  -14.3262   25.8204 C   0  0  2  0  0  0  0  0  0  0  0  0
    7.5579  -14.6157   24.4690 N   0  0  0  0  0  0  0  0  0  0  0  0
    8.3292  -15.5161   26.5956 C   0  0  0  0  0  0  0  0  0  0  0  0
    7.3909  -16.2238   27.0550 O   0  0  0  0  0  0  0  0  0  0  0  0
   12.4575  -20.3008   23.1544 N   0  0  0  0  0  0  0  0  0  0  0  0
   12.7262  -18.9650   22.7580 C   0  0  0  0  0  0  0  0  0  0  0  0
   13.4946  -18.6776   21.7353 N   0  0  0  0  0  0  0  0  0  0  0  0
   12.1664  -17.8373   23.4627 N   0  0  0  0  0  0  0  0  0  0  0  0
   12.2209  -17.7453   24.8950 C   0  0  0  0  0  0  0  0  0  0  0  0
   10.8633  -18.0170   25.5461 C   0  0  0  0  0  0  0  0  0  0  0  0
   11.0675  -17.8925   27.0327 C   0  0  0  0  0  0  0  0  0  0  0  0
   10.0274  -17.0512   27.6898 C   0  0  2  0  0  0  0  0  0  0  0  0
    9.6462  -15.9153   26.8563 N   0  0  0  0  0  0  0  0  0  0  0  0
   10.3464  -16.5829   29.0422 C   0  0  0  0  0  0  0  0  0  0  0  0
   10.4112  -15.2669   29.4552 O   0  0  0  0  0  0  0  0  0  0  0  0
   10.5922  -17.4470   29.9399 O   0  0  0  0  0  0  0  0  0  0  0  0
  2 12  2  0
  2  1  1  0
  3  2  1  0
  4  5  1  0
  4  3  2  0
  5 11  2  0
  6  5  1  0
  7  6  1  0
  7  8  1  1
  9 10  2  0
  9  7  1  0
 11 12  1  0
 14 13  1  6
 14 16  1  0
 15 14  1  0
 16 18  1  0
 16 17  1  6
 17  9  1  0
 18 19  2  0
 21 20  1  0
 21 23  1  0
 22 21  2  0
 23 24  1  0
 24 25  1  0
 26 25  1  0
 27 26  1  6
 28 27  1  0
 28 18  1  0
 29 27  1  0
 30 29  1  0
 31 29  2  0
M  END
$$$$
