RVN.pdb
     RDKit          3D

 27 26  0  0  1  0  0  0  0  0999 V2000
    7.6533  -17.2054   15.8180 N   0  0  0  0  0  0  0  0  0  0  0  0
    8.0069  -17.6580   17.1169 C   0  0  0  0  0  0  0  0  0  0  0  0
    7.5045  -18.7578   17.5917 N   0  0  0  0  0  0  0  0  0  0  0  0
    8.9150  -16.9309   17.9396 N   0  0  0  0  0  0  0  0  0  0  0  0
    8.8412  -15.4694   17.9971 C   0  0  0  0  0  0  0  0  0  0  0  0
    7.8150  -15.1322   19.0542 C   0  0  0  0  0  0  0  0  0  0  0  0
    8.4086  -14.6386   20.3305 C   0  0  0  0  0  0  0  0  0  0  0  0
    7.7953  -15.1970   21.5775 C   0  0  2  0  0  0  0  0  0  0  0  0
    6.3959  -14.7334   21.5974 N   0  0  0  0  0  0  0  0  0  0  0  0
    8.4447  -14.7727   22.8162 C   0  0  0  0  0  0  0  0  0  0  0  0
    9.6655  -15.0178   22.9886 O   0  0  0  0  0  0  0  0  0  0  0  0
    7.7778  -19.0877   18.5425 C   0  0  0  0  0  0  0  0  0  0  0  0
    7.6739  -12.4573   27.1456 C   0  0  1  0  0  0  0  0  0  0  0  0
    7.1084  -13.0063   25.8557 C   0  0  0  0  0  0  0  0  0  0  0  0
    5.9802  -13.9581   26.1380 C   0  0  2  0  0  0  0  0  0  0  0  0
    8.2464  -13.7106   25.1021 N   0  0  0  0  0  0  0  0  0  0  0  0
    7.7241  -14.0897   23.8273 C   0  0  0  0  0  0  0  0  0  0  0  0
    8.5569  -14.9260   25.9185 O   0  0  0  0  0  0  0  0  0  0  0  0
    7.6280  -15.7358   26.2491 N   0  0  0  0  0  0  0  0  0  0  0  0
   12.5513  -16.9814   24.5631 C   0  0  0  0  0  0  0  0  0  0  0  0
   11.5133  -17.5361   25.3376 O   0  0  0  0  0  0  0  0  0  0  0  0
   10.7132  -18.3340   24.8199 C   0  0  0  0  0  0  0  0  0  0  0  0
   11.3835  -17.1671   26.7547 C   0  0  2  0  0  0  0  0  0  0  0  0
   10.1086  -16.4680   27.0730 N   0  0  0  0  0  0  0  0  0  0  0  0
    9.8572  -15.2563   26.3695 C   0  0  0  0  0  0  0  0  0  0  0  0
   10.1437  -16.1323   28.5420 O   0  0  0  0  0  0  0  0  0  0  0  0
   10.0626  -17.0224   29.4292 O   0  0  0  0  0  0  0  0  0  0  0  0
  2  1  1  0
  3  2  2  0
  4  2  1  0
  5  4  1  0
  6  5  1  0
  7  6  1  0
  8  7  1  0
  8  9  1  1
 10 16  1  0
 10  8  1  0
 11 10  2  0
 13 12  1  6
 13 14  1  0
 15 16  1  1
 15 13  1  0
 17 15  1  0
 18 17  2  0
 20 19  1  0
 21 20  2  0
 22 20  1  0
 23 22  1  6
 23 24  1  0
 24 17  1  0
 25 23  1  0
 26 25  2  0
 27 25  1  0
M  END
$$$$
