RVN.pdb
     RDKit          3D

 27 26  0  0  1  0  0  0  0  0999 V2000
    8.9083  -14.9172   17.6018 N   0  0  0  0  0  0  0  0  0  0  0  0
    8.3319  -13.6228   17.6983 C   0  0  0  0  0  0  0  0  0  0  0  0
    8.0039  -12.9652   16.6271 N   0  0  0  0  0  0  0  0  0  0  0  0
    8.0951  -13.0029   18.9592 N   0  0  0  0  0  0  0  0  0  0  0  0
    8.3866  -13.7280   20.1976 C   0  0  0  0  0  0  0  0  0  0  0  0
    7.4543  -14.9171   20.2291 C   0  0  0  0  0  0  0  0  0  0  0  0
    8.1226  -16.1932   20.6161 C   0  0  0  0  0  0  0  0  0  0  0  0
    7.8911  -16.6318   22.0293 C   0  0  2  0  0  0  0  0  0  0  0  0
    6.4295  -16.6724   22.2190 N   0  0  0  0  0  0  0  0  0  0  0  0
    8.4682  -15.7493   23.0413 C   0  0  0  0  0  0  0  0  0  0  0  0
    9.6940  -15.4744   22.9942 O   0  0  0  0  0  0  0  0  0  0  0  0
    7.6017  -12.0063   16.7070 C   0  0  0  0  0  0  0  0  0  0  0  0
    6.6237  -12.7575   24.7763 C   0  0  1  0  0  0  0  0  0  0  0  0
    7.0408  -13.7387   25.8479 C   0  0  0  0  0  0  0  0  0  0  0  0
    7.4930  -13.0101   27.0821 C   0  0  2  0  0  0  0  0  0  0  0  0
    8.1708  -14.6093   25.2784 N   0  0  0  0  0  0  0  0  0  0  0  0
    7.6721  -15.1970   24.0753 C   0  0  0  0  0  0  0  0  0  0  0  0
    8.4053  -15.6645   26.3135 O   0  0  0  0  0  0  0  0  0  0  0  0
    7.4682  -16.4654   26.6424 N   0  0  0  0  0  0  0  0  0  0  0  0
   12.4772  -19.7443   27.3320 C   0  0  0  0  0  0  0  0  0  0  0  0
   11.1449  -19.2861   27.3312 O   0  0  0  0  0  0  0  0  0  0  0  0
   10.2564  -19.9653   27.8733 C   0  0  0  0  0  0  0  0  0  0  0  0
   10.8145  -18.0058   26.6886 C   0  0  2  0  0  0  0  0  0  0  0  0
    9.9956  -17.1045   27.5446 N   0  0  0  0  0  0  0  0  0  0  0  0
    9.6397  -15.8464   26.9819 C   0  0  0  0  0  0  0  0  0  0  0  0
   10.7999  -16.8257   28.7885 O   0  0  0  0  0  0  0  0  0  0  0  0
   11.1631  -17.7477   29.5657 O   0  0  0  0  0  0  0  0  0  0  0  0
  2  1  1  0
  3  2  2  0
  4  2  1  0
  5  4  1  0
  6  5  1  0
  7  6  1  0
  8  7  1  0
  8  9  1  1
 10 16  1  0
 10  8  1  0
 11 10  2  0
 13 12  1  1
 13 14  1  0
 15 16  1  6
 15 13  1  0
 17 15  1  0
 18 17  2  0
 20 19  1  0
 21 20  2  0
 22 20  1  0
 23 22  1  6
 23 24  1  0
 24 17  1  0
 25 23  1  0
 26 25  2  0
 27 25  1  0
M  END
$$$$
