RVN.pdb
     RDKit          3D

 27 26  0  0  1  0  0  0  0  0999 V2000
   10.6725  -19.0109   20.1985 N   0  0  0  0  0  0  0  0  0  0  0  0
    9.7376  -18.8269   19.1453 C   0  0  0  0  0  0  0  0  0  0  0  0
    9.6211  -19.7145   18.2041 N   0  0  0  0  0  0  0  0  0  0  0  0
    8.9022  -17.6744   19.0813 N   0  0  0  0  0  0  0  0  0  0  0  0
    9.0051  -16.6376   20.1104 C   0  0  0  0  0  0  0  0  0  0  0  0
    8.0375  -15.5450   19.7178 C   0  0  0  0  0  0  0  0  0  0  0  0
    6.9898  -15.2743   20.7446 C   0  0  0  0  0  0  0  0  0  0  0  0
    6.9771  -13.8800   21.2911 C   0  0  2  0  0  0  0  0  0  0  0  0
    7.5640  -13.0183   20.2486 N   0  0  0  0  0  0  0  0  0  0  0  0
    7.7403  -13.7044   22.5251 C   0  0  0  0  0  0  0  0  0  0  0  0
    8.9718  -13.4607   22.4600 O   0  0  0  0  0  0  0  0  0  0  0  0
    8.9579  -19.5538   17.4154 C   0  0  0  0  0  0  0  0  0  0  0  0
    6.0857  -11.9054   25.6043 C   0  0  1  0  0  0  0  0  0  0  0  0
    6.6841  -13.2166   26.0604 C   0  0  0  0  0  0  0  0  0  0  0  0
    7.2569  -13.0814   27.4432 C   0  0  2  0  0  0  0  0  0  0  0  0
    7.7711  -13.6169   25.0518 N   0  0  0  0  0  0  0  0  0  0  0  0
    7.1184  -13.8035   23.7945 C   0  0  0  0  0  0  0  0  0  0  0  0
    8.3069  -14.9197   25.5572 O   0  0  0  0  0  0  0  0  0  0  0  0
    7.5880  -15.9729   25.5152 N   0  0  0  0  0  0  0  0  0  0  0  0
   12.9699  -16.3351   24.2248 C   0  0  0  0  0  0  0  0  0  0  0  0
   11.7316  -16.7618   24.7439 O   0  0  0  0  0  0  0  0  0  0  0  0
   10.8568  -17.1996   23.9771 C   0  0  0  0  0  0  0  0  0  0  0  0
   11.4823  -16.6865   26.1907 C   0  0  2  0  0  0  0  0  0  0  0  0
   10.0745  -16.3474   26.5349 N   0  0  0  0  0  0  0  0  0  0  0  0
    9.6044  -15.0758   26.1009 C   0  0  0  0  0  0  0  0  0  0  0  0
    9.9688  -16.3731   28.0382 O   0  0  0  0  0  0  0  0  0  0  0  0
    9.6848  -15.3413   28.7022 O   0  0  0  0  0  0  0  0  0  0  0  0
  2  1  1  0
  3  2  2  0
  4  2  1  0
  5  4  1  0
  6  5  1  0
  7  6  1  0
  8  7  1  0
  8  9  1  6
 10 16  1  0
 10  8  1  0
 11 10  2  0
 13 12  1  1
 13 14  1  0
 15 16  1  6
 15 13  1  0
 17 15  1  0
 18 17  2  0
 20 19  1  0
 21 20  2  0
 22 20  1  0
 23 22  1  6
 23 24  1  0
 24 17  1  0
 25 23  1  0
 26 25  2  0
 27 25  1  0
M  END
$$$$
