RVN.pdb
     RDKit          3D

 27 26  0  0  1  0  0  0  0  0999 V2000
    7.1922  -14.1393   16.8790 N   0  0  0  0  0  0  0  0  0  0  0  0
    8.4033  -13.5841   17.3711 C   0  0  0  0  0  0  0  0  0  0  0  0
    8.6928  -12.3364   17.1549 N   0  0  0  0  0  0  0  0  0  0  0  0
    9.3367  -14.3660   18.1113 N   0  0  0  0  0  0  0  0  0  0  0  0
    9.1016  -15.7985   18.3037 C   0  0  0  0  0  0  0  0  0  0  0  0
    8.2373  -15.9304   19.5365 C   0  0  0  0  0  0  0  0  0  0  0  0
    9.0073  -15.9092   20.8139 C   0  0  0  0  0  0  0  0  0  0  0  0
    8.1957  -16.1355   22.0521 C   0  0  2  0  0  0  0  0  0  0  0  0
    6.7899  -15.8949   21.6787 N   0  0  0  0  0  0  0  0  0  0  0  0
    8.5374  -15.2594   23.1709 C   0  0  0  0  0  0  0  0  0  0  0  0
    9.0694  -14.1438   22.9412 O   0  0  0  0  0  0  0  0  0  0  0  0
    9.6191  -11.9578   17.4487 C   0  0  0  0  0  0  0  0  0  0  0  0
    7.8127  -12.8037   26.8371 C   0  0  2  0  0  0  0  0  0  0  0  0
    7.5083  -13.7111   25.6671 C   0  0  0  0  0  0  0  0  0  0  0  0
    6.1130  -14.2590   25.7744 C   0  0  2  0  0  0  0  0  0  0  0  0
    8.5452  -14.8442   25.6649 N   0  0  0  0  0  0  0  0  0  0  0  0
    8.2803  -15.6433   24.5104 C   0  0  0  0  0  0  0  0  0  0  0  0
    8.2681  -15.6246   26.9115 O   0  0  0  0  0  0  0  0  0  0  0  0
    7.1122  -16.1245   27.1162 N   0  0  0  0  0  0  0  0  0  0  0  0
   10.7850  -19.6882   28.6156 C   0  0  0  0  0  0  0  0  0  0  0  0
   10.9385  -19.1659   27.3161 O   0  0  0  0  0  0  0  0  0  0  0  0
   11.5129  -19.8381   26.4426 C   0  0  0  0  0  0  0  0  0  0  0  0
   10.4171  -17.8278   27.0017 C   0  0  1  0  0  0  0  0  0  0  0  0
    9.7543  -17.1613   28.1558 N   0  0  0  0  0  0  0  0  0  0  0  0
    9.2323  -15.8579   27.9210 C   0  0  0  0  0  0  0  0  0  0  0  0
   10.7862  -17.0390   29.2475 O   0  0  0  0  0  0  0  0  0  0  0  0
   11.5774  -16.0609   29.3076 O   0  0  0  0  0  0  0  0  0  0  0  0
  2  1  1  0
  3  2  2  0
  4  2  1  0
  5  4  1  0
  6  5  1  0
  7  6  1  0
  8  7  1  0
  8  9  1  6
 10 16  1  0
 10  8  1  0
 11 10  2  0
 13 12  1  6
 13 14  1  0
 15 16  1  1
 15 13  1  0
 17 15  1  0
 18 17  2  0
 20 19  1  0
 21 20  2  0
 22 20  1  0
 23 22  1  6
 23 24  1  0
 24 17  1  0
 25 23  1  0
 26 25  2  0
 27 25  1  0
M  END
$$$$
