RVN.pdb
     RDKit          3D

 27 26  0  0  1  0  0  0  0  0999 V2000
    9.6173  -14.3811   17.1994 N   0  0  0  0  0  0  0  0  0  0  0  0
    8.2629  -13.9546   17.1705 C   0  0  0  0  0  0  0  0  0  0  0  0
    7.9452  -12.8010   16.6649 N   0  0  0  0  0  0  0  0  0  0  0  0
    7.2132  -14.7662   17.6898 N   0  0  0  0  0  0  0  0  0  0  0  0
    7.0860  -14.9618   19.1355 C   0  0  0  0  0  0  0  0  0  0  0  0
    8.4577  -15.3478   19.6393 C   0  0  0  0  0  0  0  0  0  0  0  0
    8.4911  -15.6799   21.0931 C   0  0  0  0  0  0  0  0  0  0  0  0
    7.7796  -14.7103   21.9856 C   0  0  2  0  0  0  0  0  0  0  0  0
    7.7663  -13.4198   21.2726 N   0  0  0  0  0  0  0  0  0  0  0  0
    8.4059  -14.5148   23.2917 C   0  0  0  0  0  0  0  0  0  0  0  0
    9.5467  -14.9966   23.5075 O   0  0  0  0  0  0  0  0  0  0  0  0
    6.9454  -12.5068   16.6253 C   0  0  0  0  0  0  0  0  0  0  0  0
    5.9357  -13.2922   26.3697 C   0  0  1  0  0  0  0  0  0  0  0  0
    7.2902  -12.6216   26.3409 C   0  0  0  0  0  0  0  0  0  0  0  0
    7.2084  -11.2996   25.6307 C   0  0  1  0  0  0  0  0  0  0  0  0
    8.2712  -13.5669   25.6317 N   0  0  0  0  0  0  0  0  0  0  0  0
    7.7515  -13.7920   24.3199 C   0  0  0  0  0  0  0  0  0  0  0  0
    8.2338  -14.8327   26.4294 O   0  0  0  0  0  0  0  0  0  0  0  0
    7.5410  -15.8269   26.0301 N   0  0  0  0  0  0  0  0  0  0  0  0
   11.1949  -17.1005   24.5296 C   0  0  0  0  0  0  0  0  0  0  0  0
   10.5984  -17.2675   25.7951 O   0  0  0  0  0  0  0  0  0  0  0  0
    9.8217  -18.2175   25.9928 C   0  0  0  0  0  0  0  0  0  0  0  0
   10.8994  -16.3161   26.8745 C   0  0  2  0  0  0  0  0  0  0  0  0
    9.7831  -16.1434   27.8438 N   0  0  0  0  0  0  0  0  0  0  0  0
    8.9382  -15.0154   27.6434 C   0  0  0  0  0  0  0  0  0  0  0  0
   10.4027  -16.0000   29.2103 O   0  0  0  0  0  0  0  0  0  0  0  0
   10.9448  -14.9267   29.5848 O   0  0  0  0  0  0  0  0  0  0  0  0
  2  1  1  0
  3  2  2  0
  4  2  1  0
  5  4  1  0
  6  5  1  0
  7  6  1  0
  8  7  1  0
  8  9  1  6
 10 16  1  0
 10  8  1  0
 11 10  2  0
 13 12  1  1
 13 14  1  0
 15 16  1  6
 15 13  1  0
 17 15  1  0
 18 17  2  0
 20 19  1  0
 21 20  2  0
 22 20  1  0
 23 22  1  6
 23 24  1  0
 24 17  1  0
 25 23  1  0
 26 25  2  0
 27 25  1  0
M  END
$$$$
