RVN.pdb
     RDKit          3D

 27 26  0  0  1  0  0  0  0  0999 V2000
    9.1986  -15.4920   16.4116 N   0  0  0  0  0  0  0  0  0  0  0  0
    8.0045  -15.0560   15.7783 C   0  0  0  0  0  0  0  0  0  0  0  0
    7.8374  -15.2206   14.5006 N   0  0  0  0  0  0  0  0  0  0  0  0
    6.9567  -14.4280   16.5117 N   0  0  0  0  0  0  0  0  0  0  0  0
    7.2531  -13.7462   17.7734 C   0  0  0  0  0  0  0  0  0  0  0  0
    8.0260  -14.7295   18.6219 C   0  0  0  0  0  0  0  0  0  0  0  0
    7.5946  -14.7583   20.0496 C   0  0  0  0  0  0  0  0  0  0  0  0
    7.6791  -13.4471   20.7683 C   0  0  2  0  0  0  0  0  0  0  0  0
    8.5269  -12.5711   19.9390 N   0  0  0  0  0  0  0  0  0  0  0  0
    8.2590  -13.5249   22.1076 C   0  0  0  0  0  0  0  0  0  0  0  0
    9.5024  -13.6593   22.2352 O   0  0  0  0  0  0  0  0  0  0  0  0
    6.9642  -14.8824   14.0414 C   0  0  0  0  0  0  0  0  0  0  0  0
    6.3175  -11.7751   25.3191 C   0  0  1  0  0  0  0  0  0  0  0  0
    6.7134  -13.2202   25.5192 C   0  0  0  0  0  0  0  0  0  0  0  0
    7.0493  -13.4797   26.9609 C   0  0  2  0  0  0  0  0  0  0  0  0
    7.9191  -13.5104   24.6130 N   0  0  0  0  0  0  0  0  0  0  0  0
    7.4461  -13.4517   23.2660 C   0  0  0  0  0  0  0  0  0  0  0  0
    8.3347  -14.9064   24.9572 O   0  0  0  0  0  0  0  0  0  0  0  0
    7.5925  -15.8960   24.6449 N   0  0  0  0  0  0  0  0  0  0  0  0
   11.8212  -19.1653   24.7151 C   0  0  0  0  0  0  0  0  0  0  0  0
   11.8792  -18.1719   25.7126 O   0  0  0  0  0  0  0  0  0  0  0  0
   12.3112  -18.4545   26.8432 C   0  0  0  0  0  0  0  0  0  0  0  0
   11.4283  -16.8061   25.4087 C   0  0  1  0  0  0  0  0  0  0  0  0
    9.9957  -16.5664   25.7341 N   0  0  0  0  0  0  0  0  0  0  0  0
    9.5385  -15.2223   25.6312 C   0  0  0  0  0  0  0  0  0  0  0  0
    9.7886  -17.0004   27.1626 O   0  0  0  0  0  0  0  0  0  0  0  0
    9.6350  -16.1674   28.0946 O   0  0  0  0  0  0  0  0  0  0  0  0
  2  1  1  0
  3  2  2  0
  4  2  1  0
  5  4  1  0
  6  5  1  0
  7  6  1  0
  8  7  1  0
  8  9  1  6
 10 16  1  0
 10  8  1  0
 11 10  2  0
 13 12  1  1
 13 14  1  0
 15 16  1  1
 15 13  1  0
 17 15  1  0
 18 17  2  0
 20 19  1  0
 21 20  2  0
 22 20  1  0
 23 22  1  6
 23 24  1  0
 24 17  1  0
 25 23  1  0
 26 25  2  0
 27 25  1  0
M  END
$$$$
