RVN.pdb
     RDKit          3D

 27 26  0  0  1  0  0  0  0  0999 V2000
    8.9354  -12.5715   17.9221 N   0  0  0  0  0  0  0  0  0  0  0  0
    8.3715  -13.6830   17.2411 C   0  0  0  0  0  0  0  0  0  0  0  0
    8.3690  -13.7293   15.9429 N   0  0  0  0  0  0  0  0  0  0  0  0
    7.7927  -14.7765   17.9478 N   0  0  0  0  0  0  0  0  0  0  0  0
    8.1135  -14.9867   19.3611 C   0  0  0  0  0  0  0  0  0  0  0  0
    7.2636  -16.1465   19.8268 C   0  0  0  0  0  0  0  0  0  0  0  0
    7.6189  -16.6417   21.1882 C   0  0  0  0  0  0  0  0  0  0  0  0
    6.8481  -16.0232   22.3135 C   0  0  2  0  0  0  0  0  0  0  0  0
    5.6233  -15.4579   21.7185 N   0  0  0  0  0  0  0  0  0  0  0  0
    7.5562  -14.9589   23.0219 C   0  0  0  0  0  0  0  0  0  0  0  0
    8.5330  -14.3929   22.4689 O   0  0  0  0  0  0  0  0  0  0  0  0
    7.9548  -14.5507   15.4515 C   0  0  0  0  0  0  0  0  0  0  0  0
    7.7773  -12.2625   27.1621 C   0  0  1  0  0  0  0  0  0  0  0  0
    6.9865  -13.1821   26.2598 C   0  0  0  0  0  0  0  0  0  0  0  0
    6.3383  -14.2763   27.0605 C   0  0  2  0  0  0  0  0  0  0  0  0
    7.9502  -13.7629   25.2144 N   0  0  0  0  0  0  0  0  0  0  0  0
    7.1626  -14.5522   24.3210 C   0  0  0  0  0  0  0  0  0  0  0  0
    8.8846  -14.6356   25.9923 O   0  0  0  0  0  0  0  0  0  0  0  0
    9.8660  -14.1249   26.6279 N   0  0  0  0  0  0  0  0  0  0  0  0
   11.7102  -16.9548   23.8924 C   0  0  0  0  0  0  0  0  0  0  0  0
   10.9452  -17.5828   24.8951 O   0  0  0  0  0  0  0  0  0  0  0  0
   10.2325  -18.5601   24.6090 C   0  0  0  0  0  0  0  0  0  0  0  0
   10.9955  -17.0775   26.2747 C   0  0  2  0  0  0  0  0  0  0  0  0
    9.6528  -16.8197   26.8630 N   0  0  0  0  0  0  0  0  0  0  0  0
    8.7551  -16.0425   26.0779 C   0  0  0  0  0  0  0  0  0  0  0  0
    9.8723  -16.0774   28.1563 O   0  0  0  0  0  0  0  0  0  0  0  0
    9.3319  -14.9625   28.3826 O   0  0  0  0  0  0  0  0  0  0  0  0
  2  1  1  0
  3  2  2  0
  4  2  1  0
  5  4  1  0
  6  5  1  0
  7  6  1  0
  8  7  1  0
  8  9  1  6
 10 16  1  0
 10  8  1  0
 11 10  2  0
 13 12  1  1
 13 14  1  0
 15 16  1  1
 15 13  1  0
 17 15  1  0
 18 17  2  0
 20 19  1  0
 21 20  2  0
 22 20  1  0
 23 22  1  6
 23 24  1  0
 24 17  1  0
 25 23  1  0
 26 25  2  0
 27 25  1  0
M  END
$$$$
