RVN.pdb
     RDKit          3D

 27 26  0  0  1  0  0  0  0  0999 V2000
    5.4670  -18.2799   17.4864 N   0  0  0  0  0  0  0  0  0  0  0  0
    6.8387  -18.3081   17.1195 C   0  0  0  0  0  0  0  0  0  0  0  0
    7.3180  -19.3022   16.4344 N   0  0  0  0  0  0  0  0  0  0  0  0
    7.7313  -17.2595   17.4855 N   0  0  0  0  0  0  0  0  0  0  0  0
    7.2171  -16.0572   18.1447 C   0  0  0  0  0  0  0  0  0  0  0  0
    6.8211  -16.4701   19.5436 C   0  0  0  0  0  0  0  0  0  0  0  0
    7.7286  -15.9436   20.6039 C   0  0  0  0  0  0  0  0  0  0  0  0
    7.4547  -14.5364   21.0373 C   0  0  2  0  0  0  0  0  0  0  0  0
    7.9670  -13.6630   19.9657 N   0  0  0  0  0  0  0  0  0  0  0  0
    8.0922  -14.1535   22.2955 C   0  0  0  0  0  0  0  0  0  0  0  0
    9.2960  -13.7913   22.2925 O   0  0  0  0  0  0  0  0  0  0  0  0
    8.3291  -19.3199   16.1792 C   0  0  0  0  0  0  0  0  0  0  0  0
    6.4933  -11.9460   24.9501 C   0  0  1  0  0  0  0  0  0  0  0  0
    6.8526  -13.2411   25.6419 C   0  0  0  0  0  0  0  0  0  0  0  0
    7.3327  -12.9754   27.0410 C   0  0  2  0  0  0  0  0  0  0  0  0
    7.9408  -13.9358   24.8099 N   0  0  0  0  0  0  0  0  0  0  0  0
    7.3789  -14.1824   23.5196 C   0  0  0  0  0  0  0  0  0  0  0  0
    8.2030  -15.2282   25.5178 O   0  0  0  0  0  0  0  0  0  0  0  0
    7.2324  -15.9501   25.9236 N   0  0  0  0  0  0  0  0  0  0  0  0
   11.8805  -16.2457   24.8932 C   0  0  0  0  0  0  0  0  0  0  0  0
   11.4985  -17.6008   24.8397 O   0  0  0  0  0  0  0  0  0  0  0  0
   12.1587  -18.4035   24.1581 C   0  0  0  0  0  0  0  0  0  0  0  0
   10.3206  -18.0567   25.5918 C   0  0  1  0  0  0  0  0  0  0  0  0
    9.6907  -16.9887   26.4154 N   0  0  0  0  0  0  0  0  0  0  0  0
    9.5005  -15.7284   25.7815 C   0  0  0  0  0  0  0  0  0  0  0  0
   10.5891  -16.7596   27.6038 O   0  0  0  0  0  0  0  0  0  0  0  0
   10.8919  -17.6897   28.3971 O   0  0  0  0  0  0  0  0  0  0  0  0
  2  1  1  0
  3  2  2  0
  4  2  1  0
  5  4  1  0
  6  5  1  0
  7  6  1  0
  8  7  1  0
  8  9  1  6
 10 16  1  0
 10  8  1  0
 11 10  2  0
 13 12  1  1
 13 14  1  0
 15 16  1  6
 15 13  1  0
 17 15  1  0
 18 17  2  0
 20 19  1  0
 21 20  2  0
 22 20  1  0
 23 22  1  6
 23 24  1  0
 24 17  1  0
 25 23  1  0
 26 25  2  0
 27 25  1  0
M  END
$$$$
