RVN.pdb
     RDKit          3D

 27 26  0  0  1  0  0  0  0  0999 V2000
    7.9874  -13.4181   15.3286 N   0  0  0  0  0  0  0  0  0  0  0  0
    8.5221  -14.6507   15.7889 C   0  0  0  0  0  0  0  0  0  0  0  0
    8.9320  -15.5485   14.9443 N   0  0  0  0  0  0  0  0  0  0  0  0
    8.6271  -14.9464   17.1788 N   0  0  0  0  0  0  0  0  0  0  0  0
    7.4783  -14.7331   18.0615 C   0  0  0  0  0  0  0  0  0  0  0  0
    7.7513  -13.4553   18.8209 C   0  0  0  0  0  0  0  0  0  0  0  0
    8.6619  -13.6346   19.9887 C   0  0  0  0  0  0  0  0  0  0  0  0
    8.1634  -14.5672   21.0493 C   0  0  2  0  0  0  0  0  0  0  0  0
    6.7057  -14.3626   21.1327 N   0  0  0  0  0  0  0  0  0  0  0  0
    8.7417  -14.3461   22.3732 C   0  0  0  0  0  0  0  0  0  0  0  0
    9.9730  -14.5296   22.5475 O   0  0  0  0  0  0  0  0  0  0  0  0
    9.2942  -16.4631   15.2907 C   0  0  0  0  0  0  0  0  0  0  0  0
    7.8434  -12.5766   26.9045 C   0  0  1  0  0  0  0  0  0  0  0  0
    7.3072  -12.9540   25.5425 C   0  0  0  0  0  0  0  0  0  0  0  0
    6.0558  -13.7753   25.6781 C   0  0  2  0  0  0  0  0  0  0  0  0
    8.4019  -13.7381   24.8037 N   0  0  0  0  0  0  0  0  0  0  0  0
    7.9406  -13.9283   23.4649 C   0  0  0  0  0  0  0  0  0  0  0  0
    8.4847  -15.0517   25.5162 O   0  0  0  0  0  0  0  0  0  0  0  0
    7.5502  -15.9118   25.3943 N   0  0  0  0  0  0  0  0  0  0  0  0
   11.4872  -19.6726   25.2126 C   0  0  0  0  0  0  0  0  0  0  0  0
   11.4429  -18.6919   26.2232 O   0  0  0  0  0  0  0  0  0  0  0  0
   11.6860  -19.0053   27.4011 C   0  0  0  0  0  0  0  0  0  0  0  0
   11.1095  -17.3026   25.8771 C   0  0  1  0  0  0  0  0  0  0  0  0
    9.8924  -16.7935   26.5663 N   0  0  0  0  0  0  0  0  0  0  0  0
    9.5664  -15.4250   26.3492 C   0  0  0  0  0  0  0  0  0  0  0  0
   10.1167  -16.9695   28.0464 O   0  0  0  0  0  0  0  0  0  0  0  0
   10.3114  -15.9875   28.8105 O   0  0  0  0  0  0  0  0  0  0  0  0
  2  1  1  0
  3  2  2  0
  4  2  1  0
  5  4  1  0
  6  5  1  0
  7  6  1  0
  8  7  1  0
  8  9  1  1
 10 16  1  0
 10  8  1  0
 11 10  2  0
 13 12  1  6
 13 14  1  0
 15 16  1  1
 15 13  1  0
 17 15  1  0
 18 17  2  0
 20 19  1  0
 21 20  2  0
 22 20  1  0
 23 22  1  6
 23 24  1  0
 24 17  1  0
 25 23  1  0
 26 25  2  0
 27 25  1  0
M  END
$$$$
