RVN.pdb
     RDKit          3D

 27 26  0  0  1  0  0  0  0  0999 V2000
    8.9282  -15.9640   16.2747 N   0  0  0  0  0  0  0  0  0  0  0  0
    7.8606  -15.1720   15.7747 C   0  0  0  0  0  0  0  0  0  0  0  0
    7.4821  -15.2808   14.5369 N   0  0  0  0  0  0  0  0  0  0  0  0
    7.1725  -14.2381   16.6021 N   0  0  0  0  0  0  0  0  0  0  0  0
    7.7489  -13.8344   17.8864 C   0  0  0  0  0  0  0  0  0  0  0  0
    7.1617  -14.7566   18.9299 C   0  0  0  0  0  0  0  0  0  0  0  0
    7.8685  -14.7043   20.2424 C   0  0  0  0  0  0  0  0  0  0  0  0
    7.7259  -13.4161   20.9930 C   0  0  2  0  0  0  0  0  0  0  0  0
    8.3089  -12.3676   20.1361 N   0  0  0  0  0  0  0  0  0  0  0  0
    8.4029  -13.3897   22.2880 C   0  0  0  0  0  0  0  0  0  0  0  0
    9.6514  -13.5288   22.3349 O   0  0  0  0  0  0  0  0  0  0  0  0
    6.7366  -14.6546   14.1629 C   0  0  0  0  0  0  0  0  0  0  0  0
    7.7619  -12.7917   27.1685 C   0  0  1  0  0  0  0  0  0  0  0  0
    7.1784  -12.7517   25.7746 C   0  0  0  0  0  0  0  0  0  0  0  0
    5.8935  -13.5292   25.7188 C   0  0  2  0  0  0  0  0  0  0  0  0
    8.2187  -13.3390   24.8091 N   0  0  0  0  0  0  0  0  0  0  0  0
    7.6787  -13.2098   23.4927 C   0  0  0  0  0  0  0  0  0  0  0  0
    8.3254  -14.7832   25.1873 O   0  0  0  0  0  0  0  0  0  0  0  0
    7.3009  -15.5416   25.1337 N   0  0  0  0  0  0  0  0  0  0  0  0
   12.0294  -16.6351   23.6234 C   0  0  0  0  0  0  0  0  0  0  0  0
   10.9767  -17.4449   24.0935 O   0  0  0  0  0  0  0  0  0  0  0  0
   10.2615  -18.0614   23.2853 C   0  0  0  0  0  0  0  0  0  0  0  0
   10.7314  -17.5559   25.5387 C   0  0  2  0  0  0  0  0  0  0  0  0
    9.5614  -16.7632   26.0060 N   0  0  0  0  0  0  0  0  0  0  0  0
    9.5274  -15.3940   25.6179 C   0  0  0  0  0  0  0  0  0  0  0  0
    9.5764  -16.7998   27.5128 O   0  0  0  0  0  0  0  0  0  0  0  0
    9.6424  -15.7482   28.2025 O   0  0  0  0  0  0  0  0  0  0  0  0
  2  1  1  0
  3  2  2  0
  4  2  1  0
  5  4  1  0
  6  5  1  0
  7  6  1  0
  8  7  1  0
  8  9  1  6
 10 16  1  0
 10  8  1  0
 11 10  2  0
 13 12  1  1
 13 14  1  0
 15 16  1  1
 15 13  1  0
 17 15  1  0
 18 17  2  0
 20 19  1  0
 21 20  2  0
 22 20  1  0
 23 22  1  6
 23 24  1  0
 24 17  1  0
 25 23  1  0
 26 25  2  0
 27 25  1  0
M  END
$$$$
