RVN.pdb
     RDKit          3D

 27 26  0  0  1  0  0  0  0  0999 V2000
    9.1595  -14.3825   16.9439 N   0  0  0  0  0  0  0  0  0  0  0  0
    7.8058  -13.9876   16.7750 C   0  0  0  0  0  0  0  0  0  0  0  0
    7.3566  -13.6569   15.6018 N   0  0  0  0  0  0  0  0  0  0  0  0
    6.8995  -13.9388   17.8734 N   0  0  0  0  0  0  0  0  0  0  0  0
    7.4110  -13.9496   19.2455 C   0  0  0  0  0  0  0  0  0  0  0  0
    8.1359  -15.2638   19.4236 C   0  0  0  0  0  0  0  0  0  0  0  0
    8.7698  -15.4222   20.7645 C   0  0  0  0  0  0  0  0  0  0  0  0
    7.9010  -15.0561   21.9283 C   0  0  2  0  0  0  0  0  0  0  0  0
    6.9708  -14.0197   21.4442 N   0  0  0  0  0  0  0  0  0  0  0  0
    8.6243  -14.5302   23.0843 C   0  0  0  0  0  0  0  0  0  0  0  0
    9.7682  -14.0344   22.9236 O   0  0  0  0  0  0  0  0  0  0  0  0
    6.3824  -13.2990   15.4987 C   0  0  0  0  0  0  0  0  0  0  0  0
    6.4350  -13.9419   26.5241 C   0  0  1  0  0  0  0  0  0  0  0  0
    7.7177  -13.1784   26.2859 C   0  0  0  0  0  0  0  0  0  0  0  0
    7.4548  -11.9523   25.4574 C   0  0  1  0  0  0  0  0  0  0  0  0
    8.7039  -14.1192   25.5778 N   0  0  0  0  0  0  0  0  0  0  0  0
    8.0603  -14.5683   24.3838 C   0  0  0  0  0  0  0  0  0  0  0  0
    8.8966  -15.2617   26.5251 O   0  0  0  0  0  0  0  0  0  0  0  0
    7.9078  -15.9938   26.8628 N   0  0  0  0  0  0  0  0  0  0  0  0
   12.5834  -17.6625   25.5508 C   0  0  0  0  0  0  0  0  0  0  0  0
   11.4735  -18.0633   26.3205 O   0  0  0  0  0  0  0  0  0  0  0  0
   10.5819  -18.7595   25.8054 C   0  0  0  0  0  0  0  0  0  0  0  0
   11.3776  -17.6554   27.7296 C   0  0  2  0  0  0  0  0  0  0  0  0
   10.2691  -16.6991   27.9979 N   0  0  0  0  0  0  0  0  0  0  0  0
   10.1452  -15.6034   27.0976 C   0  0  0  0  0  0  0  0  0  0  0  0
   10.5043  -16.1241   29.3712 O   0  0  0  0  0  0  0  0  0  0  0  0
   10.6470  -14.8868   29.5581 O   0  0  0  0  0  0  0  0  0  0  0  0
  2  1  1  0
  3  2  2  0
  4  2  1  0
  5  4  1  0
  6  5  1  0
  7  6  1  0
  8  7  1  0
  8  9  1  6
 10 16  1  0
 10  8  1  0
 11 10  2  0
 13 12  1  1
 13 14  1  0
 15 16  1  6
 15 13  1  0
 17 15  1  0
 18 17  2  0
 20 19  1  0
 21 20  2  0
 22 20  1  0
 23 22  1  6
 23 24  1  0
 24 17  1  0
 25 23  1  0
 26 25  2  0
 27 25  1  0
M  END
$$$$
