RVN.pdb
     RDKit          3D

 27 26  0  0  1  0  0  0  0  0999 V2000
    7.4290  -12.8493   16.8154 N   0  0  0  0  0  0  0  0  0  0  0  0
    8.1856  -13.9534   16.3405 C   0  0  0  0  0  0  0  0  0  0  0  0
    8.8107  -13.8847   15.2038 N   0  0  0  0  0  0  0  0  0  0  0  0
    8.2860  -15.1649   17.0838 N   0  0  0  0  0  0  0  0  0  0  0  0
    7.5131  -15.3338   18.3161 C   0  0  0  0  0  0  0  0  0  0  0  0
    7.7632  -14.1002   19.1527 C   0  0  0  0  0  0  0  0  0  0  0  0
    8.6581  -14.3398   20.3219 C   0  0  0  0  0  0  0  0  0  0  0  0
    8.0400  -15.1028   21.4527 C   0  0  2  0  0  0  0  0  0  0  0  0
    6.6087  -14.7492   21.4611 N   0  0  0  0  0  0  0  0  0  0  0  0
    8.6023  -14.8014   22.7677 C   0  0  0  0  0  0  0  0  0  0  0  0
    9.7770  -15.1611   23.0340 O   0  0  0  0  0  0  0  0  0  0  0  0
    9.3793  -14.6936   14.8721 C   0  0  0  0  0  0  0  0  0  0  0  0
    7.7693  -12.3665   27.0091 C   0  0  1  0  0  0  0  0  0  0  0  0
    7.2398  -12.8643   25.6836 C   0  0  0  0  0  0  0  0  0  0  0  0
    5.9473  -13.6060   25.8777 C   0  0  2  0  0  0  0  0  0  0  0  0
    8.3078  -13.7748   25.0594 N   0  0  0  0  0  0  0  0  0  0  0  0
    7.8484  -14.1108   23.7488 C   0  0  0  0  0  0  0  0  0  0  0  0
    8.3337  -14.9929   25.9288 O   0  0  0  0  0  0  0  0  0  0  0  0
    7.3889  -15.8483   25.8693 N   0  0  0  0  0  0  0  0  0  0  0  0
   10.5311  -19.6686   26.2556 C   0  0  0  0  0  0  0  0  0  0  0  0
   11.2648  -18.5280   26.6371 O   0  0  0  0  0  0  0  0  0  0  0  0
   12.2951  -18.6547   27.3207 C   0  0  0  0  0  0  0  0  0  0  0  0
   10.8066  -17.1939   26.2232 C   0  0  1  0  0  0  0  0  0  0  0  0
    9.7696  -16.6160   27.1212 N   0  0  0  0  0  0  0  0  0  0  0  0
    9.3705  -15.2769   26.8495 C   0  0  0  0  0  0  0  0  0  0  0  0
   10.3332  -16.6390   28.5190 O   0  0  0  0  0  0  0  0  0  0  0  0
   10.8624  -15.6213   29.0389 O   0  0  0  0  0  0  0  0  0  0  0  0
  2  1  1  0
  3  2  2  0
  4  2  1  0
  5  4  1  0
  6  5  1  0
  7  6  1  0
  8  7  1  0
  8  9  1  1
 10 16  1  0
 10  8  1  0
 11 10  2  0
 13 12  1  6
 13 14  1  0
 15 16  1  1
 15 13  1  0
 17 15  1  0
 18 17  2  0
 20 19  1  0
 21 20  2  0
 22 20  1  0
 23 22  1  6
 23 24  1  0
 24 17  1  0
 25 23  1  0
 26 25  2  0
 27 25  1  0
M  END
$$$$
