SSM.pdb
     RDKit          3D

 21 20  0  0  1  0  0  0  0  0999 V2000
    9.8410  -12.5912   19.5020 O   0  0  0  0  0  0  0  0  0  0  0  0
    8.9747  -12.6823   18.4366 C   0  0  0  0  0  0  0  0  0  0  0  0
    8.7649  -14.1452   18.0977 C   0  0  2  0  0  0  0  0  0  0  0  0
    7.8132  -14.2572   16.9851 N   0  0  0  0  0  0  0  0  0  0  0  0
    8.1910  -14.8203   19.2644 C   0  0  0  0  0  0  0  0  0  0  0  0
    6.9687  -14.6460   19.5619 O   0  0  0  0  0  0  0  0  0  0  0  0
   10.1437  -17.9772   21.3579 O   0  0  0  0  0  0  0  0  0  0  0  0
    8.7937  -17.7675   21.1855 C   0  0  0  0  0  0  0  0  0  0  0  0
    8.4081  -16.3169   21.2097 C   0  0  2  0  0  0  0  0  0  0  0  0
    8.9849  -15.6725   20.0723 N   0  0  0  0  0  0  0  0  0  0  0  0
    8.7997  -15.6259   22.4408 C   0  0  0  0  0  0  0  0  0  0  0  0
    9.9382  -15.0471   22.4455 O   0  0  0  0  0  0  0  0  0  0  0  0
    5.6399  -11.7254   26.4822 C   0  0  0  0  0  0  0  0  0  0  0  0
    7.0684  -12.1736   27.4416 S   0  0  0  0  0  0  0  0  0  0  0  0
    8.1266  -13.4109   26.6877 C   0  0  0  0  0  0  0  0  0  0  0  0
    7.6688  -13.9260   25.3899 C   0  0  0  0  0  0  0  0  0  0  0  0
    8.5940  -14.9660   24.8128 C   0  0  2  0  0  0  0  0  0  0  0  0
    8.0194  -15.5545   23.6078 N   0  0  0  0  0  0  0  0  0  0  0  0
    8.9983  -16.0258   25.7615 C   0  0  0  0  0  0  0  0  0  0  0  0
    8.5817  -17.2042   25.7553 O   0  0  0  0  0  0  0  0  0  0  0  0
    9.9327  -15.7494   26.7878 O   0  0  0  0  0  0  0  0  0  0  0  0
  2  1  1  0
  2  3  1  0
  3  5  1  0
  3  4  1  6
  5  6  2  0
  7  8  1  0
  9  8  1  1
 10  9  1  0
 10  5  1  0
 11 18  1  0
 11  9  1  0
 12 11  2  0
 13 14  1  0
 15 14  1  0
 16 15  1  0
 17 18  1  0
 17 16  1  1
 19 17  1  0
 20 19  2  0
 21 19  1  0
M  END
$$$$
