SSM.pdb
     RDKit          3D

 21 20  0  0  1  0  0  0  0  0999 V2000
   10.7481  -13.4859   19.8216 O   0  0  0  0  0  0  0  0  0  0  0  0
   10.1113  -14.3550   18.9655 C   0  0  0  0  0  0  0  0  0  0  0  0
    8.6590  -13.9398   18.8345 C   0  0  2  0  0  0  0  0  0  0  0  0
    8.5856  -12.4991   18.5604 N   0  0  0  0  0  0  0  0  0  0  0  0
    7.9788  -14.2019   20.1053 C   0  0  0  0  0  0  0  0  0  0  0  0
    7.8568  -13.2741   20.9640 O   0  0  0  0  0  0  0  0  0  0  0  0
    6.7016  -18.0983   21.4030 O   0  0  0  0  0  0  0  0  0  0  0  0
    5.9233  -16.9640   21.4646 C   0  0  0  0  0  0  0  0  0  0  0  0
    6.7217  -15.7003   21.6038 C   0  0  2  0  0  0  0  0  0  0  0  0
    7.4497  -15.4850   20.3934 N   0  0  0  0  0  0  0  0  0  0  0  0
    7.6310  -15.7042   22.7525 C   0  0  0  0  0  0  0  0  0  0  0  0
    8.8822  -15.7637   22.5032 O   0  0  0  0  0  0  0  0  0  0  0  0
   10.2555  -13.4991   29.7126 C   0  0  0  0  0  0  0  0  0  0  0  0
    9.0624  -13.3862   28.3989 S   0  0  0  0  0  0  0  0  0  0  0  0
    9.1355  -14.7154   27.1960 C   0  0  0  0  0  0  0  0  0  0  0  0
    8.2363  -14.5721   26.0426 C   0  0  0  0  0  0  0  0  0  0  0  0
    8.2344  -15.7839   25.1469 C   0  0  2  0  0  0  0  0  0  0  0  0
    7.2294  -15.6475   24.0984 N   0  0  0  0  0  0  0  0  0  0  0  0
    8.0702  -17.0724   25.8537 C   0  0  0  0  0  0  0  0  0  0  0  0
    7.0136  -17.7371   25.9167 O   0  0  0  0  0  0  0  0  0  0  0  0
    9.1623  -17.6583   26.5371 O   0  0  0  0  0  0  0  0  0  0  0  0
  2  1  1  0
  2  3  1  0
  3  5  1  0
  3  4  1  1
  5  6  2  0
  7  8  1  0
  9  8  1  6
 10  9  1  0
 10  5  1  0
 11 18  1  0
 11  9  1  0
 12 11  2  0
 13 14  1  0
 15 14  1  0
 16 15  1  0
 17 18  1  0
 17 16  1  1
 19 17  1  0
 20 19  2  0
 21 19  1  0
M  END
$$$$
