SSM.pdb
     RDKit          3D

 21 20  0  0  1  0  0  0  0  0999 V2000
   10.7943  -12.8306   19.7208 O   0  0  0  0  0  0  0  0  0  0  0  0
   10.6309  -13.9131   18.8871 C   0  0  0  0  0  0  0  0  0  0  0  0
    9.1497  -14.1267   18.6438 C   0  0  2  0  0  0  0  0  0  0  0  0
    8.5152  -12.8395   18.3329 N   0  0  0  0  0  0  0  0  0  0  0  0
    8.5436  -14.6549   19.8685 C   0  0  0  0  0  0  0  0  0  0  0  0
    7.7908  -13.9153   20.5751 O   0  0  0  0  0  0  0  0  0  0  0  0
    9.5772  -18.4108   21.6819 O   0  0  0  0  0  0  0  0  0  0  0  0
    8.2833  -18.0045   21.4432 C   0  0  0  0  0  0  0  0  0  0  0  0
    8.1200  -16.5122   21.4312 C   0  0  2  0  0  0  0  0  0  0  0  0
    8.7855  -15.9896   20.2799 N   0  0  0  0  0  0  0  0  0  0  0  0
    8.6125  -15.8582   22.6462 C   0  0  0  0  0  0  0  0  0  0  0  0
    9.7484  -15.2785   22.5747 O   0  0  0  0  0  0  0  0  0  0  0  0
    5.8104  -11.4545   26.2831 C   0  0  0  0  0  0  0  0  0  0  0  0
    6.9894  -12.1410   27.4235 S   0  0  0  0  0  0  0  0  0  0  0  0
    8.0801  -13.3830   26.7257 C   0  0  0  0  0  0  0  0  0  0  0  0
    7.5824  -14.0507   25.5150 C   0  0  0  0  0  0  0  0  0  0  0  0
    8.5258  -15.1059   24.9979 C   0  0  2  0  0  0  0  0  0  0  0  0
    7.9310  -15.8226   23.8751 N   0  0  0  0  0  0  0  0  0  0  0  0
    9.0054  -16.0589   26.0217 C   0  0  0  0  0  0  0  0  0  0  0  0
    8.6608  -17.2566   26.1179 O   0  0  0  0  0  0  0  0  0  0  0  0
    9.9343  -15.6449   27.0059 O   0  0  0  0  0  0  0  0  0  0  0  0
  2  1  1  0
  2  3  1  0
  3  5  1  0
  3  4  1  1
  5  6  2  0
  7  8  1  0
  9  8  1  1
 10  9  1  0
 10  5  1  0
 11 18  1  0
 11  9  1  0
 12 11  2  0
 13 14  1  0
 15 14  1  0
 16 15  1  0
 17 18  1  0
 17 16  1  1
 19 17  1  0
 20 19  2  0
 21 19  1  0
M  END
$$$$
