SSM.pdb
     RDKit          3D

 21 20  0  0  1  0  0  0  0  0999 V2000
   10.4647  -12.7744   19.5990 O   0  0  0  0  0  0  0  0  0  0  0  0
   10.3862  -13.8258   18.7145 C   0  0  0  0  0  0  0  0  0  0  0  0
    8.9279  -14.0916   18.3957 C   0  0  2  0  0  0  0  0  0  0  0  0
    8.2536  -12.8218   18.0978 N   0  0  0  0  0  0  0  0  0  0  0  0
    8.2903  -14.6865   19.5730 C   0  0  0  0  0  0  0  0  0  0  0  0
    7.4429  -14.0182   20.2425 O   0  0  0  0  0  0  0  0  0  0  0  0
    9.6288  -18.2928   21.4307 O   0  0  0  0  0  0  0  0  0  0  0  0
    8.2981  -18.0330   21.1899 C   0  0  0  0  0  0  0  0  0  0  0  0
    7.9778  -16.5674   21.1335 C   0  0  2  0  0  0  0  0  0  0  0  0
    8.6064  -16.0072   19.9791 N   0  0  0  0  0  0  0  0  0  0  0  0
    8.3747  -15.8332   22.3376 C   0  0  0  0  0  0  0  0  0  0  0  0
    9.4372  -15.1282   22.2649 O   0  0  0  0  0  0  0  0  0  0  0  0
    6.4831  -11.1383   28.2151 C   0  0  0  0  0  0  0  0  0  0  0  0
    5.9975  -12.2633   26.9265 S   0  0  0  0  0  0  0  0  0  0  0  0
    7.3204  -13.2899   26.2821 C   0  0  0  0  0  0  0  0  0  0  0  0
    6.9759  -14.0952   25.1022 C   0  0  0  0  0  0  0  0  0  0  0  0
    8.1118  -14.9694   24.6373 C   0  0  2  0  0  0  0  0  0  0  0  0
    7.6764  -15.8483   23.5575 N   0  0  0  0  0  0  0  0  0  0  0  0
    8.7645  -15.7529   25.7081 C   0  0  0  0  0  0  0  0  0  0  0  0
    8.6049  -16.9753   25.9145 O   0  0  0  0  0  0  0  0  0  0  0  0
    9.6574  -15.1271   26.6104 O   0  0  0  0  0  0  0  0  0  0  0  0
  2  1  1  0
  2  3  1  0
  3  5  1  0
  3  4  1  1
  5  6  2  0
  7  8  1  0
  9  8  1  1
 10  9  1  0
 10  5  1  0
 11 18  1  0
 11  9  1  0
 12 11  2  0
 13 14  1  0
 15 14  1  0
 16 15  1  0
 17 18  1  0
 17 16  1  1
 19 17  1  0
 20 19  2  0
 21 19  1  0
M  END
$$$$
