SSM.pdb
     RDKit          3D

 21 20  0  0  1  0  0  0  0  0999 V2000
   10.6631  -12.8856   19.8847 O   0  0  0  0  0  0  0  0  0  0  0  0
   10.3167  -13.9868   19.1355 C   0  0  0  0  0  0  0  0  0  0  0  0
    8.8352  -13.9202   18.8202 C   0  0  2  0  0  0  0  0  0  0  0  0
    8.4635  -12.5340   18.5102 N   0  0  0  0  0  0  0  0  0  0  0  0
    8.0833  -14.3449   20.0038 C   0  0  0  0  0  0  0  0  0  0  0  0
    7.4635  -13.4861   20.7047 O   0  0  0  0  0  0  0  0  0  0  0  0
    8.2758  -18.3173   21.6135 O   0  0  0  0  0  0  0  0  0  0  0  0
    7.1162  -17.5790   21.5333 C   0  0  0  0  0  0  0  0  0  0  0  0
    7.3496  -16.0966   21.5735 C   0  0  2  0  0  0  0  0  0  0  0  0
    8.0358  -15.7103   20.3813 N   0  0  0  0  0  0  0  0  0  0  0  0
    8.0908  -15.6511   22.7561 C   0  0  0  0  0  0  0  0  0  0  0  0
    9.3391  -15.4245   22.6085 O   0  0  0  0  0  0  0  0  0  0  0  0
    6.6767  -10.9839   27.6029 C   0  0  0  0  0  0  0  0  0  0  0  0
    5.7909  -12.1075   26.5471 S   0  0  0  0  0  0  0  0  0  0  0  0
    6.8213  -13.0845   25.4503 C   0  0  0  0  0  0  0  0  0  0  0  0
    7.5880  -14.1589   26.0961 C   0  0  0  0  0  0  0  0  0  0  0  0
    8.3840  -14.9814   25.1161 C   0  0  2  0  0  0  0  0  0  0  0  0
    7.5322  -15.4564   24.0312 N   0  0  0  0  0  0  0  0  0  0  0  0
    9.1277  -16.1086   25.7186 C   0  0  0  0  0  0  0  0  0  0  0  0
   10.0767  -16.0045   26.5255 O   0  0  0  0  0  0  0  0  0  0  0  0
    8.7872  -17.4442   25.3974 O   0  0  0  0  0  0  0  0  0  0  0  0
  2  1  1  0
  2  3  1  0
  3  5  1  0
  3  4  1  1
  5  6  2  0
  7  8  1  0
  9  8  1  1
 10  9  1  0
 10  5  1  0
 11 18  1  0
 11  9  1  0
 12 11  2  0
 13 14  1  0
 15 14  1  0
 16 15  1  0
 17 18  1  0
 17 16  1  1
 19 17  1  0
 20 19  2  0
 21 19  1  0
M  END
$$$$
