SSM.pdb
     RDKit          3D

 21 20  0  0  1  0  0  0  0  0999 V2000
   11.1364  -12.7430   19.2542 O   0  0  0  0  0  0  0  0  0  0  0  0
   10.8331  -14.0836   19.1870 C   0  0  0  0  0  0  0  0  0  0  0  0
    9.4154  -14.2414   18.6732 C   0  0  2  0  0  0  0  0  0  0  0  0
    8.8904  -12.9285   18.2772 N   0  0  0  0  0  0  0  0  0  0  0  0
    8.5785  -14.7644   19.7560 C   0  0  0  0  0  0  0  0  0  0  0  0
    7.7381  -14.0064   20.3324 O   0  0  0  0  0  0  0  0  0  0  0  0
    9.2287  -18.5835   21.5704 O   0  0  0  0  0  0  0  0  0  0  0  0
    7.9743  -18.0870   21.2944 C   0  0  0  0  0  0  0  0  0  0  0  0
    7.9178  -16.5870   21.2768 C   0  0  2  0  0  0  0  0  0  0  0  0
    8.6925  -16.1143   20.1732 N   0  0  0  0  0  0  0  0  0  0  0  0
    8.3747  -15.9677   22.5234 C   0  0  0  0  0  0  0  0  0  0  0  0
    9.5280  -15.4190   22.5114 O   0  0  0  0  0  0  0  0  0  0  0  0
    6.9289  -10.8987   28.1374 C   0  0  0  0  0  0  0  0  0  0  0  0
    6.3546  -11.9796   26.8476 S   0  0  0  0  0  0  0  0  0  0  0  0
    7.5441  -13.2094   26.3075 C   0  0  0  0  0  0  0  0  0  0  0  0
    7.0988  -14.0774   25.2086 C   0  0  0  0  0  0  0  0  0  0  0  0
    8.1241  -15.1142   24.8284 C   0  0  2  0  0  0  0  0  0  0  0  0
    7.6416  -15.9340   23.7224 N   0  0  0  0  0  0  0  0  0  0  0  0
    8.5779  -15.9707   25.9451 C   0  0  0  0  0  0  0  0  0  0  0  0
    8.2459  -17.1617   26.1287 O   0  0  0  0  0  0  0  0  0  0  0  0
    9.4637  -15.4610   26.9241 O   0  0  0  0  0  0  0  0  0  0  0  0
  2  1  1  0
  2  3  1  0
  3  5  1  0
  3  4  1  1
  5  6  2  0
  7  8  1  0
  9  8  1  1
 10  9  1  0
 10  5  1  0
 11 18  1  0
 11  9  1  0
 12 11  2  0
 13 14  1  0
 15 14  1  0
 16 15  1  0
 17 18  1  0
 17 16  1  1
 19 17  1  0
 20 19  2  0
 21 19  1  0
M  END
$$$$
