SSM.pdb
     RDKit          3D

 21 20  0  0  1  0  0  0  0  0999 V2000
    6.0309  -16.8204   20.6649 O   0  0  0  0  0  0  0  0  0  0  0  0
    6.6283  -17.4668   19.6071 C   0  0  0  0  0  0  0  0  0  0  0  0
    8.0884  -17.0629   19.5457 C   0  0  2  0  0  0  0  0  0  0  0  0
    8.7416  -17.7599   18.4306 N   0  0  0  0  0  0  0  0  0  0  0  0
    8.7421  -17.4727   20.7912 C   0  0  0  0  0  0  0  0  0  0  0  0
    8.6242  -18.6667   21.2076 O   0  0  0  0  0  0  0  0  0  0  0  0
   12.3132  -15.9870   22.1236 O   0  0  0  0  0  0  0  0  0  0  0  0
   11.6556  -17.1718   22.3682 C   0  0  0  0  0  0  0  0  0  0  0  0
   10.2060  -16.9885   22.7130 C   0  0  2  0  0  0  0  0  0  0  0  0
    9.5110  -16.5502   21.5441 N   0  0  0  0  0  0  0  0  0  0  0  0
    9.9795  -16.0570   23.8209 C   0  0  0  0  0  0  0  0  0  0  0  0
    9.9635  -14.8114   23.5390 O   0  0  0  0  0  0  0  0  0  0  0  0
    6.7975  -11.1965   25.7735 C   0  0  0  0  0  0  0  0  0  0  0  0
    6.5704  -12.6619   26.7548 S   0  0  0  0  0  0  0  0  0  0  0  0
    8.0503  -13.6479   26.9935 C   0  0  0  0  0  0  0  0  0  0  0  0
    8.3333  -14.6268   25.9348 C   0  0  0  0  0  0  0  0  0  0  0  0
    9.6083  -15.3942   26.1718 C   0  0  2  0  0  0  0  0  0  0  0  0
    9.7801  -16.4319   25.1609 N   0  0  0  0  0  0  0  0  0  0  0  0
    9.7385  -15.9691   27.5279 C   0  0  0  0  0  0  0  0  0  0  0  0
    9.7450  -17.1885   27.8027 O   0  0  0  0  0  0  0  0  0  0  0  0
    9.8706  -15.1230   28.6546 O   0  0  0  0  0  0  0  0  0  0  0  0
  2  1  1  0
  2  3  1  0
  3  5  1  0
  3  4  1  6
  5  6  2  0
  7  8  1  0
  9  8  1  6
 10  9  1  0
 10  5  1  0
 11 18  1  0
 11  9  1  0
 12 11  2  0
 13 14  1  0
 15 14  1  0
 16 15  1  0
 17 18  1  0
 17 16  1  1
 19 17  1  0
 20 19  2  0
 21 19  1  0
M  END
$$$$
