SSM.pdb
     RDKit          3D

 21 20  0  0  1  0  0  0  0  0999 V2000
    7.5841  -18.5688   18.0159 O   0  0  0  0  0  0  0  0  0  0  0  0
    6.9336  -17.3582   18.0871 C   0  0  0  0  0  0  0  0  0  0  0  0
    7.8559  -16.3421   18.7319 C   0  0  2  0  0  0  0  0  0  0  0  0
    9.1790  -16.4127   18.0991 N   0  0  0  0  0  0  0  0  0  0  0  0
    8.0054  -16.6766   20.1504 C   0  0  0  0  0  0  0  0  0  0  0  0
    6.9935  -16.6580   20.9177 O   0  0  0  0  0  0  0  0  0  0  0  0
   11.7103  -18.0399   21.8213 O   0  0  0  0  0  0  0  0  0  0  0  0
   10.4561  -18.5475   22.0775 C   0  0  0  0  0  0  0  0  0  0  0  0
    9.3714  -17.5111   22.0235 C   0  0  2  0  0  0  0  0  0  0  0  0
    9.2717  -17.0245   20.6838 N   0  0  0  0  0  0  0  0  0  0  0  0
    9.5744  -16.3998   22.9564 C   0  0  0  0  0  0  0  0  0  0  0  0
   10.2612  -15.4076   22.5379 O   0  0  0  0  0  0  0  0  0  0  0  0
    6.0513  -11.7854   27.3522 C   0  0  0  0  0  0  0  0  0  0  0  0
    7.4771  -12.0949   26.3358 S   0  0  0  0  0  0  0  0  0  0  0  0
    7.5173  -13.7142   25.5641 C   0  0  0  0  0  0  0  0  0  0  0  0
    8.6882  -13.9801   24.7170 C   0  0  0  0  0  0  0  0  0  0  0  0
    9.4361  -15.2232   25.1244 C   0  0  2  0  0  0  0  0  0  0  0  0
    9.0721  -16.3468   24.2682 N   0  0  0  0  0  0  0  0  0  0  0  0
    9.2890  -15.5919   26.5488 C   0  0  0  0  0  0  0  0  0  0  0  0
    9.5993  -14.8712   27.5218 O   0  0  0  0  0  0  0  0  0  0  0  0
    8.7585  -16.8530   26.9108 O   0  0  0  0  0  0  0  0  0  0  0  0
  2  1  1  0
  2  3  1  0
  3  5  1  0
  3  4  1  6
  5  6  2  0
  7  8  1  0
  9  8  1  6
 10  9  1  0
 10  5  1  0
 11 18  1  0
 11  9  1  0
 12 11  2  0
 13 14  1  0
 15 14  1  0
 16 15  1  0
 17 18  1  0
 17 16  1  6
 19 17  1  0
 20 19  2  0
 21 19  1  0
M  END
$$$$
