SSM.pdb
     RDKit          3D

 21 20  0  0  1  0  0  0  0  0999 V2000
   14.4316  -14.5266   19.5087 O   0  0  0  0  0  0  0  0  0  0  0  0
   13.7190  -15.6874   19.7048 C   0  0  0  0  0  0  0  0  0  0  0  0
   12.3193  -15.5042   19.1516 C   0  0  2  0  0  0  0  0  0  0  0  0
   12.1963  -14.1621   18.5687 N   0  0  0  0  0  0  0  0  0  0  0  0
   11.3601  -15.6175   20.2531 C   0  0  0  0  0  0  0  0  0  0  0  0
   10.8814  -14.5704   20.7892 O   0  0  0  0  0  0  0  0  0  0  0  0
   10.2911  -19.3413   22.1287 O   0  0  0  0  0  0  0  0  0  0  0  0
    9.3971  -18.3549   21.7766 C   0  0  0  0  0  0  0  0  0  0  0  0
    9.9944  -16.9777   21.7880 C   0  0  2  0  0  0  0  0  0  0  0  0
   10.9540  -16.8879   20.7331 N   0  0  0  0  0  0  0  0  0  0  0  0
   10.6077  -16.6145   23.0680 C   0  0  0  0  0  0  0  0  0  0  0  0
   11.8814  -16.6755   23.1405 O   0  0  0  0  0  0  0  0  0  0  0  0
   10.1503  -13.7766   30.4310 C   0  0  0  0  0  0  0  0  0  0  0  0
    9.6136  -13.6671   28.7393 S   0  0  0  0  0  0  0  0  0  0  0  0
   10.5414  -14.6806   27.5855 C   0  0  0  0  0  0  0  0  0  0  0  0
    9.8685  -14.9602   26.3095 C   0  0  0  0  0  0  0  0  0  0  0  0
   10.6387  -15.9187   25.4384 C   0  0  2  0  0  0  0  0  0  0  0  0
    9.9015  -16.2070   24.2131 N   0  0  0  0  0  0  0  0  0  0  0  0
   11.0374  -17.1755   26.1078 C   0  0  0  0  0  0  0  0  0  0  0  0
   12.1119  -17.3648   26.7178 O   0  0  0  0  0  0  0  0  0  0  0  0
   10.1757  -18.2981   26.0947 O   0  0  0  0  0  0  0  0  0  0  0  0
  2  1  1  0
  2  3  1  0
  3  5  1  0
  3  4  1  1
  5  6  2  0
  7  8  1  0
  9  8  1  1
 10  9  1  0
 10  5  1  0
 11 18  1  0
 11  9  1  0
 12 11  2  0
 13 14  1  0
 15 14  1  0
 16 15  1  0
 17 18  1  0
 17 16  1  1
 19 17  1  0
 20 19  2  0
 21 19  1  0
M  END
$$$$
