SSM.pdb
     RDKit          3D

 21 20  0  0  1  0  0  0  0  0999 V2000
   12.6835  -17.9796   22.6717 O   0  0  0  0  0  0  0  0  0  0  0  0
   12.2426  -18.8111   21.6678 C   0  0  0  0  0  0  0  0  0  0  0  0
   11.6711  -17.9666   20.5458 C   0  0  2  0  0  0  0  0  0  0  0  0
   12.7669  -17.3098   19.8220 N   0  0  0  0  0  0  0  0  0  0  0  0
   10.8161  -16.9287   21.1274 C   0  0  0  0  0  0  0  0  0  0  0  0
   11.2539  -15.7435   21.2565 O   0  0  0  0  0  0  0  0  0  0  0  0
    6.9319  -17.6954   22.7726 O   0  0  0  0  0  0  0  0  0  0  0  0
    7.2178  -16.6522   21.9205 C   0  0  0  0  0  0  0  0  0  0  0  0
    8.6406  -16.1819   22.0106 C   0  0  2  0  0  0  0  0  0  0  0  0
    9.4971  -17.2290   21.5508 N   0  0  0  0  0  0  0  0  0  0  0  0
    9.0334  -15.7549   23.3558 C   0  0  0  0  0  0  0  0  0  0  0  0
    9.9251  -14.8443   23.4395 O   0  0  0  0  0  0  0  0  0  0  0  0
    6.5603  -10.6708   26.3895 C   0  0  0  0  0  0  0  0  0  0  0  0
    6.4036  -12.4176   26.6829 S   0  0  0  0  0  0  0  0  0  0  0  0
    7.7617  -13.4124   26.0624 C   0  0  0  0  0  0  0  0  0  0  0  0
    7.6740  -14.8503   26.3527 C   0  0  0  0  0  0  0  0  0  0  0  0
    8.8472  -15.6290   25.8162 C   0  0  2  0  0  0  0  0  0  0  0  0
    8.5043  -16.2706   24.5517 N   0  0  0  0  0  0  0  0  0  0  0  0
    9.4135  -16.6176   26.7588 C   0  0  0  0  0  0  0  0  0  0  0  0
    9.1340  -17.8356   26.7894 O   0  0  0  0  0  0  0  0  0  0  0  0
   10.3573  -16.2175   27.7346 O   0  0  0  0  0  0  0  0  0  0  0  0
  2  1  1  0
  2  3  1  0
  3  5  1  0
  3  4  1  1
  5  6  2  0
  7  8  1  0
  9  8  1  1
 10  9  1  0
 10  5  1  0
 11 18  1  0
 11  9  1  0
 12 11  2  0
 13 14  1  0
 15 14  1  0
 16 15  1  0
 17 18  1  0
 17 16  1  1
 19 17  1  0
 20 19  2  0
 21 19  1  0
M  END
$$$$
