SSM.pdb
     RDKit          3D

 21 20  0  0  1  0  0  0  0  0999 V2000
   10.3133  -11.9326   18.8049 O   0  0  0  0  0  0  0  0  0  0  0  0
    9.4210  -12.4349   19.7243 C   0  0  0  0  0  0  0  0  0  0  0  0
    8.8707  -13.7497   19.2074 C   0  0  2  0  0  0  0  0  0  0  0  0
    7.7796  -13.4843   18.2613 N   0  0  0  0  0  0  0  0  0  0  0  0
    8.3267  -14.5080   20.3368 C   0  0  0  0  0  0  0  0  0  0  0  0
    7.1387  -14.2947   20.7321 O   0  0  0  0  0  0  0  0  0  0  0  0
   10.1822  -18.0168   21.8415 O   0  0  0  0  0  0  0  0  0  0  0  0
    8.8396  -17.7185   21.7744 C   0  0  0  0  0  0  0  0  0  0  0  0
    8.5361  -16.2730   22.0431 C   0  0  2  0  0  0  0  0  0  0  0  0
    9.1116  -15.4845   20.9998 N   0  0  0  0  0  0  0  0  0  0  0  0
    9.0042  -15.8084   23.3513 C   0  0  0  0  0  0  0  0  0  0  0  0
   10.1938  -15.3477   23.4131 O   0  0  0  0  0  0  0  0  0  0  0  0
    5.4082  -11.7621   26.1781 C   0  0  0  0  0  0  0  0  0  0  0  0
    7.0463  -11.8359   26.8658 S   0  0  0  0  0  0  0  0  0  0  0  0
    8.1385  -13.0287   26.0889 C   0  0  0  0  0  0  0  0  0  0  0  0
    7.9441  -14.4250   26.5034 C   0  0  0  0  0  0  0  0  0  0  0  0
    8.8553  -15.3831   25.7805 C   0  0  2  0  0  0  0  0  0  0  0  0
    8.2450  -15.8328   24.5341 N   0  0  0  0  0  0  0  0  0  0  0  0
    9.2951  -16.5422   26.5866 C   0  0  0  0  0  0  0  0  0  0  0  0
    8.9561  -17.7302   26.3964 O   0  0  0  0  0  0  0  0  0  0  0  0
   10.1746  -16.3611   27.6805 O   0  0  0  0  0  0  0  0  0  0  0  0
  2  1  1  0
  2  3  1  0
  3  5  1  0
  3  4  1  6
  5  6  2  0
  7  8  1  0
  9  8  1  6
 10  9  1  0
 10  5  1  0
 11 18  1  0
 11  9  1  0
 12 11  2  0
 13 14  1  0
 15 14  1  0
 16 15  1  0
 17 18  1  0
 17 16  1  1
 19 17  1  0
 20 19  2  0
 21 19  1  0
M  END
$$$$
