SSM.pdb
     RDKit          3D

 21 20  0  0  1  0  0  0  0  0999 V2000
    8.6345  -12.1376   18.3987 O   0  0  0  0  0  0  0  0  0  0  0  0
    9.5444  -13.0901   18.7970 C   0  0  0  0  0  0  0  0  0  0  0  0
    9.0183  -14.4607   18.4183 C   0  0  2  0  0  0  0  0  0  0  0  0
    8.1659  -14.3451   17.2283 N   0  0  0  0  0  0  0  0  0  0  0  0
    8.2016  -14.9720   19.5219 C   0  0  0  0  0  0  0  0  0  0  0  0
    6.9346  -14.9185   19.4526 O   0  0  0  0  0  0  0  0  0  0  0  0
    9.2172  -18.1977   21.6421 O   0  0  0  0  0  0  0  0  0  0  0  0
    7.9817  -17.6109   21.4836 C   0  0  0  0  0  0  0  0  0  0  0  0
    7.9972  -16.1241   21.6903 C   0  0  2  0  0  0  0  0  0  0  0  0
    8.8084  -15.5308   20.6747 N   0  0  0  0  0  0  0  0  0  0  0  0
    8.4664  -15.7211   23.0184 C   0  0  0  0  0  0  0  0  0  0  0  0
    9.7263  -15.5778   23.1711 O   0  0  0  0  0  0  0  0  0  0  0  0
    6.5543  -10.8867   27.5115 C   0  0  0  0  0  0  0  0  0  0  0  0
    5.7451  -11.8500   26.2548 S   0  0  0  0  0  0  0  0  0  0  0  0
    6.8136  -12.9882   25.3706 C   0  0  0  0  0  0  0  0  0  0  0  0
    7.2668  -14.1548   26.1406 C   0  0  0  0  0  0  0  0  0  0  0  0
    8.2342  -15.0214   25.3765 C   0  0  2  0  0  0  0  0  0  0  0  0
    7.6369  -15.4825   24.1279 N   0  0  0  0  0  0  0  0  0  0  0  0
    8.7746  -16.1650   26.1424 C   0  0  0  0  0  0  0  0  0  0  0  0
    8.3697  -17.3453   26.0688 O   0  0  0  0  0  0  0  0  0  0  0  0
    9.8411  -15.9766   27.0535 O   0  0  0  0  0  0  0  0  0  0  0  0
  2  1  1  0
  2  3  1  0
  3  5  1  0
  3  4  1  6
  5  6  2  0
  7  8  1  0
  9  8  1  1
 10  9  1  0
 10  5  1  0
 11 18  1  0
 11  9  1  0
 12 11  2  0
 13 14  1  0
 15 14  1  0
 16 15  1  0
 17 18  1  0
 17 16  1  1
 19 17  1  0
 20 19  2  0
 21 19  1  0
M  END
$$$$
