SSM.pdb
     RDKit          3D

 21 20  0  0  1  0  0  0  0  0999 V2000
   10.2222  -12.6133   19.6510 O   0  0  0  0  0  0  0  0  0  0  0  0
    9.0766  -12.4857   18.8993 C   0  0  0  0  0  0  0  0  0  0  0  0
    8.6372  -13.8609   18.4361 C   0  0  2  0  0  0  0  0  0  0  0  0
    7.4785  -13.7287   17.5439 N   0  0  0  0  0  0  0  0  0  0  0  0
    8.2306  -14.6431   19.6063 C   0  0  0  0  0  0  0  0  0  0  0  0
    7.0996  -14.4374   20.1463 O   0  0  0  0  0  0  0  0  0  0  0  0
   10.6514  -17.7509   21.4141 O   0  0  0  0  0  0  0  0  0  0  0  0
    9.3044  -17.7912   21.1313 C   0  0  0  0  0  0  0  0  0  0  0  0
    8.6344  -16.4515   21.2303 C   0  0  2  0  0  0  0  0  0  0  0  0
    9.0862  -15.6344   20.1488 N   0  0  0  0  0  0  0  0  0  0  0  0
    8.8608  -15.7752   22.5101 C   0  0  0  0  0  0  0  0  0  0  0  0
    9.6311  -14.7564   22.5009 O   0  0  0  0  0  0  0  0  0  0  0  0
    6.6486  -11.0182   27.7514 C   0  0  0  0  0  0  0  0  0  0  0  0
    6.3417  -12.1595   26.4228 S   0  0  0  0  0  0  0  0  0  0  0  0
    7.5809  -13.4424   26.2278 C   0  0  0  0  0  0  0  0  0  0  0  0
    7.4182  -14.3019   25.0471 C   0  0  0  0  0  0  0  0  0  0  0  0
    8.5123  -15.3296   24.9151 C   0  0  2  0  0  0  0  0  0  0  0  0
    8.2963  -16.1632   23.7376 N   0  0  0  0  0  0  0  0  0  0  0  0
    8.7141  -16.1723   26.1132 C   0  0  0  0  0  0  0  0  0  0  0  0
    9.0909  -15.7649   27.2332 O   0  0  0  0  0  0  0  0  0  0  0  0
    8.4783  -17.5666   26.0558 O   0  0  0  0  0  0  0  0  0  0  0  0
  2  1  1  0
  2  3  1  0
  3  5  1  0
  3  4  1  6
  5  6  2  0
  7  8  1  0
  9  8  1  1
 10  9  1  0
 10  5  1  0
 11 18  1  0
 11  9  1  0
 12 11  2  0
 13 14  1  0
 15 14  1  0
 16 15  1  0
 17 18  1  0
 17 16  1  1
 19 17  1  0
 20 19  2  0
 21 19  1  0
M  END
$$$$
