SSM.pdb
     RDKit          3D

 21 20  0  0  1  0  0  0  0  0999 V2000
   11.8398  -16.5735   19.4439 O   0  0  0  0  0  0  0  0  0  0  0  0
   11.4899  -17.8960   19.5935 C   0  0  0  0  0  0  0  0  0  0  0  0
   10.0328  -18.0651   19.2102 C   0  0  2  0  0  0  0  0  0  0  0  0
    9.7663  -17.3305   17.9670 N   0  0  0  0  0  0  0  0  0  0  0  0
    9.1986  -17.4939   20.2705 C   0  0  0  0  0  0  0  0  0  0  0  0
    8.5261  -16.4390   20.0511 O   0  0  0  0  0  0  0  0  0  0  0  0
    8.6301  -19.5017   23.9916 O   0  0  0  0  0  0  0  0  0  0  0  0
    7.6480  -18.9144   23.2257 C   0  0  0  0  0  0  0  0  0  0  0  0
    8.1214  -17.7026   22.4766 C   0  0  2  0  0  0  0  0  0  0  0  0
    9.1290  -18.1056   21.5472 N   0  0  0  0  0  0  0  0  0  0  0  0
    8.6252  -16.6356   23.3449 C   0  0  0  0  0  0  0  0  0  0  0  0
    9.8930  -16.5224   23.4509 O   0  0  0  0  0  0  0  0  0  0  0  0
    5.2805  -11.8851   27.0056 C   0  0  0  0  0  0  0  0  0  0  0  0
    6.9741  -11.3871   26.7922 S   0  0  0  0  0  0  0  0  0  0  0  0
    8.0819  -12.6903   26.2503 C   0  0  0  0  0  0  0  0  0  0  0  0
    7.4869  -13.6917   25.3547 C   0  0  0  0  0  0  0  0  0  0  0  0
    8.4546  -14.7798   24.9669 C   0  0  2  0  0  0  0  0  0  0  0  0
    7.8210  -15.7346   24.0641 N   0  0  0  0  0  0  0  0  0  0  0  0
    9.0787  -15.4846   26.1071 C   0  0  0  0  0  0  0  0  0  0  0  0
    8.6644  -16.5467   26.6197 O   0  0  0  0  0  0  0  0  0  0  0  0
   10.2464  -14.9669   26.7165 O   0  0  0  0  0  0  0  0  0  0  0  0
  2  1  1  0
  2  3  1  0
  3  5  1  0
  3  4  1  6
  5  6  2  0
  7  8  1  0
  9  8  1  1
 10  9  1  0
 10  5  1  0
 11 18  1  0
 11  9  1  0
 12 11  2  0
 13 14  1  0
 15 14  1  0
 16 15  1  0
 17 18  1  0
 17 16  1  1
 19 17  1  0
 20 19  2  0
 21 19  1  0
M  END
$$$$
