SSM.pdb
     RDKit          3D

 21 20  0  0  1  0  0  0  0  0999 V2000
    9.4990  -12.0971   19.1448 O   0  0  0  0  0  0  0  0  0  0  0  0
   10.0321  -13.2459   18.6064 C   0  0  0  0  0  0  0  0  0  0  0  0
    8.9094  -14.2282   18.3351 C   0  0  2  0  0  0  0  0  0  0  0  0
    7.8041  -13.5333   17.6632 N   0  0  0  0  0  0  0  0  0  0  0  0
    8.4181  -14.7454   19.6148 C   0  0  0  0  0  0  0  0  0  0  0  0
    7.3780  -14.2453   20.1450 O   0  0  0  0  0  0  0  0  0  0  0  0
   10.3076  -17.9783   21.7216 O   0  0  0  0  0  0  0  0  0  0  0  0
    8.9659  -17.8836   21.4264 C   0  0  0  0  0  0  0  0  0  0  0  0
    8.4655  -16.4692   21.3746 C   0  0  2  0  0  0  0  0  0  0  0  0
    9.0903  -15.8043   20.2751 N   0  0  0  0  0  0  0  0  0  0  0  0
    8.6873  -15.7224   22.6154 C   0  0  0  0  0  0  0  0  0  0  0  0
    9.7621  -15.0373   22.6973 O   0  0  0  0  0  0  0  0  0  0  0  0
    6.3540  -10.6717   27.3620 C   0  0  0  0  0  0  0  0  0  0  0  0
    6.0298  -12.4198   27.3325 S   0  0  0  0  0  0  0  0  0  0  0  0
    7.3584  -13.4231   26.6636 C   0  0  0  0  0  0  0  0  0  0  0  0
    7.0337  -14.1618   25.4355 C   0  0  0  0  0  0  0  0  0  0  0  0
    8.1915  -14.9755   24.9176 C   0  0  2  0  0  0  0  0  0  0  0  0
    7.8099  -15.7054   23.7135 N   0  0  0  0  0  0  0  0  0  0  0  0
    8.7912  -15.8943   25.9089 C   0  0  0  0  0  0  0  0  0  0  0  0
    8.6380  -17.1345   25.9361 O   0  0  0  0  0  0  0  0  0  0  0  0
    9.6195  -15.3924   26.9410 O   0  0  0  0  0  0  0  0  0  0  0  0
  2  1  1  0
  2  3  1  0
  3  5  1  0
  3  4  1  1
  5  6  2  0
  7  8  1  0
  9  8  1  1
 10  9  1  0
 10  5  1  0
 11 18  1  0
 11  9  1  0
 12 11  2  0
 13 14  1  0
 15 14  1  0
 16 15  1  0
 17 18  1  0
 17 16  1  1
 19 17  1  0
 20 19  2  0
 21 19  1  0
M  END
$$$$
