QFY.pdb
     RDKit          3D

 33 34  0  0  1  0  0  0  0  0999 V2000
    8.0898  -14.4807   15.3904 N   0  0  0  0  0  0  0  0  0  0  0  0
    8.2016  -13.8151   16.6581 C   0  0  0  0  0  0  0  0  0  0  0  0
    8.2948  -12.5776   16.6270 O   0  0  0  0  0  0  0  0  0  0  0  0
    8.1970  -14.6614   17.8506 C   0  0  0  0  0  0  0  0  0  0  0  0
    9.4155  -15.4983   18.0731 C   0  0  0  0  0  0  0  0  0  0  0  0
    9.3492  -16.4124   19.2399 C   0  0  2  0  0  0  0  0  0  0  0  0
    8.2497  -17.3345   19.2703 N   0  0  0  0  0  0  0  0  0  0  0  0
    9.3798  -15.6512   20.5423 C   0  0  0  0  0  0  0  0  0  0  0  0
   10.3609  -14.9167   20.7993 O   0  0  0  0  0  0  0  0  0  0  0  0
    8.3119  -15.7584   21.4760 N   0  0  0  0  0  0  0  0  0  0  0  0
    8.2974  -15.0377   22.7332 C   0  0  1  0  0  0  0  0  0  0  0  0
    6.8777  -14.6120   23.0121 C   0  0  0  0  0  0  0  0  0  0  0  0
    6.7458  -13.7716   24.2050 C   0  0  0  0  0  0  0  0  0  0  0  0
    7.1076  -12.4447   24.1369 C   0  0  0  0  0  0  0  0  0  0  0  0
    6.9981  -11.6124   25.2460 C   0  0  0  0  0  0  0  0  0  0  0  0
    6.5192  -12.1142   26.4430 C   0  0  0  0  0  0  0  0  0  0  0  0
    6.1494  -13.4519   26.5290 C   0  0  0  0  0  0  0  0  0  0  0  0
    6.2716  -14.2523   25.4047 C   0  0  0  0  0  0  0  0  0  0  0  0
    8.8770  -15.8413   23.8428 C   0  0  0  0  0  0  0  0  0  0  0  0
    8.7349  -17.0859   23.9227 O   0  0  0  0  0  0  0  0  0  0  0  0
   12.3250  -17.5380   31.7489 O   0  0  0  0  0  0  0  0  0  0  0  0
   11.9227  -16.9024   30.5856 C   0  0  0  0  0  0  0  0  0  0  0  0
   12.3407  -17.3719   29.3641 C   0  0  0  0  0  0  0  0  0  0  0  0
   11.9303  -16.7271   28.2249 C   0  0  0  0  0  0  0  0  0  0  0  0
   11.1139  -15.6235   28.2382 C   0  0  0  0  0  0  0  0  0  0  0  0
   10.6684  -14.9149   27.0207 C   0  0  0  0  0  0  0  0  0  0  0  0
   10.1994  -15.8736   25.9949 C   0  0  2  0  0  0  0  0  0  0  0  0
    9.6102  -15.1771   24.8366 N   0  0  0  0  0  0  0  0  0  0  0  0
    9.2447  -16.8724   26.5247 C   0  0  0  0  0  0  0  0  0  0  0  0
    9.5509  -18.0487   26.8373 O   0  0  0  0  0  0  0  0  0  0  0  0
   10.6969  -15.1581   29.4907 C   0  0  0  0  0  0  0  0  0  0  0  0
   11.1080  -15.8041   30.6330 C   0  0  0  0  0  0  0  0  0  0  0  0
    7.9092  -16.4731   26.6855 O   0  0  0  0  0  0  0  0  0  0  0  0
  2  1  1  0
  3  2  2  0
  4  2  1  0
  5  4  1  0
  6  5  1  0
  6  7  1  6
  8  6  1  0
  8  9  2  0
 10  8  1  0
 11 10  1  0
 11 12  1  1
 12 13  1  0
 13 18  1  0
 13 14  2  0
 14 15  1  0
 15 16  2  0
 17 16  1  0
 18 17  2  0
 19 11  1  0
 20 19  2  0
 22 21  1  0
 22 32  2  0
 23 22  1  0
 24 23  2  0
 24 25  1  0
 25 31  2  0
 26 25  1  0
 27 26  1  1
 27 28  1  0
 28 19  1  0
 29 33  1  0
 29 27  1  0
 30 29  2  0
 31 32  1  0
M  END
$$$$
