QFY.pdb
     RDKit          3D

 33 34  0  0  1  0  0  0  0  0999 V2000
    9.8901  -14.4611   15.6569 N   0  0  0  0  0  0  0  0  0  0  0  0
    9.4979  -15.8403   15.5749 C   0  0  0  0  0  0  0  0  0  0  0  0
    9.1903  -16.2620   14.4485 O   0  0  0  0  0  0  0  0  0  0  0  0
    9.4988  -16.6021   16.8229 C   0  0  0  0  0  0  0  0  0  0  0  0
    9.9238  -15.8617   18.0502 C   0  0  0  0  0  0  0  0  0  0  0  0
    9.9080  -16.6555   19.3036 C   0  0  2  0  0  0  0  0  0  0  0  0
    8.8815  -17.6521   19.4185 N   0  0  0  0  0  0  0  0  0  0  0  0
    9.8594  -15.7665   20.5217 C   0  0  0  0  0  0  0  0  0  0  0  0
   10.8270  -15.0103   20.7668 O   0  0  0  0  0  0  0  0  0  0  0  0
    8.7325  -15.7782   21.3897 N   0  0  0  0  0  0  0  0  0  0  0  0
    8.7021  -15.0482   22.6412 C   0  0  1  0  0  0  0  0  0  0  0  0
    7.2905  -14.5684   22.8688 C   0  0  0  0  0  0  0  0  0  0  0  0
    7.1292  -13.8006   24.1062 C   0  0  0  0  0  0  0  0  0  0  0  0
    7.6006  -12.5080   24.1626 C   0  0  0  0  0  0  0  0  0  0  0  0
    7.4677  -11.7446   25.3178 C   0  0  0  0  0  0  0  0  0  0  0  0
    6.8537  -12.2816   26.4352 C   0  0  0  0  0  0  0  0  0  0  0  0
    6.3720  -13.5855   26.3952 C   0  0  0  0  0  0  0  0  0  0  0  0
    6.5213  -14.3172   25.2282 C   0  0  0  0  0  0  0  0  0  0  0  0
    9.2135  -15.8643   23.7749 C   0  0  0  0  0  0  0  0  0  0  0  0
    9.0150  -17.1007   23.8621 O   0  0  0  0  0  0  0  0  0  0  0  0
   12.0979  -17.4419   31.9339 O   0  0  0  0  0  0  0  0  0  0  0  0
   11.8251  -16.8377   30.7175 C   0  0  0  0  0  0  0  0  0  0  0  0
   12.5108  -17.2189   29.5898 C   0  0  0  0  0  0  0  0  0  0  0  0
   12.2246  -16.6073   28.3956 C   0  0  0  0  0  0  0  0  0  0  0  0
   11.2780  -15.6218   28.2635 C   0  0  0  0  0  0  0  0  0  0  0  0
   10.9629  -14.9497   26.9860 C   0  0  0  0  0  0  0  0  0  0  0  0
   10.3643  -15.9018   26.0233 C   0  0  2  0  0  0  0  0  0  0  0  0
    9.9457  -15.2221   24.7838 N   0  0  0  0  0  0  0  0  0  0  0  0
    9.2309  -16.6666   26.5893 C   0  0  0  0  0  0  0  0  0  0  0  0
    8.0606  -16.2253   26.6938 O   0  0  0  0  0  0  0  0  0  0  0  0
   10.5884  -15.2452   29.4219 C   0  0  0  0  0  0  0  0  0  0  0  0
   10.8749  -15.8581   30.6191 C   0  0  0  0  0  0  0  0  0  0  0  0
    9.4870  -17.9710   27.0384 O   0  0  0  0  0  0  0  0  0  0  0  0
  2  1  1  0
  3  2  2  0
  4  2  1  0
  5  4  1  0
  6  5  1  0
  6  7  1  6
  8  6  1  0
  8  9  2  0
 10  8  1  0
 11 10  1  0
 11 12  1  1
 12 13  1  0
 13 18  1  0
 13 14  2  0
 14 15  1  0
 15 16  2  0
 17 16  1  0
 18 17  2  0
 19 11  1  0
 20 19  2  0
 22 21  1  0
 22 32  2  0
 23 22  1  0
 24 23  2  0
 24 25  1  0
 25 31  2  0
 26 25  1  0
 27 26  1  1
 27 28  1  0
 28 19  1  0
 29 33  1  0
 29 27  1  0
 30 29  2  0
 31 32  1  0
M  END
$$$$
