QFY.pdb
     RDKit          3D

 33 34  0  0  1  0  0  0  0  0999 V2000
    9.2098  -15.2034   15.6208 N   0  0  0  0  0  0  0  0  0  0  0  0
    8.1007  -16.0406   15.9834 C   0  0  0  0  0  0  0  0  0  0  0  0
    7.3448  -16.3876   15.0617 O   0  0  0  0  0  0  0  0  0  0  0  0
    7.9751  -16.3945   17.3966 C   0  0  0  0  0  0  0  0  0  0  0  0
    8.9607  -15.7638   18.3271 C   0  0  0  0  0  0  0  0  0  0  0  0
    9.1506  -16.4692   19.6184 C   0  0  2  0  0  0  0  0  0  0  0  0
    8.1605  -17.4487   19.9656 N   0  0  0  0  0  0  0  0  0  0  0  0
    9.2947  -15.4982   20.7642 C   0  0  0  0  0  0  0  0  0  0  0  0
   10.2296  -14.6652   20.7468 O   0  0  0  0  0  0  0  0  0  0  0  0
    8.3850  -15.5187   21.8576 N   0  0  0  0  0  0  0  0  0  0  0  0
    8.4720  -14.5874   22.9645 C   0  0  1  0  0  0  0  0  0  0  0  0
    7.0925  -14.4305   23.5534 C   0  0  0  0  0  0  0  0  0  0  0  0
    7.0684  -13.6146   24.7701 C   0  0  0  0  0  0  0  0  0  0  0  0
    7.5666  -12.3314   24.7300 C   0  0  0  0  0  0  0  0  0  0  0  0
    7.5626  -11.5235   25.8624 C   0  0  0  0  0  0  0  0  0  0  0  0
    7.0525  -12.0057   27.0545 C   0  0  0  0  0  0  0  0  0  0  0  0
    6.5455  -13.2993   27.1124 C   0  0  0  0  0  0  0  0  0  0  0  0
    6.5651  -14.0763   25.9654 C   0  0  0  0  0  0  0  0  0  0  0  0
    9.4750  -15.0162   23.9760 C   0  0  0  0  0  0  0  0  0  0  0  0
    9.6213  -14.4281   25.0752 O   0  0  0  0  0  0  0  0  0  0  0  0
   10.0078  -14.6197   30.4831 O   0  0  0  0  0  0  0  0  0  0  0  0
   10.1603  -15.3251   29.3006 C   0  0  0  0  0  0  0  0  0  0  0  0
    9.0551  -15.7681   28.6153 C   0  0  0  0  0  0  0  0  0  0  0  0
    9.2291  -16.4648   27.4464 C   0  0  0  0  0  0  0  0  0  0  0  0
   10.4635  -16.7478   26.9164 C   0  0  0  0  0  0  0  0  0  0  0  0
   10.6672  -17.5019   25.6624 C   0  0  0  0  0  0  0  0  0  0  0  0
   11.2914  -16.6460   24.6283 C   0  0  2  0  0  0  0  0  0  0  0  0
   10.2867  -16.1220   23.6850 N   0  0  0  0  0  0  0  0  0  0  0  0
   12.3763  -17.3264   23.8866 C   0  0  0  0  0  0  0  0  0  0  0  0
   12.3543  -17.5574   22.6533 O   0  0  0  0  0  0  0  0  0  0  0  0
   11.5791  -16.2893   27.6268 C   0  0  0  0  0  0  0  0  0  0  0  0
   11.4050  -15.5908   28.7986 C   0  0  0  0  0  0  0  0  0  0  0  0
   13.5017  -17.7398   24.6157 O   0  0  0  0  0  0  0  0  0  0  0  0
  2  1  1  0
  3  2  2  0
  4  2  1  0
  5  4  1  0
  6  5  1  0
  6  7  1  1
  8  6  1  0
  8  9  2  0
 10  8  1  0
 11 10  1  0
 11 12  1  1
 12 13  1  0
 13 18  1  0
 13 14  2  0
 14 15  1  0
 15 16  2  0
 17 16  1  0
 18 17  2  0
 19 11  1  0
 20 19  2  0
 22 21  1  0
 22 32  2  0
 23 22  1  0
 24 23  2  0
 24 25  1  0
 25 31  2  0
 26 25  1  0
 27 26  1  1
 27 28  1  0
 28 19  1  0
 29 33  1  0
 29 27  1  0
 30 29  2  0
 31 32  1  0
M  END
$$$$
