QFY.pdb
     RDKit          3D

 33 34  0  0  1  0  0  0  0  0999 V2000
   10.5206  -16.4907   17.0237 N   0  0  0  0  0  0  0  0  0  0  0  0
   10.2033  -17.8763   17.2287 C   0  0  0  0  0  0  0  0  0  0  0  0
   10.1860  -18.5955   16.2170 O   0  0  0  0  0  0  0  0  0  0  0  0
    9.9316  -18.2949   18.6031 C   0  0  0  0  0  0  0  0  0  0  0  0
    9.9861  -17.2236   19.6445 C   0  0  0  0  0  0  0  0  0  0  0  0
    9.5937  -17.6501   21.0102 C   0  0  2  0  0  0  0  0  0  0  0  0
    8.2897  -18.2337   21.1498 N   0  0  0  0  0  0  0  0  0  0  0  0
    9.7289  -16.5222   22.0032 C   0  0  0  0  0  0  0  0  0  0  0  0
   10.8439  -15.9735   22.1584 O   0  0  0  0  0  0  0  0  0  0  0  0
    8.6097  -16.0779   22.7606 N   0  0  0  0  0  0  0  0  0  0  0  0
    8.6818  -14.9595   23.6793 C   0  0  1  0  0  0  0  0  0  0  0  0
    7.3220  -14.3094   23.7326 C   0  0  0  0  0  0  0  0  0  0  0  0
    7.2249  -13.2444   24.7339 C   0  0  0  0  0  0  0  0  0  0  0  0
    6.4034  -13.4193   25.8252 C   0  0  0  0  0  0  0  0  0  0  0  0
    6.2825  -12.4331   26.7988 C   0  0  0  0  0  0  0  0  0  0  0  0
    6.9942  -11.2527   26.6801 C   0  0  0  0  0  0  0  0  0  0  0  0
    7.8283  -11.0599   25.5843 C   0  0  0  0  0  0  0  0  0  0  0  0
    7.9248  -12.0631   24.6336 C   0  0  0  0  0  0  0  0  0  0  0  0
    9.1658  -15.3731   25.0238 C   0  0  0  0  0  0  0  0  0  0  0  0
    9.6591  -14.5615   25.8444 O   0  0  0  0  0  0  0  0  0  0  0  0
    6.5633  -22.2777   24.1085 O   0  0  0  0  0  0  0  0  0  0  0  0
    6.9130  -21.1840   24.8835 C   0  0  0  0  0  0  0  0  0  0  0  0
    6.3963  -19.9436   24.5976 C   0  0  0  0  0  0  0  0  0  0  0  0
    6.7560  -18.8743   25.3781 C   0  0  0  0  0  0  0  0  0  0  0  0
    7.6156  -18.9766   26.4436 C   0  0  0  0  0  0  0  0  0  0  0  0
    8.0171  -17.8337   27.2894 C   0  0  0  0  0  0  0  0  0  0  0  0
    9.2484  -17.1989   26.7676 C   0  0  2  0  0  0  0  0  0  0  0  0
    9.0645  -16.7246   25.3837 N   0  0  0  0  0  0  0  0  0  0  0  0
   10.4359  -18.0783   26.8481 C   0  0  0  0  0  0  0  0  0  0  0  0
   11.1577  -18.3850   25.8683 O   0  0  0  0  0  0  0  0  0  0  0  0
    8.1330  -20.2472   26.7215 C   0  0  0  0  0  0  0  0  0  0  0  0
    7.7726  -21.3194   25.9394 C   0  0  0  0  0  0  0  0  0  0  0  0
   10.7722  -18.6024   28.1055 O   0  0  0  0  0  0  0  0  0  0  0  0
  2  1  1  0
  3  2  2  0
  4  2  1  0
  5  4  1  0
  6  5  1  0
  6  7  1  6
  8  6  1  0
  8  9  2  0
 10  8  1  0
 11 10  1  0
 11 12  1  1
 12 13  1  0
 13 18  1  0
 13 14  2  0
 14 15  1  0
 15 16  2  0
 17 16  1  0
 18 17  2  0
 19 11  1  0
 20 19  2  0
 22 21  1  0
 22 32  2  0
 23 22  1  0
 24 23  2  0
 24 25  1  0
 25 31  2  0
 26 25  1  0
 27 26  1  6
 27 28  1  0
 28 19  1  0
 29 33  1  0
 29 27  1  0
 30 29  2  0
 31 32  1  0
M  END
$$$$
