QFY.pdb
     RDKit          3D

 33 34  0  0  1  0  0  0  0  0999 V2000
    8.5523  -12.8595   16.3954 N   0  0  0  0  0  0  0  0  0  0  0  0
    8.2503  -14.1301   15.7978 C   0  0  0  0  0  0  0  0  0  0  0  0
    7.5126  -14.1106   14.7995 O   0  0  0  0  0  0  0  0  0  0  0  0
    8.8387  -15.3118   16.4265 C   0  0  0  0  0  0  0  0  0  0  0  0
    9.6553  -15.0706   17.6554 C   0  0  0  0  0  0  0  0  0  0  0  0
    9.3753  -15.9857   18.7891 C   0  0  2  0  0  0  0  0  0  0  0  0
    8.1469  -16.7257   18.7276 N   0  0  0  0  0  0  0  0  0  0  0  0
    9.4411  -15.2643   20.1126 C   0  0  0  0  0  0  0  0  0  0  0  0
   10.3910  -14.4793   20.3355 O   0  0  0  0  0  0  0  0  0  0  0  0
    8.4412  -15.4653   21.1043 N   0  0  0  0  0  0  0  0  0  0  0  0
    8.4981  -14.8392   22.4100 C   0  0  1  0  0  0  0  0  0  0  0  0
    7.1234  -14.3117   22.7363 C   0  0  0  0  0  0  0  0  0  0  0  0
    7.0472  -13.6551   24.0438 C   0  0  0  0  0  0  0  0  0  0  0  0
    6.3757  -14.2784   25.0719 C   0  0  0  0  0  0  0  0  0  0  0  0
    6.2798  -13.6895   26.3285 C   0  0  0  0  0  0  0  0  0  0  0  0
    6.8645  -12.4576   26.5617 C   0  0  0  0  0  0  0  0  0  0  0  0
    7.5464  -11.8145   25.5345 C   0  0  0  0  0  0  0  0  0  0  0  0
    7.6223  -12.4299   24.2955 C   0  0  0  0  0  0  0  0  0  0  0  0
    9.0109  -15.7689   23.4519 C   0  0  0  0  0  0  0  0  0  0  0  0
    8.3826  -16.7940   23.8124 O   0  0  0  0  0  0  0  0  0  0  0  0
   11.0845  -16.3251   31.7135 O   0  0  0  0  0  0  0  0  0  0  0  0
   10.9510  -15.9107   30.3984 C   0  0  0  0  0  0  0  0  0  0  0  0
   10.4812  -14.6507   30.1174 C   0  0  0  0  0  0  0  0  0  0  0  0
   10.3569  -14.2610   28.8080 C   0  0  0  0  0  0  0  0  0  0  0  0
   10.6802  -15.0717   27.7483 C   0  0  0  0  0  0  0  0  0  0  0  0
   10.5461  -14.6687   26.3332 C   0  0  0  0  0  0  0  0  0  0  0  0
   10.5614  -15.8525   25.4445 C   0  0  2  0  0  0  0  0  0  0  0  0
   10.2459  -15.4842   24.0521 N   0  0  0  0  0  0  0  0  0  0  0  0
    9.6591  -16.9336   25.8994 C   0  0  0  0  0  0  0  0  0  0  0  0
    8.4107  -16.8297   25.9742 O   0  0  0  0  0  0  0  0  0  0  0  0
   11.1573  -16.3521   28.0517 C   0  0  0  0  0  0  0  0  0  0  0  0
   11.2822  -16.7432   29.3643 C   0  0  0  0  0  0  0  0  0  0  0  0
   10.2434  -18.1538   26.2716 O   0  0  0  0  0  0  0  0  0  0  0  0
  2  1  1  0
  3  2  2  0
  4  2  1  0
  5  4  1  0
  6  5  1  0
  6  7  1  6
  8  6  1  0
  8  9  2  0
 10  8  1  0
 11 10  1  0
 11 12  1  1
 12 13  1  0
 13 18  1  0
 13 14  2  0
 14 15  1  0
 15 16  2  0
 17 16  1  0
 18 17  2  0
 19 11  1  0
 20 19  2  0
 22 21  1  0
 22 32  2  0
 23 22  1  0
 24 23  2  0
 24 25  1  0
 25 31  2  0
 26 25  1  0
 27 26  1  1
 27 28  1  0
 28 19  1  0
 29 33  1  0
 29 27  1  0
 30 29  2  0
 31 32  1  0
M  END
$$$$
