QFY.pdb
     RDKit          3D

 33 34  0  0  1  0  0  0  0  0999 V2000
   12.2378  -16.7788   16.4530 N   0  0  0  0  0  0  0  0  0  0  0  0
   11.5869  -18.0537   16.3361 C   0  0  0  0  0  0  0  0  0  0  0  0
   12.0580  -18.8409   15.4997 O   0  0  0  0  0  0  0  0  0  0  0  0
   10.4385  -18.2911   17.2095 C   0  0  0  0  0  0  0  0  0  0  0  0
   10.0971  -17.1948   18.1669 C   0  0  0  0  0  0  0  0  0  0  0  0
    9.7316  -17.6413   19.5338 C   0  0  2  0  0  0  0  0  0  0  0  0
    8.4973  -18.3622   19.6642 N   0  0  0  0  0  0  0  0  0  0  0  0
    9.7264  -16.4905   20.5096 C   0  0  0  0  0  0  0  0  0  0  0  0
   10.7520  -15.7814   20.6255 O   0  0  0  0  0  0  0  0  0  0  0  0
    8.5753  -16.2043   21.2949 N   0  0  0  0  0  0  0  0  0  0  0  0
    8.5119  -15.0813   22.2087 C   0  0  1  0  0  0  0  0  0  0  0  0
    7.1703  -15.1132   22.8969 C   0  0  0  0  0  0  0  0  0  0  0  0
    6.9625  -13.9940   23.8192 C   0  0  0  0  0  0  0  0  0  0  0  0
    6.4564  -14.2423   25.0756 C   0  0  0  0  0  0  0  0  0  0  0  0
    6.2440  -13.2084   25.9817 C   0  0  0  0  0  0  0  0  0  0  0  0
    6.5422  -11.9050   25.6266 C   0  0  0  0  0  0  0  0  0  0  0  0
    7.0540  -11.6368   24.3618 C   0  0  0  0  0  0  0  0  0  0  0  0
    7.2530  -12.6906   23.4846 C   0  0  0  0  0  0  0  0  0  0  0  0
    9.6443  -15.0833   23.1734 C   0  0  0  0  0  0  0  0  0  0  0  0
   10.3580  -14.0718   23.3810 O   0  0  0  0  0  0  0  0  0  0  0  0
   11.3303  -15.6547   31.5061 O   0  0  0  0  0  0  0  0  0  0  0  0
   10.8581  -15.6623   30.2037 C   0  0  0  0  0  0  0  0  0  0  0  0
   10.9110  -14.5183   29.4450 C   0  0  0  0  0  0  0  0  0  0  0  0
   10.4378  -14.5483   28.1577 C   0  0  0  0  0  0  0  0  0  0  0  0
    9.9070  -15.6737   27.5778 C   0  0  0  0  0  0  0  0  0  0  0  0
    9.3880  -15.7202   26.1953 C   0  0  0  0  0  0  0  0  0  0  0  0
   10.4033  -16.2712   25.2696 C   0  0  2  0  0  0  0  0  0  0  0  0
    9.9212  -16.2647   23.8762 N   0  0  0  0  0  0  0  0  0  0  0  0
   10.8551  -17.6301   25.6429 C   0  0  0  0  0  0  0  0  0  0  0  0
   10.2030  -18.6791   25.4209 O   0  0  0  0  0  0  0  0  0  0  0  0
    9.8605  -16.8308   28.3642 C   0  0  0  0  0  0  0  0  0  0  0  0
   10.3348  -16.8011   29.6547 C   0  0  0  0  0  0  0  0  0  0  0  0
   12.0952  -17.7479   26.2887 O   0  0  0  0  0  0  0  0  0  0  0  0
  2  1  1  0
  3  2  2  0
  4  2  1  0
  5  4  1  0
  6  5  1  0
  6  7  1  6
  8  6  1  0
  8  9  2  0
 10  8  1  0
 11 10  1  0
 11 12  1  1
 12 13  1  0
 13 18  1  0
 13 14  2  0
 14 15  1  0
 15 16  2  0
 17 16  1  0
 18 17  2  0
 19 11  1  0
 20 19  2  0
 22 21  1  0
 22 32  2  0
 23 22  1  0
 24 23  2  0
 24 25  1  0
 25 31  2  0
 26 25  1  0
 27 26  1  1
 27 28  1  0
 28 19  1  0
 29 33  1  0
 29 27  1  0
 30 29  2  0
 31 32  1  0
M  END
$$$$
