QFY.pdb
     RDKit          3D

 33 34  0  0  1  0  0  0  0  0999 V2000
    8.4884  -12.3522   16.9575 N   0  0  0  0  0  0  0  0  0  0  0  0
    8.2311  -13.7354   16.6687 C   0  0  0  0  0  0  0  0  0  0  0  0
    8.1335  -14.0413   15.4695 O   0  0  0  0  0  0  0  0  0  0  0  0
    8.1082  -14.6369   17.8133 C   0  0  0  0  0  0  0  0  0  0  0  0
    9.3633  -15.3162   18.2587 C   0  0  0  0  0  0  0  0  0  0  0  0
    9.2038  -16.2537   19.3975 C   0  0  2  0  0  0  0  0  0  0  0  0
    8.0249  -17.0725   19.3936 N   0  0  0  0  0  0  0  0  0  0  0  0
    9.2916  -15.5364   20.7220 C   0  0  0  0  0  0  0  0  0  0  0  0
   10.2898  -14.8206   20.9655 O   0  0  0  0  0  0  0  0  0  0  0  0
    8.2585  -15.6641   21.6914 N   0  0  0  0  0  0  0  0  0  0  0  0
    8.2758  -14.9479   22.9512 C   0  0  1  0  0  0  0  0  0  0  0  0
    6.8705  -14.4868   23.2465 C   0  0  0  0  0  0  0  0  0  0  0  0
    6.7861  -13.5705   24.3866 C   0  0  0  0  0  0  0  0  0  0  0  0
    7.1830  -12.2614   24.2287 C   0  0  0  0  0  0  0  0  0  0  0  0
    7.1191  -11.3589   25.2854 C   0  0  0  0  0  0  0  0  0  0  0  0
    6.6509  -11.7714   26.5202 C   0  0  0  0  0  0  0  0  0  0  0  0
    6.2462  -13.0900   26.6967 C   0  0  0  0  0  0  0  0  0  0  0  0
    6.3233  -13.9618   25.6227 C   0  0  0  0  0  0  0  0  0  0  0  0
    8.8459  -15.7703   24.0519 C   0  0  0  0  0  0  0  0  0  0  0  0
    8.6340  -17.0032   24.1548 O   0  0  0  0  0  0  0  0  0  0  0  0
   12.9277  -17.6702   31.6072 O   0  0  0  0  0  0  0  0  0  0  0  0
   12.4307  -17.0007   30.5009 C   0  0  0  0  0  0  0  0  0  0  0  0
   13.1329  -17.0050   29.3202 C   0  0  0  0  0  0  0  0  0  0  0  0
   12.6223  -16.3356   28.2371 C   0  0  0  0  0  0  0  0  0  0  0  0
   11.4321  -15.6520   28.2684 C   0  0  0  0  0  0  0  0  0  0  0  0
   10.8722  -14.9216   27.1127 C   0  0  0  0  0  0  0  0  0  0  0  0
   10.2574  -15.8580   26.1450 C   0  0  2  0  0  0  0  0  0  0  0  0
    9.6513  -15.1381   25.0100 N   0  0  0  0  0  0  0  0  0  0  0  0
    9.2610  -16.7616   26.7620 C   0  0  0  0  0  0  0  0  0  0  0  0
    8.0753  -16.4395   27.0176 O   0  0  0  0  0  0  0  0  0  0  0  0
   10.7291  -15.6576   29.4788 C   0  0  0  0  0  0  0  0  0  0  0  0
   11.2406  -16.3286   30.5647 C   0  0  0  0  0  0  0  0  0  0  0  0
    9.6748  -18.0638   27.0813 O   0  0  0  0  0  0  0  0  0  0  0  0
  2  1  1  0
  3  2  2  0
  4  2  1  0
  5  4  1  0
  6  5  1  0
  6  7  1  6
  8  6  1  0
  8  9  2  0
 10  8  1  0
 11 10  1  0
 11 12  1  1
 12 13  1  0
 13 18  1  0
 13 14  2  0
 14 15  1  0
 15 16  2  0
 17 16  1  0
 18 17  2  0
 19 11  1  0
 20 19  2  0
 22 21  1  0
 22 32  2  0
 23 22  1  0
 24 23  2  0
 24 25  1  0
 25 31  2  0
 26 25  1  0
 27 26  1  1
 27 28  1  0
 28 19  1  0
 29 33  1  0
 29 27  1  0
 30 29  2  0
 31 32  1  0
M  END
$$$$
