QFY.pdb
     RDKit          3D

 33 34  0  0  1  0  0  0  0  0999 V2000
   10.7335  -15.7486   16.7776 N   0  0  0  0  0  0  0  0  0  0  0  0
    9.2995  -15.7344   16.8562 C   0  0  0  0  0  0  0  0  0  0  0  0
    8.6945  -15.3217   15.8538 O   0  0  0  0  0  0  0  0  0  0  0  0
    8.7023  -16.2035   18.1058 C   0  0  0  0  0  0  0  0  0  0  0  0
    9.6392  -16.8095   19.1008 C   0  0  0  0  0  0  0  0  0  0  0  0
    9.0046  -17.2961   20.3505 C   0  0  2  0  0  0  0  0  0  0  0  0
    7.6431  -17.7389   20.2480 N   0  0  0  0  0  0  0  0  0  0  0  0
    9.0997  -16.2725   21.4549 C   0  0  0  0  0  0  0  0  0  0  0  0
   10.2120  -15.7645   21.7248 O   0  0  0  0  0  0  0  0  0  0  0  0
    7.9457  -15.8806   22.1886 N   0  0  0  0  0  0  0  0  0  0  0  0
    8.0249  -15.1767   23.4529 C   0  0  1  0  0  0  0  0  0  0  0  0
    7.0954  -13.9908   23.3872 C   0  0  0  0  0  0  0  0  0  0  0  0
    7.0649  -13.2061   24.6240 C   0  0  0  0  0  0  0  0  0  0  0  0
    6.0780  -13.4514   25.5526 C   0  0  0  0  0  0  0  0  0  0  0  0
    6.0130  -12.7291   26.7397 C   0  0  0  0  0  0  0  0  0  0  0  0
    6.9495  -11.7455   27.0033 C   0  0  0  0  0  0  0  0  0  0  0  0
    7.9527  -11.4850   26.0763 C   0  0  0  0  0  0  0  0  0  0  0  0
    7.9874  -12.2234   24.9045 C   0  0  0  0  0  0  0  0  0  0  0  0
    7.7269  -16.0676   24.6063 C   0  0  0  0  0  0  0  0  0  0  0  0
    6.5792  -16.5242   24.8296 O   0  0  0  0  0  0  0  0  0  0  0  0
    7.7756  -22.8103   29.7834 O   0  0  0  0  0  0  0  0  0  0  0  0
    7.8773  -21.8152   28.8250 C   0  0  0  0  0  0  0  0  0  0  0  0
    9.0612  -21.6222   28.1552 C   0  0  0  0  0  0  0  0  0  0  0  0
    9.1397  -20.6310   27.2100 C   0  0  0  0  0  0  0  0  0  0  0  0
    8.0864  -19.8100   26.8922 C   0  0  0  0  0  0  0  0  0  0  0  0
    8.1572  -18.7347   25.8815 C   0  0  0  0  0  0  0  0  0  0  0  0
    8.6592  -17.4785   26.4828 C   0  0  2  0  0  0  0  0  0  0  0  0
    8.7732  -16.4077   25.4757 N   0  0  0  0  0  0  0  0  0  0  0  0
    9.9473  -17.6466   27.1916 C   0  0  0  0  0  0  0  0  0  0  0  0
   11.0698  -17.6475   26.6301 O   0  0  0  0  0  0  0  0  0  0  0  0
    6.8875  -20.0198   27.5836 C   0  0  0  0  0  0  0  0  0  0  0  0
    6.8083  -21.0134   28.5311 C   0  0  0  0  0  0  0  0  0  0  0  0
    9.9055  -17.8167   28.5837 O   0  0  0  0  0  0  0  0  0  0  0  0
  2  1  1  0
  3  2  2  0
  4  2  1  0
  5  4  1  0
  6  5  1  0
  6  7  1  6
  8  6  1  0
  8  9  2  0
 10  8  1  0
 11 10  1  0
 11 12  1  6
 12 13  1  0
 13 18  1  0
 13 14  2  0
 14 15  1  0
 15 16  2  0
 17 16  1  0
 18 17  2  0
 19 11  1  0
 20 19  2  0
 22 21  1  0
 22 32  2  0
 23 22  1  0
 24 23  2  0
 24 25  1  0
 25 31  2  0
 26 25  1  0
 27 26  1  6
 27 28  1  0
 28 19  1  0
 29 33  1  0
 29 27  1  0
 30 29  2  0
 31 32  1  0
M  END
$$$$
