QFY.pdb
     RDKit          3D

 33 34  0  0  1  0  0  0  0  0999 V2000
    8.3006  -17.2886   16.1711 N   0  0  0  0  0  0  0  0  0  0  0  0
    9.0373  -18.5201   16.2305 C   0  0  0  0  0  0  0  0  0  0  0  0
    8.8734  -19.3089   15.2859 O   0  0  0  0  0  0  0  0  0  0  0  0
    9.8993  -18.7181   17.3948 C   0  0  0  0  0  0  0  0  0  0  0  0
    9.8767  -17.6367   18.4268 C   0  0  0  0  0  0  0  0  0  0  0  0
   10.0564  -18.0957   19.8262 C   0  0  2  0  0  0  0  0  0  0  0  0
    9.0172  -18.9247   20.3676 N   0  0  0  0  0  0  0  0  0  0  0  0
   10.2899  -16.9367   20.7637 C   0  0  0  0  0  0  0  0  0  0  0  0
   11.2910  -16.2040   20.5938 O   0  0  0  0  0  0  0  0  0  0  0  0
    9.3898  -16.6691   21.8323 N   0  0  0  0  0  0  0  0  0  0  0  0
    9.5337  -15.5227   22.7071 C   0  0  1  0  0  0  0  0  0  0  0  0
    8.2416  -14.7454   22.6760 C   0  0  0  0  0  0  0  0  0  0  0  0
    8.0662  -13.9566   21.4539 C   0  0  0  0  0  0  0  0  0  0  0  0
    6.8061  -13.5217   21.1085 C   0  0  0  0  0  0  0  0  0  0  0  0
    6.5960  -12.7705   19.9567 C   0  0  0  0  0  0  0  0  0  0  0  0
    7.6626  -12.4485   19.1366 C   0  0  0  0  0  0  0  0  0  0  0  0
    8.9417  -12.8798   19.4706 C   0  0  0  0  0  0  0  0  0  0  0  0
    9.1146  -13.6261   20.6250 C   0  0  0  0  0  0  0  0  0  0  0  0
    9.9236  -15.9199   24.0866 C   0  0  0  0  0  0  0  0  0  0  0  0
    9.1482  -15.8085   25.0673 O   0  0  0  0  0  0  0  0  0  0  0  0
   12.4070  -20.5831   30.7911 O   0  0  0  0  0  0  0  0  0  0  0  0
   11.9948  -19.9732   29.6175 C   0  0  0  0  0  0  0  0  0  0  0  0
   11.9013  -18.6044   29.5485 C   0  0  0  0  0  0  0  0  0  0  0  0
   11.4909  -18.0214   28.3764 C   0  0  0  0  0  0  0  0  0  0  0  0
   11.1639  -18.7400   27.2534 C   0  0  0  0  0  0  0  0  0  0  0  0
   10.7148  -18.1272   25.9863 C   0  0  0  0  0  0  0  0  0  0  0  0
   11.6315  -17.0412   25.5721 C   0  0  2  0  0  0  0  0  0  0  0  0
   11.2097  -16.4388   24.2942 N   0  0  0  0  0  0  0  0  0  0  0  0
   13.0444  -17.4730   25.4866 C   0  0  0  0  0  0  0  0  0  0  0  0
   13.4919  -18.2646   24.6216 O   0  0  0  0  0  0  0  0  0  0  0  0
   11.2647  -20.1335   27.3404 C   0  0  0  0  0  0  0  0  0  0  0  0
   11.6761  -20.7183   28.5151 C   0  0  0  0  0  0  0  0  0  0  0  0
   13.9389  -16.9612   26.4388 O   0  0  0  0  0  0  0  0  0  0  0  0
  2  1  1  0
  3  2  2  0
  4  2  1  0
  5  4  1  0
  6  5  1  0
  6  7  1  1
  8  6  1  0
  8  9  2  0
 10  8  1  0
 11 10  1  0
 11 12  1  1
 12 13  1  0
 13 18  1  0
 13 14  2  0
 14 15  1  0
 15 16  2  0
 17 16  1  0
 18 17  2  0
 19 11  1  0
 20 19  2  0
 22 21  1  0
 22 32  2  0
 23 22  1  0
 24 23  2  0
 24 25  1  0
 25 31  2  0
 26 25  1  0
 27 26  1  6
 27 28  1  0
 28 19  1  0
 29 33  1  0
 29 27  1  0
 30 29  2  0
 31 32  1  0
M  END
$$$$
