QFY.pdb
     RDKit          3D

 33 34  0  0  1  0  0  0  0  0999 V2000
   11.8022  -17.7898   14.9142 N   0  0  0  0  0  0  0  0  0  0  0  0
   11.9202  -18.3106   16.2474 C   0  0  0  0  0  0  0  0  0  0  0  0
   13.0469  -18.7031   16.5904 O   0  0  0  0  0  0  0  0  0  0  0  0
   10.7044  -18.3273   17.0596 C   0  0  0  0  0  0  0  0  0  0  0  0
   10.5668  -17.2321   18.0679 C   0  0  0  0  0  0  0  0  0  0  0  0
    9.3680  -17.3216   18.9375 C   0  0  2  0  0  0  0  0  0  0  0  0
    8.0949  -17.1714   18.2919 N   0  0  0  0  0  0  0  0  0  0  0  0
    9.4453  -16.3499   20.0891 C   0  0  0  0  0  0  0  0  0  0  0  0
   10.4871  -15.6744   20.2514 O   0  0  0  0  0  0  0  0  0  0  0  0
    8.3534  -16.1939   20.9875 N   0  0  0  0  0  0  0  0  0  0  0  0
    8.4609  -15.4509   22.2270 C   0  0  1  0  0  0  0  0  0  0  0  0
    7.0966  -14.9033   22.5640 C   0  0  0  0  0  0  0  0  0  0  0  0
    7.0676  -14.1432   23.8162 C   0  0  0  0  0  0  0  0  0  0  0  0
    6.5881  -14.7452   24.9581 C   0  0  0  0  0  0  0  0  0  0  0  0
    6.5434  -14.0591   26.1674 C   0  0  0  0  0  0  0  0  0  0  0  0
    6.9850  -12.7499   26.2368 C   0  0  0  0  0  0  0  0  0  0  0  0
    7.4722  -12.1270   25.0930 C   0  0  0  0  0  0  0  0  0  0  0  0
    7.5024  -12.8400   23.9055 C   0  0  0  0  0  0  0  0  0  0  0  0
    9.0270  -16.2787   23.3257 C   0  0  0  0  0  0  0  0  0  0  0  0
    8.3769  -17.1942   23.8868 O   0  0  0  0  0  0  0  0  0  0  0  0
   11.0352  -15.1870   31.4568 O   0  0  0  0  0  0  0  0  0  0  0  0
   10.7043  -15.2036   30.1117 C   0  0  0  0  0  0  0  0  0  0  0  0
   10.2909  -16.3716   29.5182 C   0  0  0  0  0  0  0  0  0  0  0  0
    9.9682  -16.3653   28.1849 C   0  0  0  0  0  0  0  0  0  0  0  0
   10.0366  -15.2410   27.4000 C   0  0  0  0  0  0  0  0  0  0  0  0
    9.6983  -15.2197   25.9620 C   0  0  0  0  0  0  0  0  0  0  0  0
   10.7201  -15.9403   25.1696 C   0  0  2  0  0  0  0  0  0  0  0  0
   10.3394  -16.0220   23.7475 N   0  0  0  0  0  0  0  0  0  0  0  0
   11.0160  -17.2924   25.6932 C   0  0  0  0  0  0  0  0  0  0  0  0
   10.1638  -18.2050   25.8198 O   0  0  0  0  0  0  0  0  0  0  0  0
   10.4595  -14.0594   28.0200 C   0  0  0  0  0  0  0  0  0  0  0  0
   10.7830  -14.0653   29.3566 C   0  0  0  0  0  0  0  0  0  0  0  0
   12.3386  -17.5671   26.0729 O   0  0  0  0  0  0  0  0  0  0  0  0
  2  1  1  0
  3  2  2  0
  4  2  1  0
  5  4  1  0
  6  5  1  0
  6  7  1  6
  8  6  1  0
  8  9  2  0
 10  8  1  0
 11 10  1  0
 11 12  1  1
 12 13  1  0
 13 18  1  0
 13 14  2  0
 14 15  1  0
 15 16  2  0
 17 16  1  0
 18 17  2  0
 19 11  1  0
 20 19  2  0
 22 21  1  0
 22 32  2  0
 23 22  1  0
 24 23  2  0
 24 25  1  0
 25 31  2  0
 26 25  1  0
 27 26  1  1
 27 28  1  0
 28 19  1  0
 29 33  1  0
 29 27  1  0
 30 29  2  0
 31 32  1  0
M  END
$$$$
