QFY.pdb
     RDKit          3D

 33 34  0  0  1  0  0  0  0  0999 V2000
    8.5787  -13.0316   15.3818 N   0  0  0  0  0  0  0  0  0  0  0  0
    7.7132  -14.1775   15.4094 C   0  0  0  0  0  0  0  0  0  0  0  0
    6.8011  -14.2022   14.5676 O   0  0  0  0  0  0  0  0  0  0  0  0
    7.9933  -15.1919   16.4245 C   0  0  0  0  0  0  0  0  0  0  0  0
    9.0814  -14.8714   17.3982 C   0  0  0  0  0  0  0  0  0  0  0  0
    9.2735  -15.8675   18.4808 C   0  0  2  0  0  0  0  0  0  0  0  0
    8.2991  -16.9181   18.5657 N   0  0  0  0  0  0  0  0  0  0  0  0
    9.3893  -15.2033   19.8306 C   0  0  0  0  0  0  0  0  0  0  0  0
   10.2229  -14.2826   19.9904 O   0  0  0  0  0  0  0  0  0  0  0  0
    8.5661  -15.6096   20.9174 N   0  0  0  0  0  0  0  0  0  0  0  0
    8.6544  -15.0075   22.2326 C   0  0  1  0  0  0  0  0  0  0  0  0
    7.3020  -14.4356   22.5771 C   0  0  0  0  0  0  0  0  0  0  0  0
    7.2833  -13.7124   23.8511 C   0  0  0  0  0  0  0  0  0  0  0  0
    6.8101  -14.3464   24.9782 C   0  0  0  0  0  0  0  0  0  0  0  0
    6.7751  -13.6959   26.2072 C   0  0  0  0  0  0  0  0  0  0  0  0
    7.2203  -12.3902   26.3118 C   0  0  0  0  0  0  0  0  0  0  0  0
    7.7013  -11.7352   25.1834 C   0  0  0  0  0  0  0  0  0  0  0  0
    7.7218  -12.4133   23.9754 C   0  0  0  0  0  0  0  0  0  0  0  0
    9.1396  -15.9722   23.2557 C   0  0  0  0  0  0  0  0  0  0  0  0
    8.4511  -16.9458   23.6478 O   0  0  0  0  0  0  0  0  0  0  0  0
   10.4248  -16.0804   31.5394 O   0  0  0  0  0  0  0  0  0  0  0  0
   10.3465  -15.7674   30.1922 C   0  0  0  0  0  0  0  0  0  0  0  0
    9.9063  -14.5273   29.7975 C   0  0  0  0  0  0  0  0  0  0  0  0
    9.8366  -14.2386   28.4582 C   0  0  0  0  0  0  0  0  0  0  0  0
   10.1870  -15.1326   27.4771 C   0  0  0  0  0  0  0  0  0  0  0  0
   10.1117  -14.8387   26.0311 C   0  0  0  0  0  0  0  0  0  0  0  0
   10.7048  -15.9391   25.2382 C   0  0  2  0  0  0  0  0  0  0  0  0
   10.4176  -15.7819   23.8006 N   0  0  0  0  0  0  0  0  0  0  0  0
   10.2803  -17.2808   25.6958 C   0  0  0  0  0  0  0  0  0  0  0  0
   11.0487  -18.1299   26.2093 O   0  0  0  0  0  0  0  0  0  0  0  0
   10.6335  -16.3914   27.8960 C   0  0  0  0  0  0  0  0  0  0  0  0
   10.7036  -16.6812   29.2385 C   0  0  0  0  0  0  0  0  0  0  0  0
    8.9279  -17.6219   25.5423 O   0  0  0  0  0  0  0  0  0  0  0  0
  2  1  1  0
  3  2  2  0
  4  2  1  0
  5  4  1  0
  6  5  1  0
  6  7  1  1
  8  6  1  0
  8  9  2  0
 10  8  1  0
 11 10  1  0
 11 12  1  1
 12 13  1  0
 13 18  1  0
 13 14  2  0
 14 15  1  0
 15 16  2  0
 17 16  1  0
 18 17  2  0
 19 11  1  0
 20 19  2  0
 22 21  1  0
 22 32  2  0
 23 22  1  0
 24 23  2  0
 24 25  1  0
 25 31  2  0
 26 25  1  0
 27 26  1  1
 27 28  1  0
 28 19  1  0
 29 33  1  0
 29 27  1  0
 30 29  2  0
 31 32  1  0
M  END
$$$$
