QFY.pdb
     RDKit          3D

 33 34  0  0  1  0  0  0  0  0999 V2000
    9.2922  -21.7218   23.0795 N   0  0  0  0  0  0  0  0  0  0  0  0
    8.4372  -20.9744   22.2004 C   0  0  0  0  0  0  0  0  0  0  0  0
    7.3551  -21.5031   21.8995 O   0  0  0  0  0  0  0  0  0  0  0  0
    8.9292  -19.6732   21.7498 C   0  0  0  0  0  0  0  0  0  0  0  0
    7.9717  -18.8411   20.9587 C   0  0  0  0  0  0  0  0  0  0  0  0
    8.4739  -17.5010   20.5674 C   0  0  2  0  0  0  0  0  0  0  0  0
    9.6289  -17.4726   19.7157 N   0  0  0  0  0  0  0  0  0  0  0  0
    8.7399  -16.6350   21.7740 C   0  0  0  0  0  0  0  0  0  0  0  0
    9.9156  -16.4993   22.1831 O   0  0  0  0  0  0  0  0  0  0  0  0
    7.6751  -15.9749   22.4480 N   0  0  0  0  0  0  0  0  0  0  0  0
    7.8823  -15.1644   23.6314 C   0  0  1  0  0  0  0  0  0  0  0  0
    6.6995  -14.2403   23.7784 C   0  0  0  0  0  0  0  0  0  0  0  0
    6.8105  -13.3303   24.9213 C   0  0  0  0  0  0  0  0  0  0  0  0
    6.0798  -13.5875   26.0598 C   0  0  0  0  0  0  0  0  0  0  0  0
    6.1561  -12.7490   27.1671 C   0  0  0  0  0  0  0  0  0  0  0  0
    6.9760  -11.6351   27.1363 C   0  0  0  0  0  0  0  0  0  0  0  0
    7.7207  -11.3608   25.9945 C   0  0  0  0  0  0  0  0  0  0  0  0
    7.6205  -12.2172   24.9100 C   0  0  0  0  0  0  0  0  0  0  0  0
    8.1063  -15.9962   24.8442 C   0  0  0  0  0  0  0  0  0  0  0  0
    7.3031  -16.8886   25.2103 O   0  0  0  0  0  0  0  0  0  0  0  0
    6.1181  -21.8250   27.4862 O   0  0  0  0  0  0  0  0  0  0  0  0
    7.0713  -20.9036   27.0840 C   0  0  0  0  0  0  0  0  0  0  0  0
    7.0011  -20.3416   25.8324 C   0  0  0  0  0  0  0  0  0  0  0  0
    7.9554  -19.4313   25.4548 C   0  0  0  0  0  0  0  0  0  0  0  0
    8.9911  -19.0460   26.2694 C   0  0  0  0  0  0  0  0  0  0  0  0
   10.0295  -18.0719   25.8750 C   0  0  0  0  0  0  0  0  0  0  0  0
    9.8100  -16.7686   26.5418 C   0  0  2  0  0  0  0  0  0  0  0  0
    9.2623  -15.7703   25.6051 N   0  0  0  0  0  0  0  0  0  0  0  0
   11.0268  -16.2365   27.1946 C   0  0  0  0  0  0  0  0  0  0  0  0
   11.5409  -16.7172   28.2337 O   0  0  0  0  0  0  0  0  0  0  0  0
    9.0480  -19.6279   27.5412 C   0  0  0  0  0  0  0  0  0  0  0  0
    8.0914  -20.5403   27.9203 C   0  0  0  0  0  0  0  0  0  0  0  0
   11.6423  -15.1195   26.6096 O   0  0  0  0  0  0  0  0  0  0  0  0
  2  1  1  0
  3  2  2  0
  4  2  1  0
  5  4  1  0
  6  5  1  0
  6  7  1  1
  8  6  1  0
  8  9  2  0
 10  8  1  0
 11 10  1  0
 11 12  1  1
 12 13  1  0
 13 18  1  0
 13 14  2  0
 14 15  1  0
 15 16  2  0
 17 16  1  0
 18 17  2  0
 19 11  1  0
 20 19  2  0
 22 21  1  0
 22 32  2  0
 23 22  1  0
 24 23  2  0
 24 25  1  0
 25 31  2  0
 26 25  1  0
 27 26  1  6
 27 28  1  0
 28 19  1  0
 29 33  1  0
 29 27  1  0
 30 29  2  0
 31 32  1  0
M  END
$$$$
