QFY.pdb
     RDKit          3D

 33 34  0  0  1  0  0  0  0  0999 V2000
   11.3349  -16.2034   16.4004 N   0  0  0  0  0  0  0  0  0  0  0  0
   10.3744  -17.2680   16.3173 C   0  0  0  0  0  0  0  0  0  0  0  0
   10.3446  -17.9045   15.2519 O   0  0  0  0  0  0  0  0  0  0  0  0
    9.5317  -17.4898   17.4915 C   0  0  0  0  0  0  0  0  0  0  0  0
    9.7320  -16.5504   18.6371 C   0  0  0  0  0  0  0  0  0  0  0  0
    9.5972  -17.1589   19.9835 C   0  0  2  0  0  0  0  0  0  0  0  0
    8.4739  -18.0297   20.1840 N   0  0  0  0  0  0  0  0  0  0  0  0
    9.5972  -16.1099   21.0680 C   0  0  0  0  0  0  0  0  0  0  0  0
   10.5135  -15.2569   21.0947 O   0  0  0  0  0  0  0  0  0  0  0  0
    8.5730  -16.0800   22.0549 N   0  0  0  0  0  0  0  0  0  0  0  0
    8.5535  -15.1106   23.1320 C   0  0  1  0  0  0  0  0  0  0  0  0
    7.1143  -14.8457   23.4969 C   0  0  0  0  0  0  0  0  0  0  0  0
    6.9608  -14.0121   24.6919 C   0  0  0  0  0  0  0  0  0  0  0  0
    7.2760  -12.6733   24.6237 C   0  0  0  0  0  0  0  0  0  0  0  0
    7.1447  -11.8468   25.7349 C   0  0  0  0  0  0  0  0  0  0  0  0
    6.6910  -12.3666   26.9340 C   0  0  0  0  0  0  0  0  0  0  0  0
    6.3684  -13.7165   27.0202 C   0  0  0  0  0  0  0  0  0  0  0  0
    6.5111  -14.5106   25.8939 C   0  0  0  0  0  0  0  0  0  0  0  0
    9.3613  -15.5574   24.2985 C   0  0  0  0  0  0  0  0  0  0  0  0
    9.1636  -15.1299   25.4619 O   0  0  0  0  0  0  0  0  0  0  0  0
   11.2855  -13.6892   30.5585 O   0  0  0  0  0  0  0  0  0  0  0  0
   11.0970  -14.6022   29.5338 C   0  0  0  0  0  0  0  0  0  0  0  0
   10.8514  -15.9224   29.8238 C   0  0  0  0  0  0  0  0  0  0  0  0
   10.6678  -16.8093   28.7934 C   0  0  0  0  0  0  0  0  0  0  0  0
   10.7167  -16.4457   27.4705 C   0  0  0  0  0  0  0  0  0  0  0  0
   10.5271  -17.3900   26.3502 C   0  0  0  0  0  0  0  0  0  0  0  0
   11.2854  -16.9511   25.1570 C   0  0  2  0  0  0  0  0  0  0  0  0
   10.3832  -16.4935   24.0843 N   0  0  0  0  0  0  0  0  0  0  0  0
   12.2048  -17.9878   24.6377 C   0  0  0  0  0  0  0  0  0  0  0  0
   13.4430  -18.0031   24.8423 O   0  0  0  0  0  0  0  0  0  0  0  0
   10.9678  -15.0971   27.1923 C   0  0  0  0  0  0  0  0  0  0  0  0
   11.1519  -14.2076   28.2248 C   0  0  0  0  0  0  0  0  0  0  0  0
   11.6507  -19.0195   23.8648 O   0  0  0  0  0  0  0  0  0  0  0  0
  2  1  1  0
  3  2  2  0
  4  2  1  0
  5  4  1  0
  6  5  1  0
  6  7  1  6
  8  6  1  0
  8  9  2  0
 10  8  1  0
 11 10  1  0
 11 12  1  1
 12 13  1  0
 13 18  1  0
 13 14  2  0
 14 15  1  0
 15 16  2  0
 17 16  1  0
 18 17  2  0
 19 11  1  0
 20 19  2  0
 22 21  1  0
 22 32  2  0
 23 22  1  0
 24 23  2  0
 24 25  1  0
 25 31  2  0
 26 25  1  0
 27 26  1  1
 27 28  1  0
 28 19  1  0
 29 33  1  0
 29 27  1  0
 30 29  2  0
 31 32  1  0
M  END
$$$$
