QFY.pdb
     RDKit          3D

 33 34  0  0  1  0  0  0  0  0999 V2000
   10.2709  -16.7551   15.8286 N   0  0  0  0  0  0  0  0  0  0  0  0
    8.9367  -17.0263   16.2857 C   0  0  0  0  0  0  0  0  0  0  0  0
    8.0295  -16.9077   15.4466 O   0  0  0  0  0  0  0  0  0  0  0  0
    8.7848  -17.4103   17.6884 C   0  0  0  0  0  0  0  0  0  0  0  0
   10.0484  -17.6659   18.4454 C   0  0  0  0  0  0  0  0  0  0  0  0
    9.8719  -17.9507   19.8907 C   0  0  2  0  0  0  0  0  0  0  0  0
    8.7800  -18.8120   20.2458 N   0  0  0  0  0  0  0  0  0  0  0  0
    9.7691  -16.6798   20.6973 C   0  0  0  0  0  0  0  0  0  0  0  0
   10.6793  -15.8242   20.6103 O   0  0  0  0  0  0  0  0  0  0  0  0
    8.6555  -16.4445   21.5505 N   0  0  0  0  0  0  0  0  0  0  0  0
    8.5314  -15.2507   22.3626 C   0  0  1  0  0  0  0  0  0  0  0  0
    7.1683  -15.2636   23.0081 C   0  0  0  0  0  0  0  0  0  0  0  0
    6.9684  -14.1744   23.9674 C   0  0  0  0  0  0  0  0  0  0  0  0
    6.5297  -14.4695   25.2390 C   0  0  0  0  0  0  0  0  0  0  0  0
    6.3271  -13.4654   26.1801 C   0  0  0  0  0  0  0  0  0  0  0  0
    6.5668  -12.1447   25.8452 C   0  0  0  0  0  0  0  0  0  0  0  0
    7.0101  -11.8293   24.5655 C   0  0  0  0  0  0  0  0  0  0  0  0
    7.2013  -12.8544   23.6533 C   0  0  0  0  0  0  0  0  0  0  0  0
    9.6298  -15.1380   23.3594 C   0  0  0  0  0  0  0  0  0  0  0  0
   10.1979  -14.0495   23.6199 O   0  0  0  0  0  0  0  0  0  0  0  0
   11.4225  -15.5973   31.6597 O   0  0  0  0  0  0  0  0  0  0  0  0
   10.9549  -15.6221   30.3559 C   0  0  0  0  0  0  0  0  0  0  0  0
   11.0144  -14.4892   29.5810 C   0  0  0  0  0  0  0  0  0  0  0  0
   10.5458  -14.5362   28.2926 C   0  0  0  0  0  0  0  0  0  0  0  0
   10.0131  -15.6680   27.7270 C   0  0  0  0  0  0  0  0  0  0  0  0
    9.4989  -15.7326   26.3434 C   0  0  0  0  0  0  0  0  0  0  0  0
   10.5218  -16.2840   25.4263 C   0  0  2  0  0  0  0  0  0  0  0  0
   10.0434  -16.2970   24.0318 N   0  0  0  0  0  0  0  0  0  0  0  0
   10.9852  -17.6344   25.8155 C   0  0  0  0  0  0  0  0  0  0  0  0
   12.1344  -17.8911   26.2496 O   0  0  0  0  0  0  0  0  0  0  0  0
    9.9598  -16.8135   28.5298 C   0  0  0  0  0  0  0  0  0  0  0  0
   10.4296  -16.7669   29.8214 C   0  0  0  0  0  0  0  0  0  0  0  0
   10.0757  -18.6953   25.6878 O   0  0  0  0  0  0  0  0  0  0  0  0
  2  1  1  0
  3  2  2  0
  4  2  1  0
  5  4  1  0
  6  5  1  0
  6  7  1  6
  8  6  1  0
  8  9  2  0
 10  8  1  0
 11 10  1  0
 11 12  1  1
 12 13  1  0
 13 18  1  0
 13 14  2  0
 14 15  1  0
 15 16  2  0
 17 16  1  0
 18 17  2  0
 19 11  1  0
 20 19  2  0
 22 21  1  0
 22 32  2  0
 23 22  1  0
 24 23  2  0
 24 25  1  0
 25 31  2  0
 26 25  1  0
 27 26  1  1
 27 28  1  0
 28 19  1  0
 29 33  1  0
 29 27  1  0
 30 29  2  0
 31 32  1  0
M  END
$$$$
