QFY.pdb
     RDKit          3D

 33 34  0  0  1  0  0  0  0  0999 V2000
   10.1495  -17.1226   15.5208 N   0  0  0  0  0  0  0  0  0  0  0  0
    9.1047  -18.0723   15.7839 C   0  0  0  0  0  0  0  0  0  0  0  0
    8.6550  -18.6861   14.8030 O   0  0  0  0  0  0  0  0  0  0  0  0
    8.6782  -18.2157   17.1752 C   0  0  0  0  0  0  0  0  0  0  0  0
    9.3292  -17.3035   18.1646 C   0  0  0  0  0  0  0  0  0  0  0  0
    9.6002  -17.9042   19.4939 C   0  0  2  0  0  0  0  0  0  0  0  0
    8.5188  -18.6233   20.1051 N   0  0  0  0  0  0  0  0  0  0  0  0
   10.1131  -16.8762   20.4721 C   0  0  0  0  0  0  0  0  0  0  0  0
   11.2258  -16.3390   20.2685 O   0  0  0  0  0  0  0  0  0  0  0  0
    9.3504  -16.5130   21.6166 N   0  0  0  0  0  0  0  0  0  0  0  0
    9.7816  -15.4936   22.5521 C   0  0  1  0  0  0  0  0  0  0  0  0
    8.6734  -14.4788   22.6819 C   0  0  0  0  0  0  0  0  0  0  0  0
    8.1900  -13.9770   21.3931 C   0  0  0  0  0  0  0  0  0  0  0  0
    7.0734  -14.5481   20.8244 C   0  0  0  0  0  0  0  0  0  0  0  0
    6.5815  -14.1015   19.6022 C   0  0  0  0  0  0  0  0  0  0  0  0
    7.2157  -13.0673   18.9374 C   0  0  0  0  0  0  0  0  0  0  0  0
    8.3445  -12.4794   19.4977 C   0  0  0  0  0  0  0  0  0  0  0  0
    8.8071  -12.9491   20.7163 C   0  0  0  0  0  0  0  0  0  0  0  0
   10.1769  -16.0726   23.8640 C   0  0  0  0  0  0  0  0  0  0  0  0
   10.6362  -15.3746   24.8008 O   0  0  0  0  0  0  0  0  0  0  0  0
    5.5529  -13.8709   26.2311 O   0  0  0  0  0  0  0  0  0  0  0  0
    6.3776  -14.9828   26.1787 C   0  0  0  0  0  0  0  0  0  0  0  0
    7.5697  -14.9891   26.8615 C   0  0  0  0  0  0  0  0  0  0  0  0
    8.3709  -16.1007   26.7958 C   0  0  0  0  0  0  0  0  0  0  0  0
    8.0429  -17.2224   26.0754 C   0  0  0  0  0  0  0  0  0  0  0  0
    8.8978  -18.4245   25.9900 C   0  0  0  0  0  0  0  0  0  0  0  0
   10.2025  -18.1003   25.3704 C   0  0  2  0  0  0  0  0  0  0  0  0
   10.0287  -17.4536   24.0568 N   0  0  0  0  0  0  0  0  0  0  0  0
   11.0942  -19.2744   25.2430 C   0  0  0  0  0  0  0  0  0  0  0  0
   11.5475  -19.7046   24.1547 O   0  0  0  0  0  0  0  0  0  0  0  0
    6.8251  -17.1997   25.3857 C   0  0  0  0  0  0  0  0  0  0  0  0
    6.0216  -16.0857   25.4514 C   0  0  0  0  0  0  0  0  0  0  0  0
   11.4530  -19.9485   26.4201 O   0  0  0  0  0  0  0  0  0  0  0  0
  2  1  1  0
  3  2  2  0
  4  2  1  0
  5  4  1  0
  6  5  1  0
  6  7  1  1
  8  6  1  0
  8  9  2  0
 10  8  1  0
 11 10  1  0
 11 12  1  1
 12 13  1  0
 13 18  1  0
 13 14  2  0
 14 15  1  0
 15 16  2  0
 17 16  1  0
 18 17  2  0
 19 11  1  0
 20 19  2  0
 22 21  1  0
 22 32  2  0
 23 22  1  0
 24 23  2  0
 24 25  1  0
 25 31  2  0
 26 25  1  0
 27 26  1  6
 27 28  1  0
 28 19  1  0
 29 33  1  0
 29 27  1  0
 30 29  2  0
 31 32  1  0
M  END
$$$$
