QFY.pdb
     RDKit          3D

 33 34  0  0  1  0  0  0  0  0999 V2000
   13.2980  -18.2458   18.8332 N   0  0  0  0  0  0  0  0  0  0  0  0
   12.3676  -19.3389   18.8796 C   0  0  0  0  0  0  0  0  0  0  0  0
   12.8180  -20.4610   18.5982 O   0  0  0  0  0  0  0  0  0  0  0  0
   10.9899  -19.0178   19.2495 C   0  0  0  0  0  0  0  0  0  0  0  0
   10.6908  -17.5746   19.4995 C   0  0  0  0  0  0  0  0  0  0  0  0
    9.3144  -17.2881   19.9738 C   0  0  2  0  0  0  0  0  0  0  0  0
    8.3148  -17.0950   18.9620 N   0  0  0  0  0  0  0  0  0  0  0  0
    9.2868  -16.1084   20.9141 C   0  0  0  0  0  0  0  0  0  0  0  0
    9.9529  -15.0859   20.6332 O   0  0  0  0  0  0  0  0  0  0  0  0
    8.5166  -16.1454   22.1095 N   0  0  0  0  0  0  0  0  0  0  0  0
    8.4737  -15.0405   23.0462 C   0  0  1  0  0  0  0  0  0  0  0  0
    7.0269  -14.7337   23.3419 C   0  0  0  0  0  0  0  0  0  0  0  0
    6.8473  -13.7652   24.4265 C   0  0  0  0  0  0  0  0  0  0  0  0
    7.0581  -12.4276   24.1763 C   0  0  0  0  0  0  0  0  0  0  0  0
    6.8984  -11.4755   25.1778 C   0  0  0  0  0  0  0  0  0  0  0  0
    6.5219  -11.8664   26.4503 C   0  0  0  0  0  0  0  0  0  0  0  0
    6.3050  -13.2132   26.7200 C   0  0  0  0  0  0  0  0  0  0  0  0
    6.4731  -14.1344   25.6989 C   0  0  0  0  0  0  0  0  0  0  0  0
    9.2566  -15.3242   24.2789 C   0  0  0  0  0  0  0  0  0  0  0  0
    8.8463  -15.0209   25.4257 O   0  0  0  0  0  0  0  0  0  0  0  0
   10.2268  -14.4502   31.2843 O   0  0  0  0  0  0  0  0  0  0  0  0
   10.3174  -15.0914   30.0597 C   0  0  0  0  0  0  0  0  0  0  0  0
   10.2052  -14.3714   28.8951 C   0  0  0  0  0  0  0  0  0  0  0  0
   10.2979  -15.0266   27.6934 C   0  0  0  0  0  0  0  0  0  0  0  0
   10.4993  -16.3806   27.5888 C   0  0  0  0  0  0  0  0  0  0  0  0
   10.5952  -17.1011   26.3026 C   0  0  0  0  0  0  0  0  0  0  0  0
   11.3460  -16.3038   25.3066 C   0  0  2  0  0  0  0  0  0  0  0  0
   10.5018  -15.9558   24.1489 N   0  0  0  0  0  0  0  0  0  0  0  0
   12.5875  -16.9654   24.8476 C   0  0  0  0  0  0  0  0  0  0  0  0
   13.5281  -17.3092   25.6039 O   0  0  0  0  0  0  0  0  0  0  0  0
   10.6116  -17.0994   28.7847 C   0  0  0  0  0  0  0  0  0  0  0  0
   10.5187  -16.4430   29.9895 C   0  0  0  0  0  0  0  0  0  0  0  0
   12.7173  -17.2221   23.4742 O   0  0  0  0  0  0  0  0  0  0  0  0
  2  1  1  0
  3  2  2  0
  4  2  1  0
  5  4  1  0
  6  5  1  0
  6  7  1  6
  8  6  1  0
  8  9  2  0
 10  8  1  0
 11 10  1  0
 11 12  1  1
 12 13  1  0
 13 18  1  0
 13 14  2  0
 14 15  1  0
 15 16  2  0
 17 16  1  0
 18 17  2  0
 19 11  1  0
 20 19  2  0
 22 21  1  0
 22 32  2  0
 23 22  1  0
 24 23  2  0
 24 25  1  0
 25 31  2  0
 26 25  1  0
 27 26  1  1
 27 28  1  0
 28 19  1  0
 29 33  1  0
 29 27  1  0
 30 29  2  0
 31 32  1  0
M  END
$$$$
