IIM.pdb
     RDKit          3D

 25 24  0  0  1  0  0  0  0  0999 V2000
    6.0653  -21.9589   25.1517 C   0  0  0  0  0  0  0  0  0  0  0  0
    5.7297  -20.7601   24.3340 C   0  0  0  0  0  0  0  0  0  0  0  0
    6.7502  -19.6740   24.3261 C   0  0  2  0  0  0  0  0  0  0  0  0
    7.0025  -19.2247   25.7621 C   0  0  0  0  0  0  0  0  0  0  0  0
    6.3613  -18.4622   23.5508 C   0  0  2  0  0  0  0  0  0  0  0  0
    5.9596  -18.8041   22.2025 N   0  0  0  0  0  0  0  0  0  0  0  0
    7.3840  -17.3990   23.5482 C   0  0  0  0  0  0  0  0  0  0  0  0
    8.3464  -17.5244   22.7489 O   0  0  0  0  0  0  0  0  0  0  0  0
    6.7303  -12.4089   26.4004 C   0  0  0  0  0  0  0  0  0  0  0  0
    7.0742  -13.8818   26.0713 C   0  0  0  0  0  0  0  0  0  0  0  0
    7.6943  -13.8722   24.7041 C   0  0  2  0  0  0  0  0  0  0  0  0
    6.6151  -13.3620   23.7584 C   0  0  0  0  0  0  0  0  0  0  0  0
    8.3028  -15.1514   24.2432 C   0  0  2  0  0  0  0  0  0  0  0  0
    7.3315  -16.2591   24.3944 N   0  0  0  0  0  0  0  0  0  0  0  0
    9.5677  -15.5420   24.8625 C   0  0  0  0  0  0  0  0  0  0  0  0
   10.5793  -14.7482   24.8354 O   0  0  0  0  0  0  0  0  0  0  0  0
    9.7931  -13.4841   29.3725 C   0  0  0  0  0  0  0  0  0  0  0  0
   10.6548  -15.0115   29.8321 S   0  0  0  0  0  0  0  0  0  0  0  0
   10.3419  -16.2682   28.5272 C   0  0  0  0  0  0  0  0  0  0  0  0
   11.2537  -16.0482   27.3622 C   0  0  0  0  0  0  0  0  0  0  0  0
   11.0837  -17.0314   26.2379 C   0  0  2  0  0  0  0  0  0  0  0  0
    9.8129  -16.7690   25.5316 N   0  0  0  0  0  0  0  0  0  0  0  0
   11.1332  -18.4440   26.6750 C   0  0  0  0  0  0  0  0  0  0  0  0
   12.1535  -18.8718   27.2939 O   0  0  0  0  0  0  0  0  0  0  0  0
   10.1158  -19.3475   26.4477 O   0  0  0  0  0  0  0  0  0  0  0  0
  2  1  1  0
  3  2  1  0
  3  5  1  0
  3  4  1  1
  5  6  1  6
  7  5  1  0
  7  8  2  0
 10  9  1  0
 11 13  1  0
 11 10  1  0
 11 12  1  6
 13 14  1  1
 14  7  1  0
 15 13  1  0
 16 15  2  0
 18 17  1  0
 19 18  1  0
 21 20  1  1
 20 19  1  0
 21 22  1  0
 22 15  1  0
 23 25  1  0
 23 21  1  0
 24 23  2  0
M  END
$$$$
