IIM.pdb
     RDKit          3D

 25 24  0  0  1  0  0  0  0  0999 V2000
    6.5241  -38.3264  -42.4213 C   0  0  0  0  0  0  0  0  0  0  0  0
    5.2430  -37.7311  -41.9491 C   0  0  0  0  0  0  0  0  0  0  0  0
    4.2164  -37.4836  -43.0007 C   0  0  2  0  0  0  0  0  0  0  0  0
    2.8723  -37.2268  -42.3261 C   0  0  0  0  0  0  0  0  0  0  0  0
    4.0188  -38.6123  -43.9533 C   0  0  2  0  0  0  0  0  0  0  0  0
    2.9451  -39.4838  -43.5245 N   0  0  0  0  0  0  0  0  0  0  0  0
    5.2466  -39.3798  -44.2357 C   0  0  0  0  0  0  0  0  0  0  0  0
    5.1556  -40.3405  -45.0417 O   0  0  0  0  0  0  0  0  0  0  0  0
    8.6623  -42.5026  -43.8185 C   0  0  0  0  0  0  0  0  0  0  0  0
    9.3726  -41.4613  -42.9200 C   0  0  0  0  0  0  0  0  0  0  0  0
    8.4138  -40.3163  -42.7666 C   0  0  2  0  0  0  0  0  0  0  0  0
    7.4486  -40.7235  -41.6613 C   0  0  0  0  0  0  0  0  0  0  0  0
    7.7138  -39.8677  -44.0028 C   0  0  2  0  0  0  0  0  0  0  0  0
    6.5063  -39.0873  -43.6474 N   0  0  0  0  0  0  0  0  0  0  0  0
    7.3429  -40.9038  -44.9646 C   0  0  0  0  0  0  0  0  0  0  0  0
    7.3166  -40.6447  -46.2241 O   0  0  0  0  0  0  0  0  0  0  0  0
    4.3095  -41.8848  -46.7968 C   0  0  0  0  0  0  0  0  0  0  0  0
    2.9534  -42.4020  -45.7105 S   0  0  0  0  0  0  0  0  0  0  0  0
    3.6609  -42.8490  -44.0735 C   0  0  0  0  0  0  0  0  0  0  0  0
    4.7649  -41.9085  -43.7083 C   0  0  0  0  0  0  0  0  0  0  0  0
    6.1040  -42.5610  -43.5061 C   0  0  2  0  0  0  0  0  0  0  0  0
    6.9932  -42.2404  -44.6415 N   0  0  0  0  0  0  0  0  0  0  0  0
    6.0263  -44.0275  -43.3271 C   0  0  0  0  0  0  0  0  0  0  0  0
    4.8934  -44.5840  -43.2092 O   0  0  0  0  0  0  0  0  0  0  0  0
    7.1338  -44.8486  -43.2798 O   0  0  0  0  0  0  0  0  0  0  0  0
  2  1  1  0
  3  2  1  0
  3  5  1  0
  3  4  1  1
  5  6  1  1
  7  5  1  0
  7  8  2  0
 10  9  1  0
 11 13  1  0
 11 10  1  0
 11 12  1  1
 13 14  1  1
 14  7  1  0
 15 13  1  0
 16 15  2  0
 18 17  1  0
 19 18  1  0
 21 20  1  6
 20 19  1  0
 21 22  1  0
 22 15  1  0
 23 25  1  0
 23 21  1  0
 24 23  2  0
M  END
$$$$
