IIM.pdb
     RDKit          3D

 25 24  0  0  1  0  0  0  0  0999 V2000
    8.0643  -19.0776   19.6052 C   0  0  0  0  0  0  0  0  0  0  0  0
    7.8047  -17.6276   19.8257 C   0  0  0  0  0  0  0  0  0  0  0  0
    8.3168  -17.0645   21.1070 C   0  0  2  0  0  0  0  0  0  0  0  0
    7.8092  -17.9242   22.2607 C   0  0  0  0  0  0  0  0  0  0  0  0
    7.8896  -15.6641   21.3845 C   0  0  2  0  0  0  0  0  0  0  0  0
    8.1718  -14.7936   20.2625 N   0  0  0  0  0  0  0  0  0  0  0  0
    8.4333  -15.1094   22.6386 C   0  0  0  0  0  0  0  0  0  0  0  0
    9.6262  -14.7123   22.6260 O   0  0  0  0  0  0  0  0  0  0  0  0
    5.6119  -11.9981   26.1554 C   0  0  0  0  0  0  0  0  0  0  0  0
    6.7622  -12.4861   25.2417 C   0  0  0  0  0  0  0  0  0  0  0  0
    7.3047  -13.7321   25.8798 C   0  0  2  0  0  0  0  0  0  0  0  0
    7.8390  -13.3069   27.2411 C   0  0  0  0  0  0  0  0  0  0  0  0
    8.3034  -14.5022   25.0868 C   0  0  2  0  0  0  0  0  0  0  0  0
    7.6823  -15.0056   23.8401 N   0  0  0  0  0  0  0  0  0  0  0  0
    8.9720  -15.6109   25.7649 C   0  0  0  0  0  0  0  0  0  0  0  0
    8.3319  -16.6946   26.0293 O   0  0  0  0  0  0  0  0  0  0  0  0
   15.2328  -16.3726   25.7563 C   0  0  0  0  0  0  0  0  0  0  0  0
   14.9471  -17.8830   26.7173 S   0  0  0  0  0  0  0  0  0  0  0  0
   13.1657  -17.9556   27.1661 C   0  0  0  0  0  0  0  0  0  0  0  0
   12.4215  -16.8244   26.5310 C   0  0  0  0  0  0  0  0  0  0  0  0
   10.9426  -16.8165   26.8002 C   0  0  2  0  0  0  0  0  0  0  0  0
   10.3280  -15.6234   26.1825 N   0  0  0  0  0  0  0  0  0  0  0  0
   10.6031  -16.8685   28.2393 C   0  0  0  0  0  0  0  0  0  0  0  0
   10.3704  -15.7916   28.8663 O   0  0  0  0  0  0  0  0  0  0  0  0
   10.5207  -18.0417   28.9603 O   0  0  0  0  0  0  0  0  0  0  0  0
  2  1  1  0
  3  2  1  0
  3  5  1  0
  3  4  1  1
  5  6  1  6
  7  5  1  0
  7  8  2  0
 10  9  1  0
 11 13  1  0
 11 10  1  0
 11 12  1  1
 13 14  1  6
 14  7  1  0
 15 13  1  0
 16 15  2  0
 18 17  1  0
 19 18  1  0
 21 20  1  1
 20 19  1  0
 21 22  1  0
 22 15  1  0
 23 25  1  0
 23 21  1  0
 24 23  2  0
M  END
$$$$
