IIM.pdb
     RDKit          3D

 25 24  0  0  1  0  0  0  0  0999 V2000
    8.9601  -19.2846   18.5896 C   0  0  0  0  0  0  0  0  0  0  0  0
    8.5964  -17.8755   18.9065 C   0  0  0  0  0  0  0  0  0  0  0  0
    9.0108  -17.3855   20.2516 C   0  0  2  0  0  0  0  0  0  0  0  0
    8.4816  -18.3476   21.3109 C   0  0  0  0  0  0  0  0  0  0  0  0
    8.5042  -16.0285   20.6013 C   0  0  2  0  0  0  0  0  0  0  0  0
    8.8400  -15.0596   19.5791 N   0  0  0  0  0  0  0  0  0  0  0  0
    8.9203  -15.5594   21.9366 C   0  0  0  0  0  0  0  0  0  0  0  0
   10.1004  -15.1439   22.0617 O   0  0  0  0  0  0  0  0  0  0  0  0
    5.7308  -12.7107   25.4764 C   0  0  0  0  0  0  0  0  0  0  0  0
    6.9077  -13.1395   24.5669 C   0  0  0  0  0  0  0  0  0  0  0  0
    7.4244  -14.4313   25.1309 C   0  0  2  0  0  0  0  0  0  0  0  0
    7.7782  -14.1422   26.5837 C   0  0  0  0  0  0  0  0  0  0  0  0
    8.5402  -15.0801   24.3871 C   0  0  2  0  0  0  0  0  0  0  0  0
    8.0622  -15.5565   23.0688 N   0  0  0  0  0  0  0  0  0  0  0  0
    9.2365  -16.1734   25.0625 C   0  0  0  0  0  0  0  0  0  0  0  0
    8.9602  -17.3967   24.7777 O   0  0  0  0  0  0  0  0  0  0  0  0
   10.5990  -13.0672   29.1186 C   0  0  0  0  0  0  0  0  0  0  0  0
   10.8822  -14.8567   29.0547 S   0  0  0  0  0  0  0  0  0  0  0  0
   12.0997  -15.2033   27.7213 C   0  0  0  0  0  0  0  0  0  0  0  0
   12.1489  -16.6691   27.4284 C   0  0  0  0  0  0  0  0  0  0  0  0
   11.0822  -17.1574   26.4885 C   0  0  2  0  0  0  0  0  0  0  0  0
   10.2436  -16.0226   26.0506 N   0  0  0  0  0  0  0  0  0  0  0  0
   10.2287  -18.2204   27.0634 C   0  0  0  0  0  0  0  0  0  0  0  0
   10.7375  -19.3468   27.3452 O   0  0  0  0  0  0  0  0  0  0  0  0
    8.8826  -18.0609   27.3196 O   0  0  0  0  0  0  0  0  0  0  0  0
  2  1  1  0
  3  2  1  0
  3  5  1  0
  3  4  1  1
  5  6  1  6
  7  5  1  0
  7  8  2  0
 10  9  1  0
 11 13  1  0
 11 10  1  0
 11 12  1  1
 13 14  1  6
 14  7  1  0
 15 13  1  0
 16 15  2  0
 18 17  1  0
 19 18  1  0
 21 20  1  1
 20 19  1  0
 21 22  1  0
 22 15  1  0
 23 25  1  0
 23 21  1  0
 24 23  2  0
M  END
$$$$
