IIM.pdb
     RDKit          3D

 25 24  0  0  1  0  0  0  0  0999 V2000
    5.8914  -11.7604   27.9907 C   0  0  0  0  0  0  0  0  0  0  0  0
    5.3754  -12.8326   27.0947 C   0  0  0  0  0  0  0  0  0  0  0  0
    6.4035  -13.5705   26.3075 C   0  0  2  0  0  0  0  0  0  0  0  0
    7.1480  -12.5794   25.4181 C   0  0  0  0  0  0  0  0  0  0  0  0
    5.8584  -14.6334   25.4166 C   0  0  2  0  0  0  0  0  0  0  0  0
    5.2532  -15.7041   26.1806 N   0  0  0  0  0  0  0  0  0  0  0  0
    6.8354  -15.1595   24.4445 C   0  0  0  0  0  0  0  0  0  0  0  0
    7.3161  -16.2997   24.6671 O   0  0  0  0  0  0  0  0  0  0  0  0
    8.6023  -14.0847   18.6378 C   0  0  0  0  0  0  0  0  0  0  0  0
    8.9136  -14.9429   19.8878 C   0  0  0  0  0  0  0  0  0  0  0  0
    8.1020  -14.3609   21.0087 C   0  0  2  0  0  0  0  0  0  0  0  0
    8.4792  -12.8871   21.0776 C   0  0  0  0  0  0  0  0  0  0  0  0
    8.2098  -15.0429   22.3288 C   0  0  2  0  0  0  0  0  0  0  0  0
    7.2510  -14.4474   23.2876 N   0  0  0  0  0  0  0  0  0  0  0  0
    9.5344  -15.0825   22.9453 C   0  0  0  0  0  0  0  0  0  0  0  0
   10.3759  -14.1311   22.7438 O   0  0  0  0  0  0  0  0  0  0  0  0
   10.0776  -15.2124   28.7473 C   0  0  0  0  0  0  0  0  0  0  0  0
   11.2267  -14.1189   27.8696 S   0  0  0  0  0  0  0  0  0  0  0  0
   11.0486  -14.4202   26.0647 C   0  0  0  0  0  0  0  0  0  0  0  0
   11.4766  -15.8121   25.7238 C   0  0  0  0  0  0  0  0  0  0  0  0
   11.4193  -16.1453   24.2591 C   0  0  2  0  0  0  0  0  0  0  0  0
   10.0178  -16.1126   23.7930 N   0  0  0  0  0  0  0  0  0  0  0  0
   12.0295  -17.4511   23.9252 C   0  0  0  0  0  0  0  0  0  0  0  0
   11.2963  -18.3933   23.4991 O   0  0  0  0  0  0  0  0  0  0  0  0
   13.3776  -17.7158   24.0500 O   0  0  0  0  0  0  0  0  0  0  0  0
  2  1  1  0
  3  2  1  0
  3  5  1  0
  3  4  1  6
  5  6  1  1
  7  5  1  0
  7  8  2  0
 10  9  1  0
 11 13  1  0
 11 10  1  0
 11 12  1  1
 13 14  1  1
 14  7  1  0
 15 13  1  0
 16 15  2  0
 18 17  1  0
 19 18  1  0
 21 20  1  1
 20 19  1  0
 21 22  1  0
 22 15  1  0
 23 25  1  0
 23 21  1  0
 24 23  2  0
M  END
$$$$
