IIM.pdb
     RDKit          3D

 25 24  0  0  1  0  0  0  0  0999 V2000
    7.9587  -19.5645   20.0613 C   0  0  0  0  0  0  0  0  0  0  0  0
    7.9470  -18.0860   20.2406 C   0  0  0  0  0  0  0  0  0  0  0  0
    8.4465  -17.5878   21.5534 C   0  0  2  0  0  0  0  0  0  0  0  0
    7.6657  -18.2741   22.6700 C   0  0  0  0  0  0  0  0  0  0  0  0
    8.3001  -16.1189   21.7565 C   0  0  2  0  0  0  0  0  0  0  0  0
    8.8887  -15.3732   20.6639 N   0  0  0  0  0  0  0  0  0  0  0  0
    8.8027  -15.6412   23.0586 C   0  0  0  0  0  0  0  0  0  0  0  0
   10.0484  -15.5393   23.1955 O   0  0  0  0  0  0  0  0  0  0  0  0
    6.1212  -11.9251   25.9799 C   0  0  0  0  0  0  0  0  0  0  0  0
    7.2663  -12.6510   25.2330 C   0  0  0  0  0  0  0  0  0  0  0  0
    7.6233  -13.8443   26.0711 C   0  0  2  0  0  0  0  0  0  0  0  0
    8.1865  -13.2887   27.3725 C   0  0  0  0  0  0  0  0  0  0  0  0
    8.5219  -14.8519   25.4413 C   0  0  2  0  0  0  0  0  0  0  0  0
    7.9567  -15.2972   24.1469 N   0  0  0  0  0  0  0  0  0  0  0  0
    8.8591  -16.0277   26.2412 C   0  0  0  0  0  0  0  0  0  0  0  0
    7.9346  -16.8154   26.6640 O   0  0  0  0  0  0  0  0  0  0  0  0
   14.2806  -18.4693   24.6716 C   0  0  0  0  0  0  0  0  0  0  0  0
   12.9291  -19.6542   24.9086 S   0  0  0  0  0  0  0  0  0  0  0  0
   11.4428  -18.7319   25.4747 C   0  0  0  0  0  0  0  0  0  0  0  0
   11.5580  -18.3991   26.9283 C   0  0  0  0  0  0  0  0  0  0  0  0
   10.4150  -17.5937   27.4802 C   0  0  2  0  0  0  0  0  0  0  0  0
   10.1697  -16.4183   26.6194 N   0  0  0  0  0  0  0  0  0  0  0  0
   10.6198  -17.1580   28.8792 C   0  0  0  0  0  0  0  0  0  0  0  0
   10.7326  -18.0274   29.7948 O   0  0  0  0  0  0  0  0  0  0  0  0
   10.6985  -15.8347   29.2608 O   0  0  0  0  0  0  0  0  0  0  0  0
  2  1  1  0
  3  2  1  0
  3  5  1  0
  3  4  1  1
  5  6  1  6
  7  5  1  0
  7  8  2  0
 10  9  1  0
 11 13  1  0
 11 10  1  0
 11 12  1  1
 13 14  1  6
 14  7  1  0
 15 13  1  0
 16 15  2  0
 18 17  1  0
 19 18  1  0
 21 20  1  6
 20 19  1  0
 21 22  1  0
 22 15  1  0
 23 25  1  0
 23 21  1  0
 24 23  2  0
M  END
$$$$
