IIM.pdb
     RDKit          3D

 25 24  0  0  1  0  0  0  0  0999 V2000
    6.6193  -22.4457   23.9666 C   0  0  0  0  0  0  0  0  0  0  0  0
    6.0204  -21.1880   23.4391 C   0  0  0  0  0  0  0  0  0  0  0  0
    6.8967  -19.9834   23.4851 C   0  0  2  0  0  0  0  0  0  0  0  0
    7.3498  -19.7585   24.9245 C   0  0  0  0  0  0  0  0  0  0  0  0
    6.2441  -18.7233   23.0303 C   0  0  2  0  0  0  0  0  0  0  0  0
    5.7790  -18.8326   21.6636 N   0  0  0  0  0  0  0  0  0  0  0  0
    7.0745  -17.5181   23.2152 C   0  0  0  0  0  0  0  0  0  0  0  0
    7.9402  -17.2721   22.3372 O   0  0  0  0  0  0  0  0  0  0  0  0
    6.8399  -12.0369   25.8808 C   0  0  0  0  0  0  0  0  0  0  0  0
    7.8075  -13.0172   25.1746 C   0  0  0  0  0  0  0  0  0  0  0  0
    7.0623  -14.3128   25.0330 C   0  0  2  0  0  0  0  0  0  0  0  0
    6.4812  -14.6141   26.4081 C   0  0  0  0  0  0  0  0  0  0  0  0
    7.8282  -15.4599   24.4702 C   0  0  2  0  0  0  0  0  0  0  0  0
    6.9427  -16.6378   24.3224 N   0  0  0  0  0  0  0  0  0  0  0  0
    9.0369  -15.8621   25.1866 C   0  0  0  0  0  0  0  0  0  0  0  0
    8.9584  -16.6166   26.2252 O   0  0  0  0  0  0  0  0  0  0  0  0
    9.2471  -14.4910   29.6171 C   0  0  0  0  0  0  0  0  0  0  0  0
   11.0107  -14.1786   29.3368 S   0  0  0  0  0  0  0  0  0  0  0  0
   11.3418  -14.3050   27.5328 C   0  0  0  0  0  0  0  0  0  0  0  0
   11.2712  -15.7314   27.0885 C   0  0  0  0  0  0  0  0  0  0  0  0
   11.5291  -15.9457   25.6231 C   0  0  2  0  0  0  0  0  0  0  0  0
   10.3620  -15.4932   24.8384 N   0  0  0  0  0  0  0  0  0  0  0  0
   11.8533  -17.3475   25.2785 C   0  0  0  0  0  0  0  0  0  0  0  0
   11.2791  -18.2927   25.8981 O   0  0  0  0  0  0  0  0  0  0  0  0
   12.7617  -17.7011   24.3023 O   0  0  0  0  0  0  0  0  0  0  0  0
  2  1  1  0
  3  2  1  0
  3  5  1  0
  3  4  1  1
  5  6  1  6
  7  5  1  0
  7  8  2  0
 10  9  1  0
 11 13  1  0
 11 10  1  0
 11 12  1  1
 13 14  1  1
 14  7  1  0
 15 13  1  0
 16 15  2  0
 18 17  1  0
 19 18  1  0
 21 20  1  1
 20 19  1  0
 21 22  1  0
 22 15  1  0
 23 25  1  0
 23 21  1  0
 24 23  2  0
M  END
$$$$
