IIM.pdb
     RDKit          3D

 25 24  0  0  1  0  0  0  0  0999 V2000
    7.1407  -20.3597   19.7925 C   0  0  0  0  0  0  0  0  0  0  0  0
    6.9679  -18.8805   19.7685 C   0  0  0  0  0  0  0  0  0  0  0  0
    7.6826  -18.1265   20.8370 C   0  0  2  0  0  0  0  0  0  0  0  0
    7.2141  -18.6358   22.1967 C   0  0  0  0  0  0  0  0  0  0  0  0
    7.4521  -16.6544   20.8185 C   0  0  2  0  0  0  0  0  0  0  0  0
    7.7333  -16.0921   19.5143 N   0  0  0  0  0  0  0  0  0  0  0  0
    8.1692  -15.9224   21.8797 C   0  0  0  0  0  0  0  0  0  0  0  0
    9.4061  -15.7528   21.7307 O   0  0  0  0  0  0  0  0  0  0  0  0
    6.8886  -11.8204   26.2531 C   0  0  0  0  0  0  0  0  0  0  0  0
    8.0250  -12.7213   25.7118 C   0  0  0  0  0  0  0  0  0  0  0  0
    7.3901  -13.6390   24.7074 C   0  0  2  0  0  0  0  0  0  0  0  0
    6.2313  -14.3132   25.4299 C   0  0  0  0  0  0  0  0  0  0  0  0
    8.2940  -14.6152   24.0371 C   0  0  2  0  0  0  0  0  0  0  0  0
    7.5358  -15.4093   23.0432 N   0  0  0  0  0  0  0  0  0  0  0  0
    9.0402  -15.5263   24.9026 C   0  0  0  0  0  0  0  0  0  0  0  0
    8.4233  -16.4072   25.6079 O   0  0  0  0  0  0  0  0  0  0  0  0
    9.9187  -13.2004   29.5886 C   0  0  0  0  0  0  0  0  0  0  0  0
   10.2618  -14.8825   30.1714 S   0  0  0  0  0  0  0  0  0  0  0  0
   11.0411  -15.8238   28.7977 C   0  0  0  0  0  0  0  0  0  0  0  0
   10.5763  -15.2989   27.4766 C   0  0  0  0  0  0  0  0  0  0  0  0
   11.0951  -16.0529   26.2841 C   0  0  2  0  0  0  0  0  0  0  0  0
   10.4509  -15.5483   25.0541 N   0  0  0  0  0  0  0  0  0  0  0  0
   10.9096  -17.5174   26.3839 C   0  0  0  0  0  0  0  0  0  0  0  0
    9.7411  -18.0052   26.3244 O   0  0  0  0  0  0  0  0  0  0  0  0
   11.9515  -18.4079   26.5405 O   0  0  0  0  0  0  0  0  0  0  0  0
  2  1  1  0
  3  2  1  0
  3  5  1  0
  3  4  1  1
  5  6  1  6
  7  5  1  0
  7  8  2  0
 10  9  1  0
 11 13  1  0
 11 10  1  0
 11 12  1  1
 13 14  1  6
 14  7  1  0
 15 13  1  0
 16 15  2  0
 18 17  1  0
 19 18  1  0
 21 20  1  1
 20 19  1  0
 21 22  1  0
 22 15  1  0
 23 25  1  0
 23 21  1  0
 24 23  2  0
M  END
$$$$
