IIM.pdb
     RDKit          3D

 25 24  0  0  1  0  0  0  0  0999 V2000
    6.7642  -22.1212   25.1964 C   0  0  0  0  0  0  0  0  0  0  0  0
    5.9872  -20.9422   24.7223 C   0  0  0  0  0  0  0  0  0  0  0  0
    6.7679  -19.6885   24.5226 C   0  0  2  0  0  0  0  0  0  0  0  0
    7.4196  -19.2980   25.8456 C   0  0  0  0  0  0  0  0  0  0  0  0
    5.9611  -18.5199   24.0709 C   0  0  2  0  0  0  0  0  0  0  0  0
    5.1608  -18.8476   22.9097 N   0  0  0  0  0  0  0  0  0  0  0  0
    6.7538  -17.2969   23.8431 C   0  0  0  0  0  0  0  0  0  0  0  0
    7.3510  -17.1916   22.7417 O   0  0  0  0  0  0  0  0  0  0  0  0
    5.5321  -12.3749   26.0404 C   0  0  0  0  0  0  0  0  0  0  0  0
    5.9231  -13.3911   24.9401 C   0  0  0  0  0  0  0  0  0  0  0  0
    7.2836  -13.9068   25.3099 C   0  0  2  0  0  0  0  0  0  0  0  0
    8.2274  -12.7169   25.1975 C   0  0  0  0  0  0  0  0  0  0  0  0
    7.7688  -15.0969   24.5565 C   0  0  2  0  0  0  0  0  0  0  0  0
    6.8712  -16.2502   24.7965 N   0  0  0  0  0  0  0  0  0  0  0  0
    9.1494  -15.5124   24.7962 C   0  0  0  0  0  0  0  0  0  0  0  0
   10.1197  -14.6894   24.6088 O   0  0  0  0  0  0  0  0  0  0  0  0
    9.6414  -13.2668   28.8582 C   0  0  0  0  0  0  0  0  0  0  0  0
   10.4783  -14.7471   29.4866 S   0  0  0  0  0  0  0  0  0  0  0  0
   11.3317  -15.5704   28.0815 C   0  0  0  0  0  0  0  0  0  0  0  0
   10.4647  -16.6417   27.5004 C   0  0  0  0  0  0  0  0  0  0  0  0
   10.7672  -16.9860   26.0688 C   0  0  2  0  0  0  0  0  0  0  0  0
    9.5575  -16.7961   25.2423 N   0  0  0  0  0  0  0  0  0  0  0  0
   11.2887  -18.3587   25.8882 C   0  0  0  0  0  0  0  0  0  0  0  0
   12.5141  -18.5310   25.6130 O   0  0  0  0  0  0  0  0  0  0  0  0
   10.5089  -19.4909   26.0034 O   0  0  0  0  0  0  0  0  0  0  0  0
  2  1  1  0
  3  2  1  0
  3  5  1  0
  3  4  1  1
  5  6  1  6
  7  5  1  0
  7  8  2  0
 10  9  1  0
 11 13  1  0
 11 10  1  0
 11 12  1  6
 13 14  1  1
 14  7  1  0
 15 13  1  0
 16 15  2  0
 18 17  1  0
 19 18  1  0
 21 20  1  1
 20 19  1  0
 21 22  1  0
 22 15  1  0
 23 25  1  0
 23 21  1  0
 24 23  2  0
M  END
$$$$
