IIM.pdb
     RDKit          3D

 25 24  0  0  1  0  0  0  0  0999 V2000
    7.8583  -12.2141   19.0171 C   0  0  0  0  0  0  0  0  0  0  0  0
    7.3500  -13.2719   19.9343 C   0  0  0  0  0  0  0  0  0  0  0  0
    8.3887  -14.1158   20.5900 C   0  0  2  0  0  0  0  0  0  0  0  0
    9.2114  -14.8121   19.5101 C   0  0  0  0  0  0  0  0  0  0  0  0
    7.8508  -15.1798   21.4839 C   0  0  2  0  0  0  0  0  0  0  0  0
    6.4032  -15.2016   21.4675 N   0  0  0  0  0  0  0  0  0  0  0  0
    8.3667  -15.1195   22.8647 C   0  0  0  0  0  0  0  0  0  0  0  0
    9.6041  -15.2724   23.0268 O   0  0  0  0  0  0  0  0  0  0  0  0
    5.9415  -11.7235   26.1847 C   0  0  0  0  0  0  0  0  0  0  0  0
    7.0882  -12.4090   25.4028 C   0  0  0  0  0  0  0  0  0  0  0  0
    7.3645  -13.7029   26.1122 C   0  0  2  0  0  0  0  0  0  0  0  0
    8.0381  -13.3252   27.4248 C   0  0  0  0  0  0  0  0  0  0  0  0
    8.1304  -14.7272   25.3485 C   0  0  2  0  0  0  0  0  0  0  0  0
    7.5420  -14.9004   24.0005 N   0  0  0  0  0  0  0  0  0  0  0  0
    8.2811  -16.0403   25.9725 C   0  0  0  0  0  0  0  0  0  0  0  0
    7.5266  -17.0201   25.6197 O   0  0  0  0  0  0  0  0  0  0  0  0
   10.6800  -19.9868   22.8637 C   0  0  0  0  0  0  0  0  0  0  0  0
   12.0425  -19.4601   23.9373 S   0  0  0  0  0  0  0  0  0  0  0  0
   11.3778  -19.2003   25.6316 C   0  0  0  0  0  0  0  0  0  0  0  0
   10.5750  -17.9396   25.6891 C   0  0  0  0  0  0  0  0  0  0  0  0
    9.9051  -17.6819   27.0098 C   0  0  2  0  0  0  0  0  0  0  0  0
    9.2256  -16.3705   26.9786 N   0  0  0  0  0  0  0  0  0  0  0  0
   10.8295  -17.7416   28.1635 C   0  0  0  0  0  0  0  0  0  0  0  0
   10.9493  -18.8233   28.8135 O   0  0  0  0  0  0  0  0  0  0  0  0
   11.5884  -16.6704   28.5873 O   0  0  0  0  0  0  0  0  0  0  0  0
  2  1  1  0
  3  2  1  0
  3  5  1  0
  3  4  1  6
  5  6  1  1
  7  5  1  0
  7  8  2  0
 10  9  1  0
 11 13  1  0
 11 10  1  0
 11 12  1  1
 13 14  1  6
 14  7  1  0
 15 13  1  0
 16 15  2  0
 18 17  1  0
 19 18  1  0
 21 20  1  6
 20 19  1  0
 21 22  1  0
 22 15  1  0
 23 25  1  0
 23 21  1  0
 24 23  2  0
M  END
$$$$
