IIM.pdb
     RDKit          3D

 25 24  0  0  1  0  0  0  0  0999 V2000
    7.3319  -11.8188   19.7008 C   0  0  0  0  0  0  0  0  0  0  0  0
    7.4597  -13.2929   19.5304 C   0  0  0  0  0  0  0  0  0  0  0  0
    7.7841  -14.0627   20.7646 C   0  0  2  0  0  0  0  0  0  0  0  0
    9.1605  -13.6349   21.2645 C   0  0  0  0  0  0  0  0  0  0  0  0
    7.8255  -15.5410   20.5814 C   0  0  2  0  0  0  0  0  0  0  0  0
    6.6140  -16.0302   19.9576 N   0  0  0  0  0  0  0  0  0  0  0  0
    8.1282  -16.2894   21.8161 C   0  0  0  0  0  0  0  0  0  0  0  0
    7.2172  -16.3747   22.6785 O   0  0  0  0  0  0  0  0  0  0  0  0
   11.6992  -20.5762   22.2929 C   0  0  0  0  0  0  0  0  0  0  0  0
   10.3914  -19.7613   22.4412 C   0  0  0  0  0  0  0  0  0  0  0  0
   10.7443  -18.5453   23.2477 C   0  0  2  0  0  0  0  0  0  0  0  0
   11.2407  -19.0633   24.5911 C   0  0  0  0  0  0  0  0  0  0  0  0
    9.6807  -17.5119   23.3891 C   0  0  2  0  0  0  0  0  0  0  0  0
    9.3818  -16.9074   22.0705 N   0  0  0  0  0  0  0  0  0  0  0  0
    9.9222  -16.4436   24.3568 C   0  0  0  0  0  0  0  0  0  0  0  0
   10.8322  -15.5611   24.1400 O   0  0  0  0  0  0  0  0  0  0  0  0
    6.0833  -12.1596   26.4780 C   0  0  0  0  0  0  0  0  0  0  0  0
    7.6865  -11.6112   27.1227 S   0  0  0  0  0  0  0  0  0  0  0  0
    8.6551  -13.0971   27.6068 C   0  0  0  0  0  0  0  0  0  0  0  0
    8.4378  -14.2038   26.6245 C   0  0  0  0  0  0  0  0  0  0  0  0
    9.5707  -15.1869   26.5261 C   0  0  2  0  0  0  0  0  0  0  0  0
    9.2189  -16.2621   25.5758 N   0  0  0  0  0  0  0  0  0  0  0  0
    9.9591  -15.7739   27.8274 C   0  0  0  0  0  0  0  0  0  0  0  0
   10.4298  -15.0251   28.7356 O   0  0  0  0  0  0  0  0  0  0  0  0
    9.8385  -17.1157   28.1240 O   0  0  0  0  0  0  0  0  0  0  0  0
  2  1  1  0
  3  2  1  0
  3  5  1  0
  3  4  1  6
  5  6  1  1
  7  5  1  0
  7  8  2  0
 10  9  1  0
 11 13  1  0
 11 10  1  0
 11 12  1  1
 13 14  1  6
 14  7  1  0
 15 13  1  0
 16 15  2  0
 18 17  1  0
 19 18  1  0
 21 20  1  1
 20 19  1  0
 21 22  1  0
 22 15  1  0
 23 25  1  0
 23 21  1  0
 24 23  2  0
M  END
$$$$
