IIM.pdb
     RDKit          3D

 25 24  0  0  1  0  0  0  0  0999 V2000
    6.8088  -20.7477   26.8758 C   0  0  0  0  0  0  0  0  0  0  0  0
    6.3729  -20.4140   25.4911 C   0  0  0  0  0  0  0  0  0  0  0  0
    7.1505  -19.3424   24.8069 C   0  0  2  0  0  0  0  0  0  0  0  0
    7.0076  -18.0471   25.6002 C   0  0  0  0  0  0  0  0  0  0  0  0
    6.7127  -19.0516   23.4125 C   0  0  2  0  0  0  0  0  0  0  0  0
    6.5838  -20.2662   22.6351 N   0  0  0  0  0  0  0  0  0  0  0  0
    7.5534  -18.0600   22.7152 C   0  0  0  0  0  0  0  0  0  0  0  0
    8.6821  -18.4401   22.3121 O   0  0  0  0  0  0  0  0  0  0  0  0
    7.2892  -13.0640   19.2825 C   0  0  0  0  0  0  0  0  0  0  0  0
    8.2483  -13.8557   20.2042 C   0  0  0  0  0  0  0  0  0  0  0  0
    7.4008  -14.8652   20.9231 C   0  0  2  0  0  0  0  0  0  0  0  0
    6.2424  -14.0840   21.5291 C   0  0  0  0  0  0  0  0  0  0  0  0
    8.0970  -15.7249   21.9208 C   0  0  2  0  0  0  0  0  0  0  0  0
    7.1520  -16.7172   22.4829 N   0  0  0  0  0  0  0  0  0  0  0  0
    8.7778  -15.0429   23.0196 C   0  0  0  0  0  0  0  0  0  0  0  0
    8.7611  -13.7595   23.1003 O   0  0  0  0  0  0  0  0  0  0  0  0
    7.2197  -11.2797   27.0123 C   0  0  0  0  0  0  0  0  0  0  0  0
    7.7196  -12.7530   27.9429 S   0  0  0  0  0  0  0  0  0  0  0  0
    9.2169  -13.4616   27.1451 C   0  0  0  0  0  0  0  0  0  0  0  0
    8.8378  -14.2481   25.9308 C   0  0  0  0  0  0  0  0  0  0  0  0
    9.9863  -14.9301   25.2412 C   0  0  2  0  0  0  0  0  0  0  0  0
    9.4916  -15.6794   24.0679 N   0  0  0  0  0  0  0  0  0  0  0  0
   10.7555  -15.8327   26.1258 C   0  0  0  0  0  0  0  0  0  0  0  0
   10.5380  -17.0809   26.0873 O   0  0  0  0  0  0  0  0  0  0  0  0
   11.7182  -15.3930   27.0108 O   0  0  0  0  0  0  0  0  0  0  0  0
  2  1  1  0
  3  2  1  0
  3  5  1  0
  3  4  1  1
  5  6  1  6
  7  5  1  0
  7  8  2  0
 10  9  1  0
 11 13  1  0
 11 10  1  0
 11 12  1  1
 13 14  1  1
 14  7  1  0
 15 13  1  0
 16 15  2  0
 18 17  1  0
 19 18  1  0
 21 20  1  1
 20 19  1  0
 21 22  1  0
 22 15  1  0
 23 25  1  0
 23 21  1  0
 24 23  2  0
M  END
$$$$
