IIM.pdb
     RDKit          3D

 25 24  0  0  1  0  0  0  0  0999 V2000
    6.8819  -21.8950   24.9234 C   0  0  0  0  0  0  0  0  0  0  0  0
    6.1509  -20.7084   24.3980 C   0  0  0  0  0  0  0  0  0  0  0  0
    6.9158  -19.4294   24.3838 C   0  0  2  0  0  0  0  0  0  0  0  0
    7.4205  -19.1415   25.7945 C   0  0  0  0  0  0  0  0  0  0  0  0
    6.1293  -18.2404   23.9497 C   0  0  2  0  0  0  0  0  0  0  0  0
    5.4946  -18.4659   22.6681 N   0  0  0  0  0  0  0  0  0  0  0  0
    6.8982  -16.9814   23.9488 C   0  0  0  0  0  0  0  0  0  0  0  0
    7.5865  -16.7250   22.9284 O   0  0  0  0  0  0  0  0  0  0  0  0
    5.0472  -12.4215   26.2591 C   0  0  0  0  0  0  0  0  0  0  0  0
    5.7007  -13.3020   25.1664 C   0  0  0  0  0  0  0  0  0  0  0  0
    7.0326  -13.7283   25.7126 C   0  0  2  0  0  0  0  0  0  0  0  0
    7.8765  -12.4631   25.7933 C   0  0  0  0  0  0  0  0  0  0  0  0
    7.7227  -14.8329   24.9896 C   0  0  2  0  0  0  0  0  0  0  0  0
    6.8962  -16.0611   25.0311 N   0  0  0  0  0  0  0  0  0  0  0  0
    9.0797  -15.1596   25.4232 C   0  0  0  0  0  0  0  0  0  0  0  0
    9.9406  -14.2265   25.6292 O   0  0  0  0  0  0  0  0  0  0  0  0
   11.5285  -13.3153   28.3898 C   0  0  0  0  0  0  0  0  0  0  0  0
   11.1022  -14.7825   29.3655 S   0  0  0  0  0  0  0  0  0  0  0  0
   10.1703  -15.9443   28.2875 C   0  0  0  0  0  0  0  0  0  0  0  0
   11.1143  -16.8138   27.5195 C   0  0  0  0  0  0  0  0  0  0  0  0
   10.9869  -16.7115   26.0252 C   0  0  2  0  0  0  0  0  0  0  0  0
    9.5766  -16.4676   25.6588 N   0  0  0  0  0  0  0  0  0  0  0  0
   11.4946  -17.9004   25.3056 C   0  0  0  0  0  0  0  0  0  0  0  0
   12.7074  -18.2433   25.4420 O   0  0  0  0  0  0  0  0  0  0  0  0
   10.7144  -18.6793   24.4763 O   0  0  0  0  0  0  0  0  0  0  0  0
  2  1  1  0
  3  2  1  0
  3  5  1  0
  3  4  1  1
  5  6  1  6
  7  5  1  0
  7  8  2  0
 10  9  1  0
 11 13  1  0
 11 10  1  0
 11 12  1  6
 13 14  1  1
 14  7  1  0
 15 13  1  0
 16 15  2  0
 18 17  1  0
 19 18  1  0
 21 20  1  1
 20 19  1  0
 21 22  1  0
 22 15  1  0
 23 25  1  0
 23 21  1  0
 24 23  2  0
M  END
$$$$
