PNM.pdb
     RDKit          3D

 24 24  0  0  1  0  0  0  0  0999 V2000
    9.4249  -14.2485   18.1365 N   0  0  0  0  0  0  0  0  0  0  0  0
    8.2815  -14.5120   17.3355 C   0  0  0  0  0  0  0  0  0  0  0  0
    7.1575  -13.6391   17.8772 C   0  0  0  0  0  0  0  0  0  0  0  0
    7.7678  -12.8477   19.0166 C   0  0  0  0  0  0  0  0  0  0  0  0
    9.0153  -13.6549   19.3516 C   0  0  1  0  0  0  0  0  0  0  0  0
    8.7787  -14.6250   20.4106 C   0  0  0  0  0  0  0  0  0  0  0  0
    7.7360  -14.6466   21.1268 O   0  0  0  0  0  0  0  0  0  0  0  0
   10.1067  -19.8381   22.5353 N   0  0  0  0  0  0  0  0  0  0  0  0
   10.5835  -18.5302   22.8729 C   0  0  0  0  0  0  0  0  0  0  0  0
   10.8543  -18.3301   24.0720 O   0  0  0  0  0  0  0  0  0  0  0  0
   10.7297  -17.5114   21.8295 C   0  0  0  0  0  0  0  0  0  0  0  0
    9.5701  -16.5598   21.7961 C   0  0  2  0  0  0  0  0  0  0  0  0
    9.7508  -15.6342   20.6973 N   0  0  0  0  0  0  0  0  0  0  0  0
    9.4891  -15.8765   23.1026 C   0  0  0  0  0  0  0  0  0  0  0  0
   10.3073  -14.9581   23.3508 O   0  0  0  0  0  0  0  0  0  0  0  0
    7.1328  -11.5641   28.2115 C   0  0  0  0  0  0  0  0  0  0  0  0
    7.0091  -12.2563   26.5632 S   0  0  0  0  0  0  0  0  0  0  0  0
    6.5607  -13.9739   26.4765 C   0  0  0  0  0  0  0  0  0  0  0  0
    7.0152  -14.7759   25.3409 C   0  0  0  0  0  0  0  0  0  0  0  0
    8.2922  -15.4832   25.2992 C   0  0  2  0  0  0  0  0  0  0  0  0
    8.5194  -16.2322   24.0664 N   0  0  0  0  0  0  0  0  0  0  0  0
    8.6546  -16.3560   26.4225 C   0  0  0  0  0  0  0  0  0  0  0  0
    8.5011  -17.6243   26.3821 O   0  0  0  0  0  0  0  0  0  0  0  0
    9.1935  -15.8622   27.6289 O   0  0  0  0  0  0  0  0  0  0  0  0
  1  2  1  0
  3  2  1  0
  4  3  1  0
  5  4  1  0
  5  1  1  0
  5  6  1  1
  7  6  2  0
  8  9  1  0
  9 10  2  0
 11  9  1  0
 12 11  1  1
 12 13  1  0
 13  6  1  0
 14 15  2  0
 14 12  1  0
 17 16  1  0
 18 17  1  0
 18 19  1  0
 20 19  1  1
 20 22  1  0
 20 21  1  0
 21 14  1  0
 22 24  1  0
 23 22  2  0
M  END
$$$$
