PNM.pdb
     RDKit          3D

 24 24  0  0  1  0  0  0  0  0999 V2000
    9.1731  -15.0051   18.8388 N   0  0  0  0  0  0  0  0  0  0  0  0
    8.2206  -15.0544   17.7859 C   0  0  0  0  0  0  0  0  0  0  0  0
    7.4285  -13.7556   17.8515 C   0  0  0  0  0  0  0  0  0  0  0  0
    8.0312  -12.9669   18.9969 C   0  0  0  0  0  0  0  0  0  0  0  0
    8.7682  -14.0398   19.7880 C   0  0  1  0  0  0  0  0  0  0  0  0
    7.9529  -14.5965   20.8575 C   0  0  0  0  0  0  0  0  0  0  0  0
    7.2961  -13.8959   21.6809 O   0  0  0  0  0  0  0  0  0  0  0  0
    6.8551  -20.0329   23.5644 N   0  0  0  0  0  0  0  0  0  0  0  0
    6.4463  -18.7256   23.1453 C   0  0  0  0  0  0  0  0  0  0  0  0
    5.5131  -18.2041   23.7843 O   0  0  0  0  0  0  0  0  0  0  0  0
    7.1190  -18.0733   22.0183 C   0  0  0  0  0  0  0  0  0  0  0  0
    7.2029  -16.5851   22.1890 C   0  0  2  0  0  0  0  0  0  0  0  0
    7.8547  -16.0131   21.0294 N   0  0  0  0  0  0  0  0  0  0  0  0
    7.9285  -16.2991   23.4430 C   0  0  0  0  0  0  0  0  0  0  0  0
    9.1718  -16.4665   23.4680 O   0  0  0  0  0  0  0  0  0  0  0  0
    6.8988  -10.1391   26.4918 C   0  0  0  0  0  0  0  0  0  0  0  0
    6.6014  -11.5672   27.5329 S   0  0  0  0  0  0  0  0  0  0  0  0
    7.5762  -13.0077   27.1678 C   0  0  0  0  0  0  0  0  0  0  0  0
    7.1335  -13.9241   26.1173 C   0  0  0  0  0  0  0  0  0  0  0  0
    7.9045  -15.0774   25.6609 C   0  0  2  0  0  0  0  0  0  0  0  0
    7.2578  -15.8456   24.6006 N   0  0  0  0  0  0  0  0  0  0  0  0
    8.4076  -16.0311   26.6570 C   0  0  0  0  0  0  0  0  0  0  0  0
    7.8578  -17.1677   26.8564 O   0  0  0  0  0  0  0  0  0  0  0  0
    9.5293  -15.7645   27.4697 O   0  0  0  0  0  0  0  0  0  0  0  0
  1  2  1  0
  3  2  1  0
  4  3  1  0
  5  4  1  0
  5  1  1  0
  5  6  1  1
  7  6  2  0
  8  9  1  0
  9 10  2  0
 11  9  1  0
 12 11  1  6
 12 13  1  0
 13  6  1  0
 14 15  2  0
 14 12  1  0
 17 16  1  0
 18 17  1  0
 18 19  1  0
 20 19  1  1
 20 22  1  0
 20 21  1  0
 21 14  1  0
 22 24  1  0
 23 22  2  0
M  END
$$$$
