PNM.pdb
     RDKit          3D

 24 24  0  0  1  0  0  0  0  0999 V2000
    7.7404  -13.3741   19.5607 N   0  0  0  0  0  0  0  0  0  0  0  0
    8.8315  -12.6410   19.0218 C   0  0  0  0  0  0  0  0  0  0  0  0
    9.1947  -13.3051   17.7006 C   0  0  0  0  0  0  0  0  0  0  0  0
    8.2057  -14.4407   17.5287 C   0  0  0  0  0  0  0  0  0  0  0  0
    7.6842  -14.6448   18.9451 C   0  0  1  0  0  0  0  0  0  0  0  0
    8.4308  -15.6639   19.6680 C   0  0  0  0  0  0  0  0  0  0  0  0
    8.7400  -16.7898   19.1810 O   0  0  0  0  0  0  0  0  0  0  0  0
   11.5372  -19.0084   21.5566 N   0  0  0  0  0  0  0  0  0  0  0  0
   11.7670  -17.6142   21.7912 C   0  0  0  0  0  0  0  0  0  0  0  0
   12.6761  -17.3283   22.5931 O   0  0  0  0  0  0  0  0  0  0  0  0
   10.9511  -16.6106   21.1018 C   0  0  0  0  0  0  0  0  0  0  0  0
    9.6086  -16.4275   21.7464 C   0  0  2  0  0  0  0  0  0  0  0  0
    8.8644  -15.4270   21.0103 N   0  0  0  0  0  0  0  0  0  0  0  0
    9.8164  -16.0508   23.1590 C   0  0  0  0  0  0  0  0  0  0  0  0
   10.8047  -15.3344   23.4495 O   0  0  0  0  0  0  0  0  0  0  0  0
    5.5019  -11.7004   26.7954 C   0  0  0  0  0  0  0  0  0  0  0  0
    7.0591  -12.5871   26.7699 S   0  0  0  0  0  0  0  0  0  0  0  0
    6.9400  -14.3581   26.6799 C   0  0  0  0  0  0  0  0  0  0  0  0
    7.4341  -15.0491   25.4893 C   0  0  0  0  0  0  0  0  0  0  0  0
    8.7190  -15.7400   25.4198 C   0  0  2  0  0  0  0  0  0  0  0  0
    8.9341  -16.4760   24.1771 N   0  0  0  0  0  0  0  0  0  0  0  0
    9.1116  -16.6171   26.5294 C   0  0  0  0  0  0  0  0  0  0  0  0
    9.2476  -17.8803   26.3893 O   0  0  0  0  0  0  0  0  0  0  0  0
    9.3631  -16.1346   27.8308 O   0  0  0  0  0  0  0  0  0  0  0  0
  1  2  1  0
  3  2  1  0
  4  3  1  0
  5  4  1  0
  5  1  1  0
  5  6  1  1
  7  6  2  0
  8  9  1  0
  9 10  2  0
 11  9  1  0
 12 11  1  6
 12 13  1  0
 13  6  1  0
 14 15  2  0
 14 12  1  0
 17 16  1  0
 18 17  1  0
 18 19  1  0
 20 19  1  1
 20 22  1  0
 20 21  1  0
 21 14  1  0
 22 24  1  0
 23 22  2  0
M  END
$$$$
