PNM.pdb
     RDKit          3D

 24 24  0  0  1  0  0  0  0  0999 V2000
    7.0543  -14.3678   19.8834 N   0  0  0  0  0  0  0  0  0  0  0  0
    7.4148  -13.1101   20.4371 C   0  0  0  0  0  0  0  0  0  0  0  0
    8.6792  -12.6614   19.7169 C   0  0  0  0  0  0  0  0  0  0  0  0
    8.9770  -13.7455   18.7005 C   0  0  0  0  0  0  0  0  0  0  0  0
    8.1755  -14.9274   19.2303 C   0  0  1  0  0  0  0  0  0  0  0  0
    8.9679  -15.7908   20.0935 C   0  0  0  0  0  0  0  0  0  0  0  0
    9.5205  -16.8605   19.7052 O   0  0  0  0  0  0  0  0  0  0  0  0
   13.4905  -16.5802   23.2296 N   0  0  0  0  0  0  0  0  0  0  0  0
   12.2969  -17.0864   22.6206 C   0  0  0  0  0  0  0  0  0  0  0  0
   12.0719  -18.3026   22.7662 O   0  0  0  0  0  0  0  0  0  0  0  0
   11.4153  -16.1841   21.8744 C   0  0  0  0  0  0  0  0  0  0  0  0
    9.9894  -16.2730   22.3327 C   0  0  2  0  0  0  0  0  0  0  0  0
    9.1644  -15.4537   21.4696 N   0  0  0  0  0  0  0  0  0  0  0  0
    9.9256  -15.8472   23.7452 C   0  0  0  0  0  0  0  0  0  0  0  0
   10.6988  -14.9383   24.1331 O   0  0  0  0  0  0  0  0  0  0  0  0
    6.2227  -11.0377   25.9159 C   0  0  0  0  0  0  0  0  0  0  0  0
    6.1761  -12.7783   26.3399 S   0  0  0  0  0  0  0  0  0  0  0  0
    7.6108  -13.7241   25.8863 C   0  0  0  0  0  0  0  0  0  0  0  0
    7.6773  -15.1404   26.2453 C   0  0  0  0  0  0  0  0  0  0  0  0
    8.8518  -15.9825   26.0345 C   0  0  2  0  0  0  0  0  0  0  0  0
    9.0211  -16.4360   24.6568 N   0  0  0  0  0  0  0  0  0  0  0  0
    9.0586  -17.1408   26.9122 C   0  0  0  0  0  0  0  0  0  0  0  0
    9.0299  -18.3429   26.4786 O   0  0  0  0  0  0  0  0  0  0  0  0
    9.2992  -17.0155   28.2964 O   0  0  0  0  0  0  0  0  0  0  0  0
  1  2  1  0
  3  2  1  0
  4  3  1  0
  5  4  1  0
  5  1  1  0
  5  6  1  1
  7  6  2  0
  8  9  1  0
  9 10  2  0
 11  9  1  0
 12 11  1  6
 12 13  1  0
 13  6  1  0
 14 15  2  0
 14 12  1  0
 17 16  1  0
 18 17  1  0
 18 19  1  0
 20 19  1  6
 20 22  1  0
 20 21  1  0
 21 14  1  0
 22 24  1  0
 23 22  2  0
M  END
$$$$
