PNM.pdb
     RDKit          3D

 24 24  0  0  1  0  0  0  0  0999 V2000
    9.3617  -14.3828   17.8333 N   0  0  0  0  0  0  0  0  0  0  0  0
    8.1978  -14.6378   17.0595 C   0  0  0  0  0  0  0  0  0  0  0  0
    7.1062  -13.7221   17.5966 C   0  0  0  0  0  0  0  0  0  0  0  0
    7.7566  -12.9167   18.7035 C   0  0  0  0  0  0  0  0  0  0  0  0
    8.9890  -13.7466   19.0387 C   0  0  1  0  0  0  0  0  0  0  0  0
    8.7468  -14.6817   20.1275 C   0  0  0  0  0  0  0  0  0  0  0  0
    7.7571  -14.6091   20.9121 O   0  0  0  0  0  0  0  0  0  0  0  0
    9.6372  -19.9918   22.2459 N   0  0  0  0  0  0  0  0  0  0  0  0
   10.3180  -18.7523   22.4738 C   0  0  0  0  0  0  0  0  0  0  0  0
   10.7639  -18.5664   23.6217 O   0  0  0  0  0  0  0  0  0  0  0  0
   10.4592  -17.7824   21.3840 C   0  0  0  0  0  0  0  0  0  0  0  0
    9.4724  -16.6574   21.4913 C   0  0  2  0  0  0  0  0  0  0  0  0
    9.6508  -15.7643   20.3656 N   0  0  0  0  0  0  0  0  0  0  0  0
    9.6759  -15.9798   22.7875 C   0  0  0  0  0  0  0  0  0  0  0  0
   10.7316  -15.3246   22.9625 O   0  0  0  0  0  0  0  0  0  0  0  0
    6.1540  -11.2419   27.9073 C   0  0  0  0  0  0  0  0  0  0  0  0
    6.1701  -12.3574   26.5048 S   0  0  0  0  0  0  0  0  0  0  0  0
    7.5772  -13.4372   26.3907 C   0  0  0  0  0  0  0  0  0  0  0  0
    7.7014  -14.3318   25.2403 C   0  0  0  0  0  0  0  0  0  0  0  0
    8.7974  -15.2795   25.0568 C   0  0  2  0  0  0  0  0  0  0  0  0
    8.7160  -16.0537   23.8214 N   0  0  0  0  0  0  0  0  0  0  0  0
    9.1164  -16.2115   26.1451 C   0  0  0  0  0  0  0  0  0  0  0  0
    8.9541  -17.4746   26.0353 O   0  0  0  0  0  0  0  0  0  0  0  0
    9.6200  -15.7848   27.3917 O   0  0  0  0  0  0  0  0  0  0  0  0
  1  2  1  0
  3  2  1  0
  4  3  1  0
  5  4  1  0
  5  1  1  0
  5  6  1  1
  7  6  2  0
  8  9  1  0
  9 10  2  0
 11  9  1  0
 12 11  1  6
 12 13  1  0
 13  6  1  0
 14 15  2  0
 14 12  1  0
 17 16  1  0
 18 17  1  0
 18 19  1  0
 20 19  1  1
 20 22  1  0
 20 21  1  0
 21 14  1  0
 22 24  1  0
 23 22  2  0
M  END
$$$$
