PNM.pdb
     RDKit          3D

 24 24  0  0  1  0  0  0  0  0999 V2000
    9.4790  -14.4157   18.4014 N   0  0  0  0  0  0  0  0  0  0  0  0
    8.4265  -14.7645   17.5130 C   0  0  0  0  0  0  0  0  0  0  0  0
    7.3098  -13.7545   17.7400 C   0  0  0  0  0  0  0  0  0  0  0  0
    7.8306  -12.7999   18.7958 C   0  0  0  0  0  0  0  0  0  0  0  0
    8.9668  -13.5923   19.4293 C   0  0  1  0  0  0  0  0  0  0  0  0
    8.5334  -14.3415   20.5995 C   0  0  0  0  0  0  0  0  0  0  0  0
    7.7262  -13.8934   21.4643 O   0  0  0  0  0  0  0  0  0  0  0  0
   11.2758  -18.0291   20.6991 N   0  0  0  0  0  0  0  0  0  0  0  0
   10.4908  -18.0019   21.8969 C   0  0  0  0  0  0  0  0  0  0  0  0
   11.1123  -18.1072   22.9709 O   0  0  0  0  0  0  0  0  0  0  0  0
    9.0346  -17.8561   21.8157 C   0  0  0  0  0  0  0  0  0  0  0  0
    8.5945  -16.4317   21.9842 C   0  0  2  0  0  0  0  0  0  0  0  0
    9.0190  -15.6670   20.8302 N   0  0  0  0  0  0  0  0  0  0  0  0
    9.1625  -15.9135   23.2449 C   0  0  0  0  0  0  0  0  0  0  0  0
   10.2630  -15.3121   23.2044 O   0  0  0  0  0  0  0  0  0  0  0  0
    6.0600  -11.3610   25.8674 C   0  0  0  0  0  0  0  0  0  0  0  0
    6.7426  -12.0822   27.3592 S   0  0  0  0  0  0  0  0  0  0  0  0
    7.9782  -13.3365   27.1173 C   0  0  0  0  0  0  0  0  0  0  0  0
    7.8601  -14.2476   25.9792 C   0  0  0  0  0  0  0  0  0  0  0  0
    8.8172  -15.3092   25.6796 C   0  0  2  0  0  0  0  0  0  0  0  0
    8.4982  -16.0793   24.4806 N   0  0  0  0  0  0  0  0  0  0  0  0
    9.1711  -16.2622   26.7386 C   0  0  0  0  0  0  0  0  0  0  0  0
    8.9934  -17.5219   26.6144 O   0  0  0  0  0  0  0  0  0  0  0  0
    9.7280  -15.8608   27.9709 O   0  0  0  0  0  0  0  0  0  0  0  0
  1  2  1  0
  3  2  1  0
  4  3  1  0
  5  4  1  0
  5  1  1  0
  5  6  1  1
  7  6  2  0
  8  9  1  0
  9 10  2  0
 11  9  1  0
 12 11  1  6
 12 13  1  0
 13  6  1  0
 14 15  2  0
 14 12  1  0
 17 16  1  0
 18 17  1  0
 18 19  1  0
 20 19  1  1
 20 22  1  0
 20 21  1  0
 21 14  1  0
 22 24  1  0
 23 22  2  0
M  END
$$$$
