PNM.pdb
     RDKit          3D

 24 24  0  0  1  0  0  0  0  0999 V2000
    9.3305  -14.7612   19.1808 N   0  0  0  0  0  0  0  0  0  0  0  0
    8.5940  -14.8373   17.9683 C   0  0  0  0  0  0  0  0  0  0  0  0
    7.6843  -13.6168   17.9319 C   0  0  0  0  0  0  0  0  0  0  0  0
    7.9919  -12.8400   19.1964 C   0  0  0  0  0  0  0  0  0  0  0  0
    8.6708  -13.8852   20.0720 C   0  0  1  0  0  0  0  0  0  0  0  0
    7.7311  -14.5651   20.9512 C   0  0  0  0  0  0  0  0  0  0  0  0
    6.7574  -13.9923   21.5205 O   0  0  0  0  0  0  0  0  0  0  0  0
    4.8726  -18.7607   22.7938 N   0  0  0  0  0  0  0  0  0  0  0  0
    6.2958  -18.8740   22.9091 C   0  0  0  0  0  0  0  0  0  0  0  0
    6.7222  -19.6317   23.8008 O   0  0  0  0  0  0  0  0  0  0  0  0
    7.1670  -18.1193   22.0037 C   0  0  0  0  0  0  0  0  0  0  0  0
    7.0132  -16.6362   22.1699 C   0  0  2  0  0  0  0  0  0  0  0  0
    7.8727  -15.9631   21.2187 N   0  0  0  0  0  0  0  0  0  0  0  0
    7.3357  -16.2870   23.5680 C   0  0  0  0  0  0  0  0  0  0  0  0
    6.5621  -16.6745   24.4767 O   0  0  0  0  0  0  0  0  0  0  0  0
    6.7095  -10.3802   26.6425 C   0  0  0  0  0  0  0  0  0  0  0  0
    6.3680  -12.0565   27.1764 S   0  0  0  0  0  0  0  0  0  0  0  0
    7.6517  -13.2452   26.8637 C   0  0  0  0  0  0  0  0  0  0  0  0
    7.7047  -13.9167   25.5654 C   0  0  0  0  0  0  0  0  0  0  0  0
    8.7018  -14.9210   25.2051 C   0  0  2  0  0  0  0  0  0  0  0  0
    8.4851  -15.5348   23.8979 N   0  0  0  0  0  0  0  0  0  0  0  0
    8.9978  -15.9978   26.1579 C   0  0  0  0  0  0  0  0  0  0  0  0
    8.4414  -17.1465   26.0885 O   0  0  0  0  0  0  0  0  0  0  0  0
    9.9120  -15.8453   27.2213 O   0  0  0  0  0  0  0  0  0  0  0  0
  1  2  1  0
  3  2  1  0
  4  3  1  0
  5  4  1  0
  5  1  1  0
  5  6  1  6
  7  6  2  0
  8  9  1  0
  9 10  2  0
 11  9  1  0
 12 11  1  1
 12 13  1  0
 13  6  1  0
 14 15  2  0
 14 12  1  0
 17 16  1  0
 18 17  1  0
 18 19  1  0
 20 19  1  1
 20 22  1  0
 20 21  1  0
 21 14  1  0
 22 24  1  0
 23 22  2  0
M  END
$$$$
