PNM.pdb
     RDKit          3D

 24 24  0  0  1  0  0  0  0  0999 V2000
    8.8860  -14.5679   18.3999 N   0  0  0  0  0  0  0  0  0  0  0  0
    7.6172  -14.2117   17.8691 C   0  0  0  0  0  0  0  0  0  0  0  0
    7.1345  -13.0049   18.6623 C   0  0  0  0  0  0  0  0  0  0  0  0
    8.2413  -12.6963   19.6507 C   0  0  0  0  0  0  0  0  0  0  0  0
    9.0288  -13.9996   19.6857 C   0  0  1  0  0  0  0  0  0  0  0  0
    8.5875  -14.8841   20.7541 C   0  0  0  0  0  0  0  0  0  0  0  0
    7.4459  -14.8205   21.2956 O   0  0  0  0  0  0  0  0  0  0  0  0
   10.4216  -18.9635   20.1231 N   0  0  0  0  0  0  0  0  0  0  0  0
    9.4787  -18.7947   21.1881 C   0  0  0  0  0  0  0  0  0  0  0  0
    8.3747  -19.3533   21.0462 O   0  0  0  0  0  0  0  0  0  0  0  0
    9.8370  -17.9976   22.3648 C   0  0  0  0  0  0  0  0  0  0  0  0
    9.0987  -16.6924   22.4149 C   0  0  2  0  0  0  0  0  0  0  0  0
    9.4577  -15.9024   21.2558 N   0  0  0  0  0  0  0  0  0  0  0  0
    9.4319  -16.0159   23.6845 C   0  0  0  0  0  0  0  0  0  0  0  0
   10.5722  -15.5082   23.8122 O   0  0  0  0  0  0  0  0  0  0  0  0
    6.7380  -10.7782   27.2244 C   0  0  0  0  0  0  0  0  0  0  0  0
    6.0762  -12.0965   26.2067 S   0  0  0  0  0  0  0  0  0  0  0  0
    7.2663  -13.2484   25.5620 C   0  0  0  0  0  0  0  0  0  0  0  0
    7.7859  -14.3029   26.4323 C   0  0  0  0  0  0  0  0  0  0  0  0
    8.7896  -15.2809   26.0211 C   0  0  2  0  0  0  0  0  0  0  0  0
    8.5024  -15.9300   24.7449 N   0  0  0  0  0  0  0  0  0  0  0  0
    9.1899  -16.3260   26.9710 C   0  0  0  0  0  0  0  0  0  0  0  0
    8.9273  -17.5624   26.7804 O   0  0  0  0  0  0  0  0  0  0  0  0
    9.8881  -16.0454   28.1641 O   0  0  0  0  0  0  0  0  0  0  0  0
  1  2  1  0
  3  2  1  0
  4  3  1  0
  5  4  1  0
  5  1  1  0
  5  6  1  1
  7  6  2  0
  8  9  1  0
  9 10  2  0
 11  9  1  0
 12 11  1  6
 12 13  1  0
 13  6  1  0
 14 15  2  0
 14 12  1  0
 17 16  1  0
 18 17  1  0
 18 19  1  0
 20 19  1  1
 20 22  1  0
 20 21  1  0
 21 14  1  0
 22 24  1  0
 23 22  2  0
M  END
$$$$
