PNM.pdb
     RDKit          3D

 24 24  0  0  1  0  0  0  0  0999 V2000
    9.4684  -13.1761   19.4447 N   0  0  0  0  0  0  0  0  0  0  0  0
    9.2251  -13.5630   18.0995 C   0  0  0  0  0  0  0  0  0  0  0  0
    7.7135  -13.5845   17.9172 C   0  0  0  0  0  0  0  0  0  0  0  0
    7.1351  -13.1501   19.2491 C   0  0  0  0  0  0  0  0  0  0  0  0
    8.2965  -13.3810   20.2072 C   0  0  1  0  0  0  0  0  0  0  0  0
    8.2443  -14.6937   20.8337 C   0  0  0  0  0  0  0  0  0  0  0  0
    7.1726  -15.2592   21.1973 O   0  0  0  0  0  0  0  0  0  0  0  0
    9.8687  -19.8800   21.8444 N   0  0  0  0  0  0  0  0  0  0  0  0
   10.6766  -18.7516   22.1989 C   0  0  0  0  0  0  0  0  0  0  0  0
   11.4308  -18.8946   23.1797 O   0  0  0  0  0  0  0  0  0  0  0  0
   10.5880  -17.5130   21.4203 C   0  0  0  0  0  0  0  0  0  0  0  0
    9.4385  -16.6504   21.8511 C   0  0  2  0  0  0  0  0  0  0  0  0
    9.4475  -15.4291   21.0732 N   0  0  0  0  0  0  0  0  0  0  0  0
    9.5621  -16.3974   23.3007 C   0  0  0  0  0  0  0  0  0  0  0  0
    9.5920  -17.3800   24.0805 O   0  0  0  0  0  0  0  0  0  0  0  0
    5.8192  -10.9855   27.0199 C   0  0  0  0  0  0  0  0  0  0  0  0
    7.2833  -12.0189   27.0219 S   0  0  0  0  0  0  0  0  0  0  0  0
    7.0976  -13.6258   26.2856 C   0  0  0  0  0  0  0  0  0  0  0  0
    7.8825  -13.9643   25.0987 C   0  0  0  0  0  0  0  0  0  0  0  0
    9.1415  -14.7034   25.1353 C   0  0  2  0  0  0  0  0  0  0  0  0
    9.6469  -15.0863   23.8199 N   0  0  0  0  0  0  0  0  0  0  0  0
    9.2479  -15.8767   26.0110 C   0  0  0  0  0  0  0  0  0  0  0  0
    8.7661  -17.0166   25.6911 O   0  0  0  0  0  0  0  0  0  0  0  0
    9.8838  -15.8341   27.2694 O   0  0  0  0  0  0  0  0  0  0  0  0
  1  2  1  0
  3  2  1  0
  4  3  1  0
  5  4  1  0
  5  1  1  0
  5  6  1  6
  7  6  2  0
  8  9  1  0
  9 10  2  0
 11  9  1  0
 12 11  1  6
 12 13  1  0
 13  6  1  0
 14 15  2  0
 14 12  1  0
 17 16  1  0
 18 17  1  0
 18 19  1  0
 20 19  1  6
 20 22  1  0
 20 21  1  0
 21 14  1  0
 22 24  1  0
 23 22  2  0
M  END
$$$$
