PNM.pdb
     RDKit          3D

 24 24  0  0  1  0  0  0  0  0999 V2000
    8.8492  -14.6092   18.4275 N   0  0  0  0  0  0  0  0  0  0  0  0
    7.7360  -13.9710   17.8177 C   0  0  0  0  0  0  0  0  0  0  0  0
    7.4649  -12.7048   18.6189 C   0  0  0  0  0  0  0  0  0  0  0  0
    8.5281  -12.6690   19.6985 C   0  0  0  0  0  0  0  0  0  0  0  0
    9.0072  -14.1142   19.7415 C   0  0  1  0  0  0  0  0  0  0  0  0
    8.2983  -14.9026   20.7387 C   0  0  0  0  0  0  0  0  0  0  0  0
    7.1938  -15.4812   20.5250 O   0  0  0  0  0  0  0  0  0  0  0  0
   10.3434  -19.1427   22.3385 N   0  0  0  0  0  0  0  0  0  0  0  0
   11.1250  -17.9943   21.9889 C   0  0  0  0  0  0  0  0  0  0  0  0
   12.3612  -18.1151   22.0799 O   0  0  0  0  0  0  0  0  0  0  0  0
   10.4624  -16.7621   21.5519 C   0  0  0  0  0  0  0  0  0  0  0  0
    9.3743  -16.3360   22.4929 C   0  0  2  0  0  0  0  0  0  0  0  0
    8.8408  -15.0640   22.0523 N   0  0  0  0  0  0  0  0  0  0  0  0
    9.9358  -16.2706   23.8571 C   0  0  0  0  0  0  0  0  0  0  0  0
   10.5164  -17.2840   24.3158 O   0  0  0  0  0  0  0  0  0  0  0  0
    5.8487  -11.6710   27.2133 C   0  0  0  0  0  0  0  0  0  0  0  0
    7.3052  -11.7395   26.1713 S   0  0  0  0  0  0  0  0  0  0  0  0
    7.4628  -13.1895   25.1557 C   0  0  0  0  0  0  0  0  0  0  0  0
    7.7564  -14.4763   25.7859 C   0  0  0  0  0  0  0  0  0  0  0  0
    9.0983  -15.0402   25.9057 C   0  0  2  0  0  0  0  0  0  0  0  0
    9.8337  -15.1029   24.6457 N   0  0  0  0  0  0  0  0  0  0  0  0
    9.2650  -16.3322   26.5823 C   0  0  0  0  0  0  0  0  0  0  0  0
    8.7751  -17.4174   26.1175 O   0  0  0  0  0  0  0  0  0  0  0  0
    9.9722  -16.4725   27.7948 O   0  0  0  0  0  0  0  0  0  0  0  0
  1  2  1  0
  3  2  1  0
  4  3  1  0
  5  4  1  0
  5  1  1  0
  5  6  1  1
  7  6  2  0
  8  9  1  0
  9 10  2  0
 11  9  1  0
 12 11  1  6
 12 13  1  0
 13  6  1  0
 14 15  2  0
 14 12  1  0
 17 16  1  0
 18 17  1  0
 18 19  1  0
 20 19  1  6
 20 22  1  0
 20 21  1  0
 21 14  1  0
 22 24  1  0
 23 22  2  0
M  END
$$$$
