PNM.pdb
     RDKit          3D

 24 24  0  0  1  0  0  0  0  0999 V2000
    8.9022  -14.5325   17.9097 N   0  0  0  0  0  0  0  0  0  0  0  0
    7.5705  -14.2207   17.5252 C   0  0  0  0  0  0  0  0  0  0  0  0
    7.1254  -13.0543   18.3970 C   0  0  0  0  0  0  0  0  0  0  0  0
    8.3172  -12.7195   19.2713 C   0  0  0  0  0  0  0  0  0  0  0  0
    9.1573  -13.9874   19.1881 C   0  0  1  0  0  0  0  0  0  0  0  0
    8.8691  -14.9141   20.2728 C   0  0  0  0  0  0  0  0  0  0  0  0
    7.7961  -14.9033   20.9429 O   0  0  0  0  0  0  0  0  0  0  0  0
   11.6127  -18.9958   19.8196 N   0  0  0  0  0  0  0  0  0  0  0  0
   10.5135  -18.7558   20.7061 C   0  0  0  0  0  0  0  0  0  0  0  0
    9.4593  -19.3729   20.4634 O   0  0  0  0  0  0  0  0  0  0  0  0
   10.6659  -17.8243   21.8274 C   0  0  0  0  0  0  0  0  0  0  0  0
    9.6270  -16.7418   21.8139 C   0  0  2  0  0  0  0  0  0  0  0  0
    9.8219  -15.9154   20.6409 N   0  0  0  0  0  0  0  0  0  0  0  0
    9.7366  -15.9737   23.0703 C   0  0  0  0  0  0  0  0  0  0  0  0
   10.7013  -15.1833   23.2078 O   0  0  0  0  0  0  0  0  0  0  0  0
    6.4337  -10.9229   27.6525 C   0  0  0  0  0  0  0  0  0  0  0  0
    6.1647  -12.4814   26.8098 S   0  0  0  0  0  0  0  0  0  0  0  0
    7.5732  -13.5607   26.7101 C   0  0  0  0  0  0  0  0  0  0  0  0
    7.7256  -14.4328   25.5458 C   0  0  0  0  0  0  0  0  0  0  0  0
    8.8414  -15.3560   25.3570 C   0  0  2  0  0  0  0  0  0  0  0  0
    8.7872  -16.1098   24.1075 N   0  0  0  0  0  0  0  0  0  0  0  0
    9.1676  -16.3008   26.4321 C   0  0  0  0  0  0  0  0  0  0  0  0
    9.0129  -17.5633   26.3053 O   0  0  0  0  0  0  0  0  0  0  0  0
    9.6704  -15.8880   27.6837 O   0  0  0  0  0  0  0  0  0  0  0  0
  1  2  1  0
  3  2  1  0
  4  3  1  0
  5  4  1  0
  5  1  1  0
  5  6  1  1
  7  6  2  0
  8  9  1  0
  9 10  2  0
 11  9  1  0
 12 11  1  1
 12 13  1  0
 13  6  1  0
 14 15  2  0
 14 12  1  0
 17 16  1  0
 18 17  1  0
 18 19  1  0
 20 19  1  1
 20 22  1  0
 20 21  1  0
 21 14  1  0
 22 24  1  0
 23 22  2  0
M  END
$$$$
