PNM.pdb
     RDKit          3D

 24 24  0  0  1  0  0  0  0  0999 V2000
    9.4428  -14.0055   18.7084 N   0  0  0  0  0  0  0  0  0  0  0  0
    8.4920  -14.3969   17.7280 C   0  0  0  0  0  0  0  0  0  0  0  0
    7.2041  -13.6489   18.0446 C   0  0  0  0  0  0  0  0  0  0  0  0
    7.5175  -12.7889   19.2526 C   0  0  0  0  0  0  0  0  0  0  0  0
    8.7658  -13.4530   19.8189 C   0  0  1  0  0  0  0  0  0  0  0  0
    8.4521  -14.4369   20.8446 C   0  0  0  0  0  0  0  0  0  0  0  0
    7.4983  -14.3181   21.6671 O   0  0  0  0  0  0  0  0  0  0  0  0
   10.4521  -19.8547   23.0374 N   0  0  0  0  0  0  0  0  0  0  0  0
    9.4273  -18.9189   22.6829 C   0  0  0  0  0  0  0  0  0  0  0  0
    8.3252  -19.0627   23.2448 O   0  0  0  0  0  0  0  0  0  0  0  0
    9.7052  -17.8630   21.7051 C   0  0  0  0  0  0  0  0  0  0  0  0
    8.9771  -16.5894   22.0196 C   0  0  2  0  0  0  0  0  0  0  0  0
    9.2374  -15.6256   20.9708 N   0  0  0  0  0  0  0  0  0  0  0  0
    9.4194  -16.1140   23.3459 C   0  0  0  0  0  0  0  0  0  0  0  0
   10.6116  -15.7483   23.4849 O   0  0  0  0  0  0  0  0  0  0  0  0
    6.3344  -10.6613   25.9440 C   0  0  0  0  0  0  0  0  0  0  0  0
    6.5404  -12.2985   26.6430 S   0  0  0  0  0  0  0  0  0  0  0  0
    7.7610  -13.3263   25.8603 C   0  0  0  0  0  0  0  0  0  0  0  0
    8.0176  -14.6644   26.3924 C   0  0  0  0  0  0  0  0  0  0  0  0
    8.9338  -15.6243   25.7824 C   0  0  2  0  0  0  0  0  0  0  0  0
    8.5364  -16.0630   24.4474 N   0  0  0  0  0  0  0  0  0  0  0  0
    9.3197  -16.8174   26.5456 C   0  0  0  0  0  0  0  0  0  0  0  0
    8.7569  -17.9522   26.3744 O   0  0  0  0  0  0  0  0  0  0  0  0
   10.3342  -16.8007   27.5255 O   0  0  0  0  0  0  0  0  0  0  0  0
  1  2  1  0
  3  2  1  0
  4  3  1  0
  5  4  1  0
  5  1  1  0
  5  6  1  1
  7  6  2  0
  8  9  1  0
  9 10  2  0
 11  9  1  0
 12 11  1  6
 12 13  1  0
 13  6  1  0
 14 15  2  0
 14 12  1  0
 17 16  1  0
 18 17  1  0
 18 19  1  0
 20 19  1  1
 20 22  1  0
 20 21  1  0
 21 14  1  0
 22 24  1  0
 23 22  2  0
M  END
$$$$
