PNM.pdb
     RDKit          3D

 24 24  0  0  1  0  0  0  0  0999 V2000
    9.2012  -14.8784   19.1250 N   0  0  0  0  0  0  0  0  0  0  0  0
    8.3013  -14.8245   18.0270 C   0  0  0  0  0  0  0  0  0  0  0  0
    7.5047  -13.5356   18.1772 C   0  0  0  0  0  0  0  0  0  0  0  0
    8.0494  -12.8611   19.4204 C   0  0  0  0  0  0  0  0  0  0  0  0
    8.7487  -14.0065   20.1409 C   0  0  1  0  0  0  0  0  0  0  0  0
    7.8831  -14.6601   21.1116 C   0  0  0  0  0  0  0  0  0  0  0  0
    6.8678  -14.1131   21.6316 O   0  0  0  0  0  0  0  0  0  0  0  0
    5.5666  -19.1603   23.2775 N   0  0  0  0  0  0  0  0  0  0  0  0
    6.9244  -18.8364   23.5989 C   0  0  0  0  0  0  0  0  0  0  0  0
    7.3391  -19.2199   24.7088 O   0  0  0  0  0  0  0  0  0  0  0  0
    7.7464  -18.0908   22.6415 C   0  0  0  0  0  0  0  0  0  0  0  0
    7.3209  -16.6572   22.5206 C   0  0  2  0  0  0  0  0  0  0  0  0
    8.1526  -15.9997   21.5344 N   0  0  0  0  0  0  0  0  0  0  0  0
    7.4191  -16.0271   23.8525 C   0  0  0  0  0  0  0  0  0  0  0  0
    6.3853  -15.9563   24.5601 O   0  0  0  0  0  0  0  0  0  0  0  0
    6.1437  -10.5733   26.5114 C   0  0  0  0  0  0  0  0  0  0  0  0
    6.0831  -12.1303   27.3966 S   0  0  0  0  0  0  0  0  0  0  0  0
    7.4844  -13.2011   27.1761 C   0  0  0  0  0  0  0  0  0  0  0  0
    7.6703  -13.8820   25.8950 C   0  0  0  0  0  0  0  0  0  0  0  0
    8.7683  -14.8020   25.6105 C   0  0  2  0  0  0  0  0  0  0  0  0
    8.6399  -15.5093   24.3395 N   0  0  0  0  0  0  0  0  0  0  0  0
    9.1486  -15.7868   26.6306 C   0  0  0  0  0  0  0  0  0  0  0  0
    9.1876  -17.0417   26.3907 O   0  0  0  0  0  0  0  0  0  0  0  0
    9.4941  -15.4243   27.9493 O   0  0  0  0  0  0  0  0  0  0  0  0
  1  2  1  0
  3  2  1  0
  4  3  1  0
  5  4  1  0
  5  1  1  0
  5  6  1  1
  7  6  2  0
  8  9  1  0
  9 10  2  0
 11  9  1  0
 12 11  1  1
 12 13  1  0
 13  6  1  0
 14 15  2  0
 14 12  1  0
 17 16  1  0
 18 17  1  0
 18 19  1  0
 20 19  1  1
 20 22  1  0
 20 21  1  0
 21 14  1  0
 22 24  1  0
 23 22  2  0
M  END
$$$$
