PNM.pdb
     RDKit          3D

 24 24  0  0  1  0  0  0  0  0999 V2000
    9.3845  -14.5018   17.9692 N   0  0  0  0  0  0  0  0  0  0  0  0
    8.2007  -14.6190   17.1925 C   0  0  0  0  0  0  0  0  0  0  0  0
    7.2101  -13.6056   17.7494 C   0  0  0  0  0  0  0  0  0  0  0  0
    7.9404  -12.8943   18.8710 C   0  0  0  0  0  0  0  0  0  0  0  0
    9.0796  -13.8544   19.1876 C   0  0  1  0  0  0  0  0  0  0  0  0
    8.7410  -14.7807   20.2581 C   0  0  0  0  0  0  0  0  0  0  0  0
    7.6526  -14.7465   20.9020 O   0  0  0  0  0  0  0  0  0  0  0  0
   11.3637  -19.0266   19.8740 N   0  0  0  0  0  0  0  0  0  0  0  0
   10.2676  -18.7342   20.7485 C   0  0  0  0  0  0  0  0  0  0  0  0
    9.2076  -19.3528   20.5365 O   0  0  0  0  0  0  0  0  0  0  0  0
   10.4296  -17.7512   21.8235 C   0  0  0  0  0  0  0  0  0  0  0  0
    9.3872  -16.6733   21.7714 C   0  0  2  0  0  0  0  0  0  0  0  0
    9.6584  -15.8088   20.6419 N   0  0  0  0  0  0  0  0  0  0  0  0
    9.4036  -15.9455   23.0562 C   0  0  0  0  0  0  0  0  0  0  0  0
   10.3669  -15.1791   23.2991 O   0  0  0  0  0  0  0  0  0  0  0  0
    6.8039  -11.1792   28.0799 C   0  0  0  0  0  0  0  0  0  0  0  0
    7.2809  -12.1127   26.6265 S   0  0  0  0  0  0  0  0  0  0  0  0
    6.6391  -13.7669   26.5238 C   0  0  0  0  0  0  0  0  0  0  0  0
    6.9870  -14.5995   25.3728 C   0  0  0  0  0  0  0  0  0  0  0  0
    8.2644  -15.2911   25.2210 C   0  0  2  0  0  0  0  0  0  0  0  0
    8.3676  -16.0934   24.0052 N   0  0  0  0  0  0  0  0  0  0  0  0
    8.7646  -16.1058   26.3349 C   0  0  0  0  0  0  0  0  0  0  0  0
    8.8783  -15.6470   27.5225 O   0  0  0  0  0  0  0  0  0  0  0  0
    9.1605  -17.4506   26.1785 O   0  0  0  0  0  0  0  0  0  0  0  0
  1  2  1  0
  3  2  1  0
  4  3  1  0
  5  4  1  0
  5  1  1  0
  5  6  1  1
  7  6  2  0
  8  9  1  0
  9 10  2  0
 11  9  1  0
 12 11  1  1
 12 13  1  0
 13  6  1  0
 14 15  2  0
 14 12  1  0
 17 16  1  0
 18 17  1  0
 18 19  1  0
 20 19  1  1
 20 22  1  0
 20 21  1  0
 21 14  1  0
 22 24  1  0
 23 22  2  0
M  END
$$$$
