NWL.pdb
     RDKit          3D

 31 32  0  0  1  0  0  0  0  0999 V2000
   11.9846  -16.5286   16.8577 N   0  0  0  0  0  0  0  0  0  0  0  0
   12.4567  -16.8122   18.1818 C   0  0  0  0  0  0  0  0  0  0  0  0
   13.3667  -17.6506   18.3073 O   0  0  0  0  0  0  0  0  0  0  0  0
   11.8911  -16.1402   19.3581 C   0  0  0  0  0  0  0  0  0  0  0  0
   11.5217  -17.1411   20.4022 C   0  0  2  0  0  0  0  0  0  0  0  0
   10.5991  -18.1123   19.9024 N   0  0  0  0  0  0  0  0  0  0  0  0
   10.9660  -16.4499   21.6188 C   0  0  0  0  0  0  0  0  0  0  0  0
   11.5013  -15.4165   22.0831 O   0  0  0  0  0  0  0  0  0  0  0  0
    9.8226  -16.9727   22.2499 N   0  0  0  0  0  0  0  0  0  0  0  0
    9.2862  -16.3400   23.4721 C   0  0  1  0  0  0  0  0  0  0  0  0
    7.8070  -16.3722   23.4432 C   0  0  0  0  0  0  0  0  0  0  0  0
    7.1095  -15.6093   24.4737 C   0  0  0  0  0  0  0  0  0  0  0  0
    6.3913  -16.1605   25.5111 C   0  0  0  0  0  0  0  0  0  0  0  0
    5.8553  -15.1835   26.2587 N   0  0  0  0  0  0  0  0  0  0  0  0
    6.2099  -13.9849   25.7299 C   0  0  0  0  0  0  0  0  0  0  0  0
    5.9434  -12.6969   26.1124 C   0  0  0  0  0  0  0  0  0  0  0  0
    6.4637  -11.6647   25.3784 C   0  0  0  0  0  0  0  0  0  0  0  0
    7.2426  -11.8969   24.2728 C   0  0  0  0  0  0  0  0  0  0  0  0
    7.5022  -13.1847   23.8987 C   0  0  0  0  0  0  0  0  0  0  0  0
    6.9942  -14.2543   24.6141 C   0  0  0  0  0  0  0  0  0  0  0  0
    9.9590  -16.8940   24.6617 C   0  0  0  0  0  0  0  0  0  0  0  0
   10.4861  -18.0245   24.7167 O   0  0  0  0  0  0  0  0  0  0  0  0
   11.0342  -13.5364   29.2222 C   0  0  0  0  0  0  0  0  0  0  0  0
   10.8557  -14.2487   27.8756 C   0  0  2  0  0  0  0  0  0  0  0  0
    9.7113  -13.4937   27.1932 C   0  0  0  0  0  0  0  0  0  0  0  0
   10.4317  -15.6461   28.1738 C   0  0  0  0  0  0  0  0  0  0  0  0
   10.6835  -16.6414   27.0812 C   0  0  2  0  0  0  0  0  0  0  0  0
   10.0502  -16.1286   25.8859 N   0  0  0  0  0  0  0  0  0  0  0  0
   10.1002  -17.9766   27.3895 C   0  0  0  0  0  0  0  0  0  0  0  0
    8.9068  -18.4419   26.8854 O   0  0  0  0  0  0  0  0  0  0  0  0
   10.7244  -18.7474   28.1617 O   0  0  0  0  0  0  0  0  0  0  0  0
  1  2  1  0
  2  3  2  0
  4  5  1  0
  4  2  1  0
  5  6  1  6
  7  5  1  0
  7  8  2  0
  9  7  1  0
 10  9  1  0
 10 11  1  1
 12 13  2  0
 12 11  1  0
 14 13  1  0
 15 20  2  0
 15 14  1  0
 16 15  1  0
 17 18  1  0
 17 16  2  0
 18 19  2  0
 19 20  1  0
 20 12  1  0
 21 28  1  0
 21 10  1  0
 22 21  2  0
 24 23  1  1
 24 26  1  0
 25 24  1  0
 27 26  1  1
 27 28  1  0
 27 29  1  0
 29 31  2  0
 29 30  1  0
M  END
$$$$
