NWL.pdb
     RDKit          3D

 31 32  0  0  1  0  0  0  0  0999 V2000
   13.6012  -16.9450   17.6785 N   0  0  0  0  0  0  0  0  0  0  0  0
   13.1288  -17.5658   18.8818 C   0  0  0  0  0  0  0  0  0  0  0  0
   13.1773  -18.8065   18.9535 O   0  0  0  0  0  0  0  0  0  0  0  0
   12.6031  -16.7717   19.9992 C   0  0  0  0  0  0  0  0  0  0  0  0
   11.2113  -17.1971   20.3309 C   0  0  2  0  0  0  0  0  0  0  0  0
   10.3088  -16.9462   19.2507 N   0  0  0  0  0  0  0  0  0  0  0  0
   10.7414  -16.5196   21.5906 C   0  0  0  0  0  0  0  0  0  0  0  0
   11.2157  -15.4185   21.9545 O   0  0  0  0  0  0  0  0  0  0  0  0
    9.7499  -17.1331   22.3777 N   0  0  0  0  0  0  0  0  0  0  0  0
    9.2829  -16.4951   23.6254 C   0  0  1  0  0  0  0  0  0  0  0  0
    7.8110  -16.6110   23.7250 C   0  0  0  0  0  0  0  0  0  0  0  0
    7.1359  -15.6900   24.6341 C   0  0  0  0  0  0  0  0  0  0  0  0
    6.2394  -16.0627   25.6104 C   0  0  0  0  0  0  0  0  0  0  0  0
    5.7848  -14.9720   26.2464 N   0  0  0  0  0  0  0  0  0  0  0  0
    6.3704  -13.8745   25.7037 C   0  0  0  0  0  0  0  0  0  0  0  0
    6.2657  -12.5395   25.9924 C   0  0  0  0  0  0  0  0  0  0  0  0
    7.0099  -11.6437   25.2723 C   0  0  0  0  0  0  0  0  0  0  0  0
    7.8536  -12.0575   24.2724 C   0  0  0  0  0  0  0  0  0  0  0  0
    7.9507  -13.3907   23.9913 C   0  0  0  0  0  0  0  0  0  0  0  0
    7.2149  -14.3265   24.6960 C   0  0  0  0  0  0  0  0  0  0  0  0
   10.0852  -16.9748   24.7660 C   0  0  0  0  0  0  0  0  0  0  0  0
   10.7093  -18.0558   24.7898 O   0  0  0  0  0  0  0  0  0  0  0  0
   11.2024  -13.4448   27.1614 C   0  0  0  0  0  0  0  0  0  0  0  0
   10.1164  -14.3367   27.7758 C   0  0  2  0  0  0  0  0  0  0  0  0
    9.6417  -13.5646   29.0103 C   0  0  0  0  0  0  0  0  0  0  0  0
   10.7786  -15.6039   28.1966 C   0  0  0  0  0  0  0  0  0  0  0  0
   11.0011  -16.6066   27.1044 C   0  0  2  0  0  0  0  0  0  0  0  0
   10.1995  -16.1885   25.9751 N   0  0  0  0  0  0  0  0  0  0  0  0
   10.5776  -17.9776   27.5031 C   0  0  0  0  0  0  0  0  0  0  0  0
    9.4346  -18.6017   27.0571 O   0  0  0  0  0  0  0  0  0  0  0  0
   11.2992  -18.6270   28.3015 O   0  0  0  0  0  0  0  0  0  0  0  0
  1  2  1  0
  2  3  2  0
  4  5  1  0
  4  2  1  0
  5  6  1  6
  7  5  1  0
  7  8  2  0
  9  7  1  0
 10  9  1  0
 10 11  1  1
 12 13  2  0
 12 11  1  0
 14 13  1  0
 15 20  2  0
 15 14  1  0
 16 15  1  0
 17 18  1  0
 17 16  2  0
 18 19  2  0
 19 20  1  0
 20 12  1  0
 21 28  1  0
 21 10  1  0
 22 21  2  0
 24 23  1  1
 24 26  1  0
 25 24  1  0
 27 26  1  1
 27 28  1  0
 27 29  1  0
 29 31  2  0
 29 30  1  0
M  END
$$$$
