NWL.pdb
     RDKit          3D

 31 32  0  0  1  0  0  0  0  0999 V2000
   11.2298  -16.2718   17.3923 N   0  0  0  0  0  0  0  0  0  0  0  0
   11.8116  -16.7044   18.6296 C   0  0  0  0  0  0  0  0  0  0  0  0
   12.7061  -17.5671   18.5811 O   0  0  0  0  0  0  0  0  0  0  0  0
   11.3729  -16.1529   19.9176 C   0  0  0  0  0  0  0  0  0  0  0  0
   11.2773  -17.2346   20.9417 C   0  0  2  0  0  0  0  0  0  0  0  0
   10.3415  -18.2455   20.5590 N   0  0  0  0  0  0  0  0  0  0  0  0
   10.9216  -16.6557   22.2852 C   0  0  0  0  0  0  0  0  0  0  0  0
   11.5560  -15.6886   22.7670 O   0  0  0  0  0  0  0  0  0  0  0  0
    9.8560  -17.2100   23.0174 N   0  0  0  0  0  0  0  0  0  0  0  0
    9.4494  -16.6220   24.3100 C   0  0  1  0  0  0  0  0  0  0  0  0
    7.9857  -16.4052   24.3217 C   0  0  0  0  0  0  0  0  0  0  0  0
    7.5107  -15.0823   23.9283 C   0  0  0  0  0  0  0  0  0  0  0  0
    7.2961  -14.6764   22.6302 C   0  0  0  0  0  0  0  0  0  0  0  0
    6.8893  -13.3978   22.6180 N   0  0  0  0  0  0  0  0  0  0  0  0
    6.8298  -12.9465   23.8967 C   0  0  0  0  0  0  0  0  0  0  0  0
    6.4652  -11.7380   24.4285 C   0  0  0  0  0  0  0  0  0  0  0  0
    6.4861  -11.5770   25.7881 C   0  0  0  0  0  0  0  0  0  0  0  0
    6.8637  -12.5992   26.6220 C   0  0  0  0  0  0  0  0  0  0  0  0
    7.2261  -13.8005   26.0823 C   0  0  0  0  0  0  0  0  0  0  0  0
    7.2187  -14.0020   24.7137 C   0  0  0  0  0  0  0  0  0  0  0  0
   10.0348  -17.3958   25.4206 C   0  0  0  0  0  0  0  0  0  0  0  0
    9.7677  -18.5892   25.6721 O   0  0  0  0  0  0  0  0  0  0  0  0
   11.2468  -14.2499   28.6320 C   0  0  0  0  0  0  0  0  0  0  0  0
    9.9576  -14.8633   28.0715 C   0  0  2  0  0  0  0  0  0  0  0  0
    8.8352  -14.1674   28.8469 C   0  0  0  0  0  0  0  0  0  0  0  0
    9.9812  -16.3145   28.4109 C   0  0  0  0  0  0  0  0  0  0  0  0
   11.0494  -17.1167   27.7304 C   0  0  2  0  0  0  0  0  0  0  0  0
   10.9917  -16.7917   26.3219 N   0  0  0  0  0  0  0  0  0  0  0  0
   10.8389  -18.5828   27.8864 C   0  0  0  0  0  0  0  0  0  0  0  0
   11.2459  -19.3177   28.9769 O   0  0  0  0  0  0  0  0  0  0  0  0
   10.2516  -19.2119   26.9703 O   0  0  0  0  0  0  0  0  0  0  0  0
  1  2  1  0
  2  3  2  0
  4  5  1  0
  4  2  1  0
  5  6  1  6
  7  5  1  0
  7  8  2  0
  9  7  1  0
 10  9  1  0
 10 11  1  1
 12 13  2  0
 12 11  1  0
 14 13  1  0
 15 20  2  0
 15 14  1  0
 16 15  1  0
 17 18  1  0
 17 16  2  0
 18 19  2  0
 19 20  1  0
 20 12  1  0
 21 28  1  0
 21 10  1  0
 22 21  2  0
 24 23  1  1
 24 26  1  0
 25 24  1  0
 27 26  1  1
 27 28  1  0
 27 29  1  0
 29 31  2  0
 29 30  1  0
M  END
$$$$
