NWL.pdb
     RDKit          3D

 31 32  0  0  1  0  0  0  0  0999 V2000
   13.9724  -16.8967   18.7043 N   0  0  0  0  0  0  0  0  0  0  0  0
   12.5677  -17.0451   18.4568 C   0  0  0  0  0  0  0  0  0  0  0  0
   12.2166  -17.4987   17.3533 O   0  0  0  0  0  0  0  0  0  0  0  0
   11.5679  -16.6767   19.4668 C   0  0  0  0  0  0  0  0  0  0  0  0
   11.8408  -17.3847   20.7522 C   0  0  2  0  0  0  0  0  0  0  0  0
   11.3984  -18.7437   20.7130 N   0  0  0  0  0  0  0  0  0  0  0  0
   11.2077  -16.6477   21.9022 C   0  0  0  0  0  0  0  0  0  0  0  0
   11.5861  -15.4984   22.2276 O   0  0  0  0  0  0  0  0  0  0  0  0
   10.1700  -17.2593   22.6289 N   0  0  0  0  0  0  0  0  0  0  0  0
    9.4731  -16.5235   23.7035 C   0  0  1  0  0  0  0  0  0  0  0  0
    8.0165  -16.7678   23.6128 C   0  0  0  0  0  0  0  0  0  0  0  0
    7.3157  -16.1703   22.4804 C   0  0  0  0  0  0  0  0  0  0  0  0
    6.3314  -16.7927   21.7460 C   0  0  0  0  0  0  0  0  0  0  0  0
    5.9189  -15.9788   20.7621 N   0  0  0  0  0  0  0  0  0  0  0  0
    6.6188  -14.8181   20.8336 C   0  0  0  0  0  0  0  0  0  0  0  0
    6.5746  -13.6710   20.0863 C   0  0  0  0  0  0  0  0  0  0  0  0
    7.4061  -12.6332   20.4124 C   0  0  0  0  0  0  0  0  0  0  0  0
    8.2777  -12.7219   21.4686 C   0  0  0  0  0  0  0  0  0  0  0  0
    8.3150  -13.8701   22.2075 C   0  0  0  0  0  0  0  0  0  0  0  0
    7.4912  -14.9407   21.9090 C   0  0  0  0  0  0  0  0  0  0  0  0
   10.1305  -16.7824   24.9979 C   0  0  0  0  0  0  0  0  0  0  0  0
   10.9988  -17.6587   25.1901 O   0  0  0  0  0  0  0  0  0  0  0  0
   11.7199  -13.5107   27.9544 C   0  0  0  0  0  0  0  0  0  0  0  0
   10.2369  -13.8424   27.7465 C   0  0  2  0  0  0  0  0  0  0  0  0
    9.4898  -12.7540   28.5228 C   0  0  0  0  0  0  0  0  0  0  0  0
    9.9937  -15.1703   28.3782 C   0  0  0  0  0  0  0  0  0  0  0  0
   10.2462  -16.3571   27.4976 C   0  0  2  0  0  0  0  0  0  0  0  0
    9.7926  -16.0045   26.1700 N   0  0  0  0  0  0  0  0  0  0  0  0
    9.4973  -17.5629   27.9484 C   0  0  0  0  0  0  0  0  0  0  0  0
    8.4573  -18.1397   27.2551 O   0  0  0  0  0  0  0  0  0  0  0  0
    9.8208  -18.1069   29.0344 O   0  0  0  0  0  0  0  0  0  0  0  0
  1  2  1  0
  2  3  2  0
  4  5  1  0
  4  2  1  0
  5  6  1  6
  7  5  1  0
  7  8  2  0
  9  7  1  0
 10  9  1  0
 10 11  1  1
 12 13  2  0
 12 11  1  0
 14 13  1  0
 15 20  2  0
 15 14  1  0
 16 15  1  0
 17 18  1  0
 17 16  2  0
 18 19  2  0
 19 20  1  0
 20 12  1  0
 21 28  1  0
 21 10  1  0
 22 21  2  0
 24 23  1  1
 24 26  1  0
 25 24  1  0
 27 26  1  1
 27 28  1  0
 27 29  1  0
 29 31  2  0
 29 30  1  0
M  END
$$$$
