NWL.pdb
     RDKit          3D

 31 32  0  0  1  0  0  0  0  0999 V2000
   12.7993  -19.2966   19.2981 N   0  0  0  0  0  0  0  0  0  0  0  0
   11.9730  -18.2302   18.8117 C   0  0  0  0  0  0  0  0  0  0  0  0
   12.0508  -17.9385   17.6051 O   0  0  0  0  0  0  0  0  0  0  0  0
   11.0611  -17.4999   19.7007 C   0  0  0  0  0  0  0  0  0  0  0  0
   11.2488  -17.9399   21.1147 C   0  0  2  0  0  0  0  0  0  0  0  0
   10.4086  -19.0500   21.4402 N   0  0  0  0  0  0  0  0  0  0  0  0
   11.0092  -16.7915   22.0582 C   0  0  0  0  0  0  0  0  0  0  0  0
   11.7072  -15.7520   22.0105 O   0  0  0  0  0  0  0  0  0  0  0  0
    9.9817  -16.8843   23.0145 N   0  0  0  0  0  0  0  0  0  0  0  0
    9.6570  -15.7318   23.8795 C   0  0  1  0  0  0  0  0  0  0  0  0
    8.1888  -15.5670   23.9617 C   0  0  0  0  0  0  0  0  0  0  0  0
    7.4856  -15.2790   22.7154 C   0  0  0  0  0  0  0  0  0  0  0  0
    6.5529  -16.1045   22.1285 C   0  0  0  0  0  0  0  0  0  0  0  0
    6.1228  -15.5565   20.9816 N   0  0  0  0  0  0  0  0  0  0  0  0
    6.7596  -14.3721   20.7980 C   0  0  0  0  0  0  0  0  0  0  0  0
    6.6742  -13.4263   19.8108 C   0  0  0  0  0  0  0  0  0  0  0  0
    7.4427  -12.2969   19.9046 C   0  0  0  0  0  0  0  0  0  0  0  0
    8.2918  -12.0975   20.9638 C   0  0  0  0  0  0  0  0  0  0  0  0
    8.3706  -13.0466   21.9430 C   0  0  0  0  0  0  0  0  0  0  0  0
    7.6109  -14.2012   21.8837 C   0  0  0  0  0  0  0  0  0  0  0  0
   10.4062  -15.8272   25.1461 C   0  0  0  0  0  0  0  0  0  0  0  0
   11.3689  -15.0958   25.4579 O   0  0  0  0  0  0  0  0  0  0  0  0
   11.1031  -13.8002   28.4375 C   0  0  0  0  0  0  0  0  0  0  0  0
    9.8368  -14.1948   27.6673 C   0  0  2  0  0  0  0  0  0  0  0  0
    8.7671  -13.2186   28.1657 C   0  0  0  0  0  0  0  0  0  0  0  0
    9.4872  -15.5826   28.0836 C   0  0  0  0  0  0  0  0  0  0  0  0
   10.3793  -16.6598   27.5438 C   0  0  2  0  0  0  0  0  0  0  0  0
   10.0558  -16.8159   26.1424 N   0  0  0  0  0  0  0  0  0  0  0  0
   10.1636  -17.9654   28.2271 C   0  0  0  0  0  0  0  0  0  0  0  0
   10.7530  -18.3302   29.4164 O   0  0  0  0  0  0  0  0  0  0  0  0
    9.3944  -18.8069   27.6980 O   0  0  0  0  0  0  0  0  0  0  0  0
  1  2  1  0
  2  3  2  0
  4  5  1  0
  4  2  1  0
  5  6  1  1
  7  5  1  0
  7  8  2  0
  9  7  1  0
 10  9  1  0
 10 11  1  1
 12 13  2  0
 12 11  1  0
 14 13  1  0
 15 20  2  0
 15 14  1  0
 16 15  1  0
 17 18  1  0
 17 16  2  0
 18 19  2  0
 19 20  1  0
 20 12  1  0
 21 28  1  0
 21 10  1  0
 22 21  2  0
 24 23  1  1
 24 26  1  0
 25 24  1  0
 27 26  1  1
 27 28  1  0
 27 29  1  0
 29 31  2  0
 29 30  1  0
M  END
$$$$
