NWL.pdb
     RDKit          3D

 31 32  0  0  1  0  0  0  0  0999 V2000
   13.8949  -16.7326   18.0269 N   0  0  0  0  0  0  0  0  0  0  0  0
   12.6116  -17.3450   18.2132 C   0  0  0  0  0  0  0  0  0  0  0  0
   12.3406  -18.3467   17.5276 O   0  0  0  0  0  0  0  0  0  0  0  0
   11.6418  -16.8149   19.1794 C   0  0  0  0  0  0  0  0  0  0  0  0
   11.7389  -17.5530   20.4732 C   0  0  2  0  0  0  0  0  0  0  0  0
   11.0798  -18.8202   20.4111 N   0  0  0  0  0  0  0  0  0  0  0  0
   11.1882  -16.7168   21.5974 C   0  0  0  0  0  0  0  0  0  0  0  0
   11.6886  -15.6057   21.8891 O   0  0  0  0  0  0  0  0  0  0  0  0
   10.0897  -17.1899   22.3380 N   0  0  0  0  0  0  0  0  0  0  0  0
    9.5707  -16.4172   23.4849 C   0  0  1  0  0  0  0  0  0  0  0  0
    8.0921  -16.4735   23.4970 C   0  0  0  0  0  0  0  0  0  0  0  0
    7.4000  -15.9056   22.3442 C   0  0  0  0  0  0  0  0  0  0  0  0
    6.4799  -16.5756   21.5694 C   0  0  0  0  0  0  0  0  0  0  0  0
    6.0577  -15.7768   20.5773 N   0  0  0  0  0  0  0  0  0  0  0  0
    6.6874  -14.5792   20.6832 C   0  0  0  0  0  0  0  0  0  0  0  0
    6.6052  -13.4292   19.9436 C   0  0  0  0  0  0  0  0  0  0  0  0
    7.3639  -12.3492   20.3079 C   0  0  0  0  0  0  0  0  0  0  0  0
    8.2003  -12.3988   21.3946 C   0  0  0  0  0  0  0  0  0  0  0  0
    8.2760  -13.5501   22.1257 C   0  0  0  0  0  0  0  0  0  0  0  0
    7.5258  -14.6626   21.7891 C   0  0  0  0  0  0  0  0  0  0  0  0
   10.2800  -16.8089   24.7171 C   0  0  0  0  0  0  0  0  0  0  0  0
   10.9366  -17.8621   24.8535 O   0  0  0  0  0  0  0  0  0  0  0  0
    9.4961  -13.5714   26.9218 C   0  0  0  0  0  0  0  0  0  0  0  0
    9.9210  -14.2645   28.2223 C   0  0  2  0  0  0  0  0  0  0  0  0
   10.3024  -13.1154   29.1602 C   0  0  0  0  0  0  0  0  0  0  0  0
   11.1275  -15.0812   27.9078 C   0  0  0  0  0  0  0  0  0  0  0  0
   10.8676  -16.3437   27.1421 C   0  0  2  0  0  0  0  0  0  0  0  0
   10.2541  -15.9612   25.8891 N   0  0  0  0  0  0  0  0  0  0  0  0
    9.9399  -17.2591   27.8628 C   0  0  0  0  0  0  0  0  0  0  0  0
    8.7018  -17.6402   27.3971 O   0  0  0  0  0  0  0  0  0  0  0  0
   10.2920  -17.7270   28.9750 O   0  0  0  0  0  0  0  0  0  0  0  0
  1  2  1  0
  2  3  2  0
  4  5  1  0
  4  2  1  0
  5  6  1  6
  7  5  1  0
  7  8  2  0
  9  7  1  0
 10  9  1  0
 10 11  1  1
 12 13  2  0
 12 11  1  0
 14 13  1  0
 15 20  2  0
 15 14  1  0
 16 15  1  0
 17 18  1  0
 17 16  2  0
 18 19  2  0
 19 20  1  0
 20 12  1  0
 21 28  1  0
 21 10  1  0
 22 21  2  0
 24 23  1  6
 24 26  1  0
 25 24  1  0
 27 26  1  1
 27 28  1  0
 27 29  1  0
 29 31  2  0
 29 30  1  0
M  END
$$$$
