NWL.pdb
     RDKit          3D

 31 32  0  0  1  0  0  0  0  0999 V2000
   12.6633  -20.4382   20.4914 N   0  0  0  0  0  0  0  0  0  0  0  0
   11.8864  -19.6227   19.6037 C   0  0  0  0  0  0  0  0  0  0  0  0
   12.0441  -19.7819   18.3803 O   0  0  0  0  0  0  0  0  0  0  0  0
   10.9327  -18.6291   20.1121 C   0  0  0  0  0  0  0  0  0  0  0  0
   11.0080  -18.5491   21.6008 C   0  0  2  0  0  0  0  0  0  0  0  0
   10.1449  -19.5014   22.2270 N   0  0  0  0  0  0  0  0  0  0  0  0
   10.6944  -17.1527   22.0681 C   0  0  0  0  0  0  0  0  0  0  0  0
   11.4351  -16.1854   21.7752 O   0  0  0  0  0  0  0  0  0  0  0  0
    9.5474  -16.9259   22.8502 N   0  0  0  0  0  0  0  0  0  0  0  0
    9.0615  -15.5511   23.0864 C   0  0  1  0  0  0  0  0  0  0  0  0
    7.6317  -15.4563   22.7171 C   0  0  0  0  0  0  0  0  0  0  0  0
    7.3290  -15.1008   21.3341 C   0  0  0  0  0  0  0  0  0  0  0  0
    6.7167  -15.9322   20.4233 C   0  0  0  0  0  0  0  0  0  0  0  0
    6.6139  -15.3080   19.2398 N   0  0  0  0  0  0  0  0  0  0  0  0
    7.1517  -14.0670   19.3528 C   0  0  0  0  0  0  0  0  0  0  0  0
    7.2837  -13.0379   18.4584 C   0  0  0  0  0  0  0  0  0  0  0  0
    7.8645  -11.8688   18.8718 C   0  0  0  0  0  0  0  0  0  0  0  0
    8.3139  -11.7113   20.1587 C   0  0  0  0  0  0  0  0  0  0  0  0
    8.1785  -12.7434   21.0431 C   0  0  0  0  0  0  0  0  0  0  0  0
    7.5977  -13.9402   20.6634 C   0  0  0  0  0  0  0  0  0  0  0  0
    9.4495  -15.1062   24.4378 C   0  0  0  0  0  0  0  0  0  0  0  0
    9.7168  -13.9264   24.7470 O   0  0  0  0  0  0  0  0  0  0  0  0
    9.0390  -12.6989   27.4589 C   0  0  0  0  0  0  0  0  0  0  0  0
    8.0891  -13.6697   26.7464 C   0  0  2  0  0  0  0  0  0  0  0  0
    6.6891  -13.2054   27.1586 C   0  0  0  0  0  0  0  0  0  0  0  0
    8.3549  -15.0270   27.3018 C   0  0  0  0  0  0  0  0  0  0  0  0
    9.6677  -15.6361   26.9105 C   0  0  2  0  0  0  0  0  0  0  0  0
    9.5485  -16.0503   25.5296 N   0  0  0  0  0  0  0  0  0  0  0  0
   10.0031  -16.8303   27.7349 C   0  0  0  0  0  0  0  0  0  0  0  0
   10.0748  -18.1171   27.2512 O   0  0  0  0  0  0  0  0  0  0  0  0
   10.2401  -16.6746   28.9594 O   0  0  0  0  0  0  0  0  0  0  0  0
  1  2  1  0
  2  3  2  0
  4  5  1  0
  4  2  1  0
  5  6  1  1
  7  5  1  0
  7  8  2  0
  9  7  1  0
 10  9  1  0
 10 11  1  1
 12 13  2  0
 12 11  1  0
 14 13  1  0
 15 20  2  0
 15 14  1  0
 16 15  1  0
 17 18  1  0
 17 16  2  0
 18 19  2  0
 19 20  1  0
 20 12  1  0
 21 28  1  0
 21 10  1  0
 22 21  2  0
 24 23  1  1
 24 26  1  0
 25 24  1  0
 27 26  1  1
 27 28  1  0
 27 29  1  0
 29 31  2  0
 29 30  1  0
M  END
$$$$
