NWL.pdb
     RDKit          3D

 31 32  0  0  1  0  0  0  0  0999 V2000
   12.9027  -15.8619   19.6007 N   0  0  0  0  0  0  0  0  0  0  0  0
   11.5025  -15.8456   19.9103 C   0  0  0  0  0  0  0  0  0  0  0  0
   10.7007  -16.0805   18.9890 O   0  0  0  0  0  0  0  0  0  0  0  0
   11.0204  -15.5620   21.2676 C   0  0  0  0  0  0  0  0  0  0  0  0
   11.0787  -16.7936   22.1089 C   0  0  2  0  0  0  0  0  0  0  0  0
   10.2363  -17.8276   21.5938 N   0  0  0  0  0  0  0  0  0  0  0  0
   10.7217  -16.4723   23.5357 C   0  0  0  0  0  0  0  0  0  0  0  0
   11.4604  -15.7516   24.2462 O   0  0  0  0  0  0  0  0  0  0  0  0
    9.5352  -16.9907   24.0858 N   0  0  0  0  0  0  0  0  0  0  0  0
    9.1107  -16.6070   25.4475 C   0  0  1  0  0  0  0  0  0  0  0  0
    7.6707  -16.2660   25.4443 C   0  0  0  0  0  0  0  0  0  0  0  0
    7.2983  -14.9778   24.8677 C   0  0  0  0  0  0  0  0  0  0  0  0
    7.0772  -14.7490   23.5281 C   0  0  0  0  0  0  0  0  0  0  0  0
    6.7811  -13.4547   23.3337 N   0  0  0  0  0  0  0  0  0  0  0  0
    6.8020  -12.8175   24.5319 C   0  0  0  0  0  0  0  0  0  0  0  0
    6.5597  -11.5164   24.8850 C   0  0  0  0  0  0  0  0  0  0  0  0
    6.6384  -11.1605   26.2048 C   0  0  0  0  0  0  0  0  0  0  0  0
    6.9540  -12.0792   27.1740 C   0  0  0  0  0  0  0  0  0  0  0  0
    7.1946  -13.3741   26.8121 C   0  0  0  0  0  0  0  0  0  0  0  0
    7.1254  -13.7724   25.4891 C   0  0  0  0  0  0  0  0  0  0  0  0
    9.5725  -17.6142   26.4206 C   0  0  0  0  0  0  0  0  0  0  0  0
    9.1317  -17.7325   27.5827 O   0  0  0  0  0  0  0  0  0  0  0  0
   13.4945  -19.5579   24.4450 C   0  0  0  0  0  0  0  0  0  0  0  0
   13.3389  -19.6144   25.9698 C   0  0  2  0  0  0  0  0  0  0  0  0
   14.5650  -20.3965   26.4500 C   0  0  0  0  0  0  0  0  0  0  0  0
   12.1003  -20.3933   26.2538 C   0  0  0  0  0  0  0  0  0  0  0  0
   11.0110  -19.6367   26.9528 C   0  0  2  0  0  0  0  0  0  0  0  0
   10.6075  -18.5629   26.0714 N   0  0  0  0  0  0  0  0  0  0  0  0
   11.4720  -19.0445   28.2392 C   0  0  0  0  0  0  0  0  0  0  0  0
   11.5886  -17.6940   28.4789 O   0  0  0  0  0  0  0  0  0  0  0  0
   11.7814  -19.8133   29.1842 O   0  0  0  0  0  0  0  0  0  0  0  0
  1  2  1  0
  2  3  2  0
  4  5  1  0
  4  2  1  0
  5  6  1  6
  7  5  1  0
  7  8  2  0
  9  7  1  0
 10  9  1  0
 10 11  1  6
 12 13  2  0
 12 11  1  0
 14 13  1  0
 15 20  2  0
 15 14  1  0
 16 15  1  0
 17 18  1  0
 17 16  2  0
 18 19  2  0
 19 20  1  0
 20 12  1  0
 21 28  1  0
 21 10  1  0
 22 21  2  0
 24 23  1  6
 24 26  1  0
 25 24  1  0
 27 26  1  6
 27 28  1  0
 27 29  1  0
 29 31  2  0
 29 30  1  0
M  END
$$$$
