NWL.pdb
     RDKit          3D

 31 32  0  0  1  0  0  0  0  0999 V2000
   13.7178  -18.9569   19.2951 N   0  0  0  0  0  0  0  0  0  0  0  0
   13.7133  -17.5230   19.2756 C   0  0  0  0  0  0  0  0  0  0  0  0
   14.2451  -16.9532   18.3064 O   0  0  0  0  0  0  0  0  0  0  0  0
   13.1033  -16.7430   20.3595 C   0  0  0  0  0  0  0  0  0  0  0  0
   11.6534  -17.0742   20.4872 C   0  0  2  0  0  0  0  0  0  0  0  0
   10.9274  -16.7415   19.3013 N   0  0  0  0  0  0  0  0  0  0  0  0
   11.0617  -16.3868   21.6888 C   0  0  0  0  0  0  0  0  0  0  0  0
   11.5470  -15.3214   22.1352 O   0  0  0  0  0  0  0  0  0  0  0  0
    9.9411  -16.9499   22.3261 N   0  0  0  0  0  0  0  0  0  0  0  0
    9.3994  -16.3462   23.5606 C   0  0  1  0  0  0  0  0  0  0  0  0
    7.9315  -16.5284   23.6032 C   0  0  0  0  0  0  0  0  0  0  0  0
    7.1996  -15.7613   24.6063 C   0  0  0  0  0  0  0  0  0  0  0  0
    6.3905  -16.3057   25.5783 C   0  0  0  0  0  0  0  0  0  0  0  0
    5.8477  -15.3248   26.3159 N   0  0  0  0  0  0  0  0  0  0  0  0
    6.2878  -14.1303   25.8452 C   0  0  0  0  0  0  0  0  0  0  0  0
    6.0514  -12.8417   26.2450 C   0  0  0  0  0  0  0  0  0  0  0  0
    6.6633  -11.8156   25.5759 C   0  0  0  0  0  0  0  0  0  0  0  0
    7.5040  -12.0545   24.5181 C   0  0  0  0  0  0  0  0  0  0  0  0
    7.7330  -13.3428   24.1262 C   0  0  0  0  0  0  0  0  0  0  0  0
    7.1330  -14.4064   24.7764 C   0  0  0  0  0  0  0  0  0  0  0  0
   10.1790  -16.8015   24.7267 C   0  0  0  0  0  0  0  0  0  0  0  0
   10.8327  -17.8642   24.7721 O   0  0  0  0  0  0  0  0  0  0  0  0
   11.9888  -13.6270   27.0982 C   0  0  0  0  0  0  0  0  0  0  0  0
   10.6001  -14.0213   27.6165 C   0  0  2  0  0  0  0  0  0  0  0  0
   10.3177  -13.0266   28.7462 C   0  0  0  0  0  0  0  0  0  0  0  0
   10.7170  -15.3986   28.1739 C   0  0  0  0  0  0  0  0  0  0  0  0
   10.8382  -16.4951   27.1586 C   0  0  2  0  0  0  0  0  0  0  0  0
   10.2331  -16.0109   25.9371 N   0  0  0  0  0  0  0  0  0  0  0  0
   10.1273  -17.7342   27.5796 C   0  0  0  0  0  0  0  0  0  0  0  0
   10.6168  -18.6434   28.4899 O   0  0  0  0  0  0  0  0  0  0  0  0
    9.0014  -17.9865   27.0809 O   0  0  0  0  0  0  0  0  0  0  0  0
  1  2  1  0
  2  3  2  0
  4  5  1  0
  4  2  1  0
  5  6  1  6
  7  5  1  0
  7  8  2  0
  9  7  1  0
 10  9  1  0
 10 11  1  1
 12 13  2  0
 12 11  1  0
 14 13  1  0
 15 20  2  0
 15 14  1  0
 16 15  1  0
 17 18  1  0
 17 16  2  0
 18 19  2  0
 19 20  1  0
 20 12  1  0
 21 28  1  0
 21 10  1  0
 22 21  2  0
 24 23  1  1
 24 26  1  0
 25 24  1  0
 27 26  1  1
 27 28  1  0
 27 29  1  0
 29 31  2  0
 29 30  1  0
M  END
$$$$
