NWL.pdb
     RDKit          3D

 31 32  0  0  1  0  0  0  0  0999 V2000
   12.3501  -17.7403   17.1732 N   0  0  0  0  0  0  0  0  0  0  0  0
   12.7771  -17.4506   18.5112 C   0  0  0  0  0  0  0  0  0  0  0  0
   13.9485  -17.7310   18.8211 O   0  0  0  0  0  0  0  0  0  0  0  0
   11.8689  -16.8426   19.4914 C   0  0  0  0  0  0  0  0  0  0  0  0
   11.9112  -17.5972   20.7786 C   0  0  2  0  0  0  0  0  0  0  0  0
   11.2623  -18.8666   20.6703 N   0  0  0  0  0  0  0  0  0  0  0  0
   11.3057  -16.7784   21.8874 C   0  0  0  0  0  0  0  0  0  0  0  0
   11.7035  -15.6154   22.1311 O   0  0  0  0  0  0  0  0  0  0  0  0
   10.2722  -17.3274   22.6681 N   0  0  0  0  0  0  0  0  0  0  0  0
    9.6429  -16.5336   23.7431 C   0  0  1  0  0  0  0  0  0  0  0  0
    8.1702  -16.5945   23.6121 C   0  0  0  0  0  0  0  0  0  0  0  0
    7.5793  -15.9024   22.4709 C   0  0  0  0  0  0  0  0  0  0  0  0
    6.8531  -16.5099   21.4712 C   0  0  0  0  0  0  0  0  0  0  0  0
    6.4803  -15.5945   20.5636 N   0  0  0  0  0  0  0  0  0  0  0  0
    6.9508  -14.3811   20.9489 C   0  0  0  0  0  0  0  0  0  0  0  0
    6.8392  -13.1338   20.3938 C   0  0  0  0  0  0  0  0  0  0  0  0
    7.4153  -12.0684   21.0324 C   0  0  0  0  0  0  0  0  0  0  0  0
    8.0985  -12.2277   22.2117 C   0  0  0  0  0  0  0  0  0  0  0  0
    8.2050  -13.4754   22.7572 C   0  0  0  0  0  0  0  0  0  0  0  0
    7.6373  -14.5767   22.1418 C   0  0  0  0  0  0  0  0  0  0  0  0
   10.2290  -16.8982   25.0462 C   0  0  0  0  0  0  0  0  0  0  0  0
   11.1111  -17.7667   25.2094 O   0  0  0  0  0  0  0  0  0  0  0  0
   11.0588  -13.5295   28.0008 C   0  0  0  0  0  0  0  0  0  0  0  0
    9.6705  -14.1810   27.9777 C   0  0  2  0  0  0  0  0  0  0  0  0
    8.8329  -13.3288   28.9356 C   0  0  0  0  0  0  0  0  0  0  0  0
    9.8247  -15.5570   28.5294 C   0  0  0  0  0  0  0  0  0  0  0  0
   10.3329  -16.5842   27.5628 C   0  0  2  0  0  0  0  0  0  0  0  0
    9.7973  -16.2447   26.2626 N   0  0  0  0  0  0  0  0  0  0  0  0
    9.8841  -17.9600   27.9146 C   0  0  0  0  0  0  0  0  0  0  0  0
   10.3986  -18.7077   28.9495 O   0  0  0  0  0  0  0  0  0  0  0  0
    8.9740  -18.4941   27.2317 O   0  0  0  0  0  0  0  0  0  0  0  0
  1  2  1  0
  2  3  2  0
  4  5  1  0
  4  2  1  0
  5  6  1  6
  7  5  1  0
  7  8  2  0
  9  7  1  0
 10  9  1  0
 10 11  1  1
 12 13  2  0
 12 11  1  0
 14 13  1  0
 15 20  2  0
 15 14  1  0
 16 15  1  0
 17 18  1  0
 17 16  2  0
 18 19  2  0
 19 20  1  0
 20 12  1  0
 21 28  1  0
 21 10  1  0
 22 21  2  0
 24 23  1  1
 24 26  1  0
 25 24  1  0
 27 26  1  1
 27 28  1  0
 27 29  1  0
 29 31  2  0
 29 30  1  0
M  END
$$$$
