NWL.pdb
     RDKit          3D

 31 32  0  0  1  0  0  0  0  0999 V2000
    9.6589  -17.9178   18.2319 N   0  0  0  0  0  0  0  0  0  0  0  0
    9.5644  -16.4924   18.3579 C   0  0  0  0  0  0  0  0  0  0  0  0
    9.4623  -15.8222   17.3152 O   0  0  0  0  0  0  0  0  0  0  0  0
    9.5863  -15.8353   19.6706 C   0  0  0  0  0  0  0  0  0  0  0  0
    9.7764  -16.8438   20.7546 C   0  0  2  0  0  0  0  0  0  0  0  0
    8.6540  -17.7228   20.8634 N   0  0  0  0  0  0  0  0  0  0  0  0
   10.0499  -16.1586   22.0669 C   0  0  0  0  0  0  0  0  0  0  0  0
   11.0119  -15.3670   22.2011 O   0  0  0  0  0  0  0  0  0  0  0  0
    9.2106  -16.4106   23.1674 N   0  0  0  0  0  0  0  0  0  0  0  0
    9.5595  -15.8990   24.5084 C   0  0  1  0  0  0  0  0  0  0  0  0
    8.4416  -16.1493   25.4450 C   0  0  0  0  0  0  0  0  0  0  0  0
    7.2773  -15.2763   25.3321 C   0  0  0  0  0  0  0  0  0  0  0  0
    5.9813  -15.7097   25.1637 C   0  0  0  0  0  0  0  0  0  0  0  0
    5.1602  -14.6526   25.0684 N   0  0  0  0  0  0  0  0  0  0  0  0
    5.8966  -13.5172   25.1722 C   0  0  0  0  0  0  0  0  0  0  0  0
    5.5497  -12.1922   25.1546 C   0  0  0  0  0  0  0  0  0  0  0  0
    6.5290  -11.2470   25.3042 C   0  0  0  0  0  0  0  0  0  0  0  0
    7.8440  -11.6020   25.4703 C   0  0  0  0  0  0  0  0  0  0  0  0
    8.1803  -12.9258   25.4858 C   0  0  0  0  0  0  0  0  0  0  0  0
    7.2198  -13.9104   25.3373 C   0  0  0  0  0  0  0  0  0  0  0  0
   10.8981  -16.3804   24.8974 C   0  0  0  0  0  0  0  0  0  0  0  0
   11.9724  -15.9302   24.4479 O   0  0  0  0  0  0  0  0  0  0  0  0
    9.8981  -14.7221   29.5618 C   0  0  0  0  0  0  0  0  0  0  0  0
   11.0659  -15.2804   28.7390 C   0  0  2  0  0  0  0  0  0  0  0  0
   11.4740  -14.1238   27.8219 C   0  0  0  0  0  0  0  0  0  0  0  0
   10.5268  -16.4054   27.9234 C   0  0  0  0  0  0  0  0  0  0  0  0
   11.5531  -17.2245   27.1998 C   0  0  2  0  0  0  0  0  0  0  0  0
   11.0510  -17.4480   25.8617 N   0  0  0  0  0  0  0  0  0  0  0  0
   11.7780  -18.5466   27.8474 C   0  0  0  0  0  0  0  0  0  0  0  0
   10.8344  -19.5456   27.9297 O   0  0  0  0  0  0  0  0  0  0  0  0
   12.8996  -18.7874   28.3610 O   0  0  0  0  0  0  0  0  0  0  0  0
  1  2  1  0
  2  3  2  0
  4  5  1  0
  4  2  1  0
  5  6  1  1
  7  5  1  0
  7  8  2  0
  9  7  1  0
 10  9  1  0
 10 11  1  1
 12 13  2  0
 12 11  1  0
 14 13  1  0
 15 20  2  0
 15 14  1  0
 16 15  1  0
 17 18  1  0
 17 16  2  0
 18 19  2  0
 19 20  1  0
 20 12  1  0
 21 28  1  0
 21 10  1  0
 22 21  2  0
 24 23  1  1
 24 26  1  0
 25 24  1  0
 27 26  1  1
 27 28  1  0
 27 29  1  0
 29 31  2  0
 29 30  1  0
M  END
$$$$
