NWL.pdb
     RDKit          3D

 31 32  0  0  1  0  0  0  0  0999 V2000
   10.7234  -17.4440   17.6537 N   0  0  0  0  0  0  0  0  0  0  0  0
   10.0286  -16.2017   17.8287 C   0  0  0  0  0  0  0  0  0  0  0  0
    9.7938  -15.5193   16.8157 O   0  0  0  0  0  0  0  0  0  0  0  0
    9.6037  -15.7410   19.1562 C   0  0  0  0  0  0  0  0  0  0  0  0
    9.9987  -16.7303   20.2019 C   0  0  2  0  0  0  0  0  0  0  0  0
    9.2584  -17.9479   20.0861 N   0  0  0  0  0  0  0  0  0  0  0  0
    9.8394  -16.1344   21.5753 C   0  0  0  0  0  0  0  0  0  0  0  0
   10.3874  -15.0506   21.8833 O   0  0  0  0  0  0  0  0  0  0  0  0
    9.0604  -16.8061   22.5349 N   0  0  0  0  0  0  0  0  0  0  0  0
    8.9701  -16.2948   23.9177 C   0  0  1  0  0  0  0  0  0  0  0  0
    7.6577  -16.6549   24.4988 C   0  0  0  0  0  0  0  0  0  0  0  0
    6.8256  -15.5573   24.9818 C   0  0  0  0  0  0  0  0  0  0  0  0
    5.5665  -15.7014   25.5201 C   0  0  0  0  0  0  0  0  0  0  0  0
    5.0694  -14.4955   25.8356 N   0  0  0  0  0  0  0  0  0  0  0  0
    5.9858  -13.5477   25.5133 C   0  0  0  0  0  0  0  0  0  0  0  0
    5.9817  -12.1840   25.6427 C   0  0  0  0  0  0  0  0  0  0  0  0
    7.0813  -11.4751   25.2387 C   0  0  0  0  0  0  0  0  0  0  0  0
    8.1805  -12.1032   24.7094 C   0  0  0  0  0  0  0  0  0  0  0  0
    8.1749  -13.4633   24.5837 C   0  0  0  0  0  0  0  0  0  0  0  0
    7.0828  -14.2146   24.9798 C   0  0  0  0  0  0  0  0  0  0  0  0
   10.1790  -16.6723   24.6732 C   0  0  0  0  0  0  0  0  0  0  0  0
   11.0658  -17.4445   24.2533 O   0  0  0  0  0  0  0  0  0  0  0  0
    9.9636  -13.8957   27.7458 C   0  0  0  0  0  0  0  0  0  0  0  0
   10.1890  -15.2197   28.4864 C   0  0  2  0  0  0  0  0  0  0  0  0
   10.2380  -14.8262   29.9656 C   0  0  0  0  0  0  0  0  0  0  0  0
   11.5188  -15.7389   28.0578 C   0  0  0  0  0  0  0  0  0  0  0  0
   11.5065  -16.6072   26.8356 C   0  0  2  0  0  0  0  0  0  0  0  0
   10.4174  -16.1494   26.0009 N   0  0  0  0  0  0  0  0  0  0  0  0
   11.2786  -18.0415   27.1656 C   0  0  0  0  0  0  0  0  0  0  0  0
   12.2106  -18.8634   27.7580 O   0  0  0  0  0  0  0  0  0  0  0  0
   10.1655  -18.5573   26.8921 O   0  0  0  0  0  0  0  0  0  0  0  0
  1  2  1  0
  2  3  2  0
  4  5  1  0
  4  2  1  0
  5  6  1  1
  7  5  1  0
  7  8  2  0
  9  7  1  0
 10  9  1  0
 10 11  1  1
 12 13  2  0
 12 11  1  0
 14 13  1  0
 15 20  2  0
 15 14  1  0
 16 15  1  0
 17 18  1  0
 17 16  2  0
 18 19  2  0
 19 20  1  0
 20 12  1  0
 21 28  1  0
 21 10  1  0
 22 21  2  0
 24 23  1  6
 24 26  1  0
 25 24  1  0
 27 26  1  1
 27 28  1  0
 27 29  1  0
 29 31  2  0
 29 30  1  0
M  END
$$$$
