CMP.pdb
     RDKit          3D

 22 22  0  0  1  0  0  0  0  0999 V2000
   10.4217  -15.6808   20.2875 N   0  0  0  0  0  0  0  0  0  0  0  0
    9.6112  -16.3111   21.2901 C   0  0  1  0  0  0  0  0  0  0  0  0
    9.9946  -17.7643   21.3943 C   0  0  0  0  0  0  0  0  0  0  0  0
    8.9864  -18.5089   22.7145 S   0  0  0  0  0  0  0  0  0  0  0  0
    9.7118  -15.6189   22.6056 C   0  0  0  0  0  0  0  0  0  0  0  0
   10.8694  -15.2570   22.9865 O   0  0  0  0  0  0  0  0  0  0  0  0
    5.7846  -11.2849   25.8766 C   0  0  0  0  0  0  0  0  0  0  0  0
    5.9623  -12.7388   26.9263 S   0  0  0  0  0  0  0  0  0  0  0  0
    7.4859  -13.6562   26.5673 C   0  0  0  0  0  0  0  0  0  0  0  0
    7.4303  -14.0885   25.1221 C   0  0  0  0  0  0  0  0  0  0  0  0
    8.7038  -14.7837   24.6896 C   0  0  2  0  0  0  0  0  0  0  0  0
    8.5593  -15.3819   23.3855 N   0  0  0  0  0  0  0  0  0  0  0  0
    9.1183  -15.8157   25.6904 C   0  0  0  0  0  0  0  0  0  0  0  0
    8.9888  -17.0242   25.3172 O   0  0  0  0  0  0  0  0  0  0  0  0
    9.6266  -15.5177   26.9754 N   0  0  0  0  0  0  0  0  0  0  0  0
    9.3329  -14.4276   27.8692 C   0  0  0  0  0  0  0  0  0  0  0  0
   10.6654  -14.1677   28.5947 C   0  0  0  0  0  0  0  0  0  0  0  0
   11.6018  -15.2501   28.1029 C   0  0  0  0  0  0  0  0  0  0  0  0
   10.6122  -16.3245   27.6715 C   0  0  1  0  0  0  0  0  0  0  0  0
   10.0561  -16.9693   28.8863 C   0  0  0  0  0  0  0  0  0  0  0  0
    8.8354  -16.7940   29.1429 O   0  0  0  0  0  0  0  0  0  0  0  0
   10.7700  -17.7521   29.7670 O   0  0  0  0  0  0  0  0  0  0  0  0
  2  1  1  6
  3  2  1  0
  4  3  1  0
  5 12  1  0
  5  2  1  0
  6  5  2  0
  7  8  1  0
  8  9  1  0
  9 10  1  0
 11 10  1  1
 11 12  1  0
 11 13  1  0
 13 15  1  0
 14 13  2  0
 15 16  1  0
 15 19  1  0
 16 17  1  0
 17 18  1  0
 19 20  1  1
 19 18  1  0
 20 22  1  0
 21 20  2  0
M  END
$$$$
