CMP.pdb
     RDKit          3D

 22 22  0  0  1  0  0  0  0  0999 V2000
    4.5330  -19.8666   23.2359 N   0  0  0  0  0  0  0  0  0  0  0  0
    5.4924  -19.2728   24.1228 C   0  0  1  0  0  0  0  0  0  0  0  0
    6.7544  -20.0955   24.1085 C   0  0  0  0  0  0  0  0  0  0  0  0
    7.4775  -19.9699   22.4426 S   0  0  0  0  0  0  0  0  0  0  0  0
    5.7599  -17.8472   23.7822 C   0  0  0  0  0  0  0  0  0  0  0  0
    5.4232  -17.4524   22.6217 O   0  0  0  0  0  0  0  0  0  0  0  0
    6.0996  -12.3550   27.4868 C   0  0  0  0  0  0  0  0  0  0  0  0
    7.6404  -12.3702   26.5526 S   0  0  0  0  0  0  0  0  0  0  0  0
    7.5251  -13.4026   25.0651 C   0  0  0  0  0  0  0  0  0  0  0  0
    6.9474  -14.7352   25.4763 C   0  0  0  0  0  0  0  0  0  0  0  0
    6.7886  -15.6717   24.2973 C   0  0  2  0  0  0  0  0  0  0  0  0
    6.3633  -16.9828   24.7209 N   0  0  0  0  0  0  0  0  0  0  0  0
    8.0589  -15.7669   23.5127 C   0  0  0  0  0  0  0  0  0  0  0  0
    8.7838  -16.7807   23.7642 O   0  0  0  0  0  0  0  0  0  0  0  0
    8.4686  -14.8207   22.5456 N   0  0  0  0  0  0  0  0  0  0  0  0
    8.1421  -13.4255   22.4032 C   0  0  0  0  0  0  0  0  0  0  0  0
    8.1353  -13.1952   20.8812 C   0  0  0  0  0  0  0  0  0  0  0  0
    8.5832  -14.5098   20.2796 C   0  0  0  0  0  0  0  0  0  0  0  0
    9.3612  -15.1167   21.4399 C   0  0  1  0  0  0  0  0  0  0  0  0
   10.6596  -14.4091   21.5590 C   0  0  0  0  0  0  0  0  0  0  0  0
   10.8227  -13.6329   22.5376 O   0  0  0  0  0  0  0  0  0  0  0  0
   11.7135  -14.5306   20.6801 O   0  0  0  0  0  0  0  0  0  0  0  0
  2  1  1  6
  3  2  1  0
  4  3  1  0
  5 12  1  0
  5  2  1  0
  6  5  2  0
  7  8  1  0
  8  9  1  0
  9 10  1  0
 11 10  1  1
 11 12  1  0
 11 13  1  0
 13 15  1  0
 14 13  2  0
 15 16  1  0
 15 19  1  0
 16 17  1  0
 17 18  1  0
 19 20  1  1
 19 18  1  0
 20 22  1  0
 21 20  2  0
M  END
$$$$
