CMP.pdb
     RDKit          3D

 22 22  0  0  1  0  0  0  0  0999 V2000
    5.2357  -20.2491   24.4865 N   0  0  0  0  0  0  0  0  0  0  0  0
    5.9465  -19.3558   25.3561 C   0  0  1  0  0  0  0  0  0  0  0  0
    7.2425  -19.9998   25.7745 C   0  0  0  0  0  0  0  0  0  0  0  0
    8.3961  -19.8832   24.3711 S   0  0  0  0  0  0  0  0  0  0  0  0
    6.1707  -18.0243   24.7262 C   0  0  0  0  0  0  0  0  0  0  0  0
    6.0328  -17.9459   23.4649 O   0  0  0  0  0  0  0  0  0  0  0  0
    7.3182  -11.3762   26.5426 C   0  0  0  0  0  0  0  0  0  0  0  0
    6.2594  -12.5764   27.3709 S   0  0  0  0  0  0  0  0  0  0  0  0
    5.8878  -14.0021   26.3121 C   0  0  0  0  0  0  0  0  0  0  0  0
    7.2016  -14.5843   25.8502 C   0  0  0  0  0  0  0  0  0  0  0  0
    7.0043  -15.7127   24.8603 C   0  0  2  0  0  0  0  0  0  0  0  0
    6.5215  -16.9051   25.5117 N   0  0  0  0  0  0  0  0  0  0  0  0
    8.2706  -16.0035   24.1186 C   0  0  0  0  0  0  0  0  0  0  0  0
    8.8742  -17.0688   24.4612 O   0  0  0  0  0  0  0  0  0  0  0  0
    8.8003  -15.1818   23.0975 N   0  0  0  0  0  0  0  0  0  0  0  0
    8.5470  -13.8000   22.7812 C   0  0  0  0  0  0  0  0  0  0  0  0
    8.6780  -13.7356   21.2489 C   0  0  0  0  0  0  0  0  0  0  0  0
    9.1182  -15.1219   20.8304 C   0  0  0  0  0  0  0  0  0  0  0  0
    9.7692  -15.6254   22.1119 C   0  0  1  0  0  0  0  0  0  0  0  0
   11.0821  -14.9532   22.2702 C   0  0  0  0  0  0  0  0  0  0  0  0
   11.1926  -14.0746   23.1661 O   0  0  0  0  0  0  0  0  0  0  0  0
   12.2028  -15.2115   21.5117 O   0  0  0  0  0  0  0  0  0  0  0  0
  2  1  1  6
  3  2  1  0
  4  3  1  0
  5 12  1  0
  5  2  1  0
  6  5  2  0
  7  8  1  0
  8  9  1  0
  9 10  1  0
 11 10  1  1
 11 12  1  0
 11 13  1  0
 13 15  1  0
 14 13  2  0
 15 16  1  0
 15 19  1  0
 16 17  1  0
 17 18  1  0
 19 20  1  1
 19 18  1  0
 20 22  1  0
 21 20  2  0
M  END
$$$$
