CMP.pdb
     RDKit          3D

 22 22  0  0  1  0  0  0  0  0999 V2000
   11.0724  -16.2756   20.3515 N   0  0  0  0  0  0  0  0  0  0  0  0
   10.0616  -16.7199   21.2683 C   0  0  1  0  0  0  0  0  0  0  0  0
   10.2669  -18.1838   21.5593 C   0  0  0  0  0  0  0  0  0  0  0  0
    8.7694  -18.7970   22.3931 S   0  0  0  0  0  0  0  0  0  0  0  0
   10.0441  -15.9070   22.5168 C   0  0  0  0  0  0  0  0  0  0  0  0
   11.1663  -15.5457   22.9925 O   0  0  0  0  0  0  0  0  0  0  0  0
    5.8537  -11.6529   27.6765 C   0  0  0  0  0  0  0  0  0  0  0  0
    5.8786  -12.7743   26.2662 S   0  0  0  0  0  0  0  0  0  0  0  0
    7.4921  -13.5791   26.0641 C   0  0  0  0  0  0  0  0  0  0  0  0
    7.5423  -14.1612   24.6723 C   0  0  0  0  0  0  0  0  0  0  0  0
    8.8462  -14.8836   24.4073 C   0  0  2  0  0  0  0  0  0  0  0  0
    8.8230  -15.5603   23.1342 N   0  0  0  0  0  0  0  0  0  0  0  0
    9.1553  -15.8529   25.5042 C   0  0  0  0  0  0  0  0  0  0  0  0
    8.9510  -17.0769   25.2278 O   0  0  0  0  0  0  0  0  0  0  0  0
    9.6445  -15.4824   26.7778 N   0  0  0  0  0  0  0  0  0  0  0  0
    9.4616  -14.2719   27.5357 C   0  0  0  0  0  0  0  0  0  0  0  0
   10.7853  -14.1063   28.3037 C   0  0  0  0  0  0  0  0  0  0  0  0
   11.5889  -15.3473   27.9802 C   0  0  0  0  0  0  0  0  0  0  0  0
   10.4838  -16.3270   27.6080 C   0  0  1  0  0  0  0  0  0  0  0  0
    9.7964  -16.7574   28.8502 C   0  0  0  0  0  0  0  0  0  0  0  0
   10.4649  -17.3975   29.7047 O   0  0  0  0  0  0  0  0  0  0  0  0
    8.4743  -16.5135   29.1512 O   0  0  0  0  0  0  0  0  0  0  0  0
  2  1  1  6
  3  2  1  0
  4  3  1  0
  5 12  1  0
  5  2  1  0
  6  5  2  0
  7  8  1  0
  8  9  1  0
  9 10  1  0
 11 10  1  1
 11 12  1  0
 11 13  1  0
 13 15  1  0
 14 13  2  0
 15 16  1  0
 15 19  1  0
 16 17  1  0
 17 18  1  0
 19 20  1  1
 19 18  1  0
 20 22  1  0
 21 20  2  0
M  END
$$$$
