CMP.pdb
     RDKit          3D

 22 22  0  0  1  0  0  0  0  0999 V2000
   10.2728  -23.0895   27.5913 N   0  0  0  0  0  0  0  0  0  0  0  0
   10.6885  -21.7650   27.9551 C   0  0  1  0  0  0  0  0  0  0  0  0
   12.1935  -21.6985   27.9440 C   0  0  0  0  0  0  0  0  0  0  0  0
   12.7414  -21.8624   26.2158 S   0  0  0  0  0  0  0  0  0  0  0  0
   10.0844  -20.7280   27.0721 C   0  0  0  0  0  0  0  0  0  0  0  0
    9.5412  -21.1256   25.9937 O   0  0  0  0  0  0  0  0  0  0  0  0
   11.3621  -13.5827   28.5981 C   0  0  0  0  0  0  0  0  0  0  0  0
   10.0019  -14.7264   28.2998 S   0  0  0  0  0  0  0  0  0  0  0  0
   10.5635  -16.2631   27.5155 C   0  0  0  0  0  0  0  0  0  0  0  0
    9.3382  -17.0676   27.1550 C   0  0  0  0  0  0  0  0  0  0  0  0
    9.6969  -18.3721   26.4756 C   0  0  2  0  0  0  0  0  0  0  0  0
   10.1219  -19.3637   27.4323 N   0  0  0  0  0  0  0  0  0  0  0  0
   10.7558  -18.1641   25.4393 C   0  0  0  0  0  0  0  0  0  0  0  0
   11.8605  -18.7540   25.6584 O   0  0  0  0  0  0  0  0  0  0  0  0
   10.5874  -17.3758   24.2780 N   0  0  0  0  0  0  0  0  0  0  0  0
    9.5878  -16.3926   23.9500 C   0  0  0  0  0  0  0  0  0  0  0  0
    9.4080  -16.5336   22.4278 C   0  0  0  0  0  0  0  0  0  0  0  0
   10.4431  -17.5511   21.9992 C   0  0  0  0  0  0  0  0  0  0  0  0
   11.4642  -17.4259   23.1223 C   0  0  1  0  0  0  0  0  0  0  0  0
   12.2209  -16.1638   22.9339 C   0  0  0  0  0  0  0  0  0  0  0  0
   11.9427  -15.1900   23.6830 O   0  0  0  0  0  0  0  0  0  0  0  0
   13.2127  -15.9649   21.9987 O   0  0  0  0  0  0  0  0  0  0  0  0
  2  1  1  6
  3  2  1  0
  4  3  1  0
  5 12  1  0
  5  2  1  0
  6  5  2  0
  7  8  1  0
  8  9  1  0
  9 10  1  0
 11 10  1  1
 11 12  1  0
 11 13  1  0
 13 15  1  0
 14 13  2  0
 15 16  1  0
 15 19  1  0
 16 17  1  0
 17 18  1  0
 19 20  1  6
 19 18  1  0
 20 22  1  0
 21 20  2  0
M  END
$$$$
