CMP.pdb
     RDKit          3D

 22 22  0  0  1  0  0  0  0  0999 V2000
    4.3765  -20.1449   23.2699 N   0  0  0  0  0  0  0  0  0  0  0  0
    5.5679  -19.6989   23.9342 C   0  0  1  0  0  0  0  0  0  0  0  0
    6.7229  -20.5714   23.5167 C   0  0  0  0  0  0  0  0  0  0  0  0
    8.1560  -20.1208   24.5448 S   0  0  0  0  0  0  0  0  0  0  0  0
    5.8445  -18.2577   23.6764 C   0  0  0  0  0  0  0  0  0  0  0  0
    5.7024  -17.8415   22.4836 O   0  0  0  0  0  0  0  0  0  0  0  0
    7.4269  -11.0976   26.6801 C   0  0  0  0  0  0  0  0  0  0  0  0
    7.0808  -12.8491   26.9248 S   0  0  0  0  0  0  0  0  0  0  0  0
    7.0818  -13.7687   25.3608 C   0  0  0  0  0  0  0  0  0  0  0  0
    6.7001  -15.1963   25.6689 C   0  0  0  0  0  0  0  0  0  0  0  0
    6.6283  -16.0459   24.4178 C   0  0  2  0  0  0  0  0  0  0  0  0
    6.2471  -17.4023   24.7245 N   0  0  0  0  0  0  0  0  0  0  0  0
    7.9303  -16.0272   23.6809 C   0  0  0  0  0  0  0  0  0  0  0  0
    8.6863  -17.0302   23.8784 O   0  0  0  0  0  0  0  0  0  0  0  0
    8.3371  -14.9889   22.8121 N   0  0  0  0  0  0  0  0  0  0  0  0
    7.9440  -13.6047   22.7583 C   0  0  0  0  0  0  0  0  0  0  0  0
    8.0017  -13.2562   21.2601 C   0  0  0  0  0  0  0  0  0  0  0  0
    8.5490  -14.4957   20.5859 C   0  0  0  0  0  0  0  0  0  0  0  0
    9.2988  -15.1526   21.7374 C   0  0  1  0  0  0  0  0  0  0  0  0
   10.5499  -14.3934   21.9803 C   0  0  0  0  0  0  0  0  0  0  0  0
   10.6373  -13.7213   23.0421 O   0  0  0  0  0  0  0  0  0  0  0  0
   11.6360  -14.3608   21.1333 O   0  0  0  0  0  0  0  0  0  0  0  0
  2  1  1  6
  3  2  1  0
  4  3  1  0
  5 12  1  0
  5  2  1  0
  6  5  2  0
  7  8  1  0
  8  9  1  0
  9 10  1  0
 11 10  1  1
 11 12  1  0
 11 13  1  0
 13 15  1  0
 14 13  2  0
 15 16  1  0
 15 19  1  0
 16 17  1  0
 17 18  1  0
 19 20  1  1
 19 18  1  0
 20 22  1  0
 21 20  2  0
M  END
$$$$
