CMP.pdb
     RDKit          3D

 22 22  0  0  1  0  0  0  0  0999 V2000
   10.7951  -16.3312   20.2387 N   0  0  0  0  0  0  0  0  0  0  0  0
    9.8870  -16.8381   21.2275 C   0  0  1  0  0  0  0  0  0  0  0  0
   10.2405  -18.2697   21.5360 C   0  0  0  0  0  0  0  0  0  0  0  0
    9.1177  -19.3352   20.5778 S   0  0  0  0  0  0  0  0  0  0  0  0
    9.8738  -15.9965   22.4569 C   0  0  0  0  0  0  0  0  0  0  0  0
   10.9797  -15.4924   22.8298 O   0  0  0  0  0  0  0  0  0  0  0  0
    5.8720  -11.3582   26.7628 C   0  0  0  0  0  0  0  0  0  0  0  0
    5.7365  -13.1227   26.4232 S   0  0  0  0  0  0  0  0  0  0  0  0
    7.3587  -13.8938   26.1674 C   0  0  0  0  0  0  0  0  0  0  0  0
    7.3708  -14.4850   24.7785 C   0  0  0  0  0  0  0  0  0  0  0  0
    8.7205  -15.0728   24.4250 C   0  0  2  0  0  0  0  0  0  0  0  0
    8.6741  -15.7772   23.1676 N   0  0  0  0  0  0  0  0  0  0  0  0
    9.2118  -15.9791   25.5092 C   0  0  0  0  0  0  0  0  0  0  0  0
    9.2497  -17.2154   25.2149 O   0  0  0  0  0  0  0  0  0  0  0  0
    9.6189  -15.5390   26.7894 N   0  0  0  0  0  0  0  0  0  0  0  0
    9.2890  -14.3408   27.5167 C   0  0  0  0  0  0  0  0  0  0  0  0
   10.5631  -14.0275   28.3215 C   0  0  0  0  0  0  0  0  0  0  0  0
   11.4991  -15.1849   28.0479 C   0  0  0  0  0  0  0  0  0  0  0  0
   10.5123  -16.2789   27.6618 C   0  0  1  0  0  0  0  0  0  0  0  0
    9.8322  -16.7564   28.8908 C   0  0  0  0  0  0  0  0  0  0  0  0
   10.5363  -17.2972   29.7844 O   0  0  0  0  0  0  0  0  0  0  0  0
    8.4809  -16.6571   29.1399 O   0  0  0  0  0  0  0  0  0  0  0  0
  2  1  1  6
  3  2  1  0
  4  3  1  0
  5 12  1  0
  5  2  1  0
  6  5  2  0
  7  8  1  0
  8  9  1  0
  9 10  1  0
 11 10  1  1
 11 12  1  0
 11 13  1  0
 13 15  1  0
 14 13  2  0
 15 16  1  0
 15 19  1  0
 16 17  1  0
 17 18  1  0
 19 20  1  1
 19 18  1  0
 20 22  1  0
 21 20  2  0
M  END
$$$$
