CMP.pdb
     RDKit          3D

 22 22  0  0  1  0  0  0  0  0999 V2000
   10.3094  -16.0273   20.2369 N   0  0  0  0  0  0  0  0  0  0  0  0
    9.3583  -16.3418   21.2645 C   0  0  1  0  0  0  0  0  0  0  0  0
    9.3510  -17.8310   21.4924 C   0  0  0  0  0  0  0  0  0  0  0  0
    9.2354  -18.6388   19.8651 S   0  0  0  0  0  0  0  0  0  0  0  0
    9.6290  -15.5929   22.5238 C   0  0  0  0  0  0  0  0  0  0  0  0
   10.8459  -15.3997   22.8367 O   0  0  0  0  0  0  0  0  0  0  0  0
    5.0874  -12.4149   26.0770 C   0  0  0  0  0  0  0  0  0  0  0  0
    6.6411  -11.9625   26.8700 S   0  0  0  0  0  0  0  0  0  0  0  0
    7.9685  -13.1390   26.4884 C   0  0  0  0  0  0  0  0  0  0  0  0
    7.7096  -13.6892   25.1068 C   0  0  0  0  0  0  0  0  0  0  0  0
    8.8609  -14.5377   24.6102 C   0  0  2  0  0  0  0  0  0  0  0  0
    8.5665  -15.1235   23.3259 N   0  0  0  0  0  0  0  0  0  0  0  0
    9.2071  -15.6049   25.5999 C   0  0  0  0  0  0  0  0  0  0  0  0
    8.9730  -16.7970   25.2248 O   0  0  0  0  0  0  0  0  0  0  0  0
    9.7600  -15.3557   26.8768 N   0  0  0  0  0  0  0  0  0  0  0  0
    9.6570  -14.2028   27.7333 C   0  0  0  0  0  0  0  0  0  0  0  0
   11.0151  -14.1497   28.4560 C   0  0  0  0  0  0  0  0  0  0  0  0
   11.7533  -15.3911   28.0039 C   0  0  0  0  0  0  0  0  0  0  0  0
   10.5947  -16.2951   27.6032 C   0  0  1  0  0  0  0  0  0  0  0  0
    9.9384  -16.7957   28.8358 C   0  0  0  0  0  0  0  0  0  0  0  0
    8.7597  -16.4199   29.0728 O   0  0  0  0  0  0  0  0  0  0  0  0
   10.5156  -17.6462   29.7532 O   0  0  0  0  0  0  0  0  0  0  0  0
  2  1  1  6
  3  2  1  0
  4  3  1  0
  5 12  1  0
  5  2  1  0
  6  5  2  0
  7  8  1  0
  8  9  1  0
  9 10  1  0
 11 10  1  1
 11 12  1  0
 11 13  1  0
 13 15  1  0
 14 13  2  0
 15 16  1  0
 15 19  1  0
 16 17  1  0
 17 18  1  0
 19 20  1  1
 19 18  1  0
 20 22  1  0
 21 20  2  0
M  END
$$$$
