CMP.pdb
     RDKit          3D

 22 22  0  0  1  0  0  0  0  0999 V2000
    4.4895  -20.5236   23.4693 N   0  0  0  0  0  0  0  0  0  0  0  0
    5.6159  -19.9750   24.1691 C   0  0  1  0  0  0  0  0  0  0  0  0
    6.8429  -20.7868   23.8446 C   0  0  0  0  0  0  0  0  0  0  0  0
    8.1627  -20.2758   24.9895 S   0  0  0  0  0  0  0  0  0  0  0  0
    5.8139  -18.5304   23.8629 C   0  0  0  0  0  0  0  0  0  0  0  0
    5.6138  -18.1562   22.6645 O   0  0  0  0  0  0  0  0  0  0  0  0
    7.5159  -11.2739   26.5766 C   0  0  0  0  0  0  0  0  0  0  0  0
    7.1186  -13.0034   26.8903 S   0  0  0  0  0  0  0  0  0  0  0  0
    7.1132  -13.9884   25.3666 C   0  0  0  0  0  0  0  0  0  0  0  0
    6.6731  -15.3866   25.7268 C   0  0  0  0  0  0  0  0  0  0  0  0
    6.5722  -16.2800   24.5087 C   0  0  2  0  0  0  0  0  0  0  0  0
    6.2077  -17.6267   24.8732 N   0  0  0  0  0  0  0  0  0  0  0  0
    7.8533  -16.2807   23.7360 C   0  0  0  0  0  0  0  0  0  0  0  0
    8.5923  -17.3020   23.9009 O   0  0  0  0  0  0  0  0  0  0  0  0
    8.2584  -15.2411   22.8679 N   0  0  0  0  0  0  0  0  0  0  0  0
    7.8145  -13.8747   22.7717 C   0  0  0  0  0  0  0  0  0  0  0  0
    7.9268  -13.5483   21.2716 C   0  0  0  0  0  0  0  0  0  0  0  0
    8.5521  -14.7758   20.6449 C   0  0  0  0  0  0  0  0  0  0  0  0
    9.2738  -15.3837   21.8405 C   0  0  1  0  0  0  0  0  0  0  0  0
   10.4819  -14.5715   22.1256 C   0  0  0  0  0  0  0  0  0  0  0  0
   11.3560  -14.4746   21.2237 O   0  0  0  0  0  0  0  0  0  0  0  0
   10.7313  -13.9070   23.3064 O   0  0  0  0  0  0  0  0  0  0  0  0
  2  1  1  6
  3  2  1  0
  4  3  1  0
  5 12  1  0
  5  2  1  0
  6  5  2  0
  7  8  1  0
  8  9  1  0
  9 10  1  0
 11 10  1  1
 11 12  1  0
 11 13  1  0
 13 15  1  0
 14 13  2  0
 15 16  1  0
 15 19  1  0
 16 17  1  0
 17 18  1  0
 19 20  1  1
 19 18  1  0
 20 22  1  0
 21 20  2  0
M  END
$$$$
