CMP.pdb
     RDKit          3D

 22 22  0  0  1  0  0  0  0  0999 V2000
    8.6376  -15.7941   18.8287 N   0  0  0  0  0  0  0  0  0  0  0  0
    7.8179  -16.1922   19.9373 C   0  0  1  0  0  0  0  0  0  0  0  0
    7.6828  -17.6927   19.9387 C   0  0  0  0  0  0  0  0  0  0  0  0
    6.3994  -18.1312   21.1530 S   0  0  0  0  0  0  0  0  0  0  0  0
    8.3482  -15.6853   21.2341 C   0  0  0  0  0  0  0  0  0  0  0  0
    9.6057  -15.7428   21.4116 O   0  0  0  0  0  0  0  0  0  0  0  0
    6.8413  -11.0190   26.8136 C   0  0  0  0  0  0  0  0  0  0  0  0
    6.2587  -12.7025   26.5419 S   0  0  0  0  0  0  0  0  0  0  0  0
    7.5037  -13.7286   25.7118 C   0  0  0  0  0  0  0  0  0  0  0  0
    7.0157  -13.9951   24.3085 C   0  0  0  0  0  0  0  0  0  0  0  0
    8.0048  -14.8192   23.5119 C   0  0  2  0  0  0  0  0  0  0  0  0
    7.4769  -15.1654   22.2154 N   0  0  0  0  0  0  0  0  0  0  0  0
    8.3980  -16.0547   24.2584 C   0  0  0  0  0  0  0  0  0  0  0  0
    7.5634  -17.0127   24.2111 O   0  0  0  0  0  0  0  0  0  0  0  0
    9.6049  -16.1966   24.9806 N   0  0  0  0  0  0  0  0  0  0  0  0
   10.6395  -15.2389   25.2734 C   0  0  0  0  0  0  0  0  0  0  0  0
   11.9322  -16.0745   25.2849 C   0  0  0  0  0  0  0  0  0  0  0  0
   11.4799  -17.5065   25.0967 C   0  0  0  0  0  0  0  0  0  0  0  0
   10.0449  -17.4326   25.6018 C   0  0  1  0  0  0  0  0  0  0  0  0
   10.0696  -17.3415   27.0823 C   0  0  0  0  0  0  0  0  0  0  0  0
   10.5558  -18.3088   27.7263 O   0  0  0  0  0  0  0  0  0  0  0  0
    9.6005  -16.2769   27.8201 O   0  0  0  0  0  0  0  0  0  0  0  0
  2  1  1  6
  3  2  1  0
  4  3  1  0
  5 12  1  0
  5  2  1  0
  6  5  2  0
  7  8  1  0
  8  9  1  0
  9 10  1  0
 11 10  1  1
 11 12  1  0
 11 13  1  0
 13 15  1  0
 14 13  2  0
 15 16  1  0
 15 19  1  0
 16 17  1  0
 17 18  1  0
 19 20  1  1
 19 18  1  0
 20 22  1  0
 21 20  2  0
M  END
$$$$
