CMP.pdb
     RDKit          3D

 22 22  0  0  1  0  0  0  0  0999 V2000
    4.3742  -20.3525   23.6497 N   0  0  0  0  0  0  0  0  0  0  0  0
    5.5922  -19.8392   24.2088 C   0  0  1  0  0  0  0  0  0  0  0  0
    6.7487  -20.6754   23.7262 C   0  0  0  0  0  0  0  0  0  0  0  0
    8.2303  -20.1532   24.6459 S   0  0  0  0  0  0  0  0  0  0  0  0
    5.7863  -18.3960   23.8937 C   0  0  0  0  0  0  0  0  0  0  0  0
    5.5302  -18.0191   22.7069 O   0  0  0  0  0  0  0  0  0  0  0  0
    7.3994  -11.1120   26.5237 C   0  0  0  0  0  0  0  0  0  0  0  0
    7.2189  -12.8731   26.8606 S   0  0  0  0  0  0  0  0  0  0  0  0
    7.1431  -13.8541   25.3363 C   0  0  0  0  0  0  0  0  0  0  0  0
    6.6560  -15.2347   25.7040 C   0  0  0  0  0  0  0  0  0  0  0  0
    6.5961  -16.1530   24.5018 C   0  0  2  0  0  0  0  0  0  0  0  0
    6.2369  -17.4963   24.8837 N   0  0  0  0  0  0  0  0  0  0  0  0
    7.8967  -16.1545   23.7623 C   0  0  0  0  0  0  0  0  0  0  0  0
    8.6614  -17.1419   24.0003 O   0  0  0  0  0  0  0  0  0  0  0  0
    8.2932  -15.1502   22.8499 N   0  0  0  0  0  0  0  0  0  0  0  0
    7.8295  -13.7968   22.6866 C   0  0  0  0  0  0  0  0  0  0  0  0
    7.9495  -13.5389   21.1738 C   0  0  0  0  0  0  0  0  0  0  0  0
    8.5988  -14.7843   20.6099 C   0  0  0  0  0  0  0  0  0  0  0  0
    9.3194  -15.3246   21.8382 C   0  0  1  0  0  0  0  0  0  0  0  0
   10.5126  -14.4812   22.0946 C   0  0  0  0  0  0  0  0  0  0  0  0
   11.3978  -14.4212   21.2003 O   0  0  0  0  0  0  0  0  0  0  0  0
   10.7366  -13.7501   23.2406 O   0  0  0  0  0  0  0  0  0  0  0  0
  2  1  1  6
  3  2  1  0
  4  3  1  0
  5 12  1  0
  5  2  1  0
  6  5  2  0
  7  8  1  0
  8  9  1  0
  9 10  1  0
 11 10  1  1
 11 12  1  0
 11 13  1  0
 13 15  1  0
 14 13  2  0
 15 16  1  0
 15 19  1  0
 16 17  1  0
 17 18  1  0
 19 20  1  1
 19 18  1  0
 20 22  1  0
 21 20  2  0
M  END
$$$$
