CMP.pdb
     RDKit          3D

 22 22  0  0  1  0  0  0  0  0999 V2000
    8.0937  -15.1440   19.1644 N   0  0  0  0  0  0  0  0  0  0  0  0
    7.3488  -15.5134   20.3341 C   0  0  1  0  0  0  0  0  0  0  0  0
    6.9930  -16.9750   20.2525 C   0  0  0  0  0  0  0  0  0  0  0  0
    6.0352  -17.3949   21.7426 S   0  0  0  0  0  0  0  0  0  0  0  0
    8.0858  -15.1947   21.5891 C   0  0  0  0  0  0  0  0  0  0  0  0
    9.3424  -15.3878   21.5918 O   0  0  0  0  0  0  0  0  0  0  0  0
    5.4359  -12.0030   26.5250 C   0  0  0  0  0  0  0  0  0  0  0  0
    7.1170  -12.1524   27.1566 S   0  0  0  0  0  0  0  0  0  0  0  0
    8.1289  -13.2665   26.1435 C   0  0  0  0  0  0  0  0  0  0  0  0
    7.4086  -13.4752   24.8335 C   0  0  0  0  0  0  0  0  0  0  0  0
    8.1406  -14.4479   23.9334 C   0  0  2  0  0  0  0  0  0  0  0  0
    7.4024  -14.6993   22.7204 N   0  0  0  0  0  0  0  0  0  0  0  0
    8.4195  -15.7332   24.6464 C   0  0  0  0  0  0  0  0  0  0  0  0
    7.4544  -16.5601   24.6834 O   0  0  0  0  0  0  0  0  0  0  0  0
    9.6557  -16.0538   25.2526 N   0  0  0  0  0  0  0  0  0  0  0  0
   10.8303  -15.2491   25.4672 C   0  0  0  0  0  0  0  0  0  0  0  0
   11.9962  -16.2467   25.3449 C   0  0  0  0  0  0  0  0  0  0  0  0
   11.3425  -17.6008   25.1723 C   0  0  0  0  0  0  0  0  0  0  0  0
    9.9802  -17.3551   25.8078 C   0  0  1  0  0  0  0  0  0  0  0  0
   10.1473  -17.3133   27.2812 C   0  0  0  0  0  0  0  0  0  0  0  0
   10.1038  -16.1901   27.8498 O   0  0  0  0  0  0  0  0  0  0  0  0
   10.3483  -18.4111   28.0889 O   0  0  0  0  0  0  0  0  0  0  0  0
  2  1  1  6
  3  2  1  0
  4  3  1  0
  5 12  1  0
  5  2  1  0
  6  5  2  0
  7  8  1  0
  8  9  1  0
  9 10  1  0
 11 10  1  1
 11 12  1  0
 11 13  1  0
 13 15  1  0
 14 13  2  0
 15 16  1  0
 15 19  1  0
 16 17  1  0
 17 18  1  0
 19 20  1  1
 19 18  1  0
 20 22  1  0
 21 20  2  0
M  END
$$$$
