CMP.pdb
     RDKit          3D

 22 22  0  0  1  0  0  0  0  0999 V2000
   10.8146  -16.5230   20.3817 N   0  0  0  0  0  0  0  0  0  0  0  0
    9.7148  -16.8133   21.2568 C   0  0  1  0  0  0  0  0  0  0  0  0
    9.6838  -18.2930   21.5379 C   0  0  0  0  0  0  0  0  0  0  0  0
    8.6825  -19.0818   20.2382 S   0  0  0  0  0  0  0  0  0  0  0  0
    9.7753  -16.0147   22.5131 C   0  0  0  0  0  0  0  0  0  0  0  0
   10.9272  -15.6932   22.9442 O   0  0  0  0  0  0  0  0  0  0  0  0
    5.9381  -11.5166   27.7455 C   0  0  0  0  0  0  0  0  0  0  0  0
    5.9031  -12.5744   26.2870 S   0  0  0  0  0  0  0  0  0  0  0  0
    7.4437  -13.5118   26.0883 C   0  0  0  0  0  0  0  0  0  0  0  0
    7.4392  -14.1119   24.7032 C   0  0  0  0  0  0  0  0  0  0  0  0
    8.6911  -14.9187   24.4314 C   0  0  2  0  0  0  0  0  0  0  0  0
    8.5927  -15.6383   23.1857 N   0  0  0  0  0  0  0  0  0  0  0  0
    8.9745  -15.8646   25.5555 C   0  0  0  0  0  0  0  0  0  0  0  0
    8.6587  -17.0778   25.3438 O   0  0  0  0  0  0  0  0  0  0  0  0
    9.5540  -15.4840   26.7875 N   0  0  0  0  0  0  0  0  0  0  0  0
    9.3817  -14.2906   27.5746 C   0  0  0  0  0  0  0  0  0  0  0  0
   10.7576  -14.0708   28.2289 C   0  0  0  0  0  0  0  0  0  0  0  0
   11.5863  -15.2697   27.8210 C   0  0  0  0  0  0  0  0  0  0  0  0
   10.4992  -16.2964   27.5313 C   0  0  1  0  0  0  0  0  0  0  0  0
    9.9416  -16.7704   28.8218 C   0  0  0  0  0  0  0  0  0  0  0  0
    8.7470  -16.4770   29.0933 O   0  0  0  0  0  0  0  0  0  0  0  0
   10.6274  -17.5123   29.7583 O   0  0  0  0  0  0  0  0  0  0  0  0
  2  1  1  6
  3  2  1  0
  4  3  1  0
  5 12  1  0
  5  2  1  0
  6  5  2  0
  7  8  1  0
  8  9  1  0
  9 10  1  0
 11 10  1  1
 11 12  1  0
 11 13  1  0
 13 15  1  0
 14 13  2  0
 15 16  1  0
 15 19  1  0
 16 17  1  0
 17 18  1  0
 19 20  1  1
 19 18  1  0
 20 22  1  0
 21 20  2  0
M  END
$$$$
