CMP.pdb
     RDKit          3D

 22 22  0  0  1  0  0  0  0  0999 V2000
    4.2037  -18.9621   22.5837 N   0  0  0  0  0  0  0  0  0  0  0  0
    5.1466  -18.9051   23.6641 C   0  0  1  0  0  0  0  0  0  0  0  0
    5.8885  -20.2139   23.7424 C   0  0  0  0  0  0  0  0  0  0  0  0
    6.7296  -20.2771   25.3557 S   0  0  0  0  0  0  0  0  0  0  0  0
    6.0786  -17.7503   23.5313 C   0  0  0  0  0  0  0  0  0  0  0  0
    6.6080  -17.5569   22.3918 O   0  0  0  0  0  0  0  0  0  0  0  0
    7.5847  -11.8039   26.7998 C   0  0  0  0  0  0  0  0  0  0  0  0
    6.1146  -12.8452   26.8451 S   0  0  0  0  0  0  0  0  0  0  0  0
    6.0983  -14.0597   25.4974 C   0  0  0  0  0  0  0  0  0  0  0  0
    7.3341  -14.9152   25.6369 C   0  0  0  0  0  0  0  0  0  0  0  0
    7.4276  -15.9579   24.5432 C   0  0  2  0  0  0  0  0  0  0  0  0
    6.3523  -16.9142   24.6352 N   0  0  0  0  0  0  0  0  0  0  0  0
    8.7491  -16.6582   24.5809 C   0  0  0  0  0  0  0  0  0  0  0  0
    8.7810  -17.7322   25.2607 O   0  0  0  0  0  0  0  0  0  0  0  0
    9.9116  -16.1981   23.9212 N   0  0  0  0  0  0  0  0  0  0  0  0
   10.1757  -14.9530   23.2478 C   0  0  0  0  0  0  0  0  0  0  0  0
   11.1313  -15.3399   22.1047 C   0  0  0  0  0  0  0  0  0  0  0  0
   11.4182  -16.8118   22.3093 C   0  0  0  0  0  0  0  0  0  0  0  0
   11.1387  -16.9638   23.7988 C   0  0  1  0  0  0  0  0  0  0  0  0
   12.2607  -16.3545   24.5542 C   0  0  0  0  0  0  0  0  0  0  0  0
   12.0721  -15.2295   25.0886 O   0  0  0  0  0  0  0  0  0  0  0  0
   13.5050  -16.9215   24.7224 O   0  0  0  0  0  0  0  0  0  0  0  0
  2  1  1  6
  3  2  1  0
  4  3  1  0
  5 12  1  0
  5  2  1  0
  6  5  2  0
  7  8  1  0
  8  9  1  0
  9 10  1  0
 11 10  1  1
 11 12  1  0
 11 13  1  0
 13 15  1  0
 14 13  2  0
 15 16  1  0
 15 19  1  0
 16 17  1  0
 17 18  1  0
 19 20  1  1
 19 18  1  0
 20 22  1  0
 21 20  2  0
M  END
$$$$
