WRC.pdb
     RDKit          3D

 32 33  0  0  1  0  0  0  0  0999 V2000
    6.5681  -18.6186   24.6679 N   0  0  0  0  0  0  0  0  0  0  0  0
    6.5722  -17.1659   24.5468 C   0  0  1  0  0  0  0  0  0  0  0  0
    7.2960  -16.5710   25.7416 C   0  0  0  0  0  0  0  0  0  0  0  0
    6.6000  -15.3591   26.2298 C   0  0  0  0  0  0  0  0  0  0  0  0
    5.2919  -15.2070   26.6696 C   0  0  0  0  0  0  0  0  0  0  0  0
    5.0832  -13.9215   27.0249 N   0  0  0  0  0  0  0  0  0  0  0  0
    6.2078  -13.2080   26.8376 C   0  0  0  0  0  0  0  0  0  0  0  0
    6.5132  -11.8595   27.0470 C   0  0  0  0  0  0  0  0  0  0  0  0
    7.7791  -11.4358   26.7500 C   0  0  0  0  0  0  0  0  0  0  0  0
    8.7459  -12.2962   26.2560 C   0  0  0  0  0  0  0  0  0  0  0  0
    8.4156  -13.6125   26.0616 C   0  0  0  0  0  0  0  0  0  0  0  0
    7.1489  -14.0858   26.3476 C   0  0  0  0  0  0  0  0  0  0  0  0
    7.4018  -16.8193   23.3379 C   0  0  0  0  0  0  0  0  0  0  0  0
    8.3244  -17.5779   22.9503 O   0  0  0  0  0  0  0  0  0  0  0  0
    8.2493  -15.7307   16.9427 N   0  0  0  0  0  0  0  0  0  0  0  0
    8.6704  -14.4455   16.4575 C   0  0  0  0  0  0  0  0  0  0  0  0
    9.2430  -14.3371   15.3154 N   0  0  0  0  0  0  0  0  0  0  0  0
    8.4700  -13.2640   17.2216 N   0  0  0  0  0  0  0  0  0  0  0  0
    7.7157  -13.2686   18.4566 C   0  0  0  0  0  0  0  0  0  0  0  0
    8.4892  -13.7107   19.6454 C   0  0  0  0  0  0  0  0  0  0  0  0
    7.5623  -14.0414   20.7813 C   0  0  0  0  0  0  0  0  0  0  0  0
    7.9524  -15.3197   21.4416 C   0  0  2  0  0  0  0  0  0  0  0  0
    7.1634  -15.6327   22.6095 N   0  0  0  0  0  0  0  0  0  0  0  0
    9.3727  -15.1272   21.9301 C   0  0  0  0  0  0  0  0  0  0  0  0
    9.6127  -14.2411   22.7697 O   0  0  0  0  0  0  0  0  0  0  0  0
    9.4088  -13.3792   14.9389 N   0  0  0  0  0  0  0  0  0  0  0  0
   10.4329  -15.9146   21.4691 C   0  0  2  0  0  0  0  0  0  0  0  0
   11.7909  -15.6303   21.8819 C   0  0  0  0  0  0  0  0  0  0  0  0
   11.8472  -15.8117   23.3753 S   0  0  0  0  0  0  0  0  0  0  0  0
   11.5050  -17.5038   23.8865 C   0  0  0  0  0  0  0  0  0  0  0  0
   12.7398  -16.5302   21.1770 O   0  0  0  0  0  0  0  0  0  0  0  0
   14.1014  -16.3761   21.2769 O   0  0  0  0  0  0  0  0  0  0  0  0
  2  1  1  1
  2  3  1  0
  4  3  1  0
  5  4  2  0
  6  7  1  0
  6  5  1  0
  7 12  2  0
  8  9  2  0
  8  7  1  0
  9 10  1  0
 10 11  2  0
 12  4  1  0
 12 11  1  0
 13 14  2  0
 13  2  1  0
 16 15  1  0
 17 16  2  0
 18 16  1  0
 19 18  1  0
 20 19  1  0
 20 21  1  0
 22 21  1  1
 22 23  1  0
 23 13  1  0
 24 22  1  0
 24 26  1  0
 25 24  2  0
 27 26  1  0
 27 30  1  0
 27 28  1  6
 28 29  1  0
 30 32  2  0
 30 31  1  0
M  END
$$$$
