WRC.pdb
     RDKit          3D

 32 33  0  0  1  0  0  0  0  0999 V2000
    7.1605  -17.3377   25.8874 N   0  0  0  0  0  0  0  0  0  0  0  0
    7.1942  -16.0764   25.1573 C   0  0  1  0  0  0  0  0  0  0  0  0
    8.4387  -15.3047   25.5584 C   0  0  0  0  0  0  0  0  0  0  0  0
    8.1647  -14.4294   26.7205 C   0  0  0  0  0  0  0  0  0  0  0  0
    8.6500  -14.5055   28.0190 C   0  0  0  0  0  0  0  0  0  0  0  0
    8.1352  -13.4954   28.7518 N   0  0  0  0  0  0  0  0  0  0  0  0
    7.3213  -12.7458   27.9872 C   0  0  0  0  0  0  0  0  0  0  0  0
    6.5575  -11.6068   28.2606 C   0  0  0  0  0  0  0  0  0  0  0  0
    5.8193  -11.0708   27.2418 C   0  0  0  0  0  0  0  0  0  0  0  0
    5.8120  -11.6207   25.9703 C   0  0  0  0  0  0  0  0  0  0  0  0
    6.5714  -12.7374   25.7338 C   0  0  0  0  0  0  0  0  0  0  0  0
    7.3331  -13.3138   26.7327 C   0  0  0  0  0  0  0  0  0  0  0  0
    7.3581  -16.4082   23.6969 C   0  0  0  0  0  0  0  0  0  0  0  0
    7.5087  -17.5962   23.3188 O   0  0  0  0  0  0  0  0  0  0  0  0
    9.3857  -14.4842   15.0402 N   0  0  0  0  0  0  0  0  0  0  0  0
    9.2547  -14.1843   16.4392 C   0  0  0  0  0  0  0  0  0  0  0  0
   10.2346  -14.3836   17.2417 N   0  0  0  0  0  0  0  0  0  0  0  0
    8.0453  -13.6639   16.9743 N   0  0  0  0  0  0  0  0  0  0  0  0
    7.8944  -13.3697   18.3831 C   0  0  0  0  0  0  0  0  0  0  0  0
    8.2092  -14.5084   19.2840 C   0  0  0  0  0  0  0  0  0  0  0  0
    7.2043  -14.5890   20.3986 C   0  0  0  0  0  0  0  0  0  0  0  0
    7.5090  -15.7211   21.3192 C   0  0  2  0  0  0  0  0  0  0  0  0
    7.3465  -15.3921   22.7157 N   0  0  0  0  0  0  0  0  0  0  0  0
    8.9771  -16.0386   21.1277 C   0  0  0  0  0  0  0  0  0  0  0  0
    9.8297  -15.1904   21.4462 O   0  0  0  0  0  0  0  0  0  0  0  0
   11.1938  -14.4477   16.8382 N   0  0  0  0  0  0  0  0  0  0  0  0
    9.4138  -17.2592   20.6024 C   0  0  1  0  0  0  0  0  0  0  0  0
   10.8283  -17.5468   20.4940 C   0  0  0  0  0  0  0  0  0  0  0  0
   11.0530  -18.9032   21.1073 S   0  0  0  0  0  0  0  0  0  0  0  0
   10.5846  -18.9701   22.8446 C   0  0  0  0  0  0  0  0  0  0  0  0
   11.2524  -17.5036   19.0708 O   0  0  0  0  0  0  0  0  0  0  0  0
   12.5457  -17.7647   18.6874 O   0  0  0  0  0  0  0  0  0  0  0  0
  2  1  1  1
  2  3  1  0
  4  3  1  0
  5  4  2  0
  6  7  1  0
  6  5  1  0
  7 12  2  0
  8  9  2  0
  8  7  1  0
  9 10  1  0
 10 11  2  0
 12  4  1  0
 12 11  1  0
 13 14  2  0
 13  2  1  0
 16 15  1  0
 17 16  2  0
 18 16  1  0
 19 18  1  0
 20 19  1  0
 20 21  1  0
 22 21  1  6
 22 23  1  0
 23 13  1  0
 24 22  1  0
 24 26  1  0
 25 24  2  0
 27 26  1  0
 27 30  1  0
 27 28  1  6
 28 29  1  0
 30 32  2  0
 30 31  1  0
M  END
$$$$
