WRC.pdb
     RDKit          3D

 32 33  0  0  1  0  0  0  0  0999 V2000
    6.6328  -17.8402   25.4422 N   0  0  0  0  0  0  0  0  0  0  0  0
    7.1259  -16.5942   24.8682 C   0  0  1  0  0  0  0  0  0  0  0  0
    8.0588  -15.9256   25.8622 C   0  0  0  0  0  0  0  0  0  0  0  0
    7.3443  -14.8888   26.6407 C   0  0  0  0  0  0  0  0  0  0  0  0
    6.6420  -15.0049   27.8327 C   0  0  0  0  0  0  0  0  0  0  0  0
    6.1509  -13.7978   28.1850 N   0  0  0  0  0  0  0  0  0  0  0  0
    6.5008  -12.8777   27.2687 C   0  0  0  0  0  0  0  0  0  0  0  0
    6.2484  -11.5060   27.1677 C   0  0  0  0  0  0  0  0  0  0  0  0
    6.7561  -10.8391   26.0871 C   0  0  0  0  0  0  0  0  0  0  0  0
    7.5001  -11.4800   25.1101 C   0  0  0  0  0  0  0  0  0  0  0  0
    7.7304  -12.8256   25.2375 C   0  0  0  0  0  0  0  0  0  0  0  0
    7.2371  -13.5409   26.3124 C   0  0  0  0  0  0  0  0  0  0  0  0
    7.9720  -16.9546   23.6748 C   0  0  0  0  0  0  0  0  0  0  0  0
    8.6988  -17.9785   23.6855 O   0  0  0  0  0  0  0  0  0  0  0  0
    7.7135  -14.1252   15.3781 N   0  0  0  0  0  0  0  0  0  0  0  0
    8.3548  -13.6962   16.5902 C   0  0  0  0  0  0  0  0  0  0  0  0
    8.9227  -12.5486   16.6545 N   0  0  0  0  0  0  0  0  0  0  0  0
    8.3822  -14.5234   17.7456 N   0  0  0  0  0  0  0  0  0  0  0  0
    7.1699  -14.9753   18.3938 C   0  0  0  0  0  0  0  0  0  0  0  0
    7.3937  -15.8916   19.5416 C   0  0  0  0  0  0  0  0  0  0  0  0
    8.6812  -15.5537   20.2394 C   0  0  0  0  0  0  0  0  0  0  0  0
    8.8905  -16.4196   21.4347 C   0  0  2  0  0  0  0  0  0  0  0  0
    7.9695  -16.1502   22.5136 N   0  0  0  0  0  0  0  0  0  0  0  0
   10.2697  -16.0853   21.9628 C   0  0  0  0  0  0  0  0  0  0  0  0
   10.3848  -15.2529   22.8801 O   0  0  0  0  0  0  0  0  0  0  0  0
    9.4829  -12.3256   17.5051 N   0  0  0  0  0  0  0  0  0  0  0  0
   11.4278  -16.6822   21.4540 C   0  0  1  0  0  0  0  0  0  0  0  0
   12.7304  -16.3042   21.9597 C   0  0  0  0  0  0  0  0  0  0  0  0
   12.7590  -16.6614   23.4219 S   0  0  0  0  0  0  0  0  0  0  0  0
   12.2648  -18.3644   23.7342 C   0  0  0  0  0  0  0  0  0  0  0  0
   13.7982  -17.0007   21.1968 O   0  0  0  0  0  0  0  0  0  0  0  0
   13.5125  -17.8960   20.1946 O   0  0  0  0  0  0  0  0  0  0  0  0
  2  1  1  1
  2  3  1  0
  4  3  1  0
  5  4  2  0
  6  7  1  0
  6  5  1  0
  7 12  2  0
  8  9  2  0
  8  7  1  0
  9 10  1  0
 10 11  2  0
 12  4  1  0
 12 11  1  0
 13 14  2  0
 13  2  1  0
 16 15  1  0
 17 16  2  0
 18 16  1  0
 19 18  1  0
 20 19  1  0
 20 21  1  0
 22 21  1  6
 22 23  1  0
 23 13  1  0
 24 22  1  0
 24 26  1  0
 25 24  2  0
 27 26  1  0
 27 30  1  0
 27 28  1  6
 28 29  1  0
 30 32  2  0
 30 31  1  0
M  END
$$$$
