WRC.pdb
     RDKit          3D

 32 33  0  0  1  0  0  0  0  0999 V2000
    6.6162  -18.7034   24.9884 N   0  0  0  0  0  0  0  0  0  0  0  0
    6.6475  -17.2652   24.7523 C   0  0  1  0  0  0  0  0  0  0  0  0
    7.3628  -16.5887   25.9081 C   0  0  0  0  0  0  0  0  0  0  0  0
    6.6144  -15.3964   26.3661 C   0  0  0  0  0  0  0  0  0  0  0  0
    5.3232  -15.3012   26.8675 C   0  0  0  0  0  0  0  0  0  0  0  0
    5.0487  -14.0128   27.1623 N   0  0  0  0  0  0  0  0  0  0  0  0
    6.1129  -13.2423   26.8749 C   0  0  0  0  0  0  0  0  0  0  0  0
    6.3393  -11.8674   26.9928 C   0  0  0  0  0  0  0  0  0  0  0  0
    7.5577  -11.3831   26.6042 C   0  0  0  0  0  0  0  0  0  0  0  0
    8.5527  -12.2085   26.1064 C   0  0  0  0  0  0  0  0  0  0  0  0
    8.3002  -13.5521   26.0031 C   0  0  0  0  0  0  0  0  0  0  0  0
    7.0836  -14.0865   26.3834 C   0  0  0  0  0  0  0  0  0  0  0  0
    7.5017  -17.0296   23.5339 C   0  0  0  0  0  0  0  0  0  0  0  0
    8.3937  -17.8494   23.2037 O   0  0  0  0  0  0  0  0  0  0  0  0
    6.9825  -15.2701   17.2622 N   0  0  0  0  0  0  0  0  0  0  0  0
    7.7423  -14.2377   16.6133 C   0  0  0  0  0  0  0  0  0  0  0  0
    7.8637  -14.2240   15.3371 N   0  0  0  0  0  0  0  0  0  0  0  0
    8.3800  -13.2090   17.3584 N   0  0  0  0  0  0  0  0  0  0  0  0
    8.2244  -13.0920   18.7923 C   0  0  0  0  0  0  0  0  0  0  0  0
    8.6118  -14.3087   19.5519 C   0  0  0  0  0  0  0  0  0  0  0  0
    7.7376  -14.4712   20.7636 C   0  0  0  0  0  0  0  0  0  0  0  0
    8.0965  -15.7002   21.5271 C   0  0  2  0  0  0  0  0  0  0  0  0
    7.3213  -15.8809   22.7317 N   0  0  0  0  0  0  0  0  0  0  0  0
    9.5324  -15.5178   21.9717 C   0  0  0  0  0  0  0  0  0  0  0  0
    9.8687  -14.4536   22.5213 O   0  0  0  0  0  0  0  0  0  0  0  0
    8.4945  -13.5109   14.9120 N   0  0  0  0  0  0  0  0  0  0  0  0
   10.5021  -16.5086   21.7862 C   0  0  1  0  0  0  0  0  0  0  0  0
   11.8847  -16.2552   22.1316 C   0  0  0  0  0  0  0  0  0  0  0  0
   12.2730  -17.2670   23.1765 S   0  0  0  0  0  0  0  0  0  0  0  0
   11.2007  -17.2242   24.6223 C   0  0  0  0  0  0  0  0  0  0  0  0
   12.7410  -16.3503   20.9212 O   0  0  0  0  0  0  0  0  0  0  0  0
   14.0921  -16.1045   20.9630 O   0  0  0  0  0  0  0  0  0  0  0  0
  2  1  1  1
  2  3  1  0
  4  3  1  0
  5  4  2  0
  6  7  1  0
  6  5  1  0
  7 12  2  0
  8  9  2  0
  8  7  1  0
  9 10  1  0
 10 11  2  0
 12  4  1  0
 12 11  1  0
 13 14  2  0
 13  2  1  0
 16 15  1  0
 17 16  2  0
 18 16  1  0
 19 18  1  0
 20 19  1  0
 20 21  1  0
 22 21  1  1
 22 23  1  0
 23 13  1  0
 24 22  1  0
 24 26  1  0
 25 24  2  0
 27 26  1  0
 27 30  1  0
 27 28  1  6
 28 29  1  0
 30 32  2  0
 30 31  1  0
M  END
$$$$
