WRC.pdb
     RDKit          3D

 32 33  0  0  1  0  0  0  0  0999 V2000
    6.4419  -17.2461   24.6291 N   0  0  0  0  0  0  0  0  0  0  0  0
    6.9229  -15.9470   24.1753 C   0  0  1  0  0  0  0  0  0  0  0  0
    8.1122  -15.5346   25.0242 C   0  0  0  0  0  0  0  0  0  0  0  0
    7.6738  -14.7484   26.1995 C   0  0  0  0  0  0  0  0  0  0  0  0
    7.5319  -15.1412   27.5235 C   0  0  0  0  0  0  0  0  0  0  0  0
    7.1059  -14.0936   28.2606 N   0  0  0  0  0  0  0  0  0  0  0  0
    6.9577  -13.0127   27.4742 C   0  0  0  0  0  0  0  0  0  0  0  0
    6.5476  -11.7028   27.7416 C   0  0  0  0  0  0  0  0  0  0  0  0
    6.5018  -10.8202   26.6980 C   0  0  0  0  0  0  0  0  0  0  0  0
    6.8460  -11.1882   25.4076 C   0  0  0  0  0  0  0  0  0  0  0  0
    7.2442  -12.4799   25.1776 C   0  0  0  0  0  0  0  0  0  0  0  0
    7.3057  -13.4065   26.2013 C   0  0  0  0  0  0  0  0  0  0  0  0
    7.4488  -16.1279   22.7751 C   0  0  0  0  0  0  0  0  0  0  0  0
    7.8913  -17.2387   22.3913 O   0  0  0  0  0  0  0  0  0  0  0  0
    7.4651  -13.4757   14.7861 N   0  0  0  0  0  0  0  0  0  0  0  0
    8.4793  -14.3786   15.2559 C   0  0  0  0  0  0  0  0  0  0  0  0
    9.6786  -14.2987   14.8097 N   0  0  0  0  0  0  0  0  0  0  0  0
    8.1882  -15.3816   16.2199 N   0  0  0  0  0  0  0  0  0  0  0  0
    7.6762  -15.0565   17.5337 C   0  0  0  0  0  0  0  0  0  0  0  0
    8.5848  -14.2150   18.3544 C   0  0  0  0  0  0  0  0  0  0  0  0
    7.9936  -13.9780   19.7157 C   0  0  0  0  0  0  0  0  0  0  0  0
    8.0457  -15.2128   20.5492 C   0  0  2  0  0  0  0  0  0  0  0  0
    7.4576  -15.0533   21.8582 N   0  0  0  0  0  0  0  0  0  0  0  0
    9.5132  -15.5071   20.7780 C   0  0  0  0  0  0  0  0  0  0  0  0
   10.2163  -14.6703   21.3722 O   0  0  0  0  0  0  0  0  0  0  0  0
   10.3979  -14.9319   15.2203 N   0  0  0  0  0  0  0  0  0  0  0  0
   10.1124  -16.6938   20.3430 C   0  0  2  0  0  0  0  0  0  0  0  0
   11.5459  -16.8700   20.4403 C   0  0  0  0  0  0  0  0  0  0  0  0
   11.7865  -18.0654   21.3232 S   0  0  0  0  0  0  0  0  0  0  0  0
   11.2859  -17.7850   23.0298 C   0  0  0  0  0  0  0  0  0  0  0  0
   12.1329  -17.0514   19.0876 O   0  0  0  0  0  0  0  0  0  0  0  0
   13.4887  -17.1502   18.8886 O   0  0  0  0  0  0  0  0  0  0  0  0
  2  1  1  1
  2  3  1  0
  4  3  1  0
  5  4  2  0
  6  7  1  0
  6  5  1  0
  7 12  2  0
  8  9  2  0
  8  7  1  0
  9 10  1  0
 10 11  2  0
 12  4  1  0
 12 11  1  0
 13 14  2  0
 13  2  1  0
 16 15  1  0
 17 16  2  0
 18 16  1  0
 19 18  1  0
 20 19  1  0
 20 21  1  0
 22 21  1  6
 22 23  1  0
 23 13  1  0
 24 22  1  0
 24 26  1  0
 25 24  2  0
 27 26  1  0
 27 30  1  0
 27 28  1  6
 28 29  1  0
 30 32  2  0
 30 31  1  0
M  END
$$$$
