WRC.pdb
     RDKit          3D

 32 33  0  0  1  0  0  0  0  0999 V2000
    7.2385  -17.4260   26.1480 N   0  0  0  0  0  0  0  0  0  0  0  0
    7.4663  -16.1772   25.4313 C   0  0  1  0  0  0  0  0  0  0  0  0
    8.6367  -15.4478   26.0663 C   0  0  0  0  0  0  0  0  0  0  0  0
    8.1631  -14.4363   27.0380 C   0  0  0  0  0  0  0  0  0  0  0  0
    8.3467  -14.3764   28.4128 C   0  0  0  0  0  0  0  0  0  0  0  0
    7.7401  -13.2734   28.9003 N   0  0  0  0  0  0  0  0  0  0  0  0
    7.1564  -12.5929   27.8977 C   0  0  0  0  0  0  0  0  0  0  0  0
    6.4152  -11.4074   27.8707 C   0  0  0  0  0  0  0  0  0  0  0  0
    5.9491  -10.9707   26.6614 C   0  0  0  0  0  0  0  0  0  0  0  0
    6.1907  -11.6633   25.4863 C   0  0  0  0  0  0  0  0  0  0  0  0
    6.9208  -12.8223   25.5457 C   0  0  0  0  0  0  0  0  0  0  0  0
    7.4119  -13.3021   26.7452 C   0  0  0  0  0  0  0  0  0  0  0  0
    7.9024  -16.5354   24.0344 C   0  0  0  0  0  0  0  0  0  0  0  0
    8.3499  -17.6790   23.7722 O   0  0  0  0  0  0  0  0  0  0  0  0
   10.7554  -13.2339   17.4163 N   0  0  0  0  0  0  0  0  0  0  0  0
    9.4017  -13.3558   16.9505 C   0  0  0  0  0  0  0  0  0  0  0  0
    9.1466  -13.3888   15.6945 N   0  0  0  0  0  0  0  0  0  0  0  0
    8.3116  -13.4407   17.8584 N   0  0  0  0  0  0  0  0  0  0  0  0
    7.6669  -14.6990   18.1667 C   0  0  0  0  0  0  0  0  0  0  0  0
    8.3264  -15.4768   19.2471 C   0  0  0  0  0  0  0  0  0  0  0  0
    7.8298  -15.0301   20.5934 C   0  0  0  0  0  0  0  0  0  0  0  0
    8.3571  -15.9035   21.6802 C   0  0  2  0  0  0  0  0  0  0  0  0
    7.8192  -15.5945   22.9841 N   0  0  0  0  0  0  0  0  0  0  0  0
    9.8439  -15.6283   21.7602 C   0  0  0  0  0  0  0  0  0  0  0  0
   10.2376  -14.5379   22.2116 O   0  0  0  0  0  0  0  0  0  0  0  0
    8.1737  -13.6173   15.3974 N   0  0  0  0  0  0  0  0  0  0  0  0
   10.7985  -16.5614   21.3423 C   0  0  2  0  0  0  0  0  0  0  0  0
   12.2111  -16.2751   21.4758 C   0  0  0  0  0  0  0  0  0  0  0  0
   12.8343  -17.4435   22.1920 S   0  0  0  0  0  0  0  0  0  0  0  0
   12.0849  -17.7581   23.7986 C   0  0  0  0  0  0  0  0  0  0  0  0
   12.8183  -16.0558   20.1377 O   0  0  0  0  0  0  0  0  0  0  0  0
   14.1311  -15.6804   19.9856 O   0  0  0  0  0  0  0  0  0  0  0  0
  2  1  1  1
  2  3  1  0
  4  3  1  0
  5  4  2  0
  6  7  1  0
  6  5  1  0
  7 12  2  0
  8  9  2  0
  8  7  1  0
  9 10  1  0
 10 11  2  0
 12  4  1  0
 12 11  1  0
 13 14  2  0
 13  2  1  0
 16 15  1  0
 17 16  2  0
 18 16  1  0
 19 18  1  0
 20 19  1  0
 20 21  1  0
 22 21  1  6
 22 23  1  0
 23 13  1  0
 24 22  1  0
 24 26  1  0
 25 24  2  0
 27 26  1  0
 27 30  1  0
 27 28  1  6
 28 29  1  0
 30 32  2  0
 30 31  1  0
M  END
$$$$
