WRC.pdb
     RDKit          3D

 32 33  0  0  1  0  0  0  0  0999 V2000
    7.0084  -19.0490   26.3412 N   0  0  0  0  0  0  0  0  0  0  0  0
    7.7453  -17.7944   26.2527 C   0  0  1  0  0  0  0  0  0  0  0  0
    9.1462  -18.0027   26.7997 C   0  0  0  0  0  0  0  0  0  0  0  0
    9.3520  -17.2150   28.0362 C   0  0  0  0  0  0  0  0  0  0  0  0
    9.6239  -17.6492   29.3266 C   0  0  0  0  0  0  0  0  0  0  0  0
    9.7370  -16.5823   30.1459 N   0  0  0  0  0  0  0  0  0  0  0  0
    9.5496  -15.4485   29.4472 C   0  0  0  0  0  0  0  0  0  0  0  0
    9.5618  -14.1005   29.8189 C   0  0  0  0  0  0  0  0  0  0  0  0
    9.3295  -13.1661   28.8477 C   0  0  0  0  0  0  0  0  0  0  0  0
    9.0874  -13.5189   27.5302 C   0  0  0  0  0  0  0  0  0  0  0  0
    9.0821  -14.8489   27.1972 C   0  0  0  0  0  0  0  0  0  0  0  0
    9.3117  -15.8284   28.1450 C   0  0  0  0  0  0  0  0  0  0  0  0
    7.9090  -17.4730   24.7899 C   0  0  0  0  0  0  0  0  0  0  0  0
    8.1150  -18.3829   23.9492 O   0  0  0  0  0  0  0  0  0  0  0  0
    7.0600  -12.4404   18.6103 N   0  0  0  0  0  0  0  0  0  0  0  0
    7.6505  -13.6794   18.1853 C   0  0  0  0  0  0  0  0  0  0  0  0
    8.4755  -13.7040   17.2042 N   0  0  0  0  0  0  0  0  0  0  0  0
    7.3402  -14.9069   18.8311 N   0  0  0  0  0  0  0  0  0  0  0  0
    7.0306  -14.9733   20.2431 C   0  0  0  0  0  0  0  0  0  0  0  0
    7.9359  -14.1726   21.1072 C   0  0  0  0  0  0  0  0  0  0  0  0
    7.6537  -14.4456   22.5579 C   0  0  0  0  0  0  0  0  0  0  0  0
    8.0272  -15.8407   22.9272 C   0  0  2  0  0  0  0  0  0  0  0  0
    7.8351  -16.1407   24.3264 N   0  0  0  0  0  0  0  0  0  0  0  0
    9.5141  -15.9630   22.6688 C   0  0  0  0  0  0  0  0  0  0  0  0
    9.9733  -15.5968   21.5721 O   0  0  0  0  0  0  0  0  0  0  0  0
    8.8773  -14.6244   16.9242 N   0  0  0  0  0  0  0  0  0  0  0  0
   10.3973  -16.4762   23.6243 C   0  0  1  0  0  0  0  0  0  0  0  0
   11.8020  -16.6363   23.3134 C   0  0  0  0  0  0  0  0  0  0  0  0
   12.5259  -15.4618   23.9159 S   0  0  0  0  0  0  0  0  0  0  0  0
   14.3167  -15.6296   23.8358 C   0  0  0  0  0  0  0  0  0  0  0  0
   12.3009  -17.9297   23.8475 O   0  0  0  0  0  0  0  0  0  0  0  0
   13.5501  -18.4120   23.5402 O   0  0  0  0  0  0  0  0  0  0  0  0
  2  1  1  6
  2  3  1  0
  4  3  1  0
  5  4  2  0
  6  7  1  0
  6  5  1  0
  7 12  2  0
  8  9  2  0
  8  7  1  0
  9 10  1  0
 10 11  2  0
 12  4  1  0
 12 11  1  0
 13 14  2  0
 13  2  1  0
 16 15  1  0
 17 16  2  0
 18 16  1  0
 19 18  1  0
 20 19  1  0
 20 21  1  0
 22 21  1  1
 22 23  1  0
 23 13  1  0
 24 22  1  0
 24 26  1  0
 25 24  2  0
 27 26  1  0
 27 30  1  0
 27 28  1  6
 28 29  1  0
 30 32  2  0
 30 31  1  0
M  END
$$$$
