WRC.pdb
     RDKit          3D

 32 33  0  0  1  0  0  0  0  0999 V2000
    6.9505  -17.6432   26.0503 N   0  0  0  0  0  0  0  0  0  0  0  0
    6.6892  -17.2446   24.6727 C   0  0  1  0  0  0  0  0  0  0  0  0
    6.5344  -15.7353   24.6143 C   0  0  0  0  0  0  0  0  0  0  0  0
    7.3260  -15.0825   25.6815 C   0  0  0  0  0  0  0  0  0  0  0  0
    8.4640  -15.5306   26.3386 C   0  0  0  0  0  0  0  0  0  0  0  0
    8.8544  -14.6074   27.2429 N   0  0  0  0  0  0  0  0  0  0  0  0
    8.0156  -13.5565   27.2133 C   0  0  0  0  0  0  0  0  0  0  0  0
    7.9784  -12.3608   27.9374 C   0  0  0  0  0  0  0  0  0  0  0  0
    6.9711  -11.4772   27.6637 C   0  0  0  0  0  0  0  0  0  0  0  0
    6.0063  -11.7358   26.7038 C   0  0  0  0  0  0  0  0  0  0  0  0
    6.0701  -12.9169   26.0106 C   0  0  0  0  0  0  0  0  0  0  0  0
    7.0698  -13.8400   26.2533 C   0  0  0  0  0  0  0  0  0  0  0  0
    7.9215  -17.5719   23.8701 C   0  0  0  0  0  0  0  0  0  0  0  0
    8.8982  -18.1579   24.3987 O   0  0  0  0  0  0  0  0  0  0  0  0
    9.8530  -13.6005   18.9389 N   0  0  0  0  0  0  0  0  0  0  0  0
    8.5233  -13.4645   18.4116 C   0  0  0  0  0  0  0  0  0  0  0  0
    8.0199  -12.3031   18.2082 N   0  0  0  0  0  0  0  0  0  0  0  0
    7.7296  -14.6025   18.1035 N   0  0  0  0  0  0  0  0  0  0  0  0
    8.1143  -15.9377   18.5078 C   0  0  0  0  0  0  0  0  0  0  0  0
    8.4443  -16.0699   19.9503 C   0  0  0  0  0  0  0  0  0  0  0  0
    8.9564  -17.4514   20.2470 C   0  0  0  0  0  0  0  0  0  0  0  0
    9.1399  -17.6558   21.7121 C   0  0  2  0  0  0  0  0  0  0  0  0
    8.0100  -17.2282   22.5028 N   0  0  0  0  0  0  0  0  0  0  0  0
   10.3001  -16.7727   22.1204 C   0  0  0  0  0  0  0  0  0  0  0  0
   10.1148  -15.5504   22.2601 O   0  0  0  0  0  0  0  0  0  0  0  0
    7.0379  -12.2479   17.8623 N   0  0  0  0  0  0  0  0  0  0  0  0
   11.5821  -17.2836   22.3482 C   0  0  1  0  0  0  0  0  0  0  0  0
   12.5279  -16.5537   23.1656 C   0  0  0  0  0  0  0  0  0  0  0  0
   11.9162  -16.4150   24.5342 S   0  0  0  0  0  0  0  0  0  0  0  0
   13.0703  -15.7609   25.7516 C   0  0  0  0  0  0  0  0  0  0  0  0
   13.8284  -17.2706   23.2086 O   0  0  0  0  0  0  0  0  0  0  0  0
   14.0094  -18.4893   22.6006 O   0  0  0  0  0  0  0  0  0  0  0  0
  2  1  1  1
  2  3  1  0
  4  3  1  0
  5  4  2  0
  6  7  1  0
  6  5  1  0
  7 12  2  0
  8  9  2  0
  8  7  1  0
  9 10  1  0
 10 11  2  0
 12  4  1  0
 12 11  1  0
 13 14  2  0
 13  2  1  0
 16 15  1  0
 17 16  2  0
 18 16  1  0
 19 18  1  0
 20 19  1  0
 20 21  1  0
 22 21  1  6
 22 23  1  0
 23 13  1  0
 24 22  1  0
 24 26  1  0
 25 24  2  0
 27 26  1  0
 27 30  1  0
 27 28  1  6
 28 29  1  0
 30 32  2  0
 30 31  1  0
M  END
$$$$
