WRC.pdb
     RDKit          3D

 32 33  0  0  1  0  0  0  0  0999 V2000
    6.3068  -17.7902   24.5960 N   0  0  0  0  0  0  0  0  0  0  0  0
    7.1407  -16.7326   24.0382 C   0  0  1  0  0  0  0  0  0  0  0  0
    7.9339  -16.0840   25.1586 C   0  0  0  0  0  0  0  0  0  0  0  0
    7.1054  -15.0984   25.8892 C   0  0  0  0  0  0  0  0  0  0  0  0
    5.9995  -15.3029   26.7033 C   0  0  0  0  0  0  0  0  0  0  0  0
    5.5558  -14.1151   27.1664 N   0  0  0  0  0  0  0  0  0  0  0  0
    6.3276  -13.1223   26.6894 C   0  0  0  0  0  0  0  0  0  0  0  0
    6.2924  -11.7353   26.8643 C   0  0  0  0  0  0  0  0  0  0  0  0
    7.2414  -10.9850   26.2268 C   0  0  0  0  0  0  0  0  0  0  0  0
    8.2174  -11.5576   25.4277 C   0  0  0  0  0  0  0  0  0  0  0  0
    8.2254  -12.9202   25.2760 C   0  0  0  0  0  0  0  0  0  0  0  0
    7.2862  -13.7188   25.9009 C   0  0  0  0  0  0  0  0  0  0  0  0
    8.1509  -17.3886   23.1333 C   0  0  0  0  0  0  0  0  0  0  0  0
    8.7057  -18.4664   23.4610 O   0  0  0  0  0  0  0  0  0  0  0  0
    8.1354  -12.3574   18.2785 N   0  0  0  0  0  0  0  0  0  0  0  0
    8.2301  -13.4699   17.3743 C   0  0  0  0  0  0  0  0  0  0  0  0
    7.5411  -13.4900   16.2932 N   0  0  0  0  0  0  0  0  0  0  0  0
    9.0809  -14.5751   17.6475 N   0  0  0  0  0  0  0  0  0  0  0  0
    8.5640  -15.9153   17.8231 C   0  0  0  0  0  0  0  0  0  0  0  0
    8.4388  -16.3428   19.2404 C   0  0  0  0  0  0  0  0  0  0  0  0
    9.7878  -16.6892   19.8052 C   0  0  0  0  0  0  0  0  0  0  0  0
    9.6681  -17.2620   21.1762 C   0  0  2  0  0  0  0  0  0  0  0  0
    8.5000  -16.8085   21.8935 N   0  0  0  0  0  0  0  0  0  0  0  0
   10.8647  -16.7543   21.9528 C   0  0  0  0  0  0  0  0  0  0  0  0
   11.3996  -15.6832   21.6148 O   0  0  0  0  0  0  0  0  0  0  0  0
    7.5421  -14.3655   15.7271 N   0  0  0  0  0  0  0  0  0  0  0  0
   11.3951  -17.4499   23.0442 C   0  0  1  0  0  0  0  0  0  0  0  0
   12.5593  -16.9445   23.7402 C   0  0  0  0  0  0  0  0  0  0  0  0
   12.3814  -17.2735   25.1985 S   0  0  0  0  0  0  0  0  0  0  0  0
   10.8828  -16.5608   25.8972 C   0  0  0  0  0  0  0  0  0  0  0  0
   13.7945  -17.5515   23.1806 O   0  0  0  0  0  0  0  0  0  0  0  0
   15.0471  -17.1048   23.5255 O   0  0  0  0  0  0  0  0  0  0  0  0
  2  1  1  1
  2  3  1  0
  4  3  1  0
  5  4  2  0
  6  7  1  0
  6  5  1  0
  7 12  2  0
  8  9  2  0
  8  7  1  0
  9 10  1  0
 10 11  2  0
 12  4  1  0
 12 11  1  0
 13 14  2  0
 13  2  1  0
 16 15  1  0
 17 16  2  0
 18 16  1  0
 19 18  1  0
 20 19  1  0
 20 21  1  0
 22 21  1  6
 22 23  1  0
 23 13  1  0
 24 22  1  0
 24 26  1  0
 25 24  2  0
 27 26  1  0
 27 30  1  0
 27 28  1  6
 28 29  1  0
 30 32  2  0
 30 31  1  0
M  END
$$$$
