WRC.pdb
     RDKit          3D

 32 33  0  0  1  0  0  0  0  0999 V2000
    6.4820  -18.3069   24.2958 N   0  0  0  0  0  0  0  0  0  0  0  0
    6.5581  -16.8548   24.1927 C   0  0  1  0  0  0  0  0  0  0  0  0
    7.3804  -16.3181   25.3507 C   0  0  0  0  0  0  0  0  0  0  0  0
    6.6691  -15.2154   26.0361 C   0  0  0  0  0  0  0  0  0  0  0  0
    5.3866  -15.1852   26.5669 C   0  0  0  0  0  0  0  0  0  0  0  0
    5.1498  -13.9689   27.1025 N   0  0  0  0  0  0  0  0  0  0  0  0
    6.2308  -13.1839   26.9479 C   0  0  0  0  0  0  0  0  0  0  0  0
    6.4950  -11.8615   27.3181 C   0  0  0  0  0  0  0  0  0  0  0  0
    7.7216  -11.3423   27.0080 C   0  0  0  0  0  0  0  0  0  0  0  0
    8.6886  -12.0831   26.3484 C   0  0  0  0  0  0  0  0  0  0  0  0
    8.3993  -13.3769   25.9988 C   0  0  0  0  0  0  0  0  0  0  0  0
    7.1732  -13.9438   26.2914 C   0  0  0  0  0  0  0  0  0  0  0  0
    7.3346  -16.5344   22.9420 C   0  0  0  0  0  0  0  0  0  0  0  0
    8.1536  -17.3571   22.4633 O   0  0  0  0  0  0  0  0  0  0  0  0
    7.9108  -16.3013   15.8295 N   0  0  0  0  0  0  0  0  0  0  0  0
    8.2009  -14.8973   15.7343 C   0  0  0  0  0  0  0  0  0  0  0  0
    8.1438  -14.2965   14.6031 N   0  0  0  0  0  0  0  0  0  0  0  0
    8.5595  -14.1364   16.8800 N   0  0  0  0  0  0  0  0  0  0  0  0
    7.7841  -14.1777   18.1011 C   0  0  0  0  0  0  0  0  0  0  0  0
    8.3859  -13.4294   19.2347 C   0  0  0  0  0  0  0  0  0  0  0  0
    7.6027  -13.6673   20.4951 C   0  0  0  0  0  0  0  0  0  0  0  0
    7.9097  -15.0050   21.0769 C   0  0  2  0  0  0  0  0  0  0  0  0
    7.1613  -15.3009   22.2757 N   0  0  0  0  0  0  0  0  0  0  0  0
    9.3666  -14.9635   21.4875 C   0  0  0  0  0  0  0  0  0  0  0  0
    9.6762  -14.4606   22.5824 O   0  0  0  0  0  0  0  0  0  0  0  0
    8.3983  -13.2860   14.5710 N   0  0  0  0  0  0  0  0  0  0  0  0
   10.3849  -15.4735   20.6755 C   0  0  1  0  0  0  0  0  0  0  0  0
   11.7085  -15.7013   21.2154 C   0  0  0  0  0  0  0  0  0  0  0  0
   11.5803  -16.7713   22.2666 S   0  0  0  0  0  0  0  0  0  0  0  0
   11.4118  -16.1002   23.9289 C   0  0  0  0  0  0  0  0  0  0  0  0
   12.6432  -16.0976   20.1307 O   0  0  0  0  0  0  0  0  0  0  0  0
   13.9951  -16.2214   20.3424 O   0  0  0  0  0  0  0  0  0  0  0  0
  2  1  1  1
  2  3  1  0
  4  3  1  0
  5  4  2  0
  6  7  1  0
  6  5  1  0
  7 12  2  0
  8  9  2  0
  8  7  1  0
  9 10  1  0
 10 11  2  0
 12  4  1  0
 12 11  1  0
 13 14  2  0
 13  2  1  0
 16 15  1  0
 17 16  2  0
 18 16  1  0
 19 18  1  0
 20 19  1  0
 20 21  1  0
 22 21  1  1
 22 23  1  0
 23 13  1  0
 24 22  1  0
 24 26  1  0
 25 24  2  0
 27 26  1  0
 27 30  1  0
 27 28  1  6
 28 29  1  0
 30 32  2  0
 30 31  1  0
M  END
$$$$
