WRC.pdb
     RDKit          3D

 32 33  0  0  1  0  0  0  0  0999 V2000
    7.2262  -17.6071   25.9309 N   0  0  0  0  0  0  0  0  0  0  0  0
    7.3956  -16.3061   25.2953 C   0  0  1  0  0  0  0  0  0  0  0  0
    8.6869  -15.6780   25.7886 C   0  0  0  0  0  0  0  0  0  0  0  0
    8.4118  -14.6331   26.8006 C   0  0  0  0  0  0  0  0  0  0  0  0
    8.6900  -14.6240   28.1608 C   0  0  0  0  0  0  0  0  0  0  0  0
    8.2641  -13.4619   28.6996 N   0  0  0  0  0  0  0  0  0  0  0  0
    7.7098  -12.6928   27.7456 C   0  0  0  0  0  0  0  0  0  0  0  0
    7.1281  -11.4216   27.7809 C   0  0  0  0  0  0  0  0  0  0  0  0
    6.6455  -10.9052   26.6101 C   0  0  0  0  0  0  0  0  0  0  0  0
    6.7190  -11.6002   25.4140 C   0  0  0  0  0  0  0  0  0  0  0  0
    7.2952  -12.8442   25.4120 C   0  0  0  0  0  0  0  0  0  0  0  0
    7.7964  -13.4064   26.5709 C   0  0  0  0  0  0  0  0  0  0  0  0
    7.5833  -16.5490   23.8203 C   0  0  0  0  0  0  0  0  0  0  0  0
    7.7396  -17.7121   23.3734 O   0  0  0  0  0  0  0  0  0  0  0  0
   10.0040  -14.7062   16.8125 N   0  0  0  0  0  0  0  0  0  0  0  0
    8.8585  -13.9018   16.4883 C   0  0  0  0  0  0  0  0  0  0  0  0
    8.4433  -13.8191   15.2781 N   0  0  0  0  0  0  0  0  0  0  0  0
    8.1565  -13.1765   17.4888 N   0  0  0  0  0  0  0  0  0  0  0  0
    7.1406  -13.7949   18.3131 C   0  0  0  0  0  0  0  0  0  0  0  0
    7.6378  -14.9003   19.1722 C   0  0  0  0  0  0  0  0  0  0  0  0
    7.4266  -14.5726   20.6236 C   0  0  0  0  0  0  0  0  0  0  0  0
    7.8203  -15.7143   21.4976 C   0  0  2  0  0  0  0  0  0  0  0  0
    7.5883  -15.4753   22.9025 N   0  0  0  0  0  0  0  0  0  0  0  0
    9.3176  -15.8728   21.3374 C   0  0  0  0  0  0  0  0  0  0  0  0
   10.0751  -15.0040   21.8053 O   0  0  0  0  0  0  0  0  0  0  0  0
    7.5588  -13.2976   15.0975 N   0  0  0  0  0  0  0  0  0  0  0  0
    9.8852  -16.9681   20.6780 C   0  0  2  0  0  0  0  0  0  0  0  0
   11.3127  -17.0244   20.4448 C   0  0  0  0  0  0  0  0  0  0  0  0
   11.9300  -17.7050   21.6373 S   0  0  0  0  0  0  0  0  0  0  0  0
   10.7743  -18.7805   22.5030 C   0  0  0  0  0  0  0  0  0  0  0  0
   11.5972  -17.7519   19.1811 O   0  0  0  0  0  0  0  0  0  0  0  0
   12.8757  -17.9119   18.7041 O   0  0  0  0  0  0  0  0  0  0  0  0
  2  1  1  1
  2  3  1  0
  4  3  1  0
  5  4  2  0
  6  7  1  0
  6  5  1  0
  7 12  2  0
  8  9  2  0
  8  7  1  0
  9 10  1  0
 10 11  2  0
 12  4  1  0
 12 11  1  0
 13 14  2  0
 13  2  1  0
 16 15  1  0
 17 16  2  0
 18 16  1  0
 19 18  1  0
 20 19  1  0
 20 21  1  0
 22 21  1  6
 22 23  1  0
 23 13  1  0
 24 22  1  0
 24 26  1  0
 25 24  2  0
 27 26  1  0
 27 30  1  0
 27 28  1  1
 28 29  1  0
 30 32  2  0
 30 31  1  0
M  END
$$$$
