WRC.pdb
     RDKit          3D

 32 33  0  0  1  0  0  0  0  0999 V2000
    6.3446  -18.2431   24.3144 N   0  0  0  0  0  0  0  0  0  0  0  0
    6.6918  -16.8684   23.9757 C   0  0  1  0  0  0  0  0  0  0  0  0
    7.4904  -16.2636   25.1166 C   0  0  0  0  0  0  0  0  0  0  0  0
    6.7324  -15.1731   25.7707 C   0  0  0  0  0  0  0  0  0  0  0  0
    5.5380  -15.2258   26.4764 C   0  0  0  0  0  0  0  0  0  0  0  0
    5.2112  -13.9869   26.9014 N   0  0  0  0  0  0  0  0  0  0  0  0
    6.1469  -13.1065   26.5036 C   0  0  0  0  0  0  0  0  0  0  0  0
    6.2763  -11.7254   26.6808 C   0  0  0  0  0  0  0  0  0  0  0  0
    7.3705  -11.1097   26.1387 C   0  0  0  0  0  0  0  0  0  0  0  0
    8.3341  -11.8105   25.4320 C   0  0  0  0  0  0  0  0  0  0  0  0
    8.1789  -13.1637   25.2755 C   0  0  0  0  0  0  0  0  0  0  0  0
    7.0893  -13.8285   25.8057 C   0  0  0  0  0  0  0  0  0  0  0  0
    7.6227  -16.9198   22.7923 C   0  0  0  0  0  0  0  0  0  0  0  0
    8.2559  -17.9683   22.5154 O   0  0  0  0  0  0  0  0  0  0  0  0
    7.5759  -12.7918   16.9931 N   0  0  0  0  0  0  0  0  0  0  0  0
    8.0158  -13.7664   16.0333 C   0  0  0  0  0  0  0  0  0  0  0  0
    7.5425  -13.7655   14.8418 N   0  0  0  0  0  0  0  0  0  0  0  0
    8.9790  -14.7553   16.3713 N   0  0  0  0  0  0  0  0  0  0  0  0
    8.9247  -15.4828   17.6210 C   0  0  0  0  0  0  0  0  0  0  0  0
    9.5427  -14.7731   18.7705 C   0  0  0  0  0  0  0  0  0  0  0  0
    8.5698  -14.6762   19.9119 C   0  0  0  0  0  0  0  0  0  0  0  0
    8.6683  -15.8640   20.8073 C   0  0  2  0  0  0  0  0  0  0  0  0
    7.8071  -15.7906   21.9639 N   0  0  0  0  0  0  0  0  0  0  0  0
   10.0869  -15.8781   21.3367 C   0  0  0  0  0  0  0  0  0  0  0  0
   11.0356  -15.9288   20.5336 O   0  0  0  0  0  0  0  0  0  0  0  0
    7.9923  -14.3860   14.1349 N   0  0  0  0  0  0  0  0  0  0  0  0
   10.3725  -15.8358   22.7053 C   0  0  1  0  0  0  0  0  0  0  0  0
   11.7429  -15.8749   23.1699 C   0  0  0  0  0  0  0  0  0  0  0  0
   11.7553  -15.3028   24.5623 S   0  0  0  0  0  0  0  0  0  0  0  0
   10.8435  -16.3138   25.7406 C   0  0  0  0  0  0  0  0  0  0  0  0
   12.2555  -17.2689   23.1376 O   0  0  0  0  0  0  0  0  0  0  0  0
   13.5630  -17.5719   23.4314 O   0  0  0  0  0  0  0  0  0  0  0  0
  2  1  1  1
  2  3  1  0
  4  3  1  0
  5  4  2  0
  6  7  1  0
  6  5  1  0
  7 12  2  0
  8  9  2  0
  8  7  1  0
  9 10  1  0
 10 11  2  0
 12  4  1  0
 12 11  1  0
 13 14  2  0
 13  2  1  0
 16 15  1  0
 17 16  2  0
 18 16  1  0
 19 18  1  0
 20 19  1  0
 20 21  1  0
 22 21  1  6
 22 23  1  0
 23 13  1  0
 24 22  1  0
 24 26  1  0
 25 24  2  0
 27 26  1  0
 27 30  1  0
 27 28  1  1
 28 29  1  0
 30 32  2  0
 30 31  1  0
M  END
$$$$
