WRC.pdb
     RDKit          3D

 32 33  0  0  1  0  0  0  0  0999 V2000
    6.9165  -17.5363   25.3179 N   0  0  0  0  0  0  0  0  0  0  0  0
    7.1591  -16.2240   24.7315 C   0  0  1  0  0  0  0  0  0  0  0  0
    8.3681  -15.5970   25.4027 C   0  0  0  0  0  0  0  0  0  0  0  0
    7.9544  -14.7217   26.5227 C   0  0  0  0  0  0  0  0  0  0  0  0
    8.1467  -14.8821   27.8883 C   0  0  0  0  0  0  0  0  0  0  0  0
    7.6033  -13.8355   28.5453 N   0  0  0  0  0  0  0  0  0  0  0  0
    7.0534  -12.9801   27.6652 C   0  0  0  0  0  0  0  0  0  0  0  0
    6.3778  -11.7665   27.8280 C   0  0  0  0  0  0  0  0  0  0  0  0
    5.9313  -11.1263   26.7051 C   0  0  0  0  0  0  0  0  0  0  0  0
    6.1297  -11.6435   25.4354 C   0  0  0  0  0  0  0  0  0  0  0  0
    6.7957  -12.8352   25.3088 C   0  0  0  0  0  0  0  0  0  0  0  0
    7.2649  -13.5178   26.4152 C   0  0  0  0  0  0  0  0  0  0  0  0
    7.5438  -16.4410   23.2911 C   0  0  0  0  0  0  0  0  0  0  0  0
    7.7512  -17.5969   22.8464 O   0  0  0  0  0  0  0  0  0  0  0  0
    8.1846  -15.3529   15.4741 N   0  0  0  0  0  0  0  0  0  0  0  0
    8.1028  -13.9223   15.5800 C   0  0  0  0  0  0  0  0  0  0  0  0
    8.4129  -13.1775   14.5836 N   0  0  0  0  0  0  0  0  0  0  0  0
    7.6817  -13.2922   16.7824 N   0  0  0  0  0  0  0  0  0  0  0  0
    8.4482  -13.3862   18.0062 C   0  0  0  0  0  0  0  0  0  0  0  0
    8.2764  -14.6665   18.7400 C   0  0  0  0  0  0  0  0  0  0  0  0
    7.7877  -14.4087   20.1377 C   0  0  0  0  0  0  0  0  0  0  0  0
    8.0706  -15.5682   21.0308 C   0  0  2  0  0  0  0  0  0  0  0  0
    7.6811  -15.3503   22.4039 N   0  0  0  0  0  0  0  0  0  0  0  0
    9.5752  -15.7379   21.0400 C   0  0  0  0  0  0  0  0  0  0  0  0
   10.2984  -14.7455   21.2401 O   0  0  0  0  0  0  0  0  0  0  0  0
    8.3945  -12.1440   14.7193 N   0  0  0  0  0  0  0  0  0  0  0  0
   10.1871  -16.9781   20.8304 C   0  0  1  0  0  0  0  0  0  0  0  0
   11.6301  -17.0914   20.8196 C   0  0  0  0  0  0  0  0  0  0  0  0
   11.9998  -18.1407   21.8339 S   0  0  0  0  0  0  0  0  0  0  0  0
   11.1014  -17.9608   23.3838 C   0  0  0  0  0  0  0  0  0  0  0  0
   12.1064  -17.4436   19.4572 O   0  0  0  0  0  0  0  0  0  0  0  0
   13.4432  -17.5346   19.1532 O   0  0  0  0  0  0  0  0  0  0  0  0
  2  1  1  1
  2  3  1  0
  4  3  1  0
  5  4  2  0
  6  7  1  0
  6  5  1  0
  7 12  2  0
  8  9  2  0
  8  7  1  0
  9 10  1  0
 10 11  2  0
 12  4  1  0
 12 11  1  0
 13 14  2  0
 13  2  1  0
 16 15  1  0
 17 16  2  0
 18 16  1  0
 19 18  1  0
 20 19  1  0
 20 21  1  0
 22 21  1  6
 22 23  1  0
 23 13  1  0
 24 22  1  0
 24 26  1  0
 25 24  2  0
 27 26  1  0
 27 30  1  0
 27 28  1  6
 28 29  1  0
 30 32  2  0
 30 31  1  0
M  END
$$$$
