WRC.pdb
     RDKit          3D

 32 33  0  0  1  0  0  0  0  0999 V2000
    6.4293  -18.0279   25.2330 N   0  0  0  0  0  0  0  0  0  0  0  0
    6.8677  -16.6824   24.8830 C   0  0  1  0  0  0  0  0  0  0  0  0
    8.0336  -16.2934   25.7745 C   0  0  0  0  0  0  0  0  0  0  0  0
    7.6462  -15.2107   26.7068 C   0  0  0  0  0  0  0  0  0  0  0  0
    7.5587  -15.2256   28.0923 C   0  0  0  0  0  0  0  0  0  0  0  0
    7.1660  -14.0111   28.5315 N   0  0  0  0  0  0  0  0  0  0  0  0
    6.9874  -13.1837   27.4863 C   0  0  0  0  0  0  0  0  0  0  0  0
    6.5915  -11.8452   27.4019 C   0  0  0  0  0  0  0  0  0  0  0  0
    6.5042  -11.2801   26.1596 C   0  0  0  0  0  0  0  0  0  0  0  0
    6.7936  -11.9907   25.0062 C   0  0  0  0  0  0  0  0  0  0  0  0
    7.1791  -13.3013   25.1221 C   0  0  0  0  0  0  0  0  0  0  0  0
    7.2813  -13.9143   26.3566 C   0  0  0  0  0  0  0  0  0  0  0  0
    7.4127  -16.7395   23.4796 C   0  0  0  0  0  0  0  0  0  0  0  0
    8.1099  -17.7117   23.0979 O   0  0  0  0  0  0  0  0  0  0  0  0
    8.4684  -12.6961   16.7172 N   0  0  0  0  0  0  0  0  0  0  0  0
    8.2819  -14.0946   16.4458 C   0  0  0  0  0  0  0  0  0  0  0  0
    8.0686  -14.5022   15.2491 N   0  0  0  0  0  0  0  0  0  0  0  0
    8.3249  -15.0623   17.4859 N   0  0  0  0  0  0  0  0  0  0  0  0
    9.0335  -14.8248   18.7251 C   0  0  0  0  0  0  0  0  0  0  0  0
    8.3159  -13.9436   19.6820 C   0  0  0  0  0  0  0  0  0  0  0  0
    7.1748  -14.6831   20.3220 C   0  0  0  0  0  0  0  0  0  0  0  0
    7.6688  -15.7734   21.2104 C   0  0  2  0  0  0  0  0  0  0  0  0
    7.1536  -15.7014   22.5573 N   0  0  0  0  0  0  0  0  0  0  0  0
    9.1670  -15.5835   21.3201 C   0  0  0  0  0  0  0  0  0  0  0  0
    9.6283  -14.4332   21.4287 O   0  0  0  0  0  0  0  0  0  0  0  0
    8.0637  -15.5301   15.0746 N   0  0  0  0  0  0  0  0  0  0  0  0
   10.0585  -16.6612   21.3040 C   0  0  1  0  0  0  0  0  0  0  0  0
   11.4865  -16.4326   21.3674 C   0  0  0  0  0  0  0  0  0  0  0  0
   12.0194  -17.2699   22.4994 S   0  0  0  0  0  0  0  0  0  0  0  0
   11.3412  -16.7951   24.0983 C   0  0  0  0  0  0  0  0  0  0  0  0
   12.1199  -16.7844   20.0704 O   0  0  0  0  0  0  0  0  0  0  0  0
   13.4293  -16.4761   19.7913 O   0  0  0  0  0  0  0  0  0  0  0  0
  2  1  1  1
  2  3  1  0
  4  3  1  0
  5  4  2  0
  6  7  1  0
  6  5  1  0
  7 12  2  0
  8  9  2  0
  8  7  1  0
  9 10  1  0
 10 11  2  0
 12  4  1  0
 12 11  1  0
 13 14  2  0
 13  2  1  0
 16 15  1  0
 17 16  2  0
 18 16  1  0
 19 18  1  0
 20 19  1  0
 20 21  1  0
 22 21  1  6
 22 23  1  0
 23 13  1  0
 24 22  1  0
 24 26  1  0
 25 24  2  0
 27 26  1  0
 27 30  1  0
 27 28  1  6
 28 29  1  0
 30 32  2  0
 30 31  1  0
M  END
$$$$
