WRC.pdb
     RDKit          3D

 32 33  0  0  1  0  0  0  0  0999 V2000
    6.5140  -17.8995   24.3650 N   0  0  0  0  0  0  0  0  0  0  0  0
    6.7665  -16.5016   24.0375 C   0  0  1  0  0  0  0  0  0  0  0  0
    7.7441  -15.9250   25.0460 C   0  0  0  0  0  0  0  0  0  0  0  0
    7.0449  -15.0597   26.0228 C   0  0  0  0  0  0  0  0  0  0  0  0
    6.3427  -15.4075   27.1688 C   0  0  0  0  0  0  0  0  0  0  0  0
    5.8686  -14.2915   27.7622 N   0  0  0  0  0  0  0  0  0  0  0  0
    6.2297  -13.2083   27.0515 C   0  0  0  0  0  0  0  0  0  0  0  0
    5.9960  -11.8417   27.2337 C   0  0  0  0  0  0  0  0  0  0  0  0
    6.5112  -10.9749   26.3100 C   0  0  0  0  0  0  0  0  0  0  0  0
    7.2451  -11.4125   25.2196 C   0  0  0  0  0  0  0  0  0  0  0  0
    7.4572  -12.7586   25.0687 C   0  0  0  0  0  0  0  0  0  0  0  0
    6.9557  -13.6718   25.9770 C   0  0  0  0  0  0  0  0  0  0  0  0
    7.4710  -16.4734   22.7061 C   0  0  0  0  0  0  0  0  0  0  0  0
    8.1966  -17.4309   22.3404 O   0  0  0  0  0  0  0  0  0  0  0  0
    7.8111  -13.2952   14.2636 N   0  0  0  0  0  0  0  0  0  0  0  0
    8.1300  -14.4030   15.1212 C   0  0  0  0  0  0  0  0  0  0  0  0
    8.9147  -15.3332   14.7175 N   0  0  0  0  0  0  0  0  0  0  0  0
    7.5892  -14.5040   16.4316 N   0  0  0  0  0  0  0  0  0  0  0  0
    7.8783  -13.5254   17.4577 C   0  0  0  0  0  0  0  0  0  0  0  0
    8.7056  -14.0398   18.5793 C   0  0  0  0  0  0  0  0  0  0  0  0
    7.9176  -14.0325   19.8590 C   0  0  0  0  0  0  0  0  0  0  0  0
    8.0716  -15.3197   20.5951 C   0  0  2  0  0  0  0  0  0  0  0  0
    7.3337  -15.3698   21.8351 N   0  0  0  0  0  0  0  0  0  0  0  0
    9.5353  -15.4201   20.9698 C   0  0  0  0  0  0  0  0  0  0  0  0
    9.9439  -14.8356   21.9892 O   0  0  0  0  0  0  0  0  0  0  0  0
    9.1067  -16.1280   15.3644 N   0  0  0  0  0  0  0  0  0  0  0  0
   10.4519  -16.1510   20.2070 C   0  0  2  0  0  0  0  0  0  0  0  0
   11.7964  -16.3762   20.6938 C   0  0  0  0  0  0  0  0  0  0  0  0
   11.6774  -17.1301   21.9915 S   0  0  0  0  0  0  0  0  0  0  0  0
   13.2654  -17.7121   22.6089 C   0  0  0  0  0  0  0  0  0  0  0  0
   12.5873  -17.1278   19.6854 O   0  0  0  0  0  0  0  0  0  0  0  0
   11.9933  -17.7840   18.6346 O   0  0  0  0  0  0  0  0  0  0  0  0
  2  1  1  1
  2  3  1  0
  4  3  1  0
  5  4  2  0
  6  7  1  0
  6  5  1  0
  7 12  2  0
  8  9  2  0
  8  7  1  0
  9 10  1  0
 10 11  2  0
 12  4  1  0
 12 11  1  0
 13 14  2  0
 13  2  1  0
 16 15  1  0
 17 16  2  0
 18 16  1  0
 19 18  1  0
 20 19  1  0
 20 21  1  0
 22 21  1  1
 22 23  1  0
 23 13  1  0
 24 22  1  0
 24 26  1  0
 25 24  2  0
 27 26  1  0
 27 30  1  0
 27 28  1  1
 28 29  1  0
 30 32  2  0
 30 31  1  0
M  END
$$$$
