WRC.pdb
     RDKit          3D

 32 33  0  0  1  0  0  0  0  0999 V2000
    6.5311  -17.5102   24.1750 N   0  0  0  0  0  0  0  0  0  0  0  0
    7.1811  -16.3748   23.5319 C   0  0  1  0  0  0  0  0  0  0  0  0
    7.8863  -15.5437   24.5888 C   0  0  0  0  0  0  0  0  0  0  0  0
    6.9162  -14.7224   25.3477 C   0  0  0  0  0  0  0  0  0  0  0  0
    5.8094  -15.1180   26.0865 C   0  0  0  0  0  0  0  0  0  0  0  0
    5.2082  -14.0305   26.6139 N   0  0  0  0  0  0  0  0  0  0  0  0
    5.8754  -12.9201   26.2527 C   0  0  0  0  0  0  0  0  0  0  0  0
    5.6678  -11.5650   26.5288 C   0  0  0  0  0  0  0  0  0  0  0  0
    6.5465  -10.6612   25.9986 C   0  0  0  0  0  0  0  0  0  0  0  0
    7.6165  -11.0511   25.2099 C   0  0  0  0  0  0  0  0  0  0  0  0
    7.7933  -12.3871   24.9573 C   0  0  0  0  0  0  0  0  0  0  0  0
    6.9306  -13.3364   25.4718 C   0  0  0  0  0  0  0  0  0  0  0  0
    8.2627  -16.9245   22.6388 C   0  0  0  0  0  0  0  0  0  0  0  0
    8.6969  -18.0923   22.7961 O   0  0  0  0  0  0  0  0  0  0  0  0
    7.1227  -13.0623   15.2350 N   0  0  0  0  0  0  0  0  0  0  0  0
    8.0687  -13.8055   16.0206 C   0  0  0  0  0  0  0  0  0  0  0  0
    8.8450  -14.6616   15.4656 N   0  0  0  0  0  0  0  0  0  0  0  0
    8.1719  -13.6191   17.4259 N   0  0  0  0  0  0  0  0  0  0  0  0
    9.3094  -14.0984   18.1812 C   0  0  0  0  0  0  0  0  0  0  0  0
    9.0433  -15.3232   18.9787 C   0  0  0  0  0  0  0  0  0  0  0  0
   10.2952  -15.7786   19.6744 C   0  0  0  0  0  0  0  0  0  0  0  0
    9.9761  -16.6014   20.8759 C   0  0  2  0  0  0  0  0  0  0  0  0
    8.8161  -16.1409   21.6019 N   0  0  0  0  0  0  0  0  0  0  0  0
   11.1521  -16.4489   21.8174 C   0  0  0  0  0  0  0  0  0  0  0  0
   11.9155  -15.4755   21.6851 O   0  0  0  0  0  0  0  0  0  0  0  0
    9.5409  -15.1541   16.0657 N   0  0  0  0  0  0  0  0  0  0  0  0
   11.4142  -17.3686   22.8382 C   0  0  1  0  0  0  0  0  0  0  0  0
   12.6705  -17.3288   23.5562 C   0  0  0  0  0  0  0  0  0  0  0  0
   12.3472  -17.4471   25.0218 S   0  0  0  0  0  0  0  0  0  0  0  0
   10.7444  -16.7426   25.4422 C   0  0  0  0  0  0  0  0  0  0  0  0
   13.5601  -18.4251   23.0935 O   0  0  0  0  0  0  0  0  0  0  0  0
   14.8298  -18.5925   23.5910 O   0  0  0  0  0  0  0  0  0  0  0  0
  2  1  1  1
  2  3  1  0
  4  3  1  0
  5  4  2  0
  6  7  1  0
  6  5  1  0
  7 12  2  0
  8  9  2  0
  8  7  1  0
  9 10  1  0
 10 11  2  0
 12  4  1  0
 12 11  1  0
 13 14  2  0
 13  2  1  0
 16 15  1  0
 17 16  2  0
 18 16  1  0
 19 18  1  0
 20 19  1  0
 20 21  1  0
 22 21  1  6
 22 23  1  0
 23 13  1  0
 24 22  1  0
 24 26  1  0
 25 24  2  0
 27 26  1  0
 27 30  1  0
 27 28  1  1
 28 29  1  0
 30 32  2  0
 30 31  1  0
M  END
$$$$
