IHF.pdb
     RDKit          3D

 30 31  0  0  1  0  0  0  0  0999 V2000
    7.5993  -11.8415   21.6312 C   0  0  0  0  0  0  0  0  0  0  0  0
    7.2238  -13.2729   21.3736 C   0  0  0  0  0  0  0  0  0  0  0  0
    8.2409  -13.8445   20.4111 C   0  0  2  0  0  0  0  0  0  0  0  0
    8.2916  -13.0645   19.1198 C   0  0  0  0  0  0  0  0  0  0  0  0
    8.0088  -15.2823   20.1028 C   0  0  2  0  0  0  0  0  0  0  0  0
    6.7804  -15.5749   19.4399 N   0  0  0  0  0  0  0  0  0  0  0  0
    8.1242  -16.1111   21.3733 C   0  0  0  0  0  0  0  0  0  0  0  0
    7.0910  -16.5820   21.8982 O   0  0  0  0  0  0  0  0  0  0  0  0
    9.3732  -16.3533   21.9623 N   0  0  0  0  0  0  0  0  0  0  0  0
    9.7178  -17.1836   23.0758 C   0  0  1  0  0  0  0  0  0  0  0  0
   10.6415  -18.3429   22.7940 C   0  0  0  0  0  0  0  0  0  0  0  0
   10.1310  -19.3332   21.8509 C   0  0  0  0  0  0  0  0  0  0  0  0
   10.3643  -19.4772   20.5161 C   0  0  0  0  0  0  0  0  0  0  0  0
    9.6336  -20.5038   20.0076 N   0  0  0  0  0  0  0  0  0  0  0  0
    8.9447  -20.9937   21.0444 C   0  0  0  0  0  0  0  0  0  0  0  0
    9.2453  -20.2824   22.1708 N   0  0  0  0  0  0  0  0  0  0  0  0
    9.9975  -16.5072   24.3317 C   0  0  0  0  0  0  0  0  0  0  0  0
   10.9259  -15.6617   24.4240 O   0  0  0  0  0  0  0  0  0  0  0  0
    9.2577  -16.7395   25.5433 N   0  0  0  0  0  0  0  0  0  0  0  0
    9.6025  -16.0563   26.7744 C   0  0  1  0  0  0  0  0  0  0  0  0
    8.3764  -15.5118   27.4816 C   0  0  0  0  0  0  0  0  0  0  0  0
    7.8705  -14.3347   26.7409 C   0  0  0  0  0  0  0  0  0  0  0  0
    8.5547  -13.1611   26.7993 C   0  0  0  0  0  0  0  0  0  0  0  0
    8.1158  -12.0475   26.1253 C   0  0  0  0  0  0  0  0  0  0  0  0
    6.9612  -12.1421   25.3837 C   0  0  0  0  0  0  0  0  0  0  0  0
    6.2539  -13.3307   25.3149 C   0  0  0  0  0  0  0  0  0  0  0  0
    6.7236  -14.4258   26.0032 C   0  0  0  0  0  0  0  0  0  0  0  0
   10.2312  -17.0463   27.6776 C   0  0  0  0  0  0  0  0  0  0  0  0
   10.2572  -18.2629   27.3844 O   0  0  0  0  0  0  0  0  0  0  0  0
   10.8093  -16.6533   28.8748 O   0  0  0  0  0  0  0  0  0  0  0  0
  1  2  1  0
  3  4  1  6
  3  2  1  0
  5  6  1  1
  5  3  1  0
  7  8  2  0
  7  5  1  0
  9  7  1  0
 10 17  1  0
 10  9  1  0
 10 11  1  6
 12 16  1  0
 12 11  1  0
 13 12  2  0
 14 13  1  0
 14 15  1  0
 15 16  2  0
 17 19  1  0
 18 17  2  0
 19 20  1  0
 20 28  1  0
 20 21  1  1
 22 21  1  0
 23 22  2  0
 24 23  1  0
 25 24  2  0
 25 26  1  0
 26 27  2  0
 27 22  1  0
 28 29  2  0
 28 30  1  0
M  END
$$$$
