IHF.pdb
     RDKit          3D

 30 31  0  0  1  0  0  0  0  0999 V2000
    7.6736  -11.7135   19.6871 C   0  0  0  0  0  0  0  0  0  0  0  0
    7.6788  -13.1936   19.4306 C   0  0  0  0  0  0  0  0  0  0  0  0
    7.9021  -13.8851   20.7571 C   0  0  2  0  0  0  0  0  0  0  0  0
    9.2142  -13.4829   21.3855 C   0  0  0  0  0  0  0  0  0  0  0  0
    7.8440  -15.3693   20.6584 C   0  0  2  0  0  0  0  0  0  0  0  0
    6.6925  -15.8937   20.0004 N   0  0  0  0  0  0  0  0  0  0  0  0
    7.9789  -15.9876   22.0418 C   0  0  0  0  0  0  0  0  0  0  0  0
    6.9605  -16.1353   22.7531 O   0  0  0  0  0  0  0  0  0  0  0  0
    9.2294  -16.3933   22.5288 N   0  0  0  0  0  0  0  0  0  0  0  0
    9.5585  -17.1435   23.7022 C   0  0  1  0  0  0  0  0  0  0  0  0
   10.3348  -18.4202   23.4926 C   0  0  0  0  0  0  0  0  0  0  0  0
    9.7533  -19.3542   22.5333 C   0  0  0  0  0  0  0  0  0  0  0  0
    8.4658  -19.7760   22.3875 C   0  0  0  0  0  0  0  0  0  0  0  0
    8.3719  -20.7038   21.3992 N   0  0  0  0  0  0  0  0  0  0  0  0
    9.6178  -20.8513   20.9347 C   0  0  0  0  0  0  0  0  0  0  0  0
   10.4636  -20.0298   21.6239 N   0  0  0  0  0  0  0  0  0  0  0  0
    9.9906  -16.3823   24.8629 C   0  0  0  0  0  0  0  0  0  0  0  0
   10.9830  -15.6097   24.8031 O   0  0  0  0  0  0  0  0  0  0  0  0
    9.3393  -16.4450   26.1439 N   0  0  0  0  0  0  0  0  0  0  0  0
    9.8995  -15.7783   27.3027 C   0  0  1  0  0  0  0  0  0  0  0  0
    8.8237  -15.1587   28.1738 C   0  0  0  0  0  0  0  0  0  0  0  0
    8.1359  -14.0922   27.4124 C   0  0  0  0  0  0  0  0  0  0  0  0
    6.9629  -14.3682   26.7825 C   0  0  0  0  0  0  0  0  0  0  0  0
    6.2960  -13.4041   26.0663 C   0  0  0  0  0  0  0  0  0  0  0  0
    6.8414  -12.1433   25.9973 C   0  0  0  0  0  0  0  0  0  0  0  0
    8.0354  -11.8476   26.6337 C   0  0  0  0  0  0  0  0  0  0  0  0
    8.6756  -12.8385   27.3421 C   0  0  0  0  0  0  0  0  0  0  0  0
   10.5945  -16.8001   28.1175 C   0  0  0  0  0  0  0  0  0  0  0  0
   11.2102  -16.4850   29.1609 O   0  0  0  0  0  0  0  0  0  0  0  0
   10.5830  -18.1361   27.7476 O   0  0  0  0  0  0  0  0  0  0  0  0
  1  2  1  0
  3  4  1  6
  3  2  1  0
  5  6  1  1
  5  3  1  0
  7  8  2  0
  7  5  1  0
  9  7  1  0
 10 17  1  0
 10  9  1  0
 10 11  1  6
 12 16  1  0
 12 11  1  0
 13 12  2  0
 14 13  1  0
 14 15  1  0
 15 16  2  0
 17 19  1  0
 18 17  2  0
 19 20  1  0
 20 28  1  0
 20 21  1  1
 22 21  1  0
 23 22  2  0
 24 23  1  0
 25 24  2  0
 25 26  1  0
 26 27  2  0
 27 22  1  0
 28 29  2  0
 28 30  1  0
M  END
$$$$
