IHF.pdb
     RDKit          3D

 30 31  0  0  1  0  0  0  0  0999 V2000
    8.4377  -12.0250   21.0610 C   0  0  0  0  0  0  0  0  0  0  0  0
    7.8467  -13.3965   21.2221 C   0  0  0  0  0  0  0  0  0  0  0  0
    8.5257  -14.3055   20.2219 C   0  0  2  0  0  0  0  0  0  0  0  0
    8.4607  -13.7465   18.8213 C   0  0  0  0  0  0  0  0  0  0  0  0
    7.9733  -15.6878   20.2208 C   0  0  2  0  0  0  0  0  0  0  0  0
    6.6217  -15.8057   19.7811 N   0  0  0  0  0  0  0  0  0  0  0  0
    8.1273  -16.3099   21.6005 C   0  0  0  0  0  0  0  0  0  0  0  0
    7.1357  -16.3785   22.3601 O   0  0  0  0  0  0  0  0  0  0  0  0
    9.3658  -16.8066   22.0306 N   0  0  0  0  0  0  0  0  0  0  0  0
    9.7262  -17.4275   23.2686 C   0  0  1  0  0  0  0  0  0  0  0  0
   10.2688  -18.8330   23.1869 C   0  0  0  0  0  0  0  0  0  0  0  0
    9.4400  -19.7803   22.4476 C   0  0  0  0  0  0  0  0  0  0  0  0
    9.2953  -19.9595   21.1045 C   0  0  0  0  0  0  0  0  0  0  0  0
    8.3679  -20.9177   20.8436 N   0  0  0  0  0  0  0  0  0  0  0  0
    7.9399  -21.3298   22.0423 C   0  0  0  0  0  0  0  0  0  0  0  0
    8.5914  -20.6384   23.0234 N   0  0  0  0  0  0  0  0  0  0  0  0
   10.4129  -16.5931   24.2409 C   0  0  0  0  0  0  0  0  0  0  0  0
   11.4230  -15.9138   23.9192 O   0  0  0  0  0  0  0  0  0  0  0  0
   10.0081  -16.4754   25.6163 N   0  0  0  0  0  0  0  0  0  0  0  0
   10.7159  -15.6045   26.5337 C   0  0  1  0  0  0  0  0  0  0  0  0
   10.4782  -14.1397   26.2202 C   0  0  0  0  0  0  0  0  0  0  0  0
    9.0519  -13.8187   26.4497 C   0  0  0  0  0  0  0  0  0  0  0  0
    8.0987  -14.4187   25.6879 C   0  0  0  0  0  0  0  0  0  0  0  0
    6.7651  -14.1456   25.8718 C   0  0  0  0  0  0  0  0  0  0  0  0
    6.4082  -13.2462   26.8493 C   0  0  0  0  0  0  0  0  0  0  0  0
    7.3679  -12.6274   27.6329 C   0  0  0  0  0  0  0  0  0  0  0  0
    8.6945  -12.9254   27.4203 C   0  0  0  0  0  0  0  0  0  0  0  0
   10.1871  -15.8575   27.8929 C   0  0  0  0  0  0  0  0  0  0  0  0
   10.5928  -15.1983   28.8768 O   0  0  0  0  0  0  0  0  0  0  0  0
    9.2268  -16.8324   28.1146 O   0  0  0  0  0  0  0  0  0  0  0  0
  1  2  1  0
  3  4  1  6
  3  2  1  0
  5  6  1  1
  5  3  1  0
  7  8  2  0
  7  5  1  0
  9  7  1  0
 10 17  1  0
 10  9  1  0
 10 11  1  6
 12 16  1  0
 12 11  1  0
 13 12  2  0
 14 13  1  0
 14 15  1  0
 15 16  2  0
 17 19  1  0
 18 17  2  0
 19 20  1  0
 20 28  1  0
 20 21  1  6
 22 21  1  0
 23 22  2  0
 24 23  1  0
 25 24  2  0
 25 26  1  0
 26 27  2  0
 27 22  1  0
 28 29  2  0
 28 30  1  0
M  END
$$$$
