IHF.pdb
     RDKit          3D

 30 31  0  0  1  0  0  0  0  0999 V2000
    7.1279  -11.7869   19.8223 C   0  0  0  0  0  0  0  0  0  0  0  0
    7.6373  -13.1133   19.3351 C   0  0  0  0  0  0  0  0  0  0  0  0
    7.8141  -14.0053   20.5437 C   0  0  2  0  0  0  0  0  0  0  0  0
    8.8353  -13.4497   21.5064 C   0  0  0  0  0  0  0  0  0  0  0  0
    8.1885  -15.4016   20.1887 C   0  0  2  0  0  0  0  0  0  0  0  0
    7.3839  -16.0134   19.1826 N   0  0  0  0  0  0  0  0  0  0  0  0
    8.2062  -16.2685   21.4387 C   0  0  0  0  0  0  0  0  0  0  0  0
    7.1254  -16.6041   21.9716 O   0  0  0  0  0  0  0  0  0  0  0  0
    9.4179  -16.6954   22.0000 N   0  0  0  0  0  0  0  0  0  0  0  0
    9.6595  -17.5274   23.1391 C   0  0  1  0  0  0  0  0  0  0  0  0
   10.6001  -18.6901   22.9395 C   0  0  0  0  0  0  0  0  0  0  0  0
   10.2187  -19.6286   21.8885 C   0  0  0  0  0  0  0  0  0  0  0  0
    9.0180  -20.2193   21.6316 C   0  0  0  0  0  0  0  0  0  0  0  0
    9.1188  -21.0798   20.5848 N   0  0  0  0  0  0  0  0  0  0  0  0
   10.3974  -21.0144   20.1966 C   0  0  0  0  0  0  0  0  0  0  0  0
   11.0718  -20.1302   20.9893 N   0  0  0  0  0  0  0  0  0  0  0  0
    9.8295  -16.8523   24.4152 C   0  0  0  0  0  0  0  0  0  0  0  0
   10.7548  -16.0171   24.5927 O   0  0  0  0  0  0  0  0  0  0  0  0
    8.9784  -17.0748   25.5534 N   0  0  0  0  0  0  0  0  0  0  0  0
    9.2821  -16.4856   26.8425 C   0  0  1  0  0  0  0  0  0  0  0  0
    8.0678  -15.8185   27.4596 C   0  0  0  0  0  0  0  0  0  0  0  0
    7.8906  -14.4785   26.8569 C   0  0  0  0  0  0  0  0  0  0  0  0
    8.8896  -13.5614   26.9559 C   0  0  0  0  0  0  0  0  0  0  0  0
    8.7612  -12.3078   26.4094 C   0  0  0  0  0  0  0  0  0  0  0  0
    7.5931  -11.9942   25.7542 C   0  0  0  0  0  0  0  0  0  0  0  0
    6.5671  -12.9179   25.6454 C   0  0  0  0  0  0  0  0  0  0  0  0
    6.7310  -14.1642   26.2054 C   0  0  0  0  0  0  0  0  0  0  0  0
    9.6956  -17.5789   27.7508 C   0  0  0  0  0  0  0  0  0  0  0  0
    9.6090  -18.7774   27.4001 O   0  0  0  0  0  0  0  0  0  0  0  0
   10.1907  -17.3057   29.0165 O   0  0  0  0  0  0  0  0  0  0  0  0
  1  2  1  0
  3  4  1  1
  3  2  1  0
  5  6  1  6
  5  3  1  0
  7  8  2  0
  7  5  1  0
  9  7  1  0
 10 17  1  0
 10  9  1  0
 10 11  1  6
 12 16  1  0
 12 11  1  0
 13 12  2  0
 14 13  1  0
 14 15  1  0
 15 16  2  0
 17 19  1  0
 18 17  2  0
 19 20  1  0
 20 28  1  0
 20 21  1  1
 22 21  1  0
 23 22  2  0
 24 23  1  0
 25 24  2  0
 25 26  1  0
 26 27  2  0
 27 22  1  0
 28 29  2  0
 28 30  1  0
M  END
$$$$
