IHF.pdb
     RDKit          3D

 30 31  0  0  1  0  0  0  0  0999 V2000
    7.5292  -11.6700   20.6229 C   0  0  0  0  0  0  0  0  0  0  0  0
    7.1899  -13.1321   20.6828 C   0  0  0  0  0  0  0  0  0  0  0  0
    8.3561  -13.8949   20.0948 C   0  0  2  0  0  0  0  0  0  0  0  0
    8.7421  -13.3683   18.7339 C   0  0  0  0  0  0  0  0  0  0  0  0
    8.1061  -15.3591   19.9976 C   0  0  2  0  0  0  0  0  0  0  0  0
    7.1481  -15.7520   19.0169 N   0  0  0  0  0  0  0  0  0  0  0  0
    7.7119  -15.9104   21.3596 C   0  0  0  0  0  0  0  0  0  0  0  0
    6.5720  -16.4002   21.5200 O   0  0  0  0  0  0  0  0  0  0  0  0
    8.6095  -15.8761   22.4359 N   0  0  0  0  0  0  0  0  0  0  0  0
    9.1894  -16.9505   23.1826 C   0  0  1  0  0  0  0  0  0  0  0  0
    9.3395  -18.2688   22.4643 C   0  0  0  0  0  0  0  0  0  0  0  0
    9.7857  -19.3844   23.2933 C   0  0  0  0  0  0  0  0  0  0  0  0
   10.1606  -19.4107   24.6031 C   0  0  0  0  0  0  0  0  0  0  0  0
   10.5658  -20.6567   24.9631 N   0  0  0  0  0  0  0  0  0  0  0  0
   10.4372  -21.4018   23.8594 C   0  0  0  0  0  0  0  0  0  0  0  0
    9.9616  -20.6294   22.8385 N   0  0  0  0  0  0  0  0  0  0  0  0
   10.3205  -16.6176   24.0328 C   0  0  0  0  0  0  0  0  0  0  0  0
   11.3788  -17.2993   24.0062 O   0  0  0  0  0  0  0  0  0  0  0  0
   10.3274  -15.5113   24.9521 N   0  0  0  0  0  0  0  0  0  0  0  0
    9.4397  -15.4837   26.0978 C   0  0  1  0  0  0  0  0  0  0  0  0
    7.9831  -15.4041   25.6829 C   0  0  0  0  0  0  0  0  0  0  0  0
    7.5306  -13.9974   25.7643 C   0  0  0  0  0  0  0  0  0  0  0  0
    8.4310  -13.0190   26.0488 C   0  0  0  0  0  0  0  0  0  0  0  0
    8.0481  -11.7024   26.1328 C   0  0  0  0  0  0  0  0  0  0  0  0
    6.7255  -11.3891   25.9219 C   0  0  0  0  0  0  0  0  0  0  0  0
    5.7973  -12.3749   25.6312 C   0  0  0  0  0  0  0  0  0  0  0  0
    6.2171  -13.6832   25.5552 C   0  0  0  0  0  0  0  0  0  0  0  0
    9.6203  -16.7530   26.8377 C   0  0  0  0  0  0  0  0  0  0  0  0
    9.1746  -17.8324   26.3868 O   0  0  0  0  0  0  0  0  0  0  0  0
   10.2887  -16.7820   28.0518 O   0  0  0  0  0  0  0  0  0  0  0  0
  1  2  1  0
  3  4  1  6
  3  2  1  0
  5  6  1  6
  5  3  1  0
  7  8  2  0
  7  5  1  0
  9  7  1  0
 10 17  1  0
 10  9  1  0
 10 11  1  6
 12 16  1  0
 12 11  1  0
 13 12  2  0
 14 13  1  0
 14 15  1  0
 15 16  2  0
 17 19  1  0
 18 17  2  0
 19 20  1  0
 20 28  1  0
 20 21  1  6
 22 21  1  0
 23 22  2  0
 24 23  1  0
 25 24  2  0
 25 26  1  0
 26 27  2  0
 27 22  1  0
 28 29  2  0
 28 30  1  0
M  END
$$$$
