IHF.pdb
     RDKit          3D

 30 31  0  0  1  0  0  0  0  0999 V2000
    8.0412  -11.9684   19.1637 C   0  0  0  0  0  0  0  0  0  0  0  0
    7.8009  -13.4328   18.9311 C   0  0  0  0  0  0  0  0  0  0  0  0
    7.7422  -14.1055   20.2846 C   0  0  2  0  0  0  0  0  0  0  0  0
    9.0411  -13.9612   21.0397 C   0  0  0  0  0  0  0  0  0  0  0  0
    7.3832  -15.5479   20.2041 C   0  0  2  0  0  0  0  0  0  0  0  0
    6.2753  -15.8562   19.3607 N   0  0  0  0  0  0  0  0  0  0  0  0
    7.1436  -16.1023   21.6005 C   0  0  0  0  0  0  0  0  0  0  0  0
    6.1794  -15.6781   22.2751 O   0  0  0  0  0  0  0  0  0  0  0  0
    7.9896  -17.0816   22.1397 N   0  0  0  0  0  0  0  0  0  0  0  0
    8.0618  -17.6003   23.4716 C   0  0  1  0  0  0  0  0  0  0  0  0
    7.9274  -19.0954   23.6227 C   0  0  0  0  0  0  0  0  0  0  0  0
    7.9378  -19.5876   24.9969 C   0  0  0  0  0  0  0  0  0  0  0  0
    6.9741  -19.5289   25.9585 C   0  0  0  0  0  0  0  0  0  0  0  0
    7.4253  -20.0586   27.1256 N   0  0  0  0  0  0  0  0  0  0  0  0
    8.6809  -20.4462   26.8746 C   0  0  0  0  0  0  0  0  0  0  0  0
    8.9974  -20.1606   25.5772 N   0  0  0  0  0  0  0  0  0  0  0  0
    9.0636  -17.0136   24.3464 C   0  0  0  0  0  0  0  0  0  0  0  0
   10.2691  -16.9296   23.9927 O   0  0  0  0  0  0  0  0  0  0  0  0
    8.7714  -16.4929   25.6551 N   0  0  0  0  0  0  0  0  0  0  0  0
    9.8330  -16.0779   26.5506 C   0  0  1  0  0  0  0  0  0  0  0  0
   10.1316  -14.5962   26.4254 C   0  0  0  0  0  0  0  0  0  0  0  0
    8.8860  -13.8288   26.6477 C   0  0  0  0  0  0  0  0  0  0  0  0
    7.9530  -13.7645   25.6606 C   0  0  0  0  0  0  0  0  0  0  0  0
    6.7850  -13.0618   25.8304 C   0  0  0  0  0  0  0  0  0  0  0  0
    6.5744  -12.4186   27.0278 C   0  0  0  0  0  0  0  0  0  0  0  0
    7.5156  -12.4752   28.0422 C   0  0  0  0  0  0  0  0  0  0  0  0
    8.6742  -13.1887   27.8365 C   0  0  0  0  0  0  0  0  0  0  0  0
    9.3735  -16.3211   27.9365 C   0  0  0  0  0  0  0  0  0  0  0  0
    8.1970  -16.6767   28.1739 O   0  0  0  0  0  0  0  0  0  0  0  0
   10.2342  -16.1617   29.0116 O   0  0  0  0  0  0  0  0  0  0  0  0
  1  2  1  0
  3  4  1  6
  3  2  1  0
  5  6  1  6
  5  3  1  0
  7  8  2  0
  7  5  1  0
  9  7  1  0
 10 17  1  0
 10  9  1  0
 10 11  1  6
 12 16  1  0
 12 11  1  0
 13 12  2  0
 14 13  1  0
 14 15  1  0
 15 16  2  0
 17 19  1  0
 18 17  2  0
 19 20  1  0
 20 28  1  0
 20 21  1  1
 22 21  1  0
 23 22  2  0
 24 23  1  0
 25 24  2  0
 25 26  1  0
 26 27  2  0
 27 22  1  0
 28 29  2  0
 28 30  1  0
M  END
$$$$
