IHF.pdb
     RDKit          3D

 30 31  0  0  1  0  0  0  0  0999 V2000
    8.2717  -11.8583   18.7664 C   0  0  0  0  0  0  0  0  0  0  0  0
    8.3205  -13.3269   18.4543 C   0  0  0  0  0  0  0  0  0  0  0  0
    8.0660  -14.0753   19.7438 C   0  0  2  0  0  0  0  0  0  0  0  0
    9.1057  -13.7582   20.7911 C   0  0  0  0  0  0  0  0  0  0  0  0
    7.9961  -15.5507   19.5580 C   0  0  2  0  0  0  0  0  0  0  0  0
    7.0895  -15.9979   18.5520 N   0  0  0  0  0  0  0  0  0  0  0  0
    7.6770  -16.2266   20.8830 C   0  0  0  0  0  0  0  0  0  0  0  0
    6.5183  -16.1540   21.3489 O   0  0  0  0  0  0  0  0  0  0  0  0
    8.6647  -16.9290   21.5876 N   0  0  0  0  0  0  0  0  0  0  0  0
    8.6184  -17.5204   22.8900 C   0  0  1  0  0  0  0  0  0  0  0  0
    8.5357  -19.0258   22.9461 C   0  0  0  0  0  0  0  0  0  0  0  0
    8.4681  -19.5980   24.2873 C   0  0  0  0  0  0  0  0  0  0  0  0
    9.4309  -20.2139   25.0292 C   0  0  0  0  0  0  0  0  0  0  0  0
    8.9214  -20.6543   26.2094 N   0  0  0  0  0  0  0  0  0  0  0  0
    7.6306  -20.3033   26.1889 C   0  0  0  0  0  0  0  0  0  0  0  0
    7.3500  -19.6587   25.0181 N   0  0  0  0  0  0  0  0  0  0  0  0
    9.4946  -16.9466   23.8982 C   0  0  0  0  0  0  0  0  0  0  0  0
   10.7049  -16.7053   23.6489 O   0  0  0  0  0  0  0  0  0  0  0  0
    9.0654  -16.6146   25.2304 N   0  0  0  0  0  0  0  0  0  0  0  0
    9.9864  -16.0452   26.1942 C   0  0  1  0  0  0  0  0  0  0  0  0
    9.9660  -14.5289   26.1684 C   0  0  0  0  0  0  0  0  0  0  0  0
    8.6167  -14.0543   26.5482 C   0  0  0  0  0  0  0  0  0  0  0  0
    7.5316  -14.4972   25.8587 C   0  0  0  0  0  0  0  0  0  0  0  0
    6.2639  -14.0788   26.1822 C   0  0  0  0  0  0  0  0  0  0  0  0
    6.1107  -13.1956   27.2255 C   0  0  0  0  0  0  0  0  0  0  0  0
    7.2065  -12.7360   27.9367 C   0  0  0  0  0  0  0  0  0  0  0  0
    8.4616  -13.1769   27.5844 C   0  0  0  0  0  0  0  0  0  0  0  0
    9.5472  -16.4707   27.5422 C   0  0  0  0  0  0  0  0  0  0  0  0
   10.1538  -16.0906   28.5691 O   0  0  0  0  0  0  0  0  0  0  0  0
    8.4507  -17.3030   27.7054 O   0  0  0  0  0  0  0  0  0  0  0  0
  1  2  1  0
  3  4  1  1
  3  2  1  0
  5  6  1  6
  5  3  1  0
  7  8  2  0
  7  5  1  0
  9  7  1  0
 10 17  1  0
 10  9  1  0
 10 11  1  6
 12 16  1  0
 12 11  1  0
 13 12  2  0
 14 13  1  0
 14 15  1  0
 15 16  2  0
 17 19  1  0
 18 17  2  0
 19 20  1  0
 20 28  1  0
 20 21  1  1
 22 21  1  0
 23 22  2  0
 24 23  1  0
 25 24  2  0
 25 26  1  0
 26 27  2  0
 27 22  1  0
 28 29  2  0
 28 30  1  0
M  END
$$$$
