IHF.pdb
     RDKit          3D

 30 31  0  0  1  0  0  0  0  0999 V2000
    7.1939  -11.3840   20.3579 C   0  0  0  0  0  0  0  0  0  0  0  0
    7.3634  -12.7434   19.7418 C   0  0  0  0  0  0  0  0  0  0  0  0
    7.5496  -13.7345   20.8691 C   0  0  2  0  0  0  0  0  0  0  0  0
    8.7767  -13.4248   21.6915 C   0  0  0  0  0  0  0  0  0  0  0  0
    7.6211  -15.1453   20.3996 C   0  0  2  0  0  0  0  0  0  0  0  0
    6.5517  -15.5632   19.5536 N   0  0  0  0  0  0  0  0  0  0  0  0
    7.7386  -16.0839   21.5911 C   0  0  0  0  0  0  0  0  0  0  0  0
    6.7361  -16.2990   22.3077 O   0  0  0  0  0  0  0  0  0  0  0  0
    8.9555  -16.7100   21.8954 N   0  0  0  0  0  0  0  0  0  0  0  0
    9.3033  -17.5549   22.9969 C   0  0  1  0  0  0  0  0  0  0  0  0
   10.2620  -18.6832   22.7069 C   0  0  0  0  0  0  0  0  0  0  0  0
   10.5184  -19.5875   23.8237 C   0  0  0  0  0  0  0  0  0  0  0  0
   11.5432  -19.6061   24.7216 C   0  0  0  0  0  0  0  0  0  0  0  0
   11.4249  -20.6645   25.5655 N   0  0  0  0  0  0  0  0  0  0  0  0
   10.3137  -21.3012   25.1788 C   0  0  0  0  0  0  0  0  0  0  0  0
    9.7577  -20.6474   24.1165 N   0  0  0  0  0  0  0  0  0  0  0  0
    9.5437  -16.8986   24.2715 C   0  0  0  0  0  0  0  0  0  0  0  0
   10.3656  -15.9500   24.3715 O   0  0  0  0  0  0  0  0  0  0  0  0
    8.8813  -17.2668   25.4942 N   0  0  0  0  0  0  0  0  0  0  0  0
    9.2003  -16.6097   26.7463 C   0  0  1  0  0  0  0  0  0  0  0  0
    7.9733  -15.9936   27.3904 C   0  0  0  0  0  0  0  0  0  0  0  0
    7.7402  -14.6530   26.8087 C   0  0  0  0  0  0  0  0  0  0  0  0
    8.4967  -13.6017   27.2227 C   0  0  0  0  0  0  0  0  0  0  0  0
    8.3092  -12.3430   26.7057 C   0  0  0  0  0  0  0  0  0  0  0  0
    7.3334  -12.1637   25.7530 C   0  0  0  0  0  0  0  0  0  0  0  0
    6.5552  -13.2249   25.3216 C   0  0  0  0  0  0  0  0  0  0  0  0
    6.7713  -14.4719   25.8619 C   0  0  0  0  0  0  0  0  0  0  0  0
    9.7181  -17.6391   27.6756 C   0  0  0  0  0  0  0  0  0  0  0  0
   10.0668  -17.3410   28.8403 O   0  0  0  0  0  0  0  0  0  0  0  0
    9.8313  -18.9633   27.2817 O   0  0  0  0  0  0  0  0  0  0  0  0
  1  2  1  0
  3  4  1  6
  3  2  1  0
  5  6  1  1
  5  3  1  0
  7  8  2  0
  7  5  1  0
  9  7  1  0
 10 17  1  0
 10  9  1  0
 10 11  1  6
 12 16  1  0
 12 11  1  0
 13 12  2  0
 14 13  1  0
 14 15  1  0
 15 16  2  0
 17 19  1  0
 18 17  2  0
 19 20  1  0
 20 28  1  0
 20 21  1  1
 22 21  1  0
 23 22  2  0
 24 23  1  0
 25 24  2  0
 25 26  1  0
 26 27  2  0
 27 22  1  0
 28 29  2  0
 28 30  1  0
M  END
$$$$
