IHF.pdb
     RDKit          3D

 30 31  0  0  1  0  0  0  0  0999 V2000
    5.6225  -21.2049   22.9246 C   0  0  0  0  0  0  0  0  0  0  0  0
    5.7458  -20.3003   21.7317 C   0  0  0  0  0  0  0  0  0  0  0  0
    6.7515  -19.2248   22.0776 C   0  0  2  0  0  0  0  0  0  0  0  0
    6.3275  -18.4286   23.2878 C   0  0  0  0  0  0  0  0  0  0  0  0
    7.0184  -18.2910   20.9494 C   0  0  2  0  0  0  0  0  0  0  0  0
    7.2606  -18.9100   19.6876 N   0  0  0  0  0  0  0  0  0  0  0  0
    8.1716  -17.3644   21.3037 C   0  0  0  0  0  0  0  0  0  0  0  0
    9.3489  -17.7629   21.1616 O   0  0  0  0  0  0  0  0  0  0  0  0
    7.9314  -16.0705   21.7873 N   0  0  0  0  0  0  0  0  0  0  0  0
    8.8502  -15.0857   22.2709 C   0  0  1  0  0  0  0  0  0  0  0  0
    8.7044  -13.6924   21.7106 C   0  0  0  0  0  0  0  0  0  0  0  0
    8.5018  -13.6180   20.2669 C   0  0  0  0  0  0  0  0  0  0  0  0
    7.3870  -13.2982   19.5515 C   0  0  0  0  0  0  0  0  0  0  0  0
    7.6213  -13.4125   18.2180 N   0  0  0  0  0  0  0  0  0  0  0  0
    8.8956  -13.8072   18.1165 C   0  0  0  0  0  0  0  0  0  0  0  0
    9.4363  -13.9337   19.3642 N   0  0  0  0  0  0  0  0  0  0  0  0
    9.1471  -15.1138   23.6937 C   0  0  0  0  0  0  0  0  0  0  0  0
   10.0526  -14.3900   24.1850 O   0  0  0  0  0  0  0  0  0  0  0  0
    8.4507  -15.9482   24.6361 N   0  0  0  0  0  0  0  0  0  0  0  0
    8.8021  -15.9447   26.0424 C   0  0  1  0  0  0  0  0  0  0  0  0
    7.6054  -15.6426   26.9236 C   0  0  0  0  0  0  0  0  0  0  0  0
    7.2435  -14.2149   26.7794 C   0  0  0  0  0  0  0  0  0  0  0  0
    6.0553  -13.8787   26.2101 C   0  0  0  0  0  0  0  0  0  0  0  0
    5.6854  -12.5644   26.0593 C   0  0  0  0  0  0  0  0  0  0  0  0
    6.5465  -11.5859   26.4986 C   0  0  0  0  0  0  0  0  0  0  0  0
    7.7599  -11.9132   27.0804 C   0  0  0  0  0  0  0  0  0  0  0  0
    8.0972  -13.2406   27.2150 C   0  0  0  0  0  0  0  0  0  0  0  0
    9.2766  -17.3029   26.3910 C   0  0  0  0  0  0  0  0  0  0  0  0
    9.6422  -17.5801   27.5557 O   0  0  0  0  0  0  0  0  0  0  0  0
    9.3295  -18.3068   25.4365 O   0  0  0  0  0  0  0  0  0  0  0  0
  1  2  1  0
  3  4  1  1
  3  2  1  0
  5  6  1  6
  5  3  1  0
  7  8  2  0
  7  5  1  0
  9  7  1  0
 10 17  1  0
 10  9  1  0
 10 11  1  1
 12 16  1  0
 12 11  1  0
 13 12  2  0
 14 13  1  0
 14 15  1  0
 15 16  2  0
 17 19  1  0
 18 17  2  0
 19 20  1  0
 20 28  1  0
 20 21  1  1
 22 21  1  0
 23 22  2  0
 24 23  1  0
 25 24  2  0
 25 26  1  0
 26 27  2  0
 27 22  1  0
 28 29  2  0
 28 30  1  0
M  END
$$$$
