IHF.pdb
     RDKit          3D

 30 31  0  0  1  0  0  0  0  0999 V2000
   15.6539  -17.8859   19.3456 C   0  0  0  0  0  0  0  0  0  0  0  0
   14.2509  -18.3276   19.0410 C   0  0  0  0  0  0  0  0  0  0  0  0
   13.3319  -17.6344   20.0222 C   0  0  2  0  0  0  0  0  0  0  0  0
   13.7114  -17.9318   21.4525 C   0  0  0  0  0  0  0  0  0  0  0  0
   11.8972  -17.9747   19.8182 C   0  0  2  0  0  0  0  0  0  0  0  0
   11.3833  -17.7022   18.5160 N   0  0  0  0  0  0  0  0  0  0  0  0
   11.0441  -17.2807   20.8694 C   0  0  0  0  0  0  0  0  0  0  0  0
   10.9106  -16.0374   20.8325 O   0  0  0  0  0  0  0  0  0  0  0  0
   10.4065  -18.0168   21.8779 N   0  0  0  0  0  0  0  0  0  0  0  0
    9.5174  -17.5803   22.9108 C   0  0  1  0  0  0  0  0  0  0  0  0
    8.2231  -18.3421   23.0550 C   0  0  0  0  0  0  0  0  0  0  0  0
    7.3389  -17.8754   24.1186 C   0  0  0  0  0  0  0  0  0  0  0  0
    6.4089  -16.8795   24.1142 C   0  0  0  0  0  0  0  0  0  0  0  0
    5.8492  -16.7378   25.3442 N   0  0  0  0  0  0  0  0  0  0  0  0
    6.4445  -17.6587   26.1107 C   0  0  0  0  0  0  0  0  0  0  0  0
    7.3540  -18.3548   25.3668 N   0  0  0  0  0  0  0  0  0  0  0  0
   10.1229  -17.2139   24.1806 C   0  0  0  0  0  0  0  0  0  0  0  0
   10.9132  -17.9934   24.7748 O   0  0  0  0  0  0  0  0  0  0  0  0
    9.8777  -15.9638   24.8486 N   0  0  0  0  0  0  0  0  0  0  0  0
   10.4237  -15.6978   26.1648 C   0  0  1  0  0  0  0  0  0  0  0  0
   10.4297  -14.2155   26.4856 C   0  0  0  0  0  0  0  0  0  0  0  0
    9.1167  -13.6350   26.1262 C   0  0  0  0  0  0  0  0  0  0  0  0
    8.8501  -13.3335   24.8274 C   0  0  0  0  0  0  0  0  0  0  0  0
    7.6429  -12.7934   24.4559 C   0  0  0  0  0  0  0  0  0  0  0  0
    6.7004  -12.5610   25.4303 C   0  0  0  0  0  0  0  0  0  0  0  0
    6.9578  -12.8630   26.7571 C   0  0  0  0  0  0  0  0  0  0  0  0
    8.1784  -13.4031   27.0923 C   0  0  0  0  0  0  0  0  0  0  0  0
    9.5490  -16.3618   27.1574 C   0  0  0  0  0  0  0  0  0  0  0  0
    8.4892  -16.9286   26.8074 O   0  0  0  0  0  0  0  0  0  0  0  0
    9.8795  -16.3746   28.5036 O   0  0  0  0  0  0  0  0  0  0  0  0
  1  2  1  0
  3  4  1  1
  3  2  1  0
  5  6  1  6
  5  3  1  0
  7  8  2  0
  7  5  1  0
  9  7  1  0
 10 17  1  0
 10  9  1  0
 10 11  1  1
 12 16  1  0
 12 11  1  0
 13 12  2  0
 14 13  1  0
 14 15  1  0
 15 16  2  0
 17 19  1  0
 18 17  2  0
 19 20  1  0
 20 28  1  0
 20 21  1  1
 22 21  1  0
 23 22  2  0
 24 23  1  0
 25 24  2  0
 25 26  1  0
 26 27  2  0
 27 22  1  0
 28 29  2  0
 28 30  1  0
M  END
$$$$
