IHF.pdb
     RDKit          3D

 30 31  0  0  1  0  0  0  0  0999 V2000
    7.5989  -11.5165   19.8560 C   0  0  0  0  0  0  0  0  0  0  0  0
    7.9836  -12.8648   19.3171 C   0  0  0  0  0  0  0  0  0  0  0  0
    8.1288  -13.8019   20.4955 C   0  0  2  0  0  0  0  0  0  0  0  0
    9.0814  -13.2568   21.5318 C   0  0  0  0  0  0  0  0  0  0  0  0
    8.5666  -15.1695   20.1029 C   0  0  2  0  0  0  0  0  0  0  0  0
    7.7971  -15.7855   19.0723 N   0  0  0  0  0  0  0  0  0  0  0  0
    8.6129  -16.0715   21.3271 C   0  0  0  0  0  0  0  0  0  0  0  0
    7.5657  -16.6321   21.7197 O   0  0  0  0  0  0  0  0  0  0  0  0
    9.8135  -16.2819   22.0197 N   0  0  0  0  0  0  0  0  0  0  0  0
   10.0840  -17.1039   23.1596 C   0  0  1  0  0  0  0  0  0  0  0  0
   11.0952  -18.2078   22.9721 C   0  0  0  0  0  0  0  0  0  0  0  0
   10.8305  -19.1147   21.8593 C   0  0  0  0  0  0  0  0  0  0  0  0
   11.1656  -19.0109   20.5426 C   0  0  0  0  0  0  0  0  0  0  0  0
   10.6654  -20.0572   19.8345 N   0  0  0  0  0  0  0  0  0  0  0  0
   10.0162  -20.8104   20.7295 C   0  0  0  0  0  0  0  0  0  0  0  0
   10.1145  -20.2389   21.9659 N   0  0  0  0  0  0  0  0  0  0  0  0
   10.1914  -16.4263   24.4413 C   0  0  0  0  0  0  0  0  0  0  0  0
   11.1023  -15.5849   24.6595 O   0  0  0  0  0  0  0  0  0  0  0  0
    9.2908  -16.6531   25.5398 N   0  0  0  0  0  0  0  0  0  0  0  0
    9.4640  -15.9665   26.8046 C   0  0  1  0  0  0  0  0  0  0  0  0
    8.1348  -15.5902   27.4306 C   0  0  0  0  0  0  0  0  0  0  0  0
    7.5229  -14.4925   26.6493 C   0  0  0  0  0  0  0  0  0  0  0  0
    8.0550  -13.2431   26.7182 C   0  0  0  0  0  0  0  0  0  0  0  0
    7.5142  -12.1993   26.0075 C   0  0  0  0  0  0  0  0  0  0  0  0
    6.4147  -12.4432   25.2178 C   0  0  0  0  0  0  0  0  0  0  0  0
    5.8619  -13.7105   25.1377 C   0  0  0  0  0  0  0  0  0  0  0  0
    6.4304  -14.7320   25.8638 C   0  0  0  0  0  0  0  0  0  0  0  0
   10.1424  -16.8984   27.7334 C   0  0  0  0  0  0  0  0  0  0  0  0
   10.5093  -16.5242   28.8702 O   0  0  0  0  0  0  0  0  0  0  0  0
   10.3907  -18.2128   27.3698 O   0  0  0  0  0  0  0  0  0  0  0  0
  1  2  1  0
  3  4  1  1
  3  2  1  0
  5  6  1  6
  5  3  1  0
  7  8  2  0
  7  5  1  0
  9  7  1  0
 10 17  1  0
 10  9  1  0
 10 11  1  6
 12 16  1  0
 12 11  1  0
 13 12  2  0
 14 13  1  0
 14 15  1  0
 15 16  2  0
 17 19  1  0
 18 17  2  0
 19 20  1  0
 20 28  1  0
 20 21  1  1
 22 21  1  0
 23 22  2  0
 24 23  1  0
 25 24  2  0
 25 26  1  0
 26 27  2  0
 27 22  1  0
 28 29  2  0
 28 30  1  0
M  END
$$$$
