IHF.pdb
     RDKit          3D

 30 31  0  0  1  0  0  0  0  0999 V2000
    7.3618  -11.8634   19.4205 C   0  0  0  0  0  0  0  0  0  0  0  0
    7.7426  -13.2861   19.1248 C   0  0  0  0  0  0  0  0  0  0  0  0
    7.9789  -13.9789   20.4484 C   0  0  2  0  0  0  0  0  0  0  0  0
    9.0883  -13.3236   21.2345 C   0  0  0  0  0  0  0  0  0  0  0  0
    8.2769  -15.4301   20.3022 C   0  0  2  0  0  0  0  0  0  0  0  0
    7.4211  -16.1434   19.4119 N   0  0  0  0  0  0  0  0  0  0  0  0
    8.2804  -16.0998   21.6682 C   0  0  0  0  0  0  0  0  0  0  0  0
    7.1936  -16.3485   22.2357 O   0  0  0  0  0  0  0  0  0  0  0  0
    9.4854  -16.4412   22.2980 N   0  0  0  0  0  0  0  0  0  0  0  0
    9.7159  -17.1969   23.4914 C   0  0  1  0  0  0  0  0  0  0  0  0
   10.5609  -18.4390   23.3520 C   0  0  0  0  0  0  0  0  0  0  0  0
   10.1379  -19.3683   22.3088 C   0  0  0  0  0  0  0  0  0  0  0  0
    8.9423  -19.9949   22.1225 C   0  0  0  0  0  0  0  0  0  0  0  0
    8.9978  -20.8296   21.0517 N   0  0  0  0  0  0  0  0  0  0  0  0
   10.2431  -20.7119   20.5772 C   0  0  0  0  0  0  0  0  0  0  0  0
   10.9419  -19.8214   21.3413 N   0  0  0  0  0  0  0  0  0  0  0  0
    9.9893  -16.4383   24.7009 C   0  0  0  0  0  0  0  0  0  0  0  0
   10.9031  -15.5728   24.7350 O   0  0  0  0  0  0  0  0  0  0  0  0
    9.2591  -16.6070   25.9288 N   0  0  0  0  0  0  0  0  0  0  0  0
    9.6951  -15.9663   27.1538 C   0  0  1  0  0  0  0  0  0  0  0  0
    8.5353  -15.3547   27.9159 C   0  0  0  0  0  0  0  0  0  0  0  0
    7.9855  -14.2222   27.1379 C   0  0  0  0  0  0  0  0  0  0  0  0
    8.5302  -12.9844   27.2797 C   0  0  0  0  0  0  0  0  0  0  0  0
    8.0466  -11.9093   26.5744 C   0  0  0  0  0  0  0  0  0  0  0  0
    6.9919  -12.1095   25.7145 C   0  0  0  0  0  0  0  0  0  0  0  0
    6.4270  -13.3645   25.5598 C   0  0  0  0  0  0  0  0  0  0  0  0
    6.9376  -14.4182   26.2827 C   0  0  0  0  0  0  0  0  0  0  0  0
   10.2924  -17.0085   28.0188 C   0  0  0  0  0  0  0  0  0  0  0  0
   10.2627  -18.2159   27.6898 O   0  0  0  0  0  0  0  0  0  0  0  0
   10.9021  -16.6762   29.2186 O   0  0  0  0  0  0  0  0  0  0  0  0
  1  2  1  0
  3  4  1  6
  3  2  1  0
  5  6  1  6
  5  3  1  0
  7  8  2  0
  7  5  1  0
  9  7  1  0
 10 17  1  0
 10  9  1  0
 10 11  1  6
 12 16  1  0
 12 11  1  0
 13 12  2  0
 14 13  1  0
 14 15  1  0
 15 16  2  0
 17 19  1  0
 18 17  2  0
 19 20  1  0
 20 28  1  0
 20 21  1  1
 22 21  1  0
 23 22  2  0
 24 23  1  0
 25 24  2  0
 25 26  1  0
 26 27  2  0
 27 22  1  0
 28 29  2  0
 28 30  1  0
M  END
$$$$
