IHF.pdb
     RDKit          3D

 30 31  0  0  1  0  0  0  0  0999 V2000
    7.7304  -11.4429   19.8299 C   0  0  0  0  0  0  0  0  0  0  0  0
    7.3703  -12.8787   19.5743 C   0  0  0  0  0  0  0  0  0  0  0  0
    7.8099  -13.6801   20.7794 C   0  0  2  0  0  0  0  0  0  0  0  0
    9.2861  -13.5210   21.0510 C   0  0  0  0  0  0  0  0  0  0  0  0
    7.4890  -15.1292   20.6650 C   0  0  2  0  0  0  0  0  0  0  0  0
    6.1587  -15.4298   20.2481 N   0  0  0  0  0  0  0  0  0  0  0  0
    7.7941  -15.8340   21.9782 C   0  0  0  0  0  0  0  0  0  0  0  0
    7.1037  -15.5790   22.9898 O   0  0  0  0  0  0  0  0  0  0  0  0
    8.8385  -16.7649   22.0684 N   0  0  0  0  0  0  0  0  0  0  0  0
    9.3115  -17.5078   23.1965 C   0  0  1  0  0  0  0  0  0  0  0  0
   10.2584  -18.6463   22.9071 C   0  0  0  0  0  0  0  0  0  0  0  0
   10.5471  -19.5215   24.0391 C   0  0  0  0  0  0  0  0  0  0  0  0
   10.0613  -19.5006   25.3120 C   0  0  0  0  0  0  0  0  0  0  0  0
   10.6469  -20.4669   26.0668 N   0  0  0  0  0  0  0  0  0  0  0  0
   11.5016  -21.0866   25.2451 C   0  0  0  0  0  0  0  0  0  0  0  0
   11.4438  -20.5129   24.0071 N   0  0  0  0  0  0  0  0  0  0  0  0
    9.6655  -16.7415   24.3800 C   0  0  0  0  0  0  0  0  0  0  0  0
   10.5731  -15.8695   24.3445 O   0  0  0  0  0  0  0  0  0  0  0  0
    9.0267  -16.9093   25.6578 N   0  0  0  0  0  0  0  0  0  0  0  0
    9.4649  -16.1599   26.8187 C   0  0  1  0  0  0  0  0  0  0  0  0
    8.2954  -15.5945   27.6014 C   0  0  0  0  0  0  0  0  0  0  0  0
    7.8434  -14.3391   26.9613 C   0  0  0  0  0  0  0  0  0  0  0  0
    8.6657  -13.2561   26.9549 C   0  0  0  0  0  0  0  0  0  0  0  0
    8.2807  -12.0740   26.3706 C   0  0  0  0  0  0  0  0  0  0  0  0
    7.0370  -12.0052   25.7870 C   0  0  0  0  0  0  0  0  0  0  0  0
    6.1889  -13.0999   25.7858 C   0  0  0  0  0  0  0  0  0  0  0  0
    6.6083  -14.2678   26.3807 C   0  0  0  0  0  0  0  0  0  0  0  0
   10.1849  -17.0948   27.7125 C   0  0  0  0  0  0  0  0  0  0  0  0
   10.6944  -16.6993   28.7853 O   0  0  0  0  0  0  0  0  0  0  0  0
   10.3151  -18.4357   27.3861 O   0  0  0  0  0  0  0  0  0  0  0  0
  1  2  1  0
  3  4  1  6
  3  2  1  0
  5  6  1  1
  5  3  1  0
  7  8  2  0
  7  5  1  0
  9  7  1  0
 10 17  1  0
 10  9  1  0
 10 11  1  6
 12 16  1  0
 12 11  1  0
 13 12  2  0
 14 13  1  0
 14 15  1  0
 15 16  2  0
 17 19  1  0
 18 17  2  0
 19 20  1  0
 20 28  1  0
 20 21  1  1
 22 21  1  0
 23 22  2  0
 24 23  1  0
 25 24  2  0
 25 26  1  0
 26 27  2  0
 27 22  1  0
 28 29  2  0
 28 30  1  0
M  END
$$$$
