IHF.pdb
     RDKit          3D

 30 31  0  0  1  0  0  0  0  0999 V2000
    7.7543  -11.8352   18.3673 C   0  0  0  0  0  0  0  0  0  0  0  0
    8.3203  -13.1162   17.8241 C   0  0  0  0  0  0  0  0  0  0  0  0
    8.3397  -14.1211   18.9544 C   0  0  2  0  0  0  0  0  0  0  0  0
    9.1199  -13.6139   20.1427 C   0  0  0  0  0  0  0  0  0  0  0  0
    8.8800  -15.4470   18.5469 C   0  0  2  0  0  0  0  0  0  0  0  0
    8.3142  -15.9993   17.3600 N   0  0  0  0  0  0  0  0  0  0  0  0
    8.7482  -16.4367   19.6948 C   0  0  0  0  0  0  0  0  0  0  0  0
    7.6212  -16.8930   19.9892 O   0  0  0  0  0  0  0  0  0  0  0  0
    9.8732  -16.8429   20.4261 N   0  0  0  0  0  0  0  0  0  0  0  0
    9.9611  -17.4032   21.7400 C   0  0  1  0  0  0  0  0  0  0  0  0
   11.0423  -18.4311   21.9655 C   0  0  0  0  0  0  0  0  0  0  0  0
   11.0428  -19.0580   23.2838 C   0  0  0  0  0  0  0  0  0  0  0  0
   10.1822  -19.9648   23.8257 C   0  0  0  0  0  0  0  0  0  0  0  0
   10.5191  -20.2388   25.1132 N   0  0  0  0  0  0  0  0  0  0  0  0
   11.5996  -19.4900   25.3619 C   0  0  0  0  0  0  0  0  0  0  0  0
   11.9223  -18.7682   24.2484 N   0  0  0  0  0  0  0  0  0  0  0  0
    9.7886  -16.4846   22.8534 C   0  0  0  0  0  0  0  0  0  0  0  0
   10.5599  -15.5024   23.0136 O   0  0  0  0  0  0  0  0  0  0  0  0
    8.7504  -16.6156   23.8404 N   0  0  0  0  0  0  0  0  0  0  0  0
    8.5243  -15.5824   24.8316 C   0  0  1  0  0  0  0  0  0  0  0  0
    7.1743  -14.9143   24.6544 C   0  0  0  0  0  0  0  0  0  0  0  0
    7.0112  -13.8664   25.6865 C   0  0  0  0  0  0  0  0  0  0  0  0
    7.6617  -12.6806   25.5466 C   0  0  0  0  0  0  0  0  0  0  0  0
    7.5347  -11.6846   26.4840 C   0  0  0  0  0  0  0  0  0  0  0  0
    6.7303  -11.9106   27.5767 C   0  0  0  0  0  0  0  0  0  0  0  0
    6.0616  -13.1133   27.7325 C   0  0  0  0  0  0  0  0  0  0  0  0
    6.2125  -14.0883   26.7732 C   0  0  0  0  0  0  0  0  0  0  0  0
    8.5268  -16.2283   26.1636 C   0  0  0  0  0  0  0  0  0  0  0  0
    9.2081  -15.7638   27.1053 O   0  0  0  0  0  0  0  0  0  0  0  0
    7.7738  -17.3669   26.4055 O   0  0  0  0  0  0  0  0  0  0  0  0
  1  2  1  0
  3  4  1  1
  3  2  1  0
  5  6  1  6
  5  3  1  0
  7  8  2  0
  7  5  1  0
  9  7  1  0
 10 17  1  0
 10  9  1  0
 10 11  1  1
 12 16  1  0
 12 11  1  0
 13 12  2  0
 14 13  1  0
 14 15  1  0
 15 16  2  0
 17 19  1  0
 18 17  2  0
 19 20  1  0
 20 28  1  0
 20 21  1  6
 22 21  1  0
 23 22  2  0
 24 23  1  0
 25 24  2  0
 25 26  1  0
 26 27  2  0
 27 22  1  0
 28 29  2  0
 28 30  1  0
M  END
$$$$
