GDR.pdb
     RDKit          3D

 24 23  0  0  1  0  0  0  0  0999 V2000
    9.0974  -22.3883   18.6214 N   0  0  0  0  0  0  0  0  0  0  0  0
    9.3892  -20.9813   18.5009 C   0  0  0  0  0  0  0  0  0  0  0  0
   10.6331  -20.6271   19.2726 C   0  0  0  0  0  0  0  0  0  0  0  0
   11.2129  -21.4843   19.9875 O   0  0  0  0  0  0  0  0  0  0  0  0
   11.1918  -19.3318   19.2254 N   0  0  0  0  0  0  0  0  0  0  0  0
   12.1985  -18.9391   20.2180 C   0  0  1  0  0  0  0  0  0  0  0  0
   13.0407  -17.8262   19.7135 C   0  0  0  0  0  0  0  0  0  0  0  0
   13.9760  -18.2650   18.6863 C   0  0  0  0  0  0  0  0  0  0  0  0
   14.6239  -19.3185   18.7508 O   0  0  0  0  0  0  0  0  0  0  0  0
   11.4745  -18.5884   21.4918 C   0  0  0  0  0  0  0  0  0  0  0  0
   10.4472  -17.9065   21.5748 O   0  0  0  0  0  0  0  0  0  0  0  0
   14.1618  -17.4586   17.5564 O   0  0  0  0  0  0  0  0  0  0  0  0
   12.9439  -22.1000   30.0524 N   0  0  0  0  0  0  0  0  0  0  0  0
   11.7174  -21.9312   29.3268 C   0  0  0  0  0  0  0  0  0  0  0  0
   10.8369  -22.8440   29.4607 N   0  0  0  0  0  0  0  0  0  0  0  0
   11.4838  -20.8094   28.4981 N   0  0  0  0  0  0  0  0  0  0  0  0
   12.0733  -20.7249   27.1820 C   0  0  0  0  0  0  0  0  0  0  0  0
   11.5772  -19.4775   26.4353 C   0  0  0  0  0  0  0  0  0  0  0  0
   12.1819  -19.5137   25.0657 C   0  0  0  0  0  0  0  0  0  0  0  0
   11.3504  -18.8231   24.0160 C   0  0  2  0  0  0  0  0  0  0  0  0
   12.0052  -19.0778   22.7267 N   0  0  0  0  0  0  0  0  0  0  0  0
   11.1415  -17.3928   24.2408 C   0  0  0  0  0  0  0  0  0  0  0  0
   11.8705  -16.5361   23.6971 O   0  0  0  0  0  0  0  0  0  0  0  0
   10.1238  -16.9489   25.0677 O   0  0  0  0  0  0  0  0  0  0  0  0
  2  1  1  0
  3  2  1  0
  4  3  2  0
  5  3  1  0
  6  7  1  6
  6  5  1  0
  8 12  1  0
  8  7  1  0
  9  8  2  0
 10 11  2  0
 10  6  1  0
 14 13  1  0
 14 16  1  0
 15 14  2  0
 17 16  1  0
 18 17  1  0
 19 18  1  0
 20 21  1  0
 20 19  1  1
 21 10  1  0
 22 20  1  0
 23 22  2  0
 24 22  1  0
M  END
$$$$
