GDR.pdb
     RDKit          3D

 24 23  0  0  1  0  0  0  0  0999 V2000
    1.5739  -20.6343   21.0859 N   0  0  0  0  0  0  0  0  0  0  0  0
    1.8799  -19.5216   21.9505 C   0  0  0  0  0  0  0  0  0  0  0  0
    3.3662  -19.2856   22.0095 C   0  0  0  0  0  0  0  0  0  0  0  0
    4.1609  -20.2371   22.2219 O   0  0  0  0  0  0  0  0  0  0  0  0
    3.9209  -18.0001   21.8311 N   0  0  0  0  0  0  0  0  0  0  0  0
    5.3710  -17.8121   21.9528 C   0  0  1  0  0  0  0  0  0  0  0  0
    5.8726  -16.8531   20.9375 C   0  0  0  0  0  0  0  0  0  0  0  0
    7.3281  -16.7976   20.9037 C   0  0  0  0  0  0  0  0  0  0  0  0
    8.0409  -17.7085   20.4613 O   0  0  0  0  0  0  0  0  0  0  0  0
    5.6594  -17.3686   23.3635 C   0  0  0  0  0  0  0  0  0  0  0  0
    5.0148  -16.5307   24.0036 O   0  0  0  0  0  0  0  0  0  0  0  0
    7.9695  -15.6543   21.3964 O   0  0  0  0  0  0  0  0  0  0  0  0
   10.6672  -21.6407   29.9853 N   0  0  0  0  0  0  0  0  0  0  0  0
    9.2650  -21.3508   29.8919 C   0  0  0  0  0  0  0  0  0  0  0  0
    8.4627  -22.2172   30.3737 N   0  0  0  0  0  0  0  0  0  0  0  0
    8.7821  -20.1631   29.2953 N   0  0  0  0  0  0  0  0  0  0  0  0
    8.9150  -19.9408   27.8741 C   0  0  0  0  0  0  0  0  0  0  0  0
    8.1962  -18.6516   27.4486 C   0  0  0  0  0  0  0  0  0  0  0  0
    7.8155  -18.8133   26.0093 C   0  0  0  0  0  0  0  0  0  0  0  0
    7.1173  -17.6119   25.4269 C   0  0  2  0  0  0  0  0  0  0  0  0
    6.7732  -17.9565   24.0417 N   0  0  0  0  0  0  0  0  0  0  0  0
    7.8781  -16.3646   25.4986 C   0  0  0  0  0  0  0  0  0  0  0  0
    8.8166  -16.1293   24.7082 O   0  0  0  0  0  0  0  0  0  0  0  0
    7.5757  -15.4063   26.4510 O   0  0  0  0  0  0  0  0  0  0  0  0
  2  1  1  0
  3  2  1  0
  4  3  2  0
  5  3  1  0
  6  7  1  6
  6  5  1  0
  8 12  1  0
  8  7  1  0
  9  8  2  0
 10 11  2  0
 10  6  1  0
 14 13  1  0
 14 16  1  0
 15 14  2  0
 17 16  1  0
 18 17  1  0
 19 18  1  0
 20 21  1  0
 20 19  1  6
 21 10  1  0
 22 20  1  0
 23 22  2  0
 24 22  1  0
M  END
$$$$
