GDR.pdb
     RDKit          3D

 24 23  0  0  1  0  0  0  0  0999 V2000
    4.7855  -21.3460   21.9832 N   0  0  0  0  0  0  0  0  0  0  0  0
    6.1012  -20.9426   21.5527 C   0  0  0  0  0  0  0  0  0  0  0  0
    6.7868  -20.1329   22.6216 C   0  0  0  0  0  0  0  0  0  0  0  0
    6.5769  -18.8973   22.7269 O   0  0  0  0  0  0  0  0  0  0  0  0
    7.6837  -20.7224   23.5382 N   0  0  0  0  0  0  0  0  0  0  0  0
    8.4019  -19.8757   24.4975 C   0  0  1  0  0  0  0  0  0  0  0  0
    8.9821  -20.6869   25.5964 C   0  0  0  0  0  0  0  0  0  0  0  0
    8.0570  -20.8474   26.7104 C   0  0  0  0  0  0  0  0  0  0  0  0
    6.9050  -20.3929   26.7186 O   0  0  0  0  0  0  0  0  0  0  0  0
    9.4445  -19.1006   23.7346 C   0  0  0  0  0  0  0  0  0  0  0  0
   10.3123  -19.5859   23.0005 O   0  0  0  0  0  0  0  0  0  0  0  0
    8.4824  -21.5543   27.8420 O   0  0  0  0  0  0  0  0  0  0  0  0
    6.9408  -12.2509   19.9548 N   0  0  0  0  0  0  0  0  0  0  0  0
    8.0181  -13.0256   19.4086 C   0  0  0  0  0  0  0  0  0  0  0  0
    8.5229  -12.6189   18.3103 N   0  0  0  0  0  0  0  0  0  0  0  0
    8.5062  -14.1883   20.0485 N   0  0  0  0  0  0  0  0  0  0  0  0
    7.8665  -14.7042   21.2365 C   0  0  0  0  0  0  0  0  0  0  0  0
    8.5258  -16.0147   21.6923 C   0  0  0  0  0  0  0  0  0  0  0  0
    9.6465  -15.6469   22.6151 C   0  0  0  0  0  0  0  0  0  0  0  0
   10.4148  -16.8318   23.1402 C   0  0  2  0  0  0  0  0  0  0  0  0
    9.4491  -17.6753   23.8555 N   0  0  0  0  0  0  0  0  0  0  0  0
   11.5631  -16.4954   23.9817 C   0  0  0  0  0  0  0  0  0  0  0  0
   11.5054  -16.5855   25.2265 O   0  0  0  0  0  0  0  0  0  0  0  0
   12.7515  -16.0653   23.4163 O   0  0  0  0  0  0  0  0  0  0  0  0
  2  1  1  0
  3  2  1  0
  4  3  2  0
  5  3  1  0
  6  7  1  1
  6  5  1  0
  8 12  1  0
  8  7  1  0
  9  8  2  0
 10 11  2  0
 10  6  1  0
 14 13  1  0
 14 16  1  0
 15 14  2  0
 17 16  1  0
 18 17  1  0
 19 18  1  0
 20 21  1  0
 20 19  1  1
 21 10  1  0
 22 20  1  0
 23 22  2  0
 24 22  1  0
M  END
$$$$
