GDR.pdb
     RDKit          3D

 24 23  0  0  1  0  0  0  0  0999 V2000
    5.8982  -19.9337   18.8123 N   0  0  0  0  0  0  0  0  0  0  0  0
    6.5309  -19.0814   19.7883 C   0  0  0  0  0  0  0  0  0  0  0  0
    7.2857  -19.9007   20.8017 C   0  0  0  0  0  0  0  0  0  0  0  0
    6.9648  -21.0949   21.0317 O   0  0  0  0  0  0  0  0  0  0  0  0
    8.3722  -19.3663   21.5271 N   0  0  0  0  0  0  0  0  0  0  0  0
    8.9806  -20.1518   22.6068 C   0  0  1  0  0  0  0  0  0  0  0  0
   10.3993  -19.7682   22.8127 C   0  0  0  0  0  0  0  0  0  0  0  0
   11.1958  -19.9339   21.6042 C   0  0  0  0  0  0  0  0  0  0  0  0
   11.0384  -20.8611   20.7985 O   0  0  0  0  0  0  0  0  0  0  0  0
    8.1414  -19.9594   23.8431 C   0  0  0  0  0  0  0  0  0  0  0  0
    7.7290  -18.8776   24.2755 O   0  0  0  0  0  0  0  0  0  0  0  0
   12.1997  -18.9978   21.3262 O   0  0  0  0  0  0  0  0  0  0  0  0
    4.2815  -26.6853   28.2631 N   0  0  0  0  0  0  0  0  0  0  0  0
    3.6097  -25.4944   28.6984 C   0  0  0  0  0  0  0  0  0  0  0  0
    2.5548  -25.6492   29.3981 N   0  0  0  0  0  0  0  0  0  0  0  0
    4.0851  -24.2029   28.3729 N   0  0  0  0  0  0  0  0  0  0  0  0
    4.9721  -24.0009   27.2508 C   0  0  0  0  0  0  0  0  0  0  0  0
    5.4347  -22.5382   27.1706 C   0  0  0  0  0  0  0  0  0  0  0  0
    6.3619  -22.4324   25.9994 C   0  0  0  0  0  0  0  0  0  0  0  0
    6.8982  -21.0428   25.7727 C   0  0  2  0  0  0  0  0  0  0  0  0
    7.7773  -21.1179   24.5991 N   0  0  0  0  0  0  0  0  0  0  0  0
    7.5842  -20.4539   26.9227 C   0  0  0  0  0  0  0  0  0  0  0  0
    8.8165  -20.5851   27.0816 O   0  0  0  0  0  0  0  0  0  0  0  0
    6.8805  -19.7313   27.8712 O   0  0  0  0  0  0  0  0  0  0  0  0
  2  1  1  0
  3  2  1  0
  4  3  2  0
  5  3  1  0
  6  7  1  1
  6  5  1  0
  8 12  1  0
  8  7  1  0
  9  8  2  0
 10 11  2  0
 10  6  1  0
 14 13  1  0
 14 16  1  0
 15 14  2  0
 17 16  1  0
 18 17  1  0
 19 18  1  0
 20 21  1  0
 20 19  1  1
 21 10  1  0
 22 20  1  0
 23 22  2  0
 24 22  1  0
M  END
$$$$
