GDR.pdb
     RDKit          3D

 24 23  0  0  1  0  0  0  0  0999 V2000
    7.6679  -17.2569   17.2066 N   0  0  0  0  0  0  0  0  0  0  0  0
    9.0504  -16.9280   17.4513 C   0  0  0  0  0  0  0  0  0  0  0  0
    9.5488  -17.6130   18.6964 C   0  0  0  0  0  0  0  0  0  0  0  0
    8.7456  -18.1562   19.4975 O   0  0  0  0  0  0  0  0  0  0  0  0
   10.9234  -17.6716   19.0114 N   0  0  0  0  0  0  0  0  0  0  0  0
   11.3516  -18.2579   20.2864 C   0  0  1  0  0  0  0  0  0  0  0  0
   12.3370  -19.3461   20.0701 C   0  0  0  0  0  0  0  0  0  0  0  0
   11.8026  -20.4160   19.2380 C   0  0  0  0  0  0  0  0  0  0  0  0
   10.6065  -20.7360   19.2136 O   0  0  0  0  0  0  0  0  0  0  0  0
   11.8944  -17.1445   21.1441 C   0  0  0  0  0  0  0  0  0  0  0  0
   12.5607  -16.1835   20.7442 O   0  0  0  0  0  0  0  0  0  0  0  0
   12.6813  -21.1306   18.4142 O   0  0  0  0  0  0  0  0  0  0  0  0
   10.3563  -16.1175   30.0634 N   0  0  0  0  0  0  0  0  0  0  0  0
   10.5745  -14.8677   29.3929 C   0  0  0  0  0  0  0  0  0  0  0  0
   10.1164  -13.8208   29.9590 N   0  0  0  0  0  0  0  0  0  0  0  0
   11.2639  -14.7874   28.1608 N   0  0  0  0  0  0  0  0  0  0  0  0
   10.8634  -15.5971   27.0335 C   0  0  0  0  0  0  0  0  0  0  0  0
   11.7789  -15.3501   25.8249 C   0  0  0  0  0  0  0  0  0  0  0  0
   11.3381  -16.2831   24.7397 C   0  0  0  0  0  0  0  0  0  0  0  0
   12.1441  -16.1648   23.4722 C   0  0  2  0  0  0  0  0  0  0  0  0
   11.6267  -17.1824   22.5487 N   0  0  0  0  0  0  0  0  0  0  0  0
   13.5909  -16.2853   23.6508 C   0  0  0  0  0  0  0  0  0  0  0  0
   14.1560  -17.3996   23.6449 O   0  0  0  0  0  0  0  0  0  0  0  0
   14.3766  -15.1599   23.8325 O   0  0  0  0  0  0  0  0  0  0  0  0
  2  1  1  0
  3  2  1  0
  4  3  2  0
  5  3  1  0
  6  7  1  6
  6  5  1  0
  8 12  1  0
  8  7  1  0
  9  8  2  0
 10 11  2  0
 10  6  1  0
 14 13  1  0
 14 16  1  0
 15 14  2  0
 17 16  1  0
 18 17  1  0
 19 18  1  0
 20 21  1  0
 20 19  1  1
 21 10  1  0
 22 20  1  0
 23 22  2  0
 24 22  1  0
M  END
$$$$
