GDR.pdb
     RDKit          3D

 24 23  0  0  1  0  0  0  0  0999 V2000
   11.2349  -18.3505   16.9529 N   0  0  0  0  0  0  0  0  0  0  0  0
   10.3210  -18.4670   18.0622 C   0  0  0  0  0  0  0  0  0  0  0  0
   10.3042  -17.1988   18.8743 C   0  0  0  0  0  0  0  0  0  0  0  0
   11.3168  -16.8400   19.5285 O   0  0  0  0  0  0  0  0  0  0  0  0
    9.1627  -16.3708   18.9335 N   0  0  0  0  0  0  0  0  0  0  0  0
    9.1958  -15.1458   19.7406 C   0  0  1  0  0  0  0  0  0  0  0  0
    8.1809  -14.1697   19.2721 C   0  0  0  0  0  0  0  0  0  0  0  0
    8.3763  -13.7985   17.8769 C   0  0  0  0  0  0  0  0  0  0  0  0
    9.4803  -13.7894   17.3158 O   0  0  0  0  0  0  0  0  0  0  0  0
    9.0008  -15.5403   21.1814 C   0  0  0  0  0  0  0  0  0  0  0  0
    8.2413  -16.4245   21.5922 O   0  0  0  0  0  0  0  0  0  0  0  0
    7.2600  -13.4294   17.1160 O   0  0  0  0  0  0  0  0  0  0  0  0
    4.7931  -12.1396   26.4172 N   0  0  0  0  0  0  0  0  0  0  0  0
    6.1571  -12.1127   26.8619 C   0  0  0  0  0  0  0  0  0  0  0  0
    6.4874  -11.1707   27.6556 N   0  0  0  0  0  0  0  0  0  0  0  0
    7.1013  -13.0799   26.4463 N   0  0  0  0  0  0  0  0  0  0  0  0
    6.6744  -14.3176   25.8358 C   0  0  0  0  0  0  0  0  0  0  0  0
    7.8815  -15.1717   25.4197 C   0  0  0  0  0  0  0  0  0  0  0  0
    8.2213  -14.7978   24.0100 C   0  0  0  0  0  0  0  0  0  0  0  0
    9.6297  -15.1533   23.6098 C   0  0  2  0  0  0  0  0  0  0  0  0
    9.7513  -14.8431   22.1798 N   0  0  0  0  0  0  0  0  0  0  0  0
   10.0199  -16.5337   23.8965 C   0  0  0  0  0  0  0  0  0  0  0  0
   10.2700  -17.3427   22.9778 O   0  0  0  0  0  0  0  0  0  0  0  0
   10.1225  -16.9822   25.2023 O   0  0  0  0  0  0  0  0  0  0  0  0
  2  1  1  0
  3  2  1  0
  4  3  2  0
  5  3  1  0
  6  7  1  6
  6  5  1  0
  8 12  1  0
  8  7  1  0
  9  8  2  0
 10 11  2  0
 10  6  1  0
 14 13  1  0
 14 16  1  0
 15 14  2  0
 17 16  1  0
 18 17  1  0
 19 18  1  0
 20 21  1  0
 20 19  1  6
 21 10  1  0
 22 20  1  0
 23 22  2  0
 24 22  1  0
M  END
$$$$
