GDR.pdb
     RDKit          3D

 24 23  0  0  1  0  0  0  0  0999 V2000
    4.0971  -18.8627   20.0850 N   0  0  0  0  0  0  0  0  0  0  0  0
    3.7345  -18.3425   21.3801 C   0  0  0  0  0  0  0  0  0  0  0  0
    4.8127  -18.6311   22.3912 C   0  0  0  0  0  0  0  0  0  0  0  0
    4.8458  -18.0186   23.4893 O   0  0  0  0  0  0  0  0  0  0  0  0
    5.8193  -19.5904   22.1491 N   0  0  0  0  0  0  0  0  0  0  0  0
    6.8343  -19.8523   23.1758 C   0  0  1  0  0  0  0  0  0  0  0  0
    7.3605  -21.2355   23.0665 C   0  0  0  0  0  0  0  0  0  0  0  0
    6.3316  -22.2374   23.3116 C   0  0  0  0  0  0  0  0  0  0  0  0
    5.6635  -22.2966   24.3526 O   0  0  0  0  0  0  0  0  0  0  0  0
    7.9110  -18.8081   23.0335 C   0  0  0  0  0  0  0  0  0  0  0  0
    8.7090  -18.7163   22.0943 O   0  0  0  0  0  0  0  0  0  0  0  0
    6.0737  -23.1934   22.3212 O   0  0  0  0  0  0  0  0  0  0  0  0
    7.4546  -11.5461   20.2539 N   0  0  0  0  0  0  0  0  0  0  0  0
    7.6194  -12.7972   19.5709 C   0  0  0  0  0  0  0  0  0  0  0  0
    7.7066  -12.7539   18.2992 N   0  0  0  0  0  0  0  0  0  0  0  0
    7.6831  -14.0281   20.2640 N   0  0  0  0  0  0  0  0  0  0  0  0
    7.8902  -14.0638   21.6932 C   0  0  0  0  0  0  0  0  0  0  0  0
    7.7470  -15.4940   22.2351 C   0  0  0  0  0  0  0  0  0  0  0  0
    8.2824  -15.4915   23.6337 C   0  0  0  0  0  0  0  0  0  0  0  0
    9.0323  -16.7461   23.9994 C   0  0  2  0  0  0  0  0  0  0  0  0
    8.0390  -17.8254   24.0650 N   0  0  0  0  0  0  0  0  0  0  0  0
    9.8135  -16.6572   25.2329 C   0  0  0  0  0  0  0  0  0  0  0  0
    9.3889  -17.1339   26.3070 O   0  0  0  0  0  0  0  0  0  0  0  0
   11.0518  -16.0381   25.2421 O   0  0  0  0  0  0  0  0  0  0  0  0
  2  1  1  0
  3  2  1  0
  4  3  2  0
  5  3  1  0
  6  7  1  6
  6  5  1  0
  8 12  1  0
  8  7  1  0
  9  8  2  0
 10 11  2  0
 10  6  1  0
 14 13  1  0
 14 16  1  0
 15 14  2  0
 17 16  1  0
 18 17  1  0
 19 18  1  0
 20 21  1  0
 20 19  1  1
 21 10  1  0
 22 20  1  0
 23 22  2  0
 24 22  1  0
M  END
$$$$
