GDR.pdb
     RDKit          3D

 24 23  0  0  1  0  0  0  0  0999 V2000
    9.6407  -17.9914   17.2031 N   0  0  0  0  0  0  0  0  0  0  0  0
   10.8705  -17.5787   17.8330 C   0  0  0  0  0  0  0  0  0  0  0  0
   10.8897  -17.9867   19.2826 C   0  0  0  0  0  0  0  0  0  0  0  0
    9.8193  -18.2264   19.8980 O   0  0  0  0  0  0  0  0  0  0  0  0
   12.0977  -18.1146   20.0014 N   0  0  0  0  0  0  0  0  0  0  0  0
   12.0649  -18.5341   21.4070 C   0  0  1  0  0  0  0  0  0  0  0  0
   13.3503  -19.1574   21.8088 C   0  0  0  0  0  0  0  0  0  0  0  0
   13.2717  -19.7851   23.1212 C   0  0  0  0  0  0  0  0  0  0  0  0
   12.2206  -19.9026   23.7656 O   0  0  0  0  0  0  0  0  0  0  0  0
   11.7200  -17.3260   22.2384 C   0  0  0  0  0  0  0  0  0  0  0  0
   12.4658  -16.3664   22.4628 O   0  0  0  0  0  0  0  0  0  0  0  0
   14.4445  -20.2886   23.6977 O   0  0  0  0  0  0  0  0  0  0  0  0
    8.6035  -12.4145   20.5744 N   0  0  0  0  0  0  0  0  0  0  0  0
    7.8273  -13.2073   19.6645 C   0  0  0  0  0  0  0  0  0  0  0  0
    7.8841  -12.8917   18.4301 N   0  0  0  0  0  0  0  0  0  0  0  0
    7.0317  -14.2909   20.1036 N   0  0  0  0  0  0  0  0  0  0  0  0
    7.1481  -14.7971   21.4515 C   0  0  0  0  0  0  0  0  0  0  0  0
    8.6041  -15.1606   21.7797 C   0  0  0  0  0  0  0  0  0  0  0  0
    8.6137  -15.7384   23.1613 C   0  0  0  0  0  0  0  0  0  0  0  0
    9.9862  -16.1234   23.6492 C   0  0  2  0  0  0  0  0  0  0  0  0
   10.4192  -17.2625   22.8301 N   0  0  0  0  0  0  0  0  0  0  0  0
   10.0678  -16.4256   25.0781 C   0  0  0  0  0  0  0  0  0  0  0  0
   10.0848  -17.6038   25.4934 O   0  0  0  0  0  0  0  0  0  0  0  0
   10.1284  -15.4066   26.0135 O   0  0  0  0  0  0  0  0  0  0  0  0
  2  1  1  0
  3  2  1  0
  4  3  2  0
  5  3  1  0
  6  7  1  1
  6  5  1  0
  8 12  1  0
  8  7  1  0
  9  8  2  0
 10 11  2  0
 10  6  1  0
 14 13  1  0
 14 16  1  0
 15 14  2  0
 17 16  1  0
 18 17  1  0
 19 18  1  0
 20 21  1  0
 20 19  1  6
 21 10  1  0
 22 20  1  0
 23 22  2  0
 24 22  1  0
M  END
$$$$
