GDR.pdb
     RDKit          3D

 24 23  0  0  1  0  0  0  0  0999 V2000
    7.9321  -12.9906   16.9132 N   0  0  0  0  0  0  0  0  0  0  0  0
    7.7467  -13.5366   18.2349 C   0  0  0  0  0  0  0  0  0  0  0  0
    8.7250  -14.6522   18.4927 C   0  0  0  0  0  0  0  0  0  0  0  0
    8.6289  -15.3672   19.5230 O   0  0  0  0  0  0  0  0  0  0  0  0
    9.7787  -14.9366   17.5977 N   0  0  0  0  0  0  0  0  0  0  0  0
   10.7093  -16.0309   17.8965 C   0  0  1  0  0  0  0  0  0  0  0  0
   11.5126  -16.3905   16.7017 C   0  0  0  0  0  0  0  0  0  0  0  0
   12.2203  -17.6525   16.8729 C   0  0  0  0  0  0  0  0  0  0  0  0
   12.0859  -18.3877   17.8604 O   0  0  0  0  0  0  0  0  0  0  0  0
   11.5619  -15.6027   19.0625 C   0  0  0  0  0  0  0  0  0  0  0  0
   12.3783  -14.6749   19.0584 O   0  0  0  0  0  0  0  0  0  0  0  0
   13.1054  -18.0691   15.8708 O   0  0  0  0  0  0  0  0  0  0  0  0
    9.3470  -13.8829   26.1744 N   0  0  0  0  0  0  0  0  0  0  0  0
    9.2289  -15.3095   26.2734 C   0  0  0  0  0  0  0  0  0  0  0  0
    9.3845  -15.8230   27.4304 N   0  0  0  0  0  0  0  0  0  0  0  0
    8.9534  -16.1198   25.1477 N   0  0  0  0  0  0  0  0  0  0  0  0
   10.0166  -16.8044   24.4495 C   0  0  0  0  0  0  0  0  0  0  0  0
   10.5742  -15.9385   23.3097 C   0  0  0  0  0  0  0  0  0  0  0  0
   11.6454  -16.7366   22.6328 C   0  0  0  0  0  0  0  0  0  0  0  0
   12.2770  -16.0337   21.4594 C   0  0  2  0  0  0  0  0  0  0  0  0
   11.4311  -16.3191   20.2936 N   0  0  0  0  0  0  0  0  0  0  0  0
   13.6743  -16.3878   21.2106 C   0  0  0  0  0  0  0  0  0  0  0  0
   14.6105  -15.6797   21.6386 O   0  0  0  0  0  0  0  0  0  0  0  0
   13.9975  -17.5245   20.4893 O   0  0  0  0  0  0  0  0  0  0  0  0
  2  1  1  0
  3  2  1  0
  4  3  2  0
  5  3  1  0
  6  7  1  6
  6  5  1  0
  8 12  1  0
  8  7  1  0
  9  8  2  0
 10 11  2  0
 10  6  1  0
 14 13  1  0
 14 16  1  0
 15 14  2  0
 17 16  1  0
 18 17  1  0
 19 18  1  0
 20 21  1  0
 20 19  1  1
 21 10  1  0
 22 20  1  0
 23 22  2  0
 24 22  1  0
M  END
$$$$
