GDR.pdb
     RDKit          3D

 24 23  0  0  1  0  0  0  0  0999 V2000
   10.2841  -22.3894   24.0364 N   0  0  0  0  0  0  0  0  0  0  0  0
    9.1249  -22.2878   24.8879 C   0  0  0  0  0  0  0  0  0  0  0  0
    8.3121  -21.0690   24.5385 C   0  0  0  0  0  0  0  0  0  0  0  0
    7.7465  -20.9719   23.4193 O   0  0  0  0  0  0  0  0  0  0  0  0
    8.1548  -19.9976   25.4437 N   0  0  0  0  0  0  0  0  0  0  0  0
    7.3559  -18.8300   25.0546 C   0  0  1  0  0  0  0  0  0  0  0  0
    7.0913  -17.9509   26.2205 C   0  0  0  0  0  0  0  0  0  0  0  0
    6.3150  -16.7728   25.8572 C   0  0  0  0  0  0  0  0  0  0  0  0
    5.7521  -16.6305   24.7633 O   0  0  0  0  0  0  0  0  0  0  0  0
    8.0898  -18.1205   23.9466 C   0  0  0  0  0  0  0  0  0  0  0  0
    7.7891  -18.1464   22.7482 O   0  0  0  0  0  0  0  0  0  0  0  0
    6.1905  -15.7352   26.7895 O   0  0  0  0  0  0  0  0  0  0  0  0
    9.0328  -14.5466   17.9200 N   0  0  0  0  0  0  0  0  0  0  0  0
    8.5098  -13.5112   18.7646 C   0  0  0  0  0  0  0  0  0  0  0  0
    8.7568  -12.3075   18.4232 N   0  0  0  0  0  0  0  0  0  0  0  0
    7.7542  -13.7990   19.9248 N   0  0  0  0  0  0  0  0  0  0  0  0
    8.3872  -13.8764   21.2210 C   0  0  0  0  0  0  0  0  0  0  0  0
    8.2152  -15.2738   21.8354 C   0  0  0  0  0  0  0  0  0  0  0  0
    8.9280  -15.2673   23.1524 C   0  0  0  0  0  0  0  0  0  0  0  0
    9.8761  -16.4238   23.3359 C   0  0  2  0  0  0  0  0  0  0  0  0
    9.2398  -17.3417   24.2890 N   0  0  0  0  0  0  0  0  0  0  0  0
   11.2240  -16.0511   23.7649 C   0  0  0  0  0  0  0  0  0  0  0  0
   12.0360  -15.5258   22.9739 O   0  0  0  0  0  0  0  0  0  0  0  0
   11.6374  -16.2728   25.0675 O   0  0  0  0  0  0  0  0  0  0  0  0
  2  1  1  0
  3  2  1  0
  4  3  2  0
  5  3  1  0
  6  7  1  1
  6  5  1  0
  8 12  1  0
  8  7  1  0
  9  8  2  0
 10 11  2  0
 10  6  1  0
 14 13  1  0
 14 16  1  0
 15 14  2  0
 17 16  1  0
 18 17  1  0
 19 18  1  0
 20 21  1  0
 20 19  1  1
 21 10  1  0
 22 20  1  0
 23 22  2  0
 24 22  1  0
M  END
$$$$
