GDR.pdb
     RDKit          3D

 24 23  0  0  1  0  0  0  0  0999 V2000
    7.1902  -13.5571   19.5397 N   0  0  0  0  0  0  0  0  0  0  0  0
    8.5837  -13.8580   19.3235 C   0  0  0  0  0  0  0  0  0  0  0  0
    9.0127  -15.0302   20.1662 C   0  0  0  0  0  0  0  0  0  0  0  0
    8.2019  -15.5937   20.9453 O   0  0  0  0  0  0  0  0  0  0  0  0
   10.3288  -15.5378   20.1162 N   0  0  0  0  0  0  0  0  0  0  0  0
   10.6647  -16.7582   20.8581 C   0  0  1  0  0  0  0  0  0  0  0  0
   11.8817  -17.4022   20.3047 C   0  0  0  0  0  0  0  0  0  0  0  0
   11.6336  -18.0322   19.0147 C   0  0  0  0  0  0  0  0  0  0  0  0
   10.5471  -17.9818   18.4224 O   0  0  0  0  0  0  0  0  0  0  0  0
   10.8136  -16.3859   22.3104 C   0  0  0  0  0  0  0  0  0  0  0  0
   11.6429  -15.5943   22.7720 O   0  0  0  0  0  0  0  0  0  0  0  0
   12.6749  -18.7377   18.3989 O   0  0  0  0  0  0  0  0  0  0  0  0
    5.1836  -12.6922   26.9700 N   0  0  0  0  0  0  0  0  0  0  0  0
    6.3037  -12.0095   26.3884 C   0  0  0  0  0  0  0  0  0  0  0  0
    6.3533  -10.7446   26.5437 N   0  0  0  0  0  0  0  0  0  0  0  0
    7.3124  -12.6958   25.6734 N   0  0  0  0  0  0  0  0  0  0  0  0
    7.4226  -14.1344   25.7445 C   0  0  0  0  0  0  0  0  0  0  0  0
    8.6011  -14.6391   24.8981 C   0  0  0  0  0  0  0  0  0  0  0  0
    8.6865  -16.1205   25.0998 C   0  0  0  0  0  0  0  0  0  0  0  0
   10.0116  -16.7133   24.6961 C   0  0  2  0  0  0  0  0  0  0  0  0
    9.9271  -16.9899   23.2566 N   0  0  0  0  0  0  0  0  0  0  0  0
   10.4081  -17.9021   25.4507 C   0  0  0  0  0  0  0  0  0  0  0  0
   10.2946  -19.0478   24.9654 O   0  0  0  0  0  0  0  0  0  0  0  0
   10.9226  -17.7873   26.7308 O   0  0  0  0  0  0  0  0  0  0  0  0
  2  1  1  0
  3  2  1  0
  4  3  2  0
  5  3  1  0
  6  7  1  6
  6  5  1  0
  8 12  1  0
  8  7  1  0
  9  8  2  0
 10 11  2  0
 10  6  1  0
 14 13  1  0
 14 16  1  0
 15 14  2  0
 17 16  1  0
 18 17  1  0
 19 18  1  0
 20 21  1  0
 20 19  1  1
 21 10  1  0
 22 20  1  0
 23 22  2  0
 24 22  1  0
M  END
$$$$
