GDR.pdb
     RDKit          3D

 24 23  0  0  1  0  0  0  0  0999 V2000
   11.7806  -15.8254   16.1895 N   0  0  0  0  0  0  0  0  0  0  0  0
   12.4441  -15.4307   17.4074 C   0  0  0  0  0  0  0  0  0  0  0  0
   11.9723  -16.2683   18.5667 C   0  0  0  0  0  0  0  0  0  0  0  0
   10.7628  -16.5965   18.6734 O   0  0  0  0  0  0  0  0  0  0  0  0
   12.8596  -16.7133   19.5701 N   0  0  0  0  0  0  0  0  0  0  0  0
   12.3379  -17.4556   20.7232 C   0  0  1  0  0  0  0  0  0  0  0  0
   13.3694  -18.3615   21.2867 C   0  0  0  0  0  0  0  0  0  0  0  0
   13.8551  -19.3219   20.3047 C   0  0  0  0  0  0  0  0  0  0  0  0
   13.1134  -20.0228   19.6030 O   0  0  0  0  0  0  0  0  0  0  0  0
   11.8363  -16.4505   21.7271 C   0  0  0  0  0  0  0  0  0  0  0  0
   12.5247  -15.6050   22.3090 O   0  0  0  0  0  0  0  0  0  0  0  0
   15.2373  -19.4701   20.1349 O   0  0  0  0  0  0  0  0  0  0  0  0
    8.8470  -12.1689   20.0965 N   0  0  0  0  0  0  0  0  0  0  0  0
    8.3581  -13.1020   19.1222 C   0  0  0  0  0  0  0  0  0  0  0  0
    8.7116  -12.9116   17.9118 N   0  0  0  0  0  0  0  0  0  0  0  0
    7.5220  -14.1866   19.4751 N   0  0  0  0  0  0  0  0  0  0  0  0
    7.9206  -15.1278   20.4958 C   0  0  0  0  0  0  0  0  0  0  0  0
    8.1072  -14.4262   21.8496 C   0  0  0  0  0  0  0  0  0  0  0  0
    8.4173  -15.4889   22.8581 C   0  0  0  0  0  0  0  0  0  0  0  0
    9.8886  -15.6462   23.1421 C   0  0  2  0  0  0  0  0  0  0  0  0
   10.4429  -16.4569   22.0506 N   0  0  0  0  0  0  0  0  0  0  0  0
   10.2039  -16.2177   24.4512 C   0  0  0  0  0  0  0  0  0  0  0  0
   10.5202  -17.4199   24.5766 O   0  0  0  0  0  0  0  0  0  0  0  0
   10.1594  -15.4357   25.5928 O   0  0  0  0  0  0  0  0  0  0  0  0
  2  1  1  0
  3  2  1  0
  4  3  2  0
  5  3  1  0
  6  7  1  1
  6  5  1  0
  8 12  1  0
  8  7  1  0
  9  8  2  0
 10 11  2  0
 10  6  1  0
 14 13  1  0
 14 16  1  0
 15 14  2  0
 17 16  1  0
 18 17  1  0
 19 18  1  0
 20 21  1  0
 20 19  1  6
 21 10  1  0
 22 20  1  0
 23 22  2  0
 24 22  1  0
M  END
$$$$
