GDR.pdb
     RDKit          3D

 24 23  0  0  1  0  0  0  0  0999 V2000
   12.8070  -17.3098   16.4940 N   0  0  0  0  0  0  0  0  0  0  0  0
   13.5638  -16.9317   17.6617 C   0  0  0  0  0  0  0  0  0  0  0  0
   13.1274  -17.7306   18.8614 C   0  0  0  0  0  0  0  0  0  0  0  0
   11.9208  -18.0493   19.0182 O   0  0  0  0  0  0  0  0  0  0  0  0
   14.0457  -18.1490   19.8483 N   0  0  0  0  0  0  0  0  0  0  0  0
   13.5498  -18.7138   21.1084 C   0  0  1  0  0  0  0  0  0  0  0  0
   14.6111  -19.4838   21.8032 C   0  0  0  0  0  0  0  0  0  0  0  0
   14.0701  -20.3658   22.8289 C   0  0  0  0  0  0  0  0  0  0  0  0
   14.5768  -20.5090   23.9498 O   0  0  0  0  0  0  0  0  0  0  0  0
   13.0161  -17.5777   21.9417 C   0  0  0  0  0  0  0  0  0  0  0  0
   13.6059  -16.5186   22.1820 O   0  0  0  0  0  0  0  0  0  0  0  0
   12.9113  -21.0985   22.5436 O   0  0  0  0  0  0  0  0  0  0  0  0
    6.8422  -13.1734   19.6146 N   0  0  0  0  0  0  0  0  0  0  0  0
    8.1959  -13.0982   19.1447 C   0  0  0  0  0  0  0  0  0  0  0  0
    8.4132  -12.3647   18.1242 N   0  0  0  0  0  0  0  0  0  0  0  0
    9.2493  -13.8002   19.7749 N   0  0  0  0  0  0  0  0  0  0  0  0
    9.0142  -14.5667   20.9766 C   0  0  0  0  0  0  0  0  0  0  0  0
   10.2782  -15.3309   21.3987 C   0  0  0  0  0  0  0  0  0  0  0  0
    9.9203  -16.1434   22.6046 C   0  0  0  0  0  0  0  0  0  0  0  0
   11.1138  -16.6720   23.3571 C   0  0  2  0  0  0  0  0  0  0  0  0
   11.7130  -17.7153   22.5153 N   0  0  0  0  0  0  0  0  0  0  0  0
   10.8219  -17.1671   24.7023 C   0  0  0  0  0  0  0  0  0  0  0  0
   10.8597  -18.3872   24.9684 O   0  0  0  0  0  0  0  0  0  0  0  0
   10.4936  -16.2901   25.7221 O   0  0  0  0  0  0  0  0  0  0  0  0
  2  1  1  0
  3  2  1  0
  4  3  2  0
  5  3  1  0
  6  7  1  1
  6  5  1  0
  8 12  1  0
  8  7  1  0
  9  8  2  0
 10 11  2  0
 10  6  1  0
 14 13  1  0
 14 16  1  0
 15 14  2  0
 17 16  1  0
 18 17  1  0
 19 18  1  0
 20 21  1  0
 20 19  1  6
 21 10  1  0
 22 20  1  0
 23 22  2  0
 24 22  1  0
M  END
$$$$
