RAS.pdb
     RDKit          3D

 23 22  0  0  1  0  0  0  0  0999 V2000
   15.5642  -11.5567  -15.3712 N   0  0  0  0  0  0  0  0  0  0  0  0
   15.7983  -12.9437  -15.1665 C   0  0  0  0  0  0  0  0  0  0  0  0
   14.8230  -13.7651  -15.0664 N   0  0  0  0  0  0  0  0  0  0  0  0
   17.1477  -13.3822  -15.0776 N   0  0  0  0  0  0  0  0  0  0  0  0
   18.1815  -12.3536  -15.0969 C   0  0  0  0  0  0  0  0  0  0  0  0
   18.6416  -12.1522  -16.4984 C   0  0  0  0  0  0  0  0  0  0  0  0
   19.6519  -11.0679  -16.5840 C   0  0  0  0  0  0  0  0  0  0  0  0
   20.0232  -10.7266  -18.0087 C   0  0  2  0  0  0  0  0  0  0  0  0
   20.8666  -11.8073  -18.4782 N   0  0  0  0  0  0  0  0  0  0  0  0
   20.8533   -9.4829  -18.0325 C   0  0  0  0  0  0  0  0  0  0  0  0
   22.0369   -9.5272  -17.6311 O   0  0  0  0  0  0  0  0  0  0  0  0
   14.9956  -14.7682  -14.8692 C   0  0  0  0  0  0  0  0  0  0  0  0
   20.4341   -5.9788  -19.4245 C   0  0  1  0  0  0  0  0  0  0  0  0
   21.1048   -7.0254  -18.5660 N   0  0  0  0  0  0  0  0  0  0  0  0
   20.3522   -8.2523  -18.4927 C   0  0  0  0  0  0  0  0  0  0  0  0
   21.3576   -6.5268  -17.1889 O   0  0  0  0  0  0  0  0  0  0  0  0
   20.5490   -6.8080  -16.2402 O   0  0  0  0  0  0  0  0  0  0  0  0
   25.0932   -5.6311  -15.6693 C   0  0  0  0  0  0  0  0  0  0  0  0
   24.1141   -4.6601  -15.4860 C   0  0  2  0  0  0  0  0  0  0  0  0
   22.7147   -5.2736  -15.4753 N   0  0  0  0  0  0  0  0  0  0  0  0
   22.4780   -5.7322  -16.8529 C   0  0  0  0  0  0  0  0  0  0  0  0
   21.7646   -4.1719  -15.2067 O   0  0  0  0  0  0  0  0  0  0  0  0
   21.2978   -3.9066  -13.9259 O   0  0  0  0  0  0  0  0  0  0  0  0
  2  1  1  0
  2  4  1  0
  3  2  2  0
  5  4  1  0
  6  5  1  0
  7  8  1  0
  7  6  1  0
  8 10  1  0
  8  9  1  1
 10 14  1  0
 10 11  2  0
 13 12  1  6
 13 15  1  0
 14 13  1  0
 15 16  2  0
 17 18  1  0
 19 18  1  1
 19 21  1  0
 20 15  1  0
 20 19  1  0
 21 22  1  0
 23 21  2  0
M  END
$$$$
