RAS.pdb
     RDKit          3D

 23 22  0  0  1  0  0  0  0  0999 V2000
   23.4160  -14.7979  -23.5157 N   0  0  0  0  0  0  0  0  0  0  0  0
   24.6753  -15.4454  -23.3918 C   0  0  0  0  0  0  0  0  0  0  0  0
   25.4202  -15.6309  -24.4149 N   0  0  0  0  0  0  0  0  0  0  0  0
   25.0745  -15.8767  -22.0973 N   0  0  0  0  0  0  0  0  0  0  0  0
   24.3676  -15.3002  -20.9594 C   0  0  0  0  0  0  0  0  0  0  0  0
   24.9046  -13.9375  -20.6924 C   0  0  0  0  0  0  0  0  0  0  0  0
   24.1938  -13.2896  -19.5616 C   0  0  0  0  0  0  0  0  0  0  0  0
   24.7771  -13.6581  -18.2170 C   0  0  2  0  0  0  0  0  0  0  0  0
   23.9685  -14.7478  -17.7086 N   0  0  0  0  0  0  0  0  0  0  0  0
   24.6186  -12.5157  -17.2650 C   0  0  0  0  0  0  0  0  0  0  0  0
   23.4810  -12.2332  -16.8292 O   0  0  0  0  0  0  0  0  0  0  0  0
   26.3425  -16.0948  -24.3193 C   0  0  0  0  0  0  0  0  0  0  0  0
   26.9944  -10.1899  -15.4230 C   0  0  1  0  0  0  0  0  0  0  0  0
   25.6335  -10.6636  -15.8770 N   0  0  0  0  0  0  0  0  0  0  0  0
   25.7081  -11.7376  -16.8350 C   0  0  0  0  0  0  0  0  0  0  0  0
   24.8291   -9.5538  -16.4518 O   0  0  0  0  0  0  0  0  0  0  0  0
   24.8878   -9.2919  -17.7011 O   0  0  0  0  0  0  0  0  0  0  0  0
   21.2226   -8.1751  -15.0973 C   0  0  0  0  0  0  0  0  0  0  0  0
   22.2090   -7.2013  -15.2140 C   0  0  2  0  0  0  0  0  0  0  0  0
   23.2598   -7.5928  -16.2521 N   0  0  0  0  0  0  0  0  0  0  0  0
   23.9729   -8.7419  -15.6728 C   0  0  0  0  0  0  0  0  0  0  0  0
   24.2213   -6.4716  -16.3342 O   0  0  0  0  0  0  0  0  0  0  0  0
   23.8947   -5.2741  -16.9571 O   0  0  0  0  0  0  0  0  0  0  0  0
  2  1  1  0
  2  4  1  0
  3  2  2  0
  5  4  1  0
  6  5  1  0
  7  8  1  0
  7  6  1  0
  8 10  1  0
  8  9  1  1
 10 14  1  0
 10 11  2  0
 13 12  1  1
 13 15  1  0
 14 13  1  0
 15 16  2  0
 17 18  1  0
 19 18  1  6
 19 21  1  0
 20 15  1  0
 20 19  1  0
 21 22  1  0
 23 21  2  0
M  END
$$$$
