RAS.pdb
     RDKit          3D

 23 22  0  0  1  0  0  0  0  0999 V2000
   26.8001  -21.2720  -11.3209 N   0  0  0  0  0  0  0  0  0  0  0  0
   25.7772  -21.0004  -10.3721 C   0  0  0  0  0  0  0  0  0  0  0  0
   26.0654  -20.7505   -9.1513 N   0  0  0  0  0  0  0  0  0  0  0  0
   24.4302  -21.0164  -10.8265 N   0  0  0  0  0  0  0  0  0  0  0  0
   24.2162  -21.1788  -12.2600 C   0  0  0  0  0  0  0  0  0  0  0  0
   24.5301  -19.8961  -12.9474 C   0  0  0  0  0  0  0  0  0  0  0  0
   23.5627  -19.6178  -14.0384 C   0  0  0  0  0  0  0  0  0  0  0  0
   23.4803  -20.7408  -15.0465 C   0  0  2  0  0  0  0  0  0  0  0  0
   24.5830  -20.5430  -15.9655 N   0  0  0  0  0  0  0  0  0  0  0  0
   22.2205  -20.6164  -15.8427 C   0  0  0  0  0  0  0  0  0  0  0  0
   22.1765  -19.8132  -16.8002 O   0  0  0  0  0  0  0  0  0  0  0  0
   25.3192  -20.5217   -8.4688 C   0  0  0  0  0  0  0  0  0  0  0  0
   18.9794  -22.5512  -16.0871 C   0  0  1  0  0  0  0  0  0  0  0  0
   19.8399  -21.3286  -16.3038 N   0  0  0  0  0  0  0  0  0  0  0  0
   21.0709  -21.3736  -15.5557 C   0  0  0  0  0  0  0  0  0  0  0  0
   19.1116  -20.0775  -15.9672 O   0  0  0  0  0  0  0  0  0  0  0  0
   19.2689  -19.5241  -14.8262 O   0  0  0  0  0  0  0  0  0  0  0  0
   16.2042  -18.7346  -18.4370 C   0  0  0  0  0  0  0  0  0  0  0  0
   16.9002  -17.6998  -17.8207 C   0  0  1  0  0  0  0  0  0  0  0  0
   17.5664  -18.1678  -16.5276 N   0  0  0  0  0  0  0  0  0  0  0  0
   18.2239  -19.4400  -16.8645 C   0  0  0  0  0  0  0  0  0  0  0  0
   16.4803  -18.4715  -15.5702 O   0  0  0  0  0  0  0  0  0  0  0  0
   15.7423  -17.4654  -14.9605 O   0  0  0  0  0  0  0  0  0  0  0  0
  2  1  1  0
  2  4  1  0
  3  2  2  0
  5  4  1  0
  6  5  1  0
  7  8  1  0
  7  6  1  0
  8 10  1  0
  8  9  1  6
 10 14  1  0
 10 11  2  0
 13 12  1  6
 13 15  1  0
 14 13  1  0
 15 16  2  0
 17 18  1  0
 19 18  1  6
 19 21  1  0
 20 15  1  0
 20 19  1  0
 21 22  1  0
 23 21  2  0
M  END
$$$$
