RAS.pdb
     RDKit          3D

 23 22  0  0  1  0  0  0  0  0999 V2000
   31.3749  -25.1123  -15.7427 N   0  0  0  0  0  0  0  0  0  0  0  0
   30.1123  -25.5097  -16.2607 C   0  0  0  0  0  0  0  0  0  0  0  0
   29.7417  -26.7331  -16.2169 N   0  0  0  0  0  0  0  0  0  0  0  0
   29.2813  -24.5042  -16.8258 N   0  0  0  0  0  0  0  0  0  0  0  0
   29.7771  -23.1333  -16.7829 C   0  0  0  0  0  0  0  0  0  0  0  0
   29.4084  -22.5230  -15.4759 C   0  0  0  0  0  0  0  0  0  0  0  0
   28.1406  -21.7573  -15.5765 C   0  0  0  0  0  0  0  0  0  0  0  0
   28.0583  -20.9267  -16.8363 C   0  0  2  0  0  0  0  0  0  0  0  0
   28.8132  -19.7177  -16.5754 N   0  0  0  0  0  0  0  0  0  0  0  0
   26.6419  -20.5131  -17.0797 C   0  0  0  0  0  0  0  0  0  0  0  0
   26.2115  -19.4611  -16.5582 O   0  0  0  0  0  0  0  0  0  0  0  0
   28.8787  -27.0411  -16.7020 C   0  0  0  0  0  0  0  0  0  0  0  0
   23.8021  -21.7536  -19.2777 C   0  0  1  0  0  0  0  0  0  0  0  0
   24.3992  -20.9123  -18.1741 N   0  0  0  0  0  0  0  0  0  0  0  0
   25.7646  -21.2668  -17.8795 C   0  0  0  0  0  0  0  0  0  0  0  0
   23.5956  -20.9923  -16.9263 O   0  0  0  0  0  0  0  0  0  0  0  0
   23.8469  -21.8891  -16.0514 O   0  0  0  0  0  0  0  0  0  0  0  0
   20.0333  -18.9539  -14.2571 C   0  0  0  0  0  0  0  0  0  0  0  0
   20.8740  -18.9555  -15.3653 C   0  0  1  0  0  0  0  0  0  0  0  0
   21.7765  -20.1885  -15.3794 N   0  0  0  0  0  0  0  0  0  0  0  0
   22.5328  -20.1053  -16.6386 C   0  0  0  0  0  0  0  0  0  0  0  0
   20.8899  -21.3690  -15.4735 O   0  0  0  0  0  0  0  0  0  0  0  0
   20.5439  -22.1131  -14.3531 O   0  0  0  0  0  0  0  0  0  0  0  0
  2  1  1  0
  2  4  1  0
  3  2  2  0
  5  4  1  0
  6  5  1  0
  7  8  1  0
  7  6  1  0
  8 10  1  0
  8  9  1  1
 10 14  1  0
 10 11  2  0
 13 12  1  6
 13 15  1  0
 14 13  1  0
 15 16  2  0
 17 18  1  0
 19 18  1  1
 19 21  1  0
 20 15  1  0
 20 19  1  0
 21 22  1  0
 23 21  2  0
M  END
$$$$
