RAS.pdb
     RDKit          3D

 23 22  0  0  1  0  0  0  0  0999 V2000
   29.7670  -23.9573  -16.7966 N   0  0  0  0  0  0  0  0  0  0  0  0
   29.9919  -24.9480  -17.7908 C   0  0  0  0  0  0  0  0  0  0  0  0
   30.9886  -24.8623  -18.5877 N   0  0  0  0  0  0  0  0  0  0  0  0
   29.0743  -26.0312  -17.8668 N   0  0  0  0  0  0  0  0  0  0  0  0
   28.0347  -26.0920  -16.8457 C   0  0  0  0  0  0  0  0  0  0  0  0
   26.7129  -25.8351  -17.4809 C   0  0  0  0  0  0  0  0  0  0  0  0
   25.9343  -24.8277  -16.7176 C   0  0  0  0  0  0  0  0  0  0  0  0
   24.6194  -24.4828  -17.3780 C   0  0  2  0  0  0  0  0  0  0  0  0
   24.4655  -25.4073  -18.4831 N   0  0  0  0  0  0  0  0  0  0  0  0
   24.6913  -23.1090  -17.9647 C   0  0  0  0  0  0  0  0  0  0  0  0
   24.6671  -22.9704  -19.2073 O   0  0  0  0  0  0  0  0  0  0  0  0
   31.1602  -25.5963  -19.2995 C   0  0  0  0  0  0  0  0  0  0  0  0
   24.6930  -19.5673  -16.5876 C   0  0  1  0  0  0  0  0  0  0  0  0
   24.8780  -20.6062  -17.6687 N   0  0  0  0  0  0  0  0  0  0  0  0
   24.7860  -21.9544  -17.1679 C   0  0  0  0  0  0  0  0  0  0  0  0
   26.1739  -20.4375  -18.3767 O   0  0  0  0  0  0  0  0  0  0  0  0
   26.4232  -19.3637  -19.0229 O   0  0  0  0  0  0  0  0  0  0  0  0
   30.5881  -22.3250  -19.3022 C   0  0  0  0  0  0  0  0  0  0  0  0
   29.3680  -22.3528  -18.6348 C   0  0  1  0  0  0  0  0  0  0  0  0
   28.4283  -21.2606  -19.1438 N   0  0  0  0  0  0  0  0  0  0  0  0
   27.1830  -21.4280  -18.3786 C   0  0  0  0  0  0  0  0  0  0  0  0
   28.1252  -21.5785  -20.5564 O   0  0  0  0  0  0  0  0  0  0  0  0
   29.0111  -21.2695  -21.5804 O   0  0  0  0  0  0  0  0  0  0  0  0
  2  1  1  0
  2  4  1  0
  3  2  2  0
  5  4  1  0
  6  5  1  0
  7  8  1  0
  7  6  1  0
  8 10  1  0
  8  9  1  6
 10 14  1  0
 10 11  2  0
 13 12  1  6
 13 15  1  0
 14 13  1  0
 15 16  2  0
 17 18  1  0
 19 18  1  1
 19 21  1  0
 20 15  1  0
 20 19  1  0
 21 22  1  0
 23 21  2  0
M  END
$$$$
