RAS.pdb
     RDKit          3D

 23 22  0  0  1  0  0  0  0  0999 V2000
   19.9041  -17.0883  -15.7543 N   0  0  0  0  0  0  0  0  0  0  0  0
   20.4540  -17.4067  -17.0259 C   0  0  0  0  0  0  0  0  0  0  0  0
   20.5810  -18.6235  -17.3988 N   0  0  0  0  0  0  0  0  0  0  0  0
   20.8551  -16.3300  -17.8630 N   0  0  0  0  0  0  0  0  0  0  0  0
   20.5759  -14.9802  -17.3864 C   0  0  0  0  0  0  0  0  0  0  0  0
   21.8209  -14.1679  -17.4680 C   0  0  0  0  0  0  0  0  0  0  0  0
   21.5992  -12.7888  -16.9653 C   0  0  0  0  0  0  0  0  0  0  0  0
   22.8655  -11.9641  -16.9444 C   0  0  2  0  0  0  0  0  0  0  0  0
   23.7111  -12.5446  -15.9208 N   0  0  0  0  0  0  0  0  0  0  0  0
   22.5537  -10.5666  -16.5125 C   0  0  0  0  0  0  0  0  0  0  0  0
   22.1642  -10.3583  -15.3426 O   0  0  0  0  0  0  0  0  0  0  0  0
   21.0687  -18.8564  -18.2836 C   0  0  0  0  0  0  0  0  0  0  0  0
   23.0768   -7.1106  -17.9630 C   0  0  1  0  0  0  0  0  0  0  0  0
   22.4282   -8.0933  -17.0164 N   0  0  0  0  0  0  0  0  0  0  0  0
   22.6818   -9.4653  -17.3773 C   0  0  0  0  0  0  0  0  0  0  0  0
   20.9606   -7.8784  -16.9220 O   0  0  0  0  0  0  0  0  0  0  0  0
   20.1719   -8.4168  -17.7711 O   0  0  0  0  0  0  0  0  0  0  0  0
   18.9292   -7.7349  -13.5156 C   0  0  0  0  0  0  0  0  0  0  0  0
   18.6372   -6.6434  -14.3271 C   0  0  2  0  0  0  0  0  0  0  0  0
   18.9024   -6.9557  -15.7992 N   0  0  0  0  0  0  0  0  0  0  0  0
   20.3633   -7.0865  -15.9144 C   0  0  0  0  0  0  0  0  0  0  0  0
   18.5037   -5.7582  -16.5710 O   0  0  0  0  0  0  0  0  0  0  0  0
   17.1715   -5.4752  -16.8427 O   0  0  0  0  0  0  0  0  0  0  0  0
  2  1  1  0
  2  4  1  0
  3  2  2  0
  5  4  1  0
  6  5  1  0
  7  8  1  0
  7  6  1  0
  8 10  1  0
  8  9  1  1
 10 14  1  0
 10 11  2  0
 13 12  1  1
 13 15  1  0
 14 13  1  0
 15 16  2  0
 17 18  1  0
 19 18  1  1
 19 21  1  0
 20 15  1  0
 20 19  1  0
 21 22  1  0
 23 21  2  0
M  END
$$$$
