RAS.pdb
     RDKit          3D

 23 22  0  0  1  0  0  0  0  0999 V2000
   24.0696  -20.9753   -9.8002 N   0  0  0  0  0  0  0  0  0  0  0  0
   25.2384  -20.8962   -8.9952 C   0  0  0  0  0  0  0  0  0  0  0  0
   25.1797  -21.0967   -7.7333 N   0  0  0  0  0  0  0  0  0  0  0  0
   26.4675  -20.5880   -9.6395 N   0  0  0  0  0  0  0  0  0  0  0  0
   26.3883  -20.0022  -10.9728 C   0  0  0  0  0  0  0  0  0  0  0  0
   26.8429  -21.0064  -11.9735 C   0  0  0  0  0  0  0  0  0  0  0  0
   26.7416  -20.4746  -13.3558 C   0  0  0  0  0  0  0  0  0  0  0  0
   25.5273  -19.5975  -13.5566 C   0  0  2  0  0  0  0  0  0  0  0  0
   24.4231  -20.4918  -13.8405 N   0  0  0  0  0  0  0  0  0  0  0  0
   25.7161  -18.7390  -14.7666 C   0  0  0  0  0  0  0  0  0  0  0  0
   25.5352  -19.2306  -15.9022 O   0  0  0  0  0  0  0  0  0  0  0  0
   26.0303  -21.0167   -7.1459 C   0  0  0  0  0  0  0  0  0  0  0  0
   26.5414  -15.0741  -15.3806 C   0  0  1  0  0  0  0  0  0  0  0  0
   26.2550  -16.4968  -15.8005 N   0  0  0  0  0  0  0  0  0  0  0  0
   26.0928  -17.3871  -14.6789 C   0  0  0  0  0  0  0  0  0  0  0  0
   27.3156  -17.0296  -16.6951 O   0  0  0  0  0  0  0  0  0  0  0  0
   28.3995  -17.4976  -16.2064 O   0  0  0  0  0  0  0  0  0  0  0  0
   27.1753  -19.6736  -19.3937 C   0  0  0  0  0  0  0  0  0  0  0  0
   27.5779  -18.4771  -19.9779 C   0  0  2  0  0  0  0  0  0  0  0  0
   28.2694  -17.5661  -18.9646 N   0  0  0  0  0  0  0  0  0  0  0  0
   27.1936  -17.0508  -18.1036 C   0  0  0  0  0  0  0  0  0  0  0  0
   28.8174  -16.4193  -19.7216 O   0  0  0  0  0  0  0  0  0  0  0  0
   28.2576  -15.1514  -19.6324 O   0  0  0  0  0  0  0  0  0  0  0  0
  2  1  1  0
  2  4  1  0
  3  2  2  0
  5  4  1  0
  6  5  1  0
  7  8  1  0
  7  6  1  0
  8 10  1  0
  8  9  1  6
 10 14  1  0
 10 11  2  0
 13 12  1  1
 13 15  1  0
 14 13  1  0
 15 16  2  0
 17 18  1  0
 19 18  1  1
 19 21  1  0
 20 15  1  0
 20 19  1  0
 21 22  1  0
 23 21  2  0
M  END
$$$$
