RAS.pdb
     RDKit          3D

 23 22  0  0  1  0  0  0  0  0999 V2000
   12.8488  -14.4493  -10.9803 N   0  0  0  0  0  0  0  0  0  0  0  0
   11.6219  -14.0290  -10.3985 C   0  0  0  0  0  0  0  0  0  0  0  0
   10.9909  -14.7847   -9.5821 N   0  0  0  0  0  0  0  0  0  0  0  0
   11.1245  -12.7457  -10.7549 N   0  0  0  0  0  0  0  0  0  0  0  0
   11.9188  -11.9651  -11.6966 C   0  0  0  0  0  0  0  0  0  0  0  0
   12.8527  -11.0893  -10.9368 C   0  0  0  0  0  0  0  0  0  0  0  0
   13.5977  -10.1801  -11.8434 C   0  0  0  0  0  0  0  0  0  0  0  0
   15.0963  -10.2992  -11.6878 C   0  0  2  0  0  0  0  0  0  0  0  0
   15.3191  -11.2642  -10.6301 N   0  0  0  0  0  0  0  0  0  0  0  0
   15.6625   -8.9973  -11.2176 C   0  0  0  0  0  0  0  0  0  0  0  0
   15.7397   -8.7691   -9.9905 O   0  0  0  0  0  0  0  0  0  0  0  0
   10.0673  -14.5010   -9.2061 C   0  0  0  0  0  0  0  0  0  0  0  0
   17.3153   -6.0016  -12.8693 C   0  0  1  0  0  0  0  0  0  0  0  0
   16.6509   -6.7268  -11.7226 N   0  0  0  0  0  0  0  0  0  0  0  0
   16.1167   -8.0085  -12.1083 C   0  0  0  0  0  0  0  0  0  0  0  0
   15.5682   -5.9126  -11.1112 O   0  0  0  0  0  0  0  0  0  0  0  0
   14.4240   -5.8301  -11.6742 O   0  0  0  0  0  0  0  0  0  0  0  0
   16.0689   -4.3435   -7.3854 C   0  0  0  0  0  0  0  0  0  0  0  0
   14.7631   -4.5351   -7.8250 C   0  0  1  0  0  0  0  0  0  0  0  0
   14.6546   -4.3707   -9.3403 N   0  0  0  0  0  0  0  0  0  0  0  0
   15.7332   -5.1986   -9.9020 C   0  0  0  0  0  0  0  0  0  0  0  0
   14.9773   -2.9591   -9.6436 O   0  0  0  0  0  0  0  0  0  0  0  0
   14.1204   -1.9233   -9.2948 O   0  0  0  0  0  0  0  0  0  0  0  0
  2  1  1  0
  2  4  1  0
  3  2  2  0
  5  4  1  0
  6  5  1  0
  7  8  1  0
  7  6  1  0
  8 10  1  0
  8  9  1  1
 10 14  1  0
 10 11  2  0
 13 12  1  1
 13 15  1  0
 14 13  1  0
 15 16  2  0
 17 18  1  0
 19 18  1  6
 19 21  1  0
 20 15  1  0
 20 19  1  0
 21 22  1  0
 23 21  2  0
M  END
$$$$
