RAS.pdb
     RDKit          3D

 23 22  0  0  1  0  0  0  0  0999 V2000
   24.8557  -21.3370  -10.8753 N   0  0  0  0  0  0  0  0  0  0  0  0
   25.8789  -20.4761  -10.3931 C   0  0  0  0  0  0  0  0  0  0  0  0
   26.1933  -20.4622   -9.1534 N   0  0  0  0  0  0  0  0  0  0  0  0
   26.5361  -19.6362  -11.3330 N   0  0  0  0  0  0  0  0  0  0  0  0
   26.7985  -20.1973  -12.6534 C   0  0  0  0  0  0  0  0  0  0  0  0
   27.5126  -19.1851  -13.4793 C   0  0  0  0  0  0  0  0  0  0  0  0
   27.0167  -19.1834  -14.8785 C   0  0  0  0  0  0  0  0  0  0  0  0
   26.5973  -20.5563  -15.3512 C   0  0  2  0  0  0  0  0  0  0  0  0
   27.5168  -20.9193  -16.4106 N   0  0  0  0  0  0  0  0  0  0  0  0
   25.2334  -20.4881  -15.9610 C   0  0  0  0  0  0  0  0  0  0  0  0
   25.0867  -19.9428  -17.0768 O   0  0  0  0  0  0  0  0  0  0  0  0
   26.9774  -19.8749   -8.8141 C   0  0  0  0  0  0  0  0  0  0  0  0
   22.0113  -22.3074  -15.4975 C   0  0  1  0  0  0  0  0  0  0  0  0
   22.7738  -21.0649  -15.8936 N   0  0  0  0  0  0  0  0  0  0  0  0
   24.0970  -21.0176  -15.3244 C   0  0  0  0  0  0  0  0  0  0  0  0
   22.0395  -19.8276  -15.5211 O   0  0  0  0  0  0  0  0  0  0  0  0
   22.2664  -19.2523  -14.4029 O   0  0  0  0  0  0  0  0  0  0  0  0
   19.1252  -18.4023  -18.0012 C   0  0  0  0  0  0  0  0  0  0  0  0
   19.7622  -17.4335  -17.2327 C   0  0  1  0  0  0  0  0  0  0  0  0
   20.3283  -18.0271  -15.9434 N   0  0  0  0  0  0  0  0  0  0  0  0
   21.0710  -19.2273  -16.3584 C   0  0  0  0  0  0  0  0  0  0  0  0
   19.1743  -18.4788  -15.1354 O   0  0  0  0  0  0  0  0  0  0  0  0
   18.3626  -17.5799  -14.4559 O   0  0  0  0  0  0  0  0  0  0  0  0
  2  1  1  0
  2  4  1  0
  3  2  2  0
  5  4  1  0
  6  5  1  0
  7  8  1  0
  7  6  1  0
  8 10  1  0
  8  9  1  6
 10 14  1  0
 10 11  2  0
 13 12  1  6
 13 15  1  0
 14 13  1  0
 15 16  2  0
 17 18  1  0
 19 18  1  6
 19 21  1  0
 20 15  1  0
 20 19  1  0
 21 22  1  0
 23 21  2  0
M  END
$$$$
