RAS.pdb
     RDKit          3D

 23 22  0  0  1  0  0  0  0  0999 V2000
   20.9385  -22.6053   -7.7158 N   0  0  0  0  0  0  0  0  0  0  0  0
   20.0047  -22.9462   -8.7318 C   0  0  0  0  0  0  0  0  0  0  0  0
   18.8473  -23.4007   -8.4323 N   0  0  0  0  0  0  0  0  0  0  0  0
   20.4015  -22.7647  -10.0848 N   0  0  0  0  0  0  0  0  0  0  0  0
   21.7151  -22.1752  -10.3169 C   0  0  0  0  0  0  0  0  0  0  0  0
   21.6706  -20.7308   -9.9588 C   0  0  0  0  0  0  0  0  0  0  0  0
   22.9137  -20.0335  -10.3739 C   0  0  0  0  0  0  0  0  0  0  0  0
   24.1160  -20.9489  -10.3998 C   0  0  2  0  0  0  0  0  0  0  0  0
   24.6359  -20.9744   -9.0475 N   0  0  0  0  0  0  0  0  0  0  0  0
   25.1830  -20.3605  -11.2669 C   0  0  0  0  0  0  0  0  0  0  0  0
   25.5007  -19.1599  -11.1196 O   0  0  0  0  0  0  0  0  0  0  0  0
   18.1741  -23.6623   -9.1761 C   0  0  0  0  0  0  0  0  0  0  0  0
   27.7321  -21.6662  -13.7332 C   0  0  1  0  0  0  0  0  0  0  0  0
   26.8405  -20.5893  -13.1609 N   0  0  0  0  0  0  0  0  0  0  0  0
   25.8509  -21.1098  -12.2516 C   0  0  0  0  0  0  0  0  0  0  0  0
   26.1587  -19.8146  -14.2305 O   0  0  0  0  0  0  0  0  0  0  0  0
   24.9674  -20.1111  -14.5849 O   0  0  0  0  0  0  0  0  0  0  0  0
   26.6744  -15.9097  -14.9366 C   0  0  0  0  0  0  0  0  0  0  0  0
   26.8101  -16.6653  -16.0966 C   0  0  2  0  0  0  0  0  0  0  0  0
   26.0809  -18.0030  -15.9799 N   0  0  0  0  0  0  0  0  0  0  0  0
   26.7698  -18.7314  -14.9032 C   0  0  0  0  0  0  0  0  0  0  0  0
   26.3280  -18.7385  -17.2395 O   0  0  0  0  0  0  0  0  0  0  0  0
   25.6395  -18.4376  -18.4074 O   0  0  0  0  0  0  0  0  0  0  0  0
  2  1  1  0
  2  4  1  0
  3  2  2  0
  5  4  1  0
  6  5  1  0
  7  8  1  0
  7  6  1  0
  8 10  1  0
  8  9  1  1
 10 14  1  0
 10 11  2  0
 13 12  1  1
 13 15  1  0
 14 13  1  0
 15 16  2  0
 17 18  1  0
 19 18  1  1
 19 21  1  0
 20 15  1  0
 20 19  1  0
 21 22  1  0
 23 21  2  0
M  END
$$$$
