RAS.pdb
     RDKit          3D

 23 22  0  0  1  0  0  0  0  0999 V2000
   18.8955  -18.6627  -18.2899 N   0  0  0  0  0  0  0  0  0  0  0  0
   19.7827  -17.5530  -18.2482 C   0  0  0  0  0  0  0  0  0  0  0  0
   19.4919  -16.4588  -18.8432 N   0  0  0  0  0  0  0  0  0  0  0  0
   20.9978  -17.7025  -17.5255 N   0  0  0  0  0  0  0  0  0  0  0  0
   21.2833  -19.0223  -16.9746 C   0  0  0  0  0  0  0  0  0  0  0  0
   20.6497  -19.1370  -15.6322 C   0  0  0  0  0  0  0  0  0  0  0  0
   20.9191  -20.4622  -15.0199 C   0  0  0  0  0  0  0  0  0  0  0  0
   22.0266  -20.4167  -13.9925 C   0  0  2  0  0  0  0  0  0  0  0  0
   23.1411  -21.1447  -14.5646 N   0  0  0  0  0  0  0  0  0  0  0  0
   21.6075  -21.1559  -12.7619 C   0  0  0  0  0  0  0  0  0  0  0  0
   21.7011  -22.4027  -12.7332 O   0  0  0  0  0  0  0  0  0  0  0  0
   20.0975  -15.6237  -18.7386 C   0  0  0  0  0  0  0  0  0  0  0  0
   20.4831  -20.1503   -9.2713 C   0  0  1  0  0  0  0  0  0  0  0  0
   20.7795  -21.1393  -10.3742 N   0  0  0  0  0  0  0  0  0  0  0  0
   21.1072  -20.4997  -11.6234 C   0  0  0  0  0  0  0  0  0  0  0  0
   19.6470  -22.0772  -10.5902 O   0  0  0  0  0  0  0  0  0  0  0  0
   18.7529  -21.8211  -11.4665 O   0  0  0  0  0  0  0  0  0  0  0  0
   19.0097  -25.0055   -7.9129 C   0  0  0  0  0  0  0  0  0  0  0  0
   18.6068  -25.3892   -9.1878 C   0  0  1  0  0  0  0  0  0  0  0  0
   18.3496  -24.1761  -10.0806 N   0  0  0  0  0  0  0  0  0  0  0  0
   19.4934  -23.2777   -9.8592 C   0  0  0  0  0  0  0  0  0  0  0  0
   17.1463  -23.4989   -9.5493 O   0  0  0  0  0  0  0  0  0  0  0  0
   17.2355  -22.3290   -8.8062 O   0  0  0  0  0  0  0  0  0  0  0  0
  2  1  1  0
  2  4  1  0
  3  2  2  0
  5  4  1  0
  6  5  1  0
  7  8  1  0
  7  6  1  0
  8 10  1  0
  8  9  1  6
 10 14  1  0
 10 11  2  0
 13 12  1  1
 13 15  1  0
 14 13  1  0
 15 16  2  0
 17 18  1  0
 19 18  1  6
 19 21  1  0
 20 15  1  0
 20 19  1  0
 21 22  1  0
 23 21  2  0
M  END
$$$$
