RAS.pdb
     RDKit          3D

 23 22  0  0  1  0  0  0  0  0999 V2000
   19.0319  -25.7678   -8.1234 N   0  0  0  0  0  0  0  0  0  0  0  0
   17.7401  -25.1754   -8.0953 C   0  0  0  0  0  0  0  0  0  0  0  0
   16.7783  -25.7305   -7.4607 N   0  0  0  0  0  0  0  0  0  0  0  0
   17.5569  -23.9510   -8.7941 N   0  0  0  0  0  0  0  0  0  0  0  0
   18.6127  -23.5502   -9.7169 C   0  0  0  0  0  0  0  0  0  0  0  0
   18.2237  -23.9394  -11.1003 C   0  0  0  0  0  0  0  0  0  0  0  0
   19.2751  -23.5693  -12.0807 C   0  0  0  0  0  0  0  0  0  0  0  0
   19.4178  -22.0740  -12.2477 C   0  0  2  0  0  0  0  0  0  0  0  0
   18.1625  -21.6057  -12.7997 N   0  0  0  0  0  0  0  0  0  0  0  0
   20.4781  -21.7754  -13.2592 C   0  0  0  0  0  0  0  0  0  0  0  0
   20.4154  -22.3070  -14.3894 O   0  0  0  0  0  0  0  0  0  0  0  0
   15.8241  -25.3262   -7.4890 C   0  0  0  0  0  0  0  0  0  0  0  0
   23.5932  -19.5872  -13.3529 C   0  0  1  0  0  0  0  0  0  0  0  0
   22.6149  -20.5939  -13.9114 N   0  0  0  0  0  0  0  0  0  0  0  0
   21.5545  -20.9120  -12.9887 C   0  0  0  0  0  0  0  0  0  0  0  0
   23.2943  -21.8500  -14.3234 O   0  0  0  0  0  0  0  0  0  0  0  0
   23.5320  -22.7680  -13.4669 O   0  0  0  0  0  0  0  0  0  0  0  0
   23.8273  -22.5362  -18.2435 C   0  0  0  0  0  0  0  0  0  0  0  0
   23.8217  -23.6734  -17.4425 C   0  0  1  0  0  0  0  0  0  0  0  0
   24.3422  -23.3697  -16.0383 N   0  0  0  0  0  0  0  0  0  0  0  0
   23.7081  -22.0996  -15.6522 C   0  0  0  0  0  0  0  0  0  0  0  0
   25.7947  -23.1185  -16.1634 O   0  0  0  0  0  0  0  0  0  0  0  0
   26.6979  -24.1508  -16.3806 O   0  0  0  0  0  0  0  0  0  0  0  0
  2  1  1  0
  2  4  1  0
  3  2  2  0
  5  4  1  0
  6  5  1  0
  7  8  1  0
  7  6  1  0
  8 10  1  0
  8  9  1  6
 10 14  1  0
 10 11  2  0
 13 12  1  6
 13 15  1  0
 14 13  1  0
 15 16  2  0
 17 18  1  0
 19 18  1  1
 19 21  1  0
 20 15  1  0
 20 19  1  0
 21 22  1  0
 23 21  2  0
M  END
$$$$
