HEA.pdb
     RDKit          3D

 25 25  0  0  1  0  0  0  0  0999 V2000
   26.9223  -34.1612  -10.5279 N   0  0  0  0  0  0  0  0  0  0  0  0
   26.7060  -33.6581   -9.1886 C   0  0  1  0  0  0  0  0  0  0  0  0
   25.3345  -33.0366   -9.1532 C   0  0  0  0  0  0  0  0  0  0  0  0
   25.0140  -32.7515   -7.7333 C   0  0  0  0  0  0  0  0  0  0  0  0
   25.7841  -33.0415   -6.6111 C   0  0  0  0  0  0  0  0  0  0  0  0
   25.1413  -32.6223   -5.5153 N   0  0  0  0  0  0  0  0  0  0  0  0
   23.9832  -32.0718   -5.8912 C   0  0  0  0  0  0  0  0  0  0  0  0
   23.9152  -32.1551   -7.2396 N   0  0  0  0  0  0  0  0  0  0  0  0
   26.8973  -34.7351   -8.2195 C   0  0  0  0  0  0  0  0  0  0  0  0
   26.3695  -35.8764   -8.3133 O   0  0  0  0  0  0  0  0  0  0  0  0
   27.7218  -34.5263   -7.0855 N   0  0  0  0  0  0  0  0  0  0  0  0
   28.0541  -35.5842   -6.1304 C   0  0  1  0  0  0  0  0  0  0  0  0
   29.5012  -35.6146   -5.8142 C   0  0  0  0  0  0  0  0  0  0  0  0
   29.8032  -36.7274   -4.8453 C   0  0  0  0  0  0  0  0  0  0  0  0
   31.2638  -36.8037   -4.5514 C   0  0  0  0  0  0  0  0  0  0  0  0
   31.6407  -36.8214   -3.3641 O   0  0  0  0  0  0  0  0  0  0  0  0
   27.1439  -35.4067   -4.9866 C   0  0  0  0  0  0  0  0  0  0  0  0
   26.8785  -34.2918   -4.4925 O   0  0  0  0  0  0  0  0  0  0  0  0
   32.1878  -36.8541   -5.5696 O   0  0  0  0  0  0  0  0  0  0  0  0
   24.9744  -37.7185   -2.9599 C   0  0  0  0  0  0  0  0  0  0  0  0
   25.6356  -36.3602   -3.1977 C   0  0  2  0  0  0  0  0  0  0  0  0
   26.4897  -36.5210   -4.3523 N   0  0  0  0  0  0  0  0  0  0  0  0
   26.4214  -36.0445   -1.9829 C   0  0  0  0  0  0  0  0  0  0  0  0
   25.8635  -35.6012   -0.7925 O   0  0  0  0  0  0  0  0  0  0  0  0
   27.6689  -36.1867   -2.0326 O   0  0  0  0  0  0  0  0  0  0  0  0
  2  1  1  6
  3  2  1  0
  4  8  1  0
  4  3  1  0
  5  4  2  0
  6  5  1  0
  6  7  1  0
  7  8  2  0
  9  2  1  0
 10  9  2  0
 11  9  1  0
 12 11  1  0
 12 13  1  1
 13 14  1  0
 15 19  1  0
 15 14  1  0
 16 15  2  0
 17 22  1  0
 17 12  1  0
 18 17  2  0
 21 20  1  1
 21 22  1  0
 21 23  1  0
 23 24  1  0
 25 23  2  0
M  END
$$$$
