HEA.pdb
     RDKit          3D

 25 25  0  0  1  0  0  0  0  0999 V2000
   19.7384  -12.5066  -16.3527 N   0  0  0  0  0  0  0  0  0  0  0  0
   19.1966  -11.1798  -16.1538 C   0  0  1  0  0  0  0  0  0  0  0  0
   18.1947  -11.2620  -15.0322 C   0  0  0  0  0  0  0  0  0  0  0  0
   17.0533  -12.0761  -15.5167 C   0  0  0  0  0  0  0  0  0  0  0  0
   16.2427  -11.8344  -16.6217 C   0  0  0  0  0  0  0  0  0  0  0  0
   15.3265  -12.8046  -16.7166 N   0  0  0  0  0  0  0  0  0  0  0  0
   15.5176  -13.6639  -15.7113 C   0  0  0  0  0  0  0  0  0  0  0  0
   16.5682  -13.2129  -14.9885 N   0  0  0  0  0  0  0  0  0  0  0  0
   20.2838  -10.2334  -15.9133 C   0  0  0  0  0  0  0  0  0  0  0  0
   21.1336  -10.3483  -14.9889 O   0  0  0  0  0  0  0  0  0  0  0  0
   20.4296   -9.0982  -16.7497 N   0  0  0  0  0  0  0  0  0  0  0  0
   21.5423   -8.1546  -16.6336 C   0  0  1  0  0  0  0  0  0  0  0  0
   22.2010   -7.9072  -17.9374 C   0  0  0  0  0  0  0  0  0  0  0  0
   23.1106   -9.0542  -18.2916 C   0  0  0  0  0  0  0  0  0  0  0  0
   23.8691   -8.7724  -19.5448 C   0  0  0  0  0  0  0  0  0  0  0  0
   23.5845   -9.4069  -20.5785 O   0  0  0  0  0  0  0  0  0  0  0  0
   21.0066   -6.9699  -15.9423 C   0  0  0  0  0  0  0  0  0  0  0  0
   19.8955   -6.4682  -16.2096 O   0  0  0  0  0  0  0  0  0  0  0  0
   24.8694   -7.8279  -19.5683 O   0  0  0  0  0  0  0  0  0  0  0  0
   22.1409   -4.8618  -13.0445 C   0  0  0  0  0  0  0  0  0  0  0  0
   21.2534   -5.0935  -14.2682 C   0  0  2  0  0  0  0  0  0  0  0  0
   21.7371   -6.3010  -14.8978 N   0  0  0  0  0  0  0  0  0  0  0  0
   21.4218   -3.9173  -15.1519 C   0  0  0  0  0  0  0  0  0  0  0  0
   22.1042   -3.9465  -16.3595 O   0  0  0  0  0  0  0  0  0  0  0  0
   20.9162   -2.8264  -14.7866 O   0  0  0  0  0  0  0  0  0  0  0  0
  2  1  1  1
  3  2  1  0
  4  8  1  0
  4  3  1  0
  5  4  2  0
  6  5  1  0
  6  7  1  0
  7  8  2  0
  9  2  1  0
 10  9  2  0
 11  9  1  0
 12 11  1  0
 12 13  1  6
 13 14  1  0
 15 19  1  0
 15 14  1  0
 16 15  2  0
 17 22  1  0
 17 12  1  0
 18 17  2  0
 21 20  1  1
 21 22  1  0
 21 23  1  0
 23 24  1  0
 25 23  2  0
M  END
$$$$
