HEA.pdb
     RDKit          3D

 25 25  0  0  1  0  0  0  0  0999 V2000
   25.7293  -35.2304   -7.9538 N   0  0  0  0  0  0  0  0  0  0  0  0
   26.4994  -34.4366   -7.0209 C   0  0  1  0  0  0  0  0  0  0  0  0
   25.8382  -33.0872   -6.9193 C   0  0  0  0  0  0  0  0  0  0  0  0
   26.0364  -32.3980   -8.2177 C   0  0  0  0  0  0  0  0  0  0  0  0
   25.0671  -32.0440   -9.1512 C   0  0  0  0  0  0  0  0  0  0  0  0
   25.6552  -31.4384  -10.1891 N   0  0  0  0  0  0  0  0  0  0  0  0
   26.9704  -31.3892   -9.9578 C   0  0  0  0  0  0  0  0  0  0  0  0
   27.1918  -31.9743   -8.7585 N   0  0  0  0  0  0  0  0  0  0  0  0
   26.6112  -35.1428   -5.7464 C   0  0  0  0  0  0  0  0  0  0  0  0
   25.6352  -35.6420   -5.1234 O   0  0  0  0  0  0  0  0  0  0  0  0
   27.8805  -35.2997   -5.1351 N   0  0  0  0  0  0  0  0  0  0  0  0
   28.0774  -35.9984   -3.8644 C   0  0  1  0  0  0  0  0  0  0  0  0
   29.5016  -36.3296   -3.6257 C   0  0  0  0  0  0  0  0  0  0  0  0
   29.6548  -37.0849   -2.3316 C   0  0  0  0  0  0  0  0  0  0  0  0
   31.0860  -37.4091   -2.0638 C   0  0  0  0  0  0  0  0  0  0  0  0
   31.7549  -37.9695   -2.9530 O   0  0  0  0  0  0  0  0  0  0  0  0
   27.4221  -35.1736   -2.8355 C   0  0  0  0  0  0  0  0  0  0  0  0
   27.5789  -33.9384   -2.7493 O   0  0  0  0  0  0  0  0  0  0  0  0
   31.6671  -37.0976   -0.8561 O   0  0  0  0  0  0  0  0  0  0  0  0
   24.6762  -35.7392   -0.3706 C   0  0  0  0  0  0  0  0  0  0  0  0
   25.8926  -34.9387   -0.8380 C   0  0  2  0  0  0  0  0  0  0  0  0
   26.5447  -35.7427   -1.8464 N   0  0  0  0  0  0  0  0  0  0  0  0
   26.7616  -34.7445    0.3451 C   0  0  0  0  0  0  0  0  0  0  0  0
   26.4579  -33.8946    1.3987 O   0  0  0  0  0  0  0  0  0  0  0  0
   27.8395  -35.3882    0.3986 O   0  0  0  0  0  0  0  0  0  0  0  0
  2  1  1  6
  3  2  1  0
  4  8  1  0
  4  3  1  0
  5  4  2  0
  6  5  1  0
  6  7  1  0
  7  8  2  0
  9  2  1  0
 10  9  2  0
 11  9  1  0
 12 11  1  0
 12 13  1  1
 13 14  1  0
 15 19  1  0
 15 14  1  0
 16 15  2  0
 17 22  1  0
 17 12  1  0
 18 17  2  0
 21 20  1  1
 21 22  1  0
 21 23  1  0
 23 24  1  0
 25 23  2  0
M  END
$$$$
