HEA.pdb
     RDKit          3D

 25 25  0  0  1  0  0  0  0  0999 V2000
   28.0181  -20.7018  -13.9758 N   0  0  0  0  0  0  0  0  0  0  0  0
   26.9865  -20.5850  -12.9681 C   0  0  1  0  0  0  0  0  0  0  0  0
   27.5740  -19.8341  -11.8020 C   0  0  0  0  0  0  0  0  0  0  0  0
   28.7634  -20.5913  -11.3416 C   0  0  0  0  0  0  0  0  0  0  0  0
   30.0868  -20.4224  -11.7375 C   0  0  0  0  0  0  0  0  0  0  0  0
   30.8566  -21.3032  -11.0886 N   0  0  0  0  0  0  0  0  0  0  0  0
   30.0762  -22.0347  -10.2877 C   0  0  0  0  0  0  0  0  0  0  0  0
   28.8073  -21.5949  -10.4485 N   0  0  0  0  0  0  0  0  0  0  0  0
   25.8009  -19.9555  -13.5457 C   0  0  0  0  0  0  0  0  0  0  0  0
   25.7733  -18.7821  -14.0063 O   0  0  0  0  0  0  0  0  0  0  0  0
   24.5812  -20.6748  -13.6123 N   0  0  0  0  0  0  0  0  0  0  0  0
   23.3701  -20.1429  -14.2384 C   0  0  1  0  0  0  0  0  0  0  0  0
   23.2464  -20.5595  -15.6548 C   0  0  0  0  0  0  0  0  0  0  0  0
   22.0125  -19.9563  -16.2731 C   0  0  0  0  0  0  0  0  0  0  0  0
   22.2108  -19.6990  -17.7291 C   0  0  0  0  0  0  0  0  0  0  0  0
   21.4329  -20.2263  -18.5470 O   0  0  0  0  0  0  0  0  0  0  0  0
   22.2529  -20.5130  -13.3535 C   0  0  0  0  0  0  0  0  0  0  0  0
   22.1403  -21.6414  -12.8323 O   0  0  0  0  0  0  0  0  0  0  0  0
   23.2346  -18.8931  -18.1713 O   0  0  0  0  0  0  0  0  0  0  0  0
   19.3544  -18.6682  -11.8352 C   0  0  0  0  0  0  0  0  0  0  0  0
   20.0566  -19.9685  -12.2291 C   0  0  2  0  0  0  0  0  0  0  0  0
   21.2009  -19.5870  -13.0250 N   0  0  0  0  0  0  0  0  0  0  0  0
   19.0866  -20.7599  -13.0200 C   0  0  0  0  0  0  0  0  0  0  0  0
   18.0535  -21.5001  -12.4635 O   0  0  0  0  0  0  0  0  0  0  0  0
   19.2058  -20.7615  -14.2709 O   0  0  0  0  0  0  0  0  0  0  0  0
  2  1  1  6
  3  2  1  0
  4  8  1  0
  4  3  1  0
  5  4  2  0
  6  5  1  0
  6  7  1  0
  7  8  2  0
  9  2  1  0
 10  9  2  0
 11  9  1  0
 12 11  1  0
 12 13  1  6
 13 14  1  0
 15 19  1  0
 15 14  1  0
 16 15  2  0
 17 22  1  0
 17 12  1  0
 18 17  2  0
 21 20  1  6
 21 22  1  0
 21 23  1  0
 23 24  1  0
 25 23  2  0
M  END
$$$$
