HEA.pdb
     RDKit          3D

 25 25  0  0  1  0  0  0  0  0999 V2000
   17.9618  -12.1635  -14.9585 N   0  0  0  0  0  0  0  0  0  0  0  0
   17.8304  -11.0271  -15.8443 C   0  0  1  0  0  0  0  0  0  0  0  0
   16.5152  -11.1636  -16.5657 C   0  0  0  0  0  0  0  0  0  0  0  0
   16.5464  -12.4499  -17.3037 C   0  0  0  0  0  0  0  0  0  0  0  0
   15.5670  -13.4380  -17.3354 C   0  0  0  0  0  0  0  0  0  0  0  0
   15.9790  -14.4417  -18.1180 N   0  0  0  0  0  0  0  0  0  0  0  0
   17.1901  -14.1358  -18.5925 C   0  0  0  0  0  0  0  0  0  0  0  0
   17.5258  -12.9247  -18.0924 N   0  0  0  0  0  0  0  0  0  0  0  0
   17.9656   -9.7879  -15.0815 C   0  0  0  0  0  0  0  0  0  0  0  0
   17.3999   -9.5697  -13.9759 O   0  0  0  0  0  0  0  0  0  0  0  0
   18.7756   -8.7368  -15.5799 N   0  0  0  0  0  0  0  0  0  0  0  0
   19.0169   -7.4938  -14.8461 C   0  0  1  0  0  0  0  0  0  0  0  0
   20.4606   -7.2556  -14.6136 C   0  0  0  0  0  0  0  0  0  0  0  0
   20.6630   -5.9864  -13.8283 C   0  0  0  0  0  0  0  0  0  0  0  0
   22.1138   -5.6781  -13.6682 C   0  0  0  0  0  0  0  0  0  0  0  0
   22.8124   -5.5148  -14.6866 O   0  0  0  0  0  0  0  0  0  0  0  0
   18.2947   -6.4384  -15.5759 C   0  0  0  0  0  0  0  0  0  0  0  0
   18.4642   -6.2108  -16.7913 O   0  0  0  0  0  0  0  0  0  0  0  0
   22.6803   -5.5739  -12.4186 O   0  0  0  0  0  0  0  0  0  0  0  0
   15.5186   -4.0537  -14.7443 C   0  0  0  0  0  0  0  0  0  0  0  0
   16.7138   -4.4674  -15.6042 C   0  0  2  0  0  0  0  0  0  0  0  0
   17.3316   -5.5861  -14.9292 N   0  0  0  0  0  0  0  0  0  0  0  0
   17.6250   -3.3018  -15.6655 C   0  0  0  0  0  0  0  0  0  0  0  0
   17.5444   -2.3048  -16.6269 O   0  0  0  0  0  0  0  0  0  0  0  0
   18.5259   -3.2095  -14.7944 O   0  0  0  0  0  0  0  0  0  0  0  0
  2  1  1  1
  3  2  1  0
  4  8  1  0
  4  3  1  0
  5  4  2  0
  6  5  1  0
  6  7  1  0
  7  8  2  0
  9  2  1  0
 10  9  2  0
 11  9  1  0
 12 11  1  0
 12 13  1  6
 13 14  1  0
 15 19  1  0
 15 14  1  0
 16 15  2  0
 17 22  1  0
 17 12  1  0
 18 17  2  0
 21 20  1  1
 21 22  1  0
 21 23  1  0
 23 24  1  0
 25 23  2  0
M  END
$$$$
