HEA.pdb
     RDKit          3D

 25 25  0  0  1  0  0  0  0  0999 V2000
   24.7666  -11.8065  -18.4789 N   0  0  0  0  0  0  0  0  0  0  0  0
   24.7543  -11.1056  -17.2132 C   0  0  1  0  0  0  0  0  0  0  0  0
   26.1732  -10.7092  -16.9000 C   0  0  0  0  0  0  0  0  0  0  0  0
   26.9433  -11.9575  -16.6792 C   0  0  0  0  0  0  0  0  0  0  0  0
   26.9669  -12.7536  -15.5381 C   0  0  0  0  0  0  0  0  0  0  0  0
   27.7873  -13.7906  -15.7412 N   0  0  0  0  0  0  0  0  0  0  0  0
   28.2941  -13.6915  -16.9736 C   0  0  0  0  0  0  0  0  0  0  0  0
   27.7756  -12.5753  -17.5349 N   0  0  0  0  0  0  0  0  0  0  0  0
   23.8227   -9.9816  -17.2802 C   0  0  0  0  0  0  0  0  0  0  0  0
   23.8176   -9.1175  -18.1984 O   0  0  0  0  0  0  0  0  0  0  0  0
   22.8449   -9.8138  -16.2677 N   0  0  0  0  0  0  0  0  0  0  0  0
   21.7942   -8.7969  -16.3287 C   0  0  1  0  0  0  0  0  0  0  0  0
   20.4674   -9.3443  -15.9612 C   0  0  0  0  0  0  0  0  0  0  0  0
   19.4479   -8.2386  -15.8803 C   0  0  0  0  0  0  0  0  0  0  0  0
   18.0935   -8.7774  -15.5633 C   0  0  0  0  0  0  0  0  0  0  0  0
   17.1222   -7.9974  -15.5457 O   0  0  0  0  0  0  0  0  0  0  0  0
   22.2732   -7.6615  -15.5228 C   0  0  0  0  0  0  0  0  0  0  0  0
   22.8526   -7.7995  -14.4260 O   0  0  0  0  0  0  0  0  0  0  0  0
   17.9101  -10.1141  -15.2932 O   0  0  0  0  0  0  0  0  0  0  0  0
   22.2496   -3.9209  -15.9494 C   0  0  0  0  0  0  0  0  0  0  0  0
   22.3956   -5.1755  -15.0872 C   0  0  2  0  0  0  0  0  0  0  0  0
   22.1039   -6.2974  -15.9502 N   0  0  0  0  0  0  0  0  0  0  0  0
   21.4057   -5.0635  -13.9917 C   0  0  0  0  0  0  0  0  0  0  0  0
   21.6314   -4.3707  -12.8110 O   0  0  0  0  0  0  0  0  0  0  0  0
   20.2938   -5.6299  -14.1397 O   0  0  0  0  0  0  0  0  0  0  0  0
  2  1  1  6
  3  2  1  0
  4  8  1  0
  4  3  1  0
  5  4  2  0
  6  5  1  0
  6  7  1  0
  7  8  2  0
  9  2  1  0
 10  9  2  0
 11  9  1  0
 12 11  1  0
 12 13  1  1
 13 14  1  0
 15 19  1  0
 15 14  1  0
 16 15  2  0
 17 22  1  0
 17 12  1  0
 18 17  2  0
 21 20  1  6
 21 22  1  0
 21 23  1  0
 23 24  1  0
 25 23  2  0
M  END
$$$$
