HEA.pdb
     RDKit          3D

 25 25  0  0  1  0  0  0  0  0999 V2000
   23.9628  -20.6138  -16.4644 N   0  0  0  0  0  0  0  0  0  0  0  0
   23.4413  -19.5284  -15.6624 C   0  0  1  0  0  0  0  0  0  0  0  0
   23.3700  -18.3078  -16.5419 C   0  0  0  0  0  0  0  0  0  0  0  0
   24.7043  -18.1328  -17.1656 C   0  0  0  0  0  0  0  0  0  0  0  0
   25.8601  -18.8700  -16.9265 C   0  0  0  0  0  0  0  0  0  0  0  0
   26.8507  -18.3966  -17.6907 N   0  0  0  0  0  0  0  0  0  0  0  0
   26.3746  -17.3795  -18.4148 C   0  0  0  0  0  0  0  0  0  0  0  0
   25.0707  -17.2271  -18.0888 N   0  0  0  0  0  0  0  0  0  0  0  0
   22.1595  -19.9175  -15.0783 C   0  0  0  0  0  0  0  0  0  0  0  0
   21.3611  -19.1166  -14.5207 O   0  0  0  0  0  0  0  0  0  0  0  0
   21.7476  -21.2733  -15.1191 N   0  0  0  0  0  0  0  0  0  0  0  0
   20.4346  -21.7263  -14.6578 C   0  0  1  0  0  0  0  0  0  0  0  0
   19.9786  -22.9377  -15.3786 C   0  0  0  0  0  0  0  0  0  0  0  0
   18.5866  -23.3141  -14.9436 C   0  0  0  0  0  0  0  0  0  0  0  0
   18.1173  -24.5437  -15.6458 C   0  0  0  0  0  0  0  0  0  0  0  0
   18.6514  -24.8641  -16.7248 O   0  0  0  0  0  0  0  0  0  0  0  0
   20.5302  -21.8407  -13.1929 C   0  0  0  0  0  0  0  0  0  0  0  0
   21.5035  -22.3621  -12.6112 O   0  0  0  0  0  0  0  0  0  0  0  0
   17.1103  -25.3184  -15.1174 O   0  0  0  0  0  0  0  0  0  0  0  0
   18.7843  -20.3132  -10.2995 C   0  0  0  0  0  0  0  0  0  0  0  0
   19.5659  -21.4908  -10.8837 C   0  0  2  0  0  0  0  0  0  0  0  0
   19.4943  -21.3528  -12.3205 N   0  0  0  0  0  0  0  0  0  0  0  0
   18.8912  -22.7264  -10.4243 C   0  0  0  0  0  0  0  0  0  0  0  0
   18.9293  -23.1900   -9.1172 O   0  0  0  0  0  0  0  0  0  0  0  0
   18.2451  -23.3959  -11.2689 O   0  0  0  0  0  0  0  0  0  0  0  0
  2  1  1  6
  3  2  1  0
  4  8  1  0
  4  3  1  0
  5  4  2  0
  6  5  1  0
  6  7  1  0
  7  8  2  0
  9  2  1  0
 10  9  2  0
 11  9  1  0
 12 11  1  0
 12 13  1  6
 13 14  1  0
 15 19  1  0
 15 14  1  0
 16 15  2  0
 17 22  1  0
 17 12  1  0
 18 17  2  0
 21 20  1  1
 21 22  1  0
 21 23  1  0
 23 24  1  0
 25 23  2  0
M  END
$$$$
