HEA.pdb
     RDKit          3D

 25 25  0  0  1  0  0  0  0  0999 V2000
   26.2871  -28.0207  -18.3416 N   0  0  0  0  0  0  0  0  0  0  0  0
   27.2294  -29.0048  -17.8547 C   0  0  1  0  0  0  0  0  0  0  0  0
   27.6438  -28.5892  -16.4676 C   0  0  0  0  0  0  0  0  0  0  0  0
   28.4973  -27.3837  -16.6028 C   0  0  0  0  0  0  0  0  0  0  0  0
   28.1583  -26.0637  -16.3216 C   0  0  0  0  0  0  0  0  0  0  0  0
   29.2087  -25.2753  -16.5759 N   0  0  0  0  0  0  0  0  0  0  0  0
   30.2138  -26.0405  -17.0115 C   0  0  0  0  0  0  0  0  0  0  0  0
   29.7720  -27.3189  -17.0243 N   0  0  0  0  0  0  0  0  0  0  0  0
   26.6325  -30.3369  -17.9242 C   0  0  0  0  0  0  0  0  0  0  0  0
   25.3922  -30.5615  -17.8934 O   0  0  0  0  0  0  0  0  0  0  0  0
   27.4653  -31.4789  -18.0340 N   0  0  0  0  0  0  0  0  0  0  0  0
   26.9452  -32.8416  -18.1535 C   0  0  1  0  0  0  0  0  0  0  0  0
   27.9243  -33.7581  -18.7830 C   0  0  0  0  0  0  0  0  0  0  0  0
   27.3143  -35.1207  -18.9825 C   0  0  0  0  0  0  0  0  0  0  0  0
   28.3082  -36.0775  -19.5502 C   0  0  0  0  0  0  0  0  0  0  0  0
   29.4324  -35.6548  -19.8813 O   0  0  0  0  0  0  0  0  0  0  0  0
   26.4719  -33.2205  -16.8116 C   0  0  0  0  0  0  0  0  0  0  0  0
   27.0632  -32.8941  -15.7621 O   0  0  0  0  0  0  0  0  0  0  0  0
   27.9969  -37.4082  -19.7093 O   0  0  0  0  0  0  0  0  0  0  0  0
   23.2639  -34.3878  -15.4086 C   0  0  0  0  0  0  0  0  0  0  0  0
   24.7890  -34.3479  -15.3012 C   0  0  2  0  0  0  0  0  0  0  0  0
   25.2797  -34.0031  -16.6161 N   0  0  0  0  0  0  0  0  0  0  0  0
   25.2284  -35.7032  -14.8976 C   0  0  0  0  0  0  0  0  0  0  0  0
   25.7532  -36.0083  -13.6501 O   0  0  0  0  0  0  0  0  0  0  0  0
   25.1195  -36.6336  -15.7352 O   0  0  0  0  0  0  0  0  0  0  0  0
  2  1  1  1
  3  2  1  0
  4  8  1  0
  4  3  1  0
  5  4  2  0
  6  5  1  0
  6  7  1  0
  7  8  2  0
  9  2  1  0
 10  9  2  0
 11  9  1  0
 12 11  1  0
 12 13  1  1
 13 14  1  0
 15 19  1  0
 15 14  1  0
 16 15  2  0
 17 22  1  0
 17 12  1  0
 18 17  2  0
 21 20  1  6
 21 22  1  0
 21 23  1  0
 23 24  1  0
 25 23  2  0
M  END
$$$$
