HEA.pdb
     RDKit          3D

 25 25  0  0  1  0  0  0  0  0999 V2000
   18.5957  -12.2475  -15.2605 N   0  0  0  0  0  0  0  0  0  0  0  0
   19.2773  -11.8674  -16.4789 C   0  0  1  0  0  0  0  0  0  0  0  0
   18.7600  -12.7515  -17.5831 C   0  0  0  0  0  0  0  0  0  0  0  0
   19.0610  -14.1539  -17.2054 C   0  0  0  0  0  0  0  0  0  0  0  0
   18.1649  -15.1385  -16.8005 C   0  0  0  0  0  0  0  0  0  0  0  0
   18.8355  -16.2686  -16.5501 N   0  0  0  0  0  0  0  0  0  0  0  0
   20.1332  -16.0477  -16.7793 C   0  0  0  0  0  0  0  0  0  0  0  0
   20.2599  -14.7610  -17.1767 N   0  0  0  0  0  0  0  0  0  0  0  0
   19.0918  -10.4385  -16.7234 C   0  0  0  0  0  0  0  0  0  0  0  0
   18.6342   -9.9551  -17.7942 O   0  0  0  0  0  0  0  0  0  0  0  0
   19.4356   -9.4999  -15.7183 N   0  0  0  0  0  0  0  0  0  0  0  0
   19.1850   -8.0634  -15.8437 C   0  0  1  0  0  0  0  0  0  0  0  0
   18.0866   -7.6105  -14.9585 C   0  0  0  0  0  0  0  0  0  0  0  0
   16.7544   -8.0425  -15.5126 C   0  0  0  0  0  0  0  0  0  0  0  0
   15.6393   -7.6440  -14.6053 C   0  0  0  0  0  0  0  0  0  0  0  0
   14.8369   -6.7689  -14.9828 O   0  0  0  0  0  0  0  0  0  0  0  0
   20.4861   -7.4007  -15.6539 C   0  0  0  0  0  0  0  0  0  0  0  0
   21.2853   -7.7130  -14.7476 O   0  0  0  0  0  0  0  0  0  0  0  0
   15.4913   -8.2286  -13.3685 O   0  0  0  0  0  0  0  0  0  0  0  0
   22.3636   -4.7115  -17.5042 C   0  0  0  0  0  0  0  0  0  0  0  0
   22.2001   -5.6688  -16.3228 C   0  0  2  0  0  0  0  0  0  0  0  0
   20.9309   -6.3337  -16.5117 N   0  0  0  0  0  0  0  0  0  0  0  0
   22.2005   -4.8418  -15.0945 C   0  0  0  0  0  0  0  0  0  0  0  0
   21.0938   -4.6693  -14.2759 O   0  0  0  0  0  0  0  0  0  0  0  0
   23.2676   -4.2608  -14.7736 O   0  0  0  0  0  0  0  0  0  0  0  0
  2  1  1  1
  3  2  1  0
  4  8  1  0
  4  3  1  0
  5  4  2  0
  6  5  1  0
  6  7  1  0
  7  8  2  0
  9  2  1  0
 10  9  2  0
 11  9  1  0
 12 11  1  0
 12 13  1  1
 13 14  1  0
 15 19  1  0
 15 14  1  0
 16 15  2  0
 17 22  1  0
 17 12  1  0
 18 17  2  0
 21 20  1  6
 21 22  1  0
 21 23  1  0
 23 24  1  0
 25 23  2  0
M  END
$$$$
