HEA.pdb
     RDKit          3D

 25 25  0  0  1  0  0  0  0  0999 V2000
   19.0321  -12.3991  -15.8752 N   0  0  0  0  0  0  0  0  0  0  0  0
   18.5481  -11.0361  -15.9139 C   0  0  1  0  0  0  0  0  0  0  0  0
   17.5082  -10.8928  -14.8338 C   0  0  0  0  0  0  0  0  0  0  0  0
   16.2833  -11.5847  -15.3038 C   0  0  0  0  0  0  0  0  0  0  0  0
   16.0810  -12.2255  -16.5224 C   0  0  0  0  0  0  0  0  0  0  0  0
   14.8397  -12.7232  -16.5577 N   0  0  0  0  0  0  0  0  0  0  0  0
   14.2338  -12.4258  -15.4045 C   0  0  0  0  0  0  0  0  0  0  0  0
   15.1184  -11.7345  -14.6500 N   0  0  0  0  0  0  0  0  0  0  0  0
   19.6710  -10.1095  -15.7865 C   0  0  0  0  0  0  0  0  0  0  0  0
   20.6089  -10.2410  -14.9541 O   0  0  0  0  0  0  0  0  0  0  0  0
   19.7505   -8.9759  -16.6338 N   0  0  0  0  0  0  0  0  0  0  0  0
   20.8943   -8.0630  -16.6461 C   0  0  1  0  0  0  0  0  0  0  0  0
   21.2920   -7.6870  -18.0228 C   0  0  0  0  0  0  0  0  0  0  0  0
   22.4669   -6.7451  -17.9907 C   0  0  0  0  0  0  0  0  0  0  0  0
   22.9062   -6.3853  -19.3701 C   0  0  0  0  0  0  0  0  0  0  0  0
   23.3318   -7.2830  -20.1218 O   0  0  0  0  0  0  0  0  0  0  0  0
   20.5435   -6.9518  -15.7459 C   0  0  0  0  0  0  0  0  0  0  0  0
   19.4346   -6.3796  -15.7683 O   0  0  0  0  0  0  0  0  0  0  0  0
   22.8458   -5.0844  -19.8142 O   0  0  0  0  0  0  0  0  0  0  0  0
   22.1262   -5.4002  -12.7296 C   0  0  0  0  0  0  0  0  0  0  0  0
   21.1388   -5.3370  -13.8959 C   0  0  2  0  0  0  0  0  0  0  0  0
   21.4673   -6.4430  -14.7662 N   0  0  0  0  0  0  0  0  0  0  0  0
   21.3508   -4.0359  -14.5703 C   0  0  0  0  0  0  0  0  0  0  0  0
   21.8703   -3.9017  -15.8498 O   0  0  0  0  0  0  0  0  0  0  0  0
   21.0418   -2.9897  -13.9466 O   0  0  0  0  0  0  0  0  0  0  0  0
  2  1  1  1
  3  2  1  0
  4  8  1  0
  4  3  1  0
  5  4  2  0
  6  5  1  0
  6  7  1  0
  7  8  2  0
  9  2  1  0
 10  9  2  0
 11  9  1  0
 12 11  1  0
 12 13  1  6
 13 14  1  0
 15 19  1  0
 15 14  1  0
 16 15  2  0
 17 22  1  0
 17 12  1  0
 18 17  2  0
 21 20  1  1
 21 22  1  0
 21 23  1  0
 23 24  1  0
 25 23  2  0
M  END
$$$$
