HEA.pdb
     RDKit          3D

 25 25  0  0  1  0  0  0  0  0999 V2000
   17.1379  -10.9872  -15.6656 N   0  0  0  0  0  0  0  0  0  0  0  0
   16.8041   -9.6937  -16.2214 C   0  0  1  0  0  0  0  0  0  0  0  0
   15.3047   -9.6273  -16.3482 C   0  0  0  0  0  0  0  0  0  0  0  0
   14.8945  -10.6808  -17.3084 C   0  0  0  0  0  0  0  0  0  0  0  0
   14.1102  -11.8029  -17.0586 C   0  0  0  0  0  0  0  0  0  0  0  0
   13.9714  -12.5040  -18.1894 N   0  0  0  0  0  0  0  0  0  0  0  0
   14.6386  -11.8736  -19.1603 C   0  0  0  0  0  0  0  0  0  0  0  0
   15.1956  -10.7679  -18.6155 N   0  0  0  0  0  0  0  0  0  0  0  0
   17.3792   -8.6366  -15.3922 C   0  0  0  0  0  0  0  0  0  0  0  0
   17.1907   -8.5268  -14.1504 O   0  0  0  0  0  0  0  0  0  0  0  0
   18.2088   -7.6497  -15.9815 N   0  0  0  0  0  0  0  0  0  0  0  0
   18.8307   -6.5661  -15.2194 C   0  0  1  0  0  0  0  0  0  0  0  0
   20.3090   -6.5977  -15.3114 C   0  0  0  0  0  0  0  0  0  0  0  0
   20.9099   -5.4912  -14.4849 C   0  0  0  0  0  0  0  0  0  0  0  0
   22.4003   -5.5296  -14.5359 C   0  0  0  0  0  0  0  0  0  0  0  0
   22.9583   -6.3929  -15.2399 O   0  0  0  0  0  0  0  0  0  0  0  0
   18.1795   -5.3230  -15.6654 C   0  0  0  0  0  0  0  0  0  0  0  0
   18.0330   -5.0229  -16.8680 O   0  0  0  0  0  0  0  0  0  0  0  0
   23.1553   -4.6295  -13.8199 O   0  0  0  0  0  0  0  0  0  0  0  0
   15.9746   -2.8088  -14.0774 C   0  0  0  0  0  0  0  0  0  0  0  0
   16.9969   -3.1472  -15.1633 C   0  0  2  0  0  0  0  0  0  0  0  0
   17.6608   -4.3567  -14.7331 N   0  0  0  0  0  0  0  0  0  0  0  0
   17.9407   -2.0085  -15.2369 C   0  0  0  0  0  0  0  0  0  0  0  0
   17.6883   -0.8366  -15.9353 O   0  0  0  0  0  0  0  0  0  0  0  0
   19.0366   -2.1091  -14.6304 O   0  0  0  0  0  0  0  0  0  0  0  0
  2  1  1  1
  3  2  1  0
  4  8  1  0
  4  3  1  0
  5  4  2  0
  6  5  1  0
  6  7  1  0
  7  8  2  0
  9  2  1  0
 10  9  2  0
 11  9  1  0
 12 11  1  0
 12 13  1  6
 13 14  1  0
 15 19  1  0
 15 14  1  0
 16 15  2  0
 17 22  1  0
 17 12  1  0
 18 17  2  0
 21 20  1  1
 21 22  1  0
 21 23  1  0
 23 24  1  0
 25 23  2  0
M  END
$$$$
