HEA.pdb
     RDKit          3D

 25 25  0  0  1  0  0  0  0  0999 V2000
   17.8987  -11.6962  -15.5768 N   0  0  0  0  0  0  0  0  0  0  0  0
   17.7444  -10.4331  -16.2655 C   0  0  1  0  0  0  0  0  0  0  0  0
   16.3915  -10.4395  -16.9276 C   0  0  0  0  0  0  0  0  0  0  0  0
   16.4323  -11.4543  -18.0086 C   0  0  0  0  0  0  0  0  0  0  0  0
   16.7619  -11.2612  -19.3467 C   0  0  0  0  0  0  0  0  0  0  0  0
   16.6784  -12.4290  -19.9940 N   0  0  0  0  0  0  0  0  0  0  0  0
   16.3063  -13.3690  -19.1203 C   0  0  0  0  0  0  0  0  0  0  0  0
   16.1594  -12.7674  -17.9178 N   0  0  0  0  0  0  0  0  0  0  0  0
   17.9429   -9.3311  -15.3265 C   0  0  0  0  0  0  0  0  0  0  0  0
   17.4854   -9.3082  -14.1518 O   0  0  0  0  0  0  0  0  0  0  0  0
   18.6924   -8.1942  -15.7206 N   0  0  0  0  0  0  0  0  0  0  0  0
   18.9109   -7.0375  -14.8511 C   0  0  1  0  0  0  0  0  0  0  0  0
   20.3489   -6.8119  -14.5752 C   0  0  0  0  0  0  0  0  0  0  0  0
   20.5290   -5.6215  -13.6701 C   0  0  0  0  0  0  0  0  0  0  0  0
   21.9716   -5.2716  -13.5217 C   0  0  0  0  0  0  0  0  0  0  0  0
   22.3127   -4.0752  -13.5889 O   0  0  0  0  0  0  0  0  0  0  0  0
   18.1852   -5.9152  -15.4692 C   0  0  0  0  0  0  0  0  0  0  0  0
   18.3132   -5.5982  -16.6695 O   0  0  0  0  0  0  0  0  0  0  0  0
   22.9179   -6.2484  -13.3135 O   0  0  0  0  0  0  0  0  0  0  0  0
   15.3777   -3.6891  -14.3759 C   0  0  0  0  0  0  0  0  0  0  0  0
   16.5306   -4.0107  -15.3280 C   0  0  2  0  0  0  0  0  0  0  0  0
   17.2669   -5.0965  -14.7218 N   0  0  0  0  0  0  0  0  0  0  0  0
   17.3580   -2.7871  -15.4319 C   0  0  0  0  0  0  0  0  0  0  0  0
   17.1000   -1.7499  -16.3164 O   0  0  0  0  0  0  0  0  0  0  0  0
   18.3542   -2.6812  -14.6735 O   0  0  0  0  0  0  0  0  0  0  0  0
  2  1  1  1
  3  2  1  0
  4  8  1  0
  4  3  1  0
  5  4  2  0
  6  5  1  0
  6  7  1  0
  7  8  2  0
  9  2  1  0
 10  9  2  0
 11  9  1  0
 12 11  1  0
 12 13  1  6
 13 14  1  0
 15 19  1  0
 15 14  1  0
 16 15  2  0
 17 22  1  0
 17 12  1  0
 18 17  2  0
 21 20  1  1
 21 22  1  0
 21 23  1  0
 23 24  1  0
 25 23  2  0
M  END
$$$$
