WQF.pdb
     RDKit          3D

 35 37  0  0  1  0  0  0  0  0999 V2000
   30.2101  -26.0502  -16.6833 N   0  0  0  0  0  0  0  0  0  0  0  0
   28.8106  -25.7113  -16.9938 C   0  0  1  0  0  0  0  0  0  0  0  0
   27.9095  -26.5632  -16.1877 C   0  0  0  0  0  0  0  0  0  0  0  0
   27.8264  -27.9795  -16.5492 C   0  0  0  0  0  0  0  0  0  0  0  0
   28.9373  -28.7645  -16.8695 C   0  0  0  0  0  0  0  0  0  0  0  0
   28.5036  -30.0085  -17.0967 N   0  0  0  0  0  0  0  0  0  0  0  0
   27.1682  -30.0480  -16.9359 C   0  0  0  0  0  0  0  0  0  0  0  0
   26.2895  -31.0950  -17.0742 C   0  0  0  0  0  0  0  0  0  0  0  0
   24.9463  -30.9391  -16.8827 C   0  0  0  0  0  0  0  0  0  0  0  0
   24.4975  -29.6889  -16.5444 C   0  0  0  0  0  0  0  0  0  0  0  0
   25.3711  -28.6328  -16.4030 C   0  0  0  0  0  0  0  0  0  0  0  0
   26.7301  -28.7812  -16.5929 C   0  0  0  0  0  0  0  0  0  0  0  0
   28.5546  -24.2575  -16.9132 C   0  0  0  0  0  0  0  0  0  0  0  0
   28.9393  -23.6225  -15.9030 O   0  0  0  0  0  0  0  0  0  0  0  0
   28.6305  -19.6477  -17.9263 N   0  0  0  0  0  0  0  0  0  0  0  0
   29.2949  -20.1555  -19.0669 C   0  0  0  0  0  0  0  0  0  0  0  0
   30.4286  -19.7438  -19.4124 O   0  0  0  0  0  0  0  0  0  0  0  0
   28.6365  -21.1931  -19.8762 C   0  0  0  0  0  0  0  0  0  0  0  0
   27.3211  -21.6463  -19.3588 C   0  0  0  0  0  0  0  0  0  0  0  0
   27.3004  -22.2942  -18.0155 C   0  0  2  0  0  0  0  0  0  0  0  0
   27.8873  -23.5709  -17.9393 N   0  0  0  0  0  0  0  0  0  0  0  0
   25.9519  -22.1543  -17.4019 C   0  0  0  0  0  0  0  0  0  0  0  0
   25.0681  -23.0194  -17.4441 O   0  0  0  0  0  0  0  0  0  0  0  0
   25.6298  -20.9391  -16.7030 N   0  0  0  0  0  0  0  0  0  0  0  0
   24.3480  -20.7781  -16.0254 C   0  0  1  0  0  0  0  0  0  0  0  0
   24.5100  -20.2225  -14.6505 C   0  0  0  0  0  0  0  0  0  0  0  0
   23.1873  -19.9735  -14.0492 C   0  0  0  0  0  0  0  0  0  0  0  0
   22.5413  -18.7635  -14.2531 C   0  0  0  0  0  0  0  0  0  0  0  0
   21.2990  -18.4899  -13.7275 C   0  0  0  0  0  0  0  0  0  0  0  0
   20.6804  -19.4609  -12.9710 C   0  0  0  0  0  0  0  0  0  0  0  0
   21.2705  -20.6816  -12.7332 C   0  0  0  0  0  0  0  0  0  0  0  0
   22.5154  -20.9009  -13.2844 C   0  0  0  0  0  0  0  0  0  0  0  0
   23.3919  -20.0381  -16.8861 C   0  0  0  0  0  0  0  0  0  0  0  0
   23.6956  -19.0994  -17.6588 O   0  0  0  0  0  0  0  0  0  0  0  0
   22.0185  -20.3650  -16.8841 O   0  0  0  0  0  0  0  0  0  0  0  0
  2  1  1  1
  2  3  1  0
  4 12  1  0
  4  3  1  0
  5  4  2  0
  6  5  1  0
  6  7  1  0
  7 12  2  0
  8  7  1  0
  8  9  2  0
  9 10  1  0
 10 11  2  0
 12 11  1  0
 13  2  1  0
 13 21  1  0
 14 13  2  0
 16 15  1  0
 17 16  2  0
 18 16  1  0
 19 18  1  0
 20 21  1  0
 20 19  1  6
 22 20  1  0
 23 22  2  0
 24 22  1  0
 25 24  1  0
 25 33  1  0
 25 26  1  1
 27 26  1  0
 28 27  2  0
 29 28  1  0
 30 29  2  0
 30 31  1  0
 31 32  2  0
 32 27  1  0
 33 35  1  0
 34 33  2  0
M  END
$$$$
