WQF.pdb
     RDKit          3D

 35 37  0  0  1  0  0  0  0  0999 V2000
   25.0442  -18.4942  -18.1618 N   0  0  0  0  0  0  0  0  0  0  0  0
   24.6152  -18.1972  -16.7841 C   0  0  1  0  0  0  0  0  0  0  0  0
   23.9983  -16.8537  -16.7417 C   0  0  0  0  0  0  0  0  0  0  0  0
   24.8422  -15.7174  -17.1158 C   0  0  0  0  0  0  0  0  0  0  0  0
   24.7679  -15.0703  -18.3522 C   0  0  0  0  0  0  0  0  0  0  0  0
   25.6385  -14.0559  -18.3326 N   0  0  0  0  0  0  0  0  0  0  0  0
   26.2621  -14.0308  -17.1405 C   0  0  0  0  0  0  0  0  0  0  0  0
   27.2357  -13.1849  -16.6673 C   0  0  0  0  0  0  0  0  0  0  0  0
   27.7679  -13.3254  -15.4174 C   0  0  0  0  0  0  0  0  0  0  0  0
   27.2937  -14.3506  -14.6408 C   0  0  0  0  0  0  0  0  0  0  0  0
   26.3171  -15.2039  -15.1065 C   0  0  0  0  0  0  0  0  0  0  0  0
   25.7724  -15.0686  -16.3674 C   0  0  0  0  0  0  0  0  0  0  0  0
   23.8065  -19.2889  -16.2011 C   0  0  0  0  0  0  0  0  0  0  0  0
   22.8659  -19.7791  -16.8695 O   0  0  0  0  0  0  0  0  0  0  0  0
   23.7750  -24.1724  -13.6769 N   0  0  0  0  0  0  0  0  0  0  0  0
   25.0516  -23.6783  -14.0326 C   0  0  0  0  0  0  0  0  0  0  0  0
   25.9051  -24.3974  -14.6058 O   0  0  0  0  0  0  0  0  0  0  0  0
   25.3923  -22.2821  -13.7172 C   0  0  0  0  0  0  0  0  0  0  0  0
   24.2792  -21.4820  -13.1478 C   0  0  0  0  0  0  0  0  0  0  0  0
   23.4122  -20.7368  -14.1057 C   0  0  2  0  0  0  0  0  0  0  0  0
   24.0638  -19.7876  -14.9148 N   0  0  0  0  0  0  0  0  0  0  0  0
   22.1737  -20.2759  -13.4213 C   0  0  0  0  0  0  0  0  0  0  0  0
   22.1479  -19.4621  -12.4893 O   0  0  0  0  0  0  0  0  0  0  0  0
   20.9053  -20.7959  -13.8567 N   0  0  0  0  0  0  0  0  0  0  0  0
   19.6607  -20.3670  -13.2282 C   0  0  1  0  0  0  0  0  0  0  0  0
   18.9174  -19.3884  -14.0737 C   0  0  0  0  0  0  0  0  0  0  0  0
   18.5089  -20.0248  -15.3392 C   0  0  0  0  0  0  0  0  0  0  0  0
   17.2132  -20.4910  -15.5029 C   0  0  0  0  0  0  0  0  0  0  0  0
   16.7793  -21.0764  -16.6705 C   0  0  0  0  0  0  0  0  0  0  0  0
   17.6729  -21.2001  -17.7117 C   0  0  0  0  0  0  0  0  0  0  0  0
   18.9720  -20.7568  -17.6101 C   0  0  0  0  0  0  0  0  0  0  0  0
   19.3519  -20.1783  -16.4172 C   0  0  0  0  0  0  0  0  0  0  0  0
   18.8651  -21.5411  -12.7912 C   0  0  0  0  0  0  0  0  0  0  0  0
   19.1562  -22.7370  -13.0269 O   0  0  0  0  0  0  0  0  0  0  0  0
   17.6766  -21.3702  -12.0485 O   0  0  0  0  0  0  0  0  0  0  0  0
  2  1  1  6
  2  3  1  0
  4 12  1  0
  4  3  1  0
  5  4  2  0
  6  5  1  0
  6  7  1  0
  7 12  2  0
  8  7  1  0
  8  9  2  0
  9 10  1  0
 10 11  2  0
 12 11  1  0
 13  2  1  0
 13 21  1  0
 14 13  2  0
 16 15  1  0
 17 16  2  0
 18 16  1  0
 19 18  1  0
 20 21  1  0
 20 19  1  1
 22 20  1  0
 23 22  2  0
 24 22  1  0
 25 24  1  0
 25 33  1  0
 25 26  1  6
 27 26  1  0
 28 27  2  0
 29 28  1  0
 30 29  2  0
 30 31  1  0
 31 32  2  0
 32 27  1  0
 33 35  1  0
 34 33  2  0
M  END
$$$$
