WQF.pdb
     RDKit          3D

 35 37  0  0  1  0  0  0  0  0999 V2000
   27.5631  -21.8488  -15.9703 N   0  0  0  0  0  0  0  0  0  0  0  0
   26.4265  -21.9435  -15.0380 C   0  0  1  0  0  0  0  0  0  0  0  0
   26.3731  -20.7229  -14.2045 C   0  0  0  0  0  0  0  0  0  0  0  0
   27.4757  -20.5039  -13.2666 C   0  0  0  0  0  0  0  0  0  0  0  0
   28.7212  -19.9919  -13.6401 C   0  0  0  0  0  0  0  0  0  0  0  0
   29.4620  -19.8780  -12.5331 N   0  0  0  0  0  0  0  0  0  0  0  0
   28.7433  -20.2952  -11.4748 C   0  0  0  0  0  0  0  0  0  0  0  0
   29.0853  -20.3731  -10.1464 C   0  0  0  0  0  0  0  0  0  0  0  0
   28.2160  -20.8444   -9.2044 C   0  0  0  0  0  0  0  0  0  0  0  0
   26.9761  -21.2425   -9.6323 C   0  0  0  0  0  0  0  0  0  0  0  0
   26.6238  -21.1678  -10.9623 C   0  0  0  0  0  0  0  0  0  0  0  0
   27.4951  -20.6915  -11.9210 C   0  0  0  0  0  0  0  0  0  0  0  0
   25.1672  -22.3028  -15.7240 C   0  0  0  0  0  0  0  0  0  0  0  0
   24.7828  -21.6152  -16.6993 O   0  0  0  0  0  0  0  0  0  0  0  0
   21.7753  -27.4985  -16.6632 N   0  0  0  0  0  0  0  0  0  0  0  0
   22.9994  -27.4293  -15.9582 C   0  0  0  0  0  0  0  0  0  0  0  0
   23.7192  -28.4410  -15.7778 O   0  0  0  0  0  0  0  0  0  0  0  0
   23.4407  -26.1349  -15.4151 C   0  0  0  0  0  0  0  0  0  0  0  0
   22.5713  -24.9834  -15.7639 C   0  0  0  0  0  0  0  0  0  0  0  0
   23.0022  -23.6342  -15.2965 C   0  0  2  0  0  0  0  0  0  0  0  0
   24.3886  -23.3934  -15.3070 N   0  0  0  0  0  0  0  0  0  0  0  0
   22.2831  -23.2738  -14.0445 C   0  0  0  0  0  0  0  0  0  0  0  0
   22.6399  -23.6101  -12.9083 O   0  0  0  0  0  0  0  0  0  0  0  0
   21.0887  -22.4774  -14.1345 N   0  0  0  0  0  0  0  0  0  0  0  0
   20.3850  -22.0387  -12.9344 C   0  0  1  0  0  0  0  0  0  0  0  0
   21.2628  -21.2338  -12.0361 C   0  0  0  0  0  0  0  0  0  0  0  0
   21.7996  -20.0712  -12.7664 C   0  0  0  0  0  0  0  0  0  0  0  0
   23.1679  -19.9180  -12.9315 C   0  0  0  0  0  0  0  0  0  0  0  0
   23.7165  -18.8598  -13.6195 C   0  0  0  0  0  0  0  0  0  0  0  0
   22.8666  -17.9210  -14.1621 C   0  0  0  0  0  0  0  0  0  0  0  0
   21.4997  -18.0181  -14.0321 C   0  0  0  0  0  0  0  0  0  0  0  0
   21.0055  -19.0990  -13.3327 C   0  0  0  0  0  0  0  0  0  0  0  0
   19.0990  -21.3895  -13.2914 C   0  0  0  0  0  0  0  0  0  0  0  0
   18.2356  -21.0011  -12.4704 O   0  0  0  0  0  0  0  0  0  0  0  0
   18.7577  -21.1609  -14.6422 O   0  0  0  0  0  0  0  0  0  0  0  0
  2  1  1  6
  2  3  1  0
  4 12  1  0
  4  3  1  0
  5  4  2  0
  6  5  1  0
  6  7  1  0
  7 12  2  0
  8  7  1  0
  8  9  2  0
  9 10  1  0
 10 11  2  0
 12 11  1  0
 13  2  1  0
 13 21  1  0
 14 13  2  0
 16 15  1  0
 17 16  2  0
 18 16  1  0
 19 18  1  0
 20 21  1  0
 20 19  1  1
 22 20  1  0
 23 22  2  0
 24 22  1  0
 25 24  1  0
 25 33  1  0
 25 26  1  6
 27 26  1  0
 28 27  2  0
 29 28  1  0
 30 29  2  0
 30 31  1  0
 31 32  2  0
 32 27  1  0
 33 35  1  0
 34 33  2  0
M  END
$$$$
