WQF.pdb
     RDKit          3D

 35 37  0  0  1  0  0  0  0  0999 V2000
   24.0590  -19.0005  -17.7444 N   0  0  0  0  0  0  0  0  0  0  0  0
   24.6668  -18.5565  -16.4781 C   0  0  1  0  0  0  0  0  0  0  0  0
   23.6546  -17.8377  -15.6741 C   0  0  0  0  0  0  0  0  0  0  0  0
   23.2523  -16.5084  -16.1374 C   0  0  0  0  0  0  0  0  0  0  0  0
   22.0010  -16.2264  -16.6919 C   0  0  0  0  0  0  0  0  0  0  0  0
   21.9590  -14.9161  -16.9540 N   0  0  0  0  0  0  0  0  0  0  0  0
   23.1269  -14.3546  -16.5917 C   0  0  0  0  0  0  0  0  0  0  0  0
   23.5481  -13.0499  -16.6803 C   0  0  0  0  0  0  0  0  0  0  0  0
   24.7924  -12.6644  -16.2699 C   0  0  0  0  0  0  0  0  0  0  0  0
   25.6178  -13.6333  -15.7609 C   0  0  0  0  0  0  0  0  0  0  0  0
   25.2040  -14.9443  -15.6676 C   0  0  0  0  0  0  0  0  0  0  0  0
   23.9481  -15.3427  -16.0783 C   0  0  0  0  0  0  0  0  0  0  0  0
   25.3742  -19.6517  -15.7813 C   0  0  0  0  0  0  0  0  0  0  0  0
   24.7777  -20.7358  -15.5793 O   0  0  0  0  0  0  0  0  0  0  0  0
   28.0983  -21.6226  -16.5665 N   0  0  0  0  0  0  0  0  0  0  0  0
   29.1982  -22.0885  -15.8093 C   0  0  0  0  0  0  0  0  0  0  0  0
   29.7771  -23.1692  -16.0761 O   0  0  0  0  0  0  0  0  0  0  0  0
   29.6756  -21.2864  -14.6718 C   0  0  0  0  0  0  0  0  0  0  0  0
   28.9239  -20.0281  -14.4372 C   0  0  0  0  0  0  0  0  0  0  0  0
   27.4407  -20.1291  -14.3170 C   0  0  2  0  0  0  0  0  0  0  0  0
   26.6972  -19.5059  -15.3363 N   0  0  0  0  0  0  0  0  0  0  0  0
   27.0200  -19.8297  -12.9213 C   0  0  0  0  0  0  0  0  0  0  0  0
   26.9773  -18.6953  -12.4289 O   0  0  0  0  0  0  0  0  0  0  0  0
   26.6283  -20.9177  -12.0657 N   0  0  0  0  0  0  0  0  0  0  0  0
   26.1651  -20.6746  -10.7040 C   0  0  1  0  0  0  0  0  0  0  0  0
   25.0635  -19.6697  -10.6608 C   0  0  0  0  0  0  0  0  0  0  0  0
   23.8328  -20.2471  -11.2310 C   0  0  0  0  0  0  0  0  0  0  0  0
   22.8620  -20.7869  -10.4009 C   0  0  0  0  0  0  0  0  0  0  0  0
   21.6893  -21.3217  -10.8837 C   0  0  0  0  0  0  0  0  0  0  0  0
   21.4798  -21.3166  -12.2453 C   0  0  0  0  0  0  0  0  0  0  0  0
   22.4056  -20.7952  -13.1204 C   0  0  0  0  0  0  0  0  0  0  0  0
   23.5622  -20.2727  -12.5810 C   0  0  0  0  0  0  0  0  0  0  0  0
   25.8646  -21.9560  -10.0183 C   0  0  0  0  0  0  0  0  0  0  0  0
   25.5314  -22.0688   -8.8156 O   0  0  0  0  0  0  0  0  0  0  0  0
   25.9403  -23.1814  -10.7155 O   0  0  0  0  0  0  0  0  0  0  0  0
  2  1  1  6
  2  3  1  0
  4 12  1  0
  4  3  1  0
  5  4  2  0
  6  5  1  0
  6  7  1  0
  7 12  2  0
  8  7  1  0
  8  9  2  0
  9 10  1  0
 10 11  2  0
 12 11  1  0
 13  2  1  0
 13 21  1  0
 14 13  2  0
 16 15  1  0
 17 16  2  0
 18 16  1  0
 19 18  1  0
 20 21  1  0
 20 19  1  1
 22 20  1  0
 23 22  2  0
 24 22  1  0
 25 24  1  0
 25 33  1  0
 25 26  1  6
 27 26  1  0
 28 27  2  0
 29 28  1  0
 30 29  2  0
 30 31  1  0
 31 32  2  0
 32 27  1  0
 33 35  1  0
 34 33  2  0
M  END
$$$$
