WQF.pdb
     RDKit          3D

 35 37  0  0  1  0  0  0  0  0999 V2000
   15.3153  -14.6941    5.1320 N   0  0  0  0  0  0  0  0  0  0  0  0
   16.3258  -15.7404    4.8993 C   0  0  1  0  0  0  0  0  0  0  0  0
   17.6546  -15.2388    5.3119 C   0  0  0  0  0  0  0  0  0  0  0  0
   18.2820  -14.2264    4.4604 C   0  0  0  0  0  0  0  0  0  0  0  0
   18.2613  -12.8574    4.7397 C   0  0  0  0  0  0  0  0  0  0  0  0
   18.9666  -12.2380    3.7879 N   0  0  0  0  0  0  0  0  0  0  0  0
   19.4330  -13.1518    2.9172 C   0  0  0  0  0  0  0  0  0  0  0  0
   20.1901  -12.9891    1.7823 C   0  0  0  0  0  0  0  0  0  0  0  0
   20.5603  -14.0489    1.0045 C   0  0  0  0  0  0  0  0  0  0  0  0
   20.1467  -15.2954    1.3971 C   0  0  0  0  0  0  0  0  0  0  0  0
   19.3876  -15.4685    2.5340 C   0  0  0  0  0  0  0  0  0  0  0  0
   19.0101  -14.4038    3.3269 C   0  0  0  0  0  0  0  0  0  0  0  0
   15.9283  -17.0421    5.4764 C   0  0  0  0  0  0  0  0  0  0  0  0
   15.3649  -17.0697    6.5960 O   0  0  0  0  0  0  0  0  0  0  0  0
   16.3725  -23.3512    3.6206 N   0  0  0  0  0  0  0  0  0  0  0  0
   15.1194  -22.7409    3.8611 C   0  0  0  0  0  0  0  0  0  0  0  0
   14.0511  -23.3988    3.8653 O   0  0  0  0  0  0  0  0  0  0  0  0
   15.0646  -21.2914    4.1082 C   0  0  0  0  0  0  0  0  0  0  0  0
   16.3875  -20.6294    4.2311 C   0  0  0  0  0  0  0  0  0  0  0  0
   16.5166  -19.5404    5.2420 C   0  0  2  0  0  0  0  0  0  0  0  0
   16.1703  -18.2492    4.8027 N   0  0  0  0  0  0  0  0  0  0  0  0
   17.8134  -19.6628    5.9616 C   0  0  0  0  0  0  0  0  0  0  0  0
   18.8801  -19.1682    5.5755 O   0  0  0  0  0  0  0  0  0  0  0  0
   17.8558  -20.4003    7.1958 N   0  0  0  0  0  0  0  0  0  0  0  0
   19.0991  -20.5413    7.9456 C   0  0  1  0  0  0  0  0  0  0  0  0
   19.3074  -19.4119    8.8975 C   0  0  0  0  0  0  0  0  0  0  0  0
   20.5394  -19.6310    9.6767 C   0  0  0  0  0  0  0  0  0  0  0  0
   21.7702  -19.2506    9.1634 C   0  0  0  0  0  0  0  0  0  0  0  0
   22.9460  -19.4183    9.8590 C   0  0  0  0  0  0  0  0  0  0  0  0
   22.8891  -19.9866   11.1127 C   0  0  0  0  0  0  0  0  0  0  0  0
   21.6979  -20.3845   11.6761 C   0  0  0  0  0  0  0  0  0  0  0  0
   20.5515  -20.1924   10.9341 C   0  0  0  0  0  0  0  0  0  0  0  0
   19.1914  -21.8919    8.5539 C   0  0  0  0  0  0  0  0  0  0  0  0
   18.2260  -22.5379    9.0242 O   0  0  0  0  0  0  0  0  0  0  0  0
   20.4324  -22.5593    8.6420 O   0  0  0  0  0  0  0  0  0  0  0  0
  2  1  1  1
  2  3  1  0
  4 12  1  0
  4  3  1  0
  5  4  2  0
  6  5  1  0
  6  7  1  0
  7 12  2  0
  8  7  1  0
  8  9  2  0
  9 10  1  0
 10 11  2  0
 12 11  1  0
 13  2  1  0
 13 21  1  0
 14 13  2  0
 16 15  1  0
 17 16  2  0
 18 16  1  0
 19 18  1  0
 20 21  1  0
 20 19  1  6
 22 20  1  0
 23 22  2  0
 24 22  1  0
 25 24  1  0
 25 33  1  0
 25 26  1  1
 27 26  1  0
 28 27  2  0
 29 28  1  0
 30 29  2  0
 30 31  1  0
 31 32  2  0
 32 27  1  0
 33 35  1  0
 34 33  2  0
M  END
$$$$
