WQF.pdb
     RDKit          3D

 35 37  0  0  1  0  0  0  0  0999 V2000
   21.9612  -11.5373  -21.2836 N   0  0  0  0  0  0  0  0  0  0  0  0
   22.6240  -10.7317  -20.2434 C   0  0  1  0  0  0  0  0  0  0  0  0
   24.0503  -10.5569  -20.5934 C   0  0  0  0  0  0  0  0  0  0  0  0
   24.7560  -11.7226  -21.1290 C   0  0  0  0  0  0  0  0  0  0  0  0
   25.5147  -11.6981  -22.3022 C   0  0  0  0  0  0  0  0  0  0  0  0
   26.0529  -12.9112  -22.4631 N   0  0  0  0  0  0  0  0  0  0  0  0
   25.6693  -13.7041  -21.4459 C   0  0  0  0  0  0  0  0  0  0  0  0
   25.9589  -15.0230  -21.1923 C   0  0  0  0  0  0  0  0  0  0  0  0
   25.4586  -15.6742  -20.1011 C   0  0  0  0  0  0  0  0  0  0  0  0
   24.6479  -14.9609  -19.2567 C   0  0  0  0  0  0  0  0  0  0  0  0
   24.3522  -13.6377  -19.5024 C   0  0  0  0  0  0  0  0  0  0  0  0
   24.8544  -12.9710  -20.6016 C   0  0  0  0  0  0  0  0  0  0  0  0
   21.8845   -9.4877  -19.9416 C   0  0  0  0  0  0  0  0  0  0  0  0
   21.2473   -8.9159  -20.8574 O   0  0  0  0  0  0  0  0  0  0  0  0
   18.7076   -7.9273  -15.3463 N   0  0  0  0  0  0  0  0  0  0  0  0
   18.3569   -6.8703  -16.2181 C   0  0  0  0  0  0  0  0  0  0  0  0
   17.6139   -5.9277  -15.8525 O   0  0  0  0  0  0  0  0  0  0  0  0
   18.8729   -6.8775  -17.5960 C   0  0  0  0  0  0  0  0  0  0  0  0
   19.6920   -8.0641  -17.9489 C   0  0  0  0  0  0  0  0  0  0  0  0
   21.1653   -7.8669  -18.0711 C   0  0  2  0  0  0  0  0  0  0  0  0
   21.8817   -8.9284  -18.6544 N   0  0  0  0  0  0  0  0  0  0  0  0
   21.7153   -7.3251  -16.7990 C   0  0  0  0  0  0  0  0  0  0  0  0
   22.2830   -8.0040  -15.9339 O   0  0  0  0  0  0  0  0  0  0  0  0
   21.5935   -5.9166  -16.5340 N   0  0  0  0  0  0  0  0  0  0  0  0
   22.1859   -5.3216  -15.3411 C   0  0  1  0  0  0  0  0  0  0  0  0
   23.6474   -5.6040  -15.2442 C   0  0  0  0  0  0  0  0  0  0  0  0
   23.8693   -7.0485  -15.0507 C   0  0  0  0  0  0  0  0  0  0  0  0
   23.3086   -7.7045  -13.9653 C   0  0  0  0  0  0  0  0  0  0  0  0
   23.4724   -9.0541  -13.7507 C   0  0  0  0  0  0  0  0  0  0  0  0
   24.2237   -9.7736  -14.6539 C   0  0  0  0  0  0  0  0  0  0  0  0
   24.8056   -9.1794  -15.7507 C   0  0  0  0  0  0  0  0  0  0  0  0
   24.6082   -7.8245  -15.9157 C   0  0  0  0  0  0  0  0  0  0  0  0
   21.8221   -3.8864  -15.2380 C   0  0  0  0  0  0  0  0  0  0  0  0
   21.1118   -3.2623  -16.0604 O   0  0  0  0  0  0  0  0  0  0  0  0
   22.2773   -3.1036  -14.1549 O   0  0  0  0  0  0  0  0  0  0  0  0
  2  1  1  6
  2  3  1  0
  4 12  1  0
  4  3  1  0
  5  4  2  0
  6  5  1  0
  6  7  1  0
  7 12  2  0
  8  7  1  0
  8  9  2  0
  9 10  1  0
 10 11  2  0
 12 11  1  0
 13  2  1  0
 13 21  1  0
 14 13  2  0
 16 15  1  0
 17 16  2  0
 18 16  1  0
 19 18  1  0
 20 21  1  0
 20 19  1  1
 22 20  1  0
 23 22  2  0
 24 22  1  0
 25 24  1  0
 25 33  1  0
 25 26  1  6
 27 26  1  0
 28 27  2  0
 29 28  1  0
 30 29  2  0
 30 31  1  0
 31 32  2  0
 32 27  1  0
 33 35  1  0
 34 33  2  0
M  END
$$$$
