WQF.pdb
     RDKit          3D

 35 37  0  0  1  0  0  0  0  0999 V2000
   25.1311  -18.2537  -19.0441 N   0  0  0  0  0  0  0  0  0  0  0  0
   25.1825  -18.5102  -17.5944 C   0  0  1  0  0  0  0  0  0  0  0  0
   25.4704  -17.2459  -16.8828 C   0  0  0  0  0  0  0  0  0  0  0  0
   26.7798  -16.6322  -17.1116 C   0  0  0  0  0  0  0  0  0  0  0  0
   26.9546  -15.3657  -17.6758 C   0  0  0  0  0  0  0  0  0  0  0  0
   28.2657  -15.1048  -17.6897 N   0  0  0  0  0  0  0  0  0  0  0  0
   28.9303  -16.1484  -17.1608 C   0  0  0  0  0  0  0  0  0  0  0  0
   30.2785  -16.3401  -16.9785 C   0  0  0  0  0  0  0  0  0  0  0  0
   30.7760  -17.4881  -16.4311 C   0  0  0  0  0  0  0  0  0  0  0  0
   29.8759  -18.4550  -16.0651 C   0  0  0  0  0  0  0  0  0  0  0  0
   28.5220  -18.2717  -16.2436 C   0  0  0  0  0  0  0  0  0  0  0  0
   28.0100  -17.1144  -16.7945 C   0  0  0  0  0  0  0  0  0  0  0  0
   24.0000  -19.2566  -17.1149 C   0  0  0  0  0  0  0  0  0  0  0  0
   22.8900  -19.0661  -17.6657 O   0  0  0  0  0  0  0  0  0  0  0  0
   24.7426  -24.2604  -13.1490 N   0  0  0  0  0  0  0  0  0  0  0  0
   23.3420  -24.2438  -13.3448 C   0  0  0  0  0  0  0  0  0  0  0  0
   22.5880  -25.0958  -12.8158 O   0  0  0  0  0  0  0  0  0  0  0  0
   22.7506  -23.2010  -14.1980 C   0  0  0  0  0  0  0  0  0  0  0  0
   23.7112  -22.1860  -14.6985 C   0  0  0  0  0  0  0  0  0  0  0  0
   23.1498  -21.0171  -15.4355 C   0  0  2  0  0  0  0  0  0  0  0  0
   24.0889  -20.1714  -16.0543 N   0  0  0  0  0  0  0  0  0  0  0  0
   22.1063  -20.3478  -14.6123 C   0  0  0  0  0  0  0  0  0  0  0  0
   22.2692  -19.9668  -13.4463 O   0  0  0  0  0  0  0  0  0  0  0  0
   20.8102  -20.1135  -15.1906 N   0  0  0  0  0  0  0  0  0  0  0  0
   19.7367  -19.5081  -14.4103 C   0  0  1  0  0  0  0  0  0  0  0  0
   19.3474  -18.1698  -14.9418 C   0  0  0  0  0  0  0  0  0  0  0  0
   20.3825  -17.1748  -14.6075 C   0  0  0  0  0  0  0  0  0  0  0  0
   20.2683  -16.4028  -13.4613 C   0  0  0  0  0  0  0  0  0  0  0  0
   21.2161  -15.4735  -13.0974 C   0  0  0  0  0  0  0  0  0  0  0  0
   22.3176  -15.3103  -13.9086 C   0  0  0  0  0  0  0  0  0  0  0  0
   22.4875  -16.0468  -15.0590 C   0  0  0  0  0  0  0  0  0  0  0  0
   21.5065  -16.9632  -15.3745 C   0  0  0  0  0  0  0  0  0  0  0  0
   18.6117  -20.4615  -14.2427 C   0  0  0  0  0  0  0  0  0  0  0  0
   18.4954  -21.5524  -14.8483 O   0  0  0  0  0  0  0  0  0  0  0  0
   17.5565  -20.1808  -13.3477 O   0  0  0  0  0  0  0  0  0  0  0  0
  2  1  1  6
  2  3  1  0
  4 12  1  0
  4  3  1  0
  5  4  2  0
  6  5  1  0
  6  7  1  0
  7 12  2  0
  8  7  1  0
  8  9  2  0
  9 10  1  0
 10 11  2  0
 12 11  1  0
 13  2  1  0
 13 21  1  0
 14 13  2  0
 16 15  1  0
 17 16  2  0
 18 16  1  0
 19 18  1  0
 20 21  1  0
 20 19  1  1
 22 20  1  0
 23 22  2  0
 24 22  1  0
 25 24  1  0
 25 33  1  0
 25 26  1  6
 27 26  1  0
 28 27  2  0
 29 28  1  0
 30 29  2  0
 30 31  1  0
 31 32  2  0
 32 27  1  0
 33 35  1  0
 34 33  2  0
M  END
$$$$
