WQF.pdb
     RDKit          3D

 35 37  0  0  1  0  0  0  0  0999 V2000
   27.5284  -19.4198  -11.3761 N   0  0  0  0  0  0  0  0  0  0  0  0
   26.8414  -20.7014  -11.6117 C   0  0  1  0  0  0  0  0  0  0  0  0
   26.0769  -21.0773  -10.4026 C   0  0  0  0  0  0  0  0  0  0  0  0
   26.5993  -20.6238   -9.1123 C   0  0  0  0  0  0  0  0  0  0  0  0
   25.9569  -19.6829   -8.3031 C   0  0  0  0  0  0  0  0  0  0  0  0
   26.6810  -19.5445   -7.1879 N   0  0  0  0  0  0  0  0  0  0  0  0
   27.7538  -20.3541   -7.2534 C   0  0  0  0  0  0  0  0  0  0  0  0
   28.7773  -20.5436   -6.3566 C   0  0  0  0  0  0  0  0  0  0  0  0
   29.8037  -21.4092   -6.6062 C   0  0  0  0  0  0  0  0  0  0  0  0
   29.7798  -22.0910   -7.7951 C   0  0  0  0  0  0  0  0  0  0  0  0
   28.7575  -21.9081   -8.7006 C   0  0  0  0  0  0  0  0  0  0  0  0
   27.7154  -21.0367   -8.4563 C   0  0  0  0  0  0  0  0  0  0  0  0
   26.0756  -20.7029  -12.8763 C   0  0  0  0  0  0  0  0  0  0  0  0
   25.2696  -19.7705  -13.1058 O   0  0  0  0  0  0  0  0  0  0  0  0
   26.5943  -20.5042  -17.9882 N   0  0  0  0  0  0  0  0  0  0  0  0
   27.8121  -20.8129  -17.3385 C   0  0  0  0  0  0  0  0  0  0  0  0
   28.8710  -20.1850  -17.5809 O   0  0  0  0  0  0  0  0  0  0  0  0
   27.8412  -21.9055  -16.3534 C   0  0  0  0  0  0  0  0  0  0  0  0
   26.5328  -22.5647  -16.1147 C   0  0  0  0  0  0  0  0  0  0  0  0
   25.6406  -21.9615  -15.0829 C   0  0  2  0  0  0  0  0  0  0  0  0
   26.2261  -21.7258  -13.8252 N   0  0  0  0  0  0  0  0  0  0  0  0
   24.3258  -22.6586  -15.0742 C   0  0  0  0  0  0  0  0  0  0  0  0
   24.1458  -23.8130  -14.6662 O   0  0  0  0  0  0  0  0  0  0  0  0
   23.1675  -21.9624  -15.5667 N   0  0  0  0  0  0  0  0  0  0  0  0
   22.1426  -21.4678  -14.6542 C   0  0  1  0  0  0  0  0  0  0  0  0
   22.7291  -20.6829  -13.5294 C   0  0  0  0  0  0  0  0  0  0  0  0
   21.6895  -20.3848  -12.5276 C   0  0  0  0  0  0  0  0  0  0  0  0
   20.8495  -19.2939  -12.6927 C   0  0  0  0  0  0  0  0  0  0  0  0
   19.8534  -18.9843  -11.7948 C   0  0  0  0  0  0  0  0  0  0  0  0
   19.6914  -19.7944  -10.6924 C   0  0  0  0  0  0  0  0  0  0  0  0
   20.4935  -20.8914  -10.4733 C   0  0  0  0  0  0  0  0  0  0  0  0
   21.4751  -21.1539  -11.4056 C   0  0  0  0  0  0  0  0  0  0  0  0
   21.0681  -20.7711  -15.4042 C   0  0  0  0  0  0  0  0  0  0  0  0
   19.8426  -21.0096  -15.2960 O   0  0  0  0  0  0  0  0  0  0  0  0
   21.3798  -19.7496  -16.3277 O   0  0  0  0  0  0  0  0  0  0  0  0
  2  1  1  1
  2  3  1  0
  4 12  1  0
  4  3  1  0
  5  4  2  0
  6  5  1  0
  6  7  1  0
  7 12  2  0
  8  7  1  0
  8  9  2  0
  9 10  1  0
 10 11  2  0
 12 11  1  0
 13  2  1  0
 13 21  1  0
 14 13  2  0
 16 15  1  0
 17 16  2  0
 18 16  1  0
 19 18  1  0
 20 21  1  0
 20 19  1  6
 22 20  1  0
 23 22  2  0
 24 22  1  0
 25 24  1  0
 25 33  1  0
 25 26  1  1
 27 26  1  0
 28 27  2  0
 29 28  1  0
 30 29  2  0
 30 31  1  0
 31 32  2  0
 32 27  1  0
 33 35  1  0
 34 33  2  0
M  END
$$$$
