WQF.pdb
     RDKit          3D

 35 37  0  0  1  0  0  0  0  0999 V2000
   27.8446  -20.8306  -16.5576 N   0  0  0  0  0  0  0  0  0  0  0  0
   27.0421  -20.1124  -15.5525 C   0  0  1  0  0  0  0  0  0  0  0  0
   26.0910  -19.2107  -16.2378 C   0  0  0  0  0  0  0  0  0  0  0  0
   26.6485  -18.0356  -16.9100 C   0  0  0  0  0  0  0  0  0  0  0  0
   26.8478  -17.9539  -18.2907 C   0  0  0  0  0  0  0  0  0  0  0  0
   27.3202  -16.7329  -18.5613 N   0  0  0  0  0  0  0  0  0  0  0  0
   27.4304  -16.0369  -17.4150 C   0  0  0  0  0  0  0  0  0  0  0  0
   27.8771  -14.7564  -17.1951 C   0  0  0  0  0  0  0  0  0  0  0  0
   27.9328  -14.2174  -15.9414 C   0  0  0  0  0  0  0  0  0  0  0  0
   27.5241  -15.0051  -14.8967 C   0  0  0  0  0  0  0  0  0  0  0  0
   27.0742  -16.2904  -15.1073 C   0  0  0  0  0  0  0  0  0  0  0  0
   27.0129  -16.8428  -16.3707 C   0  0  0  0  0  0  0  0  0  0  0  0
   26.4479  -21.0253  -14.5529 C   0  0  0  0  0  0  0  0  0  0  0  0
   26.0931  -22.1745  -14.9069 O   0  0  0  0  0  0  0  0  0  0  0  0
   26.2086  -19.8708   -8.1828 N   0  0  0  0  0  0  0  0  0  0  0  0
   25.2795  -20.9188   -8.3794 C   0  0  0  0  0  0  0  0  0  0  0  0
   24.8121  -21.5796   -7.4207 O   0  0  0  0  0  0  0  0  0  0  0  0
   24.8515  -21.2488   -9.7480 C   0  0  0  0  0  0  0  0  0  0  0  0
   25.7265  -20.7137  -10.8210 C   0  0  0  0  0  0  0  0  0  0  0  0
   25.3294  -20.9933  -12.2312 C   0  0  2  0  0  0  0  0  0  0  0  0
   26.2674  -20.6351  -13.2170 N   0  0  0  0  0  0  0  0  0  0  0  0
   23.9290  -20.5475  -12.4653 C   0  0  0  0  0  0  0  0  0  0  0  0
   23.5575  -19.3671  -12.4582 O   0  0  0  0  0  0  0  0  0  0  0  0
   22.9187  -21.5384  -12.7226 N   0  0  0  0  0  0  0  0  0  0  0  0
   21.5172  -21.1625  -12.8728 C   0  0  1  0  0  0  0  0  0  0  0  0
   20.9713  -21.5649  -14.2014 C   0  0  0  0  0  0  0  0  0  0  0  0
   21.5522  -20.7205  -15.2610 C   0  0  0  0  0  0  0  0  0  0  0  0
   20.9125  -19.5562  -15.6589 C   0  0  0  0  0  0  0  0  0  0  0  0
   21.4232  -18.7263  -16.6309 C   0  0  0  0  0  0  0  0  0  0  0  0
   22.6162  -19.0729  -17.2264 C   0  0  0  0  0  0  0  0  0  0  0  0
   23.2983  -20.2155  -16.8746 C   0  0  0  0  0  0  0  0  0  0  0  0
   22.7400  -21.0095  -15.8949 C   0  0  0  0  0  0  0  0  0  0  0  0
   20.7241  -21.6284  -11.7081 C   0  0  0  0  0  0  0  0  0  0  0  0
   21.1753  -22.3007  -10.7516 O   0  0  0  0  0  0  0  0  0  0  0  0
   19.3489  -21.3261  -11.6054 O   0  0  0  0  0  0  0  0  0  0  0  0
  2  1  1  6
  2  3  1  0
  4 12  1  0
  4  3  1  0
  5  4  2  0
  6  5  1  0
  6  7  1  0
  7 12  2  0
  8  7  1  0
  8  9  2  0
  9 10  1  0
 10 11  2  0
 12 11  1  0
 13  2  1  0
 13 21  1  0
 14 13  2  0
 16 15  1  0
 17 16  2  0
 18 16  1  0
 19 18  1  0
 20 21  1  0
 20 19  1  1
 22 20  1  0
 23 22  2  0
 24 22  1  0
 25 24  1  0
 25 33  1  0
 25 26  1  6
 27 26  1  0
 28 27  2  0
 29 28  1  0
 30 29  2  0
 30 31  1  0
 31 32  2  0
 32 27  1  0
 33 35  1  0
 34 33  2  0
M  END
$$$$
