WQF.pdb
     RDKit          3D

 35 37  0  0  1  0  0  0  0  0999 V2000
   27.4002  -22.7164  -14.4497 N   0  0  0  0  0  0  0  0  0  0  0  0
   26.2068  -22.1518  -13.7962 C   0  0  1  0  0  0  0  0  0  0  0  0
   26.4843  -20.7573  -13.3892 C   0  0  0  0  0  0  0  0  0  0  0  0
   27.5327  -20.5478  -12.3890 C   0  0  0  0  0  0  0  0  0  0  0  0
   28.8222  -20.1068  -12.6979 C   0  0  0  0  0  0  0  0  0  0  0  0
   29.4939  -19.9794  -11.5491 N   0  0  0  0  0  0  0  0  0  0  0  0
   28.6895  -20.3203  -10.5258 C   0  0  0  0  0  0  0  0  0  0  0  0
   28.9404  -20.3576   -9.1756 C   0  0  0  0  0  0  0  0  0  0  0  0
   27.9908  -20.7508   -8.2762 C   0  0  0  0  0  0  0  0  0  0  0  0
   26.7642  -21.1119   -8.7703 C   0  0  0  0  0  0  0  0  0  0  0  0
   26.5029  -21.0773  -10.1227 C   0  0  0  0  0  0  0  0  0  0  0  0
   27.4558  -20.6799  -11.0388 C   0  0  0  0  0  0  0  0  0  0  0  0
   24.9813  -22.3499  -14.5990 C   0  0  0  0  0  0  0  0  0  0  0  0
   24.6952  -21.5212  -15.4953 O   0  0  0  0  0  0  0  0  0  0  0  0
   21.4644  -27.7226  -14.6559 N   0  0  0  0  0  0  0  0  0  0  0  0
   20.4802  -26.7401  -14.9135 C   0  0  0  0  0  0  0  0  0  0  0  0
   19.2830  -27.0427  -15.1360 O   0  0  0  0  0  0  0  0  0  0  0  0
   20.8708  -25.3215  -14.9268 C   0  0  0  0  0  0  0  0  0  0  0  0
   22.2921  -25.0630  -14.5854 C   0  0  0  0  0  0  0  0  0  0  0  0
   22.7528  -23.6446  -14.6016 C   0  0  2  0  0  0  0  0  0  0  0  0
   24.1274  -23.4417  -14.3794 N   0  0  0  0  0  0  0  0  0  0  0  0
   21.8269  -22.7978  -13.8015 C   0  0  0  0  0  0  0  0  0  0  0  0
   21.8492  -22.7054  -12.5676 O   0  0  0  0  0  0  0  0  0  0  0  0
   20.8291  -22.0208  -14.4869 N   0  0  0  0  0  0  0  0  0  0  0  0
   19.9693  -21.0923  -13.7613 C   0  0  1  0  0  0  0  0  0  0  0  0
   20.7539  -20.0217  -13.0806 C   0  0  0  0  0  0  0  0  0  0  0  0
   21.3928  -19.1506  -14.0837 C   0  0  0  0  0  0  0  0  0  0  0  0
   20.6439  -18.2085  -14.7726 C   0  0  0  0  0  0  0  0  0  0  0  0
   21.1973  -17.3612  -15.7054 C   0  0  0  0  0  0  0  0  0  0  0  0
   22.5480  -17.4595  -15.9586 C   0  0  0  0  0  0  0  0  0  0  0  0
   23.3441  -18.3742  -15.3073 C   0  0  0  0  0  0  0  0  0  0  0  0
   22.7362  -19.1975  -14.3829 C   0  0  0  0  0  0  0  0  0  0  0  0
   18.8762  -20.6006  -14.6366 C   0  0  0  0  0  0  0  0  0  0  0  0
   17.9650  -19.8176  -14.2804 O   0  0  0  0  0  0  0  0  0  0  0  0
   18.7962  -21.0063  -15.9865 O   0  0  0  0  0  0  0  0  0  0  0  0
  2  1  1  6
  2  3  1  0
  4 12  1  0
  4  3  1  0
  5  4  2  0
  6  5  1  0
  6  7  1  0
  7 12  2  0
  8  7  1  0
  8  9  2  0
  9 10  1  0
 10 11  2  0
 12 11  1  0
 13  2  1  0
 13 21  1  0
 14 13  2  0
 16 15  1  0
 17 16  2  0
 18 16  1  0
 19 18  1  0
 20 21  1  0
 20 19  1  1
 22 20  1  0
 23 22  2  0
 24 22  1  0
 25 24  1  0
 25 33  1  0
 25 26  1  6
 27 26  1  0
 28 27  2  0
 29 28  1  0
 30 29  2  0
 30 31  1  0
 31 32  2  0
 32 27  1  0
 33 35  1  0
 34 33  2  0
M  END
$$$$
