WQF.pdb
     RDKit          3D

 35 37  0  0  1  0  0  0  0  0999 V2000
   22.0790  -20.3995  -15.2595 N   0  0  0  0  0  0  0  0  0  0  0  0
   23.1522  -19.7068  -14.5257 C   0  0  1  0  0  0  0  0  0  0  0  0
   22.6077  -18.4808  -13.9027 C   0  0  0  0  0  0  0  0  0  0  0  0
   21.9617  -17.5102  -14.7882 C   0  0  0  0  0  0  0  0  0  0  0  0
   20.5841  -17.2767  -14.8092 C   0  0  0  0  0  0  0  0  0  0  0  0
   20.3511  -16.3004  -15.6923 N   0  0  0  0  0  0  0  0  0  0  0  0
   21.5180  -15.9047  -16.2328 C   0  0  0  0  0  0  0  0  0  0  0  0
   21.7746  -14.9480  -17.1849 C   0  0  0  0  0  0  0  0  0  0  0  0
   23.0411  -14.6926  -17.6276 C   0  0  0  0  0  0  0  0  0  0  0  0
   24.0606  -15.4311  -17.0851 C   0  0  0  0  0  0  0  0  0  0  0  0
   23.8132  -16.3924  -16.1294 C   0  0  0  0  0  0  0  0  0  0  0  0
   22.5370  -16.6563  -15.6749 C   0  0  0  0  0  0  0  0  0  0  0  0
   23.8846  -20.6130  -13.6158 C   0  0  0  0  0  0  0  0  0  0  0  0
   23.2935  -21.6091  -13.1363 O   0  0  0  0  0  0  0  0  0  0  0  0
   29.8009  -21.9941  -11.5715 N   0  0  0  0  0  0  0  0  0  0  0  0
   29.6762  -20.6221  -11.8912 C   0  0  0  0  0  0  0  0  0  0  0  0
   30.5372  -19.7787  -11.5422 O   0  0  0  0  0  0  0  0  0  0  0  0
   28.5005  -20.1677  -12.6504 C   0  0  0  0  0  0  0  0  0  0  0  0
   27.5119  -21.2298  -12.9634 C   0  0  0  0  0  0  0  0  0  0  0  0
   26.1297  -21.0569  -12.4304 C   0  0  2  0  0  0  0  0  0  0  0  0
   25.2257  -20.3828  -13.2721 N   0  0  0  0  0  0  0  0  0  0  0  0
   26.1816  -20.5924  -11.0175 C   0  0  0  0  0  0  0  0  0  0  0  0
   26.4697  -19.4411  -10.6670 O   0  0  0  0  0  0  0  0  0  0  0  0
   25.8774  -21.5274   -9.9676 N   0  0  0  0  0  0  0  0  0  0  0  0
   26.4518  -21.3756   -8.6354 C   0  0  1  0  0  0  0  0  0  0  0  0
   27.5964  -20.4190   -8.6273 C   0  0  0  0  0  0  0  0  0  0  0  0
   28.0218  -20.1547   -7.2408 C   0  0  0  0  0  0  0  0  0  0  0  0
   28.9917  -20.9450   -6.6427 C   0  0  0  0  0  0  0  0  0  0  0  0
   29.4344  -20.7278   -5.3577 C   0  0  0  0  0  0  0  0  0  0  0  0
   28.8878  -19.6831   -4.6452 C   0  0  0  0  0  0  0  0  0  0  0  0
   27.9219  -18.8636   -5.1840 C   0  0  0  0  0  0  0  0  0  0  0  0
   27.5163  -19.1276   -6.4754 C   0  0  0  0  0  0  0  0  0  0  0  0
   25.3908  -21.0836   -7.6397 C   0  0  0  0  0  0  0  0  0  0  0  0
   25.3872  -21.4838   -6.4521 O   0  0  0  0  0  0  0  0  0  0  0  0
   24.2698  -20.3000   -7.9899 O   0  0  0  0  0  0  0  0  0  0  0  0
  2  1  1  1
  2  3  1  0
  4 12  1  0
  4  3  1  0
  5  4  2  0
  6  5  1  0
  6  7  1  0
  7 12  2  0
  8  7  1  0
  8  9  2  0
  9 10  1  0
 10 11  2  0
 12 11  1  0
 13  2  1  0
 13 21  1  0
 14 13  2  0
 16 15  1  0
 17 16  2  0
 18 16  1  0
 19 18  1  0
 20 21  1  0
 20 19  1  6
 22 20  1  0
 23 22  2  0
 24 22  1  0
 25 24  1  0
 25 33  1  0
 25 26  1  6
 27 26  1  0
 28 27  2  0
 29 28  1  0
 30 29  2  0
 30 31  1  0
 31 32  2  0
 32 27  1  0
 33 35  1  0
 34 33  2  0
M  END
$$$$
