WQF.pdb
     RDKit          3D

 35 37  0  0  1  0  0  0  0  0999 V2000
   22.9503  -19.3659  -16.4479 N   0  0  0  0  0  0  0  0  0  0  0  0
   23.6657  -18.8047  -15.2888 C   0  0  1  0  0  0  0  0  0  0  0  0
   22.6873  -18.4184  -14.2491 C   0  0  0  0  0  0  0  0  0  0  0  0
   21.4984  -17.6853  -14.6879 C   0  0  0  0  0  0  0  0  0  0  0  0
   20.1925  -18.0568  -14.3573 C   0  0  0  0  0  0  0  0  0  0  0  0
   19.3663  -17.1442  -14.8787 N   0  0  0  0  0  0  0  0  0  0  0  0
   20.0887  -16.2114  -15.5256 C   0  0  0  0  0  0  0  0  0  0  0  0
   19.6806  -15.0981  -16.2195 C   0  0  0  0  0  0  0  0  0  0  0  0
   20.5713  -14.2639  -16.8327 C   0  0  0  0  0  0  0  0  0  0  0  0
   21.9020  -14.5772  -16.7326 C   0  0  0  0  0  0  0  0  0  0  0  0
   22.3210  -15.6914  -16.0385 C   0  0  0  0  0  0  0  0  0  0  0  0
   21.4284  -16.5392  -15.4145 C   0  0  0  0  0  0  0  0  0  0  0  0
   24.7681  -19.6782  -14.8338 C   0  0  0  0  0  0  0  0  0  0  0  0
   24.5168  -20.8618  -14.5056 O   0  0  0  0  0  0  0  0  0  0  0  0
   29.0485  -21.9785  -15.7461 N   0  0  0  0  0  0  0  0  0  0  0  0
   28.8821  -21.0013  -16.7549 C   0  0  0  0  0  0  0  0  0  0  0  0
   28.9547  -21.2875  -17.9743 O   0  0  0  0  0  0  0  0  0  0  0  0
   28.6216  -19.6067  -16.3647 C   0  0  0  0  0  0  0  0  0  0  0  0
   28.5380  -19.3740  -14.9010 C   0  0  0  0  0  0  0  0  0  0  0  0
   27.2695  -19.7600  -14.2180 C   0  0  2  0  0  0  0  0  0  0  0  0
   26.0900  -19.2131  -14.7562 N   0  0  0  0  0  0  0  0  0  0  0  0
   27.4300  -19.6500  -12.7426 C   0  0  0  0  0  0  0  0  0  0  0  0
   28.1414  -18.8119  -12.1743 O   0  0  0  0  0  0  0  0  0  0  0  0
   26.7170  -20.5687  -11.8961 N   0  0  0  0  0  0  0  0  0  0  0  0
   26.9484  -20.5994  -10.4562 C   0  0  1  0  0  0  0  0  0  0  0  0
   26.8312  -19.2444   -9.8436 C   0  0  0  0  0  0  0  0  0  0  0  0
   27.0745  -19.3254   -8.3919 C   0  0  0  0  0  0  0  0  0  0  0  0
   26.0254  -19.5673   -7.5179 C   0  0  0  0  0  0  0  0  0  0  0  0
   26.2042  -19.6688   -6.1570 C   0  0  0  0  0  0  0  0  0  0  0  0
   27.4776  -19.5233   -5.6519 C   0  0  0  0  0  0  0  0  0  0  0  0
   28.5593  -19.2819   -6.4682 C   0  0  0  0  0  0  0  0  0  0  0  0
   28.3214  -19.1900   -7.8234 C   0  0  0  0  0  0  0  0  0  0  0  0
   26.1131  -21.6455   -9.8155 C   0  0  0  0  0  0  0  0  0  0  0  0
   24.9009  -21.8491  -10.0593 O   0  0  0  0  0  0  0  0  0  0  0  0
   26.6629  -22.5138   -8.8474 O   0  0  0  0  0  0  0  0  0  0  0  0
  2  1  1  6
  2  3  1  0
  4 12  1  0
  4  3  1  0
  5  4  2  0
  6  5  1  0
  6  7  1  0
  7 12  2  0
  8  7  1  0
  8  9  2  0
  9 10  1  0
 10 11  2  0
 12 11  1  0
 13  2  1  0
 13 21  1  0
 14 13  2  0
 16 15  1  0
 17 16  2  0
 18 16  1  0
 19 18  1  0
 20 21  1  0
 20 19  1  6
 22 20  1  0
 23 22  2  0
 24 22  1  0
 25 24  1  0
 25 33  1  0
 25 26  1  1
 27 26  1  0
 28 27  2  0
 29 28  1  0
 30 29  2  0
 30 31  1  0
 31 32  2  0
 32 27  1  0
 33 35  1  0
 34 33  2  0
M  END
$$$$
