WQF.pdb
     RDKit          3D

 35 37  0  0  1  0  0  0  0  0999 V2000
   26.6065  -20.5630  -17.2383 N   0  0  0  0  0  0  0  0  0  0  0  0
   26.3169  -19.8214  -15.9989 C   0  0  1  0  0  0  0  0  0  0  0  0
   26.0660  -18.4008  -16.3250 C   0  0  0  0  0  0  0  0  0  0  0  0
   27.0530  -17.7228  -17.1675 C   0  0  0  0  0  0  0  0  0  0  0  0
   26.7176  -16.9067  -18.2511 C   0  0  0  0  0  0  0  0  0  0  0  0
   27.8537  -16.4165  -18.7573 N   0  0  0  0  0  0  0  0  0  0  0  0
   28.8943  -16.8853  -18.0445 C   0  0  0  0  0  0  0  0  0  0  0  0
   30.2424  -16.6684  -18.1969 C   0  0  0  0  0  0  0  0  0  0  0  0
   31.1640  -17.2509  -17.3743 C   0  0  0  0  0  0  0  0  0  0  0  0
   30.6948  -18.0692  -16.3797 C   0  0  0  0  0  0  0  0  0  0  0  0
   29.3447  -18.2924  -16.2187 C   0  0  0  0  0  0  0  0  0  0  0  0
   28.4061  -17.7070  -17.0441 C   0  0  0  0  0  0  0  0  0  0  0  0
   25.2772  -20.4810  -15.1808 C   0  0  0  0  0  0  0  0  0  0  0  0
   24.3949  -21.1676  -15.7481 O   0  0  0  0  0  0  0  0  0  0  0  0
   25.8247  -20.7206   -8.7718 N   0  0  0  0  0  0  0  0  0  0  0  0
   26.7950  -20.7125   -9.8008 C   0  0  0  0  0  0  0  0  0  0  0  0
   28.0234  -20.6479   -9.5539 O   0  0  0  0  0  0  0  0  0  0  0  0
   26.3525  -20.7761  -11.2027 C   0  0  0  0  0  0  0  0  0  0  0  0
   24.8802  -20.7823  -11.3921 C   0  0  0  0  0  0  0  0  0  0  0  0
   24.3705  -20.8268  -12.7931 C   0  0  2  0  0  0  0  0  0  0  0  0
   25.2513  -20.3538  -13.7834 N   0  0  0  0  0  0  0  0  0  0  0  0
   22.9793  -20.3014  -12.8472 C   0  0  0  0  0  0  0  0  0  0  0  0
   22.6818  -19.1002  -12.8458 O   0  0  0  0  0  0  0  0  0  0  0  0
   21.8865  -21.2347  -12.9087 N   0  0  0  0  0  0  0  0  0  0  0  0
   20.5058  -20.7719  -12.9945 C   0  0  1  0  0  0  0  0  0  0  0  0
   20.3251  -19.7527  -14.0686 C   0  0  0  0  0  0  0  0  0  0  0  0
   20.4560  -20.3880  -15.3925 C   0  0  0  0  0  0  0  0  0  0  0  0
   19.4258  -21.1634  -15.9027 C   0  0  0  0  0  0  0  0  0  0  0  0
   19.4934  -21.7627  -17.1398 C   0  0  0  0  0  0  0  0  0  0  0  0
   20.6318  -21.5802  -17.8939 C   0  0  0  0  0  0  0  0  0  0  0  0
   21.6879  -20.8217  -17.4422 C   0  0  0  0  0  0  0  0  0  0  0  0
   21.5655  -20.2449  -16.1956 C   0  0  0  0  0  0  0  0  0  0  0  0
   19.5727  -21.9237  -13.0673 C   0  0  0  0  0  0  0  0  0  0  0  0
   19.9141  -23.1182  -13.2314 O   0  0  0  0  0  0  0  0  0  0  0  0
   18.1791  -21.7306  -12.9500 O   0  0  0  0  0  0  0  0  0  0  0  0
  2  1  1  6
  2  3  1  0
  4 12  1  0
  4  3  1  0
  5  4  2  0
  6  5  1  0
  6  7  1  0
  7 12  2  0
  8  7  1  0
  8  9  2  0
  9 10  1  0
 10 11  2  0
 12 11  1  0
 13  2  1  0
 13 21  1  0
 14 13  2  0
 16 15  1  0
 17 16  2  0
 18 16  1  0
 19 18  1  0
 20 21  1  0
 20 19  1  1
 22 20  1  0
 23 22  2  0
 24 22  1  0
 25 24  1  0
 25 33  1  0
 25 26  1  6
 27 26  1  0
 28 27  2  0
 29 28  1  0
 30 29  2  0
 30 31  1  0
 31 32  2  0
 32 27  1  0
 33 35  1  0
 34 33  2  0
M  END
$$$$
