WQF.pdb
     RDKit          3D

 35 37  0  0  1  0  0  0  0  0999 V2000
   27.6765  -21.5923  -14.8311 N   0  0  0  0  0  0  0  0  0  0  0  0
   27.6831  -21.0298  -13.4696 C   0  0  1  0  0  0  0  0  0  0  0  0
   29.0042  -20.4239  -13.1960 C   0  0  0  0  0  0  0  0  0  0  0  0
   30.1265  -21.3374  -12.9733 C   0  0  0  0  0  0  0  0  0  0  0  0
   30.7960  -22.0080  -14.0003 C   0  0  0  0  0  0  0  0  0  0  0  0
   31.7890  -22.7111  -13.4464 N   0  0  0  0  0  0  0  0  0  0  0  0
   31.7791  -22.5177  -12.1149 C   0  0  0  0  0  0  0  0  0  0  0  0
   32.5937  -23.0368  -11.1378 C   0  0  0  0  0  0  0  0  0  0  0  0
   32.4194  -22.7338   -9.8176 C   0  0  0  0  0  0  0  0  0  0  0  0
   31.3926  -21.8850   -9.4947 C   0  0  0  0  0  0  0  0  0  0  0  0
   30.5708  -21.3589  -10.4676 C   0  0  0  0  0  0  0  0  0  0  0  0
   30.7403  -21.6582  -11.8042 C   0  0  0  0  0  0  0  0  0  0  0  0
   26.5168  -20.1568  -13.2181 C   0  0  0  0  0  0  0  0  0  0  0  0
   25.9568  -19.5883  -14.1850 O   0  0  0  0  0  0  0  0  0  0  0  0
   21.9907  -19.0466  -11.9425 N   0  0  0  0  0  0  0  0  0  0  0  0
   22.7829  -19.8839  -12.7621 C   0  0  0  0  0  0  0  0  0  0  0  0
   23.3549  -19.4543  -13.7928 O   0  0  0  0  0  0  0  0  0  0  0  0
   22.9373  -21.3017  -12.3999 C   0  0  0  0  0  0  0  0  0  0  0  0
   24.2673  -21.6630  -11.8486 C   0  0  0  0  0  0  0  0  0  0  0  0
   25.0350  -20.5893  -11.1542 C   0  0  2  0  0  0  0  0  0  0  0  0
   26.0233  -19.9453  -11.9214 N   0  0  0  0  0  0  0  0  0  0  0  0
   25.4518  -21.0521   -9.8026 C   0  0  0  0  0  0  0  0  0  0  0  0
   24.7582  -21.7545   -9.0562 O   0  0  0  0  0  0  0  0  0  0  0  0
   26.7477  -20.6721   -9.3075 N   0  0  0  0  0  0  0  0  0  0  0  0
   27.0335  -20.6632   -7.8771 C   0  0  1  0  0  0  0  0  0  0  0  0
   28.2747  -19.8983   -7.5612 C   0  0  0  0  0  0  0  0  0  0  0  0
   28.4768  -19.8470   -6.1019 C   0  0  0  0  0  0  0  0  0  0  0  0
   28.9704  -20.9511   -5.4235 C   0  0  0  0  0  0  0  0  0  0  0  0
   29.1924  -20.9468   -4.0652 C   0  0  0  0  0  0  0  0  0  0  0  0
   28.9107  -19.7974   -3.3599 C   0  0  0  0  0  0  0  0  0  0  0  0
   28.4189  -18.6693   -3.9765 C   0  0  0  0  0  0  0  0  0  0  0  0
   28.2159  -18.7304   -5.3392 C   0  0  0  0  0  0  0  0  0  0  0  0
   25.8345  -20.2472   -7.1078 C   0  0  0  0  0  0  0  0  0  0  0  0
   25.0136  -19.3725   -7.4702 O   0  0  0  0  0  0  0  0  0  0  0  0
   25.5350  -20.8419   -5.8629 O   0  0  0  0  0  0  0  0  0  0  0  0
  2  1  1  6
  2  3  1  0
  4 12  1  0
  4  3  1  0
  5  4  2  0
  6  5  1  0
  6  7  1  0
  7 12  2  0
  8  7  1  0
  8  9  2  0
  9 10  1  0
 10 11  2  0
 12 11  1  0
 13  2  1  0
 13 21  1  0
 14 13  2  0
 16 15  1  0
 17 16  2  0
 18 16  1  0
 19 18  1  0
 20 21  1  0
 20 19  1  6
 22 20  1  0
 23 22  2  0
 24 22  1  0
 25 24  1  0
 25 33  1  0
 25 26  1  6
 27 26  1  0
 28 27  2  0
 29 28  1  0
 30 29  2  0
 30 31  1  0
 31 32  2  0
 32 27  1  0
 33 35  1  0
 34 33  2  0
M  END
$$$$
