WQF.pdb
     RDKit          3D

 35 37  0  0  1  0  0  0  0  0999 V2000
   27.9002  -19.7581  -12.3780 N   0  0  0  0  0  0  0  0  0  0  0  0
   27.1483  -21.0198  -12.2659 C   0  0  1  0  0  0  0  0  0  0  0  0
   26.3223  -20.9909  -11.0394 C   0  0  0  0  0  0  0  0  0  0  0  0
   26.9739  -20.5534   -9.8036 C   0  0  0  0  0  0  0  0  0  0  0  0
   26.4310  -19.6024   -8.9354 C   0  0  0  0  0  0  0  0  0  0  0  0
   27.2601  -19.4835   -7.8935 N   0  0  0  0  0  0  0  0  0  0  0  0
   28.3045  -20.3151   -8.0617 C   0  0  0  0  0  0  0  0  0  0  0  0
   29.4039  -20.5294   -7.2662 C   0  0  0  0  0  0  0  0  0  0  0  0
   30.3835  -21.4154   -7.6133 C   0  0  0  0  0  0  0  0  0  0  0  0
   30.2328  -22.0920   -8.7959 C   0  0  0  0  0  0  0  0  0  0  0  0
   29.1335  -21.8842   -9.6002 C   0  0  0  0  0  0  0  0  0  0  0  0
   28.1379  -20.9921   -9.2568 C   0  0  0  0  0  0  0  0  0  0  0  0
   26.4276  -21.3556  -13.5123 C   0  0  0  0  0  0  0  0  0  0  0  0
   26.2336  -20.4604  -14.3683 O   0  0  0  0  0  0  0  0  0  0  0  0
   23.3509  -26.9042  -14.4629 N   0  0  0  0  0  0  0  0  0  0  0  0
   23.3218  -26.2091  -15.6942 C   0  0  0  0  0  0  0  0  0  0  0  0
   22.3882  -26.3593  -16.5189 O   0  0  0  0  0  0  0  0  0  0  0  0
   24.4202  -25.2865  -16.0218 C   0  0  0  0  0  0  0  0  0  0  0  0
   25.1003  -24.6849  -14.8475 C   0  0  0  0  0  0  0  0  0  0  0  0
   25.1224  -23.1962  -14.7578 C   0  0  2  0  0  0  0  0  0  0  0  0
   25.9513  -22.6525  -13.7590 N   0  0  0  0  0  0  0  0  0  0  0  0
   23.7357  -22.6601  -14.8232 C   0  0  0  0  0  0  0  0  0  0  0  0
   22.9015  -22.9737  -15.6818 O   0  0  0  0  0  0  0  0  0  0  0  0
   23.3103  -21.7118  -13.8289 N   0  0  0  0  0  0  0  0  0  0  0  0
   21.9851  -21.1047  -13.8867 C   0  0  1  0  0  0  0  0  0  0  0  0
   21.7425  -20.1851  -12.7375 C   0  0  0  0  0  0  0  0  0  0  0  0
   21.8033  -20.9359  -11.4703 C   0  0  0  0  0  0  0  0  0  0  0  0
   20.8151  -21.8553  -11.1524 C   0  0  0  0  0  0  0  0  0  0  0  0
   20.8363  -22.5927   -9.9905 C   0  0  0  0  0  0  0  0  0  0  0  0
   21.8832  -22.4041   -9.1151 C   0  0  0  0  0  0  0  0  0  0  0  0
   22.8939  -21.5063   -9.3745 C   0  0  0  0  0  0  0  0  0  0  0  0
   22.8212  -20.7949  -10.5536 C   0  0  0  0  0  0  0  0  0  0  0  0
   21.7428  -20.5067  -15.2232 C   0  0  0  0  0  0  0  0  0  0  0  0
   22.5430  -19.7608  -15.8346 O   0  0  0  0  0  0  0  0  0  0  0  0
   20.5385  -20.7558  -15.9165 O   0  0  0  0  0  0  0  0  0  0  0  0
  2  1  1  6
  2  3  1  0
  4 12  1  0
  4  3  1  0
  5  4  2  0
  6  5  1  0
  6  7  1  0
  7 12  2  0
  8  7  1  0
  8  9  2  0
  9 10  1  0
 10 11  2  0
 12 11  1  0
 13  2  1  0
 13 21  1  0
 14 13  2  0
 16 15  1  0
 17 16  2  0
 18 16  1  0
 19 18  1  0
 20 21  1  0
 20 19  1  1
 22 20  1  0
 23 22  2  0
 24 22  1  0
 25 24  1  0
 25 33  1  0
 25 26  1  1
 27 26  1  0
 28 27  2  0
 29 28  1  0
 30 29  2  0
 30 31  1  0
 31 32  2  0
 32 27  1  0
 33 35  1  0
 34 33  2  0
M  END
$$$$
