WQF.pdb
     RDKit          3D

 35 37  0  0  1  0  0  0  0  0999 V2000
   28.8458  -22.2785  -17.3990 N   0  0  0  0  0  0  0  0  0  0  0  0
   28.6343  -22.1276  -15.9489 C   0  0  1  0  0  0  0  0  0  0  0  0
   29.8354  -21.5168  -15.3393 C   0  0  0  0  0  0  0  0  0  0  0  0
   30.7720  -22.4146  -14.6610 C   0  0  0  0  0  0  0  0  0  0  0  0
   31.3961  -23.4987  -15.2840 C   0  0  0  0  0  0  0  0  0  0  0  0
   32.2158  -24.0633  -14.3914 N   0  0  0  0  0  0  0  0  0  0  0  0
   32.1392  -23.3872  -13.2306 C   0  0  0  0  0  0  0  0  0  0  0  0
   32.7823  -23.6022  -12.0356 C   0  0  0  0  0  0  0  0  0  0  0  0
   32.5630  -22.8089  -10.9458 C   0  0  0  0  0  0  0  0  0  0  0  0
   31.6692  -21.7789  -11.0840 C   0  0  0  0  0  0  0  0  0  0  0  0
   31.0197  -21.5550  -12.2785 C   0  0  0  0  0  0  0  0  0  0  0  0
   31.2362  -22.3504  -13.3855 C   0  0  0  0  0  0  0  0  0  0  0  0
   27.3518  -21.4623  -15.6356 C   0  0  0  0  0  0  0  0  0  0  0  0
   27.1786  -20.2704  -15.9837 O   0  0  0  0  0  0  0  0  0  0  0  0
   21.7704  -21.1669  -15.2779 N   0  0  0  0  0  0  0  0  0  0  0  0
   21.8201  -21.1906  -13.8647 C   0  0  0  0  0  0  0  0  0  0  0  0
   20.9163  -20.6795  -13.1604 O   0  0  0  0  0  0  0  0  0  0  0  0
   22.9673  -21.8281  -13.1993 C   0  0  0  0  0  0  0  0  0  0  0  0
   24.0217  -22.3277  -14.1169 C   0  0  0  0  0  0  0  0  0  0  0  0
   25.3773  -21.7171  -13.9989 C   0  0  2  0  0  0  0  0  0  0  0  0
   26.3240  -22.1318  -14.9538 N   0  0  0  0  0  0  0  0  0  0  0  0
   25.8247  -21.7374  -12.5797 C   0  0  0  0  0  0  0  0  0  0  0  0
   26.7578  -22.4257  -12.1474 O   0  0  0  0  0  0  0  0  0  0  0  0
   25.1426  -20.9056  -11.6247 N   0  0  0  0  0  0  0  0  0  0  0  0
   25.6249  -20.7837  -10.2535 C   0  0  1  0  0  0  0  0  0  0  0  0
   26.8245  -19.9018  -10.1607 C   0  0  0  0  0  0  0  0  0  0  0  0
   27.2555  -19.7844   -8.7558 C   0  0  0  0  0  0  0  0  0  0  0  0
   26.7687  -18.7611   -7.9565 C   0  0  0  0  0  0  0  0  0  0  0  0
   27.1274  -18.6193   -6.6354 C   0  0  0  0  0  0  0  0  0  0  0  0
   28.0044  -19.5335   -6.0939 C   0  0  0  0  0  0  0  0  0  0  0  0
   28.5218  -20.5709   -6.8361 C   0  0  0  0  0  0  0  0  0  0  0  0
   28.1276  -20.6642   -8.1543 C   0  0  0  0  0  0  0  0  0  0  0  0
   24.5136  -20.4194   -9.3397 C   0  0  0  0  0  0  0  0  0  0  0  0
   23.6175  -19.5810   -9.5935 O   0  0  0  0  0  0  0  0  0  0  0  0
   24.3962  -21.0261   -8.0703 O   0  0  0  0  0  0  0  0  0  0  0  0
  2  1  1  6
  2  3  1  0
  4 12  1  0
  4  3  1  0
  5  4  2  0
  6  5  1  0
  6  7  1  0
  7 12  2  0
  8  7  1  0
  8  9  2  0
  9 10  1  0
 10 11  2  0
 12 11  1  0
 13  2  1  0
 13 21  1  0
 14 13  2  0
 16 15  1  0
 17 16  2  0
 18 16  1  0
 19 18  1  0
 20 21  1  0
 20 19  1  1
 22 20  1  0
 23 22  2  0
 24 22  1  0
 25 24  1  0
 25 33  1  0
 25 26  1  6
 27 26  1  0
 28 27  2  0
 29 28  1  0
 30 29  2  0
 30 31  1  0
 31 32  2  0
 32 27  1  0
 33 35  1  0
 34 33  2  0
M  END
$$$$
