WQF.pdb
     RDKit          3D

 35 37  0  0  1  0  0  0  0  0999 V2000
   22.0951  -18.4915  -20.9505 N   0  0  0  0  0  0  0  0  0  0  0  0
   22.7649  -18.1863  -19.6745 C   0  0  1  0  0  0  0  0  0  0  0  0
   22.1441  -16.9880  -19.0693 C   0  0  0  0  0  0  0  0  0  0  0  0
   22.1951  -15.7453  -19.8417 C   0  0  0  0  0  0  0  0  0  0  0  0
   21.0690  -15.1288  -20.3938 C   0  0  0  0  0  0  0  0  0  0  0  0
   21.4727  -13.9988  -20.9831 N   0  0  0  0  0  0  0  0  0  0  0  0
   22.8035  -13.8710  -20.8307 C   0  0  0  0  0  0  0  0  0  0  0  0
   23.6558  -12.8879  -21.2719 C   0  0  0  0  0  0  0  0  0  0  0  0
   24.9992  -12.9368  -21.0311 C   0  0  0  0  0  0  0  0  0  0  0  0
   25.4758  -14.0117  -20.3265 C   0  0  0  0  0  0  0  0  0  0  0  0
   24.6288  -15.0024  -19.8795 C   0  0  0  0  0  0  0  0  0  0  0  0
   23.2698  -14.9607  -20.1168 C   0  0  0  0  0  0  0  0  0  0  0  0
   22.8587  -19.3697  -18.7934 C   0  0  0  0  0  0  0  0  0  0  0  0
   21.8392  -20.0739  -18.6023 O   0  0  0  0  0  0  0  0  0  0  0  0
   28.5716  -21.6615  -16.8249 N   0  0  0  0  0  0  0  0  0  0  0  0
   27.6381  -22.5231  -16.2032 C   0  0  0  0  0  0  0  0  0  0  0  0
   27.9841  -23.6107  -15.6819 O   0  0  0  0  0  0  0  0  0  0  0  0
   26.2186  -22.1370  -16.1705 C   0  0  0  0  0  0  0  0  0  0  0  0
   25.8352  -21.0880  -17.1482 C   0  0  0  0  0  0  0  0  0  0  0  0
   24.3945  -20.7076  -17.2142 C   0  0  2  0  0  0  0  0  0  0  0  0
   24.0613  -19.7220  -18.1616 N   0  0  0  0  0  0  0  0  0  0  0  0
   23.8560  -20.5069  -15.8415 C   0  0  0  0  0  0  0  0  0  0  0  0
   23.6300  -19.4027  -15.3305 O   0  0  0  0  0  0  0  0  0  0  0  0
   23.5673  -21.6611  -15.0332 N   0  0  0  0  0  0  0  0  0  0  0  0
   23.0789  -21.5190  -13.6660 C   0  0  1  0  0  0  0  0  0  0  0  0
   23.7281  -20.3779  -12.9578 C   0  0  0  0  0  0  0  0  0  0  0  0
   23.2109  -20.2802  -11.5808 C   0  0  0  0  0  0  0  0  0  0  0  0
   23.9268  -20.8205  -10.5232 C   0  0  0  0  0  0  0  0  0  0  0  0
   23.4945  -20.7400   -9.2190 C   0  0  0  0  0  0  0  0  0  0  0  0
   22.3038  -20.0962   -8.9630 C   0  0  0  0  0  0  0  0  0  0  0  0
   21.5482  -19.5396   -9.9701 C   0  0  0  0  0  0  0  0  0  0  0  0
   22.0298  -19.6502  -11.2576 C   0  0  0  0  0  0  0  0  0  0  0  0
   21.5951  -21.5028  -13.6409 C   0  0  0  0  0  0  0  0  0  0  0  0
   20.8880  -21.7941  -12.6481 O   0  0  0  0  0  0  0  0  0  0  0  0
   20.8588  -21.1406  -14.7898 O   0  0  0  0  0  0  0  0  0  0  0  0
  2  1  1  6
  2  3  1  0
  4 12  1  0
  4  3  1  0
  5  4  2  0
  6  5  1  0
  6  7  1  0
  7 12  2  0
  8  7  1  0
  8  9  2  0
  9 10  1  0
 10 11  2  0
 12 11  1  0
 13  2  1  0
 13 21  1  0
 14 13  2  0
 16 15  1  0
 17 16  2  0
 18 16  1  0
 19 18  1  0
 20 21  1  0
 20 19  1  1
 22 20  1  0
 23 22  2  0
 24 22  1  0
 25 24  1  0
 25 33  1  0
 25 26  1  6
 27 26  1  0
 28 27  2  0
 29 28  1  0
 30 29  2  0
 30 31  1  0
 31 32  2  0
 32 27  1  0
 33 35  1  0
 34 33  2  0
M  END
$$$$
