NFE.pdb
     RDKit          3D

 29 29  0  0  1  0  0  0  0  0999 V2000
   26.5850  -20.2886  -16.3056 N   0  0  0  0  0  0  0  0  0  0  0  0
   27.2937  -19.7872  -15.1951 C   0  0  0  0  0  0  0  0  0  0  0  0
   28.3322  -19.1098  -15.3948 O   0  0  0  0  0  0  0  0  0  0  0  0
   26.8154  -20.0595  -13.8195 C   0  0  0  0  0  0  0  0  0  0  0  0
   27.5774  -21.2196  -13.2570 C   0  0  2  0  0  0  0  0  0  0  0  0
   27.2840  -22.4619  -13.9264 N   0  0  0  0  0  0  0  0  0  0  0  0
   27.3178  -21.2858  -11.8026 C   0  0  0  0  0  0  0  0  0  0  0  0
   26.3773  -22.0045  -11.3847 O   0  0  0  0  0  0  0  0  0  0  0  0
   28.0742  -20.5786  -10.8268 N   0  0  0  0  0  0  0  0  0  0  0  0
   27.7184  -20.6760   -9.4198 C   0  0  1  0  0  0  0  0  0  0  0  0
   28.7561  -19.9943   -8.5491 C   0  0  0  0  0  0  0  0  0  0  0  0
   28.3101  -20.0670   -7.1333 C   0  0  0  0  0  0  0  0  0  0  0  0
   28.6300  -21.1541   -6.3290 C   0  0  0  0  0  0  0  0  0  0  0  0
   28.2268  -21.2342   -5.0143 C   0  0  0  0  0  0  0  0  0  0  0  0
   27.4787  -20.2221   -4.4389 C   0  0  0  0  0  0  0  0  0  0  0  0
   27.1604  -19.1429   -5.2348 C   0  0  0  0  0  0  0  0  0  0  0  0
   27.5666  -19.0594   -6.5636 C   0  0  0  0  0  0  0  0  0  0  0  0
   26.3680  -20.1137   -9.2035 C   0  0  0  0  0  0  0  0  0  0  0  0
   26.1268  -18.9153   -9.5690 O   0  0  0  0  0  0  0  0  0  0  0  0
   25.3070  -20.8324   -8.6067 N   0  0  0  0  0  0  0  0  0  0  0  0
   23.9033  -20.4020   -8.6381 C   0  0  1  0  0  0  0  0  0  0  0  0
   23.4342  -20.2697  -10.0353 C   0  0  0  0  0  0  0  0  0  0  0  0
   22.0259  -19.9249  -10.2860 C   0  0  0  0  0  0  0  0  0  0  0  0
   21.5986  -19.8556  -11.6919 C   0  0  0  0  0  0  0  0  0  0  0  0
   22.4074  -19.9668  -12.6437 O   0  0  0  0  0  0  0  0  0  0  0  0
   23.0311  -21.0614   -7.7196 C   0  0  0  0  0  0  0  0  0  0  0  0
   21.6837  -20.7827   -7.5592 O   0  0  0  0  0  0  0  0  0  0  0  0
   20.2602  -19.6611  -12.0060 O   0  0  0  0  0  0  0  0  0  0  0  0
   23.4925  -21.9797   -6.9622 O   0  0  0  0  0  0  0  0  0  0  0  0
  2  3  2  0
  2  1  1  0
  4  2  1  0
  5  6  1  6
  5  4  1  0
  7  5  1  0
  8  7  2  0
  9  7  1  0
 10 18  1  0
 10  9  1  0
 10 11  1  1
 12 11  1  0
 12 13  2  0
 14 13  1  0
 15 14  2  0
 16 17  2  0
 16 15  1  0
 17 12  1  0
 18 19  2  0
 20 21  1  0
 20 18  1  0
 21 22  1  6
 23 22  1  0
 24 23  1  0
 25 24  2  0
 26 27  1  0
 26 21  1  0
 28 24  1  0
 29 26  2  0
M  END
$$$$
