NFE.pdb
     RDKit          3D

 29 29  0  0  1  0  0  0  0  0999 V2000
   24.2107  -12.5241  -21.6139 N   0  0  0  0  0  0  0  0  0  0  0  0
   22.8416  -12.2279  -21.7706 C   0  0  0  0  0  0  0  0  0  0  0  0
   22.2539  -12.6122  -22.8119 O   0  0  0  0  0  0  0  0  0  0  0  0
   22.1158  -11.4752  -20.7209 C   0  0  0  0  0  0  0  0  0  0  0  0
   22.3736  -12.1161  -19.3921 C   0  0  2  0  0  0  0  0  0  0  0  0
   21.6943  -13.3777  -19.2359 N   0  0  0  0  0  0  0  0  0  0  0  0
   22.0192  -11.1479  -18.3319 C   0  0  0  0  0  0  0  0  0  0  0  0
   20.8097  -10.9787  -18.0422 O   0  0  0  0  0  0  0  0  0  0  0  0
   22.9718  -10.3815  -17.6041 N   0  0  0  0  0  0  0  0  0  0  0  0
   22.5302   -9.4880  -16.5447 C   0  0  1  0  0  0  0  0  0  0  0  0
   23.6588   -9.1967  -15.5747 C   0  0  0  0  0  0  0  0  0  0  0  0
   23.1409   -8.3186  -14.4932 C   0  0  0  0  0  0  0  0  0  0  0  0
   23.2521   -6.9356  -14.5688 C   0  0  0  0  0  0  0  0  0  0  0  0
   22.7741   -6.1087  -13.5763 C   0  0  0  0  0  0  0  0  0  0  0  0
   22.1578   -6.6317  -12.4530 C   0  0  0  0  0  0  0  0  0  0  0  0
   22.0462   -8.0032  -12.3761 C   0  0  0  0  0  0  0  0  0  0  0  0
   22.5284   -8.8411  -13.3776 C   0  0  0  0  0  0  0  0  0  0  0  0
   21.9791   -8.2476  -17.1315 C   0  0  0  0  0  0  0  0  0  0  0  0
   22.6052   -7.6794  -18.0872 O   0  0  0  0  0  0  0  0  0  0  0  0
   20.7805   -7.6396  -16.6936 N   0  0  0  0  0  0  0  0  0  0  0  0
   20.2152   -6.4193  -17.2835 C   0  0  1  0  0  0  0  0  0  0  0  0
   19.2219   -6.7610  -18.3258 C   0  0  0  0  0  0  0  0  0  0  0  0
   18.5353   -5.6741  -19.0416 C   0  0  0  0  0  0  0  0  0  0  0  0
   17.5599   -6.0676  -20.0700 C   0  0  0  0  0  0  0  0  0  0  0  0
   17.4117   -5.4212  -21.1343 O   0  0  0  0  0  0  0  0  0  0  0  0
   19.8594   -5.3903  -16.3595 C   0  0  0  0  0  0  0  0  0  0  0  0
   20.0164   -4.0316  -16.5796 O   0  0  0  0  0  0  0  0  0  0  0  0
   16.7622   -7.1885  -19.8832 O   0  0  0  0  0  0  0  0  0  0  0  0
   19.3628   -5.7060  -15.2266 O   0  0  0  0  0  0  0  0  0  0  0  0
  2  3  2  0
  2  1  1  0
  4  2  1  0
  5  6  1  1
  5  4  1  0
  7  5  1  0
  8  7  2  0
  9  7  1  0
 10 18  1  0
 10  9  1  0
 10 11  1  1
 12 11  1  0
 12 13  2  0
 14 13  1  0
 15 14  2  0
 16 17  2  0
 16 15  1  0
 17 12  1  0
 18 19  2  0
 20 21  1  0
 20 18  1  0
 21 22  1  1
 23 22  1  0
 24 23  1  0
 25 24  2  0
 26 27  1  0
 26 21  1  0
 28 24  1  0
 29 26  2  0
M  END
$$$$
