NFE.pdb
     RDKit          3D

 29 29  0  0  1  0  0  0  0  0999 V2000
   28.7215  -25.1734  -18.6405 N   0  0  0  0  0  0  0  0  0  0  0  0
   27.4803  -24.5092  -18.5681 C   0  0  0  0  0  0  0  0  0  0  0  0
   26.9565  -24.0867  -19.6285 O   0  0  0  0  0  0  0  0  0  0  0  0
   26.8122  -24.3163  -17.2598 C   0  0  0  0  0  0  0  0  0  0  0  0
   26.4774  -22.8665  -17.0901 C   0  0  2  0  0  0  0  0  0  0  0  0
   27.6095  -22.0001  -17.3024 N   0  0  0  0  0  0  0  0  0  0  0  0
   25.8673  -22.6830  -15.7555 C   0  0  0  0  0  0  0  0  0  0  0  0
   25.1563  -23.6017  -15.2801 O   0  0  0  0  0  0  0  0  0  0  0  0
   26.0337  -21.5160  -14.9587 N   0  0  0  0  0  0  0  0  0  0  0  0
   25.3538  -21.4068  -13.6775 C   0  0  1  0  0  0  0  0  0  0  0  0
   26.1084  -20.4848  -12.7393 C   0  0  0  0  0  0  0  0  0  0  0  0
   25.4472  -20.5163  -11.4087 C   0  0  0  0  0  0  0  0  0  0  0  0
   24.2976  -19.7782  -11.1546 C   0  0  0  0  0  0  0  0  0  0  0  0
   23.6716  -19.7997   -9.9278 C   0  0  0  0  0  0  0  0  0  0  0  0
   24.1711  -20.5668   -8.8900 C   0  0  0  0  0  0  0  0  0  0  0  0
   25.3112  -21.2998   -9.1399 C   0  0  0  0  0  0  0  0  0  0  0  0
   25.9457  -21.2799  -10.3787 C   0  0  0  0  0  0  0  0  0  0  0  0
   23.9611  -20.9554  -13.8854 C   0  0  0  0  0  0  0  0  0  0  0  0
   23.7437  -19.9050  -14.5765 O   0  0  0  0  0  0  0  0  0  0  0  0
   22.8338  -21.6256  -13.3578 N   0  0  0  0  0  0  0  0  0  0  0  0
   21.4575  -21.1234  -13.4595 C   0  0  1  0  0  0  0  0  0  0  0  0
   20.8002  -21.6588  -14.6725 C   0  0  0  0  0  0  0  0  0  0  0  0
   20.6572  -20.7885  -15.8502 C   0  0  0  0  0  0  0  0  0  0  0  0
   19.9833  -21.3641  -17.0243 C   0  0  0  0  0  0  0  0  0  0  0  0
   19.4960  -22.5195  -17.0169 O   0  0  0  0  0  0  0  0  0  0  0  0
   20.6998  -21.1394  -12.2493 C   0  0  0  0  0  0  0  0  0  0  0  0
   19.3647  -20.7867  -12.1396 O   0  0  0  0  0  0  0  0  0  0  0  0
   19.8682  -20.6261  -18.1947 O   0  0  0  0  0  0  0  0  0  0  0  0
   21.2627  -21.4916  -11.1589 O   0  0  0  0  0  0  0  0  0  0  0  0
  2  3  2  0
  2  1  1  0
  4  2  1  0
  5  6  1  1
  5  4  1  0
  7  5  1  0
  8  7  2  0
  9  7  1  0
 10 18  1  0
 10  9  1  0
 10 11  1  1
 12 11  1  0
 12 13  2  0
 14 13  1  0
 15 14  2  0
 16 17  2  0
 16 15  1  0
 17 12  1  0
 18 19  2  0
 20 21  1  0
 20 18  1  0
 21 22  1  6
 23 22  1  0
 24 23  1  0
 25 24  2  0
 26 27  1  0
 26 21  1  0
 28 24  1  0
 29 26  2  0
M  END
$$$$
