NFE.pdb
     RDKit          3D

 29 29  0  0  1  0  0  0  0  0999 V2000
   18.3706  -10.8448  -14.3062 N   0  0  0  0  0  0  0  0  0  0  0  0
   17.0589  -11.0831  -13.8484 C   0  0  0  0  0  0  0  0  0  0  0  0
   16.6920  -12.2679  -13.6513 O   0  0  0  0  0  0  0  0  0  0  0  0
   16.1353   -9.9500  -13.6070 C   0  0  0  0  0  0  0  0  0  0  0  0
   15.4952  -10.1180  -12.2635 C   0  0  2  0  0  0  0  0  0  0  0  0
   14.2903  -10.9075  -12.3102 N   0  0  0  0  0  0  0  0  0  0  0  0
   15.2699   -8.7761  -11.6843 C   0  0  0  0  0  0  0  0  0  0  0  0
   14.2468   -8.1318  -12.0218 O   0  0  0  0  0  0  0  0  0  0  0  0
   16.1483   -8.1537  -10.7540 N   0  0  0  0  0  0  0  0  0  0  0  0
   15.7725   -6.8955  -10.1282 C   0  0  1  0  0  0  0  0  0  0  0  0
   15.8630   -6.9923   -8.6176 C   0  0  0  0  0  0  0  0  0  0  0  0
   14.5435   -7.4268   -8.0895 C   0  0  0  0  0  0  0  0  0  0  0  0
   13.6141   -6.5070   -7.6193 C   0  0  0  0  0  0  0  0  0  0  0  0
   12.3860   -6.8941   -7.1301 C   0  0  0  0  0  0  0  0  0  0  0  0
   12.0282   -8.2302   -7.0883 C   0  0  0  0  0  0  0  0  0  0  0  0
   12.9484   -9.1442   -7.5544 C   0  0  0  0  0  0  0  0  0  0  0  0
   14.1901   -8.7558   -8.0493 C   0  0  0  0  0  0  0  0  0  0  0  0
   16.6136   -5.8007  -10.6577 C   0  0  0  0  0  0  0  0  0  0  0  0
   17.8703   -5.9846  -10.7803 O   0  0  0  0  0  0  0  0  0  0  0  0
   16.1052   -4.5397  -11.0445 N   0  0  0  0  0  0  0  0  0  0  0  0
   16.8009   -3.6159  -11.9496 C   0  0  1  0  0  0  0  0  0  0  0  0
   17.3259   -4.3429  -13.1268 C   0  0  0  0  0  0  0  0  0  0  0  0
   18.0708   -3.5965  -14.1530 C   0  0  0  0  0  0  0  0  0  0  0  0
   18.5486   -4.3611  -15.3154 C   0  0  0  0  0  0  0  0  0  0  0  0
   17.8781   -4.4651  -16.3699 O   0  0  0  0  0  0  0  0  0  0  0  0
   16.1422   -2.3728  -12.1945 C   0  0  0  0  0  0  0  0  0  0  0  0
   16.7537   -1.2281  -12.6790 O   0  0  0  0  0  0  0  0  0  0  0  0
   19.7805   -5.0002  -15.2721 O   0  0  0  0  0  0  0  0  0  0  0  0
   14.8935   -2.2637  -11.9521 O   0  0  0  0  0  0  0  0  0  0  0  0
  2  3  2  0
  2  1  1  0
  4  2  1  0
  5  6  1  6
  5  4  1  0
  7  5  1  0
  8  7  2  0
  9  7  1  0
 10 18  1  0
 10  9  1  0
 10 11  1  1
 12 11  1  0
 12 13  2  0
 14 13  1  0
 15 14  2  0
 16 17  2  0
 16 15  1  0
 17 12  1  0
 18 19  2  0
 20 21  1  0
 20 18  1  0
 21 22  1  6
 23 22  1  0
 24 23  1  0
 25 24  2  0
 26 27  1  0
 26 21  1  0
 28 24  1  0
 29 26  2  0
M  END
$$$$
