NFE.pdb
     RDKit          3D

 29 29  0  0  1  0  0  0  0  0999 V2000
   27.4800  -19.2354  -19.6599 N   0  0  0  0  0  0  0  0  0  0  0  0
   26.4724  -19.9955  -19.0323 C   0  0  0  0  0  0  0  0  0  0  0  0
   25.7342  -20.7247  -19.7399 O   0  0  0  0  0  0  0  0  0  0  0  0
   26.2934  -19.9293  -17.5630 C   0  0  0  0  0  0  0  0  0  0  0  0
   27.3621  -20.7444  -16.9025 C   0  0  2  0  0  0  0  0  0  0  0  0
   27.6666  -21.9575  -17.6188 N   0  0  0  0  0  0  0  0  0  0  0  0
   26.9546  -21.0005  -15.5041 C   0  0  0  0  0  0  0  0  0  0  0  0
   26.0620  -21.8533  -15.2771 O   0  0  0  0  0  0  0  0  0  0  0  0
   27.5149  -20.3353  -14.3780 N   0  0  0  0  0  0  0  0  0  0  0  0
   27.0118  -20.6164  -13.0425 C   0  0  1  0  0  0  0  0  0  0  0  0
   27.8575  -19.9291  -11.9881 C   0  0  0  0  0  0  0  0  0  0  0  0
   27.2646  -20.2002  -10.6525 C   0  0  0  0  0  0  0  0  0  0  0  0
   26.3547  -19.3240  -10.0736 C   0  0  0  0  0  0  0  0  0  0  0  0
   25.7942  -19.5632   -8.8384 C   0  0  0  0  0  0  0  0  0  0  0  0
   26.1210  -20.6995   -8.1192 C   0  0  0  0  0  0  0  0  0  0  0  0
   27.0232  -21.5700   -8.6916 C   0  0  0  0  0  0  0  0  0  0  0  0
   27.5910  -21.3307   -9.9397 C   0  0  0  0  0  0  0  0  0  0  0  0
   25.5904  -20.2200  -12.9478 C   0  0  0  0  0  0  0  0  0  0  0  0
   25.2268  -19.0899  -13.4155 O   0  0  0  0  0  0  0  0  0  0  0  0
   24.5895  -21.0281  -12.3617 N   0  0  0  0  0  0  0  0  0  0  0  0
   23.1814  -20.6304  -12.2366 C   0  0  1  0  0  0  0  0  0  0  0  0
   22.4086  -21.0880  -13.4127 C   0  0  0  0  0  0  0  0  0  0  0  0
   20.9695  -20.7893  -13.4816 C   0  0  0  0  0  0  0  0  0  0  0  0
   20.2461  -21.2734  -14.6675 C   0  0  0  0  0  0  0  0  0  0  0  0
   20.2707  -20.6625  -15.7624 O   0  0  0  0  0  0  0  0  0  0  0  0
   22.5908  -20.8329  -10.9523 C   0  0  0  0  0  0  0  0  0  0  0  0
   21.4095  -20.2544  -10.5177 O   0  0  0  0  0  0  0  0  0  0  0  0
   19.5021  -22.4438  -14.6019 O   0  0  0  0  0  0  0  0  0  0  0  0
   23.1705  -21.5925  -10.1057 O   0  0  0  0  0  0  0  0  0  0  0  0
  2  3  2  0
  2  1  1  0
  4  2  1  0
  5  6  1  6
  5  4  1  0
  7  5  1  0
  8  7  2  0
  9  7  1  0
 10 18  1  0
 10  9  1  0
 10 11  1  1
 12 11  1  0
 12 13  2  0
 14 13  1  0
 15 14  2  0
 16 17  2  0
 16 15  1  0
 17 12  1  0
 18 19  2  0
 20 21  1  0
 20 18  1  0
 21 22  1  6
 23 22  1  0
 24 23  1  0
 25 24  2  0
 26 27  1  0
 26 21  1  0
 28 24  1  0
 29 26  2  0
M  END
$$$$
