NFE.pdb
     RDKit          3D

 29 29  0  0  1  0  0  0  0  0999 V2000
   25.9010  -19.3488  -20.2193 N   0  0  0  0  0  0  0  0  0  0  0  0
   26.5462  -19.2382  -18.9709 C   0  0  0  0  0  0  0  0  0  0  0  0
   27.6431  -18.6299  -18.9077 O   0  0  0  0  0  0  0  0  0  0  0  0
   25.9346  -19.8325  -17.7594 C   0  0  0  0  0  0  0  0  0  0  0  0
   26.9042  -20.7924  -17.1421 C   0  0  2  0  0  0  0  0  0  0  0  0
   27.0770  -21.9939  -17.9194 N   0  0  0  0  0  0  0  0  0  0  0  0
   26.4647  -21.0726  -15.7582 C   0  0  0  0  0  0  0  0  0  0  0  0
   25.5945  -21.9560  -15.5633 O   0  0  0  0  0  0  0  0  0  0  0  0
   26.9693  -20.3980  -14.6116 N   0  0  0  0  0  0  0  0  0  0  0  0
   26.4079  -20.6751  -13.2987 C   0  0  1  0  0  0  0  0  0  0  0  0
   27.2281  -20.0151  -12.2072 C   0  0  0  0  0  0  0  0  0  0  0  0
   26.5571  -20.2485  -10.9018 C   0  0  0  0  0  0  0  0  0  0  0  0
   25.9325  -19.2149  -10.2145 C   0  0  0  0  0  0  0  0  0  0  0  0
   25.3038  -19.4164   -9.0056 C   0  0  0  0  0  0  0  0  0  0  0  0
   25.2708  -20.6715   -8.4237 C   0  0  0  0  0  0  0  0  0  0  0  0
   25.8896  -21.6982   -9.1038 C   0  0  0  0  0  0  0  0  0  0  0  0
   26.5257  -21.4973  -10.3256 C   0  0  0  0  0  0  0  0  0  0  0  0
   24.9939  -20.2448  -13.2565 C   0  0  0  0  0  0  0  0  0  0  0  0
   24.6805  -19.0913  -13.7031 O   0  0  0  0  0  0  0  0  0  0  0  0
   23.9470  -21.0445  -12.7437 N   0  0  0  0  0  0  0  0  0  0  0  0
   22.5594  -20.5865  -12.5977 C   0  0  1  0  0  0  0  0  0  0  0  0
   21.7762  -20.9151  -13.8095 C   0  0  0  0  0  0  0  0  0  0  0  0
   21.8725  -20.0326  -14.9829 C   0  0  0  0  0  0  0  0  0  0  0  0
   20.9952  -20.3432  -16.1221 C   0  0  0  0  0  0  0  0  0  0  0  0
   20.2246  -21.3325  -16.1234 O   0  0  0  0  0  0  0  0  0  0  0  0
   21.9468  -20.8543  -11.3358 C   0  0  0  0  0  0  0  0  0  0  0  0
   20.7330  -20.3377  -10.9130 O   0  0  0  0  0  0  0  0  0  0  0  0
   20.9992  -19.5310  -17.2481 O   0  0  0  0  0  0  0  0  0  0  0  0
   22.5363  -21.6177  -10.4994 O   0  0  0  0  0  0  0  0  0  0  0  0
  2  3  2  0
  2  1  1  0
  4  2  1  0
  5  6  1  6
  5  4  1  0
  7  5  1  0
  8  7  2  0
  9  7  1  0
 10 18  1  0
 10  9  1  0
 10 11  1  1
 12 11  1  0
 12 13  2  0
 14 13  1  0
 15 14  2  0
 16 17  2  0
 16 15  1  0
 17 12  1  0
 18 19  2  0
 20 21  1  0
 20 18  1  0
 21 22  1  6
 23 22  1  0
 24 23  1  0
 25 24  2  0
 26 27  1  0
 26 21  1  0
 28 24  1  0
 29 26  2  0
M  END
$$$$
