NFE.pdb
     RDKit          3D

 29 29  0  0  1  0  0  0  0  0999 V2000
   24.8246  -27.1091  -15.4123 N   0  0  0  0  0  0  0  0  0  0  0  0
   24.0630  -26.0595  -15.9647 C   0  0  0  0  0  0  0  0  0  0  0  0
   23.7812  -26.0941  -17.1880 O   0  0  0  0  0  0  0  0  0  0  0  0
   23.6072  -24.9382  -15.1101 C   0  0  0  0  0  0  0  0  0  0  0  0
   24.1330  -23.6520  -15.6686 C   0  0  2  0  0  0  0  0  0  0  0  0
   25.5712  -23.5669  -15.6243 N   0  0  0  0  0  0  0  0  0  0  0  0
   23.4782  -22.5333  -14.9567 C   0  0  0  0  0  0  0  0  0  0  0  0
   22.4136  -22.7520  -14.3285 O   0  0  0  0  0  0  0  0  0  0  0  0
   23.9806  -21.2024  -14.9340 N   0  0  0  0  0  0  0  0  0  0  0  0
   23.2442  -20.1585  -14.2385 C   0  0  1  0  0  0  0  0  0  0  0  0
   24.1804  -19.2772  -13.4346 C   0  0  0  0  0  0  0  0  0  0  0  0
   24.5778  -20.0061  -12.2020 C   0  0  0  0  0  0  0  0  0  0  0  0
   25.7777  -20.7031  -12.1288 C   0  0  0  0  0  0  0  0  0  0  0  0
   26.1611  -21.3806  -10.9924 C   0  0  0  0  0  0  0  0  0  0  0  0
   25.3551  -21.3921   -9.8676 C   0  0  0  0  0  0  0  0  0  0  0  0
   24.1646  -20.7013   -9.9379 C   0  0  0  0  0  0  0  0  0  0  0  0
   23.7747  -20.0159  -11.0850 C   0  0  0  0  0  0  0  0  0  0  0  0
   22.4508  -19.3730  -15.2080 C   0  0  0  0  0  0  0  0  0  0  0  0
   23.0505  -18.7672  -16.1574 O   0  0  0  0  0  0  0  0  0  0  0  0
   21.0439  -19.2478  -15.1495 N   0  0  0  0  0  0  0  0  0  0  0  0
   20.2283  -18.6425  -16.2101 C   0  0  1  0  0  0  0  0  0  0  0  0
   20.3870  -19.3922  -17.4760 C   0  0  0  0  0  0  0  0  0  0  0  0
   21.0257  -18.7286  -18.6236 C   0  0  0  0  0  0  0  0  0  0  0  0
   20.9413  -19.4170  -19.9209 C   0  0  0  0  0  0  0  0  0  0  0  0
   21.4913  -18.9674  -20.9543 O   0  0  0  0  0  0  0  0  0  0  0  0
   18.9008  -18.2713  -15.8370 C   0  0  0  0  0  0  0  0  0  0  0  0
   18.0506  -17.4823  -16.5944 O   0  0  0  0  0  0  0  0  0  0  0  0
   20.2352  -20.6070  -20.0352 O   0  0  0  0  0  0  0  0  0  0  0  0
   18.4259  -18.6702  -14.7211 O   0  0  0  0  0  0  0  0  0  0  0  0
  2  3  2  0
  2  1  1  0
  4  2  1  0
  5  6  1  1
  5  4  1  0
  7  5  1  0
  8  7  2  0
  9  7  1  0
 10 18  1  0
 10  9  1  0
 10 11  1  6
 12 11  1  0
 12 13  2  0
 14 13  1  0
 15 14  2  0
 16 17  2  0
 16 15  1  0
 17 12  1  0
 18 19  2  0
 20 21  1  0
 20 18  1  0
 21 22  1  6
 23 22  1  0
 24 23  1  0
 25 24  2  0
 26 27  1  0
 26 21  1  0
 28 24  1  0
 29 26  2  0
M  END
$$$$
