NFE.pdb
     RDKit          3D

 29 29  0  0  1  0  0  0  0  0999 V2000
   18.9185  -25.4390  -11.4986 N   0  0  0  0  0  0  0  0  0  0  0  0
   18.6010  -24.5797  -12.5699 C   0  0  0  0  0  0  0  0  0  0  0  0
   17.8016  -24.9806  -13.4516 O   0  0  0  0  0  0  0  0  0  0  0  0
   19.2048  -23.2289  -12.6473 C   0  0  0  0  0  0  0  0  0  0  0  0
   20.0848  -23.0169  -11.4543 C   0  0  2  0  0  0  0  0  0  0  0  0
   19.3493  -22.6384  -10.2740 N   0  0  0  0  0  0  0  0  0  0  0  0
   21.1253  -22.0292  -11.8132 C   0  0  0  0  0  0  0  0  0  0  0  0
   20.7742  -20.8779  -12.1693 O   0  0  0  0  0  0  0  0  0  0  0  0
   22.5221  -22.2984  -11.7817 N   0  0  0  0  0  0  0  0  0  0  0  0
   23.4667  -21.2974  -12.2520 C   0  0  1  0  0  0  0  0  0  0  0  0
   24.8795  -21.6385  -11.8192 C   0  0  0  0  0  0  0  0  0  0  0  0
   25.8137  -20.6581  -12.4315 C   0  0  0  0  0  0  0  0  0  0  0  0
   26.3632  -20.8711  -13.6899 C   0  0  0  0  0  0  0  0  0  0  0  0
   27.2276  -19.9703  -14.2718 C   0  0  0  0  0  0  0  0  0  0  0  0
   27.5853  -18.8054  -13.6161 C   0  0  0  0  0  0  0  0  0  0  0  0
   27.0414  -18.5920  -12.3678 C   0  0  0  0  0  0  0  0  0  0  0  0
   26.1676  -19.5006  -11.7775 C   0  0  0  0  0  0  0  0  0  0  0  0
   23.3626  -21.1598  -13.7206 C   0  0  0  0  0  0  0  0  0  0  0  0
   23.4264  -22.2049  -14.4499 O   0  0  0  0  0  0  0  0  0  0  0  0
   23.1933  -19.9214  -14.3809 N   0  0  0  0  0  0  0  0  0  0  0  0
   23.1218  -19.7715  -15.8400 C   0  0  1  0  0  0  0  0  0  0  0  0
   21.7443  -20.0234  -16.3187 C   0  0  0  0  0  0  0  0  0  0  0  0
   21.0706  -18.9957  -17.1280 C   0  0  0  0  0  0  0  0  0  0  0  0
   20.2447  -19.4686  -18.2497 C   0  0  0  0  0  0  0  0  0  0  0  0
   19.6024  -20.5445  -18.2011 O   0  0  0  0  0  0  0  0  0  0  0  0
   23.8007  -18.6379  -16.3817 C   0  0  0  0  0  0  0  0  0  0  0  0
   24.1700  -18.4884  -17.7084 O   0  0  0  0  0  0  0  0  0  0  0  0
   20.1543  -18.7189  -19.4148 O   0  0  0  0  0  0  0  0  0  0  0  0
   24.1181  -17.6684  -15.6141 O   0  0  0  0  0  0  0  0  0  0  0  0
  2  3  2  0
  2  1  1  0
  4  2  1  0
  5  6  1  1
  5  4  1  0
  7  5  1  0
  8  7  2  0
  9  7  1  0
 10 18  1  0
 10  9  1  0
 10 11  1  6
 12 11  1  0
 12 13  2  0
 14 13  1  0
 15 14  2  0
 16 17  2  0
 16 15  1  0
 17 12  1  0
 18 19  2  0
 20 21  1  0
 20 18  1  0
 21 22  1  1
 23 22  1  0
 24 23  1  0
 25 24  2  0
 26 27  1  0
 26 21  1  0
 28 24  1  0
 29 26  2  0
M  END
$$$$
