NFE.pdb
     RDKit          3D

 29 29  0  0  1  0  0  0  0  0999 V2000
   23.7677  -24.6959  -13.2124 N   0  0  0  0  0  0  0  0  0  0  0  0
   22.7551  -23.7799  -12.8624 C   0  0  0  0  0  0  0  0  0  0  0  0
   21.6182  -24.2198  -12.5602 O   0  0  0  0  0  0  0  0  0  0  0  0
   23.0351  -22.3250  -12.8543 C   0  0  0  0  0  0  0  0  0  0  0  0
   24.4730  -22.1012  -13.2080 C   0  0  2  0  0  0  0  0  0  0  0  0
   25.3759  -22.4647  -12.1449 N   0  0  0  0  0  0  0  0  0  0  0  0
   24.6346  -20.6932  -13.6305 C   0  0  0  0  0  0  0  0  0  0  0  0
   23.7148  -19.8751  -13.3853 O   0  0  0  0  0  0  0  0  0  0  0  0
   25.7815  -20.1929  -14.3078 N   0  0  0  0  0  0  0  0  0  0  0  0
   25.8486  -18.7900  -14.6861 C   0  0  1  0  0  0  0  0  0  0  0  0
   27.2871  -18.3160  -14.7605 C   0  0  0  0  0  0  0  0  0  0  0  0
   27.3067  -16.9456  -15.3353 C   0  0  0  0  0  0  0  0  0  0  0  0
   26.8447  -15.8518  -14.6135 C   0  0  0  0  0  0  0  0  0  0  0  0
   26.8595  -14.5755  -15.1313 C   0  0  0  0  0  0  0  0  0  0  0  0
   27.3410  -14.3327  -16.4057 C   0  0  0  0  0  0  0  0  0  0  0  0
   27.7999  -15.4161  -17.1234 C   0  0  0  0  0  0  0  0  0  0  0  0
   27.7860  -16.7069  -16.6025 C   0  0  0  0  0  0  0  0  0  0  0  0
   25.1366  -18.5804  -15.9650 C   0  0  0  0  0  0  0  0  0  0  0  0
   25.2591  -19.4457  -16.8948 O   0  0  0  0  0  0  0  0  0  0  0  0
   24.3130  -17.4621  -16.2286 N   0  0  0  0  0  0  0  0  0  0  0  0
   23.6111  -17.2401  -17.4993 C   0  0  1  0  0  0  0  0  0  0  0  0
   22.1761  -17.5745  -17.3625 C   0  0  0  0  0  0  0  0  0  0  0  0
   21.4223  -17.0323  -16.2210 C   0  0  0  0  0  0  0  0  0  0  0  0
   20.0109  -17.4307  -16.1069 C   0  0  0  0  0  0  0  0  0  0  0  0
   19.6672  -18.5922  -15.7827 O   0  0  0  0  0  0  0  0  0  0  0  0
   23.9336  -16.0287  -18.1832 C   0  0  0  0  0  0  0  0  0  0  0  0
   24.9997  -15.8629  -19.0520 O   0  0  0  0  0  0  0  0  0  0  0  0
   19.0029  -16.5103  -16.3611 O   0  0  0  0  0  0  0  0  0  0  0  0
   23.2125  -14.9913  -17.9997 O   0  0  0  0  0  0  0  0  0  0  0  0
  2  3  2  0
  2  1  1  0
  4  2  1  0
  5  6  1  1
  5  4  1  0
  7  5  1  0
  8  7  2  0
  9  7  1  0
 10 18  1  0
 10  9  1  0
 10 11  1  6
 12 11  1  0
 12 13  2  0
 14 13  1  0
 15 14  2  0
 16 17  2  0
 16 15  1  0
 17 12  1  0
 18 19  2  0
 20 21  1  0
 20 18  1  0
 21 22  1  1
 23 22  1  0
 24 23  1  0
 25 24  2  0
 26 27  1  0
 26 21  1  0
 28 24  1  0
 29 26  2  0
M  END
$$$$
