NFE.pdb
     RDKit          3D

 29 29  0  0  1  0  0  0  0  0999 V2000
   29.3900  -18.1615  -15.1141 N   0  0  0  0  0  0  0  0  0  0  0  0
   28.0498  -18.1640  -15.5508 C   0  0  0  0  0  0  0  0  0  0  0  0
   27.7249  -17.4254  -16.5131 O   0  0  0  0  0  0  0  0  0  0  0  0
   27.0479  -19.0254  -14.8803 C   0  0  0  0  0  0  0  0  0  0  0  0
   27.7247  -19.8170  -13.8042 C   0  0  2  0  0  0  0  0  0  0  0  0
   28.7152  -20.7299  -14.3172 N   0  0  0  0  0  0  0  0  0  0  0  0
   26.6847  -20.5012  -13.0058 C   0  0  0  0  0  0  0  0  0  0  0  0
   26.3492  -21.6699  -13.3175 O   0  0  0  0  0  0  0  0  0  0  0  0
   26.0266  -19.9157  -11.8884 N   0  0  0  0  0  0  0  0  0  0  0  0
   24.9470  -20.6291  -11.2242 C   0  0  1  0  0  0  0  0  0  0  0  0
   24.7641  -20.1351   -9.8022 C   0  0  0  0  0  0  0  0  0  0  0  0
   26.0512  -20.2914   -9.0758 C   0  0  0  0  0  0  0  0  0  0  0  0
   26.7128  -21.5126   -9.0307 C   0  0  0  0  0  0  0  0  0  0  0  0
   27.9077  -21.6722   -8.3645 C   0  0  0  0  0  0  0  0  0  0  0  0
   28.5009  -20.6087   -7.7071 C   0  0  0  0  0  0  0  0  0  0  0  0
   27.8465  -19.3965   -7.7506 C   0  0  0  0  0  0  0  0  0  0  0  0
   26.6389  -19.2325   -8.4231 C   0  0  0  0  0  0  0  0  0  0  0  0
   23.7021  -20.5019  -12.0119 C   0  0  0  0  0  0  0  0  0  0  0  0
   23.4493  -19.3997  -12.6030 O   0  0  0  0  0  0  0  0  0  0  0  0
   22.7564  -21.5427  -12.1552 N   0  0  0  0  0  0  0  0  0  0  0  0
   21.5402  -21.4410  -12.9720 C   0  0  1  0  0  0  0  0  0  0  0  0
   21.3588  -22.6648  -13.7840 C   0  0  0  0  0  0  0  0  0  0  0  0
   20.1966  -22.7605  -14.6813 C   0  0  0  0  0  0  0  0  0  0  0  0
   20.0500  -24.0070  -15.4485 C   0  0  0  0  0  0  0  0  0  0  0  0
   20.8655  -24.9544  -15.3487 O   0  0  0  0  0  0  0  0  0  0  0  0
   20.3865  -20.9261  -12.3063 C   0  0  0  0  0  0  0  0  0  0  0  0
   19.3650  -20.2158  -12.9153 O   0  0  0  0  0  0  0  0  0  0  0  0
   18.9820  -24.1683  -16.3210 O   0  0  0  0  0  0  0  0  0  0  0  0
   20.2528  -21.1054  -11.0494 O   0  0  0  0  0  0  0  0  0  0  0  0
  2  3  2  0
  2  1  1  0
  4  2  1  0
  5  6  1  6
  5  4  1  0
  7  5  1  0
  8  7  2  0
  9  7  1  0
 10 18  1  0
 10  9  1  0
 10 11  1  1
 12 11  1  0
 12 13  2  0
 14 13  1  0
 15 14  2  0
 16 17  2  0
 16 15  1  0
 17 12  1  0
 18 19  2  0
 20 21  1  0
 20 18  1  0
 21 22  1  1
 23 22  1  0
 24 23  1  0
 25 24  2  0
 26 27  1  0
 26 21  1  0
 28 24  1  0
 29 26  2  0
M  END
$$$$
