NFE.pdb
     RDKit          3D

 29 29  0  0  1  0  0  0  0  0999 V2000
   18.9708  -12.5347  -19.4987 N   0  0  0  0  0  0  0  0  0  0  0  0
   20.3473  -12.2398  -19.4275 C   0  0  0  0  0  0  0  0  0  0  0  0
   21.1053  -12.6636  -20.3347 O   0  0  0  0  0  0  0  0  0  0  0  0
   20.8827  -11.4438  -18.2984 C   0  0  0  0  0  0  0  0  0  0  0  0
   22.3384  -11.7519  -18.1290 C   0  0  2  0  0  0  0  0  0  0  0  0
   22.5808  -13.1145  -17.7263 N   0  0  0  0  0  0  0  0  0  0  0  0
   22.9146  -10.7718  -17.1833 C   0  0  0  0  0  0  0  0  0  0  0  0
   22.6754  -10.8961  -15.9574 O   0  0  0  0  0  0  0  0  0  0  0  0
   23.7365   -9.6780  -17.5741 N   0  0  0  0  0  0  0  0  0  0  0  0
   24.2568   -8.7637  -16.5696 C   0  0  1  0  0  0  0  0  0  0  0  0
   25.7505   -8.5642  -16.7390 C   0  0  0  0  0  0  0  0  0  0  0  0
   26.4339   -9.8608  -16.4932 C   0  0  0  0  0  0  0  0  0  0  0  0
   26.6774  -10.3171  -15.2035 C   0  0  0  0  0  0  0  0  0  0  0  0
   27.3066  -11.5180  -14.9598 C   0  0  0  0  0  0  0  0  0  0  0  0
   27.7247  -12.3244  -16.0038 C   0  0  0  0  0  0  0  0  0  0  0  0
   27.4840  -11.8738  -17.2839 C   0  0  0  0  0  0  0  0  0  0  0  0
   26.8484  -10.6607  -17.5329 C   0  0  0  0  0  0  0  0  0  0  0  0
   23.5231   -7.4814  -16.6300 C   0  0  0  0  0  0  0  0  0  0  0  0
   23.5488   -6.7996  -17.7083 O   0  0  0  0  0  0  0  0  0  0  0  0
   22.7808   -6.9523  -15.5496 N   0  0  0  0  0  0  0  0  0  0  0  0
   22.0529   -5.6778  -15.5989 C   0  0  1  0  0  0  0  0  0  0  0  0
   20.6819   -5.8851  -16.1157 C   0  0  0  0  0  0  0  0  0  0  0  0
   19.7816   -4.7275  -16.2360 C   0  0  0  0  0  0  0  0  0  0  0  0
   18.4093   -4.9972  -16.6920 C   0  0  0  0  0  0  0  0  0  0  0  0
   17.4856   -5.2929  -15.8971 O   0  0  0  0  0  0  0  0  0  0  0  0
   22.1953   -4.8368  -14.4536 C   0  0  0  0  0  0  0  0  0  0  0  0
   22.4468   -5.2797  -13.1654 O   0  0  0  0  0  0  0  0  0  0  0  0
   18.0966   -4.9295  -18.0431 O   0  0  0  0  0  0  0  0  0  0  0  0
   22.0797   -3.5721  -14.5833 O   0  0  0  0  0  0  0  0  0  0  0  0
  2  3  2  0
  2  1  1  0
  4  2  1  0
  5  6  1  1
  5  4  1  0
  7  5  1  0
  8  7  2  0
  9  7  1  0
 10 18  1  0
 10  9  1  0
 10 11  1  6
 12 11  1  0
 12 13  2  0
 14 13  1  0
 15 14  2  0
 16 17  2  0
 16 15  1  0
 17 12  1  0
 18 19  2  0
 20 21  1  0
 20 18  1  0
 21 22  1  1
 23 22  1  0
 24 23  1  0
 25 24  2  0
 26 27  1  0
 26 21  1  0
 28 24  1  0
 29 26  2  0
M  END
$$$$
