NFE.pdb
     RDKit          3D

 29 29  0  0  1  0  0  0  0  0999 V2000
   28.4913  -22.5235  -18.9874 N   0  0  0  0  0  0  0  0  0  0  0  0
   27.1041  -22.4465  -19.2255 C   0  0  0  0  0  0  0  0  0  0  0  0
   26.7032  -22.0912  -20.3614 O   0  0  0  0  0  0  0  0  0  0  0  0
   26.1424  -22.7800  -18.1489 C   0  0  0  0  0  0  0  0  0  0  0  0
   26.9009  -23.1943  -16.9259 C   0  0  2  0  0  0  0  0  0  0  0  0
   27.3518  -24.5622  -16.9813 N   0  0  0  0  0  0  0  0  0  0  0  0
   26.0575  -22.9244  -15.7415 C   0  0  0  0  0  0  0  0  0  0  0  0
   25.3117  -23.8351  -15.3055 O   0  0  0  0  0  0  0  0  0  0  0  0
   26.0328  -21.6816  -15.0494 N   0  0  0  0  0  0  0  0  0  0  0  0
   25.2483  -21.5420  -13.8324 C   0  0  1  0  0  0  0  0  0  0  0  0
   25.7868  -20.4207  -12.9651 C   0  0  0  0  0  0  0  0  0  0  0  0
   25.0069  -20.3818  -11.7006 C   0  0  0  0  0  0  0  0  0  0  0  0
   25.4894  -20.9642  -10.5349 C   0  0  0  0  0  0  0  0  0  0  0  0
   24.7798  -20.9334   -9.3547 C   0  0  0  0  0  0  0  0  0  0  0  0
   23.5445  -20.3135   -9.2858 C   0  0  0  0  0  0  0  0  0  0  0  0
   23.0640  -19.7351  -10.4408 C   0  0  0  0  0  0  0  0  0  0  0  0
   23.7791  -19.7647  -11.6347 C   0  0  0  0  0  0  0  0  0  0  0  0
   23.8248  -21.3342  -14.1740 C   0  0  0  0  0  0  0  0  0  0  0  0
   23.5166  -20.4649  -15.0557 O   0  0  0  0  0  0  0  0  0  0  0  0
   22.7633  -22.0506  -13.5754 N   0  0  0  0  0  0  0  0  0  0  0  0
   21.3437  -21.8089  -13.8635 C   0  0  1  0  0  0  0  0  0  0  0  0
   20.5772  -23.0721  -13.7819 C   0  0  0  0  0  0  0  0  0  0  0  0
   19.1412  -23.0579  -14.1025 C   0  0  0  0  0  0  0  0  0  0  0  0
   18.4276  -24.3412  -14.0138 C   0  0  0  0  0  0  0  0  0  0  0  0
   17.7674  -24.6714  -13.0001 O   0  0  0  0  0  0  0  0  0  0  0  0
   20.7704  -20.6597  -13.2390 C   0  0  0  0  0  0  0  0  0  0  0  0
   20.7733  -20.4074  -11.8770 O   0  0  0  0  0  0  0  0  0  0  0  0
   18.4687  -25.2375  -15.0734 O   0  0  0  0  0  0  0  0  0  0  0  0
   20.1923  -19.7761  -13.9566 O   0  0  0  0  0  0  0  0  0  0  0  0
  2  3  2  0
  2  1  1  0
  4  2  1  0
  5  6  1  6
  5  4  1  0
  7  5  1  0
  8  7  2  0
  9  7  1  0
 10 18  1  0
 10  9  1  0
 10 11  1  6
 12 11  1  0
 12 13  2  0
 14 13  1  0
 15 14  2  0
 16 17  2  0
 16 15  1  0
 17 12  1  0
 18 19  2  0
 20 21  1  0
 20 18  1  0
 21 22  1  1
 23 22  1  0
 24 23  1  0
 25 24  2  0
 26 27  1  0
 26 21  1  0
 28 24  1  0
 29 26  2  0
M  END
$$$$
