NFE.pdb
     RDKit          3D

 29 29  0  0  1  0  0  0  0  0999 V2000
   28.3876  -18.5932  -18.0464 N   0  0  0  0  0  0  0  0  0  0  0  0
   28.0386  -18.5221  -16.6826 C   0  0  0  0  0  0  0  0  0  0  0  0
   28.7507  -17.8341  -15.9101 O   0  0  0  0  0  0  0  0  0  0  0  0
   26.8510  -19.2497  -16.1771 C   0  0  0  0  0  0  0  0  0  0  0  0
   27.3029  -20.4757  -15.4455 C   0  0  2  0  0  0  0  0  0  0  0  0
   27.9132  -21.4534  -16.3111 N   0  0  0  0  0  0  0  0  0  0  0  0
   26.1501  -21.0232  -14.6983 C   0  0  0  0  0  0  0  0  0  0  0  0
   25.1635  -21.4622  -15.3383 O   0  0  0  0  0  0  0  0  0  0  0  0
   26.0809  -21.0883  -13.2787 N   0  0  0  0  0  0  0  0  0  0  0  0
   24.9452  -21.7292  -12.6343 C   0  0  1  0  0  0  0  0  0  0  0  0
   25.3640  -22.4048  -11.3429 C   0  0  0  0  0  0  0  0  0  0  0  0
   26.0451  -21.4031  -10.4818 C   0  0  0  0  0  0  0  0  0  0  0  0
   25.3294  -20.5977   -9.6043 C   0  0  0  0  0  0  0  0  0  0  0  0
   25.9467  -19.6673   -8.7977 C   0  0  0  0  0  0  0  0  0  0  0  0
   27.3197  -19.4984   -8.8320 C   0  0  0  0  0  0  0  0  0  0  0  0
   28.0316  -20.2964   -9.7015 C   0  0  0  0  0  0  0  0  0  0  0  0
   27.4103  -21.2373  -10.5177 C   0  0  0  0  0  0  0  0  0  0  0  0
   23.8706  -20.7385  -12.4100 C   0  0  0  0  0  0  0  0  0  0  0  0
   24.1828  -19.5233  -12.1778 O   0  0  0  0  0  0  0  0  0  0  0  0
   22.4937  -21.0573  -12.4370 N   0  0  0  0  0  0  0  0  0  0  0  0
   21.4487  -20.1455  -12.9198 C   0  0  1  0  0  0  0  0  0  0  0  0
   21.7972  -19.6229  -14.2597 C   0  0  0  0  0  0  0  0  0  0  0  0
   20.8712  -18.6943  -14.9269 C   0  0  0  0  0  0  0  0  0  0  0  0
   21.1917  -18.3165  -16.3119 C   0  0  0  0  0  0  0  0  0  0  0  0
   20.3346  -18.3373  -17.2270 O   0  0  0  0  0  0  0  0  0  0  0  0
   20.1036  -20.5827  -12.7226 C   0  0  0  0  0  0  0  0  0  0  0  0
   19.0403  -19.7627  -12.3821 O   0  0  0  0  0  0  0  0  0  0  0  0
   22.4792  -17.9191  -16.6471 O   0  0  0  0  0  0  0  0  0  0  0  0
   19.8188  -21.8204  -12.8521 O   0  0  0  0  0  0  0  0  0  0  0  0
  2  3  2  0
  2  1  1  0
  4  2  1  0
  5  6  1  6
  5  4  1  0
  7  5  1  0
  8  7  2  0
  9  7  1  0
 10 18  1  0
 10  9  1  0
 10 11  1  1
 12 11  1  0
 12 13  2  0
 14 13  1  0
 15 14  2  0
 16 17  2  0
 16 15  1  0
 17 12  1  0
 18 19  2  0
 20 21  1  0
 20 18  1  0
 21 22  1  6
 23 22  1  0
 24 23  1  0
 25 24  2  0
 26 27  1  0
 26 21  1  0
 28 24  1  0
 29 26  2  0
M  END
$$$$
