RII.pdb
     RDKit          3D

 28 27  0  0  1  0  0  0  0  0999 V2000
   18.4897  -25.8258  -13.9072 N   0  0  0  0  0  0  0  0  0  0  0  0
   18.1339  -24.7958  -14.8161 C   0  0  0  0  0  0  0  0  0  0  0  0
   16.9888  -24.7158  -15.3723 N   0  0  0  0  0  0  0  0  0  0  0  0
   19.1329  -23.8189  -15.0962 N   0  0  0  0  0  0  0  0  0  0  0  0
   20.3800  -23.8101  -14.3841 C   0  0  0  0  0  0  0  0  0  0  0  0
   21.3178  -22.7102  -14.8851 C   0  0  0  0  0  0  0  0  0  0  0  0
   20.9916  -21.4817  -14.0724 C   0  0  0  0  0  0  0  0  0  0  0  0
   21.4032  -21.6568  -12.6090 C   0  0  2  0  0  0  0  0  0  0  0  0
   20.3612  -20.9885  -11.8409 N   0  0  0  0  0  0  0  0  0  0  0  0
   22.6943  -20.9574  -12.4139 C   0  0  0  0  0  0  0  0  0  0  0  0
   22.8345  -19.8009  -12.8478 O   0  0  0  0  0  0  0  0  0  0  0  0
   16.7051  -23.9711  -16.0297 C   0  0  0  0  0  0  0  0  0  0  0  0
   25.5302  -20.9115   -7.7569 C   0  0  0  0  0  0  0  0  0  0  0  0
   24.8307  -20.6488   -9.0716 C   0  0  2  0  0  0  0  0  0  0  0  0
   25.7022  -21.0032  -10.2615 C   0  0  0  0  0  0  0  0  0  0  0  0
   27.0208  -20.2894  -10.1666 C   0  0  2  0  0  0  0  0  0  0  0  0
   25.0047  -20.7982  -11.5734 N   0  0  0  0  0  0  0  0  0  0  0  0
   23.8037  -21.5208  -11.7560 C   0  0  0  0  0  0  0  0  0  0  0  0
   25.9929  -21.0418  -12.6460 O   0  0  0  0  0  0  0  0  0  0  0  0
   26.5101  -22.1675  -12.7486 C   0  0  0  0  0  0  0  0  0  0  0  0
   26.2410  -20.6258  -18.3849 C   0  0  0  0  0  0  0  0  0  0  0  0
   27.1206  -20.5984  -17.1792 C   0  0  2  0  0  0  0  0  0  0  0  0
   26.5153  -20.2413  -15.8825 C   0  0  0  0  0  0  0  0  0  0  0  0
   25.7388  -18.9078  -16.0045 C   0  0  2  0  0  0  0  0  0  0  0  0
   27.3116  -20.2901  -14.6512 N   0  0  0  0  0  0  0  0  0  0  0  0
   26.3514  -20.0261  -13.5419 C   0  0  0  0  0  0  0  0  0  0  0  0
   28.4857  -19.4551  -14.4789 O   0  0  0  0  0  0  0  0  0  0  0  0
   28.5398  -18.3387  -13.9307 O   0  0  0  0  0  0  0  0  0  0  0  0
  2  4  1  0
  2  1  1  0
  3  2  2  0
  5  4  1  0
  6  5  1  0
  7  6  1  0
  8 10  1  0
  8  7  1  0
  8  9  1  1
 10 11  2  0
 13 12  1  0
 14 13  1  0
 14 16  1  0
 14 15  1  6
 16 18  1  0
 17 10  1  0
 16 17  1  6
 18 19  2  0
 20 21  1  0
 21 22  1  0
 22 24  1  0
 22 23  1  1
 24 26  1  0
 25 18  1  0
 24 25  1  1
 26 27  2  0
 26 28  1  0
M  END
$$$$
