RII.pdb
     RDKit          3D

 28 27  0  0  1  0  0  0  0  0999 V2000
   28.7451  -19.7333  -18.5698 N   0  0  0  0  0  0  0  0  0  0  0  0
   29.5239  -18.6798  -19.1150 C   0  0  0  0  0  0  0  0  0  0  0  0
   30.3906  -18.8518  -20.0349 N   0  0  0  0  0  0  0  0  0  0  0  0
   29.2972  -17.3774  -18.5828 N   0  0  0  0  0  0  0  0  0  0  0  0
   28.2012  -17.1229  -17.6904 C   0  0  0  0  0  0  0  0  0  0  0  0
   28.5494  -17.4707  -16.2420 C   0  0  0  0  0  0  0  0  0  0  0  0
   27.3192  -17.1514  -15.4290 C   0  0  0  0  0  0  0  0  0  0  0  0
   26.1042  -17.9382  -15.9253 C   0  0  2  0  0  0  0  0  0  0  0  0
   25.2656  -16.9543  -16.5967 N   0  0  0  0  0  0  0  0  0  0  0  0
   25.3952  -18.4737  -14.7400 C   0  0  0  0  0  0  0  0  0  0  0  0
   24.6443  -17.7275  -14.0884 O   0  0  0  0  0  0  0  0  0  0  0  0
   30.9102  -18.0913  -20.5028 C   0  0  0  0  0  0  0  0  0  0  0  0
   21.6808  -21.8475  -15.1069 C   0  0  0  0  0  0  0  0  0  0  0  0
   22.7028  -20.8066  -14.7084 C   0  0  2  0  0  0  0  0  0  0  0  0
   23.6731  -21.3303  -13.6667 C   0  0  0  0  0  0  0  0  0  0  0  0
   22.9189  -21.9253  -12.5115 C   0  0  2  0  0  0  0  0  0  0  0  0
   24.6893  -20.3073  -13.2538 N   0  0  0  0  0  0  0  0  0  0  0  0
   25.5123  -19.8004  -14.2850 C   0  0  0  0  0  0  0  0  0  0  0  0
   25.4605  -20.8753  -12.1272 O   0  0  0  0  0  0  0  0  0  0  0  0
   26.2318  -21.8266  -12.3401 C   0  0  0  0  0  0  0  0  0  0  0  0
   28.9127  -19.7229   -7.5719 C   0  0  0  0  0  0  0  0  0  0  0  0
   27.8950  -20.6769   -8.1030 C   0  0  2  0  0  0  0  0  0  0  0  0
   26.9510  -20.1910   -9.1267 C   0  0  0  0  0  0  0  0  0  0  0  0
   26.3670  -18.8202   -8.7072 C   0  0  2  0  0  0  0  0  0  0  0  0
   25.9120  -21.0781   -9.6615 N   0  0  0  0  0  0  0  0  0  0  0  0
   25.3331  -20.3581  -10.8315 C   0  0  0  0  0  0  0  0  0  0  0  0
   24.8367  -21.5721   -8.8217 O   0  0  0  0  0  0  0  0  0  0  0  0
   23.6686  -21.1450   -8.7679 O   0  0  0  0  0  0  0  0  0  0  0  0
  2  4  1  0
  2  1  1  0
  3  2  2  0
  5  4  1  0
  6  5  1  0
  7  6  1  0
  8 10  1  0
  8  7  1  0
  8  9  1  1
 10 11  2  0
 13 12  1  0
 14 13  1  0
 14 16  1  0
 14 15  1  6
 16 18  1  0
 17 10  1  0
 16 17  1  1
 18 19  2  0
 20 21  1  0
 21 22  1  0
 22 24  1  0
 22 23  1  6
 24 26  1  0
 25 18  1  0
 24 25  1  1
 26 27  2  0
 26 28  1  0
M  END
$$$$
