RII.pdb
     RDKit          3D

 28 27  0  0  1  0  0  0  0  0999 V2000
   29.6051  -23.9363  -16.8420 N   0  0  0  0  0  0  0  0  0  0  0  0
   28.8285  -23.2768  -17.8296 C   0  0  0  0  0  0  0  0  0  0  0  0
   28.0599  -23.8898  -18.6425 N   0  0  0  0  0  0  0  0  0  0  0  0
   28.9385  -21.8570  -17.8847 N   0  0  0  0  0  0  0  0  0  0  0  0
   29.7430  -21.1395  -16.9359 C   0  0  0  0  0  0  0  0  0  0  0  0
   29.0492  -21.0102  -15.5787 C   0  0  0  0  0  0  0  0  0  0  0  0
   28.1522  -19.8015  -15.6822 C   0  0  0  0  0  0  0  0  0  0  0  0
   26.6863  -20.2085  -15.8463 C   0  0  2  0  0  0  0  0  0  0  0  0
   26.2032  -19.4319  -16.9801 N   0  0  0  0  0  0  0  0  0  0  0  0
   25.9628  -19.8037  -14.6186 C   0  0  0  0  0  0  0  0  0  0  0  0
   25.8106  -18.5953  -14.3694 O   0  0  0  0  0  0  0  0  0  0  0  0
   27.4791  -23.4301  -19.3627 C   0  0  0  0  0  0  0  0  0  0  0  0
   20.8635  -19.6471  -12.0112 C   0  0  0  0  0  0  0  0  0  0  0  0
   22.3453  -19.6868  -11.7124 C   0  0  2  0  0  0  0  0  0  0  0  0
   23.1335  -20.3505  -12.8255 C   0  0  0  0  0  0  0  0  0  0  0  0
   22.6302  -21.7477  -13.0524 C   0  0  2  0  0  0  0  0  0  0  0  0
   24.6160  -20.2767  -12.6107 N   0  0  0  0  0  0  0  0  0  0  0  0
   25.4206  -20.7105  -13.6887 C   0  0  0  0  0  0  0  0  0  0  0  0
   24.9183  -20.9808  -11.3459 O   0  0  0  0  0  0  0  0  0  0  0  0
   24.9956  -22.2214  -11.3471 C   0  0  0  0  0  0  0  0  0  0  0  0
   28.4402  -18.8223   -7.8225 C   0  0  0  0  0  0  0  0  0  0  0  0
   27.6024  -19.7700   -8.6149 C   0  0  2  0  0  0  0  0  0  0  0  0
   26.2629  -20.1131   -8.1017 C   0  0  0  0  0  0  0  0  0  0  0  0
   26.3555  -20.5580   -6.6220 C   0  0  2  0  0  0  0  0  0  0  0  0
   25.3727  -20.9883   -8.8724 N   0  0  0  0  0  0  0  0  0  0  0  0
   25.1168  -20.2715  -10.1543 C   0  0  0  0  0  0  0  0  0  0  0  0
   24.1131  -21.4548   -8.3234 O   0  0  0  0  0  0  0  0  0  0  0  0
   23.9115  -22.5129   -7.6992 O   0  0  0  0  0  0  0  0  0  0  0  0
  2  4  1  0
  2  1  1  0
  3  2  2  0
  5  4  1  0
  6  5  1  0
  7  6  1  0
  8 10  1  0
  8  7  1  0
  8  9  1  6
 10 11  2  0
 13 12  1  0
 14 13  1  0
 14 16  1  0
 14 15  1  6
 16 18  1  0
 17 10  1  0
 16 17  1  1
 18 19  2  0
 20 21  1  0
 21 22  1  0
 22 24  1  0
 22 23  1  6
 24 26  1  0
 25 18  1  0
 24 25  1  6
 26 27  2  0
 26 28  1  0
M  END
$$$$
