RII.pdb
     RDKit          3D

 28 27  0  0  1  0  0  0  0  0999 V2000
   23.6040  -18.3592  -17.7221 N   0  0  0  0  0  0  0  0  0  0  0  0
   23.5984  -16.9714  -18.0182 C   0  0  0  0  0  0  0  0  0  0  0  0
   22.5634  -16.2343  -17.9056 N   0  0  0  0  0  0  0  0  0  0  0  0
   24.8306  -16.4083  -18.4601 N   0  0  0  0  0  0  0  0  0  0  0  0
   26.0853  -17.0289  -18.1394 C   0  0  0  0  0  0  0  0  0  0  0  0
   26.6869  -16.4706  -16.8484 C   0  0  0  0  0  0  0  0  0  0  0  0
   26.5012  -17.5431  -15.8036 C   0  0  0  0  0  0  0  0  0  0  0  0
   27.6759  -18.5236  -15.7976 C   0  0  2  0  0  0  0  0  0  0  0  0
   27.6269  -19.1800  -17.0972 N   0  0  0  0  0  0  0  0  0  0  0  0
   27.4320  -19.5173  -14.7263 C   0  0  0  0  0  0  0  0  0  0  0  0
   26.5732  -20.4000  -14.8956 O   0  0  0  0  0  0  0  0  0  0  0  0
   22.5265  -15.2312  -18.1498 C   0  0  0  0  0  0  0  0  0  0  0  0
   31.3933  -21.2358  -11.2321 C   0  0  0  0  0  0  0  0  0  0  0  0
   30.2463  -21.1411  -12.2131 C   0  0  2  0  0  0  0  0  0  0  0  0
   28.9401  -20.7837  -11.5296 C   0  0  0  0  0  0  0  0  0  0  0  0
   28.5864  -21.8310  -10.5121 C   0  0  2  0  0  0  0  0  0  0  0  0
   27.8350  -20.4984  -12.5027 N   0  0  0  0  0  0  0  0  0  0  0  0
   28.1192  -19.5361  -13.4982 C   0  0  0  0  0  0  0  0  0  0  0  0
   26.6234  -20.1761  -11.7185 O   0  0  0  0  0  0  0  0  0  0  0  0
   26.5296  -19.0595  -11.1806 C   0  0  0  0  0  0  0  0  0  0  0  0
   21.8971  -20.9931  -13.7179 C   0  0  0  0  0  0  0  0  0  0  0  0
   23.0422  -20.5295  -12.8802 C   0  0  2  0  0  0  0  0  0  0  0  0
   23.2313  -21.1473  -11.5543 C   0  0  0  0  0  0  0  0  0  0  0  0
   21.9180  -21.0735  -10.7383 C   0  0  2  0  0  0  0  0  0  0  0  0
   24.3963  -20.8019  -10.7321 N   0  0  0  0  0  0  0  0  0  0  0  0
   25.5871  -21.1078  -11.5752 C   0  0  0  0  0  0  0  0  0  0  0  0
   24.5834  -21.3735   -9.4115 O   0  0  0  0  0  0  0  0  0  0  0  0
   24.1558  -20.9255   -8.3315 O   0  0  0  0  0  0  0  0  0  0  0  0
  2  4  1  0
  2  1  1  0
  3  2  2  0
  5  4  1  0
  6  5  1  0
  7  6  1  0
  8 10  1  0
  8  7  1  0
  8  9  1  6
 10 11  2  0
 13 12  1  0
 14 13  1  0
 14 16  1  0
 14 15  1  1
 16 18  1  0
 17 10  1  0
 16 17  1  6
 18 19  2  0
 20 21  1  0
 21 22  1  0
 22 24  1  0
 22 23  1  6
 24 26  1  0
 25 18  1  0
 24 25  1  1
 26 27  2  0
 26 28  1  0
M  END
$$$$
