RII.pdb
     RDKit          3D

 28 27  0  0  1  0  0  0  0  0999 V2000
   21.9592  -24.5098  -16.2615 N   0  0  0  0  0  0  0  0  0  0  0  0
   21.7554  -25.6897  -17.0230 C   0  0  0  0  0  0  0  0  0  0  0  0
   20.6437  -25.9859  -17.5738 N   0  0  0  0  0  0  0  0  0  0  0  0
   22.8733  -26.5633  -17.1575 N   0  0  0  0  0  0  0  0  0  0  0  0
   24.2148  -26.0808  -16.9844 C   0  0  0  0  0  0  0  0  0  0  0  0
   24.4538  -25.5481  -15.5705 C   0  0  0  0  0  0  0  0  0  0  0  0
   25.8764  -25.0461  -15.5487 C   0  0  0  0  0  0  0  0  0  0  0  0
   25.9947  -23.6788  -16.2254 C   0  0  2  0  0  0  0  0  0  0  0  0
   27.0017  -23.8566  -17.2630 N   0  0  0  0  0  0  0  0  0  0  0  0
   26.4841  -22.7129  -15.2144 C   0  0  0  0  0  0  0  0  0  0  0  0
   27.7015  -22.6464  -14.9717 O   0  0  0  0  0  0  0  0  0  0  0  0
   20.4832  -26.8184  -18.1641 C   0  0  0  0  0  0  0  0  0  0  0  0
   26.0646  -17.6062  -15.5042 C   0  0  0  0  0  0  0  0  0  0  0  0
   26.2848  -19.0805  -15.2495 C   0  0  2  0  0  0  0  0  0  0  0  0
   25.9169  -19.4749  -13.8317 C   0  0  0  0  0  0  0  0  0  0  0  0
   26.5759  -18.5478  -12.8503 C   0  0  2  0  0  0  0  0  0  0  0  0
   26.1722  -20.9254  -13.5480 N   0  0  0  0  0  0  0  0  0  0  0  0
   25.6500  -21.8419  -14.4888 C   0  0  0  0  0  0  0  0  0  0  0  0
   25.7185  -21.1955  -12.1668 O   0  0  0  0  0  0  0  0  0  0  0  0
   24.7412  -21.9419  -11.9855 C   0  0  0  0  0  0  0  0  0  0  0  0
   27.9024  -19.8936   -6.4967 C   0  0  0  0  0  0  0  0  0  0  0  0
   26.8589  -20.5307   -7.3530 C   0  0  2  0  0  0  0  0  0  0  0  0
   26.8621  -20.2291   -8.7967 C   0  0  0  0  0  0  0  0  0  0  0  0
   26.9876  -18.7030   -9.0234 C   0  0  2  0  0  0  0  0  0  0  0  0
   25.8559  -20.8242   -9.6832 N   0  0  0  0  0  0  0  0  0  0  0  0
   26.3721  -20.6240  -11.0673 C   0  0  0  0  0  0  0  0  0  0  0  0
   24.4645  -20.4162   -9.6260 O   0  0  0  0  0  0  0  0  0  0  0  0
   23.9231  -19.4999  -10.2717 O   0  0  0  0  0  0  0  0  0  0  0  0
  2  4  1  0
  2  1  1  0
  3  2  2  0
  5  4  1  0
  6  5  1  0
  7  6  1  0
  8 10  1  0
  8  7  1  0
  8  9  1  6
 10 11  2  0
 13 12  1  0
 14 13  1  0
 14 16  1  0
 14 15  1  1
 16 18  1  0
 17 10  1  0
 16 17  1  6
 18 19  2  0
 20 21  1  0
 21 22  1  0
 22 24  1  0
 22 23  1  6
 24 26  1  0
 25 18  1  0
 24 25  1  1
 26 27  2  0
 26 28  1  0
M  END
$$$$
