RII.pdb
     RDKit          3D

 28 27  0  0  1  0  0  0  0  0999 V2000
   18.4331  -21.1377  -13.4333 N   0  0  0  0  0  0  0  0  0  0  0  0
   18.7150  -20.8360  -14.7909 C   0  0  0  0  0  0  0  0  0  0  0  0
   17.8104  -20.6577  -15.6723 N   0  0  0  0  0  0  0  0  0  0  0  0
   20.0905  -20.7343  -15.1495 N   0  0  0  0  0  0  0  0  0  0  0  0
   21.1268  -21.0275  -14.1996 C   0  0  0  0  0  0  0  0  0  0  0  0
   22.5196  -20.7475  -14.7669 C   0  0  0  0  0  0  0  0  0  0  0  0
   23.4987  -21.2118  -13.7172 C   0  0  0  0  0  0  0  0  0  0  0  0
   24.9439  -21.0510  -14.1939 C   0  0  2  0  0  0  0  0  0  0  0  0
   25.7610  -21.5641  -13.1025 N   0  0  0  0  0  0  0  0  0  0  0  0
   25.2036  -19.6039  -14.3751 C   0  0  0  0  0  0  0  0  0  0  0  0
   25.3394  -18.8775  -13.3754 O   0  0  0  0  0  0  0  0  0  0  0  0
   17.9913  -20.5010  -16.6773 C   0  0  0  0  0  0  0  0  0  0  0  0
   29.5220  -18.0296  -16.3038 C   0  0  0  0  0  0  0  0  0  0  0  0
   28.1733  -18.1990  -15.6411 C   0  0  2  0  0  0  0  0  0  0  0  0
   27.0865  -17.4154  -16.3523 C   0  0  0  0  0  0  0  0  0  0  0  0
   27.4754  -15.9677  -16.4527 C   0  0  2  0  0  0  0  0  0  0  0  0
   25.7290  -17.6293  -15.7515 N   0  0  0  0  0  0  0  0  0  0  0  0
   25.3107  -18.9739  -15.6291 C   0  0  0  0  0  0  0  0  0  0  0  0
   24.7710  -16.7939  -16.5071 O   0  0  0  0  0  0  0  0  0  0  0  0
   24.4857  -17.1064  -17.6758 C   0  0  0  0  0  0  0  0  0  0  0  0
   19.3329  -15.1272  -16.1664 C   0  0  0  0  0  0  0  0  0  0  0  0
   20.6390  -14.7146  -16.7595 C   0  0  2  0  0  0  0  0  0  0  0  0
   21.8750  -15.2764  -16.1831 C   0  0  0  0  0  0  0  0  0  0  0  0
   21.8090  -15.2381  -14.6371 C   0  0  2  0  0  0  0  0  0  0  0  0
   23.1882  -14.8470  -16.6769 N   0  0  0  0  0  0  0  0  0  0  0  0
   24.1852  -15.6619  -15.9257 C   0  0  0  0  0  0  0  0  0  0  0  0
   23.5865  -13.4521  -16.6452 O   0  0  0  0  0  0  0  0  0  0  0  0
   24.1071  -12.8408  -15.6939 O   0  0  0  0  0  0  0  0  0  0  0  0
  2  4  1  0
  2  1  1  0
  3  2  2  0
  5  4  1  0
  6  5  1  0
  7  6  1  0
  8 10  1  0
  8  7  1  0
  8  9  1  1
 10 11  2  0
 13 12  1  0
 14 13  1  0
 14 16  1  0
 14 15  1  6
 16 18  1  0
 17 10  1  0
 16 17  1  1
 18 19  2  0
 20 21  1  0
 21 22  1  0
 22 24  1  0
 22 23  1  6
 24 26  1  0
 25 18  1  0
 24 25  1  1
 26 27  2  0
 26 28  1  0
M  END
$$$$
