RII.pdb
     RDKit          3D

 28 27  0  0  1  0  0  0  0  0999 V2000
   28.1494  -19.7602  -16.0336 N   0  0  0  0  0  0  0  0  0  0  0  0
   28.6378  -19.4868  -17.3376 C   0  0  0  0  0  0  0  0  0  0  0  0
   28.9275  -20.3967  -18.1833 N   0  0  0  0  0  0  0  0  0  0  0  0
   28.7987  -18.1138  -17.6837 N   0  0  0  0  0  0  0  0  0  0  0  0
   27.8892  -17.1156  -17.1951 C   0  0  0  0  0  0  0  0  0  0  0  0
   27.9428  -16.9886  -15.6716 C   0  0  0  0  0  0  0  0  0  0  0  0
   26.5128  -16.8382  -15.2149 C   0  0  0  0  0  0  0  0  0  0  0  0
   25.7076  -18.1127  -15.4773 C   0  0  2  0  0  0  0  0  0  0  0  0
   24.6276  -17.7014  -16.3643 N   0  0  0  0  0  0  0  0  0  0  0  0
   25.1463  -18.5692  -14.1847 C   0  0  0  0  0  0  0  0  0  0  0  0
   24.2059  -17.9395  -13.6704 O   0  0  0  0  0  0  0  0  0  0  0  0
   29.3115  -20.2223  -19.1264 C   0  0  0  0  0  0  0  0  0  0  0  0
   24.2545  -23.8648  -12.9016 C   0  0  0  0  0  0  0  0  0  0  0  0
   25.0708  -22.6231  -12.6212 C   0  0  2  0  0  0  0  0  0  0  0  0
   24.1957  -21.4049  -12.3951 C   0  0  0  0  0  0  0  0  0  0  0  0
   23.1096  -21.3498  -13.4317 C   0  0  1  0  0  0  0  0  0  0  0  0
   24.9857  -20.1344  -12.2890 N   0  0  0  0  0  0  0  0  0  0  0  0
   25.6118  -19.6931  -13.4769 C   0  0  0  0  0  0  0  0  0  0  0  0
   25.9312  -20.2907  -11.1628 O   0  0  0  0  0  0  0  0  0  0  0  0
   27.0690  -20.7390  -11.3852 C   0  0  0  0  0  0  0  0  0  0  0  0
   28.0866  -17.3178   -7.6592 C   0  0  0  0  0  0  0  0  0  0  0  0
   27.6348  -18.4664   -8.4986 C   0  0  2  0  0  0  0  0  0  0  0  0
   26.7592  -19.4797   -7.8806 C   0  0  0  0  0  0  0  0  0  0  0  0
   27.3822  -19.9893   -6.5584 C   0  0  2  0  0  0  0  0  0  0  0  0
   26.2182  -20.5835   -8.6815 N   0  0  0  0  0  0  0  0  0  0  0  0
   25.5626  -19.9424   -9.8569 C   0  0  0  0  0  0  0  0  0  0  0  0
   25.3167  -21.5631   -8.1040 O   0  0  0  0  0  0  0  0  0  0  0  0
   24.0723  -21.5484   -8.1338 O   0  0  0  0  0  0  0  0  0  0  0  0
  2  4  1  0
  2  1  1  0
  3  2  2  0
  5  4  1  0
  6  5  1  0
  7  6  1  0
  8 10  1  0
  8  7  1  0
  8  9  1  6
 10 11  2  0
 13 12  1  0
 14 13  1  0
 14 16  1  0
 14 15  1  1
 16 18  1  0
 17 10  1  0
 16 17  1  6
 18 19  2  0
 20 21  1  0
 21 22  1  0
 22 24  1  0
 22 23  1  1
 24 26  1  0
 25 18  1  0
 24 25  1  6
 26 27  2  0
 26 28  1  0
M  END
$$$$
