RII.pdb
     RDKit          3D

 28 27  0  0  1  0  0  0  0  0999 V2000
   28.7382  -22.9714  -15.9004 N   0  0  0  0  0  0  0  0  0  0  0  0
   29.4998  -22.5941  -17.0368 C   0  0  0  0  0  0  0  0  0  0  0  0
   30.0698  -23.4337  -17.8096 N   0  0  0  0  0  0  0  0  0  0  0  0
   29.6098  -21.1971  -17.2958 N   0  0  0  0  0  0  0  0  0  0  0  0
   28.6723  -20.2643  -16.7360 C   0  0  0  0  0  0  0  0  0  0  0  0
   29.0405  -19.8720  -15.3040 C   0  0  0  0  0  0  0  0  0  0  0  0
   27.9968  -18.8760  -14.8627 C   0  0  0  0  0  0  0  0  0  0  0  0
   26.5847  -19.4463  -15.0121 C   0  0  2  0  0  0  0  0  0  0  0  0
   25.9363  -18.5955  -16.0010 N   0  0  0  0  0  0  0  0  0  0  0  0
   25.8987  -19.3073  -13.7066 C   0  0  0  0  0  0  0  0  0  0  0  0
   25.4569  -18.1972  -13.3635 O   0  0  0  0  0  0  0  0  0  0  0  0
   30.6697  -23.1813  -18.6119 C   0  0  0  0  0  0  0  0  0  0  0  0
   21.3855  -20.7709  -13.2620 C   0  0  0  0  0  0  0  0  0  0  0  0
   22.7729  -20.1984  -13.0776 C   0  0  2  0  0  0  0  0  0  0  0  0
   23.4601  -20.7556  -11.8454 C   0  0  0  0  0  0  0  0  0  0  0  0
   22.5958  -20.5483  -10.6341 C   0  0  2  0  0  0  0  0  0  0  0  0
   24.8583  -20.2398  -11.6774 N   0  0  0  0  0  0  0  0  0  0  0  0
   25.7052  -20.3679  -12.8017 C   0  0  0  0  0  0  0  0  0  0  0  0
   25.4193  -20.8625  -10.4591 O   0  0  0  0  0  0  0  0  0  0  0  0
   25.7956  -22.0464  -10.5026 C   0  0  0  0  0  0  0  0  0  0  0  0
   29.0849  -18.5870   -7.4054 C   0  0  0  0  0  0  0  0  0  0  0  0
   28.1681  -19.5674   -8.0582 C   0  0  2  0  0  0  0  0  0  0  0  0
   26.9111  -19.9129   -7.3684 C   0  0  0  0  0  0  0  0  0  0  0  0
   27.2007  -20.3249   -5.9047 C   0  0  2  0  0  0  0  0  0  0  0  0
   25.9396  -20.8134   -7.9991 N   0  0  0  0  0  0  0  0  0  0  0  0
   25.5306  -20.1394   -9.2644 C   0  0  0  0  0  0  0  0  0  0  0  0
   24.7559  -21.2619   -7.2897 O   0  0  0  0  0  0  0  0  0  0  0  0
   23.6229  -20.7468   -7.3177 O   0  0  0  0  0  0  0  0  0  0  0  0
  2  4  1  0
  2  1  1  0
  3  2  2  0
  5  4  1  0
  6  5  1  0
  7  6  1  0
  8 10  1  0
  8  7  1  0
  8  9  1  6
 10 11  2  0
 13 12  1  0
 14 13  1  0
 14 16  1  0
 14 15  1  6
 16 18  1  0
 17 10  1  0
 16 17  1  1
 18 19  2  0
 20 21  1  0
 21 22  1  0
 22 24  1  0
 22 23  1  6
 24 26  1  0
 25 18  1  0
 24 25  1  6
 26 27  2  0
 26 28  1  0
M  END
$$$$
