RII.pdb
     RDKit          3D

 28 27  0  0  1  0  0  0  0  0999 V2000
   19.6682  -26.6986  -16.0729 N   0  0  0  0  0  0  0  0  0  0  0  0
   18.9292  -26.2009  -14.9685 C   0  0  0  0  0  0  0  0  0  0  0  0
   18.2591  -26.9465  -14.1797 N   0  0  0  0  0  0  0  0  0  0  0  0
   18.9622  -24.7913  -14.7618 N   0  0  0  0  0  0  0  0  0  0  0  0
   19.7760  -23.9413  -15.5849 C   0  0  0  0  0  0  0  0  0  0  0  0
   21.2618  -24.0643  -15.2422 C   0  0  0  0  0  0  0  0  0  0  0  0
   21.7556  -22.6568  -15.0157 C   0  0  0  0  0  0  0  0  0  0  0  0
   21.7374  -22.2929  -13.5295 C   0  0  2  0  0  0  0  0  0  0  0  0
   20.4934  -21.5601  -13.3352 N   0  0  0  0  0  0  0  0  0  0  0  0
   22.8897  -21.3998  -13.2668 C   0  0  0  0  0  0  0  0  0  0  0  0
   22.7607  -20.1735  -13.4242 O   0  0  0  0  0  0  0  0  0  0  0  0
   17.7314  -26.6091  -13.3581 C   0  0  0  0  0  0  0  0  0  0  0  0
   25.9599  -21.2324   -8.8807 C   0  0  0  0  0  0  0  0  0  0  0  0
   25.1578  -21.0295  -10.1465 C   0  0  2  0  0  0  0  0  0  0  0  0
   26.0203  -21.1312  -11.3901 C   0  0  0  0  0  0  0  0  0  0  0  0
   27.1943  -20.2000  -11.2818 C   0  0  2  0  0  0  0  0  0  0  0  0
   25.2354  -20.9587  -12.6565 N   0  0  0  0  0  0  0  0  0  0  0  0
   24.1536  -21.8494  -12.8410 C   0  0  0  0  0  0  0  0  0  0  0  0
   26.1953  -20.9766  -13.7812 O   0  0  0  0  0  0  0  0  0  0  0  0
   26.9323  -21.9661  -13.9325 C   0  0  0  0  0  0  0  0  0  0  0  0
   25.6088  -20.9777  -19.3916 C   0  0  0  0  0  0  0  0  0  0  0  0
   26.5816  -20.4704  -18.3794 C   0  0  2  0  0  0  0  0  0  0  0  0
   26.1413  -20.3772  -16.9749 C   0  0  0  0  0  0  0  0  0  0  0  0
   24.8341  -19.5540  -16.8782 C   0  0  2  0  0  0  0  0  0  0  0  0
   27.0914  -20.0049  -15.9207 N   0  0  0  0  0  0  0  0  0  0  0  0
   26.2839  -19.8991  -14.6721 C   0  0  0  0  0  0  0  0  0  0  0  0
   27.9364  -18.8319  -16.0469 O   0  0  0  0  0  0  0  0  0  0  0  0
   28.9568  -18.7132  -16.7500 O   0  0  0  0  0  0  0  0  0  0  0  0
  2  4  1  0
  2  1  1  0
  3  2  2  0
  5  4  1  0
  6  5  1  0
  7  6  1  0
  8 10  1  0
  8  7  1  0
  8  9  1  6
 10 11  2  0
 13 12  1  0
 14 13  1  0
 14 16  1  0
 14 15  1  6
 16 18  1  0
 17 10  1  0
 16 17  1  6
 18 19  2  0
 20 21  1  0
 21 22  1  0
 22 24  1  0
 22 23  1  1
 24 26  1  0
 25 18  1  0
 24 25  1  6
 26 27  2  0
 26 28  1  0
M  END
$$$$
