RII.pdb
     RDKit          3D

 28 27  0  0  1  0  0  0  0  0999 V2000
   21.8182  -19.1335  -17.1878 N   0  0  0  0  0  0  0  0  0  0  0  0
   23.0698  -18.6256  -17.6229 C   0  0  0  0  0  0  0  0  0  0  0  0
   23.4430  -18.6302  -18.8426 N   0  0  0  0  0  0  0  0  0  0  0  0
   23.9258  -18.0907  -16.6169 N   0  0  0  0  0  0  0  0  0  0  0  0
   23.7743  -18.4669  -15.2393 C   0  0  0  0  0  0  0  0  0  0  0  0
   22.9201  -19.7259  -15.0801 C   0  0  0  0  0  0  0  0  0  0  0  0
   22.7973  -19.9617  -13.5950 C   0  0  0  0  0  0  0  0  0  0  0  0
   24.1647  -20.2151  -12.9565 C   0  0  2  0  0  0  0  0  0  0  0  0
   24.8373  -21.1401  -13.8588 N   0  0  0  0  0  0  0  0  0  0  0  0
   23.9397  -20.8693  -11.6467 C   0  0  0  0  0  0  0  0  0  0  0  0
   23.7507  -22.0971  -11.6012 O   0  0  0  0  0  0  0  0  0  0  0  0
   24.3700  -18.3181  -19.1751 C   0  0  0  0  0  0  0  0  0  0  0  0
   26.9726  -19.6400   -7.4947 C   0  0  0  0  0  0  0  0  0  0  0  0
   26.1235  -20.4130   -8.4787 C   0  0  2  0  0  0  0  0  0  0  0  0
   24.6622  -20.4393   -8.0727 C   0  0  0  0  0  0  0  0  0  0  0  0
   24.4891  -21.2490   -6.8191 C   0  0  2  0  0  0  0  0  0  0  0  0
   23.7571  -20.8662   -9.1898 N   0  0  0  0  0  0  0  0  0  0  0  0
   23.9236  -20.1849  -10.4169 C   0  0  0  0  0  0  0  0  0  0  0  0
   22.3687  -20.8114   -8.6837 O   0  0  0  0  0  0  0  0  0  0  0  0
   21.8276  -19.7045   -8.5190 C   0  0  0  0  0  0  0  0  0  0  0  0
   17.0696  -22.8123   -9.8456 C   0  0  0  0  0  0  0  0  0  0  0  0
   17.9294  -22.3660   -8.7100 C   0  0  2  0  0  0  0  0  0  0  0  0
   19.3894  -22.3246   -8.9152 C   0  0  0  0  0  0  0  0  0  0  0  0
   19.8711  -23.6310   -9.5914 C   0  0  2  0  0  0  0  0  0  0  0  0
   20.2829  -21.9222   -7.8233 N   0  0  0  0  0  0  0  0  0  0  0  0
   21.6607  -21.9839   -8.3891 C   0  0  0  0  0  0  0  0  0  0  0  0
   20.2597  -22.6009   -6.5409 O   0  0  0  0  0  0  0  0  0  0  0  0
   19.3569  -22.5587   -5.6847 O   0  0  0  0  0  0  0  0  0  0  0  0
  2  4  1  0
  2  1  1  0
  3  2  2  0
  5  4  1  0
  6  5  1  0
  7  6  1  0
  8 10  1  0
  8  7  1  0
  8  9  1  6
 10 11  2  0
 13 12  1  0
 14 13  1  0
 14 16  1  0
 14 15  1  6
 16 18  1  0
 17 10  1  0
 16 17  1  6
 18 19  2  0
 20 21  1  0
 21 22  1  0
 22 24  1  0
 22 23  1  6
 24 26  1  0
 25 18  1  0
 24 25  1  1
 26 27  2  0
 26 28  1  0
M  END
$$$$
