RII.pdb
     RDKit          3D

 28 27  0  0  1  0  0  0  0  0999 V2000
   21.6915  -21.2280   -6.7716 N   0  0  0  0  0  0  0  0  0  0  0  0
   21.1247  -21.3310   -8.0685 C   0  0  0  0  0  0  0  0  0  0  0  0
   19.9315  -21.7275   -8.2831 N   0  0  0  0  0  0  0  0  0  0  0  0
   21.9618  -20.9630   -9.1615 N   0  0  0  0  0  0  0  0  0  0  0  0
   23.2474  -21.5750   -9.3481 C   0  0  0  0  0  0  0  0  0  0  0  0
   24.3915  -20.5871   -9.1129 C   0  0  0  0  0  0  0  0  0  0  0  0
   24.7773  -20.0636  -10.4743 C   0  0  0  0  0  0  0  0  0  0  0  0
   25.4044  -21.1618  -11.3358 C   0  0  2  0  0  0  0  0  0  0  0  0
   26.7437  -21.3484  -10.7940 N   0  0  0  0  0  0  0  0  0  0  0  0
   25.4934  -20.6538  -12.7245 C   0  0  0  0  0  0  0  0  0  0  0  0
   26.4587  -19.9436  -13.0547 O   0  0  0  0  0  0  0  0  0  0  0  0
   19.5028  -21.8228   -9.2182 C   0  0  0  0  0  0  0  0  0  0  0  0
   24.5563  -23.7186  -15.0401 C   0  0  0  0  0  0  0  0  0  0  0  0
   25.1081  -22.7579  -16.0694 C   0  0  2  0  0  0  0  0  0  0  0  0
   24.3163  -21.4653  -16.1246 C   0  0  0  0  0  0  0  0  0  0  0  0
   24.3647  -20.8890  -17.5112 C   0  0  2  0  0  0  0  0  0  0  0  0
   24.7201  -20.4913  -15.0580 N   0  0  0  0  0  0  0  0  0  0  0  0
   24.5400  -20.9231  -13.7243 C   0  0  0  0  0  0  0  0  0  0  0  0
   24.0415  -19.2093  -15.3456 O   0  0  0  0  0  0  0  0  0  0  0  0
   22.8525  -19.0657  -15.0128 C   0  0  0  0  0  0  0  0  0  0  0  0
   25.6499  -13.3921  -15.4830 C   0  0  0  0  0  0  0  0  0  0  0  0
   24.6601  -14.3993  -15.9667 C   0  0  2  0  0  0  0  0  0  0  0  0
   24.9687  -15.8286  -15.7739 C   0  0  0  0  0  0  0  0  0  0  0  0
   26.4207  -16.1265  -16.2200 C   0  0  2  0  0  0  0  0  0  0  0  0
   24.0382  -16.8606  -16.2446 N   0  0  0  0  0  0  0  0  0  0  0  0
   24.7176  -18.1619  -15.9846 C   0  0  0  0  0  0  0  0  0  0  0  0
   23.5240  -16.8501  -17.6015 O   0  0  0  0  0  0  0  0  0  0  0  0
   24.1083  -17.2396  -18.6295 O   0  0  0  0  0  0  0  0  0  0  0  0
  2  4  1  0
  2  1  1  0
  3  2  2  0
  5  4  1  0
  6  5  1  0
  7  6  1  0
  8 10  1  0
  8  7  1  0
  8  9  1  1
 10 11  2  0
 13 12  1  0
 14 13  1  0
 14 16  1  0
 14 15  1  1
 16 18  1  0
 17 10  1  0
 16 17  1  6
 18 19  2  0
 20 21  1  0
 21 22  1  0
 22 24  1  0
 22 23  1  1
 24 26  1  0
 25 18  1  0
 24 25  1  6
 26 27  2  0
 26 28  1  0
M  END
$$$$
