RII.pdb
     RDKit          3D

 28 27  0  0  1  0  0  0  0  0999 V2000
   16.3263  -22.6900  -12.2448 N   0  0  0  0  0  0  0  0  0  0  0  0
   16.5854  -23.7092  -13.1975 C   0  0  0  0  0  0  0  0  0  0  0  0
   15.6751  -24.4490  -13.6985 N   0  0  0  0  0  0  0  0  0  0  0  0
   17.9439  -23.8845  -13.5906 N   0  0  0  0  0  0  0  0  0  0  0  0
   18.9507  -22.9295  -13.2208 C   0  0  0  0  0  0  0  0  0  0  0  0
   19.2194  -21.9192  -14.3376 C   0  0  0  0  0  0  0  0  0  0  0  0
   20.6945  -21.6089  -14.2735 C   0  0  0  0  0  0  0  0  0  0  0  0
   21.0655  -20.9393  -12.9485 C   0  0  2  0  0  0  0  0  0  0  0  0
   20.2839  -19.7105  -12.9144 N   0  0  0  0  0  0  0  0  0  0  0  0
   22.5095  -20.6119  -12.9942 C   0  0  0  0  0  0  0  0  0  0  0  0
   22.9080  -19.7100  -13.7512 O   0  0  0  0  0  0  0  0  0  0  0  0
   15.8445  -25.2201  -14.3649 C   0  0  0  0  0  0  0  0  0  0  0  0
   26.0087  -20.9920   -8.6744 C   0  0  0  0  0  0  0  0  0  0  0  0
   25.1822  -20.6195   -9.8848 C   0  0  2  0  0  0  0  0  0  0  0  0
   25.7186  -21.2485  -11.1566 C   0  0  0  0  0  0  0  0  0  0  0  0
   27.1619  -20.8773  -11.3473 C   0  0  2  0  0  0  0  0  0  0  0  0
   24.8633  -20.9572  -12.3537 N   0  0  0  0  0  0  0  0  0  0  0  0
   23.4898  -21.2644  -12.2233 C   0  0  0  0  0  0  0  0  0  0  0  0
   25.4923  -21.6124  -13.5205 O   0  0  0  0  0  0  0  0  0  0  0  0
   25.4957  -22.8536  -13.5891 C   0  0  0  0  0  0  0  0  0  0  0  0
   25.8709  -20.4896  -19.4123 C   0  0  0  0  0  0  0  0  0  0  0  0
   26.3855  -21.2967  -18.2670 C   0  0  2  0  0  0  0  0  0  0  0  0
   26.1045  -20.8235  -16.8986 C   0  0  0  0  0  0  0  0  0  0  0  0
   26.3244  -19.2941  -16.8064 C   0  0  2  0  0  0  0  0  0  0  0  0
   26.6729  -21.5201  -15.7392 N   0  0  0  0  0  0  0  0  0  0  0  0
   26.0809  -20.8566  -14.5427 C   0  0  0  0  0  0  0  0  0  0  0  0
   28.1080  -21.6404  -15.5607 O   0  0  0  0  0  0  0  0  0  0  0  0
   28.8512  -20.8788  -14.9147 O   0  0  0  0  0  0  0  0  0  0  0  0
  2  4  1  0
  2  1  1  0
  3  2  2  0
  5  4  1  0
  6  5  1  0
  7  6  1  0
  8 10  1  0
  8  7  1  0
  8  9  1  6
 10 11  2  0
 13 12  1  0
 14 13  1  0
 14 16  1  0
 14 15  1  6
 16 18  1  0
 17 10  1  0
 16 17  1  6
 18 19  2  0
 20 21  1  0
 21 22  1  0
 22 24  1  0
 22 23  1  1
 24 26  1  0
 25 18  1  0
 24 25  1  1
 26 27  2  0
 26 28  1  0
M  END
$$$$
