RII.pdb
     RDKit          3D

 28 27  0  0  1  0  0  0  0  0999 V2000
   20.8562  -20.6502  -14.8854 N   0  0  0  0  0  0  0  0  0  0  0  0
   21.0542  -19.3020  -14.4895 C   0  0  0  0  0  0  0  0  0  0  0  0
   20.2061  -18.3748  -14.7088 N   0  0  0  0  0  0  0  0  0  0  0  0
   22.2742  -19.0080  -13.8143 N   0  0  0  0  0  0  0  0  0  0  0  0
   23.2304  -20.0410  -13.5298 C   0  0  0  0  0  0  0  0  0  0  0  0
   24.4275  -19.5110  -12.7385 C   0  0  0  0  0  0  0  0  0  0  0  0
   24.6978  -20.5295  -11.6587 C   0  0  0  0  0  0  0  0  0  0  0  0
   25.8541  -21.4549  -12.0432 C   0  0  2  0  0  0  0  0  0  0  0  0
   25.2186  -22.6803  -12.5089 N   0  0  0  0  0  0  0  0  0  0  0  0
   26.6390  -21.7335  -10.8181 C   0  0  0  0  0  0  0  0  0  0  0  0
   26.2774  -22.6457  -10.0549 O   0  0  0  0  0  0  0  0  0  0  0  0
   20.3499  -17.3789  -14.4743 C   0  0  0  0  0  0  0  0  0  0  0  0
   32.1801  -22.2805   -8.4446 C   0  0  0  0  0  0  0  0  0  0  0  0
   30.6847  -22.1543   -8.2584 C   0  0  2  0  0  0  0  0  0  0  0  0
   30.0007  -21.6049   -9.4958 C   0  0  0  0  0  0  0  0  0  0  0  0
   30.7413  -20.4003  -10.0033 C   0  0  2  0  0  0  0  0  0  0  0  0
   28.5351  -21.3624   -9.2895 N   0  0  0  0  0  0  0  0  0  0  0  0
   27.7948  -21.0224  -10.4445 C   0  0  0  0  0  0  0  0  0  0  0  0
   28.3968  -20.3690   -8.2029 O   0  0  0  0  0  0  0  0  0  0  0  0
   28.1088  -19.1942   -8.4895 C   0  0  0  0  0  0  0  0  0  0  0  0
   26.9169  -20.6444   -2.2795 C   0  0  0  0  0  0  0  0  0  0  0  0
   27.2996  -19.8245   -3.4666 C   0  0  2  0  0  0  0  0  0  0  0  0
   27.9322  -20.5071   -4.6108 C   0  0  0  0  0  0  0  0  0  0  0  0
   29.0106  -21.4990   -4.1115 C   0  0  2  0  0  0  0  0  0  0  0  0
   28.4025  -19.7381   -5.7684 N   0  0  0  0  0  0  0  0  0  0  0  0
   28.5855  -20.7331   -6.8633 C   0  0  0  0  0  0  0  0  0  0  0  0
   29.5798  -18.8938   -5.6851 O   0  0  0  0  0  0  0  0  0  0  0  0
   30.7437  -19.1936   -6.0094 O   0  0  0  0  0  0  0  0  0  0  0  0
  2  4  1  0
  2  1  1  0
  3  2  2  0
  5  4  1  0
  6  5  1  0
  7  6  1  0
  8 10  1  0
  8  7  1  0
  8  9  1  1
 10 11  2  0
 13 12  1  0
 14 13  1  0
 14 16  1  0
 14 15  1  6
 16 18  1  0
 17 10  1  0
 16 17  1  1
 18 19  2  0
 20 21  1  0
 21 22  1  0
 22 24  1  0
 22 23  1  6
 24 26  1  0
 25 18  1  0
 24 25  1  1
 26 27  2  0
 26 28  1  0
M  END
$$$$
