FEG.pdb
     RDKit          3D

 25 25  0  0  1  0  0  0  0  0999 V2000
   24.5921  -12.3708  -16.9245 N   0  0  0  0  0  0  0  0  0  0  0  0
   24.7715  -10.9828  -16.7093 C   0  0  1  0  0  0  0  0  0  0  0  0
   25.9028  -10.4077  -17.5683 C   0  0  0  0  0  0  0  0  0  0  0  0
   27.1679  -11.1206  -17.2608 C   0  0  0  0  0  0  0  0  0  0  0  0
   27.5536  -12.1311  -18.1021 C   0  0  0  0  0  0  0  0  0  0  0  0
   28.7253  -12.8174  -17.8479 C   0  0  0  0  0  0  0  0  0  0  0  0
   29.4756  -12.4731  -16.7611 C   0  0  0  0  0  0  0  0  0  0  0  0
   29.0828  -11.4508  -15.9123 C   0  0  0  0  0  0  0  0  0  0  0  0
   27.9080  -10.7611  -16.1652 C   0  0  0  0  0  0  0  0  0  0  0  0
   23.5950  -10.1458  -16.9181 C   0  0  0  0  0  0  0  0  0  0  0  0
   22.5786  -10.6700  -17.4438 O   0  0  0  0  0  0  0  0  0  0  0  0
   23.4983   -8.7661  -16.5721 N   0  0  0  0  0  0  0  0  0  0  0  0
   22.3360   -7.9679  -16.8232 C   0  0  1  0  0  0  0  0  0  0  0  0
   21.4798   -7.9629  -15.5818 C   0  0  0  0  0  0  0  0  0  0  0  0
   20.1908   -7.2183  -15.8482 C   0  0  0  0  0  0  0  0  0  0  0  0
   19.3483   -7.1375  -14.6221 C   0  0  0  0  0  0  0  0  0  0  0  0
   18.7596   -8.1494  -14.1699 O   0  0  0  0  0  0  0  0  0  0  0  0
   22.6662   -6.5974  -17.2807 C   0  0  0  0  0  0  0  0  0  0  0  0
   22.1929   -5.5568  -16.7425 O   0  0  0  0  0  0  0  0  0  0  0  0
   19.1968   -5.9342  -13.9512 O   0  0  0  0  0  0  0  0  0  0  0  0
   23.5512   -6.3833  -18.3716 N   0  0  0  0  0  0  0  0  0  0  0  0
   23.9131   -5.0182  -18.7816 C   0  0  0  0  0  0  0  0  0  0  0  0
   25.4046   -4.9075  -18.8848 C   0  0  0  0  0  0  0  0  0  0  0  0
   26.1991   -5.9844  -18.5240 O   0  0  0  0  0  0  0  0  0  0  0  0
   25.9122   -3.8385  -19.2974 O   0  0  0  0  0  0  0  0  0  0  0  0
  2 10  1  0
  2  1  1  6
  3  4  1  0
  3  2  1  0
  4  9  2  0
  4  5  1  0
  5  6  2  0
  6  7  1  0
  8  7  2  0
  9  8  1  0
 10 11  2  0
 12 10  1  0
 12 13  1  0
 13 14  1  1
 14 15  1  0
 16 15  1  0
 16 17  2  0
 18 13  1  0
 18 21  1  0
 19 18  2  0
 20 16  1  0
 22 21  1  0
 23 22  1  0
 23 24  1  0
 25 23  2  0
M  END
$$$$
