FEG.pdb
     RDKit          3D

 25 25  0  0  1  0  0  0  0  0999 V2000
   24.3317  -20.3119   -9.4793 N   0  0  0  0  0  0  0  0  0  0  0  0
   25.6265  -20.2571  -10.0498 C   0  0  1  0  0  0  0  0  0  0  0  0
   26.5870  -21.2566   -9.3967 C   0  0  0  0  0  0  0  0  0  0  0  0
   27.3171  -20.5892   -8.2900 C   0  0  0  0  0  0  0  0  0  0  0  0
   26.5778  -20.0416   -7.2744 C   0  0  0  0  0  0  0  0  0  0  0  0
   27.2224  -19.4122   -6.2273 C   0  0  0  0  0  0  0  0  0  0  0  0
   28.5858  -19.3490   -6.2267 C   0  0  0  0  0  0  0  0  0  0  0  0
   29.3305  -19.9037   -7.2552 C   0  0  0  0  0  0  0  0  0  0  0  0
   28.6861  -20.5355   -8.3065 C   0  0  0  0  0  0  0  0  0  0  0  0
   25.6988  -20.4600  -11.4928 C   0  0  0  0  0  0  0  0  0  0  0  0
   24.6540  -20.8200  -12.0953 O   0  0  0  0  0  0  0  0  0  0  0  0
   26.8686  -20.2824  -12.2882 N   0  0  0  0  0  0  0  0  0  0  0  0
   26.8575  -20.2787  -13.7204 C   0  0  1  0  0  0  0  0  0  0  0  0
   28.2162  -19.8447  -14.2098 C   0  0  0  0  0  0  0  0  0  0  0  0
   28.2553  -19.8822  -15.7211 C   0  0  0  0  0  0  0  0  0  0  0  0
   27.4539  -18.7736  -16.3115 C   0  0  0  0  0  0  0  0  0  0  0  0
   26.5094  -19.0050  -17.1048 O   0  0  0  0  0  0  0  0  0  0  0  0
   26.4445  -21.5803  -14.2965 C   0  0  0  0  0  0  0  0  0  0  0  0
   27.0604  -22.6608  -14.0735 O   0  0  0  0  0  0  0  0  0  0  0  0
   27.7375  -17.4546  -15.9939 O   0  0  0  0  0  0  0  0  0  0  0  0
   25.3102  -21.6775  -15.1468 N   0  0  0  0  0  0  0  0  0  0  0  0
   24.7143  -22.9877  -15.4485 C   0  0  0  0  0  0  0  0  0  0  0  0
   25.3790  -23.5707  -16.6592 C   0  0  0  0  0  0  0  0  0  0  0  0
   25.4628  -22.8226  -17.8230 O   0  0  0  0  0  0  0  0  0  0  0  0
   25.8505  -24.7304  -16.6001 O   0  0  0  0  0  0  0  0  0  0  0  0
  2 10  1  0
  2  1  1  1
  3  4  1  0
  3  2  1  0
  4  9  2  0
  4  5  1  0
  5  6  2  0
  6  7  1  0
  8  7  2  0
  9  8  1  0
 10 11  2  0
 12 10  1  0
 12 13  1  0
 13 14  1  6
 14 15  1  0
 16 15  1  0
 16 17  2  0
 18 13  1  0
 18 21  1  0
 19 18  2  0
 20 16  1  0
 22 21  1  0
 23 22  1  0
 23 24  1  0
 25 23  2  0
M  END
$$$$
