FEG.pdb
     RDKit          3D

 25 25  0  0  1  0  0  0  0  0999 V2000
   20.3052  -12.4121  -15.7066 N   0  0  0  0  0  0  0  0  0  0  0  0
   19.9298  -11.2867  -16.4796 C   0  0  1  0  0  0  0  0  0  0  0  0
   18.6736  -11.5543  -17.3153 C   0  0  0  0  0  0  0  0  0  0  0  0
   18.9690  -12.5947  -18.3319 C   0  0  0  0  0  0  0  0  0  0  0  0
   19.6001  -12.2031  -19.4835 C   0  0  0  0  0  0  0  0  0  0  0  0
   19.8914  -13.1434  -20.4526 C   0  0  0  0  0  0  0  0  0  0  0  0
   19.5434  -14.4461  -20.2417 C   0  0  0  0  0  0  0  0  0  0  0  0
   18.9052  -14.8390  -19.0761 C   0  0  0  0  0  0  0  0  0  0  0  0
   18.6120  -13.8976  -18.1027 C   0  0  0  0  0  0  0  0  0  0  0  0
   19.7081  -10.0484  -15.7407 C   0  0  0  0  0  0  0  0  0  0  0  0
   19.1825  -10.1233  -14.5996 O   0  0  0  0  0  0  0  0  0  0  0  0
   20.0411   -8.7435  -16.2087 N   0  0  0  0  0  0  0  0  0  0  0  0
   19.8688   -7.5557  -15.4271 C   0  0  1  0  0  0  0  0  0  0  0  0
   21.2096   -6.8823  -15.2754 C   0  0  0  0  0  0  0  0  0  0  0  0
   21.0915   -5.7069  -14.3313 C   0  0  0  0  0  0  0  0  0  0  0  0
   22.4304   -5.1503  -13.9889 C   0  0  0  0  0  0  0  0  0  0  0  0
   23.4845   -5.6902  -14.4041 O   0  0  0  0  0  0  0  0  0  0  0  0
   18.8438   -6.6424  -15.9855 C   0  0  0  0  0  0  0  0  0  0  0  0
   18.6925   -6.4494  -17.2250 O   0  0  0  0  0  0  0  0  0  0  0  0
   22.5395   -4.0166  -13.1990 O   0  0  0  0  0  0  0  0  0  0  0  0
   17.9620   -5.9236  -15.1341 N   0  0  0  0  0  0  0  0  0  0  0  0
   17.0196   -4.9429  -15.6933 C   0  0  0  0  0  0  0  0  0  0  0  0
   16.3578   -4.1942  -14.5757 C   0  0  0  0  0  0  0  0  0  0  0  0
   16.5950   -4.5703  -13.2630 O   0  0  0  0  0  0  0  0  0  0  0  0
   15.5970   -3.2359  -14.8469 O   0  0  0  0  0  0  0  0  0  0  0  0
  2 10  1  0
  2  1  1  1
  3  4  1  0
  3  2  1  0
  4  9  2  0
  4  5  1  0
  5  6  2  0
  6  7  1  0
  8  7  2  0
  9  8  1  0
 10 11  2  0
 12 10  1  0
 12 13  1  0
 13 14  1  6
 14 15  1  0
 16 15  1  0
 16 17  2  0
 18 13  1  0
 18 21  1  0
 19 18  2  0
 20 16  1  0
 22 21  1  0
 23 22  1  0
 23 24  1  0
 25 23  2  0
M  END
$$$$
