FEG.pdb
     RDKit          3D

 25 25  0  0  1  0  0  0  0  0999 V2000
   28.8003  -19.4668  -12.8842 N   0  0  0  0  0  0  0  0  0  0  0  0
   27.8944  -20.4745  -12.4733 C   0  0  1  0  0  0  0  0  0  0  0  0
   27.9372  -20.7056  -10.9590 C   0  0  0  0  0  0  0  0  0  0  0  0
   29.2768  -21.2165  -10.5750 C   0  0  0  0  0  0  0  0  0  0  0  0
   30.0741  -21.7289  -11.5647 C   0  0  0  0  0  0  0  0  0  0  0  0
   31.3276  -22.2138  -11.2452 C   0  0  0  0  0  0  0  0  0  0  0  0
   31.7462  -22.1719   -9.9469 C   0  0  0  0  0  0  0  0  0  0  0  0
   30.9375  -21.6532   -8.9483 C   0  0  0  0  0  0  0  0  0  0  0  0
   29.6800  -21.1663   -9.2664 C   0  0  0  0  0  0  0  0  0  0  0  0
   26.4986  -20.2703  -12.8454 C   0  0  0  0  0  0  0  0  0  0  0  0
   26.0412  -19.0981  -12.8161 O   0  0  0  0  0  0  0  0  0  0  0  0
   25.5973  -21.3003  -13.2446 N   0  0  0  0  0  0  0  0  0  0  0  0
   24.2696  -21.0485  -13.7191 C   0  0  1  0  0  0  0  0  0  0  0  0
   24.0493  -21.8507  -14.9769 C   0  0  0  0  0  0  0  0  0  0  0  0
   22.6609  -21.5905  -15.5170 C   0  0  0  0  0  0  0  0  0  0  0  0
   22.6990  -20.6733  -16.6904 C   0  0  0  0  0  0  0  0  0  0  0  0
   23.2593  -21.0108  -17.7615 O   0  0  0  0  0  0  0  0  0  0  0  0
   23.2317  -21.3162  -12.6956 C   0  0  0  0  0  0  0  0  0  0  0  0
   23.1614  -22.4002  -12.0503 O   0  0  0  0  0  0  0  0  0  0  0  0
   22.1121  -19.4196  -16.6222 O   0  0  0  0  0  0  0  0  0  0  0  0
   22.2433  -20.3441  -12.3838 N   0  0  0  0  0  0  0  0  0  0  0  0
   21.1879  -20.6412  -11.4038 C   0  0  0  0  0  0  0  0  0  0  0  0
   19.9509  -21.0882  -12.1233 C   0  0  0  0  0  0  0  0  0  0  0  0
   18.8103  -20.3020  -12.0802 O   0  0  0  0  0  0  0  0  0  0  0  0
   19.9674  -22.1704  -12.7553 O   0  0  0  0  0  0  0  0  0  0  0  0
  2 10  1  0
  2  1  1  1
  3  4  1  0
  3  2  1  0
  4  9  2  0
  4  5  1  0
  5  6  2  0
  6  7  1  0
  8  7  2  0
  9  8  1  0
 10 11  2  0
 12 10  1  0
 12 13  1  0
 13 14  1  6
 14 15  1  0
 16 15  1  0
 16 17  2  0
 18 13  1  0
 18 21  1  0
 19 18  2  0
 20 16  1  0
 22 21  1  0
 23 22  1  0
 23 24  1  0
 25 23  2  0
M  END
$$$$
