FEG.pdb
     RDKit          3D

 25 25  0  0  1  0  0  0  0  0999 V2000
   18.6069   -6.3213  -18.2216 N   0  0  0  0  0  0  0  0  0  0  0  0
   18.9009   -7.5870  -17.6593 C   0  0  1  0  0  0  0  0  0  0  0  0
   18.5570   -8.7357  -18.6135 C   0  0  0  0  0  0  0  0  0  0  0  0
   17.0939   -8.7496  -18.8628 C   0  0  0  0  0  0  0  0  0  0  0  0
   16.6317   -8.1298  -19.9941 C   0  0  0  0  0  0  0  0  0  0  0  0
   15.2760   -8.1222  -20.2596 C   0  0  0  0  0  0  0  0  0  0  0  0
   14.4237   -8.7340  -19.3868 C   0  0  0  0  0  0  0  0  0  0  0  0
   14.8942   -9.3599  -18.2435 C   0  0  0  0  0  0  0  0  0  0  0  0
   16.2535   -9.3688  -17.9752 C   0  0  0  0  0  0  0  0  0  0  0  0
   20.2760   -7.7852  -17.2138 C   0  0  0  0  0  0  0  0  0  0  0  0
   21.2063   -7.4956  -18.0105 O   0  0  0  0  0  0  0  0  0  0  0  0
   20.6596   -8.2858  -15.9351 N   0  0  0  0  0  0  0  0  0  0  0  0
   22.0211   -8.3903  -15.5033 C   0  0  1  0  0  0  0  0  0  0  0  0
   22.2383   -7.4276  -14.3631 C   0  0  0  0  0  0  0  0  0  0  0  0
   22.0210   -6.0086  -14.8388 C   0  0  0  0  0  0  0  0  0  0  0  0
   22.3512   -5.0228  -13.7717 C   0  0  0  0  0  0  0  0  0  0  0  0
   22.1838   -3.7917  -13.9493 O   0  0  0  0  0  0  0  0  0  0  0  0
   22.4076   -9.7760  -15.1470 C   0  0  0  0  0  0  0  0  0  0  0  0
   21.7413  -10.4957  -14.3504 O   0  0  0  0  0  0  0  0  0  0  0  0
   22.8536   -5.4487  -12.5522 O   0  0  0  0  0  0  0  0  0  0  0  0
   23.5728  -10.3753  -15.6970 N   0  0  0  0  0  0  0  0  0  0  0  0
   24.0514  -11.6727  -15.1965 C   0  0  0  0  0  0  0  0  0  0  0  0
   25.2059  -12.1348  -16.0337 C   0  0  0  0  0  0  0  0  0  0  0  0
   25.9759  -13.2061  -15.6089 O   0  0  0  0  0  0  0  0  0  0  0  0
   25.4581  -11.5429  -17.1092 O   0  0  0  0  0  0  0  0  0  0  0  0
  2 10  1  0
  2  1  1  6
  3  4  1  0
  3  2  1  0
  4  9  2  0
  4  5  1  0
  5  6  2  0
  6  7  1  0
  8  7  2  0
  9  8  1  0
 10 11  2  0
 12 10  1  0
 12 13  1  0
 13 14  1  1
 14 15  1  0
 16 15  1  0
 16 17  2  0
 18 13  1  0
 18 21  1  0
 19 18  2  0
 20 16  1  0
 22 21  1  0
 23 22  1  0
 23 24  1  0
 25 23  2  0
M  END
$$$$
