FEG.pdb
     RDKit          3D

 25 25  0  0  1  0  0  0  0  0999 V2000
   25.7044  -35.1390   -4.6688 N   0  0  0  0  0  0  0  0  0  0  0  0
   26.9587  -34.6839   -4.1951 C   0  0  1  0  0  0  0  0  0  0  0  0
   27.0997  -33.1622   -4.3073 C   0  0  0  0  0  0  0  0  0  0  0  0
   26.8358  -32.7434   -5.7066 C   0  0  0  0  0  0  0  0  0  0  0  0
   27.7896  -33.0246   -6.6494 C   0  0  0  0  0  0  0  0  0  0  0  0
   27.5790  -32.6502   -7.9623 C   0  0  0  0  0  0  0  0  0  0  0  0
   26.4220  -32.0063   -8.2932 C   0  0  0  0  0  0  0  0  0  0  0  0
   25.4594  -31.7234   -7.3375 C   0  0  0  0  0  0  0  0  0  0  0  0
   25.6684  -32.0980   -6.0200 C   0  0  0  0  0  0  0  0  0  0  0  0
   27.2982  -35.0550   -2.8256 C   0  0  0  0  0  0  0  0  0  0  0  0
   26.4010  -35.5718   -2.1102 O   0  0  0  0  0  0  0  0  0  0  0  0
   28.5777  -34.8791   -2.2217 N   0  0  0  0  0  0  0  0  0  0  0  0
   28.9342  -35.4331   -0.9500 C   0  0  1  0  0  0  0  0  0  0  0  0
   30.3400  -35.9718   -1.0382 C   0  0  0  0  0  0  0  0  0  0  0  0
   30.3503  -37.2551   -1.8382 C   0  0  0  0  0  0  0  0  0  0  0  0
   30.7469  -37.0084   -3.2530 C   0  0  0  0  0  0  0  0  0  0  0  0
   31.2554  -35.9163   -3.6047 O   0  0  0  0  0  0  0  0  0  0  0  0
   28.7733  -34.4687    0.1639 C   0  0  0  0  0  0  0  0  0  0  0  0
   29.2356  -34.6686    1.3227 O   0  0  0  0  0  0  0  0  0  0  0  0
   30.5607  -37.9874   -4.2162 O   0  0  0  0  0  0  0  0  0  0  0  0
   28.0755  -33.2450   -0.0224 N   0  0  0  0  0  0  0  0  0  0  0  0
   27.9187  -32.2986    1.0922 C   0  0  0  0  0  0  0  0  0  0  0  0
   26.6824  -32.6418    1.8675 C   0  0  0  0  0  0  0  0  0  0  0  0
   26.2478  -31.7956    2.8756 O   0  0  0  0  0  0  0  0  0  0  0  0
   26.0584  -33.6929    1.5912 O   0  0  0  0  0  0  0  0  0  0  0  0
  2 10  1  0
  2  1  1  1
  3  4  1  0
  3  2  1  0
  4  9  2  0
  4  5  1  0
  5  6  2  0
  6  7  1  0
  8  7  2  0
  9  8  1  0
 10 11  2  0
 12 10  1  0
 12 13  1  0
 13 14  1  6
 14 15  1  0
 16 15  1  0
 16 17  2  0
 18 13  1  0
 18 21  1  0
 19 18  2  0
 20 16  1  0
 22 21  1  0
 23 22  1  0
 23 24  1  0
 25 23  2  0
M  END
$$$$
