FEG.pdb
     RDKit          3D

 25 25  0  0  1  0  0  0  0  0999 V2000
   25.7731  -21.3123   -7.4488 N   0  0  0  0  0  0  0  0  0  0  0  0
   26.2197  -20.1587   -8.1378 C   0  0  1  0  0  0  0  0  0  0  0  0
   27.7359  -19.9687   -8.0218 C   0  0  0  0  0  0  0  0  0  0  0  0
   28.1079  -19.8262   -6.5919 C   0  0  0  0  0  0  0  0  0  0  0  0
   28.7246  -20.8872   -5.9824 C   0  0  0  0  0  0  0  0  0  0  0  0
   29.0856  -20.7914   -4.6524 C   0  0  0  0  0  0  0  0  0  0  0  0
   28.8195  -19.6386   -3.9721 C   0  0  0  0  0  0  0  0  0  0  0  0
   28.1957  -18.5673   -4.5914 C   0  0  0  0  0  0  0  0  0  0  0  0
   27.8327  -18.6612   -5.9252 C   0  0  0  0  0  0  0  0  0  0  0  0
   25.8769  -20.0868   -9.5540 C   0  0  0  0  0  0  0  0  0  0  0  0
   26.2321  -19.0668  -10.2003 O   0  0  0  0  0  0  0  0  0  0  0  0
   25.1642  -21.0878  -10.2770 N   0  0  0  0  0  0  0  0  0  0  0  0
   24.6855  -20.9065  -11.6147 C   0  0  1  0  0  0  0  0  0  0  0  0
   25.0860  -22.1070  -12.4346 C   0  0  0  0  0  0  0  0  0  0  0  0
   26.5917  -22.1627  -12.5645 C   0  0  0  0  0  0  0  0  0  0  0  0
   27.0700  -21.3152  -13.6927 C   0  0  0  0  0  0  0  0  0  0  0  0
   26.2827  -20.9147  -14.5842 O   0  0  0  0  0  0  0  0  0  0  0  0
   23.2272  -20.6490  -11.6746 C   0  0  0  0  0  0  0  0  0  0  0  0
   22.4483  -20.8588  -10.7021 O   0  0  0  0  0  0  0  0  0  0  0  0
   28.4039  -20.9493  -13.7808 O   0  0  0  0  0  0  0  0  0  0  0  0
   22.6213  -20.1424  -12.8559 N   0  0  0  0  0  0  0  0  0  0  0  0
   21.2413  -19.6352  -12.8277 C   0  0  0  0  0  0  0  0  0  0  0  0
   20.8328  -19.2243  -14.2104 C   0  0  0  0  0  0  0  0  0  0  0  0
   21.7547  -19.2821  -15.2437 O   0  0  0  0  0  0  0  0  0  0  0  0
   19.6592  -18.8333  -14.4114 O   0  0  0  0  0  0  0  0  0  0  0  0
  2 10  1  0
  2  1  1  6
  3  4  1  0
  3  2  1  0
  4  9  2  0
  4  5  1  0
  5  6  2  0
  6  7  1  0
  8  7  2  0
  9  8  1  0
 10 11  2  0
 12 10  1  0
 12 13  1  0
 13 14  1  6
 14 15  1  0
 16 15  1  0
 16 17  2  0
 18 13  1  0
 18 21  1  0
 19 18  2  0
 20 16  1  0
 22 21  1  0
 23 22  1  0
 23 24  1  0
 25 23  2  0
M  END
$$$$
