FEG.pdb
     RDKit          3D

 25 25  0  0  1  0  0  0  0  0999 V2000
   23.4924  -11.1813  -19.2343 N   0  0  0  0  0  0  0  0  0  0  0  0
   23.0543  -11.0445  -17.8948 C   0  0  1  0  0  0  0  0  0  0  0  0
   24.1228  -11.4893  -16.8905 C   0  0  0  0  0  0  0  0  0  0  0  0
   24.2911  -12.9620  -16.9681 C   0  0  0  0  0  0  0  0  0  0  0  0
   23.4651  -13.7417  -16.2017 C   0  0  0  0  0  0  0  0  0  0  0  0
   23.5922  -15.1165  -16.2477 C   0  0  0  0  0  0  0  0  0  0  0  0
   24.5406  -15.6702  -17.0580 C   0  0  0  0  0  0  0  0  0  0  0  0
   25.3745  -14.8790  -17.8318 C   0  0  0  0  0  0  0  0  0  0  0  0
   25.2488  -13.4999  -17.7873 C   0  0  0  0  0  0  0  0  0  0  0  0
   22.6106   -9.7119  -17.5000 C   0  0  0  0  0  0  0  0  0  0  0  0
   23.2725   -8.7210  -17.9050 O   0  0  0  0  0  0  0  0  0  0  0  0
   21.4755   -9.4342  -16.6833 N   0  0  0  0  0  0  0  0  0  0  0  0
   20.9967   -8.1104  -16.4192 C   0  0  1  0  0  0  0  0  0  0  0  0
   19.4904   -8.1478  -16.3594 C   0  0  0  0  0  0  0  0  0  0  0  0
   18.9417   -6.7392  -16.3150 C   0  0  0  0  0  0  0  0  0  0  0  0
   17.4564   -6.7397  -16.1988 C   0  0  0  0  0  0  0  0  0  0  0  0
   16.8086   -7.8134  -16.1479 O   0  0  0  0  0  0  0  0  0  0  0  0
   21.5907   -7.5161  -15.1983 C   0  0  0  0  0  0  0  0  0  0  0  0
   21.6742   -8.1343  -14.0996 O   0  0  0  0  0  0  0  0  0  0  0  0
   16.7551   -5.5455  -16.1441 O   0  0  0  0  0  0  0  0  0  0  0  0
   22.1065   -6.1921  -15.2052 N   0  0  0  0  0  0  0  0  0  0  0  0
   22.6530   -5.5980  -13.9760 C   0  0  0  0  0  0  0  0  0  0  0  0
   21.8260   -4.4099  -13.5861 C   0  0  0  0  0  0  0  0  0  0  0  0
   22.1780   -3.6651  -12.4714 O   0  0  0  0  0  0  0  0  0  0  0  0
   20.8251   -4.1072  -14.2769 O   0  0  0  0  0  0  0  0  0  0  0  0
  2 10  1  0
  2  1  1  6
  3  4  1  0
  3  2  1  0
  4  9  2  0
  4  5  1  0
  5  6  2  0
  6  7  1  0
  8  7  2  0
  9  8  1  0
 10 11  2  0
 12 10  1  0
 12 13  1  0
 13 14  1  1
 14 15  1  0
 16 15  1  0
 16 17  2  0
 18 13  1  0
 18 21  1  0
 19 18  2  0
 20 16  1  0
 22 21  1  0
 23 22  1  0
 23 24  1  0
 25 23  2  0
M  END
$$$$
