FEG.pdb
     RDKit          3D

 25 25  0  0  1  0  0  0  0  0999 V2000
   24.4654  -26.8985  -17.8757 N   0  0  0  0  0  0  0  0  0  0  0  0
   24.3995  -26.4557  -16.5323 C   0  0  1  0  0  0  0  0  0  0  0  0
   25.4429  -25.3751  -16.2297 C   0  0  0  0  0  0  0  0  0  0  0  0
   26.8015  -25.9138  -16.4888 C   0  0  0  0  0  0  0  0  0  0  0  0
   27.2512  -26.9289  -15.6856 C   0  0  0  0  0  0  0  0  0  0  0  0
   28.5106  -27.4558  -15.8967 C   0  0  0  0  0  0  0  0  0  0  0  0
   29.2822  -26.9525  -16.9036 C   0  0  0  0  0  0  0  0  0  0  0  0
   28.8246  -25.9259  -17.7141 C   0  0  0  0  0  0  0  0  0  0  0  0
   27.5618  -25.3959  -17.5042 C   0  0  0  0  0  0  0  0  0  0  0  0
   23.1049  -25.9505  -16.0882 C   0  0  0  0  0  0  0  0  0  0  0  0
   22.4016  -25.3114  -16.9134 O   0  0  0  0  0  0  0  0  0  0  0  0
   22.5624  -26.1220  -14.7809 N   0  0  0  0  0  0  0  0  0  0  0  0
   21.2376  -25.7184  -14.4158 C   0  0  1  0  0  0  0  0  0  0  0  0
   20.9244  -26.2777  -13.0509 C   0  0  0  0  0  0  0  0  0  0  0  0
   19.4635  -26.0586  -12.7274 C   0  0  0  0  0  0  0  0  0  0  0  0
   18.6766  -27.3121  -12.8986 C   0  0  0  0  0  0  0  0  0  0  0  0
   17.8842  -27.4560  -13.8610 O   0  0  0  0  0  0  0  0  0  0  0  0
   21.0456  -24.2500  -14.4764 C   0  0  0  0  0  0  0  0  0  0  0  0
   21.8447  -23.4266  -13.9474 O   0  0  0  0  0  0  0  0  0  0  0  0
   18.8050  -28.3521  -11.9916 O   0  0  0  0  0  0  0  0  0  0  0  0
   19.9279  -23.6850  -15.1479 N   0  0  0  0  0  0  0  0  0  0  0  0
   19.8208  -22.2289  -15.3228 C   0  0  0  0  0  0  0  0  0  0  0  0
   19.0946  -21.6382  -14.1518 C   0  0  0  0  0  0  0  0  0  0  0  0
   18.6707  -22.4619  -13.1209 O   0  0  0  0  0  0  0  0  0  0  0  0
   18.8811  -20.4035  -14.1230 O   0  0  0  0  0  0  0  0  0  0  0  0
  2 10  1  0
  2  1  1  6
  3  4  1  0
  3  2  1  0
  4  9  2  0
  4  5  1  0
  5  6  2  0
  6  7  1  0
  8  7  2  0
  9  8  1  0
 10 11  2  0
 12 10  1  0
 12 13  1  0
 13 14  1  1
 14 15  1  0
 16 15  1  0
 16 17  2  0
 18 13  1  0
 18 21  1  0
 19 18  2  0
 20 16  1  0
 22 21  1  0
 23 22  1  0
 23 24  1  0
 25 23  2  0
M  END
$$$$
