FEG.pdb
     RDKit          3D

 25 25  0  0  1  0  0  0  0  0999 V2000
   26.5744  -22.0464  -14.0918 N   0  0  0  0  0  0  0  0  0  0  0  0
   25.8322  -20.9469  -13.5967 C   0  0  1  0  0  0  0  0  0  0  0  0
   26.7321  -19.7617  -13.2310 C   0  0  0  0  0  0  0  0  0  0  0  0
   27.5490  -20.1102  -12.0418 C   0  0  0  0  0  0  0  0  0  0  0  0
   26.9335  -20.1003  -10.8175 C   0  0  0  0  0  0  0  0  0  0  0  0
   27.6618  -20.4193   -9.6879 C   0  0  0  0  0  0  0  0  0  0  0  0
   28.9826  -20.7384   -9.8158 C   0  0  0  0  0  0  0  0  0  0  0  0
   29.6021  -20.7474  -11.0552 C   0  0  0  0  0  0  0  0  0  0  0  0
   28.8736  -20.4278  -12.1897 C   0  0  0  0  0  0  0  0  0  0  0  0
   24.7774  -20.4424  -14.4693 C   0  0  0  0  0  0  0  0  0  0  0  0
   24.8403  -20.7150  -15.6964 O   0  0  0  0  0  0  0  0  0  0  0  0
   23.6669  -19.6563  -14.0433 N   0  0  0  0  0  0  0  0  0  0  0  0
   22.5964  -19.2651  -14.9106 C   0  0  1  0  0  0  0  0  0  0  0  0
   21.3132  -19.2630  -14.1185 C   0  0  0  0  0  0  0  0  0  0  0  0
   20.7325  -20.6587  -14.0752 C   0  0  0  0  0  0  0  0  0  0  0  0
   19.4322  -20.6822  -13.3482 C   0  0  0  0  0  0  0  0  0  0  0  0
   18.4579  -21.3451  -13.7798 O   0  0  0  0  0  0  0  0  0  0  0  0
   22.8429  -17.9661  -15.5801 C   0  0  0  0  0  0  0  0  0  0  0  0
   21.9672  -17.3643  -16.2639 O   0  0  0  0  0  0  0  0  0  0  0  0
   19.2715  -19.9673  -12.1718 O   0  0  0  0  0  0  0  0  0  0  0  0
   24.1050  -17.3204  -15.4829 N   0  0  0  0  0  0  0  0  0  0  0  0
   24.3227  -16.0096  -16.1131 C   0  0  0  0  0  0  0  0  0  0  0  0
   24.6492  -16.2020  -17.5636 C   0  0  0  0  0  0  0  0  0  0  0  0
   24.1107  -15.3420  -18.5079 O   0  0  0  0  0  0  0  0  0  0  0  0
   25.4070  -17.1412  -17.9014 O   0  0  0  0  0  0  0  0  0  0  0  0
  2 10  1  0
  2  1  1  6
  3  4  1  0
  3  2  1  0
  4  9  2  0
  4  5  1  0
  5  6  2  0
  6  7  1  0
  8  7  2  0
  9  8  1  0
 10 11  2  0
 12 10  1  0
 12 13  1  0
 13 14  1  1
 14 15  1  0
 16 15  1  0
 16 17  2  0
 18 13  1  0
 18 21  1  0
 19 18  2  0
 20 16  1  0
 22 21  1  0
 23 22  1  0
 23 24  1  0
 25 23  2  0
M  END
$$$$
