FEG.pdb
     RDKit          3D

 25 25  0  0  1  0  0  0  0  0999 V2000
   23.5878   -9.6136  -17.2609 N   0  0  0  0  0  0  0  0  0  0  0  0
   23.5322   -8.4828  -16.4106 C   0  0  1  0  0  0  0  0  0  0  0  0
   24.9242   -7.9131  -16.1174 C   0  0  0  0  0  0  0  0  0  0  0  0
   25.9131   -9.0193  -16.0809 C   0  0  0  0  0  0  0  0  0  0  0  0
   26.8326   -9.0892  -17.0945 C   0  0  0  0  0  0  0  0  0  0  0  0
   27.7688  -10.1050  -17.0942 C   0  0  0  0  0  0  0  0  0  0  0  0
   27.7577  -11.0199  -16.0815 C   0  0  0  0  0  0  0  0  0  0  0  0
   26.8265  -10.9465  -15.0580 C   0  0  0  0  0  0  0  0  0  0  0  0
   25.8866   -9.9285  -15.0561 C   0  0  0  0  0  0  0  0  0  0  0  0
   22.6952   -7.3790  -16.8682 C   0  0  0  0  0  0  0  0  0  0  0  0
   22.4174   -7.3124  -18.0940 O   0  0  0  0  0  0  0  0  0  0  0  0
   22.1585   -6.3559  -16.0327 N   0  0  0  0  0  0  0  0  0  0  0  0
   21.2691   -5.3368  -16.5035 C   0  0  1  0  0  0  0  0  0  0  0  0
   19.9931   -5.4060  -15.7028 C   0  0  0  0  0  0  0  0  0  0  0  0
   18.9713   -4.4514  -16.2789 C   0  0  0  0  0  0  0  0  0  0  0  0
   17.7128   -4.4588  -15.4815 C   0  0  0  0  0  0  0  0  0  0  0  0
   17.6004   -5.1658  -14.4507 O   0  0  0  0  0  0  0  0  0  0  0  0
   21.8755   -3.9847  -16.4742 C   0  0  0  0  0  0  0  0  0  0  0  0
   22.4444   -3.5049  -15.4532 O   0  0  0  0  0  0  0  0  0  0  0  0
   16.6330   -3.6792  -15.8650 O   0  0  0  0  0  0  0  0  0  0  0  0
   21.8453   -3.1441  -17.6194 N   0  0  0  0  0  0  0  0  0  0  0  0
   22.5138   -1.8343  -17.6011 C   0  0  0  0  0  0  0  0  0  0  0  0
   21.6471   -0.8422  -16.8855 C   0  0  0  0  0  0  0  0  0  0  0  0
   20.4546   -1.2589  -16.3149 O   0  0  0  0  0  0  0  0  0  0  0  0
   22.0156    0.3535  -16.8139 O   0  0  0  0  0  0  0  0  0  0  0  0
  2 10  1  0
  2  1  1  6
  3  4  1  0
  3  2  1  0
  4  9  2  0
  4  5  1  0
  5  6  2  0
  6  7  1  0
  8  7  2  0
  9  8  1  0
 10 11  2  0
 12 10  1  0
 12 13  1  0
 13 14  1  1
 14 15  1  0
 16 15  1  0
 16 17  2  0
 18 13  1  0
 18 21  1  0
 19 18  2  0
 20 16  1  0
 22 21  1  0
 23 22  1  0
 23 24  1  0
 25 23  2  0
M  END
$$$$
