YEA.pdb
     RDKit          3D

 27 27  0  0  1  0  0  0  0  0999 V2000
    5.2388  -10.3204   26.3381 O   0  0  0  0  0  0  0  0  0  0  0  0
    5.9423  -11.5017   26.1825 C   0  0  0  0  0  0  0  0  0  0  0  0
    5.7877  -12.5696   27.0419 C   0  0  0  0  0  0  0  0  0  0  0  0
    6.5263  -13.6937   26.8061 C   0  0  0  0  0  0  0  0  0  0  0  0
    7.4156  -13.8175   25.7578 C   0  0  0  0  0  0  0  0  0  0  0  0
    8.1786  -15.0697   25.5782 C   0  0  0  0  0  0  0  0  0  0  0  0
    7.6709  -15.9042   24.4227 C   0  0  2  0  0  0  0  0  0  0  0  0
    6.4498  -16.5713   24.9081 N   0  0  0  0  0  0  0  0  0  0  0  0
    8.6347  -16.9361   23.9832 C   0  0  0  0  0  0  0  0  0  0  0  0
    8.7170  -18.0017   24.6448 O   0  0  0  0  0  0  0  0  0  0  0  0
    7.5511  -12.7463   24.9207 C   0  0  0  0  0  0  0  0  0  0  0  0
    6.8222  -11.5920   25.1253 C   0  0  0  0  0  0  0  0  0  0  0  0
    9.4661  -16.7475   22.8323 N   0  0  0  0  0  0  0  0  0  0  0  0
   10.5083  -17.7160   22.5027 C   0  0  1  0  0  0  0  0  0  0  0  0
   11.1284  -17.3867   21.1790 C   0  0  0  0  0  0  0  0  0  0  0  0
   12.2682  -18.2505   20.7725 C   0  0  0  0  0  0  0  0  0  0  0  0
   12.7927  -17.9901   19.4288 C   0  0  0  0  0  0  0  0  0  0  0  0
   12.0295  -17.8900   18.4417 O   0  0  0  0  0  0  0  0  0  0  0  0
   11.6138  -17.5906   23.5198 C   0  0  0  0  0  0  0  0  0  0  0  0
   11.6946  -16.5095   24.1509 O   0  0  0  0  0  0  0  0  0  0  0  0
   14.1494  -17.8411   19.1754 O   0  0  0  0  0  0  0  0  0  0  0  0
   12.1679  -18.9414   26.1369 C   0  0  0  0  0  0  0  0  0  0  0  0
   13.2276  -18.7861   25.0434 C   0  0  2  0  0  0  0  0  0  0  0  0
   12.5430  -18.6082   23.7913 N   0  0  0  0  0  0  0  0  0  0  0  0
   14.0999  -19.9745   25.0478 C   0  0  0  0  0  0  0  0  0  0  0  0
   13.6967  -21.1870   24.5241 O   0  0  0  0  0  0  0  0  0  0  0  0
   15.2481  -19.8898   25.5419 O   0  0  0  0  0  0  0  0  0  0  0  0
  2  3  2  0
  2  1  1  0
  4  3  1  0
  5  4  2  0
  6  5  1  0
  7  9  1  0
  7  6  1  0
  7  8  1  1
  9 10  2  0
 11  5  1  0
 11 12  2  0
 12  2  1  0
 13  9  1  0
 13 14  1  0
 14 15  1  6
 15 16  1  0
 17 18  2  0
 17 16  1  0
 19 24  1  0
 19 14  1  0
 20 19  2  0
 21 17  1  0
 23 22  1  1
 23 24  1  0
 25 23  1  0
 25 26  1  0
 27 25  2  0
M  END
$$$$
