YEA.pdb
     RDKit          3D

 27 27  0  0  1  0  0  0  0  0999 V2000
    6.8818  -11.3868   27.3413 O   0  0  0  0  0  0  0  0  0  0  0  0
    6.8436  -12.3119   26.3131 C   0  0  0  0  0  0  0  0  0  0  0  0
    5.8533  -13.2675   26.2186 C   0  0  0  0  0  0  0  0  0  0  0  0
    5.9006  -14.1373   25.1668 C   0  0  0  0  0  0  0  0  0  0  0  0
    6.8828  -14.1109   24.1974 C   0  0  0  0  0  0  0  0  0  0  0  0
    6.8607  -15.0932   23.0943 C   0  0  0  0  0  0  0  0  0  0  0  0
    7.1200  -16.5078   23.5645 C   0  0  2  0  0  0  0  0  0  0  0  0
    6.0168  -16.8398   24.4836 N   0  0  0  0  0  0  0  0  0  0  0  0
    8.4020  -16.6547   24.2867 C   0  0  0  0  0  0  0  0  0  0  0  0
    8.3778  -17.0548   25.4781 O   0  0  0  0  0  0  0  0  0  0  0  0
    7.8524  -13.1554   24.3130 C   0  0  0  0  0  0  0  0  0  0  0  0
    7.8395  -12.2578   25.3617 C   0  0  0  0  0  0  0  0  0  0  0  0
    9.6557  -16.3535   23.6629 N   0  0  0  0  0  0  0  0  0  0  0  0
   10.9045  -16.8641   24.2219 C   0  0  1  0  0  0  0  0  0  0  0  0
   12.0251  -16.6914   23.2423 C   0  0  0  0  0  0  0  0  0  0  0  0
   12.1130  -17.7275   22.1797 C   0  0  0  0  0  0  0  0  0  0  0  0
   13.1869  -17.5223   21.2034 C   0  0  0  0  0  0  0  0  0  0  0  0
   13.9874  -16.5659   21.3098 O   0  0  0  0  0  0  0  0  0  0  0  0
   11.2690  -16.0239   25.4193 C   0  0  0  0  0  0  0  0  0  0  0  0
   12.1143  -15.1132   25.2466 O   0  0  0  0  0  0  0  0  0  0  0  0
   13.3767  -18.3659   20.1174 O   0  0  0  0  0  0  0  0  0  0  0  0
   10.0247  -14.4667   28.1954 C   0  0  0  0  0  0  0  0  0  0  0  0
   11.1179  -15.4900   27.8783 C   0  0  2  0  0  0  0  0  0  0  0  0
   10.7179  -16.2076   26.6980 N   0  0  0  0  0  0  0  0  0  0  0  0
   11.3006  -16.3742   29.0436 C   0  0  0  0  0  0  0  0  0  0  0  0
   11.7153  -15.8989   30.2721 O   0  0  0  0  0  0  0  0  0  0  0  0
   11.0738  -17.6005   28.9236 O   0  0  0  0  0  0  0  0  0  0  0  0
  2  3  2  0
  2  1  1  0
  4  3  1  0
  5  4  2  0
  6  5  1  0
  7  9  1  0
  7  6  1  0
  7  8  1  1
  9 10  2  0
 11  5  1  0
 11 12  2  0
 12  2  1  0
 13  9  1  0
 13 14  1  0
 14 15  1  6
 15 16  1  0
 17 18  2  0
 17 16  1  0
 19 24  1  0
 19 14  1  0
 20 19  2  0
 21 17  1  0
 23 22  1  1
 23 24  1  0
 25 23  1  0
 25 26  1  0
 27 25  2  0
M  END
$$$$
