YEA.pdb
     RDKit          3D

 27 27  0  0  1  0  0  0  0  0999 V2000
    7.4064  -11.5313   27.1019 O   0  0  0  0  0  0  0  0  0  0  0  0
    7.1768  -12.5465   26.1902 C   0  0  0  0  0  0  0  0  0  0  0  0
    6.1344  -13.4392   26.3290 C   0  0  0  0  0  0  0  0  0  0  0  0
    5.9890  -14.4074   25.3771 C   0  0  0  0  0  0  0  0  0  0  0  0
    6.8264  -14.5395   24.2878 C   0  0  0  0  0  0  0  0  0  0  0  0
    6.5993  -15.6198   23.3062 C   0  0  0  0  0  0  0  0  0  0  0  0
    7.0004  -16.9813   23.8305 C   0  0  2  0  0  0  0  0  0  0  0  0
    6.0818  -17.2751   24.9448 N   0  0  0  0  0  0  0  0  0  0  0  0
    8.3899  -17.0239   24.3349 C   0  0  0  0  0  0  0  0  0  0  0  0
    8.5938  -17.4571   25.4971 O   0  0  0  0  0  0  0  0  0  0  0  0
    7.8514  -13.6435   24.1725 C   0  0  0  0  0  0  0  0  0  0  0  0
    8.0318  -12.6502   25.1140 C   0  0  0  0  0  0  0  0  0  0  0  0
    9.4944  -16.5865   23.5349 N   0  0  0  0  0  0  0  0  0  0  0  0
   10.8585  -16.9842   23.8719 C   0  0  1  0  0  0  0  0  0  0  0  0
   11.8018  -16.6005   22.7727 C   0  0  0  0  0  0  0  0  0  0  0  0
   13.2300  -16.9422   23.0051 C   0  0  0  0  0  0  0  0  0  0  0  0
   14.0170  -17.1694   21.7897 C   0  0  0  0  0  0  0  0  0  0  0  0
   13.5730  -16.8599   20.6610 O   0  0  0  0  0  0  0  0  0  0  0  0
   11.2968  -16.2028   25.0842 C   0  0  0  0  0  0  0  0  0  0  0  0
   12.3799  -15.5752   25.0030 O   0  0  0  0  0  0  0  0  0  0  0  0
   15.2848  -17.7341   21.8186 O   0  0  0  0  0  0  0  0  0  0  0  0
   10.1048  -14.3086   27.7559 C   0  0  0  0  0  0  0  0  0  0  0  0
   11.0136  -15.5117   27.4919 C   0  0  2  0  0  0  0  0  0  0  0  0
   10.5639  -16.1437   26.2809 N   0  0  0  0  0  0  0  0  0  0  0  0
   10.9629  -16.4161   28.6549 C   0  0  0  0  0  0  0  0  0  0  0  0
   11.3708  -16.0218   29.9140 O   0  0  0  0  0  0  0  0  0  0  0  0
   10.5363  -17.5845   28.5042 O   0  0  0  0  0  0  0  0  0  0  0  0
  2  3  2  0
  2  1  1  0
  4  3  1  0
  5  4  2  0
  6  5  1  0
  7  9  1  0
  7  6  1  0
  7  8  1  1
  9 10  2  0
 11  5  1  0
 11 12  2  0
 12  2  1  0
 13  9  1  0
 13 14  1  0
 14 15  1  6
 15 16  1  0
 17 18  2  0
 17 16  1  0
 19 24  1  0
 19 14  1  0
 20 19  2  0
 21 17  1  0
 23 22  1  1
 23 24  1  0
 25 23  1  0
 25 26  1  0
 27 25  2  0
M  END
$$$$
