YEA.pdb
     RDKit          3D

 27 27  0  0  1  0  0  0  0  0999 V2000
    6.6727  -12.0297   27.8291 O   0  0  0  0  0  0  0  0  0  0  0  0
    6.9466  -12.4419   26.5370 C   0  0  0  0  0  0  0  0  0  0  0  0
    8.2255  -12.4432   26.0199 C   0  0  0  0  0  0  0  0  0  0  0  0
    8.3959  -12.8681   24.7333 C   0  0  0  0  0  0  0  0  0  0  0  0
    7.3605  -13.2947   23.9263 C   0  0  0  0  0  0  0  0  0  0  0  0
    7.6333  -13.7346   22.5427 C   0  0  0  0  0  0  0  0  0  0  0  0
    7.6747  -15.2407   22.4044 C   0  0  2  0  0  0  0  0  0  0  0  0
    6.3035  -15.7114   22.6694 N   0  0  0  0  0  0  0  0  0  0  0  0
    8.5942  -15.8878   23.3649 C   0  0  0  0  0  0  0  0  0  0  0  0
    8.1115  -16.4018   24.4055 O   0  0  0  0  0  0  0  0  0  0  0  0
    6.1033  -13.2840   24.4611 C   0  0  0  0  0  0  0  0  0  0  0  0
    5.8898  -12.8617   25.7579 C   0  0  0  0  0  0  0  0  0  0  0  0
   10.0071  -15.9397   23.1355 N   0  0  0  0  0  0  0  0  0  0  0  0
   10.8637  -16.7803   23.9675 C   0  0  1  0  0  0  0  0  0  0  0  0
   12.1601  -17.0586   23.2694 C   0  0  0  0  0  0  0  0  0  0  0  0
   13.0919  -17.9685   23.9865 C   0  0  0  0  0  0  0  0  0  0  0  0
   14.3216  -18.2935   23.2581 C   0  0  0  0  0  0  0  0  0  0  0  0
   14.7940  -19.4527   23.2656 O   0  0  0  0  0  0  0  0  0  0  0  0
   11.2219  -16.0102   25.2129 C   0  0  0  0  0  0  0  0  0  0  0  0
   12.1376  -15.1580   25.1184 O   0  0  0  0  0  0  0  0  0  0  0  0
   15.0256  -17.3468   22.5264 O   0  0  0  0  0  0  0  0  0  0  0  0
    9.9521  -14.6655   28.1861 C   0  0  0  0  0  0  0  0  0  0  0  0
   11.0364  -15.6292   27.6979 C   0  0  2  0  0  0  0  0  0  0  0  0
   10.5911  -16.1967   26.4538 N   0  0  0  0  0  0  0  0  0  0  0  0
   11.2725  -16.6511   28.7337 C   0  0  0  0  0  0  0  0  0  0  0  0
   11.0442  -17.9946   28.5098 O   0  0  0  0  0  0  0  0  0  0  0  0
   11.6949  -16.2968   29.8588 O   0  0  0  0  0  0  0  0  0  0  0  0
  2  3  2  0
  2  1  1  0
  4  3  1  0
  5  4  2  0
  6  5  1  0
  7  9  1  0
  7  6  1  0
  7  8  1  1
  9 10  2  0
 11  5  1  0
 11 12  2  0
 12  2  1  0
 13  9  1  0
 13 14  1  0
 14 15  1  6
 15 16  1  0
 17 18  2  0
 17 16  1  0
 19 24  1  0
 19 14  1  0
 20 19  2  0
 21 17  1  0
 23 22  1  1
 23 24  1  0
 25 23  1  0
 25 26  1  0
 27 25  2  0
M  END
$$$$
