YEA.pdb
     RDKit          3D

 27 27  0  0  1  0  0  0  0  0999 V2000
    5.0066  -10.1339   26.4035 O   0  0  0  0  0  0  0  0  0  0  0  0
    5.6912  -11.3298   26.2787 C   0  0  0  0  0  0  0  0  0  0  0  0
    5.4140  -12.4234   27.0725 C   0  0  0  0  0  0  0  0  0  0  0  0
    6.1439  -13.5604   26.8742 C   0  0  0  0  0  0  0  0  0  0  0  0
    7.1401  -13.6728   25.9256 C   0  0  0  0  0  0  0  0  0  0  0  0
    7.8846  -14.9406   25.7806 C   0  0  0  0  0  0  0  0  0  0  0  0
    7.3510  -15.8084   24.6619 C   0  0  2  0  0  0  0  0  0  0  0  0
    6.0978  -16.3974   25.1661 N   0  0  0  0  0  0  0  0  0  0  0  0
    8.2726  -16.9014   24.2839 C   0  0  0  0  0  0  0  0  0  0  0  0
    8.2131  -17.9840   24.9200 O   0  0  0  0  0  0  0  0  0  0  0  0
    7.3960  -12.5762   25.1520 C   0  0  0  0  0  0  0  0  0  0  0  0
    6.6800  -11.4082   25.3216 C   0  0  0  0  0  0  0  0  0  0  0  0
    9.2200  -16.7526   23.2202 N   0  0  0  0  0  0  0  0  0  0  0  0
   10.2394  -17.7718   22.9861 C   0  0  1  0  0  0  0  0  0  0  0  0
   11.0672  -17.4180   21.7883 C   0  0  0  0  0  0  0  0  0  0  0  0
   12.0947  -18.4201   21.4005 C   0  0  0  0  0  0  0  0  0  0  0  0
   12.8490  -18.0943   20.1867 C   0  0  0  0  0  0  0  0  0  0  0  0
   14.0858  -18.2761   20.1222 O   0  0  0  0  0  0  0  0  0  0  0  0
   11.1879  -17.7747   24.1578 C   0  0  0  0  0  0  0  0  0  0  0  0
   11.9515  -16.7872   24.2818 O   0  0  0  0  0  0  0  0  0  0  0  0
   12.2437  -17.5716   19.0520 O   0  0  0  0  0  0  0  0  0  0  0  0
   11.6052  -17.6220   27.1558 C   0  0  0  0  0  0  0  0  0  0  0  0
   12.0716  -18.7932   26.2877 C   0  0  2  0  0  0  0  0  0  0  0  0
   11.2576  -18.8119   25.1023 N   0  0  0  0  0  0  0  0  0  0  0  0
   11.9658  -20.0403   27.0667 C   0  0  0  0  0  0  0  0  0  0  0  0
   11.0929  -21.0533   26.7218 O   0  0  0  0  0  0  0  0  0  0  0  0
   12.6893  -20.1942   28.0778 O   0  0  0  0  0  0  0  0  0  0  0  0
  2  3  2  0
  2  1  1  0
  4  3  1  0
  5  4  2  0
  6  5  1  0
  7  9  1  0
  7  6  1  0
  7  8  1  1
  9 10  2  0
 11  5  1  0
 11 12  2  0
 12  2  1  0
 13  9  1  0
 13 14  1  0
 14 15  1  6
 15 16  1  0
 17 18  2  0
 17 16  1  0
 19 24  1  0
 19 14  1  0
 20 19  2  0
 21 17  1  0
 23 22  1  1
 23 24  1  0
 25 23  1  0
 25 26  1  0
 27 25  2  0
M  END
$$$$
