YEA.pdb
     RDKit          3D

 27 27  0  0  1  0  0  0  0  0999 V2000
    8.1895  -12.0880   17.0022 O   0  0  0  0  0  0  0  0  0  0  0  0
    7.9368  -12.7123   18.2109 C   0  0  0  0  0  0  0  0  0  0  0  0
    6.9798  -13.6966   18.3454 C   0  0  0  0  0  0  0  0  0  0  0  0
    6.8032  -14.2540   19.5795 C   0  0  0  0  0  0  0  0  0  0  0  0
    7.5285  -13.8862   20.6947 C   0  0  0  0  0  0  0  0  0  0  0  0
    7.2697  -14.5388   21.9945 C   0  0  0  0  0  0  0  0  0  0  0  0
    7.6715  -15.9975   22.0077 C   0  0  2  0  0  0  0  0  0  0  0  0
    6.4778  -16.7522   21.5865 N   0  0  0  0  0  0  0  0  0  0  0  0
    8.0889  -16.4735   23.3441 C   0  0  0  0  0  0  0  0  0  0  0  0
    7.2361  -16.4949   24.2674 O   0  0  0  0  0  0  0  0  0  0  0  0
    8.4703  -12.9092   20.5360 C   0  0  0  0  0  0  0  0  0  0  0  0
    8.6789  -12.3212   19.3046 C   0  0  0  0  0  0  0  0  0  0  0  0
    9.4294  -16.9056   23.6040 N   0  0  0  0  0  0  0  0  0  0  0  0
    9.8313  -17.3107   24.9483 C   0  0  1  0  0  0  0  0  0  0  0  0
   11.0352  -18.2008   24.8883 C   0  0  0  0  0  0  0  0  0  0  0  0
   11.5707  -18.6443   26.2023 C   0  0  0  0  0  0  0  0  0  0  0  0
   12.7834  -19.4644   26.1308 C   0  0  0  0  0  0  0  0  0  0  0  0
   13.8056  -19.0615   25.5309 O   0  0  0  0  0  0  0  0  0  0  0  0
   10.2631  -16.0819   25.7071 C   0  0  0  0  0  0  0  0  0  0  0  0
   11.1839  -15.3918   25.2075 O   0  0  0  0  0  0  0  0  0  0  0  0
   12.8685  -20.7200   26.7168 O   0  0  0  0  0  0  0  0  0  0  0  0
    9.1027  -13.5565   27.8765 C   0  0  0  0  0  0  0  0  0  0  0  0
   10.1980  -14.6194   27.7593 C   0  0  2  0  0  0  0  0  0  0  0  0
    9.6945  -15.6780   26.9262 N   0  0  0  0  0  0  0  0  0  0  0  0
   10.5608  -15.0859   29.1098 C   0  0  0  0  0  0  0  0  0  0  0  0
   11.1942  -14.2700   30.0264 O   0  0  0  0  0  0  0  0  0  0  0  0
   10.2886  -16.2619   29.4454 O   0  0  0  0  0  0  0  0  0  0  0  0
  2  3  2  0
  2  1  1  0
  4  3  1  0
  5  4  2  0
  6  5  1  0
  7  9  1  0
  7  6  1  0
  7  8  1  1
  9 10  2  0
 11  5  1  0
 11 12  2  0
 12  2  1  0
 13  9  1  0
 13 14  1  0
 14 15  1  6
 15 16  1  0
 17 18  2  0
 17 16  1  0
 19 24  1  0
 19 14  1  0
 20 19  2  0
 21 17  1  0
 23 22  1  1
 23 24  1  0
 25 23  1  0
 25 26  1  0
 27 25  2  0
M  END
$$$$
