YEA.pdb
     RDKit          3D

 27 27  0  0  1  0  0  0  0  0999 V2000
    7.7027  -12.4479   16.8561 O   0  0  0  0  0  0  0  0  0  0  0  0
    7.8596  -12.9664   18.1292 C   0  0  0  0  0  0  0  0  0  0  0  0
    9.0452  -13.5291   18.5543 C   0  0  0  0  0  0  0  0  0  0  0  0
    9.1031  -14.0142   19.8295 C   0  0  0  0  0  0  0  0  0  0  0  0
    8.0426  -13.9717   20.7119 C   0  0  0  0  0  0  0  0  0  0  0  0
    8.1902  -14.5242   22.0739 C   0  0  0  0  0  0  0  0  0  0  0  0
    8.5080  -16.0035   22.0746 C   0  0  2  0  0  0  0  0  0  0  0  0
    7.2869  -16.6821   21.6052 N   0  0  0  0  0  0  0  0  0  0  0  0
    8.8561  -16.5228   23.4147 C   0  0  0  0  0  0  0  0  0  0  0  0
    7.9579  -16.5690   24.2929 O   0  0  0  0  0  0  0  0  0  0  0  0
    6.8792  -13.4098   20.2674 C   0  0  0  0  0  0  0  0  0  0  0  0
    6.7808  -12.9080   18.9852 C   0  0  0  0  0  0  0  0  0  0  0  0
   10.1806  -16.9688   23.7279 N   0  0  0  0  0  0  0  0  0  0  0  0
   10.5141  -17.4136   25.0783 C   0  0  1  0  0  0  0  0  0  0  0  0
   11.8086  -18.1683   25.0755 C   0  0  0  0  0  0  0  0  0  0  0  0
   12.2405  -18.7052   26.3929 C   0  0  0  0  0  0  0  0  0  0  0  0
   13.5274  -19.4069   26.3829 C   0  0  0  0  0  0  0  0  0  0  0  0
   14.6006  -18.7983   26.5943 O   0  0  0  0  0  0  0  0  0  0  0  0
   10.7471  -16.1966   25.9368 C   0  0  0  0  0  0  0  0  0  0  0  0
   11.6476  -15.4017   25.5751 O   0  0  0  0  0  0  0  0  0  0  0  0
   13.6300  -20.7700   26.1413 O   0  0  0  0  0  0  0  0  0  0  0  0
    9.0923  -13.9987   28.2129 C   0  0  0  0  0  0  0  0  0  0  0  0
   10.3372  -14.8728   28.0426 C   0  0  2  0  0  0  0  0  0  0  0  0
   10.0173  -15.9134   27.1029 N   0  0  0  0  0  0  0  0  0  0  0  0
   10.7361  -15.4022   29.3593 C   0  0  0  0  0  0  0  0  0  0  0  0
   10.7311  -16.7538   29.6429 O   0  0  0  0  0  0  0  0  0  0  0  0
   11.0933  -14.6051   30.2574 O   0  0  0  0  0  0  0  0  0  0  0  0
  2  3  2  0
  2  1  1  0
  4  3  1  0
  5  4  2  0
  6  5  1  0
  7  9  1  0
  7  6  1  0
  7  8  1  1
  9 10  2  0
 11  5  1  0
 11 12  2  0
 12  2  1  0
 13  9  1  0
 13 14  1  0
 14 15  1  6
 15 16  1  0
 17 18  2  0
 17 16  1  0
 19 24  1  0
 19 14  1  0
 20 19  2  0
 21 17  1  0
 23 22  1  1
 23 24  1  0
 25 23  1  0
 25 26  1  0
 27 25  2  0
M  END
$$$$
