YEA.pdb
     RDKit          3D

 27 27  0  0  1  0  0  0  0  0999 V2000
    8.2360  -13.4235   15.7814 O   0  0  0  0  0  0  0  0  0  0  0  0
    7.9496  -13.5941   17.1244 C   0  0  0  0  0  0  0  0  0  0  0  0
    8.4652  -12.7647   18.0985 C   0  0  0  0  0  0  0  0  0  0  0  0
    8.1247  -13.0131   19.3974 C   0  0  0  0  0  0  0  0  0  0  0  0
    7.2953  -14.0459   19.7855 C   0  0  0  0  0  0  0  0  0  0  0  0
    6.9816  -14.2461   21.2151 C   0  0  0  0  0  0  0  0  0  0  0  0
    8.1752  -14.7183   22.0162 C   0  0  2  0  0  0  0  0  0  0  0  0
    8.6566  -15.9400   21.3473 N   0  0  0  0  0  0  0  0  0  0  0  0
    7.8417  -15.0436   23.4196 C   0  0  0  0  0  0  0  0  0  0  0  0
    7.3514  -14.1417   24.1450 O   0  0  0  0  0  0  0  0  0  0  0  0
    6.7975  -14.8536   18.8024 C   0  0  0  0  0  0  0  0  0  0  0  0
    7.1181  -14.6352   17.4776 C   0  0  0  0  0  0  0  0  0  0  0  0
    8.0636  -16.3505   23.9621 N   0  0  0  0  0  0  0  0  0  0  0  0
    7.7715  -16.6312   25.3651 C   0  0  1  0  0  0  0  0  0  0  0  0
    7.7065  -18.1097   25.6000 C   0  0  0  0  0  0  0  0  0  0  0  0
    7.3995  -18.5244   26.9943 C   0  0  0  0  0  0  0  0  0  0  0  0
    7.4122  -19.9717   27.2260 C   0  0  0  0  0  0  0  0  0  0  0  0
    6.3931  -20.5731   27.6340 O   0  0  0  0  0  0  0  0  0  0  0  0
    8.9217  -16.1301   26.2007 C   0  0  0  0  0  0  0  0  0  0  0  0
   10.0626  -16.5803   25.9373 O   0  0  0  0  0  0  0  0  0  0  0  0
    8.5409  -20.7502   27.0092 O   0  0  0  0  0  0  0  0  0  0  0  0
    9.4559  -13.2995   28.5429 C   0  0  0  0  0  0  0  0  0  0  0  0
    9.8621  -14.6875   28.0417 C   0  0  2  0  0  0  0  0  0  0  0  0
    8.7813  -15.1990   27.2427 N   0  0  0  0  0  0  0  0  0  0  0  0
   10.1653  -15.5468   29.2005 C   0  0  0  0  0  0  0  0  0  0  0  0
    9.4542  -16.6996   29.4697 O   0  0  0  0  0  0  0  0  0  0  0  0
   11.0988  -15.2271   29.9726 O   0  0  0  0  0  0  0  0  0  0  0  0
  2  3  2  0
  2  1  1  0
  4  3  1  0
  5  4  2  0
  6  5  1  0
  7  9  1  0
  7  6  1  0
  7  8  1  6
  9 10  2  0
 11  5  1  0
 11 12  2  0
 12  2  1  0
 13  9  1  0
 13 14  1  0
 14 15  1  6
 15 16  1  0
 17 18  2  0
 17 16  1  0
 19 24  1  0
 19 14  1  0
 20 19  2  0
 21 17  1  0
 23 22  1  1
 23 24  1  0
 25 23  1  0
 25 26  1  0
 27 25  2  0
M  END
$$$$
