MYC.pdb
     RDKit          3D

 27 27  0  0  1  0  0  0  0  0999 V2000
   25.4244  -21.4101   -9.5211 C   0  0  0  0  0  0  0  0  0  0  0  0
   26.2655  -21.7499  -11.0915 S   0  0  0  0  0  0  0  0  0  0  0  0
   26.3153  -20.2163  -12.0310 C   0  0  0  0  0  0  0  0  0  0  0  0
   26.8533  -20.4072  -13.3899 C   0  0  0  0  0  0  0  0  0  0  0  0
   26.5340  -21.6245  -14.1530 C   0  0  2  0  0  0  0  0  0  0  0  0
   27.6298  -21.7664  -15.1475 N   0  0  0  0  0  0  0  0  0  0  0  0
   25.2752  -21.7358  -14.8571 C   0  0  0  0  0  0  0  0  0  0  0  0
   24.9009  -21.0768  -15.8692 O   0  0  0  0  0  0  0  0  0  0  0  0
   17.5103  -25.6031  -17.0529 O   0  0  0  0  0  0  0  0  0  0  0  0
   18.7335  -25.2741  -16.4479 C   0  0  0  0  0  0  0  0  0  0  0  0
   19.8981  -25.3284  -17.1732 C   0  0  0  0  0  0  0  0  0  0  0  0
   21.1163  -25.0022  -16.5763 C   0  0  0  0  0  0  0  0  0  0  0  0
   21.1910  -24.6192  -15.2557 C   0  0  0  0  0  0  0  0  0  0  0  0
   22.4727  -24.2747  -14.6610 C   0  0  0  0  0  0  0  0  0  0  0  0
   23.0408  -22.9330  -15.0456 C   0  0  2  0  0  0  0  0  0  0  0  0
   24.2989  -22.6913  -14.3908 N   0  0  0  0  0  0  0  0  0  0  0  0
   22.0588  -21.9316  -14.5314 C   0  0  0  0  0  0  0  0  0  0  0  0
   21.9427  -21.7906  -13.3010 O   0  0  0  0  0  0  0  0  0  0  0  0
   20.0175  -24.5688  -14.5391 C   0  0  0  0  0  0  0  0  0  0  0  0
   18.7921  -24.8937  -15.1280 C   0  0  0  0  0  0  0  0  0  0  0  0
   21.2610  -21.1428  -15.3942 N   0  0  0  0  0  0  0  0  0  0  0  0
   20.2899  -20.2057  -14.8679 C   0  0  1  0  0  0  0  0  0  0  0  0
   19.9056  -19.1618  -15.8868 C   0  0  0  0  0  0  0  0  0  0  0  0
   21.3573  -18.2882  -16.4931 S   0  0  0  0  0  0  0  0  0  0  0  0
   19.1013  -20.9219  -14.3725 C   0  0  0  0  0  0  0  0  0  0  0  0
   18.7626  -20.8869  -13.0339 O   0  0  0  0  0  0  0  0  0  0  0  0
   18.3667  -21.5817  -15.1540 O   0  0  0  0  0  0  0  0  0  0  0  0
  2  1  1  0
  3  2  1  0
  4  3  1  0
  4  5  1  0
  5  7  1  0
  5  6  1  6
  7  8  2  0
  9 10  1  0
 10 11  2  0
 10 20  1  0
 11 12  1  0
 12 13  2  0
 13 14  1  0
 15 14  1  1
 16 15  1  0
 16  7  1  0
 17 18  2  0
 17 15  1  0
 19 13  1  0
 20 19  2  0
 21 17  1  0
 22 25  1  0
 22 21  1  0
 22 23  1  6
 24 23  1  0
 25 26  1  0
 27 25  2  0
M  END
$$$$
