MYC.pdb
     RDKit          3D

 27 27  0  0  1  0  0  0  0  0999 V2000
   22.1836  -37.5378  -17.0531 C   0  0  0  0  0  0  0  0  0  0  0  0
   23.2703  -37.9967  -15.6756 S   0  0  0  0  0  0  0  0  0  0  0  0
   24.8225  -37.1106  -15.8818 C   0  0  0  0  0  0  0  0  0  0  0  0
   24.9152  -35.9286  -15.0061 C   0  0  0  0  0  0  0  0  0  0  0  0
   24.3841  -34.6297  -15.4498 C   0  0  2  0  0  0  0  0  0  0  0  0
   25.2646  -34.2042  -16.5694 N   0  0  0  0  0  0  0  0  0  0  0  0
   24.2808  -33.5268  -14.5193 C   0  0  0  0  0  0  0  0  0  0  0  0
   25.1843  -32.6994  -14.2063 O   0  0  0  0  0  0  0  0  0  0  0  0
   20.0712  -27.4947   -9.4343 O   0  0  0  0  0  0  0  0  0  0  0  0
   20.4082  -28.5353  -10.3141 C   0  0  0  0  0  0  0  0  0  0  0  0
   19.9699  -29.8135  -10.0702 C   0  0  0  0  0  0  0  0  0  0  0  0
   20.3022  -30.8512  -10.9418 C   0  0  0  0  0  0  0  0  0  0  0  0
   21.0713  -30.6311  -12.0627 C   0  0  0  0  0  0  0  0  0  0  0  0
   21.3945  -31.7288  -12.9602 C   0  0  0  0  0  0  0  0  0  0  0  0
   22.8086  -32.2449  -12.8911 C   0  0  2  0  0  0  0  0  0  0  0  0
   23.0259  -33.3023  -13.8425 N   0  0  0  0  0  0  0  0  0  0  0  0
   22.9449  -32.8275  -11.5224 C   0  0  0  0  0  0  0  0  0  0  0  0
   22.4380  -33.9409  -11.2971 O   0  0  0  0  0  0  0  0  0  0  0  0
   21.5047  -29.3463  -12.2964 C   0  0  0  0  0  0  0  0  0  0  0  0
   21.1773  -28.3000  -11.4291 C   0  0  0  0  0  0  0  0  0  0  0  0
   23.6282  -32.1572  -10.4798 N   0  0  0  0  0  0  0  0  0  0  0  0
   23.7586  -32.7526   -9.1658 C   0  0  1  0  0  0  0  0  0  0  0  0
   24.7490  -32.0075   -8.3060 C   0  0  0  0  0  0  0  0  0  0  0  0
   24.3099  -30.2671   -8.1782 S   0  0  0  0  0  0  0  0  0  0  0  0
   22.4436  -32.8339   -8.5061 C   0  0  0  0  0  0  0  0  0  0  0  0
   22.2555  -33.6442   -7.4034 O   0  0  0  0  0  0  0  0  0  0  0  0
   21.4614  -32.1691   -8.9290 O   0  0  0  0  0  0  0  0  0  0  0  0
  2  1  1  0
  3  2  1  0
  4  3  1  0
  4  5  1  0
  5  7  1  0
  5  6  1  6
  7  8  2  0
  9 10  1  0
 10 11  2  0
 10 20  1  0
 11 12  1  0
 12 13  2  0
 13 14  1  0
 15 14  1  1
 16 15  1  0
 16  7  1  0
 17 18  2  0
 17 15  1  0
 19 13  1  0
 20 19  2  0
 21 17  1  0
 22 25  1  0
 22 21  1  0
 22 23  1  1
 24 23  1  0
 25 26  1  0
 27 25  2  0
M  END
$$$$
