MYC.pdb
     RDKit          3D

 27 27  0  0  1  0  0  0  0  0999 V2000
   17.8782  -20.7881  -14.0169 C   0  0  0  0  0  0  0  0  0  0  0  0
   19.6869  -20.7518  -13.8905 S   0  0  0  0  0  0  0  0  0  0  0  0
   20.1106  -20.3474  -12.1893 C   0  0  0  0  0  0  0  0  0  0  0  0
   21.5601  -20.1568  -12.0014 C   0  0  0  0  0  0  0  0  0  0  0  0
   22.5119  -20.6350  -13.0171 C   0  0  2  0  0  0  0  0  0  0  0  0
   22.3998  -22.1172  -12.9971 N   0  0  0  0  0  0  0  0  0  0  0  0
   23.9141  -20.2921  -12.9225 C   0  0  0  0  0  0  0  0  0  0  0  0
   24.4161  -19.1368  -12.8121 O   0  0  0  0  0  0  0  0  0  0  0  0
   26.5871  -19.2461   -6.6884 O   0  0  0  0  0  0  0  0  0  0  0  0
   26.6561  -19.8922   -7.9328 C   0  0  0  0  0  0  0  0  0  0  0  0
   27.8498  -19.9633   -8.6075 C   0  0  0  0  0  0  0  0  0  0  0  0
   27.9234  -20.6045   -9.8445 C   0  0  0  0  0  0  0  0  0  0  0  0
   26.8148  -21.1810  -10.4235 C   0  0  0  0  0  0  0  0  0  0  0  0
   26.9215  -21.8521  -11.7093 C   0  0  0  0  0  0  0  0  0  0  0  0
   26.3135  -21.1305  -12.8842 C   0  0  2  0  0  0  0  0  0  0  0  0
   24.8935  -21.3518  -12.9553 N   0  0  0  0  0  0  0  0  0  0  0  0
   26.9339  -21.7567  -14.0902 C   0  0  0  0  0  0  0  0  0  0  0  0
   26.8611  -22.9914  -14.2228 O   0  0  0  0  0  0  0  0  0  0  0  0
   25.6244  -21.1031   -9.7380 C   0  0  0  0  0  0  0  0  0  0  0  0
   25.5403  -20.4628   -8.4983 C   0  0  0  0  0  0  0  0  0  0  0  0
   27.5980  -20.9947  -15.0808 N   0  0  0  0  0  0  0  0  0  0  0  0
   27.4253  -21.2847  -16.4895 C   0  0  1  0  0  0  0  0  0  0  0  0
   25.9686  -21.3622  -16.8736 C   0  0  0  0  0  0  0  0  0  0  0  0
   25.7549  -22.2773  -18.4083 S   0  0  0  0  0  0  0  0  0  0  0  0
   28.1347  -20.2874  -17.3098 C   0  0  0  0  0  0  0  0  0  0  0  0
   27.8998  -18.9369  -17.1399 O   0  0  0  0  0  0  0  0  0  0  0  0
   28.9703  -20.6394  -18.1836 O   0  0  0  0  0  0  0  0  0  0  0  0
  2  1  1  0
  3  2  1  0
  4  3  1  0
  4  5  1  0
  5  7  1  0
  5  6  1  1
  7  8  2  0
  9 10  1  0
 10 11  2  0
 10 20  1  0
 11 12  1  0
 12 13  2  0
 13 14  1  0
 15 14  1  1
 16 15  1  0
 16  7  1  0
 17 18  2  0
 17 15  1  0
 19 13  1  0
 20 19  2  0
 21 17  1  0
 22 25  1  0
 22 21  1  0
 22 23  1  6
 24 23  1  0
 25 26  1  0
 27 25  2  0
M  END
$$$$
