MYC.pdb
     RDKit          3D

 27 27  0  0  1  0  0  0  0  0999 V2000
   28.9491  -16.8475  -17.1624 C   0  0  0  0  0  0  0  0  0  0  0  0
   29.2948  -17.7523  -18.6956 S   0  0  0  0  0  0  0  0  0  0  0  0
   27.7423  -18.4420  -19.2883 C   0  0  0  0  0  0  0  0  0  0  0  0
   27.4103  -19.7212  -18.6357 C   0  0  0  0  0  0  0  0  0  0  0  0
   28.2495  -20.2399  -17.5437 C   0  0  2  0  0  0  0  0  0  0  0  0
   29.1955  -21.1883  -18.1884 N   0  0  0  0  0  0  0  0  0  0  0  0
   27.6450  -20.9114  -16.4139 C   0  0  0  0  0  0  0  0  0  0  0  0
   27.3011  -22.1258  -16.3368 O   0  0  0  0  0  0  0  0  0  0  0  0
   23.9573  -21.1924   -8.2173 O   0  0  0  0  0  0  0  0  0  0  0  0
   24.6971  -20.8606   -9.3632 C   0  0  0  0  0  0  0  0  0  0  0  0
   24.2036  -19.9474  -10.2620 C   0  0  0  0  0  0  0  0  0  0  0  0
   24.9353  -19.6142  -11.4024 C   0  0  0  0  0  0  0  0  0  0  0  0
   26.1625  -20.1828  -11.6618 C   0  0  0  0  0  0  0  0  0  0  0  0
   26.9090  -19.8101  -12.8529 C   0  0  0  0  0  0  0  0  0  0  0  0
   26.7165  -20.6945  -14.0576 C   0  0  2  0  0  0  0  0  0  0  0  0
   27.3808  -20.1542  -15.2139 N   0  0  0  0  0  0  0  0  0  0  0  0
   25.2469  -20.6752  -14.3250 C   0  0  0  0  0  0  0  0  0  0  0  0
   24.7542  -19.6688  -14.8653 O   0  0  0  0  0  0  0  0  0  0  0  0
   26.6464  -21.0966  -10.7540 C   0  0  0  0  0  0  0  0  0  0  0  0
   25.9210  -21.4371   -9.6086 C   0  0  0  0  0  0  0  0  0  0  0  0
   24.4021  -21.7587  -13.9853 N   0  0  0  0  0  0  0  0  0  0  0  0
   22.9846  -21.7244  -14.2813 C   0  0  1  0  0  0  0  0  0  0  0  0
   22.4321  -23.1023  -14.5494 C   0  0  0  0  0  0  0  0  0  0  0  0
   20.6417  -23.0559  -14.7232 S   0  0  0  0  0  0  0  0  0  0  0  0
   22.2478  -21.0640  -13.1896 C   0  0  0  0  0  0  0  0  0  0  0  0
   21.1683  -20.2457  -13.4599 O   0  0  0  0  0  0  0  0  0  0  0  0
   22.5821  -21.2281  -11.9867 O   0  0  0  0  0  0  0  0  0  0  0  0
  2  1  1  0
  3  2  1  0
  4  3  1  0
  4  5  1  0
  5  7  1  0
  5  6  1  6
  7  8  2  0
  9 10  1  0
 10 11  2  0
 10 20  1  0
 11 12  1  0
 12 13  2  0
 13 14  1  0
 15 14  1  1
 16 15  1  0
 16  7  1  0
 17 18  2  0
 17 15  1  0
 19 13  1  0
 20 19  2  0
 21 17  1  0
 22 25  1  0
 22 21  1  0
 22 23  1  1
 24 23  1  0
 25 26  1  0
 27 25  2  0
M  END
$$$$
