MYC.pdb
     RDKit          3D

 27 27  0  0  1  0  0  0  0  0999 V2000
   28.0496  -37.0016  -14.0602 C   0  0  0  0  0  0  0  0  0  0  0  0
   26.2588  -37.2762  -14.1419 S   0  0  0  0  0  0  0  0  0  0  0  0
   25.5188  -35.8417  -14.9366 C   0  0  0  0  0  0  0  0  0  0  0  0
   25.7064  -34.6067  -14.1541 C   0  0  0  0  0  0  0  0  0  0  0  0
   24.5882  -34.0333  -13.3881 C   0  0  2  0  0  0  0  0  0  0  0  0
   23.7285  -33.3535  -14.3925 N   0  0  0  0  0  0  0  0  0  0  0  0
   24.8425  -33.0992  -12.3131 C   0  0  0  0  0  0  0  0  0  0  0  0
   25.1175  -31.8692  -12.4140 O   0  0  0  0  0  0  0  0  0  0  0  0
   20.6416  -28.2617  -11.7294 O   0  0  0  0  0  0  0  0  0  0  0  0
   21.3705  -29.2800  -11.0950 C   0  0  0  0  0  0  0  0  0  0  0  0
   21.1214  -30.5963  -11.3959 C   0  0  0  0  0  0  0  0  0  0  0  0
   21.8433  -31.6119  -10.7681 C   0  0  0  0  0  0  0  0  0  0  0  0
   22.8184  -31.3319   -9.8368 C   0  0  0  0  0  0  0  0  0  0  0  0
   23.5632  -32.4094   -9.2048 C   0  0  0  0  0  0  0  0  0  0  0  0
   24.9121  -32.7190   -9.8007 C   0  0  2  0  0  0  0  0  0  0  0  0
   24.7911  -33.5746  -10.9513 N   0  0  0  0  0  0  0  0  0  0  0  0
   25.6414  -33.4791   -8.7415 C   0  0  0  0  0  0  0  0  0  0  0  0
   25.6068  -34.7222   -8.7715 O   0  0  0  0  0  0  0  0  0  0  0  0
   23.0588  -30.0093   -9.5435 C   0  0  0  0  0  0  0  0  0  0  0  0
   22.3409  -28.9846  -10.1669 C   0  0  0  0  0  0  0  0  0  0  0  0
   26.3661  -32.8340   -7.7111 N   0  0  0  0  0  0  0  0  0  0  0  0
   26.9914  -33.5928   -6.6474 C   0  0  1  0  0  0  0  0  0  0  0  0
   27.7339  -32.7023   -5.6823 C   0  0  0  0  0  0  0  0  0  0  0  0
   28.4488  -33.6629   -4.3390 S   0  0  0  0  0  0  0  0  0  0  0  0
   25.9896  -34.4130   -5.9442 C   0  0  0  0  0  0  0  0  0  0  0  0
   26.2789  -35.7089   -5.5636 O   0  0  0  0  0  0  0  0  0  0  0  0
   24.8483  -33.9552   -5.6731 O   0  0  0  0  0  0  0  0  0  0  0  0
  2  1  1  0
  3  2  1  0
  4  3  1  0
  4  5  1  0
  5  7  1  0
  5  6  1  6
  7  8  2  0
  9 10  1  0
 10 11  2  0
 10 20  1  0
 11 12  1  0
 12 13  2  0
 13 14  1  0
 15 14  1  1
 16 15  1  0
 16  7  1  0
 17 18  2  0
 17 15  1  0
 19 13  1  0
 20 19  2  0
 21 17  1  0
 22 25  1  0
 22 21  1  0
 22 23  1  1
 24 23  1  0
 25 26  1  0
 27 25  2  0
M  END
$$$$
