MYC.pdb
     RDKit          3D

 27 27  0  0  1  0  0  0  0  0999 V2000
   28.1333  -23.4891  -17.7236 C   0  0  0  0  0  0  0  0  0  0  0  0
   28.4380  -21.7249  -18.0130 S   0  0  0  0  0  0  0  0  0  0  0  0
   28.6392  -20.9321  -16.4105 C   0  0  0  0  0  0  0  0  0  0  0  0
   27.4343  -20.1922  -15.9944 C   0  0  0  0  0  0  0  0  0  0  0  0
   26.5344  -20.7494  -14.9718 C   0  0  2  0  0  0  0  0  0  0  0  0
   25.9942  -22.0027  -15.5610 N   0  0  0  0  0  0  0  0  0  0  0  0
   25.4191  -19.9713  -14.4784 C   0  0  0  0  0  0  0  0  0  0  0  0
   25.4440  -18.7842  -14.0436 O   0  0  0  0  0  0  0  0  0  0  0  0
   22.7642  -15.9737  -19.2278 O   0  0  0  0  0  0  0  0  0  0  0  0
   22.5614  -16.9375  -18.2276 C   0  0  0  0  0  0  0  0  0  0  0  0
   21.6951  -16.6853  -17.1925 C   0  0  0  0  0  0  0  0  0  0  0  0
   21.4901  -17.6402  -16.1961 C   0  0  0  0  0  0  0  0  0  0  0  0
   22.1415  -18.8533  -16.2168 C   0  0  0  0  0  0  0  0  0  0  0  0
   21.9018  -19.8350  -15.1709 C   0  0  0  0  0  0  0  0  0  0  0  0
   22.9144  -19.8736  -14.0557 C   0  0  2  0  0  0  0  0  0  0  0  0
   24.1068  -20.5719  -14.4566 N   0  0  0  0  0  0  0  0  0  0  0  0
   22.2661  -20.6651  -12.9673 C   0  0  0  0  0  0  0  0  0  0  0  0
   22.1732  -21.8981  -13.1034 O   0  0  0  0  0  0  0  0  0  0  0  0
   23.0072  -19.0944  -17.2587 C   0  0  0  0  0  0  0  0  0  0  0  0
   23.2195  -18.1442  -18.2617 C   0  0  0  0  0  0  0  0  0  0  0  0
   21.7571  -20.0607  -11.7930 N   0  0  0  0  0  0  0  0  0  0  0  0
   21.1196  -20.8510  -10.7600 C   0  0  1  0  0  0  0  0  0  0  0  0
   21.1908  -20.1779   -9.4119 C   0  0  0  0  0  0  0  0  0  0  0  0
   20.3494  -21.1566   -8.1579 S   0  0  0  0  0  0  0  0  0  0  0  0
   19.7242  -21.1479  -11.1282 C   0  0  0  0  0  0  0  0  0  0  0  0
   19.1274  -22.3313  -10.7391 O   0  0  0  0  0  0  0  0  0  0  0  0
   19.0424  -20.3334  -11.8046 O   0  0  0  0  0  0  0  0  0  0  0  0
  2  1  1  0
  3  2  1  0
  4  3  1  0
  4  5  1  0
  5  7  1  0
  5  6  1  6
  7  8  2  0
  9 10  1  0
 10 11  2  0
 10 20  1  0
 11 12  1  0
 12 13  2  0
 13 14  1  0
 15 14  1  6
 16 15  1  0
 16  7  1  0
 17 18  2  0
 17 15  1  0
 19 13  1  0
 20 19  2  0
 21 17  1  0
 22 25  1  0
 22 21  1  0
 22 23  1  1
 24 23  1  0
 25 26  1  0
 27 25  2  0
M  END
$$$$
