MYC.pdb
     RDKit          3D

 27 27  0  0  1  0  0  0  0  0999 V2000
   27.2914  -15.5451  -19.0633 C   0  0  0  0  0  0  0  0  0  0  0  0
   26.8217  -16.1306  -20.7142 S   0  0  0  0  0  0  0  0  0  0  0  0
   27.2709  -17.8691  -20.8289 C   0  0  0  0  0  0  0  0  0  0  0  0
   26.6794  -18.6748  -19.7456 C   0  0  0  0  0  0  0  0  0  0  0  0
   27.3743  -18.8130  -18.4557 C   0  0  2  0  0  0  0  0  0  0  0  0
   28.6814  -19.4444  -18.7765 N   0  0  0  0  0  0  0  0  0  0  0  0
   26.7691  -19.5631  -17.3769 C   0  0  0  0  0  0  0  0  0  0  0  0
   26.1333  -20.6528  -17.4620 O   0  0  0  0  0  0  0  0  0  0  0  0
   25.1433  -21.6139   -8.8100 O   0  0  0  0  0  0  0  0  0  0  0  0
   25.5754  -20.9967   -9.9944 C   0  0  0  0  0  0  0  0  0  0  0  0
   26.6538  -21.4992  -10.6800 C   0  0  0  0  0  0  0  0  0  0  0  0
   27.0870  -20.8893  -11.8578 C   0  0  0  0  0  0  0  0  0  0  0  0
   26.4551  -19.7765  -12.3666 C   0  0  0  0  0  0  0  0  0  0  0  0
   26.9209  -19.1664  -13.6017 C   0  0  0  0  0  0  0  0  0  0  0  0
   26.3489  -19.7326  -14.8756 C   0  0  2  0  0  0  0  0  0  0  0  0
   26.8719  -19.0526  -16.0308 N   0  0  0  0  0  0  0  0  0  0  0  0
   24.8837  -19.4505  -14.8046 C   0  0  0  0  0  0  0  0  0  0  0  0
   24.4975  -18.2755  -14.9370 O   0  0  0  0  0  0  0  0  0  0  0  0
   25.3759  -19.2822  -11.6707 C   0  0  0  0  0  0  0  0  0  0  0  0
   24.9344  -19.8859  -10.4898 C   0  0  0  0  0  0  0  0  0  0  0  0
   23.9265  -20.4713  -14.5926 N   0  0  0  0  0  0  0  0  0  0  0  0
   22.5196  -20.1596  -14.4450 C   0  0  1  0  0  0  0  0  0  0  0  0
   21.6866  -20.7885  -15.5340 C   0  0  0  0  0  0  0  0  0  0  0  0
   19.9300  -20.5912  -15.1967 S   0  0  0  0  0  0  0  0  0  0  0  0
   22.0404  -20.5671  -13.1126 C   0  0  0  0  0  0  0  0  0  0  0  0
   21.1317  -19.7903  -12.4207 O   0  0  0  0  0  0  0  0  0  0  0  0
   22.4455  -21.6301  -12.5726 O   0  0  0  0  0  0  0  0  0  0  0  0
  2  1  1  0
  3  2  1  0
  4  3  1  0
  4  5  1  0
  5  7  1  0
  5  6  1  6
  7  8  2  0
  9 10  1  0
 10 11  2  0
 10 20  1  0
 11 12  1  0
 12 13  2  0
 13 14  1  0
 15 14  1  1
 16 15  1  0
 16  7  1  0
 17 18  2  0
 17 15  1  0
 19 13  1  0
 20 19  2  0
 21 17  1  0
 22 25  1  0
 22 21  1  0
 22 23  1  6
 24 23  1  0
 25 26  1  0
 27 25  2  0
M  END
$$$$
