MYC.pdb
     RDKit          3D

 27 27  0  0  1  0  0  0  0  0999 V2000
   26.2380  -20.5623  -21.6753 C   0  0  0  0  0  0  0  0  0  0  0  0
   27.8815  -19.8571  -21.3747 S   0  0  0  0  0  0  0  0  0  0  0  0
   28.7507  -20.9527  -20.2427 C   0  0  0  0  0  0  0  0  0  0  0  0
   27.8994  -21.3941  -19.1234 C   0  0  0  0  0  0  0  0  0  0  0  0
   28.4696  -21.5685  -17.7778 C   0  0  2  0  0  0  0  0  0  0  0  0
   29.4767  -22.6536  -17.9129 N   0  0  0  0  0  0  0  0  0  0  0  0
   27.6128  -21.8917  -16.6579 C   0  0  0  0  0  0  0  0  0  0  0  0
   26.9884  -22.9725  -16.4560 O   0  0  0  0  0  0  0  0  0  0  0  0
   23.9647  -20.6933   -8.5638 O   0  0  0  0  0  0  0  0  0  0  0  0
   24.7253  -20.5889   -9.7390 C   0  0  0  0  0  0  0  0  0  0  0  0
   24.2735  -19.8257  -10.7872 C   0  0  0  0  0  0  0  0  0  0  0  0
   25.0260  -19.7188  -11.9573 C   0  0  0  0  0  0  0  0  0  0  0  0
   26.2328  -20.3671  -12.0987 C   0  0  0  0  0  0  0  0  0  0  0  0
   27.0019  -20.2304  -13.3253 C   0  0  0  0  0  0  0  0  0  0  0  0
   26.5745  -21.1060  -14.4748 C   0  0  2  0  0  0  0  0  0  0  0  0
   27.4123  -20.9020  -15.6266 N   0  0  0  0  0  0  0  0  0  0  0  0
   25.1973  -20.6456  -14.8249 C   0  0  0  0  0  0  0  0  0  0  0  0
   25.0536  -19.5011  -15.2908 O   0  0  0  0  0  0  0  0  0  0  0  0
   26.6748  -21.1290  -11.0417 C   0  0  0  0  0  0  0  0  0  0  0  0
   25.9283  -21.2425   -9.8654 C   0  0  0  0  0  0  0  0  0  0  0  0
   24.0573  -21.4648  -14.6447 N   0  0  0  0  0  0  0  0  0  0  0  0
   22.7307  -20.9850  -14.9735 C   0  0  1  0  0  0  0  0  0  0  0  0
   22.1050  -21.7818  -16.0911 C   0  0  0  0  0  0  0  0  0  0  0  0
   23.2254  -21.9148  -17.4930 S   0  0  0  0  0  0  0  0  0  0  0  0
   21.8714  -20.9904  -13.7767 C   0  0  0  0  0  0  0  0  0  0  0  0
   20.6139  -20.4198  -13.8074 O   0  0  0  0  0  0  0  0  0  0  0  0
   22.2599  -21.5136  -12.6992 O   0  0  0  0  0  0  0  0  0  0  0  0
  2  1  1  0
  3  2  1  0
  4  3  1  0
  4  5  1  0
  5  7  1  0
  5  6  1  6
  7  8  2  0
  9 10  1  0
 10 11  2  0
 10 20  1  0
 11 12  1  0
 12 13  2  0
 13 14  1  0
 15 14  1  1
 16 15  1  0
 16  7  1  0
 17 18  2  0
 17 15  1  0
 19 13  1  0
 20 19  2  0
 21 17  1  0
 22 25  1  0
 22 21  1  0
 22 23  1  6
 24 23  1  0
 25 26  1  0
 27 25  2  0
M  END
$$$$
