MYC.pdb
     RDKit          3D

 27 27  0  0  1  0  0  0  0  0999 V2000
   27.1693  -20.2589  -21.1479 C   0  0  0  0  0  0  0  0  0  0  0  0
   28.8887  -20.7766  -21.4018 S   0  0  0  0  0  0  0  0  0  0  0  0
   29.3898  -21.7401  -19.9674 C   0  0  0  0  0  0  0  0  0  0  0  0
   28.2734  -21.9835  -19.0362 C   0  0  0  0  0  0  0  0  0  0  0  0
   28.5257  -22.5584  -17.7051 C   0  0  2  0  0  0  0  0  0  0  0  0
   29.0890  -23.9105  -17.9588 N   0  0  0  0  0  0  0  0  0  0  0  0
   27.4457  -22.6962  -16.7526 C   0  0  0  0  0  0  0  0  0  0  0  0
   26.6315  -23.6581  -16.6493 O   0  0  0  0  0  0  0  0  0  0  0  0
   22.7569  -20.5495   -9.4151 O   0  0  0  0  0  0  0  0  0  0  0  0
   23.6810  -20.5865  -10.4711 C   0  0  0  0  0  0  0  0  0  0  0  0
   23.4310  -19.8951  -11.6307 C   0  0  0  0  0  0  0  0  0  0  0  0
   24.3465  -19.9287  -12.6831 C   0  0  0  0  0  0  0  0  0  0  0  0
   25.5178  -20.6476  -12.5954 C   0  0  0  0  0  0  0  0  0  0  0  0
   26.4597  -20.6575  -13.7034 C   0  0  0  0  0  0  0  0  0  0  0  0
   26.2074  -21.6847  -14.7765 C   0  0  2  0  0  0  0  0  0  0  0  0
   27.2280  -21.6431  -15.7899 N   0  0  0  0  0  0  0  0  0  0  0  0
   24.9176  -21.2777  -15.4108 C   0  0  0  0  0  0  0  0  0  0  0  0
   24.9167  -20.3021  -16.1827 O   0  0  0  0  0  0  0  0  0  0  0  0
   25.7571  -21.3366  -11.4286 C   0  0  0  0  0  0  0  0  0  0  0  0
   24.8462  -21.3093  -10.3687 C   0  0  0  0  0  0  0  0  0  0  0  0
   23.7039  -21.9622  -15.1633 N   0  0  0  0  0  0  0  0  0  0  0  0
   22.4655  -21.5393  -15.7842 C   0  0  1  0  0  0  0  0  0  0  0  0
   22.1619  -22.3318  -17.0314 C   0  0  0  0  0  0  0  0  0  0  0  0
   20.5011  -21.9815  -17.6289 S   0  0  0  0  0  0  0  0  0  0  0  0
   21.3532  -21.6242  -14.8217 C   0  0  0  0  0  0  0  0  0  0  0  0
   21.4802  -22.3582  -13.6584 O   0  0  0  0  0  0  0  0  0  0  0  0
   20.2624  -21.0320  -15.0341 O   0  0  0  0  0  0  0  0  0  0  0  0
  2  1  1  0
  3  2  1  0
  4  3  1  0
  4  5  1  0
  5  7  1  0
  5  6  1  6
  7  8  2  0
  9 10  1  0
 10 11  2  0
 10 20  1  0
 11 12  1  0
 12 13  2  0
 13 14  1  0
 15 14  1  1
 16 15  1  0
 16  7  1  0
 17 18  2  0
 17 15  1  0
 19 13  1  0
 20 19  2  0
 21 17  1  0
 22 25  1  0
 22 21  1  0
 22 23  1  6
 24 23  1  0
 25 26  1  0
 27 25  2  0
M  END
$$$$
