MYC.pdb
     RDKit          3D

 27 27  0  0  1  0  0  0  0  0999 V2000
   29.1168  -12.9623  -14.9388 C   0  0  0  0  0  0  0  0  0  0  0  0
   27.5053  -12.2598  -15.3841 S   0  0  0  0  0  0  0  0  0  0  0  0
   27.5987  -11.7121  -17.0954 C   0  0  0  0  0  0  0  0  0  0  0  0
   26.4119  -10.9391  -17.5035 C   0  0  0  0  0  0  0  0  0  0  0  0
   25.0648  -11.3760  -17.1031 C   0  0  2  0  0  0  0  0  0  0  0  0
   24.8136  -12.6290  -17.8626 N   0  0  0  0  0  0  0  0  0  0  0  0
   23.9272  -10.5029  -17.2937 C   0  0  0  0  0  0  0  0  0  0  0  0
   23.2437  -10.3516  -18.3467 O   0  0  0  0  0  0  0  0  0  0  0  0
   18.2033  -13.6580  -17.4112 O   0  0  0  0  0  0  0  0  0  0  0  0
   18.9429  -12.5751  -16.9103 C   0  0  0  0  0  0  0  0  0  0  0  0
   19.8876  -12.7779  -15.9347 C   0  0  0  0  0  0  0  0  0  0  0  0
   20.6254  -11.7048  -15.4338 C   0  0  0  0  0  0  0  0  0  0  0  0
   20.4336  -10.4216  -15.8954 C   0  0  0  0  0  0  0  0  0  0  0  0
   21.2235   -9.3226  -15.3631 C   0  0  0  0  0  0  0  0  0  0  0  0
   22.3363   -8.8198  -16.2461 C   0  0  2  0  0  0  0  0  0  0  0  0
   23.4819   -9.6884  -16.1885 N   0  0  0  0  0  0  0  0  0  0  0  0
   22.7323   -7.5028  -15.6628 C   0  0  0  0  0  0  0  0  0  0  0  0
   23.4554   -7.4943  -14.6507 O   0  0  0  0  0  0  0  0  0  0  0  0
   19.4842  -10.2309  -16.8728 C   0  0  0  0  0  0  0  0  0  0  0  0
   18.7398  -11.2994  -17.3810 C   0  0  0  0  0  0  0  0  0  0  0  0
   22.3136   -6.2717  -16.2215 N   0  0  0  0  0  0  0  0  0  0  0  0
   22.7458   -5.0087  -15.6593 C   0  0  1  0  0  0  0  0  0  0  0  0
   22.6502   -3.8847  -16.6609 C   0  0  0  0  0  0  0  0  0  0  0  0
   23.0670   -2.3076  -15.9011 S   0  0  0  0  0  0  0  0  0  0  0  0
   21.9754   -4.6977  -14.4425 C   0  0  0  0  0  0  0  0  0  0  0  0
   22.6050   -4.2139  -13.3122 O   0  0  0  0  0  0  0  0  0  0  0  0
   20.7279   -4.8645  -14.4019 O   0  0  0  0  0  0  0  0  0  0  0  0
  2  1  1  0
  3  2  1  0
  4  3  1  0
  4  5  1  0
  5  7  1  0
  5  6  1  6
  7  8  2  0
  9 10  1  0
 10 11  2  0
 10 20  1  0
 11 12  1  0
 12 13  2  0
 13 14  1  0
 15 14  1  1
 16 15  1  0
 16  7  1  0
 17 18  2  0
 17 15  1  0
 19 13  1  0
 20 19  2  0
 21 17  1  0
 22 25  1  0
 22 21  1  0
 22 23  1  6
 24 23  1  0
 25 26  1  0
 27 25  2  0
M  END
$$$$
