MYC.pdb
     RDKit          3D

 27 27  0  0  1  0  0  0  0  0999 V2000
   28.1223  -19.2569   -4.9739 C   0  0  0  0  0  0  0  0  0  0  0  0
   27.4229  -19.0557   -6.6351 S   0  0  0  0  0  0  0  0  0  0  0  0
   28.4866  -19.9353   -7.7892 C   0  0  0  0  0  0  0  0  0  0  0  0
   27.7200  -20.6782   -8.8054 C   0  0  0  0  0  0  0  0  0  0  0  0
   26.2643  -20.4948   -8.9214 C   0  0  2  0  0  0  0  0  0  0  0  0
   25.6844  -21.1737   -7.7329 N   0  0  0  0  0  0  0  0  0  0  0  0
   25.5599  -20.9673  -10.0933 C   0  0  0  0  0  0  0  0  0  0  0  0
   25.3700  -22.1676  -10.4427 O   0  0  0  0  0  0  0  0  0  0  0  0
   19.3537  -23.3189   -9.0045 O   0  0  0  0  0  0  0  0  0  0  0  0
   20.1925  -22.4719   -9.7457 C   0  0  0  0  0  0  0  0  0  0  0  0
   20.7542  -21.3675   -9.1538 C   0  0  0  0  0  0  0  0  0  0  0  0
   21.5887  -20.5227   -9.8864 C   0  0  0  0  0  0  0  0  0  0  0  0
   21.8741  -20.7650  -11.2117 C   0  0  0  0  0  0  0  0  0  0  0  0
   22.7553  -19.8739  -11.9493 C   0  0  0  0  0  0  0  0  0  0  0  0
   24.1736  -20.3489  -12.1322 C   0  0  2  0  0  0  0  0  0  0  0  0
   24.9916  -19.9998  -11.0011 N   0  0  0  0  0  0  0  0  0  0  0  0
   24.6873  -19.5968  -13.3163 C   0  0  0  0  0  0  0  0  0  0  0  0
   25.0193  -18.4073  -13.1667 O   0  0  0  0  0  0  0  0  0  0  0  0
   21.3052  -21.8744  -11.7937 C   0  0  0  0  0  0  0  0  0  0  0  0
   20.4678  -22.7268  -11.0684 C   0  0  0  0  0  0  0  0  0  0  0  0
   24.8077  -20.1906  -14.5953 N   0  0  0  0  0  0  0  0  0  0  0  0
   25.3493  -19.4506  -15.7166 C   0  0  1  0  0  0  0  0  0  0  0  0
   26.8188  -19.7270  -15.9162 C   0  0  0  0  0  0  0  0  0  0  0  0
   27.7028  -18.2234  -16.3588 S   0  0  0  0  0  0  0  0  0  0  0  0
   24.5862  -19.7440  -16.9423 C   0  0  0  0  0  0  0  0  0  0  0  0
   24.7958  -19.0147  -18.0965 O   0  0  0  0  0  0  0  0  0  0  0  0
   23.7267  -20.6639  -16.9690 O   0  0  0  0  0  0  0  0  0  0  0  0
  2  1  1  0
  3  2  1  0
  4  3  1  0
  4  5  1  0
  5  7  1  0
  5  6  1  1
  7  8  2  0
  9 10  1  0
 10 11  2  0
 10 20  1  0
 11 12  1  0
 12 13  2  0
 13 14  1  0
 15 14  1  1
 16 15  1  0
 16  7  1  0
 17 18  2  0
 17 15  1  0
 19 13  1  0
 20 19  2  0
 21 17  1  0
 22 25  1  0
 22 21  1  0
 22 23  1  6
 24 23  1  0
 25 26  1  0
 27 25  2  0
M  END
$$$$
