AHD.pdb
     RDKit          3D

 24 24  0  0  1  0  0  0  0  0999 V2000
   16.3796   -8.3917  -18.3848 C   0  0  0  0  0  0  0  0  0  0  0  0
   17.7181   -9.0131  -18.7460 C   0  0  2  0  0  0  0  0  0  0  0  0
   17.4682  -10.3141  -19.2901 N   0  0  0  0  0  0  0  0  0  0  0  0
   18.5442   -9.1264  -17.4777 C   0  0  0  0  0  0  0  0  0  0  0  0
   17.9654   -9.2310  -16.3733 O   0  0  0  0  0  0  0  0  0  0  0  0
   19.9511   -9.1145  -17.5365 N   0  0  0  0  0  0  0  0  0  0  0  0
   20.9171   -9.1745  -16.5028 C   0  0  1  0  0  0  0  0  0  0  0  0
   21.9098  -10.3144  -16.5754 C   0  0  0  0  0  0  0  0  0  0  0  0
   21.3130  -11.6298  -16.8146 C   0  0  0  0  0  0  0  0  0  0  0  0
   20.4646  -12.3379  -15.9983 C   0  0  0  0  0  0  0  0  0  0  0  0
   20.1913  -13.5292  -16.5470 N   0  0  0  0  0  0  0  0  0  0  0  0
   20.8718  -13.5550  -17.7020 C   0  0  0  0  0  0  0  0  0  0  0  0
   21.5564  -12.4079  -17.8756 N   0  0  0  0  0  0  0  0  0  0  0  0
   21.6065   -7.9328  -16.1640 C   0  0  0  0  0  0  0  0  0  0  0  0
   22.3644   -7.3170  -16.9750 O   0  0  0  0  0  0  0  0  0  0  0  0
   21.4702   -7.3298  -14.8963 N   0  0  0  0  0  0  0  0  0  0  0  0
   22.1838   -6.0732  -14.5652 C   0  0  1  0  0  0  0  0  0  0  0  0
   21.4661   -5.0048  -15.3250 C   0  0  0  0  0  0  0  0  0  0  0  0
   21.8827   -3.6350  -15.0829 C   0  0  0  0  0  0  0  0  0  0  0  0
   23.0384   -3.3346  -14.7199 O   0  0  0  0  0  0  0  0  0  0  0  0
   21.9194   -5.8781  -13.1155 C   0  0  0  0  0  0  0  0  0  0  0  0
   21.1206   -6.6371  -12.5224 O   0  0  0  0  0  0  0  0  0  0  0  0
   20.9640   -2.6132  -15.2603 O   0  0  0  0  0  0  0  0  0  0  0  0
   22.5068   -4.8881  -12.3389 O   0  0  0  0  0  0  0  0  0  0  0  0
  2  1  1  1
  2  3  1  0
  4  2  1  0
  4  5  2  0
  6  7  1  0
  6  4  1  0
  7  8  1  6
  9  8  1  0
 10  9  2  0
 11 10  1  0
 12 11  1  0
 12 13  2  0
 13  9  1  0
 14  7  1  0
 15 14  2  0
 16 14  1  0
 17 16  1  0
 17 21  1  0
 17 18  1  6
 19 20  2  0
 19 18  1  0
 21 24  1  0
 22 21  2  0
 23 19  1  0
M  END
$$$$
