AHD.pdb
     RDKit          3D

 24 24  0  0  1  0  0  0  0  0999 V2000
   26.9732  -10.9819  -15.7944 C   0  0  0  0  0  0  0  0  0  0  0  0
   25.6118  -11.6075  -16.0464 C   0  0  2  0  0  0  0  0  0  0  0  0
   25.7682  -12.6138  -17.0535 N   0  0  0  0  0  0  0  0  0  0  0  0
   24.6746  -10.5186  -16.5361 C   0  0  0  0  0  0  0  0  0  0  0  0
   24.8296  -10.0428  -17.6829 O   0  0  0  0  0  0  0  0  0  0  0  0
   23.6370  -10.0432  -15.7114 N   0  0  0  0  0  0  0  0  0  0  0  0
   22.6585   -9.0463  -15.9438 C   0  0  1  0  0  0  0  0  0  0  0  0
   21.2139   -9.4837  -15.8352 C   0  0  0  0  0  0  0  0  0  0  0  0
   20.8229  -10.5385  -16.7724 C   0  0  0  0  0  0  0  0  0  0  0  0
   20.5938  -10.4318  -18.1228 C   0  0  0  0  0  0  0  0  0  0  0  0
   20.1933  -11.6125  -18.6129 N   0  0  0  0  0  0  0  0  0  0  0  0
   20.1756  -12.4473  -17.5638 C   0  0  0  0  0  0  0  0  0  0  0  0
   20.5558  -11.8071  -16.4410 N   0  0  0  0  0  0  0  0  0  0  0  0
   22.8437   -7.7633  -15.2718 C   0  0  0  0  0  0  0  0  0  0  0  0
   23.2135   -7.6616  -14.0617 O   0  0  0  0  0  0  0  0  0  0  0  0
   22.6216   -6.5387  -15.9351 N   0  0  0  0  0  0  0  0  0  0  0  0
   22.9304   -5.2454  -15.2793 C   0  0  1  0  0  0  0  0  0  0  0  0
   22.7504   -4.2140  -16.3459 C   0  0  0  0  0  0  0  0  0  0  0  0
   22.9352   -2.8276  -15.9558 C   0  0  0  0  0  0  0  0  0  0  0  0
   23.3136   -2.4916  -14.8150 O   0  0  0  0  0  0  0  0  0  0  0  0
   21.8455   -5.0798  -14.2768 C   0  0  0  0  0  0  0  0  0  0  0  0
   20.6932   -5.4938  -14.5348 O   0  0  0  0  0  0  0  0  0  0  0  0
   22.6828   -1.8303  -16.8839 O   0  0  0  0  0  0  0  0  0  0  0  0
   22.0123   -4.4826  -13.0342 O   0  0  0  0  0  0  0  0  0  0  0  0
  2  1  1  6
  2  3  1  0
  4  2  1  0
  4  5  2  0
  6  7  1  0
  6  4  1  0
  7  8  1  1
  9  8  1  0
 10  9  2  0
 11 10  1  0
 12 11  1  0
 12 13  2  0
 13  9  1  0
 14  7  1  0
 15 14  2  0
 16 14  1  0
 17 16  1  0
 17 21  1  0
 17 18  1  6
 19 20  2  0
 19 18  1  0
 21 24  1  0
 22 21  2  0
 23 19  1  0
M  END
$$$$
