AHD.pdb
     RDKit          3D

 24 24  0  0  1  0  0  0  0  0999 V2000
   23.2016  -14.0138  -18.4173 C   0  0  0  0  0  0  0  0  0  0  0  0
   23.0275  -12.6323  -19.0250 C   0  0  2  0  0  0  0  0  0  0  0  0
   23.9974  -12.4836  -20.0682 N   0  0  0  0  0  0  0  0  0  0  0  0
   23.2689  -11.6031  -17.9357 C   0  0  0  0  0  0  0  0  0  0  0  0
   22.5494  -11.6098  -16.9121 O   0  0  0  0  0  0  0  0  0  0  0  0
   24.2926  -10.6456  -18.0701 N   0  0  0  0  0  0  0  0  0  0  0  0
   24.7259   -9.6293  -17.1841 C   0  0  1  0  0  0  0  0  0  0  0  0
   26.2222   -9.4492  -17.0476 C   0  0  0  0  0  0  0  0  0  0  0  0
   26.9470  -10.6522  -16.6336 C   0  0  0  0  0  0  0  0  0  0  0  0
   26.4286  -11.8625  -16.2413 C   0  0  0  0  0  0  0  0  0  0  0  0
   27.4196  -12.6883  -15.8797 N   0  0  0  0  0  0  0  0  0  0  0  0
   28.5493  -11.9863  -16.0493 C   0  0  0  0  0  0  0  0  0  0  0  0
   28.2755  -10.7490  -16.5064 N   0  0  0  0  0  0  0  0  0  0  0  0
   24.0743   -8.3275  -17.2959 C   0  0  0  0  0  0  0  0  0  0  0  0
   23.8045   -7.7806  -18.4092 O   0  0  0  0  0  0  0  0  0  0  0  0
   23.6967   -7.5858  -16.1573 N   0  0  0  0  0  0  0  0  0  0  0  0
   22.9575   -6.3072  -16.2866 C   0  0  1  0  0  0  0  0  0  0  0  0
   22.0620   -6.2513  -15.0913 C   0  0  0  0  0  0  0  0  0  0  0  0
   21.2625   -5.0504  -14.9261 C   0  0  0  0  0  0  0  0  0  0  0  0
   20.9776   -4.2927  -15.8759 O   0  0  0  0  0  0  0  0  0  0  0  0
   24.0074   -5.2656  -16.1371 C   0  0  0  0  0  0  0  0  0  0  0  0
   25.0683   -5.5358  -15.5311 O   0  0  0  0  0  0  0  0  0  0  0  0
   20.7927   -4.7258  -13.6637 O   0  0  0  0  0  0  0  0  0  0  0  0
   23.9033   -3.9724  -16.6324 O   0  0  0  0  0  0  0  0  0  0  0  0
  2  1  1  1
  2  3  1  0
  4  2  1  0
  4  5  2  0
  6  7  1  0
  6  4  1  0
  7  8  1  6
  9  8  1  0
 10  9  2  0
 11 10  1  0
 12 11  1  0
 12 13  2  0
 13  9  1  0
 14  7  1  0
 15 14  2  0
 16 14  1  0
 17 16  1  0
 17 21  1  0
 17 18  1  1
 19 20  2  0
 19 18  1  0
 21 24  1  0
 22 21  2  0
 23 19  1  0
M  END
$$$$
