AHD.pdb
     RDKit          3D

 24 24  0  0  1  0  0  0  0  0999 V2000
   32.1182  -34.2570   -6.3308 C   0  0  0  0  0  0  0  0  0  0  0  0
   31.4696  -35.2118   -5.3429 C   0  0  2  0  0  0  0  0  0  0  0  0
   30.8229  -36.2482   -6.0905 N   0  0  0  0  0  0  0  0  0  0  0  0
   30.4471  -34.4335   -4.5351 C   0  0  0  0  0  0  0  0  0  0  0  0
   30.8329  -33.5279   -3.7627 O   0  0  0  0  0  0  0  0  0  0  0  0
   29.0739  -34.7233   -4.6494 N   0  0  0  0  0  0  0  0  0  0  0  0
   27.9543  -34.1537   -3.9955 C   0  0  1  0  0  0  0  0  0  0  0  0
   26.6607  -34.1237   -4.7801 C   0  0  0  0  0  0  0  0  0  0  0  0
   26.7117  -33.3341   -6.0121 C   0  0  0  0  0  0  0  0  0  0  0  0
   27.7606  -32.5957   -6.5040 C   0  0  0  0  0  0  0  0  0  0  0  0
   27.3896  -31.9671   -7.6274 N   0  0  0  0  0  0  0  0  0  0  0  0
   26.1112  -32.3186   -7.8278 C   0  0  0  0  0  0  0  0  0  0  0  0
   25.6885  -33.1480   -6.8540 N   0  0  0  0  0  0  0  0  0  0  0  0
   27.6966  -34.5822   -2.6237 C   0  0  0  0  0  0  0  0  0  0  0  0
   27.6988  -35.8001   -2.2658 O   0  0  0  0  0  0  0  0  0  0  0  0
   27.4267  -33.6562   -1.5948 N   0  0  0  0  0  0  0  0  0  0  0  0
   27.3042  -34.0935   -0.1834 C   0  0  1  0  0  0  0  0  0  0  0  0
   27.5361  -32.8605    0.6289 C   0  0  0  0  0  0  0  0  0  0  0  0
   27.4952  -33.0088    2.0727 C   0  0  0  0  0  0  0  0  0  0  0  0
   27.2403  -34.0943    2.6333 O   0  0  0  0  0  0  0  0  0  0  0  0
   25.8765  -34.4844   -0.0483 C   0  0  0  0  0  0  0  0  0  0  0  0
   25.4554  -34.9306    1.0423 O   0  0  0  0  0  0  0  0  0  0  0  0
   27.7486  -31.9029    2.8681 O   0  0  0  0  0  0  0  0  0  0  0  0
   24.9394  -34.3914   -1.0689 O   0  0  0  0  0  0  0  0  0  0  0  0
  2  1  1  6
  2  3  1  0
  4  2  1  0
  4  5  2  0
  6  7  1  0
  6  4  1  0
  7  8  1  6
  9  8  1  0
 10  9  2  0
 11 10  1  0
 12 11  1  0
 12 13  2  0
 13  9  1  0
 14  7  1  0
 15 14  2  0
 16 14  1  0
 17 16  1  0
 17 21  1  0
 17 18  1  1
 19 20  2  0
 19 18  1  0
 21 24  1  0
 22 21  2  0
 23 19  1  0
M  END
$$$$
