AHD.pdb
     RDKit          3D

 24 24  0  0  1  0  0  0  0  0999 V2000
   22.3553  -13.5790  -18.0923 C   0  0  0  0  0  0  0  0  0  0  0  0
   22.0202  -12.1632  -18.5299 C   0  0  2  0  0  0  0  0  0  0  0  0
   22.8343  -11.8478  -19.6652 N   0  0  0  0  0  0  0  0  0  0  0  0
   22.3400  -11.2251  -17.3802 C   0  0  0  0  0  0  0  0  0  0  0  0
   21.7393  -11.3594  -16.2908 O   0  0  0  0  0  0  0  0  0  0  0  0
   23.3037  -10.2097  -17.5319 N   0  0  0  0  0  0  0  0  0  0  0  0
   23.7239   -9.1967  -16.6359 C   0  0  1  0  0  0  0  0  0  0  0  0
   25.2078   -8.9024  -16.6017 C   0  0  0  0  0  0  0  0  0  0  0  0
   26.0524  -10.0563  -16.2869 C   0  0  0  0  0  0  0  0  0  0  0  0
   25.6595  -11.3208  -15.9206 C   0  0  0  0  0  0  0  0  0  0  0  0
   26.7349  -12.0747  -15.6565 N   0  0  0  0  0  0  0  0  0  0  0  0
   27.7911  -11.2743  -15.8604 C   0  0  0  0  0  0  0  0  0  0  0  0
   27.3897  -10.0466  -16.2433 N   0  0  0  0  0  0  0  0  0  0  0  0
   22.9671   -7.9481  -16.6418 C   0  0  0  0  0  0  0  0  0  0  0  0
   22.6764   -7.3187  -17.7052 O   0  0  0  0  0  0  0  0  0  0  0  0
   22.5033   -7.3552  -15.4492 N   0  0  0  0  0  0  0  0  0  0  0  0
   21.6990   -6.1100  -15.4753 C   0  0  1  0  0  0  0  0  0  0  0  0
   20.4717   -6.4213  -14.6810 C   0  0  0  0  0  0  0  0  0  0  0  0
   19.4354   -7.1888  -15.3486 C   0  0  0  0  0  0  0  0  0  0  0  0
   19.1426   -7.0257  -16.5507 O   0  0  0  0  0  0  0  0  0  0  0  0
   22.5188   -5.1336  -14.7111 C   0  0  0  0  0  0  0  0  0  0  0  0
   23.5806   -5.5075  -14.1645 O   0  0  0  0  0  0  0  0  0  0  0  0
   18.7382   -8.1442  -14.6269 O   0  0  0  0  0  0  0  0  0  0  0  0
   22.1912   -3.7939  -14.5486 O   0  0  0  0  0  0  0  0  0  0  0  0
  2  1  1  1
  2  3  1  0
  4  2  1  0
  4  5  2  0
  6  7  1  0
  6  4  1  0
  7  8  1  6
  9  8  1  0
 10  9  2  0
 11 10  1  0
 12 11  1  0
 12 13  2  0
 13  9  1  0
 14  7  1  0
 15 14  2  0
 16 14  1  0
 17 16  1  0
 17 21  1  0
 17 18  1  1
 19 20  2  0
 19 18  1  0
 21 24  1  0
 22 21  2  0
 23 19  1  0
M  END
$$$$
