AHD.pdb
     RDKit          3D

 24 24  0  0  1  0  0  0  0  0999 V2000
   20.0086  -11.6670  -18.7393 C   0  0  0  0  0  0  0  0  0  0  0  0
   20.3735  -10.2988  -19.2901 C   0  0  2  0  0  0  0  0  0  0  0  0
   21.6594  -10.4022  -19.9121 N   0  0  0  0  0  0  0  0  0  0  0  0
   20.4307   -9.3221  -18.1296 C   0  0  0  0  0  0  0  0  0  0  0  0
   19.3943   -9.0912  -17.4676 O   0  0  0  0  0  0  0  0  0  0  0  0
   21.6373   -8.6776  -17.7955 N   0  0  0  0  0  0  0  0  0  0  0  0
   21.9290   -7.7388  -16.7761 C   0  0  1  0  0  0  0  0  0  0  0  0
   23.1560   -8.0183  -15.9357 C   0  0  0  0  0  0  0  0  0  0  0  0
   23.1420   -9.3088  -15.2442 C   0  0  0  0  0  0  0  0  0  0  0  0
   22.1196  -10.2240  -15.1762 C   0  0  0  0  0  0  0  0  0  0  0  0
   22.4773  -11.2511  -14.3940 N   0  0  0  0  0  0  0  0  0  0  0  0
   23.7209  -10.9685  -13.9798 C   0  0  0  0  0  0  0  0  0  0  0  0
   24.1352   -9.7922  -14.4892 N   0  0  0  0  0  0  0  0  0  0  0  0
   21.8847   -6.3258  -17.1410 C   0  0  0  0  0  0  0  0  0  0  0  0
   22.5510   -5.8375  -18.1048 O   0  0  0  0  0  0  0  0  0  0  0  0
   21.0860   -5.4015  -16.4363 N   0  0  0  0  0  0  0  0  0  0  0  0
   20.9309   -4.0053  -16.9103 C   0  0  1  0  0  0  0  0  0  0  0  0
   20.1682   -4.1104  -18.1914 C   0  0  0  0  0  0  0  0  0  0  0  0
   19.7204   -2.8667  -18.7923 C   0  0  0  0  0  0  0  0  0  0  0  0
   19.9986   -1.7475  -18.3152 O   0  0  0  0  0  0  0  0  0  0  0  0
   20.0535   -3.3724  -15.8910 C   0  0  0  0  0  0  0  0  0  0  0  0
   19.8167   -2.1452  -15.9514 O   0  0  0  0  0  0  0  0  0  0  0  0
   18.9517   -2.9167  -19.9439 O   0  0  0  0  0  0  0  0  0  0  0  0
   19.4545   -4.0556  -14.8408 O   0  0  0  0  0  0  0  0  0  0  0  0
  2  1  1  1
  2  3  1  0
  4  2  1  0
  4  5  2  0
  6  7  1  0
  6  4  1  0
  7  8  1  6
  9  8  1  0
 10  9  2  0
 11 10  1  0
 12 11  1  0
 12 13  2  0
 13  9  1  0
 14  7  1  0
 15 14  2  0
 16 14  1  0
 17 16  1  0
 17 21  1  0
 17 18  1  6
 19 20  2  0
 19 18  1  0
 21 24  1  0
 22 21  2  0
 23 19  1  0
M  END
$$$$
