AHD.pdb
     RDKit          3D

 24 24  0  0  1  0  0  0  0  0999 V2000
   25.8137  -32.8494   -5.6872 C   0  0  0  0  0  0  0  0  0  0  0  0
   26.9129  -33.3118   -6.6286 C   0  0  2  0  0  0  0  0  0  0  0  0
   26.2997  -34.0368   -7.7007 N   0  0  0  0  0  0  0  0  0  0  0  0
   27.8496  -34.2192   -5.8520 C   0  0  0  0  0  0  0  0  0  0  0  0
   27.6095  -35.4457   -5.7922 O   0  0  0  0  0  0  0  0  0  0  0  0
   28.9815  -33.6911   -5.2016 N   0  0  0  0  0  0  0  0  0  0  0  0
   29.9285  -34.3116   -4.3509 C   0  0  1  0  0  0  0  0  0  0  0  0
   31.2440  -33.5865   -4.1672 C   0  0  0  0  0  0  0  0  0  0  0  0
   32.0725  -33.5095   -5.3720 C   0  0  0  0  0  0  0  0  0  0  0  0
   31.9369  -34.2170   -6.5419 C   0  0  0  0  0  0  0  0  0  0  0  0
   32.9327  -33.9055   -7.3822 N   0  0  0  0  0  0  0  0  0  0  0  0
   33.6823  -33.0054   -6.7296 C   0  0  0  0  0  0  0  0  0  0  0  0
   33.1704  -32.7569   -5.5085 N   0  0  0  0  0  0  0  0  0  0  0  0
   29.4449  -34.8026   -3.0637 C   0  0  0  0  0  0  0  0  0  0  0  0
   28.5751  -34.1906   -2.3707 O   0  0  0  0  0  0  0  0  0  0  0  0
   29.9195  -36.0061   -2.5022 N   0  0  0  0  0  0  0  0  0  0  0  0
   29.3888  -36.5116   -1.2134 C   0  0  1  0  0  0  0  0  0  0  0  0
   30.0642  -37.8281   -1.0026 C   0  0  0  0  0  0  0  0  0  0  0  0
   29.7578  -38.5329    0.2294 C   0  0  0  0  0  0  0  0  0  0  0  0
   28.9515  -38.0950    1.0754 O   0  0  0  0  0  0  0  0  0  0  0  0
   29.9081  -35.5498   -0.2061 C   0  0  0  0  0  0  0  0  0  0  0  0
   29.2733  -35.3590    0.8553 O   0  0  0  0  0  0  0  0  0  0  0  0
   30.3829  -39.7430    0.4833 O   0  0  0  0  0  0  0  0  0  0  0  0
   31.0808  -34.8204   -0.3519 O   0  0  0  0  0  0  0  0  0  0  0  0
  2  1  1  1
  2  3  1  0
  4  2  1  0
  4  5  2  0
  6  7  1  0
  6  4  1  0
  7  8  1  1
  9  8  1  0
 10  9  2  0
 11 10  1  0
 12 11  1  0
 12 13  2  0
 13  9  1  0
 14  7  1  0
 15 14  2  0
 16 14  1  0
 17 16  1  0
 17 21  1  0
 17 18  1  1
 19 20  2  0
 19 18  1  0
 21 24  1  0
 22 21  2  0
 23 19  1  0
M  END
$$$$
