AHD.pdb
     RDKit          3D

 24 24  0  0  1  0  0  0  0  0999 V2000
   21.3022  -13.5414  -18.7353 C   0  0  0  0  0  0  0  0  0  0  0  0
   22.1427  -12.6580  -17.8289 C   0  0  2  0  0  0  0  0  0  0  0  0
   22.2025  -13.2787  -16.5397 N   0  0  0  0  0  0  0  0  0  0  0  0
   21.4639  -11.3042  -17.7268 C   0  0  0  0  0  0  0  0  0  0  0  0
   21.3100  -10.6133  -18.7586 O   0  0  0  0  0  0  0  0  0  0  0  0
   21.0087  -10.8239  -16.4838 N   0  0  0  0  0  0  0  0  0  0  0  0
   20.3972   -9.5940  -16.1391 C   0  0  1  0  0  0  0  0  0  0  0  0
   19.0492   -9.6811  -15.4570 C   0  0  0  0  0  0  0  0  0  0  0  0
   17.9761  -10.2246  -16.2918 C   0  0  0  0  0  0  0  0  0  0  0  0
   17.3177   -9.6139  -17.3315 C   0  0  0  0  0  0  0  0  0  0  0  0
   16.3563  -10.4206  -17.8002 N   0  0  0  0  0  0  0  0  0  0  0  0
   16.4224  -11.5291  -17.0487 C   0  0  0  0  0  0  0  0  0  0  0  0
   17.4016  -11.4221  -16.1297 N   0  0  0  0  0  0  0  0  0  0  0  0
   21.2323   -8.6007  -15.4699 C   0  0  0  0  0  0  0  0  0  0  0  0
   21.9612   -8.8707  -14.4663 O   0  0  0  0  0  0  0  0  0  0  0  0
   21.2837   -7.2599  -15.9039 N   0  0  0  0  0  0  0  0  0  0  0  0
   22.2291   -6.2935  -15.2953 C   0  0  1  0  0  0  0  0  0  0  0  0
   22.2222   -5.1116  -16.2102 C   0  0  0  0  0  0  0  0  0  0  0  0
   23.0121   -3.9629  -15.8040 C   0  0  0  0  0  0  0  0  0  0  0  0
   24.1792   -4.0638  -15.3736 O   0  0  0  0  0  0  0  0  0  0  0  0
   21.5759   -5.9037  -14.0182 C   0  0  0  0  0  0  0  0  0  0  0  0
   20.3342   -6.0036  -13.9000 O   0  0  0  0  0  0  0  0  0  0  0  0
   22.4532   -2.6984  -15.8952 O   0  0  0  0  0  0  0  0  0  0  0  0
   22.2549   -5.4210  -12.9071 O   0  0  0  0  0  0  0  0  0  0  0  0
  2  1  1  6
  2  3  1  0
  4  2  1  0
  4  5  2  0
  6  7  1  0
  6  4  1  0
  7  8  1  1
  9  8  1  0
 10  9  2  0
 11 10  1  0
 12 11  1  0
 12 13  2  0
 13  9  1  0
 14  7  1  0
 15 14  2  0
 16 14  1  0
 17 16  1  0
 17 21  1  0
 17 18  1  6
 19 20  2  0
 19 18  1  0
 21 24  1  0
 22 21  2  0
 23 19  1  0
M  END
$$$$
