AHD.pdb
     RDKit          3D

 24 24  0  0  1  0  0  0  0  0999 V2000
   17.4309   -9.8795  -18.2341 C   0  0  0  0  0  0  0  0  0  0  0  0
   18.8983  -10.2731  -18.2416 C   0  0  2  0  0  0  0  0  0  0  0  0
   18.9778  -11.6845  -18.0120 N   0  0  0  0  0  0  0  0  0  0  0  0
   19.5951   -9.5209  -17.1224 C   0  0  0  0  0  0  0  0  0  0  0  0
   18.9847   -9.3073  -16.0511 O   0  0  0  0  0  0  0  0  0  0  0  0
   20.9176   -9.0644  -17.2819 N   0  0  0  0  0  0  0  0  0  0  0  0
   21.7668   -8.3694  -16.3868 C   0  0  1  0  0  0  0  0  0  0  0  0
   23.2010   -8.8466  -16.3132 C   0  0  0  0  0  0  0  0  0  0  0  0
   23.3604  -10.2397  -15.8918 C   0  0  0  0  0  0  0  0  0  0  0  0
   22.3928  -11.1080  -15.4475 C   0  0  0  0  0  0  0  0  0  0  0  0
   22.9513  -12.2746  -15.0985 N   0  0  0  0  0  0  0  0  0  0  0  0
   24.2639  -12.1250  -15.3279 C   0  0  0  0  0  0  0  0  0  0  0  0
   24.5246  -10.8941  -15.8095 N   0  0  0  0  0  0  0  0  0  0  0  0
   21.7275   -6.9105  -16.4303 C   0  0  0  0  0  0  0  0  0  0  0  0
   21.8282   -6.2461  -17.5072 O   0  0  0  0  0  0  0  0  0  0  0  0
   21.5710   -6.1367  -15.2617 N   0  0  0  0  0  0  0  0  0  0  0  0
   21.5546   -4.6554  -15.3204 C   0  0  1  0  0  0  0  0  0  0  0  0
   20.1136   -4.2865  -15.4672 C   0  0  0  0  0  0  0  0  0  0  0  0
   19.7817   -2.8778  -15.3490 C   0  0  0  0  0  0  0  0  0  0  0  0
   20.5726   -1.9681  -15.6723 O   0  0  0  0  0  0  0  0  0  0  0  0
   22.0127   -4.2346  -13.9704 C   0  0  0  0  0  0  0  0  0  0  0  0
   22.0349   -5.0657  -13.0351 O   0  0  0  0  0  0  0  0  0  0  0  0
   18.5365   -2.5210  -14.8575 O   0  0  0  0  0  0  0  0  0  0  0  0
   22.4328   -2.9500  -13.6514 O   0  0  0  0  0  0  0  0  0  0  0  0
  2  1  1  1
  2  3  1  0
  4  2  1  0
  4  5  2  0
  6  7  1  0
  6  4  1  0
  7  8  1  6
  9  8  1  0
 10  9  2  0
 11 10  1  0
 12 11  1  0
 12 13  2  0
 13  9  1  0
 14  7  1  0
 15 14  2  0
 16 14  1  0
 17 16  1  0
 17 21  1  0
 17 18  1  1
 19 20  2  0
 19 18  1  0
 21 24  1  0
 22 21  2  0
 23 19  1  0
M  END
$$$$
