AHD.pdb
     RDKit          3D

 24 24  0  0  1  0  0  0  0  0999 V2000
   21.8632  -13.0870  -17.7835 C   0  0  0  0  0  0  0  0  0  0  0  0
   21.7902  -11.6594  -18.2982 C   0  0  2  0  0  0  0  0  0  0  0  0
   22.6294  -11.5638  -19.4547 N   0  0  0  0  0  0  0  0  0  0  0  0
   22.2982  -10.7365  -17.2054 C   0  0  0  0  0  0  0  0  0  0  0  0
   21.7284  -10.7294  -16.0914 O   0  0  0  0  0  0  0  0  0  0  0  0
   23.4014   -9.8926  -17.4370 N   0  0  0  0  0  0  0  0  0  0  0  0
   23.9645   -8.8709  -16.6342 C   0  0  1  0  0  0  0  0  0  0  0  0
   25.4744   -8.7694  -16.6363 C   0  0  0  0  0  0  0  0  0  0  0  0
   26.1709  -10.0155  -16.3107 C   0  0  0  0  0  0  0  0  0  0  0  0
   25.6281  -11.2082  -15.8977 C   0  0  0  0  0  0  0  0  0  0  0  0
   26.6039  -12.0894  -15.6405 N   0  0  0  0  0  0  0  0  0  0  0  0
   27.7486  -11.4392  -15.8953 C   0  0  0  0  0  0  0  0  0  0  0  0
   27.4988  -10.1797  -16.3028 N   0  0  0  0  0  0  0  0  0  0  0  0
   23.3743   -7.5397  -16.7414 C   0  0  0  0  0  0  0  0  0  0  0  0
   23.2976   -6.9016  -17.8360 O   0  0  0  0  0  0  0  0  0  0  0  0
   22.8433   -6.8703  -15.6194 N   0  0  0  0  0  0  0  0  0  0  0  0
   22.1259   -5.5811  -15.7654 C   0  0  1  0  0  0  0  0  0  0  0  0
   20.6811   -5.9482  -15.8727 C   0  0  0  0  0  0  0  0  0  0  0  0
   19.7265   -4.8543  -15.8997 C   0  0  0  0  0  0  0  0  0  0  0  0
   20.0088   -3.7224  -16.3431 O   0  0  0  0  0  0  0  0  0  0  0  0
   22.3422   -4.8972  -14.4635 C   0  0  0  0  0  0  0  0  0  0  0  0
   22.8265   -5.5333  -13.5009 O   0  0  0  0  0  0  0  0  0  0  0  0
   18.4465   -5.0689  -15.4146 O   0  0  0  0  0  0  0  0  0  0  0  0
   22.0403   -3.5638  -14.2200 O   0  0  0  0  0  0  0  0  0  0  0  0
  2  1  1  1
  2  3  1  0
  4  2  1  0
  4  5  2  0
  6  7  1  0
  6  4  1  0
  7  8  1  6
  9  8  1  0
 10  9  2  0
 11 10  1  0
 12 11  1  0
 12 13  2  0
 13  9  1  0
 14  7  1  0
 15 14  2  0
 16 14  1  0
 17 16  1  0
 17 21  1  0
 17 18  1  1
 19 20  2  0
 19 18  1  0
 21 24  1  0
 22 21  2  0
 23 19  1  0
M  END
$$$$
