AHD.pdb
     RDKit          3D

 24 24  0  0  1  0  0  0  0  0999 V2000
   17.2328  -12.2373  -15.5279 C   0  0  0  0  0  0  0  0  0  0  0  0
   18.4363  -11.7321  -16.3054 C   0  0  2  0  0  0  0  0  0  0  0  0
   19.4739  -12.7136  -16.1994 N   0  0  0  0  0  0  0  0  0  0  0  0
   18.8875  -10.4244  -15.6807 C   0  0  0  0  0  0  0  0  0  0  0  0
   18.7252  -10.2399  -14.4538 O   0  0  0  0  0  0  0  0  0  0  0  0
   19.4847   -9.4227  -16.4700 N   0  0  0  0  0  0  0  0  0  0  0  0
   20.1117   -8.2085  -16.0986 C   0  0  1  0  0  0  0  0  0  0  0  0
   21.6120   -8.1422  -16.2845 C   0  0  0  0  0  0  0  0  0  0  0  0
   22.3547   -9.2349  -15.6535 C   0  0  0  0  0  0  0  0  0  0  0  0
   22.9844  -10.2945  -16.2603 C   0  0  0  0  0  0  0  0  0  0  0  0
   23.4980  -11.1130  -15.3324 N   0  0  0  0  0  0  0  0  0  0  0  0
   23.1845  -10.5573  -14.1530 C   0  0  0  0  0  0  0  0  0  0  0  0
   22.4906   -9.4170  -14.3348 N   0  0  0  0  0  0  0  0  0  0  0  0
   19.4951   -6.9711  -16.5681 C   0  0  0  0  0  0  0  0  0  0  0  0
   18.9238   -6.8660  -17.6968 O   0  0  0  0  0  0  0  0  0  0  0  0
   19.4940   -5.7982  -15.7849 N   0  0  0  0  0  0  0  0  0  0  0  0
   18.8808   -4.5442  -16.2843 C   0  0  1  0  0  0  0  0  0  0  0  0
   17.6252   -4.3804  -15.4902 C   0  0  0  0  0  0  0  0  0  0  0  0
   16.9178   -3.1205  -15.6339 C   0  0  0  0  0  0  0  0  0  0  0  0
   17.0108   -2.4061  -16.6530 O   0  0  0  0  0  0  0  0  0  0  0  0
   19.8388   -3.4844  -15.8738 C   0  0  0  0  0  0  0  0  0  0  0  0
   20.7894   -3.7682  -15.1113 O   0  0  0  0  0  0  0  0  0  0  0  0
   16.1034   -2.6868  -14.6003 O   0  0  0  0  0  0  0  0  0  0  0  0
   19.7622   -2.1592  -16.2817 O   0  0  0  0  0  0  0  0  0  0  0  0
  2  1  1  1
  2  3  1  0
  4  2  1  0
  4  5  2  0
  6  7  1  0
  6  4  1  0
  7  8  1  6
  9  8  1  0
 10  9  2  0
 11 10  1  0
 12 11  1  0
 12 13  2  0
 13  9  1  0
 14  7  1  0
 15 14  2  0
 16 14  1  0
 17 16  1  0
 17 21  1  0
 17 18  1  1
 19 20  2  0
 19 18  1  0
 21 24  1  0
 22 21  2  0
 23 19  1  0
M  END
$$$$
