AHD.pdb
     RDKit          3D

 24 24  0  0  1  0  0  0  0  0999 V2000
   18.9458  -11.8646  -20.6112 C   0  0  0  0  0  0  0  0  0  0  0  0
   20.2125  -11.4147  -19.9031 C   0  0  2  0  0  0  0  0  0  0  0  0
   20.8322  -12.5716  -19.3297 N   0  0  0  0  0  0  0  0  0  0  0  0
   19.8212  -10.4355  -18.8113 C   0  0  0  0  0  0  0  0  0  0  0  0
   19.2566   -9.3625  -19.1202 O   0  0  0  0  0  0  0  0  0  0  0  0
   20.0887  -10.7263  -17.4598 N   0  0  0  0  0  0  0  0  0  0  0  0
   19.7625  -10.0118  -16.2814 C   0  0  1  0  0  0  0  0  0  0  0  0
   19.3081  -10.8382  -15.0980 C   0  0  0  0  0  0  0  0  0  0  0  0
   17.9918  -11.4596  -15.2561 C   0  0  0  0  0  0  0  0  0  0  0  0
   17.0659  -11.2454  -16.2483 C   0  0  0  0  0  0  0  0  0  0  0  0
   15.9595  -11.9598  -16.0026 N   0  0  0  0  0  0  0  0  0  0  0  0
   16.2039  -12.6146  -14.8583 C   0  0  0  0  0  0  0  0  0  0  0  0
   17.4341  -12.3192  -14.3956 N   0  0  0  0  0  0  0  0  0  0  0  0
   20.7056   -8.9873  -15.8425 C   0  0  0  0  0  0  0  0  0  0  0  0
   21.9372   -9.2194  -15.6409 O   0  0  0  0  0  0  0  0  0  0  0  0
   20.3018   -7.6556  -15.6132 N   0  0  0  0  0  0  0  0  0  0  0  0
   21.2854   -6.6101  -15.2423 C   0  0  1  0  0  0  0  0  0  0  0  0
   20.6666   -5.3205  -15.6758 C   0  0  0  0  0  0  0  0  0  0  0  0
   21.3536   -4.1008  -15.2902 C   0  0  0  0  0  0  0  0  0  0  0  0
   22.5382   -4.0881  -14.8976 O   0  0  0  0  0  0  0  0  0  0  0  0
   21.3078   -6.6452  -13.7565 C   0  0  0  0  0  0  0  0  0  0  0  0
   22.0635   -5.8704  -13.1284 O   0  0  0  0  0  0  0  0  0  0  0  0
   20.6717   -2.8966  -15.3582 O   0  0  0  0  0  0  0  0  0  0  0  0
   20.5317   -7.4971  -12.9817 O   0  0  0  0  0  0  0  0  0  0  0  0
  2  1  1  1
  2  3  1  0
  4  2  1  0
  4  5  2  0
  6  7  1  0
  6  4  1  0
  7  8  1  1
  9  8  1  0
 10  9  2  0
 11 10  1  0
 12 11  1  0
 12 13  2  0
 13  9  1  0
 14  7  1  0
 15 14  2  0
 16 14  1  0
 17 16  1  0
 17 21  1  0
 17 18  1  1
 19 20  2  0
 19 18  1  0
 21 24  1  0
 22 21  2  0
 23 19  1  0
M  END
$$$$
