AHD.pdb
     RDKit          3D

 24 24  0  0  1  0  0  0  0  0999 V2000
   24.5683  -10.1012  -20.8450 C   0  0  0  0  0  0  0  0  0  0  0  0
   24.7722   -8.9344  -19.8936 C   0  0  2  0  0  0  0  0  0  0  0  0
   25.7676   -9.3141  -18.9365 N   0  0  0  0  0  0  0  0  0  0  0  0
   23.4532   -8.6583  -19.1950 C   0  0  0  0  0  0  0  0  0  0  0  0
   22.5400   -8.0686  -19.8146 O   0  0  0  0  0  0  0  0  0  0  0  0
   23.2525   -9.0598  -17.8603 N   0  0  0  0  0  0  0  0  0  0  0  0
   22.1287   -8.9095  -17.0119 C   0  0  1  0  0  0  0  0  0  0  0  0
   22.0084   -9.8992  -15.8735 C   0  0  0  0  0  0  0  0  0  0  0  0
   20.7236   -9.8700  -15.1718 C   0  0  0  0  0  0  0  0  0  0  0  0
   19.5109  -10.3523  -15.6013 C   0  0  0  0  0  0  0  0  0  0  0  0
   18.5631  -10.0769  -14.6955 N   0  0  0  0  0  0  0  0  0  0  0  0
   19.1922   -9.4246  -13.7073 C   0  0  0  0  0  0  0  0  0  0  0  0
   20.5038   -9.2929  -13.9848 N   0  0  0  0  0  0  0  0  0  0  0  0
   21.8306   -7.5618  -16.5357 C   0  0  0  0  0  0  0  0  0  0  0  0
   22.6746   -6.8423  -15.9181 O   0  0  0  0  0  0  0  0  0  0  0  0
   20.5684   -6.9655  -16.7363 N   0  0  0  0  0  0  0  0  0  0  0  0
   20.2798   -5.5982  -16.2411 C   0  0  1  0  0  0  0  0  0  0  0  0
   19.8118   -4.8392  -17.4406 C   0  0  0  0  0  0  0  0  0  0  0  0
   19.3997   -3.4634  -17.2267 C   0  0  0  0  0  0  0  0  0  0  0  0
   18.2027   -3.1245  -17.1274 O   0  0  0  0  0  0  0  0  0  0  0  0
   19.1267   -5.7823  -15.3214 C   0  0  0  0  0  0  0  0  0  0  0  0
   18.1339   -6.4460  -15.6954 O   0  0  0  0  0  0  0  0  0  0  0  0
   20.3707   -2.4800  -17.1278 O   0  0  0  0  0  0  0  0  0  0  0  0
   19.0588   -5.2598  -14.0366 O   0  0  0  0  0  0  0  0  0  0  0  0
  2  1  1  6
  2  3  1  0
  4  2  1  0
  4  5  2  0
  6  7  1  0
  6  4  1  0
  7  8  1  1
  9  8  1  0
 10  9  2  0
 11 10  1  0
 12 11  1  0
 12 13  2  0
 13  9  1  0
 14  7  1  0
 15 14  2  0
 16 14  1  0
 17 16  1  0
 17 21  1  0
 17 18  1  6
 19 20  2  0
 19 18  1  0
 21 24  1  0
 22 21  2  0
 23 19  1  0
M  END
$$$$
