YIF.pdb
     RDKit          3D

 32 33  0  0  1  0  0  0  0  0999 V2000
   14.3735  -21.2011   15.3831 O   0  0  0  0  0  0  0  0  0  0  0  0
   13.9420  -20.3199   16.3760 C   0  0  0  0  0  0  0  0  0  0  0  0
   14.4442  -19.0492   16.4376 C   0  0  0  0  0  0  0  0  0  0  0  0
   14.0513  -18.1609   17.3867 C   0  0  0  0  0  0  0  0  0  0  0  0
   13.1189  -18.5369   18.3230 C   0  0  0  0  0  0  0  0  0  0  0  0
   12.7159  -17.5865   19.3565 C   0  0  0  0  0  0  0  0  0  0  0  0
   11.3270  -17.0786   19.1138 C   0  0  2  0  0  0  0  0  0  0  0  0
   11.2973  -16.3766   17.8194 N   0  0  0  0  0  0  0  0  0  0  0  0
   10.9706  -16.0862   20.1505 C   0  0  0  0  0  0  0  0  0  0  0  0
   11.9092  -15.4082   20.6601 O   0  0  0  0  0  0  0  0  0  0  0  0
   12.5874  -19.8026   18.3003 C   0  0  0  0  0  0  0  0  0  0  0  0
   13.0064  -20.6801   17.3250 C   0  0  0  0  0  0  0  0  0  0  0  0
    7.5088  -12.5277   18.9650 C   0  0  0  0  0  0  0  0  0  0  0  0
    8.6210  -13.2682   19.6344 C   0  0  0  0  0  0  0  0  0  0  0  0
    8.1486  -13.9894   20.8921 C   0  0  2  0  0  0  0  0  0  0  0  0
    7.4763  -13.0748   21.8477 C   0  0  0  0  0  0  0  0  0  0  0  0
    9.2837  -14.7632   21.5174 C   0  0  2  0  0  0  0  0  0  0  0  0
    9.6495  -15.8717   20.5864 N   0  0  0  0  0  0  0  0  0  0  0  0
    8.9600  -15.3323   22.8320 C   0  0  0  0  0  0  0  0  0  0  0  0
    8.0720  -16.2577   22.8804 O   0  0  0  0  0  0  0  0  0  0  0  0
    9.5070  -14.9961   24.0783 N   0  0  0  0  0  0  0  0  0  0  0  0
    9.1023  -15.6112   25.3479 C   0  0  1  0  0  0  0  0  0  0  0  0
    7.6151  -15.6270   25.4942 C   0  0  0  0  0  0  0  0  0  0  0  0
    7.1243  -14.2641   25.7702 C   0  0  0  0  0  0  0  0  0  0  0  0
    7.9092  -13.2657   26.2767 C   0  0  0  0  0  0  0  0  0  0  0  0
    7.4209  -12.0131   26.5190 C   0  0  0  0  0  0  0  0  0  0  0  0
    6.0849  -11.7413   26.2432 C   0  0  0  0  0  0  0  0  0  0  0  0
    5.2550  -12.7117   25.7328 C   0  0  0  0  0  0  0  0  0  0  0  0
    5.8073  -13.9638   25.5077 C   0  0  0  0  0  0  0  0  0  0  0  0
    9.7561  -16.9093   25.5443 C   0  0  0  0  0  0  0  0  0  0  0  0
    9.4858  -17.5796   26.5710 O   0  0  0  0  0  0  0  0  0  0  0  0
   10.6645  -17.4668   24.6693 O   0  0  0  0  0  0  0  0  0  0  0  0
  2  1  1  0
  3  2  2  0
  4  3  1  0
  5 11  1  0
  5  4  2  0
  6  5  1  0
  7  8  1  6
  7  6  1  0
  9 10  2  0
  9  7  1  0
 11 12  2  0
 12  2  1  0
 14 13  1  0
 15 14  1  0
 15 16  1  1
 17 15  1  0
 17 18  1  6
 18  9  1  0
 19 17  1  0
 20 19  2  0
 21 19  1  0
 22 23  1  6
 22 21  1  0
 23 24  1  0
 24 29  1  0
 25 24  2  0
 25 26  1  0
 26 27  2  0
 27 28  1  0
 29 28  2  0
 30 32  1  0
 30 22  1  0
 31 30  2  0
M  END
$$$$
