YIF.pdb
     RDKit          3D

 32 33  0  0  1  0  0  0  0  0999 V2000
    3.4007  -23.7781   23.7086 O   0  0  0  0  0  0  0  0  0  0  0  0
    4.3485  -22.7578   23.6125 C   0  0  0  0  0  0  0  0  0  0  0  0
    3.9542  -21.4482   23.5951 C   0  0  0  0  0  0  0  0  0  0  0  0
    4.8434  -20.4259   23.5031 C   0  0  0  0  0  0  0  0  0  0  0  0
    6.1871  -20.7008   23.4241 C   0  0  0  0  0  0  0  0  0  0  0  0
    7.1390  -19.5995   23.3016 C   0  0  0  0  0  0  0  0  0  0  0  0
    7.0661  -18.9687   21.9442 C   0  0  2  0  0  0  0  0  0  0  0  0
    7.5749  -19.9262   20.9474 N   0  0  0  0  0  0  0  0  0  0  0  0
    7.9514  -17.7852   21.8960 C   0  0  0  0  0  0  0  0  0  0  0  0
    9.1604  -17.9704   21.5730 O   0  0  0  0  0  0  0  0  0  0  0  0
    6.6291  -22.0005   23.4376 C   0  0  0  0  0  0  0  0  0  0  0  0
    5.7024  -23.0150   23.5320 C   0  0  0  0  0  0  0  0  0  0  0  0
    6.6876  -13.2281   19.5087 C   0  0  0  0  0  0  0  0  0  0  0  0
    7.3961  -14.3838   20.1379 C   0  0  0  0  0  0  0  0  0  0  0  0
    7.6954  -14.1336   21.6120 C   0  0  2  0  0  0  0  0  0  0  0  0
    8.3903  -12.8416   21.8349 C   0  0  0  0  0  0  0  0  0  0  0  0
    8.4307  -15.3081   22.2104 C   0  0  2  0  0  0  0  0  0  0  0  0
    7.5086  -16.4825   22.1927 N   0  0  0  0  0  0  0  0  0  0  0  0
    8.8881  -15.0822   23.5875 C   0  0  0  0  0  0  0  0  0  0  0  0
    8.8238  -13.8868   24.0501 O   0  0  0  0  0  0  0  0  0  0  0  0
    9.3971  -16.0221   24.4948 N   0  0  0  0  0  0  0  0  0  0  0  0
    9.1716  -15.9731   25.9441 C   0  0  1  0  0  0  0  0  0  0  0  0
    7.7132  -15.9159   26.2655 C   0  0  0  0  0  0  0  0  0  0  0  0
    7.2610  -14.5127   26.2934 C   0  0  0  0  0  0  0  0  0  0  0  0
    6.1306  -14.0696   25.6647 C   0  0  0  0  0  0  0  0  0  0  0  0
    5.7407  -12.7612   25.7128 C   0  0  0  0  0  0  0  0  0  0  0  0
    6.5148  -11.8490   26.4222 C   0  0  0  0  0  0  0  0  0  0  0  0
    7.6604  -12.2453   27.0715 C   0  0  0  0  0  0  0  0  0  0  0  0
    8.0052  -13.5860   26.9869 C   0  0  0  0  0  0  0  0  0  0  0  0
    9.9156  -17.0310   26.6360 C   0  0  0  0  0  0  0  0  0  0  0  0
   10.2520  -18.0583   25.9972 O   0  0  0  0  0  0  0  0  0  0  0  0
   10.2856  -16.9856   27.9636 O   0  0  0  0  0  0  0  0  0  0  0  0
  2  1  1  0
  3  2  2  0
  4  3  1  0
  5 11  1  0
  5  4  2  0
  6  5  1  0
  7  8  1  6
  7  6  1  0
  9 10  2  0
  9  7  1  0
 11 12  2  0
 12  2  1  0
 14 13  1  0
 15 14  1  0
 15 16  1  6
 17 15  1  0
 17 18  1  1
 18  9  1  0
 19 17  1  0
 20 19  2  0
 21 19  1  0
 22 23  1  6
 22 21  1  0
 23 24  1  0
 24 29  1  0
 25 24  2  0
 25 26  1  0
 26 27  2  0
 27 28  1  0
 29 28  2  0
 30 32  1  0
 30 22  1  0
 31 30  2  0
M  END
$$$$
