YIF.pdb
     RDKit          3D

 32 33  0  0  1  0  0  0  0  0999 V2000
   14.3979  -20.8711   14.9169 O   0  0  0  0  0  0  0  0  0  0  0  0
   13.9290  -20.2035   16.0496 C   0  0  0  0  0  0  0  0  0  0  0  0
   12.6912  -19.6217   16.0455 C   0  0  0  0  0  0  0  0  0  0  0  0
   12.1975  -18.9634   17.1259 C   0  0  0  0  0  0  0  0  0  0  0  0
   12.9550  -18.8705   18.2681 C   0  0  0  0  0  0  0  0  0  0  0  0
   12.4303  -18.1416   19.4202 C   0  0  0  0  0  0  0  0  0  0  0  0
   12.0756  -16.7323   19.0540 C   0  0  2  0  0  0  0  0  0  0  0  0
   13.3129  -15.9973   18.7404 N   0  0  0  0  0  0  0  0  0  0  0  0
   11.4553  -16.0567   20.2139 C   0  0  0  0  0  0  0  0  0  0  0  0
   12.2146  -15.7065   21.1632 O   0  0  0  0  0  0  0  0  0  0  0  0
   14.2037  -19.4390   18.3180 C   0  0  0  0  0  0  0  0  0  0  0  0
   14.6761  -20.0999   17.2058 C   0  0  0  0  0  0  0  0  0  0  0  0
    7.2620  -12.7157   19.4781 C   0  0  0  0  0  0  0  0  0  0  0  0
    8.4935  -13.4335   19.9271 C   0  0  0  0  0  0  0  0  0  0  0  0
    8.1932  -14.4451   21.0278 C   0  0  2  0  0  0  0  0  0  0  0  0
    7.4194  -13.8495   22.1452 C   0  0  0  0  0  0  0  0  0  0  0  0
    9.4619  -15.1223   21.4860 C   0  0  2  0  0  0  0  0  0  0  0  0
   10.0752  -15.7943   20.3019 N   0  0  0  0  0  0  0  0  0  0  0  0
    9.2533  -16.1188   22.5444 C   0  0  0  0  0  0  0  0  0  0  0  0
   10.0563  -17.1189   22.5903 O   0  0  0  0  0  0  0  0  0  0  0  0
    8.2701  -16.1259   23.5439 N   0  0  0  0  0  0  0  0  0  0  0  0
    8.5358  -15.8556   24.9617 C   0  0  1  0  0  0  0  0  0  0  0  0
    9.1725  -14.5166   25.1496 C   0  0  0  0  0  0  0  0  0  0  0  0
    9.5164  -14.3204   26.5700 C   0  0  0  0  0  0  0  0  0  0  0  0
    8.8921  -13.4140   27.3813 C   0  0  0  0  0  0  0  0  0  0  0  0
    9.2361  -13.2598   28.6943 C   0  0  0  0  0  0  0  0  0  0  0  0
   10.2521  -14.0472   29.2258 C   0  0  0  0  0  0  0  0  0  0  0  0
   10.9102  -14.9731   28.4508 C   0  0  0  0  0  0  0  0  0  0  0  0
   10.5171  -15.0844   27.1254 C   0  0  0  0  0  0  0  0  0  0  0  0
    7.3438  -16.0934   25.7826 C   0  0  0  0  0  0  0  0  0  0  0  0
    7.4207  -16.8828   26.7560 O   0  0  0  0  0  0  0  0  0  0  0  0
    6.1162  -15.5035   25.5668 O   0  0  0  0  0  0  0  0  0  0  0  0
  2  1  1  0
  3  2  2  0
  4  3  1  0
  5 11  1  0
  5  4  2  0
  6  5  1  0
  7  8  1  1
  7  6  1  0
  9 10  2  0
  9  7  1  0
 11 12  2  0
 12  2  1  0
 14 13  1  0
 15 14  1  0
 15 16  1  1
 17 15  1  0
 17 18  1  6
 18  9  1  0
 19 17  1  0
 20 19  2  0
 21 19  1  0
 22 23  1  6
 22 21  1  0
 23 24  1  0
 24 29  1  0
 25 24  2  0
 25 26  1  0
 26 27  2  0
 27 28  1  0
 29 28  2  0
 30 32  1  0
 30 22  1  0
 31 30  2  0
M  END
$$$$
