YIF.pdb
     RDKit          3D

 32 33  0  0  1  0  0  0  0  0999 V2000
    5.0195  -23.6184   28.5910 O   0  0  0  0  0  0  0  0  0  0  0  0
    5.6395  -22.6498   27.7997 C   0  0  0  0  0  0  0  0  0  0  0  0
    5.1442  -21.3758   27.7527 C   0  0  0  0  0  0  0  0  0  0  0  0
    5.7171  -20.4041   26.9965 C   0  0  0  0  0  0  0  0  0  0  0  0
    6.8319  -20.6956   26.2485 C   0  0  0  0  0  0  0  0  0  0  0  0
    7.4317  -19.6541   25.4181 C   0  0  0  0  0  0  0  0  0  0  0  0
    6.6222  -19.4154   24.1797 C   0  0  2  0  0  0  0  0  0  0  0  0
    6.5055  -20.6819   23.4370 N   0  0  0  0  0  0  0  0  0  0  0  0
    7.3295  -18.4623   23.2976 C   0  0  0  0  0  0  0  0  0  0  0  0
    8.3014  -18.9029   22.6182 O   0  0  0  0  0  0  0  0  0  0  0  0
    7.3640  -21.9612   26.2644 C   0  0  0  0  0  0  0  0  0  0  0  0
    6.7599  -22.9245   27.0416 C   0  0  0  0  0  0  0  0  0  0  0  0
    5.5298  -14.5212   20.2351 C   0  0  0  0  0  0  0  0  0  0  0  0
    6.3972  -15.5465   20.8908 C   0  0  0  0  0  0  0  0  0  0  0  0
    7.1780  -14.9649   22.0643 C   0  0  2  0  0  0  0  0  0  0  0  0
    8.0340  -13.8219   21.6610 C   0  0  0  0  0  0  0  0  0  0  0  0
    7.9445  -16.0499   22.7808 C   0  0  2  0  0  0  0  0  0  0  0  0
    6.9703  -17.1057   23.1882 N   0  0  0  0  0  0  0  0  0  0  0  0
    8.6638  -15.5802   23.9719 C   0  0  0  0  0  0  0  0  0  0  0  0
    8.1482  -14.6122   24.6384 O   0  0  0  0  0  0  0  0  0  0  0  0
    9.8708  -16.0610   24.4989 N   0  0  0  0  0  0  0  0  0  0  0  0
   10.4696  -15.5853   25.7515 C   0  0  1  0  0  0  0  0  0  0  0  0
    9.4931  -15.6536   26.8808 C   0  0  0  0  0  0  0  0  0  0  0  0
    8.5875  -14.4910   26.8310 C   0  0  0  0  0  0  0  0  0  0  0  0
    7.2758  -14.5696   26.4530 C   0  0  0  0  0  0  0  0  0  0  0  0
    6.4647  -13.4709   26.4198 C   0  0  0  0  0  0  0  0  0  0  0  0
    6.9855  -12.2327   26.7807 C   0  0  0  0  0  0  0  0  0  0  0  0
    8.2984  -12.1017   27.1682 C   0  0  0  0  0  0  0  0  0  0  0  0
    9.0728  -13.2522   27.1823 C   0  0  0  0  0  0  0  0  0  0  0  0
   11.7578  -16.2377   26.0085 C   0  0  0  0  0  0  0  0  0  0  0  0
   12.1516  -17.1395   25.2286 O   0  0  0  0  0  0  0  0  0  0  0  0
   12.5922  -15.9310   27.0628 O   0  0  0  0  0  0  0  0  0  0  0  0
  2  1  1  0
  3  2  2  0
  4  3  1  0
  5 11  1  0
  5  4  2  0
  6  5  1  0
  7  8  1  6
  7  6  1  0
  9 10  2  0
  9  7  1  0
 11 12  2  0
 12  2  1  0
 14 13  1  0
 15 14  1  0
 15 16  1  6
 17 15  1  0
 17 18  1  1
 18  9  1  0
 19 17  1  0
 20 19  2  0
 21 19  1  0
 22 23  1  1
 22 21  1  0
 23 24  1  0
 24 29  1  0
 25 24  2  0
 25 26  1  0
 26 27  2  0
 27 28  1  0
 29 28  2  0
 30 32  1  0
 30 22  1  0
 31 30  2  0
M  END
$$$$
