YIF.pdb
     RDKit          3D

 32 33  0  0  1  0  0  0  0  0999 V2000
    7.2690  -23.8953   17.6172 O   0  0  0  0  0  0  0  0  0  0  0  0
    7.7861  -22.7852   18.2872 C   0  0  0  0  0  0  0  0  0  0  0  0
    6.9534  -21.7910   18.7216 C   0  0  0  0  0  0  0  0  0  0  0  0
    7.4153  -20.6950   19.3771 C   0  0  0  0  0  0  0  0  0  0  0  0
    8.7615  -20.5669   19.6193 C   0  0  0  0  0  0  0  0  0  0  0  0
    9.2574  -19.3756   20.3040 C   0  0  0  0  0  0  0  0  0  0  0  0
    9.1351  -18.1607   19.4349 C   0  0  2  0  0  0  0  0  0  0  0  0
   10.1277  -18.2504   18.3506 N   0  0  0  0  0  0  0  0  0  0  0  0
    9.4623  -16.9510   20.2199 C   0  0  0  0  0  0  0  0  0  0  0  0
   10.6842  -16.7077   20.4396 O   0  0  0  0  0  0  0  0  0  0  0  0
    9.6351  -21.5399   19.2011 C   0  0  0  0  0  0  0  0  0  0  0  0
    9.1355  -22.6393   18.5390 C   0  0  0  0  0  0  0  0  0  0  0  0
    7.4997  -12.1779   19.2900 C   0  0  0  0  0  0  0  0  0  0  0  0
    8.3145  -13.3442   19.7475 C   0  0  0  0  0  0  0  0  0  0  0  0
    7.9797  -13.7453   21.1800 C   0  0  2  0  0  0  0  0  0  0  0  0
    8.0616  -12.6001   22.1200 C   0  0  0  0  0  0  0  0  0  0  0  0
    8.8210  -14.9219   21.6114 C   0  0  2  0  0  0  0  0  0  0  0  0
    8.4830  -16.0754   20.7254 N   0  0  0  0  0  0  0  0  0  0  0  0
    8.6131  -15.3185   23.0101 C   0  0  0  0  0  0  0  0  0  0  0  0
    7.5294  -15.9420   23.2997 O   0  0  0  0  0  0  0  0  0  0  0  0
    9.4633  -15.1065   24.1045 N   0  0  0  0  0  0  0  0  0  0  0  0
    9.1658  -15.5414   25.4743 C   0  0  1  0  0  0  0  0  0  0  0  0
    7.6929  -15.6557   25.7003 C   0  0  0  0  0  0  0  0  0  0  0  0
    7.1392  -14.3400   26.0699 C   0  0  0  0  0  0  0  0  0  0  0  0
    5.8089  -14.0321   25.9991 C   0  0  0  0  0  0  0  0  0  0  0  0
    5.3305  -12.8020   26.3513 C   0  0  0  0  0  0  0  0  0  0  0  0
    6.2209  -11.8303   26.7959 C   0  0  0  0  0  0  0  0  0  0  0  0
    7.5682  -12.0910   26.8850 C   0  0  0  0  0  0  0  0  0  0  0  0
    7.9944  -13.3575   26.5138 C   0  0  0  0  0  0  0  0  0  0  0  0
    9.9405  -16.7331   25.8359 C   0  0  0  0  0  0  0  0  0  0  0  0
    9.8437  -17.1939   26.9999 O   0  0  0  0  0  0  0  0  0  0  0  0
   10.7858  -17.4052   24.9784 O   0  0  0  0  0  0  0  0  0  0  0  0
  2  1  1  0
  3  2  2  0
  4  3  1  0
  5 11  1  0
  5  4  2  0
  6  5  1  0
  7  8  1  6
  7  6  1  0
  9 10  2  0
  9  7  1  0
 11 12  2  0
 12  2  1  0
 14 13  1  0
 15 14  1  0
 15 16  1  1
 17 15  1  0
 17 18  1  6
 18  9  1  0
 19 17  1  0
 20 19  2  0
 21 19  1  0
 22 23  1  6
 22 21  1  0
 23 24  1  0
 24 29  1  0
 25 24  2  0
 25 26  1  0
 26 27  2  0
 27 28  1  0
 29 28  2  0
 30 32  1  0
 30 22  1  0
 31 30  2  0
M  END
$$$$
