YIF.pdb
     RDKit          3D

 32 33  0  0  1  0  0  0  0  0999 V2000
    7.4834  -11.9413   17.0168 O   0  0  0  0  0  0  0  0  0  0  0  0
    7.6113  -12.6674   18.2021 C   0  0  0  0  0  0  0  0  0  0  0  0
    6.5029  -13.1643   18.8308 C   0  0  0  0  0  0  0  0  0  0  0  0
    6.5834  -13.8757   19.9847 C   0  0  0  0  0  0  0  0  0  0  0  0
    7.8124  -14.1122   20.5514 C   0  0  0  0  0  0  0  0  0  0  0  0
    7.8932  -14.8578   21.8050 C   0  0  0  0  0  0  0  0  0  0  0  0
    8.5812  -16.1747   21.6088 C   0  0  2  0  0  0  0  0  0  0  0  0
    7.6786  -17.0773   20.8740 N   0  0  0  0  0  0  0  0  0  0  0  0
    8.8419  -16.8017   22.9224 C   0  0  0  0  0  0  0  0  0  0  0  0
    7.8845  -17.4108   23.4815 O   0  0  0  0  0  0  0  0  0  0  0  0
    8.9525  -13.6324   19.9557 C   0  0  0  0  0  0  0  0  0  0  0  0
    8.8375  -12.9146   18.7860 C   0  0  0  0  0  0  0  0  0  0  0  0
   12.6702  -20.0600   23.1935 C   0  0  0  0  0  0  0  0  0  0  0  0
   11.4323  -19.2676   23.4642 C   0  0  0  0  0  0  0  0  0  0  0  0
   11.6172  -18.3044   24.6318 C   0  0  2  0  0  0  0  0  0  0  0  0
   12.0631  -18.9949   25.8672 C   0  0  0  0  0  0  0  0  0  0  0  0
   10.3726  -17.4757   24.8375 C   0  0  2  0  0  0  0  0  0  0  0  0
   10.0931  -16.7462   23.5649 N   0  0  0  0  0  0  0  0  0  0  0  0
   10.4829  -16.5014   25.9308 C   0  0  0  0  0  0  0  0  0  0  0  0
   11.3320  -15.5482   25.7986 O   0  0  0  0  0  0  0  0  0  0  0  0
    9.7636  -16.4665   27.1338 N   0  0  0  0  0  0  0  0  0  0  0  0
   10.1003  -15.5999   28.2693 C   0  0  1  0  0  0  0  0  0  0  0  0
    8.9170  -14.8028   28.7142 C   0  0  0  0  0  0  0  0  0  0  0  0
    8.3666  -14.0449   27.5754 C   0  0  0  0  0  0  0  0  0  0  0  0
    7.4512  -14.5563   26.6980 C   0  0  0  0  0  0  0  0  0  0  0  0
    6.9614  -13.8243   25.6537 C   0  0  0  0  0  0  0  0  0  0  0  0
    7.4052  -12.5183   25.4744 C   0  0  0  0  0  0  0  0  0  0  0  0
    8.3250  -11.9586   26.3298 C   0  0  0  0  0  0  0  0  0  0  0  0
    8.7858  -12.7502   27.3712 C   0  0  0  0  0  0  0  0  0  0  0  0
   10.7738  -16.3520   29.3333 C   0  0  0  0  0  0  0  0  0  0  0  0
   10.7274  -17.6067   29.3170 O   0  0  0  0  0  0  0  0  0  0  0  0
   11.4723  -15.7775   30.3742 O   0  0  0  0  0  0  0  0  0  0  0  0
  2  1  1  0
  3  2  2  0
  4  3  1  0
  5 11  1  0
  5  4  2  0
  6  5  1  0
  7  8  1  6
  7  6  1  0
  9 10  2  0
  9  7  1  0
 11 12  2  0
 12  2  1  0
 14 13  1  0
 15 14  1  0
 15 16  1  1
 17 15  1  0
 17 18  1  6
 18  9  1  0
 19 17  1  0
 20 19  2  0
 21 19  1  0
 22 23  1  1
 22 21  1  0
 23 24  1  0
 24 29  1  0
 25 24  2  0
 25 26  1  0
 26 27  2  0
 27 28  1  0
 29 28  2  0
 30 32  1  0
 30 22  1  0
 31 30  2  0
M  END
$$$$
