YIF.pdb
     RDKit          3D

 32 33  0  0  1  0  0  0  0  0999 V2000
    5.9102  -24.6298   20.4213 O   0  0  0  0  0  0  0  0  0  0  0  0
    6.5209  -23.4107   20.7199 C   0  0  0  0  0  0  0  0  0  0  0  0
    7.8838  -23.2981   20.7013 C   0  0  0  0  0  0  0  0  0  0  0  0
    8.5175  -22.1309   20.9852 C   0  0  0  0  0  0  0  0  0  0  0  0
    7.7780  -21.0177   21.3034 C   0  0  0  0  0  0  0  0  0  0  0  0
    8.4637  -19.7701   21.6309 C   0  0  0  0  0  0  0  0  0  0  0  0
    8.1992  -18.7186   20.5963 C   0  0  2  0  0  0  0  0  0  0  0  0
    8.7685  -19.1618   19.3122 N   0  0  0  0  0  0  0  0  0  0  0  0
    8.8949  -17.4677   20.9674 C   0  0  0  0  0  0  0  0  0  0  0  0
   10.0835  -17.3156   20.5619 O   0  0  0  0  0  0  0  0  0  0  0  0
    6.4071  -21.0838   21.3348 C   0  0  0  0  0  0  0  0  0  0  0  0
    5.7943  -22.2820   21.0419 C   0  0  0  0  0  0  0  0  0  0  0  0
    6.8444  -12.8529   19.7782 C   0  0  0  0  0  0  0  0  0  0  0  0
    7.8042  -13.9367   20.1490 C   0  0  0  0  0  0  0  0  0  0  0  0
    7.9753  -14.0531   21.6597 C   0  0  2  0  0  0  0  0  0  0  0  0
    8.3120  -12.7531   22.2909 C   0  0  0  0  0  0  0  0  0  0  0  0
    8.9609  -15.1447   21.9990 C   0  0  2  0  0  0  0  0  0  0  0  0
    8.2963  -16.4571   21.7431 N   0  0  0  0  0  0  0  0  0  0  0  0
    9.4277  -15.1104   23.3911 C   0  0  0  0  0  0  0  0  0  0  0  0
    9.8514  -13.9901   23.8520 O   0  0  0  0  0  0  0  0  0  0  0  0
    9.4718  -16.1645   24.3145 N   0  0  0  0  0  0  0  0  0  0  0  0
    8.8370  -16.1271   25.6372 C   0  0  1  0  0  0  0  0  0  0  0  0
    7.4179  -15.6675   25.5460 C   0  0  0  0  0  0  0  0  0  0  0  0
    7.3121  -14.2727   26.0126 C   0  0  0  0  0  0  0  0  0  0  0  0
    8.3654  -13.5621   26.5177 C   0  0  0  0  0  0  0  0  0  0  0  0
    8.2312  -12.2698   26.9398 C   0  0  0  0  0  0  0  0  0  0  0  0
    6.9866  -11.6547   26.8546 C   0  0  0  0  0  0  0  0  0  0  0  0
    5.8965  -12.3271   26.3540 C   0  0  0  0  0  0  0  0  0  0  0  0
    6.0942  -13.6363   25.9412 C   0  0  0  0  0  0  0  0  0  0  0  0
    9.0324  -17.3891   26.3586 C   0  0  0  0  0  0  0  0  0  0  0  0
    9.4930  -17.3596   27.5263 O   0  0  0  0  0  0  0  0  0  0  0  0
    8.7419  -18.6355   25.8452 O   0  0  0  0  0  0  0  0  0  0  0  0
  2  1  1  0
  3  2  2  0
  4  3  1  0
  5 11  1  0
  5  4  2  0
  6  5  1  0
  7  8  1  6
  7  6  1  0
  9 10  2  0
  9  7  1  0
 11 12  2  0
 12  2  1  0
 14 13  1  0
 15 14  1  0
 15 16  1  6
 17 15  1  0
 17 18  1  1
 18  9  1  0
 19 17  1  0
 20 19  2  0
 21 19  1  0
 22 23  1  6
 22 21  1  0
 23 24  1  0
 24 29  1  0
 25 24  2  0
 25 26  1  0
 26 27  2  0
 27 28  1  0
 29 28  2  0
 30 32  1  0
 30 22  1  0
 31 30  2  0
M  END
$$$$
