YIF.pdb
     RDKit          3D

 32 33  0  0  1  0  0  0  0  0999 V2000
   -0.0474  -21.0849   21.6680 O   0  0  0  0  0  0  0  0  0  0  0  0
    1.1289  -20.3597   21.8650 C   0  0  0  0  0  0  0  0  0  0  0  0
    1.4495  -19.3238   21.0316 C   0  0  0  0  0  0  0  0  0  0  0  0
    2.5833  -18.5930   21.1884 C   0  0  0  0  0  0  0  0  0  0  0  0
    3.4469  -18.8926   22.2140 C   0  0  0  0  0  0  0  0  0  0  0  0
    4.6770  -18.1195   22.3655 C   0  0  0  0  0  0  0  0  0  0  0  0
    5.5209  -18.1963   21.1294 C   0  0  2  0  0  0  0  0  0  0  0  0
    5.9513  -19.5912   20.9339 N   0  0  0  0  0  0  0  0  0  0  0  0
    6.7463  -17.3887   21.3112 C   0  0  0  0  0  0  0  0  0  0  0  0
    7.8163  -18.0022   21.5921 O   0  0  0  0  0  0  0  0  0  0  0  0
    3.1663  -19.9243   23.0752 C   0  0  0  0  0  0  0  0  0  0  0  0
    2.0084  -20.6465   22.8897 C   0  0  0  0  0  0  0  0  0  0  0  0
    6.8665  -12.6856   18.6143 C   0  0  0  0  0  0  0  0  0  0  0  0
    7.3083  -13.9896   19.1953 C   0  0  0  0  0  0  0  0  0  0  0  0
    7.7644  -13.8424   20.6429 C   0  0  2  0  0  0  0  0  0  0  0  0
    8.9091  -12.9084   20.7811 C   0  0  0  0  0  0  0  0  0  0  0  0
    8.0321  -15.1959   21.2546 C   0  0  2  0  0  0  0  0  0  0  0  0
    6.7673  -15.9867   21.1876 N   0  0  0  0  0  0  0  0  0  0  0  0
    8.4837  -15.1368   22.6508 C   0  0  0  0  0  0  0  0  0  0  0  0
    7.8893  -14.3148   23.4369 O   0  0  0  0  0  0  0  0  0  0  0  0
    9.5031  -15.8803   23.2621 N   0  0  0  0  0  0  0  0  0  0  0  0
   10.0134  -15.6216   24.6136 C   0  0  1  0  0  0  0  0  0  0  0  0
    8.8970  -15.4398   25.5904 C   0  0  0  0  0  0  0  0  0  0  0  0
    9.4431  -15.1083   26.9194 C   0  0  0  0  0  0  0  0  0  0  0  0
    9.7686  -16.0467   27.8590 C   0  0  0  0  0  0  0  0  0  0  0  0
   10.2741  -15.7033   29.0807 C   0  0  0  0  0  0  0  0  0  0  0  0
   10.4650  -14.3588   29.3816 C   0  0  0  0  0  0  0  0  0  0  0  0
   10.1531  -13.3773   28.4703 C   0  0  0  0  0  0  0  0  0  0  0  0
    9.6436  -13.7870   27.2471 C   0  0  0  0  0  0  0  0  0  0  0  0
   11.0194  -16.6152   25.0034 C   0  0  0  0  0  0  0  0  0  0  0  0
   10.8203  -17.8246   24.7309 O   0  0  0  0  0  0  0  0  0  0  0  0
   12.1958  -16.3200   25.6594 O   0  0  0  0  0  0  0  0  0  0  0  0
  2  1  1  0
  3  2  2  0
  4  3  1  0
  5 11  1  0
  5  4  2  0
  6  5  1  0
  7  8  1  1
  7  6  1  0
  9 10  2  0
  9  7  1  0
 11 12  2  0
 12  2  1  0
 14 13  1  0
 15 14  1  0
 15 16  1  6
 17 15  1  0
 17 18  1  1
 18  9  1  0
 19 17  1  0
 20 19  2  0
 21 19  1  0
 22 23  1  1
 22 21  1  0
 23 24  1  0
 24 29  1  0
 25 24  2  0
 25 26  1  0
 26 27  2  0
 27 28  1  0
 29 28  2  0
 30 32  1  0
 30 22  1  0
 31 30  2  0
M  END
$$$$
