YIF.pdb
     RDKit          3D

 32 33  0  0  1  0  0  0  0  0999 V2000
   11.2187  -23.3586   16.0141 O   0  0  0  0  0  0  0  0  0  0  0  0
   11.3151  -22.2737   16.8871 C   0  0  0  0  0  0  0  0  0  0  0  0
   12.3885  -22.1557   17.7265 C   0  0  0  0  0  0  0  0  0  0  0  0
   12.5208  -21.1163   18.5904 C   0  0  0  0  0  0  0  0  0  0  0  0
   11.5522  -20.1431   18.6340 C   0  0  0  0  0  0  0  0  0  0  0  0
   11.6863  -19.0389   19.5809 C   0  0  0  0  0  0  0  0  0  0  0  0
   10.9694  -17.8166   19.0930 C   0  0  2  0  0  0  0  0  0  0  0  0
   11.7802  -17.1780   18.0422 N   0  0  0  0  0  0  0  0  0  0  0  0
   10.8444  -16.8385   20.1950 C   0  0  0  0  0  0  0  0  0  0  0  0
   11.8785  -16.1863   20.5199 O   0  0  0  0  0  0  0  0  0  0  0  0
   10.4568  -20.2202   17.8100 C   0  0  0  0  0  0  0  0  0  0  0  0
   10.3517  -21.2867   16.9449 C   0  0  0  0  0  0  0  0  0  0  0  0
    6.7670  -13.4658   20.4573 C   0  0  0  0  0  0  0  0  0  0  0  0
    8.1070  -14.1068   20.6213 C   0  0  0  0  0  0  0  0  0  0  0  0
    8.1837  -14.9487   21.8904 C   0  0  2  0  0  0  0  0  0  0  0  0
    7.8240  -14.1738   23.1036 C   0  0  0  0  0  0  0  0  0  0  0  0
    9.5304  -15.6214   21.9996 C   0  0  2  0  0  0  0  0  0  0  0  0
    9.6397  -16.6103   20.8862 N   0  0  0  0  0  0  0  0  0  0  0  0
    9.7448  -16.3154   23.2760 C   0  0  0  0  0  0  0  0  0  0  0  0
    9.2901  -17.5100   23.3905 O   0  0  0  0  0  0  0  0  0  0  0  0
   10.4012  -15.8390   24.4197 N   0  0  0  0  0  0  0  0  0  0  0  0
   10.7617  -16.6756   25.5704 C   0  0  1  0  0  0  0  0  0  0  0  0
   11.5340  -15.8983   26.5866 C   0  0  0  0  0  0  0  0  0  0  0  0
   10.6318  -14.9818   27.3079 C   0  0  0  0  0  0  0  0  0  0  0  0
   10.5456  -14.9225   28.6712 C   0  0  0  0  0  0  0  0  0  0  0  0
    9.6986  -14.0593   29.3065 C   0  0  0  0  0  0  0  0  0  0  0  0
    8.8978  -13.2132   28.5465 C   0  0  0  0  0  0  0  0  0  0  0  0
    8.9479  -13.2347   27.1725 C   0  0  0  0  0  0  0  0  0  0  0  0
    9.8269  -14.1320   26.5844 C   0  0  0  0  0  0  0  0  0  0  0  0
    9.5944  -17.3911   26.0964 C   0  0  0  0  0  0  0  0  0  0  0  0
    9.7555  -18.2253   27.0209 O   0  0  0  0  0  0  0  0  0  0  0  0
    8.3026  -17.2153   25.6471 O   0  0  0  0  0  0  0  0  0  0  0  0
  2  1  1  0
  3  2  2  0
  4  3  1  0
  5 11  1  0
  5  4  2  0
  6  5  1  0
  7  8  1  6
  7  6  1  0
  9 10  2  0
  9  7  1  0
 11 12  2  0
 12  2  1  0
 14 13  1  0
 15 14  1  0
 15 16  1  1
 17 15  1  0
 17 18  1  6
 18  9  1  0
 19 17  1  0
 20 19  2  0
 21 19  1  0
 22 23  1  1
 22 21  1  0
 23 24  1  0
 24 29  1  0
 25 24  2  0
 25 26  1  0
 26 27  2  0
 27 28  1  0
 29 28  2  0
 30 32  1  0
 30 22  1  0
 31 30  2  0
M  END
$$$$
