YIF.pdb
     RDKit          3D

 32 33  0  0  1  0  0  0  0  0999 V2000
   13.6761  -21.1140   14.2375 O   0  0  0  0  0  0  0  0  0  0  0  0
   13.3024  -20.2776   15.2908 C   0  0  0  0  0  0  0  0  0  0  0  0
   13.3149  -18.9192   15.1319 C   0  0  0  0  0  0  0  0  0  0  0  0
   12.9586  -18.0705   16.1305 C   0  0  0  0  0  0  0  0  0  0  0  0
   12.5704  -18.5787   17.3463 C   0  0  0  0  0  0  0  0  0  0  0  0
   12.2103  -17.6622   18.4254 C   0  0  0  0  0  0  0  0  0  0  0  0
   10.7678  -17.8107   18.8036 C   0  0  2  0  0  0  0  0  0  0  0  0
    9.9382  -17.5972   17.6056 N   0  0  0  0  0  0  0  0  0  0  0  0
   10.3970  -16.7613   19.7773 C   0  0  0  0  0  0  0  0  0  0  0  0
   11.3190  -16.2740   20.4934 O   0  0  0  0  0  0  0  0  0  0  0  0
   12.5428  -19.9359   17.5517 C   0  0  0  0  0  0  0  0  0  0  0  0
   12.9098  -20.7702   16.5192 C   0  0  0  0  0  0  0  0  0  0  0  0
    8.4648  -12.6126   19.3040 C   0  0  0  0  0  0  0  0  0  0  0  0
    7.7636  -13.9262   19.1768 C   0  0  0  0  0  0  0  0  0  0  0  0
    7.4903  -14.5595   20.5367 C   0  0  2  0  0  0  0  0  0  0  0  0
    7.0058  -13.5712   21.5318 C   0  0  0  0  0  0  0  0  0  0  0  0
    8.6960  -15.3321   21.0137 C   0  0  2  0  0  0  0  0  0  0  0  0
    9.0793  -16.2928   19.9367 N   0  0  0  0  0  0  0  0  0  0  0  0
    8.4682  -16.0778   22.2582 C   0  0  0  0  0  0  0  0  0  0  0  0
    7.5376  -16.9615   22.2637 O   0  0  0  0  0  0  0  0  0  0  0  0
    9.1509  -15.9557   23.4767 N   0  0  0  0  0  0  0  0  0  0  0  0
    8.6243  -15.2450   24.6478 C   0  0  1  0  0  0  0  0  0  0  0  0
    8.3963  -13.7987   24.3484 C   0  0  0  0  0  0  0  0  0  0  0  0
    7.9200  -13.1054   25.5596 C   0  0  0  0  0  0  0  0  0  0  0  0
    6.6374  -12.6600   25.7213 C   0  0  0  0  0  0  0  0  0  0  0  0
    6.2303  -12.0222   26.8586 C   0  0  0  0  0  0  0  0  0  0  0  0
    7.1456  -11.8178   27.8858 C   0  0  0  0  0  0  0  0  0  0  0  0
    8.4470  -12.2472   27.7713 C   0  0  0  0  0  0  0  0  0  0  0  0
    8.8015  -12.8883   26.5936 C   0  0  0  0  0  0  0  0  0  0  0  0
    7.4716  -15.9458   25.2234 C   0  0  0  0  0  0  0  0  0  0  0  0
    7.5831  -16.4759   26.3562 O   0  0  0  0  0  0  0  0  0  0  0  0
    6.2450  -16.0705   24.6059 O   0  0  0  0  0  0  0  0  0  0  0  0
  2  1  1  0
  3  2  2  0
  4  3  1  0
  5 11  1  0
  5  4  2  0
  6  5  1  0
  7  8  1  6
  7  6  1  0
  9 10  2  0
  9  7  1  0
 11 12  2  0
 12  2  1  0
 14 13  1  0
 15 14  1  0
 15 16  1  1
 17 15  1  0
 17 18  1  6
 18  9  1  0
 19 17  1  0
 20 19  2  0
 21 19  1  0
 22 23  1  6
 22 21  1  0
 23 24  1  0
 24 29  1  0
 25 24  2  0
 25 26  1  0
 26 27  2  0
 27 28  1  0
 29 28  2  0
 30 32  1  0
 30 22  1  0
 31 30  2  0
M  END
$$$$
