YIF.pdb
     RDKit          3D

 32 33  0  0  1  0  0  0  0  0999 V2000
    7.9296  -23.7351   16.6044 O   0  0  0  0  0  0  0  0  0  0  0  0
    8.3596  -22.6613   17.3858 C   0  0  0  0  0  0  0  0  0  0  0  0
    9.6924  -22.3720   17.4888 C   0  0  0  0  0  0  0  0  0  0  0  0
   10.1525  -21.3368   18.2377 C   0  0  0  0  0  0  0  0  0  0  0  0
    9.2614  -20.5448   18.9203 C   0  0  0  0  0  0  0  0  0  0  0  0
    9.7615  -19.4466   19.7435 C   0  0  0  0  0  0  0  0  0  0  0  0
    9.5125  -18.1217   19.0887 C   0  0  2  0  0  0  0  0  0  0  0  0
   10.6098  -17.8439   18.1463 N   0  0  0  0  0  0  0  0  0  0  0  0
    9.5372  -17.0497   20.1070 C   0  0  0  0  0  0  0  0  0  0  0  0
   10.6676  -16.6563   20.5165 O   0  0  0  0  0  0  0  0  0  0  0  0
    7.9140  -20.7979   18.8467 C   0  0  0  0  0  0  0  0  0  0  0  0
    7.4790  -21.8551   18.0787 C   0  0  0  0  0  0  0  0  0  0  0  0
    6.9551  -12.6495   19.3914 C   0  0  0  0  0  0  0  0  0  0  0  0
    7.9474  -13.6289   19.9295 C   0  0  0  0  0  0  0  0  0  0  0  0
    7.4560  -14.2901   21.2127 C   0  0  2  0  0  0  0  0  0  0  0  0
    7.1701  -13.3021   22.2823 C   0  0  0  0  0  0  0  0  0  0  0  0
    8.4125  -15.3720   21.6514 C   0  0  2  0  0  0  0  0  0  0  0  0
    8.3708  -16.4612   20.6308 N   0  0  0  0  0  0  0  0  0  0  0  0
    8.1002  -15.9412   22.9687 C   0  0  0  0  0  0  0  0  0  0  0  0
    7.2086  -16.8625   23.0256 O   0  0  0  0  0  0  0  0  0  0  0  0
    8.6621  -15.6091   24.2096 N   0  0  0  0  0  0  0  0  0  0  0  0
    8.2721  -16.2278   25.4819 C   0  0  1  0  0  0  0  0  0  0  0  0
    8.6723  -15.3783   26.6445 C   0  0  0  0  0  0  0  0  0  0  0  0
    8.0577  -14.0433   26.5245 C   0  0  0  0  0  0  0  0  0  0  0  0
    8.6086  -13.0187   25.8060 C   0  0  0  0  0  0  0  0  0  0  0  0
    8.0102  -11.7941   25.7154 C   0  0  0  0  0  0  0  0  0  0  0  0
    6.8035  -11.5790   26.3729 C   0  0  0  0  0  0  0  0  0  0  0  0
    6.2092  -12.5776   27.1081 C   0  0  0  0  0  0  0  0  0  0  0  0
    6.8636  -13.7992   27.1632 C   0  0  0  0  0  0  0  0  0  0  0  0
    6.8623  -16.6321   25.4686 C   0  0  0  0  0  0  0  0  0  0  0  0
    6.0809  -16.0944   24.6459 O   0  0  0  0  0  0  0  0  0  0  0  0
    6.3135  -17.5799   26.3066 O   0  0  0  0  0  0  0  0  0  0  0  0
  2  1  1  0
  3  2  2  0
  4  3  1  0
  5 11  1  0
  5  4  2  0
  6  5  1  0
  7  8  1  6
  7  6  1  0
  9 10  2  0
  9  7  1  0
 11 12  2  0
 12  2  1  0
 14 13  1  0
 15 14  1  0
 15 16  1  1
 17 15  1  0
 17 18  1  6
 18  9  1  0
 19 17  1  0
 20 19  2  0
 21 19  1  0
 22 23  1  1
 22 21  1  0
 23 24  1  0
 24 29  1  0
 25 24  2  0
 25 26  1  0
 26 27  2  0
 27 28  1  0
 29 28  2  0
 30 32  1  0
 30 22  1  0
 31 30  2  0
M  END
$$$$
