YIF.pdb
     RDKit          3D

 32 33  0  0  1  0  0  0  0  0999 V2000
    7.0649  -14.1099   14.3605 O   0  0  0  0  0  0  0  0  0  0  0  0
    7.4994  -13.9875   15.6814 C   0  0  0  0  0  0  0  0  0  0  0  0
    8.1497  -15.0234   16.2934 C   0  0  0  0  0  0  0  0  0  0  0  0
    8.5888  -14.9454   17.5761 C   0  0  0  0  0  0  0  0  0  0  0  0
    8.3802  -13.7938   18.2956 C   0  0  0  0  0  0  0  0  0  0  0  0
    8.8331  -13.7219   19.6825 C   0  0  0  0  0  0  0  0  0  0  0  0
    8.8620  -15.0806   20.3142 C   0  0  2  0  0  0  0  0  0  0  0  0
    7.5180  -15.6760   20.2221 N   0  0  0  0  0  0  0  0  0  0  0  0
    9.1801  -14.9551   21.7528 C   0  0  0  0  0  0  0  0  0  0  0  0
   10.3195  -14.5019   22.0638 O   0  0  0  0  0  0  0  0  0  0  0  0
    7.7316  -12.7282   17.7223 C   0  0  0  0  0  0  0  0  0  0  0  0
    7.2985  -12.8385   16.4196 C   0  0  0  0  0  0  0  0  0  0  0  0
    5.9748  -12.9382   25.3102 C   0  0  0  0  0  0  0  0  0  0  0  0
    7.1742  -13.4565   24.5849 C   0  0  0  0  0  0  0  0  0  0  0  0
    7.5538  -14.8605   25.0431 C   0  0  2  0  0  0  0  0  0  0  0  0
    7.8286  -14.9231   26.4999 C   0  0  0  0  0  0  0  0  0  0  0  0
    8.6871  -15.4028   24.2067 C   0  0  2  0  0  0  0  0  0  0  0  0
    8.2797  -15.3162   22.7727 N   0  0  0  0  0  0  0  0  0  0  0  0
    9.0413  -16.7936   24.5182 C   0  0  0  0  0  0  0  0  0  0  0  0
    9.4250  -17.5438   23.5502 O   0  0  0  0  0  0  0  0  0  0  0  0
    9.0207  -17.4324   25.7661 N   0  0  0  0  0  0  0  0  0  0  0  0
   10.2089  -17.6477   26.6002 C   0  0  1  0  0  0  0  0  0  0  0  0
   11.1251  -16.4679   26.5558 C   0  0  0  0  0  0  0  0  0  0  0  0
   11.0863  -15.7547   27.8458 C   0  0  0  0  0  0  0  0  0  0  0  0
   10.6348  -14.4718   27.9876 C   0  0  0  0  0  0  0  0  0  0  0  0
   10.6118  -13.8421   29.1996 C   0  0  0  0  0  0  0  0  0  0  0  0
   11.0606  -14.5234   30.3261 C   0  0  0  0  0  0  0  0  0  0  0  0
   11.5241  -15.8149   30.2355 C   0  0  0  0  0  0  0  0  0  0  0  0
   11.5233  -16.4017   28.9788 C   0  0  0  0  0  0  0  0  0  0  0  0
    9.8408  -18.0935   27.9482 C   0  0  0  0  0  0  0  0  0  0  0  0
   10.6186  -18.8564   28.5724 O   0  0  0  0  0  0  0  0  0  0  0  0
    8.6815  -17.7316   28.6013 O   0  0  0  0  0  0  0  0  0  0  0  0
  2  1  1  0
  3  2  2  0
  4  3  1  0
  5 11  1  0
  5  4  2  0
  6  5  1  0
  7  8  1  1
  7  6  1  0
  9 10  2  0
  9  7  1  0
 11 12  2  0
 12  2  1  0
 14 13  1  0
 15 14  1  0
 15 16  1  1
 17 15  1  0
 17 18  1  6
 18  9  1  0
 19 17  1  0
 20 19  2  0
 21 19  1  0
 22 23  1  1
 22 21  1  0
 23 24  1  0
 24 29  1  0
 25 24  2  0
 25 26  1  0
 26 27  2  0
 27 28  1  0
 29 28  2  0
 30 32  1  0
 30 22  1  0
 31 30  2  0
M  END
$$$$
