PKQ.pdb
     RDKit          3D

 26 26  0  0  1  0  0  0  0  0999 V2000
   28.0530  -21.2061  -12.5218 N   0  0  0  0  0  0  0  0  0  0  0  0
   29.2891  -21.3016  -11.7501 C   0  0  0  0  0  0  0  0  0  0  0  0
   29.1390  -20.1780  -10.7661 C   0  0  0  0  0  0  0  0  0  0  0  0
   27.6668  -20.2558  -10.3992 C   0  0  0  0  0  0  0  0  0  0  0  0
   27.0724  -21.1653  -11.4508 C   0  0  1  0  0  0  0  0  0  0  0  0
   25.8280  -20.5701  -11.9477 C   0  0  0  0  0  0  0  0  0  0  0  0
   24.8637  -20.2320  -11.1989 O   0  0  0  0  0  0  0  0  0  0  0  0
   25.6310  -20.3326  -13.3434 N   0  0  0  0  0  0  0  0  0  0  0  0
   24.4357  -19.7189  -13.8434 C   0  0  1  0  0  0  0  0  0  0  0  0
   24.6912  -19.0426  -15.1658 C   0  0  0  0  0  0  0  0  0  0  0  0
   23.5226  -18.3331  -15.7478 C   0  0  0  0  0  0  0  0  0  0  0  0
   23.9548  -17.7679  -17.0965 C   0  0  0  0  0  0  0  0  0  0  0  0
   22.8895  -16.9584  -17.7608 C   0  0  0  0  0  0  0  0  0  0  0  0
   23.2928  -16.4130  -19.0320 N   0  0  0  0  0  0  0  0  0  0  0  0
   23.3581  -20.7218  -13.8668 C   0  0  0  0  0  0  0  0  0  0  0  0
   23.5281  -21.8958  -14.2751 O   0  0  0  0  0  0  0  0  0  0  0  0
   20.4348  -22.4222   -9.1012 N   0  0  0  0  0  0  0  0  0  0  0  0
   19.5416  -22.9429  -10.0769 C   0  0  0  0  0  0  0  0  0  0  0  0
   18.5959  -23.6738   -9.6329 O   0  0  0  0  0  0  0  0  0  0  0  0
   19.7119  -22.6407  -11.4959 C   0  0  0  0  0  0  0  0  0  0  0  0
   20.7825  -21.7048  -11.8726 C   0  0  0  0  0  0  0  0  0  0  0  0
   20.9583  -21.3389  -13.2930 C   0  0  2  0  0  0  0  0  0  0  0  0
   22.0695  -20.3644  -13.4134 N   0  0  0  0  0  0  0  0  0  0  0  0
   19.7996  -20.9246  -14.0659 C   0  0  0  0  0  0  0  0  0  0  0  0
   18.8520  -21.7704  -14.6387 O   0  0  0  0  0  0  0  0  0  0  0  0
   19.5923  -19.6756  -14.2718 O   0  0  0  0  0  0  0  0  0  0  0  0
  1  5  1  0
  1  2  1  0
  2  3  1  0
  4  3  1  0
  5  4  1  0
  6  7  2  0
  5  6  1  6
  8  6  1  0
  9  8  1  0
  9 10  1  6
 11 10  1  0
 11 12  1  0
 12 13  1  0
 13 14  1  0
 15  9  1  0
 16 15  2  0
 18 20  1  0
 18 17  1  0
 19 18  2  0
 21 20  1  0
 22 21  1  1
 22 23  1  0
 23 15  1  0
 24 22  1  0
 24 25  1  0
 26 24  2  0
M  END
$$$$
