PKQ.pdb
     RDKit          3D

 26 26  0  0  1  0  0  0  0  0999 V2000
   23.5285  -11.4429  -15.1253 N   0  0  0  0  0  0  0  0  0  0  0  0
   24.6300  -12.3161  -15.5210 C   0  0  0  0  0  0  0  0  0  0  0  0
   24.3046  -12.6104  -16.9565 C   0  0  0  0  0  0  0  0  0  0  0  0
   23.7979  -11.2699  -17.4609 C   0  0  0  0  0  0  0  0  0  0  0  0
   23.5616  -10.4676  -16.2013 C   0  0  1  0  0  0  0  0  0  0  0  0
   22.2598   -9.8001  -16.2984 C   0  0  0  0  0  0  0  0  0  0  0  0
   22.0136   -8.8558  -17.1064 O   0  0  0  0  0  0  0  0  0  0  0  0
   21.1677  -10.1904  -15.4630 N   0  0  0  0  0  0  0  0  0  0  0  0
   19.8758   -9.5790  -15.5744 C   0  0  1  0  0  0  0  0  0  0  0  0
   18.7828  -10.5734  -15.2778 C   0  0  0  0  0  0  0  0  0  0  0  0
   18.4933  -11.5375  -16.3706 C   0  0  0  0  0  0  0  0  0  0  0  0
   17.4474  -12.5182  -15.8514 C   0  0  0  0  0  0  0  0  0  0  0  0
   17.1112  -13.5910  -16.8351 C   0  0  0  0  0  0  0  0  0  0  0  0
   16.2581  -14.6182  -16.2936 N   0  0  0  0  0  0  0  0  0  0  0  0
   19.8465   -8.3690  -14.7361 C   0  0  0  0  0  0  0  0  0  0  0  0
   20.6062   -8.2031  -13.7517 O   0  0  0  0  0  0  0  0  0  0  0  0
   23.1048   -4.4995  -15.0575 N   0  0  0  0  0  0  0  0  0  0  0  0
   22.1694   -3.7077  -14.3372 C   0  0  0  0  0  0  0  0  0  0  0  0
   22.6089   -2.5996  -13.8848 O   0  0  0  0  0  0  0  0  0  0  0  0
   20.7915   -4.1530  -14.1446 C   0  0  0  0  0  0  0  0  0  0  0  0
   20.4314   -5.4940  -14.6306 C   0  0  0  0  0  0  0  0  0  0  0  0
   19.0412   -5.9701  -14.4796 C   0  0  2  0  0  0  0  0  0  0  0  0
   18.9293   -7.3390  -15.0387 N   0  0  0  0  0  0  0  0  0  0  0  0
   17.9497   -5.1210  -14.9258 C   0  0  0  0  0  0  0  0  0  0  0  0
   17.5138   -4.9703  -16.2406 O   0  0  0  0  0  0  0  0  0  0  0  0
   17.3026   -4.4217  -14.0669 O   0  0  0  0  0  0  0  0  0  0  0  0
  1  5  1  0
  1  2  1  0
  2  3  1  0
  4  3  1  0
  5  4  1  0
  6  7  2  0
  5  6  1  6
  8  6  1  0
  9  8  1  0
  9 10  1  1
 11 10  1  0
 11 12  1  0
 12 13  1  0
 13 14  1  0
 15  9  1  0
 16 15  2  0
 18 20  1  0
 18 17  1  0
 19 18  2  0
 21 20  1  0
 22 21  1  6
 22 23  1  0
 23 15  1  0
 24 22  1  0
 24 25  1  0
 26 24  2  0
M  END
$$$$
