PKQ.pdb
     RDKit          3D

 26 26  0  0  1  0  0  0  0  0999 V2000
   26.8588  -20.5827  -15.7720 N   0  0  0  0  0  0  0  0  0  0  0  0
   28.3087  -20.5302  -15.9379 C   0  0  0  0  0  0  0  0  0  0  0  0
   28.4512  -20.0283  -17.3454 C   0  0  0  0  0  0  0  0  0  0  0  0
   27.3484  -18.9875  -17.4373 C   0  0  0  0  0  0  0  0  0  0  0  0
   26.4906  -19.2509  -16.2203 C   0  0  1  0  0  0  0  0  0  0  0  0
   25.0800  -19.2404  -16.6198 C   0  0  0  0  0  0  0  0  0  0  0  0
   24.5051  -18.2383  -17.1396 O   0  0  0  0  0  0  0  0  0  0  0  0
   24.2546  -20.3933  -16.4392 N   0  0  0  0  0  0  0  0  0  0  0  0
   22.8614  -20.3848  -16.7771 C   0  0  1  0  0  0  0  0  0  0  0  0
   22.4356  -21.7179  -17.3366 C   0  0  0  0  0  0  0  0  0  0  0  0
   23.0587  -22.0857  -18.6343 C   0  0  0  0  0  0  0  0  0  0  0  0
   22.5615  -23.4793  -19.0029 C   0  0  0  0  0  0  0  0  0  0  0  0
   23.2246  -24.0346  -20.2208 C   0  0  0  0  0  0  0  0  0  0  0  0
   24.5885  -24.4411  -19.9959 N   0  0  0  0  0  0  0  0  0  0  0  0
   22.0890  -19.9375  -15.6062 C   0  0  0  0  0  0  0  0  0  0  0  0
   22.6202  -19.4056  -14.6018 O   0  0  0  0  0  0  0  0  0  0  0  0
   20.5170  -15.1056  -14.9313 N   0  0  0  0  0  0  0  0  0  0  0  0
   19.5765  -15.5959  -13.9848 C   0  0  0  0  0  0  0  0  0  0  0  0
   18.9659  -14.7127  -13.2972 O   0  0  0  0  0  0  0  0  0  0  0  0
   19.3353  -17.0284  -13.8306 C   0  0  0  0  0  0  0  0  0  0  0  0
   20.0828  -17.9461  -14.7042 C   0  0  0  0  0  0  0  0  0  0  0  0
   19.7966  -19.3943  -14.6478 C   0  0  2  0  0  0  0  0  0  0  0  0
   20.6872  -20.1065  -15.5957 N   0  0  0  0  0  0  0  0  0  0  0  0
   18.4214  -19.8491  -14.7639 C   0  0  0  0  0  0  0  0  0  0  0  0
   17.5951  -20.2368  -13.7112 O   0  0  0  0  0  0  0  0  0  0  0  0
   17.8772  -19.9233  -15.9231 O   0  0  0  0  0  0  0  0  0  0  0  0
  1  5  1  0
  1  2  1  0
  2  3  1  0
  4  3  1  0
  5  4  1  0
  6  7  2  0
  5  6  1  6
  8  6  1  0
  9  8  1  0
  9 10  1  1
 11 10  1  0
 11 12  1  0
 12 13  1  0
 13 14  1  0
 15  9  1  0
 16 15  2  0
 18 20  1  0
 18 17  1  0
 19 18  2  0
 21 20  1  0
 22 21  1  6
 22 23  1  0
 23 15  1  0
 24 22  1  0
 24 25  1  0
 26 24  2  0
M  END
$$$$
