PKQ.pdb
     RDKit          3D

 26 26  0  0  1  0  0  0  0  0999 V2000
   28.0758  -18.4160  -17.0595 N   0  0  0  0  0  0  0  0  0  0  0  0
   28.8752  -17.3007  -17.5591 C   0  0  0  0  0  0  0  0  0  0  0  0
   29.3868  -17.8345  -18.8655 C   0  0  0  0  0  0  0  0  0  0  0  0
   28.1833  -18.5861  -19.4083 C   0  0  0  0  0  0  0  0  0  0  0  0
   27.2516  -18.6955  -18.2225 C   0  0  1  0  0  0  0  0  0  0  0  0
   26.7402  -20.0673  -18.1429 C   0  0  0  0  0  0  0  0  0  0  0  0
   25.9425  -20.5694  -18.9895 O   0  0  0  0  0  0  0  0  0  0  0  0
   27.1255  -20.9364  -17.0756 N   0  0  0  0  0  0  0  0  0  0  0  0
   26.5720  -22.2514  -16.9354 C   0  0  1  0  0  0  0  0  0  0  0  0
   27.6588  -23.2955  -16.9399 C   0  0  0  0  0  0  0  0  0  0  0  0
   27.1830  -24.7018  -16.8805 C   0  0  0  0  0  0  0  0  0  0  0  0
   28.4102  -25.5952  -16.7352 C   0  0  0  0  0  0  0  0  0  0  0  0
   28.0712  -27.0480  -16.6580 C   0  0  0  0  0  0  0  0  0  0  0  0
   29.2285  -27.9054  -16.6193 N   0  0  0  0  0  0  0  0  0  0  0  0
   25.7016  -22.2789  -15.7482 C   0  0  0  0  0  0  0  0  0  0  0  0
   25.0045  -23.2743  -15.4369 O   0  0  0  0  0  0  0  0  0  0  0  0
   25.9626  -22.2073  -10.2984 N   0  0  0  0  0  0  0  0  0  0  0  0
   24.9738  -21.1874  -10.2448 C   0  0  0  0  0  0  0  0  0  0  0  0
   24.2321  -21.1843   -9.2078 O   0  0  0  0  0  0  0  0  0  0  0  0
   24.8377  -20.2088  -11.3208 C   0  0  0  0  0  0  0  0  0  0  0  0
   25.5257  -20.4879  -12.5908 C   0  0  0  0  0  0  0  0  0  0  0  0
   24.7652  -21.0747  -13.7130 C   0  0  2  0  0  0  0  0  0  0  0  0
   25.6359  -21.1435  -14.9114 N   0  0  0  0  0  0  0  0  0  0  0  0
   23.4540  -20.5385  -14.0367 C   0  0  0  0  0  0  0  0  0  0  0  0
   22.2414  -20.9535  -13.4899 O   0  0  0  0  0  0  0  0  0  0  0  0
   23.3530  -19.5999  -14.9051 O   0  0  0  0  0  0  0  0  0  0  0  0
  1  5  1  0
  1  2  1  0
  2  3  1  0
  4  3  1  0
  5  4  1  0
  6  7  2  0
  5  6  1  1
  8  6  1  0
  9  8  1  0
  9 10  1  1
 11 10  1  0
 11 12  1  0
 12 13  1  0
 13 14  1  0
 15  9  1  0
 16 15  2  0
 18 20  1  0
 18 17  1  0
 19 18  2  0
 21 20  1  0
 22 21  1  1
 22 23  1  0
 23 15  1  0
 24 22  1  0
 24 25  1  0
 26 24  2  0
M  END
$$$$
