PKQ.pdb
     RDKit          3D

 26 26  0  0  1  0  0  0  0  0999 V2000
   23.1342  -31.5736   -8.3502 N   0  0  0  0  0  0  0  0  0  0  0  0
   23.8841  -32.2097   -9.4297 C   0  0  0  0  0  0  0  0  0  0  0  0
   22.9342  -33.2756   -9.8935 C   0  0  0  0  0  0  0  0  0  0  0  0
   21.5900  -32.5709   -9.8261 C   0  0  0  0  0  0  0  0  0  0  0  0
   21.8673  -31.3247   -9.0160 C   0  0  1  0  0  0  0  0  0  0  0  0
   20.8099  -31.1626   -8.0134 C   0  0  0  0  0  0  0  0  0  0  0  0
   19.6128  -30.8610   -8.2982 O   0  0  0  0  0  0  0  0  0  0  0  0
   21.0808  -31.3415   -6.6214 N   0  0  0  0  0  0  0  0  0  0  0  0
   20.0584  -31.1911   -5.6278 C   0  0  1  0  0  0  0  0  0  0  0  0
   20.2213  -32.2107   -4.5300 C   0  0  0  0  0  0  0  0  0  0  0  0
   19.0470  -33.0939   -4.3097 C   0  0  0  0  0  0  0  0  0  0  0  0
   19.3818  -34.0197   -3.1452 C   0  0  0  0  0  0  0  0  0  0  0  0
   18.3017  -35.0100   -2.8551 C   0  0  0  0  0  0  0  0  0  0  0  0
   18.6344  -35.9268   -1.7944 N   0  0  0  0  0  0  0  0  0  0  0  0
   20.0424  -29.7928   -5.1672 C   0  0  0  0  0  0  0  0  0  0  0  0
   21.0875  -29.1461   -4.9150 O   0  0  0  0  0  0  0  0  0  0  0  0
   17.0685  -25.1755   -7.5835 N   0  0  0  0  0  0  0  0  0  0  0  0
   17.3944  -24.6200   -6.3162 C   0  0  0  0  0  0  0  0  0  0  0  0
   17.2426  -23.3590   -6.2049 O   0  0  0  0  0  0  0  0  0  0  0  0
   17.8666  -25.4624   -5.2201 C   0  0  0  0  0  0  0  0  0  0  0  0
   18.0322  -26.9001   -5.4842 C   0  0  0  0  0  0  0  0  0  0  0  0
   18.6940  -27.7507   -4.4740 C   0  0  2  0  0  0  0  0  0  0  0  0
   18.8052  -29.1342   -4.9961 N   0  0  0  0  0  0  0  0  0  0  0  0
   18.2055  -27.7349   -3.1055 C   0  0  0  0  0  0  0  0  0  0  0  0
   18.6355  -26.8809   -2.0920 O   0  0  0  0  0  0  0  0  0  0  0  0
   17.2996  -28.5703   -2.7493 O   0  0  0  0  0  0  0  0  0  0  0  0
  1  5  1  0
  1  2  1  0
  2  3  1  0
  4  3  1  0
  5  4  1  0
  6  7  2  0
  5  6  1  1
  8  6  1  0
  9  8  1  0
  9 10  1  1
 11 10  1  0
 11 12  1  0
 12 13  1  0
 13 14  1  0
 15  9  1  0
 16 15  2  0
 18 20  1  0
 18 17  1  0
 19 18  2  0
 21 20  1  0
 22 21  1  6
 22 23  1  0
 23 15  1  0
 24 22  1  0
 24 25  1  0
 26 24  2  0
M  END
$$$$
