PKQ.pdb
     RDKit          3D

 26 26  0  0  1  0  0  0  0  0999 V2000
   24.9093  -19.5930  -18.9259 N   0  0  0  0  0  0  0  0  0  0  0  0
   25.1858  -18.6680  -20.0215 C   0  0  0  0  0  0  0  0  0  0  0  0
   23.9536  -17.8107  -20.0345 C   0  0  0  0  0  0  0  0  0  0  0  0
   23.6661  -17.6248  -18.5544 C   0  0  0  0  0  0  0  0  0  0  0  0
   24.5354  -18.6600  -17.8771 C   0  0  1  0  0  0  0  0  0  0  0  0
   23.7419  -19.3574  -16.8603 C   0  0  0  0  0  0  0  0  0  0  0  0
   23.1228  -20.4417  -17.0750 O   0  0  0  0  0  0  0  0  0  0  0  0
   23.6213  -18.8365  -15.5348 N   0  0  0  0  0  0  0  0  0  0  0  0
   22.8610  -19.5120  -14.5244 C   0  0  1  0  0  0  0  0  0  0  0  0
   23.3366  -19.1279  -13.1468 C   0  0  0  0  0  0  0  0  0  0  0  0
   22.5673  -19.7246  -12.0245 C   0  0  0  0  0  0  0  0  0  0  0  0
   23.5737  -20.2987  -11.0331 C   0  0  0  0  0  0  0  0  0  0  0  0
   22.9362  -20.8185   -9.7861 C   0  0  0  0  0  0  0  0  0  0  0  0
   23.8600  -21.4882   -8.9062 N   0  0  0  0  0  0  0  0  0  0  0  0
   21.4283  -19.2738  -14.7659 C   0  0  0  0  0  0  0  0  0  0  0  0
   20.9681  -18.1510  -15.0846 O   0  0  0  0  0  0  0  0  0  0  0  0
   17.5337  -23.5641  -17.1326 N   0  0  0  0  0  0  0  0  0  0  0  0
   16.6525  -22.5078  -16.7741 C   0  0  0  0  0  0  0  0  0  0  0  0
   15.4431  -22.6371  -17.1567 O   0  0  0  0  0  0  0  0  0  0  0  0
   17.1239  -21.3568  -16.0080 C   0  0  0  0  0  0  0  0  0  0  0  0
   18.5476  -21.3164  -15.6398 C   0  0  0  0  0  0  0  0  0  0  0  0
   19.0557  -20.1874  -14.8339 C   0  0  2  0  0  0  0  0  0  0  0  0
   20.5171  -20.3447  -14.6378 N   0  0  0  0  0  0  0  0  0  0  0  0
   18.3845  -19.8462  -13.5911 C   0  0  0  0  0  0  0  0  0  0  0  0
   18.6944  -20.3473  -12.3284 O   0  0  0  0  0  0  0  0  0  0  0  0
   17.4065  -19.0165  -13.6093 O   0  0  0  0  0  0  0  0  0  0  0  0
  1  5  1  0
  1  2  1  0
  2  3  1  0
  4  3  1  0
  5  4  1  0
  6  7  2  0
  5  6  1  1
  8  6  1  0
  9  8  1  0
  9 10  1  1
 11 10  1  0
 11 12  1  0
 12 13  1  0
 13 14  1  0
 15  9  1  0
 16 15  2  0
 18 20  1  0
 18 17  1  0
 19 18  2  0
 21 20  1  0
 22 21  1  1
 22 23  1  0
 23 15  1  0
 24 22  1  0
 24 25  1  0
 26 24  2  0
M  END
$$$$
