PKQ.pdb
     RDKit          3D

 26 26  0  0  1  0  0  0  0  0999 V2000
   24.4392  -12.8837  -15.3517 N   0  0  0  0  0  0  0  0  0  0  0  0
   25.5431  -13.8072  -15.5984 C   0  0  0  0  0  0  0  0  0  0  0  0
   25.5933  -13.8517  -17.0981 C   0  0  0  0  0  0  0  0  0  0  0  0
   25.3339  -12.4042  -17.4794 C   0  0  0  0  0  0  0  0  0  0  0  0
   24.8260  -11.7721  -16.2032 C   0  0  1  0  0  0  0  0  0  0  0  0
   23.6469  -10.9569  -16.5114 C   0  0  0  0  0  0  0  0  0  0  0  0
   23.6661   -9.9638  -17.2977 O   0  0  0  0  0  0  0  0  0  0  0  0
   22.3765  -11.2476  -15.9244 N   0  0  0  0  0  0  0  0  0  0  0  0
   21.1989  -10.5053  -16.2671 C   0  0  1  0  0  0  0  0  0  0  0  0
   19.9931  -11.4074  -16.3274 C   0  0  0  0  0  0  0  0  0  0  0  0
   19.8395  -12.1718  -17.5922 C   0  0  0  0  0  0  0  0  0  0  0  0
   18.5371  -12.9591  -17.4967 C   0  0  0  0  0  0  0  0  0  0  0  0
   18.2549  -13.7747  -18.7161 C   0  0  0  0  0  0  0  0  0  0  0  0
   17.0166  -14.5076  -18.6416 N   0  0  0  0  0  0  0  0  0  0  0  0
   21.0662   -9.3671  -15.3426 C   0  0  0  0  0  0  0  0  0  0  0  0
   21.2233   -9.4742  -14.1025 O   0  0  0  0  0  0  0  0  0  0  0  0
   23.8969   -4.1510  -15.6324 N   0  0  0  0  0  0  0  0  0  0  0  0
   22.9088   -3.8394  -14.6591 C   0  0  0  0  0  0  0  0  0  0  0  0
   23.0713   -2.7412  -14.0320 O   0  0  0  0  0  0  0  0  0  0  0  0
   21.7808   -4.7343  -14.4133 C   0  0  0  0  0  0  0  0  0  0  0  0
   21.7079   -5.9755  -15.1996 C   0  0  0  0  0  0  0  0  0  0  0  0
   20.5712   -6.8966  -14.9957 C   0  0  2  0  0  0  0  0  0  0  0  0
   20.7485   -8.0910  -15.8566 N   0  0  0  0  0  0  0  0  0  0  0  0
   19.2162   -6.3776  -15.0763 C   0  0  0  0  0  0  0  0  0  0  0  0
   18.4228   -6.3333  -16.2207 O   0  0  0  0  0  0  0  0  0  0  0  0
   18.6600   -5.8998  -14.0238 O   0  0  0  0  0  0  0  0  0  0  0  0
  1  5  1  0
  1  2  1  0
  2  3  1  0
  4  3  1  0
  5  4  1  0
  6  7  2  0
  5  6  1  6
  8  6  1  0
  9  8  1  0
  9 10  1  1
 11 10  1  0
 11 12  1  0
 12 13  1  0
 13 14  1  0
 15  9  1  0
 16 15  2  0
 18 20  1  0
 18 17  1  0
 19 18  2  0
 21 20  1  0
 22 21  1  6
 22 23  1  0
 23 15  1  0
 24 22  1  0
 24 25  1  0
 26 24  2  0
M  END
$$$$
