PKQ.pdb
     RDKit          3D

 26 26  0  0  1  0  0  0  0  0999 V2000
   16.5393  -12.2532  -12.8732 N   0  0  0  0  0  0  0  0  0  0  0  0
   16.5806  -13.6983  -12.6674 C   0  0  0  0  0  0  0  0  0  0  0  0
   17.0789  -14.1957  -13.9932 C   0  0  0  0  0  0  0  0  0  0  0  0
   18.1278  -13.1599  -14.3605 C   0  0  0  0  0  0  0  0  0  0  0  0
   17.8731  -12.0205  -13.3997 C   0  0  1  0  0  0  0  0  0  0  0  0
   17.8934  -10.7567  -14.1426 C   0  0  0  0  0  0  0  0  0  0  0  0
   18.9191  -10.3071  -14.7350 O   0  0  0  0  0  0  0  0  0  0  0  0
   16.7237   -9.9412  -14.2412 N   0  0  0  0  0  0  0  0  0  0  0  0
   16.7284   -8.6973  -14.9540 C   0  0  1  0  0  0  0  0  0  0  0  0
   15.9174   -8.8001  -16.2201 C   0  0  0  0  0  0  0  0  0  0  0  0
   16.4937   -9.6805  -17.2690 C   0  0  0  0  0  0  0  0  0  0  0  0
   15.5636   -9.6251  -18.4760 C   0  0  0  0  0  0  0  0  0  0  0  0
   14.6585  -10.8097  -18.5728 C   0  0  0  0  0  0  0  0  0  0  0  0
   13.8507  -10.8178  -19.7659 N   0  0  0  0  0  0  0  0  0  0  0  0
   16.3048   -7.6226  -14.0413 C   0  0  0  0  0  0  0  0  0  0  0  0
   15.1627   -7.5781  -13.5240 O   0  0  0  0  0  0  0  0  0  0  0  0
   15.8985   -7.2858   -8.9047 N   0  0  0  0  0  0  0  0  0  0  0  0
   15.9416   -5.8707   -9.0326 C   0  0  0  0  0  0  0  0  0  0  0  0
   15.7448   -5.2081   -7.9611 O   0  0  0  0  0  0  0  0  0  0  0  0
   16.2035   -5.2355  -10.3217 C   0  0  0  0  0  0  0  0  0  0  0  0
   16.4812   -6.1099  -11.4717 C   0  0  0  0  0  0  0  0  0  0  0  0
   16.8943   -5.5084  -12.7561 C   0  0  2  0  0  0  0  0  0  0  0  0
   17.2109   -6.5876  -13.7225 N   0  0  0  0  0  0  0  0  0  0  0  0
   17.9155   -4.4746  -12.7577 C   0  0  0  0  0  0  0  0  0  0  0  0
   19.1438   -4.5375  -13.4125 O   0  0  0  0  0  0  0  0  0  0  0  0
   17.7153   -3.3890  -12.1045 O   0  0  0  0  0  0  0  0  0  0  0  0
  1  5  1  0
  1  2  1  0
  2  3  1  0
  4  3  1  0
  5  4  1  0
  6  7  2  0
  5  6  1  6
  8  6  1  0
  9  8  1  0
  9 10  1  6
 11 10  1  0
 11 12  1  0
 12 13  1  0
 13 14  1  0
 15  9  1  0
 16 15  2  0
 18 20  1  0
 18 17  1  0
 19 18  2  0
 21 20  1  0
 22 21  1  1
 22 23  1  0
 23 15  1  0
 24 22  1  0
 24 25  1  0
 26 24  2  0
M  END
$$$$
