PKQ.pdb
     RDKit          3D

 26 26  0  0  1  0  0  0  0  0999 V2000
   16.1420  -12.5263  -11.3742 N   0  0  0  0  0  0  0  0  0  0  0  0
   15.8461  -13.8478  -11.9206 C   0  0  0  0  0  0  0  0  0  0  0  0
   14.4593  -13.6649  -12.4654 C   0  0  0  0  0  0  0  0  0  0  0  0
   14.5236  -12.2724  -13.0694 C   0  0  0  0  0  0  0  0  0  0  0  0
   15.7992  -11.6858  -12.5083 C   0  0  1  0  0  0  0  0  0  0  0  0
   15.5326  -10.3208  -12.0442 C   0  0  0  0  0  0  0  0  0  0  0  0
   15.3059   -9.3467  -12.8219 O   0  0  0  0  0  0  0  0  0  0  0  0
   15.5134  -10.0074  -10.6498 N   0  0  0  0  0  0  0  0  0  0  0  0
   15.1931   -8.6928  -10.1758 C   0  0  1  0  0  0  0  0  0  0  0  0
   14.3638   -8.7614   -8.9193 C   0  0  0  0  0  0  0  0  0  0  0  0
   12.9172   -9.0259   -9.1317 C   0  0  0  0  0  0  0  0  0  0  0  0
   12.2203   -8.8707   -7.7844 C   0  0  0  0  0  0  0  0  0  0  0  0
   10.7736   -9.2408   -7.8272 C   0  0  0  0  0  0  0  0  0  0  0  0
   10.1275   -9.1777   -6.5410 N   0  0  0  0  0  0  0  0  0  0  0  0
   16.4371   -7.9159  -10.0466 C   0  0  0  0  0  0  0  0  0  0  0  0
   17.4892   -8.3903   -9.5546 O   0  0  0  0  0  0  0  0  0  0  0  0
   20.6784   -8.3715  -12.6064 N   0  0  0  0  0  0  0  0  0  0  0  0
   20.9671   -6.9934  -12.4109 C   0  0  0  0  0  0  0  0  0  0  0  0
   22.0983   -6.5944  -12.8430 O   0  0  0  0  0  0  0  0  0  0  0  0
   20.0087   -6.1051  -11.7579 C   0  0  0  0  0  0  0  0  0  0  0  0
   18.7363   -6.6868  -11.3031 C   0  0  0  0  0  0  0  0  0  0  0  0
   17.7250   -5.8139  -10.6727 C   0  0  2  0  0  0  0  0  0  0  0  0
   16.4659   -6.5759  -10.4908 N   0  0  0  0  0  0  0  0  0  0  0  0
   17.4753   -4.4981  -11.2365 C   0  0  0  0  0  0  0  0  0  0  0  0
   18.2178   -3.3457  -10.9872 O   0  0  0  0  0  0  0  0  0  0  0  0
   16.4873   -4.3321  -12.0375 O   0  0  0  0  0  0  0  0  0  0  0  0
  1  5  1  0
  1  2  1  0
  2  3  1  0
  4  3  1  0
  5  4  1  0
  6  7  2  0
  5  6  1  1
  8  6  1  0
  9  8  1  0
  9 10  1  1
 11 10  1  0
 11 12  1  0
 12 13  1  0
 13 14  1  0
 15  9  1  0
 16 15  2  0
 18 20  1  0
 18 17  1  0
 19 18  2  0
 21 20  1  0
 22 21  1  6
 22 23  1  0
 23 15  1  0
 24 22  1  0
 24 25  1  0
 26 24  2  0
M  END
$$$$
