PKQ.pdb
     RDKit          3D

 26 26  0  0  1  0  0  0  0  0999 V2000
   26.2156  -15.4225  -17.5045 N   0  0  0  0  0  0  0  0  0  0  0  0
   26.5320  -14.1423  -16.8773 C   0  0  0  0  0  0  0  0  0  0  0  0
   25.8951  -14.2829  -15.5253 C   0  0  0  0  0  0  0  0  0  0  0  0
   26.1983  -15.7278  -15.1670 C   0  0  0  0  0  0  0  0  0  0  0  0
   26.6564  -16.3424  -16.4702 C   0  0  1  0  0  0  0  0  0  0  0  0
   25.9896  -17.6360  -16.6478 C   0  0  0  0  0  0  0  0  0  0  0  0
   24.8929  -17.7815  -17.2651 O   0  0  0  0  0  0  0  0  0  0  0  0
   26.5575  -18.8363  -16.1189 N   0  0  0  0  0  0  0  0  0  0  0  0
   25.8650  -20.0901  -16.1802 C   0  0  1  0  0  0  0  0  0  0  0  0
   26.8279  -21.2429  -16.0568 C   0  0  0  0  0  0  0  0  0  0  0  0
   26.2111  -22.5920  -16.1406 C   0  0  0  0  0  0  0  0  0  0  0  0
   27.3429  -23.6139  -16.1451 C   0  0  0  0  0  0  0  0  0  0  0  0
   26.8637  -25.0178  -16.3219 C   0  0  0  0  0  0  0  0  0  0  0  0
   27.9317  -25.9737  -16.4688 N   0  0  0  0  0  0  0  0  0  0  0  0
   24.7827  -20.0869  -15.1820 C   0  0  0  0  0  0  0  0  0  0  0  0
   24.7933  -19.3493  -14.1673 O   0  0  0  0  0  0  0  0  0  0  0  0
   21.0334  -16.7013  -14.6613 N   0  0  0  0  0  0  0  0  0  0  0  0
   20.3454  -17.6542  -13.8616 C   0  0  0  0  0  0  0  0  0  0  0  0
   19.3559  -17.2091  -13.1921 O   0  0  0  0  0  0  0  0  0  0  0  0
   20.7603  -19.0545  -13.8289 C   0  0  0  0  0  0  0  0  0  0  0  0
   22.0079  -19.4149  -14.5202 C   0  0  0  0  0  0  0  0  0  0  0  0
   22.4308  -20.8297  -14.5608 C   0  0  2  0  0  0  0  0  0  0  0  0
   23.6758  -20.9456  -15.3582 N   0  0  0  0  0  0  0  0  0  0  0  0
   21.4628  -21.8476  -14.9326 C   0  0  0  0  0  0  0  0  0  0  0  0
   20.5284  -22.4383  -14.0844 O   0  0  0  0  0  0  0  0  0  0  0  0
   21.4323  -22.2782  -16.1406 O   0  0  0  0  0  0  0  0  0  0  0  0
  1  5  1  0
  1  2  1  0
  2  3  1  0
  4  3  1  0
  5  4  1  0
  6  7  2  0
  5  6  1  6
  8  6  1  0
  9  8  1  0
  9 10  1  1
 11 10  1  0
 11 12  1  0
 12 13  1  0
 13 14  1  0
 15  9  1  0
 16 15  2  0
 18 20  1  0
 18 17  1  0
 19 18  2  0
 21 20  1  0
 22 21  1  6
 22 23  1  0
 23 15  1  0
 24 22  1  0
 24 25  1  0
 26 24  2  0
M  END
$$$$
