PKQ.pdb
     RDKit          3D

 26 26  0  0  1  0  0  0  0  0999 V2000
   26.9830  -18.4341  -17.1272 N   0  0  0  0  0  0  0  0  0  0  0  0
   27.9391  -17.4199  -17.5627 C   0  0  0  0  0  0  0  0  0  0  0  0
   28.7025  -17.1380  -16.3013 C   0  0  0  0  0  0  0  0  0  0  0  0
   28.8488  -18.5206  -15.6889 C   0  0  0  0  0  0  0  0  0  0  0  0
   27.8729  -19.3737  -16.4673 C   0  0  1  0  0  0  0  0  0  0  0  0
   27.1063  -20.1985  -15.5284 C   0  0  0  0  0  0  0  0  0  0  0  0
   26.7716  -21.3984  -15.7595 O   0  0  0  0  0  0  0  0  0  0  0  0
   26.6837  -19.6782  -14.2660 N   0  0  0  0  0  0  0  0  0  0  0  0
   25.9833  -20.4874  -13.3120 C   0  0  1  0  0  0  0  0  0  0  0  0
   26.3804  -20.1242  -11.9043 C   0  0  0  0  0  0  0  0  0  0  0  0
   25.6530  -20.8556  -10.8349 C   0  0  0  0  0  0  0  0  0  0  0  0
   26.1371  -20.3103   -9.4957 C   0  0  0  0  0  0  0  0  0  0  0  0
   25.5125  -20.9950   -8.3242 C   0  0  0  0  0  0  0  0  0  0  0  0
   25.9418  -20.4653   -7.0548 N   0  0  0  0  0  0  0  0  0  0  0  0
   24.5386  -20.4010  -13.5822 C   0  0  0  0  0  0  0  0  0  0  0  0
   23.9571  -19.3202  -13.8424 O   0  0  0  0  0  0  0  0  0  0  0  0
   21.0897  -25.6247  -14.9533 N   0  0  0  0  0  0  0  0  0  0  0  0
   20.1147  -24.5919  -14.8941 C   0  0  0  0  0  0  0  0  0  0  0  0
   18.9133  -24.9454  -15.1336 O   0  0  0  0  0  0  0  0  0  0  0  0
   20.4880  -23.2172  -14.5705 C   0  0  0  0  0  0  0  0  0  0  0  0
   21.9009  -22.9460  -14.2633 C   0  0  0  0  0  0  0  0  0  0  0  0
   22.3043  -21.5864  -13.8497 C   0  0  2  0  0  0  0  0  0  0  0  0
   23.7569  -21.5764  -13.5515 N   0  0  0  0  0  0  0  0  0  0  0  0
   21.5430  -20.9059  -12.8158 C   0  0  0  0  0  0  0  0  0  0  0  0
   21.7443  -21.0190  -11.4418 O   0  0  0  0  0  0  0  0  0  0  0  0
   20.5831  -20.1237  -13.1508 O   0  0  0  0  0  0  0  0  0  0  0  0
  1  5  1  0
  1  2  1  0
  2  3  1  0
  4  3  1  0
  5  4  1  0
  6  7  2  0
  5  6  1  1
  8  6  1  0
  9  8  1  0
  9 10  1  1
 11 10  1  0
 11 12  1  0
 12 13  1  0
 13 14  1  0
 15  9  1  0
 16 15  2  0
 18 20  1  0
 18 17  1  0
 19 18  2  0
 21 20  1  0
 22 21  1  1
 22 23  1  0
 23 15  1  0
 24 22  1  0
 24 25  1  0
 26 24  2  0
M  END
$$$$
