PKQ.pdb
     RDKit          3D

 26 26  0  0  1  0  0  0  0  0999 V2000
   24.5617  -24.7196  -14.8365 N   0  0  0  0  0  0  0  0  0  0  0  0
   25.8224  -24.4162  -15.5081 C   0  0  0  0  0  0  0  0  0  0  0  0
   25.4261  -23.3165  -16.4499 C   0  0  0  0  0  0  0  0  0  0  0  0
   24.4628  -22.4949  -15.6102 C   0  0  0  0  0  0  0  0  0  0  0  0
   24.1482  -23.3874  -14.4309 C   0  0  1  0  0  0  0  0  0  0  0  0
   22.7012  -23.3735  -14.1951 C   0  0  0  0  0  0  0  0  0  0  0  0
   22.0663  -22.3563  -13.7861 O   0  0  0  0  0  0  0  0  0  0  0  0
   21.9068  -24.5402  -14.4208 N   0  0  0  0  0  0  0  0  0  0  0  0
   20.4849  -24.5324  -14.2379 C   0  0  1  0  0  0  0  0  0  0  0  0
   19.7719  -24.5990  -15.5639 C   0  0  0  0  0  0  0  0  0  0  0  0
   18.2895  -24.6583  -15.4810 C   0  0  0  0  0  0  0  0  0  0  0  0
   17.7548  -24.7669  -16.9049 C   0  0  0  0  0  0  0  0  0  0  0  0
   16.2625  -24.7902  -16.9699 C   0  0  0  0  0  0  0  0  0  0  0  0
   15.7491  -24.9165  -18.3102 N   0  0  0  0  0  0  0  0  0  0  0  0
   20.1195  -25.5998  -13.2920 C   0  0  0  0  0  0  0  0  0  0  0  0
   20.6438  -26.7394  -13.3143 O   0  0  0  0  0  0  0  0  0  0  0  0
   18.7970  -24.6235   -7.3047 N   0  0  0  0  0  0  0  0  0  0  0  0
   18.4359  -23.8102   -8.4132 C   0  0  0  0  0  0  0  0  0  0  0  0
   18.1413  -22.5994   -8.1433 O   0  0  0  0  0  0  0  0  0  0  0  0
   18.4165  -24.3479   -9.7712 C   0  0  0  0  0  0  0  0  0  0  0  0
   18.7970  -25.7571   -9.9548 C   0  0  0  0  0  0  0  0  0  0  0  0
   18.7267  -26.3567  -11.3030 C   0  0  2  0  0  0  0  0  0  0  0  0
   19.1374  -25.3479  -12.3093 N   0  0  0  0  0  0  0  0  0  0  0  0
   17.5155  -27.0505  -11.7070 C   0  0  0  0  0  0  0  0  0  0  0  0
   17.0058  -28.2121  -11.1306 O   0  0  0  0  0  0  0  0  0  0  0  0
   16.8219  -26.5922  -12.6839 O   0  0  0  0  0  0  0  0  0  0  0  0
  1  5  1  0
  1  2  1  0
  2  3  1  0
  4  3  1  0
  5  4  1  0
  6  7  2  0
  5  6  1  6
  8  6  1  0
  9  8  1  0
  9 10  1  6
 11 10  1  0
 11 12  1  0
 12 13  1  0
 13 14  1  0
 15  9  1  0
 16 15  2  0
 18 20  1  0
 18 17  1  0
 19 18  2  0
 21 20  1  0
 22 21  1  1
 22 23  1  0
 23 15  1  0
 24 22  1  0
 24 25  1  0
 26 24  2  0
M  END
$$$$
