PKQ.pdb
     RDKit          3D

 26 26  0  0  1  0  0  0  0  0999 V2000
   28.8174  -18.9337  -17.5445 N   0  0  0  0  0  0  0  0  0  0  0  0
   29.7340  -18.2460  -18.4496 C   0  0  0  0  0  0  0  0  0  0  0  0
   29.2215  -18.6600  -19.7985 C   0  0  0  0  0  0  0  0  0  0  0  0
   27.7152  -18.6208  -19.6047 C   0  0  0  0  0  0  0  0  0  0  0  0
   27.5385  -18.5341  -18.1056 C   0  0  1  0  0  0  0  0  0  0  0  0
   26.5026  -19.4855  -17.6918 C   0  0  0  0  0  0  0  0  0  0  0  0
   25.3055  -19.4432  -18.1043 O   0  0  0  0  0  0  0  0  0  0  0  0
   26.7964  -20.5418  -16.7748 N   0  0  0  0  0  0  0  0  0  0  0  0
   25.8081  -21.5080  -16.3942 C   0  0  1  0  0  0  0  0  0  0  0  0
   26.4568  -22.7867  -15.9302 C   0  0  0  0  0  0  0  0  0  0  0  0
   27.2492  -23.5032  -16.9629 C   0  0  0  0  0  0  0  0  0  0  0  0
   27.9571  -24.6645  -16.2735 C   0  0  0  0  0  0  0  0  0  0  0  0
   28.9368  -25.3623  -17.1595 C   0  0  0  0  0  0  0  0  0  0  0  0
   29.6743  -26.4036  -16.4903 N   0  0  0  0  0  0  0  0  0  0  0  0
   24.8936  -20.8956  -15.4163 C   0  0  0  0  0  0  0  0  0  0  0  0
   25.2942  -20.2150  -14.4415 O   0  0  0  0  0  0  0  0  0  0  0  0
   19.0460  -17.5716  -14.7568 N   0  0  0  0  0  0  0  0  0  0  0  0
   20.4559  -17.3969  -14.7078 C   0  0  0  0  0  0  0  0  0  0  0  0
   20.9075  -16.3483  -15.2755 O   0  0  0  0  0  0  0  0  0  0  0  0
   21.3156  -18.3689  -14.0369 C   0  0  0  0  0  0  0  0  0  0  0  0
   22.2833  -19.1101  -14.8605 C   0  0  0  0  0  0  0  0  0  0  0  0
   22.5125  -20.5448  -14.5940 C   0  0  2  0  0  0  0  0  0  0  0  0
   23.5007  -21.0715  -15.5662 N   0  0  0  0  0  0  0  0  0  0  0  0
   21.3691  -21.4319  -14.4623 C   0  0  0  0  0  0  0  0  0  0  0  0
   20.5572  -21.5604  -13.3372 O   0  0  0  0  0  0  0  0  0  0  0  0
   21.0428  -22.1905  -15.4438 O   0  0  0  0  0  0  0  0  0  0  0  0
  1  5  1  0
  1  2  1  0
  2  3  1  0
  4  3  1  0
  5  4  1  0
  6  7  2  0
  5  6  1  1
  8  6  1  0
  9  8  1  0
  9 10  1  1
 11 10  1  0
 11 12  1  0
 12 13  1  0
 13 14  1  0
 15  9  1  0
 16 15  2  0
 18 20  1  0
 18 17  1  0
 19 18  2  0
 21 20  1  0
 22 21  1  6
 22 23  1  0
 23 15  1  0
 24 22  1  0
 24 25  1  0
 26 24  2  0
M  END
$$$$
