PKQ.pdb
     RDKit          3D

 26 26  0  0  1  0  0  0  0  0999 V2000
   18.6422  -14.5641  -15.8301 N   0  0  0  0  0  0  0  0  0  0  0  0
   17.3063  -15.1468  -15.7391 C   0  0  0  0  0  0  0  0  0  0  0  0
   16.4318  -13.9296  -15.6557 C   0  0  0  0  0  0  0  0  0  0  0  0
   17.0951  -12.9795  -16.6382 C   0  0  0  0  0  0  0  0  0  0  0  0
   18.4437  -13.6086  -16.9061 C   0  0  1  0  0  0  0  0  0  0  0  0
   19.4765  -12.5703  -16.8367 C   0  0  0  0  0  0  0  0  0  0  0  0
   19.8510  -12.0238  -15.7568 O   0  0  0  0  0  0  0  0  0  0  0  0
   20.1349  -12.1060  -18.0174 N   0  0  0  0  0  0  0  0  0  0  0  0
   21.1548  -11.0997  -17.9669 C   0  0  1  0  0  0  0  0  0  0  0  0
   21.9363  -11.0611  -19.2549 C   0  0  0  0  0  0  0  0  0  0  0  0
   22.9951  -10.0208  -19.3196 C   0  0  0  0  0  0  0  0  0  0  0  0
   24.3355  -10.7378  -19.4398 C   0  0  0  0  0  0  0  0  0  0  0  0
   25.4979   -9.8011  -19.4961 C   0  0  0  0  0  0  0  0  0  0  0  0
   26.7736  -10.4643  -19.4025 N   0  0  0  0  0  0  0  0  0  0  0  0
   20.5412   -9.8171  -17.5845 C   0  0  0  0  0  0  0  0  0  0  0  0
   19.4363   -9.4289  -18.0343 O   0  0  0  0  0  0  0  0  0  0  0  0
   16.6608   -6.9965  -16.5628 N   0  0  0  0  0  0  0  0  0  0  0  0
   17.2472   -6.4557  -15.3861 C   0  0  0  0  0  0  0  0  0  0  0  0
   16.5342   -5.6166  -14.7433 O   0  0  0  0  0  0  0  0  0  0  0  0
   18.5842   -6.8562  -14.9547 C   0  0  0  0  0  0  0  0  0  0  0  0
   19.2632   -7.9120  -15.7217 C   0  0  0  0  0  0  0  0  0  0  0  0
   20.6444   -7.6890  -16.1955 C   0  0  2  0  0  0  0  0  0  0  0  0
   21.2118   -8.9735  -16.6721 N   0  0  0  0  0  0  0  0  0  0  0  0
   21.5798   -6.9774  -15.3408 C   0  0  0  0  0  0  0  0  0  0  0  0
   22.5358   -7.5587  -14.5104 O   0  0  0  0  0  0  0  0  0  0  0  0
   21.5562   -5.6953  -15.3097 O   0  0  0  0  0  0  0  0  0  0  0  0
  1  5  1  0
  1  2  1  0
  2  3  1  0
  4  3  1  0
  5  4  1  0
  6  7  2  0
  5  6  1  1
  8  6  1  0
  9  8  1  0
  9 10  1  6
 11 10  1  0
 11 12  1  0
 12 13  1  0
 13 14  1  0
 15  9  1  0
 16 15  2  0
 18 20  1  0
 18 17  1  0
 19 18  2  0
 21 20  1  0
 22 21  1  1
 22 23  1  0
 23 15  1  0
 24 22  1  0
 24 25  1  0
 26 24  2  0
M  END
$$$$
