PKQ.pdb
     RDKit          3D

 26 26  0  0  1  0  0  0  0  0999 V2000
   27.5337  -18.6679  -16.4741 N   0  0  0  0  0  0  0  0  0  0  0  0
   28.6266  -18.1746  -17.3075 C   0  0  0  0  0  0  0  0  0  0  0  0
   29.7793  -19.0253  -16.8591 C   0  0  0  0  0  0  0  0  0  0  0  0
   29.1325  -20.3881  -16.6792 C   0  0  0  0  0  0  0  0  0  0  0  0
   27.6488  -20.0979  -16.7022 C   0  0  1  0  0  0  0  0  0  0  0  0
   27.0040  -20.8232  -15.6032 C   0  0  0  0  0  0  0  0  0  0  0  0
   26.8079  -22.0749  -15.6079 O   0  0  0  0  0  0  0  0  0  0  0  0
   26.5494  -20.1375  -14.4345 N   0  0  0  0  0  0  0  0  0  0  0  0
   25.8003  -20.8053  -13.4107 C   0  0  1  0  0  0  0  0  0  0  0  0
   26.2938  -20.4142  -12.0414 C   0  0  0  0  0  0  0  0  0  0  0  0
   25.4458  -20.8719  -10.9105 C   0  0  0  0  0  0  0  0  0  0  0  0
   26.0911  -20.3725   -9.6223 C   0  0  0  0  0  0  0  0  0  0  0  0
   25.3398  -20.7767   -8.3960 C   0  0  0  0  0  0  0  0  0  0  0  0
   25.8895  -20.2309   -7.1811 N   0  0  0  0  0  0  0  0  0  0  0  0
   24.3652  -20.5652  -13.6358 C   0  0  0  0  0  0  0  0  0  0  0  0
   23.8761  -19.4156  -13.7503 O   0  0  0  0  0  0  0  0  0  0  0  0
   23.9828  -23.9920  -16.0267 N   0  0  0  0  0  0  0  0  0  0  0  0
   23.0956  -24.6504  -15.1321 C   0  0  0  0  0  0  0  0  0  0  0  0
   23.4327  -25.8283  -14.7794 O   0  0  0  0  0  0  0  0  0  0  0  0
   21.8805  -23.9958  -14.6536 C   0  0  0  0  0  0  0  0  0  0  0  0
   21.6697  -22.5881  -15.0254 C   0  0  0  0  0  0  0  0  0  0  0  0
   22.0504  -21.5230  -14.0753 C   0  0  2  0  0  0  0  0  0  0  0  0
   23.4854  -21.6655  -13.7297 N   0  0  0  0  0  0  0  0  0  0  0  0
   21.2359  -21.3058  -12.8917 C   0  0  0  0  0  0  0  0  0  0  0  0
   19.8950  -20.9273  -12.8782 O   0  0  0  0  0  0  0  0  0  0  0  0
   21.7578  -21.4582  -11.7300 O   0  0  0  0  0  0  0  0  0  0  0  0
  1  5  1  0
  1  2  1  0
  2  3  1  0
  4  3  1  0
  5  4  1  0
  6  7  2  0
  5  6  1  1
  8  6  1  0
  9  8  1  0
  9 10  1  1
 11 10  1  0
 11 12  1  0
 12 13  1  0
 13 14  1  0
 15  9  1  0
 16 15  2  0
 18 20  1  0
 18 17  1  0
 19 18  2  0
 21 20  1  0
 22 21  1  1
 22 23  1  0
 23 15  1  0
 24 22  1  0
 24 25  1  0
 26 24  2  0
M  END
$$$$
