KGC.pdb
     RDKit          3D

 20 19  0  0  1  0  0  0  0  0999 V2000
    8.0717  -17.9777   19.7615 N   0  0  0  0  0  0  0  0  0  0  0  0
    7.8618  -17.7223   21.1511 C   0  0  1  0  0  0  0  0  0  0  0  0
    8.7721  -18.4420   22.0843 C   0  0  0  0  0  0  0  0  0  0  0  0
    8.6124  -19.9140   22.1710 C   0  0  0  0  0  0  0  0  0  0  0  0
    8.3051  -20.4797   23.5136 C   0  0  0  0  0  0  0  0  0  0  0  0
    8.0680  -21.9828   23.3070 C   0  0  0  0  0  0  0  0  0  0  0  0
    7.7066  -22.6081   24.5742 N   0  0  0  0  0  0  0  0  0  0  0  0
    8.0153  -16.2550   21.3987 C   0  0  0  0  0  0  0  0  0  0  0  0
    9.0731  -15.6913   21.0582 O   0  0  0  0  0  0  0  0  0  0  0  0
    6.9778  -15.4763   22.0178 N   0  0  0  0  0  0  0  0  0  0  0  0
    7.0819  -14.0862   22.3008 C   0  0  0  0  0  0  0  0  0  0  0  0
    7.8014  -13.7773   23.5536 C   0  0  0  0  0  0  0  0  0  0  0  0
    9.0110  -14.1084   23.7290 O   0  0  0  0  0  0  0  0  0  0  0  0
    7.1859  -13.1001   24.6101 N   0  0  0  0  0  0  0  0  0  0  0  0
    7.8577  -12.7753   25.8590 C   0  0  1  0  0  0  0  0  0  0  0  0
    6.9962  -11.6927   26.5208 C   0  0  0  0  0  0  0  0  0  0  0  0
    5.2954  -12.2531   26.7183 S   0  0  0  0  0  0  0  0  0  0  0  0
    8.0300  -13.9260   26.7328 C   0  0  0  0  0  0  0  0  0  0  0  0
    8.8485  -13.8377   27.8356 O   0  0  0  0  0  0  0  0  0  0  0  0
    7.4414  -14.9978   26.4931 O   0  0  0  0  0  0  0  0  0  0  0  0
  2  1  1  6
  3  2  1  0
  4  3  1  0
  5  4  1  0
  6  5  1  0
  7  6  1  0
  8  9  2  0
  8  2  1  0
 10  8  1  0
 11 12  1  0
 11 10  1  0
 12 14  1  0
 13 12  2  0
 14 15  1  0
 15 18  1  0
 15 16  1  1
 16 17  1  0
 18 20  2  0
 18 19  1  0
M  END
$$$$
