KGC.pdb
     RDKit          3D

 20 19  0  0  1  0  0  0  0  0999 V2000
    7.2149  -16.5489   19.4802 N   0  0  0  0  0  0  0  0  0  0  0  0
    7.8948  -15.6562   20.3641 C   0  0  1  0  0  0  0  0  0  0  0  0
    7.8426  -14.2152   19.9920 C   0  0  0  0  0  0  0  0  0  0  0  0
    8.5609  -13.8178   18.7566 C   0  0  0  0  0  0  0  0  0  0  0  0
    7.8723  -14.0825   17.4632 C   0  0  0  0  0  0  0  0  0  0  0  0
    8.7952  -13.5409   16.3618 C   0  0  0  0  0  0  0  0  0  0  0  0
    8.1784  -13.7375   15.0548 N   0  0  0  0  0  0  0  0  0  0  0  0
    7.3113  -15.7990   21.7340 C   0  0  0  0  0  0  0  0  0  0  0  0
    6.0776  -15.7012   21.8796 O   0  0  0  0  0  0  0  0  0  0  0  0
    8.1324  -16.0462   22.8877 N   0  0  0  0  0  0  0  0  0  0  0  0
    7.6530  -16.0403   24.2268 C   0  0  0  0  0  0  0  0  0  0  0  0
    8.2716  -15.0091   25.0851 C   0  0  0  0  0  0  0  0  0  0  0  0
    9.4450  -14.5811   24.8761 O   0  0  0  0  0  0  0  0  0  0  0  0
    7.5930  -14.4489   26.1710 N   0  0  0  0  0  0  0  0  0  0  0  0
    8.2213  -13.5749   27.1497 C   0  0  1  0  0  0  0  0  0  0  0  0
    7.0711  -12.8159   27.8229 C   0  0  0  0  0  0  0  0  0  0  0  0
    5.9830  -12.0722   26.5945 S   0  0  0  0  0  0  0  0  0  0  0  0
    9.0275  -14.2933   28.1251 C   0  0  0  0  0  0  0  0  0  0  0  0
    9.8067  -13.5981   29.0214 O   0  0  0  0  0  0  0  0  0  0  0  0
    9.0210  -15.5389   28.1588 O   0  0  0  0  0  0  0  0  0  0  0  0
  2  1  1  6
  3  2  1  0
  4  3  1  0
  5  4  1  0
  6  5  1  0
  7  6  1  0
  8  9  2  0
  8  2  1  0
 10  8  1  0
 11 12  1  0
 11 10  1  0
 12 14  1  0
 13 12  2  0
 14 15  1  0
 15 18  1  0
 15 16  1  1
 16 17  1  0
 18 20  2  0
 18 19  1  0
M  END
$$$$
