KGC.pdb
     RDKit          3D

 20 19  0  0  1  0  0  0  0  0999 V2000
    9.8892  -15.5426   19.8379 N   0  0  0  0  0  0  0  0  0  0  0  0
    9.1862  -14.7088   20.7603 C   0  0  1  0  0  0  0  0  0  0  0  0
    7.9375  -14.0836   20.2431 C   0  0  0  0  0  0  0  0  0  0  0  0
    8.0142  -13.4445   18.9069 C   0  0  0  0  0  0  0  0  0  0  0  0
    7.5747  -14.2629   17.7432 C   0  0  0  0  0  0  0  0  0  0  0  0
    7.7355  -13.3733   16.5019 C   0  0  0  0  0  0  0  0  0  0  0  0
    7.3095  -14.0995   15.3109 N   0  0  0  0  0  0  0  0  0  0  0  0
    8.8297  -15.5195   21.9658 C   0  0  0  0  0  0  0  0  0  0  0  0
    8.9086  -16.7616   21.9049 O   0  0  0  0  0  0  0  0  0  0  0  0
    8.3990  -14.9073   23.1930 N   0  0  0  0  0  0  0  0  0  0  0  0
    8.3365  -15.5810   24.4441 C   0  0  0  0  0  0  0  0  0  0  0  0
    9.5416  -15.4118   25.2819 C   0  0  0  0  0  0  0  0  0  0  0  0
   10.6330  -14.9826   24.8043 O   0  0  0  0  0  0  0  0  0  0  0  0
    9.5396  -15.7133   26.6467 N   0  0  0  0  0  0  0  0  0  0  0  0
   10.7143  -15.6031   27.4978 C   0  0  1  0  0  0  0  0  0  0  0  0
   10.7239  -14.1545   28.0015 C   0  0  0  0  0  0  0  0  0  0  0  0
    9.0459  -13.5271   28.1925 S   0  0  0  0  0  0  0  0  0  0  0  0
   10.7124  -16.5504   28.6023 C   0  0  0  0  0  0  0  0  0  0  0  0
    9.6542  -17.4145   28.7675 O   0  0  0  0  0  0  0  0  0  0  0  0
   11.6640  -16.5890   29.4058 O   0  0  0  0  0  0  0  0  0  0  0  0
  2  1  1  6
  3  2  1  0
  4  3  1  0
  5  4  1  0
  6  5  1  0
  7  6  1  0
  8  9  2  0
  8  2  1  0
 10  8  1  0
 11 12  1  0
 11 10  1  0
 12 14  1  0
 13 12  2  0
 14 15  1  0
 15 18  1  0
 15 16  1  1
 16 17  1  0
 18 20  2  0
 18 19  1  0
M  END
$$$$
