KGC.pdb
     RDKit          3D

 20 19  0  0  1  0  0  0  0  0999 V2000
    6.6296  -19.4588   21.2266 N   0  0  0  0  0  0  0  0  0  0  0  0
    7.6155  -19.7535   22.2173 C   0  0  1  0  0  0  0  0  0  0  0  0
    9.0275  -19.4984   21.8186 C   0  0  0  0  0  0  0  0  0  0  0  0
    9.8230  -20.6740   21.3884 C   0  0  0  0  0  0  0  0  0  0  0  0
   11.2053  -20.4096   20.9019 C   0  0  0  0  0  0  0  0  0  0  0  0
   11.8003  -21.7739   20.5240 C   0  0  0  0  0  0  0  0  0  0  0  0
   13.1450  -21.5984   19.9868 N   0  0  0  0  0  0  0  0  0  0  0  0
    7.3281  -18.9392   23.4387 C   0  0  0  0  0  0  0  0  0  0  0  0
    8.0819  -19.0417   24.4257 O   0  0  0  0  0  0  0  0  0  0  0  0
    6.2076  -18.0413   23.5071 N   0  0  0  0  0  0  0  0  0  0  0  0
    5.8888  -17.2450   24.6417 C   0  0  0  0  0  0  0  0  0  0  0  0
    6.6644  -15.9912   24.7366 C   0  0  0  0  0  0  0  0  0  0  0  0
    7.6247  -15.7379   23.9510 O   0  0  0  0  0  0  0  0  0  0  0  0
    6.3768  -15.0167   25.6964 N   0  0  0  0  0  0  0  0  0  0  0  0
    7.0578  -13.7332   25.7704 C   0  0  1  0  0  0  0  0  0  0  0  0
    6.0126  -12.7420   26.2970 C   0  0  0  0  0  0  0  0  0  0  0  0
    6.7229  -11.0976   26.4901 S   0  0  0  0  0  0  0  0  0  0  0  0
    8.2401  -13.7600   26.6180 C   0  0  0  0  0  0  0  0  0  0  0  0
    9.3334  -12.9868   26.3007 O   0  0  0  0  0  0  0  0  0  0  0  0
    8.2750  -14.4794   27.6348 O   0  0  0  0  0  0  0  0  0  0  0  0
  2  1  1  6
  3  2  1  0
  4  3  1  0
  5  4  1  0
  6  5  1  0
  7  6  1  0
  8  9  2  0
  8  2  1  0
 10  8  1  0
 11 12  1  0
 11 10  1  0
 12 14  1  0
 13 12  2  0
 14 15  1  0
 15 18  1  0
 15 16  1  1
 16 17  1  0
 18 20  2  0
 18 19  1  0
M  END
$$$$
