KGC.pdb
     RDKit          3D

 20 19  0  0  1  0  0  0  0  0999 V2000
    8.5313  -18.5991   21.3770 N   0  0  0  0  0  0  0  0  0  0  0  0
    8.7103  -17.4046   20.6144 C   0  0  1  0  0  0  0  0  0  0  0  0
    8.1774  -17.4404   19.2243 C   0  0  0  0  0  0  0  0  0  0  0  0
    8.4390  -18.6719   18.4400 C   0  0  0  0  0  0  0  0  0  0  0  0
    8.0157  -18.6632   17.0125 C   0  0  0  0  0  0  0  0  0  0  0  0
    8.3408  -20.0567   16.4552 C   0  0  0  0  0  0  0  0  0  0  0  0
    8.0898  -20.0890   15.0188 N   0  0  0  0  0  0  0  0  0  0  0  0
    8.0472  -16.2721   21.3323 C   0  0  0  0  0  0  0  0  0  0  0  0
    8.2329  -15.1080   20.9284 O   0  0  0  0  0  0  0  0  0  0  0  0
    7.2014  -16.4876   22.4744 N   0  0  0  0  0  0  0  0  0  0  0  0
    6.5779  -15.4462   23.2159 C   0  0  0  0  0  0  0  0  0  0  0  0
    7.4696  -14.7785   24.1863 C   0  0  0  0  0  0  0  0  0  0  0  0
    8.6712  -15.1429   24.3508 O   0  0  0  0  0  0  0  0  0  0  0  0
    7.0350  -13.7070   24.9716 N   0  0  0  0  0  0  0  0  0  0  0  0
    7.8785  -13.0243   25.9406 C   0  0  1  0  0  0  0  0  0  0  0  0
    7.0852  -11.7865   26.3776 C   0  0  0  0  0  0  0  0  0  0  0  0
    5.5079  -12.2570   27.1103 S   0  0  0  0  0  0  0  0  0  0  0  0
    8.2335  -13.8579   27.0791 C   0  0  0  0  0  0  0  0  0  0  0  0
    9.2278  -13.4585   27.9425 O   0  0  0  0  0  0  0  0  0  0  0  0
    7.6441  -14.9366   27.2831 O   0  0  0  0  0  0  0  0  0  0  0  0
  2  1  1  1
  3  2  1  0
  4  3  1  0
  5  4  1  0
  6  5  1  0
  7  6  1  0
  8  9  2  0
  8  2  1  0
 10  8  1  0
 11 12  1  0
 11 10  1  0
 12 14  1  0
 13 12  2  0
 14 15  1  0
 15 18  1  0
 15 16  1  1
 16 17  1  0
 18 20  2  0
 18 19  1  0
M  END
$$$$
