KGC.pdb
     RDKit          3D

 20 19  0  0  1  0  0  0  0  0999 V2000
    9.5423  -18.9023   22.1757 N   0  0  0  0  0  0  0  0  0  0  0  0
    9.3769  -17.7756   21.3135 C   0  0  1  0  0  0  0  0  0  0  0  0
    8.7456  -18.0591   19.9948 C   0  0  0  0  0  0  0  0  0  0  0  0
    8.7402  -19.4730   19.5470 C   0  0  0  0  0  0  0  0  0  0  0  0
    8.8827  -19.7164   18.0849 C   0  0  0  0  0  0  0  0  0  0  0  0
    8.6789  -21.2238   17.8742 C   0  0  0  0  0  0  0  0  0  0  0  0
    8.7965  -21.5484   16.4571 N   0  0  0  0  0  0  0  0  0  0  0  0
    8.5395  -16.7530   22.0140 C   0  0  0  0  0  0  0  0  0  0  0  0
    8.4163  -15.6213   21.5072 O   0  0  0  0  0  0  0  0  0  0  0  0
    7.8723  -17.0380   23.2550 N   0  0  0  0  0  0  0  0  0  0  0  0
    7.0812  -16.0982   23.9720 C   0  0  0  0  0  0  0  0  0  0  0  0
    7.8629  -15.1640   24.8080 C   0  0  0  0  0  0  0  0  0  0  0  0
    9.1213  -15.2562   24.9158 O   0  0  0  0  0  0  0  0  0  0  0  0
    7.2552  -14.1270   25.5212 N   0  0  0  0  0  0  0  0  0  0  0  0
    7.9881  -13.1801   26.3475 C   0  0  1  0  0  0  0  0  0  0  0  0
    6.9345  -12.2091   26.8948 C   0  0  0  0  0  0  0  0  0  0  0  0
    5.3287  -12.5034   26.1328 S   0  0  0  0  0  0  0  0  0  0  0  0
    8.7349  -13.8159   27.4224 C   0  0  0  0  0  0  0  0  0  0  0  0
    8.5490  -15.1520   27.6943 O   0  0  0  0  0  0  0  0  0  0  0  0
    9.5464  -13.1608   28.1043 O   0  0  0  0  0  0  0  0  0  0  0  0
  2  1  1  1
  3  2  1  0
  4  3  1  0
  5  4  1  0
  6  5  1  0
  7  6  1  0
  8  9  2  0
  8  2  1  0
 10  8  1  0
 11 12  1  0
 11 10  1  0
 12 14  1  0
 13 12  2  0
 14 15  1  0
 15 18  1  0
 15 16  1  1
 16 17  1  0
 18 20  2  0
 18 19  1  0
M  END
$$$$
