KGC.pdb
     RDKit          3D

 20 19  0  0  1  0  0  0  0  0999 V2000
    7.2016  -18.4229   23.8872 N   0  0  0  0  0  0  0  0  0  0  0  0
    7.4731  -18.4270   22.4849 C   0  0  1  0  0  0  0  0  0  0  0  0
    6.3264  -18.7896   21.6066 C   0  0  0  0  0  0  0  0  0  0  0  0
    5.0170  -19.0005   22.2704 C   0  0  0  0  0  0  0  0  0  0  0  0
    3.8533  -19.2882   21.3871 C   0  0  0  0  0  0  0  0  0  0  0  0
    2.6481  -19.5038   22.3141 C   0  0  0  0  0  0  0  0  0  0  0  0
    1.4420  -19.7138   21.5211 N   0  0  0  0  0  0  0  0  0  0  0  0
    7.9481  -17.0666   22.0832 C   0  0  0  0  0  0  0  0  0  0  0  0
    8.3047  -16.8736   20.9049 O   0  0  0  0  0  0  0  0  0  0  0  0
    8.0049  -15.9752   23.0169 N   0  0  0  0  0  0  0  0  0  0  0  0
    8.3450  -14.6394   22.6662 C   0  0  0  0  0  0  0  0  0  0  0  0
    8.1524  -13.6611   23.7564 C   0  0  0  0  0  0  0  0  0  0  0  0
    8.4482  -12.4377   23.6170 O   0  0  0  0  0  0  0  0  0  0  0  0
    7.6300  -14.0336   24.9981 N   0  0  0  0  0  0  0  0  0  0  0  0
    8.1861  -13.5975   26.2697 C   0  0  1  0  0  0  0  0  0  0  0  0
    7.1283  -12.6743   26.8872 C   0  0  0  0  0  0  0  0  0  0  0  0
    5.4802  -13.3841   26.7267 S   0  0  0  0  0  0  0  0  0  0  0  0
    8.5144  -14.7006   27.1600 C   0  0  0  0  0  0  0  0  0  0  0  0
    9.1993  -14.4622   28.3295 O   0  0  0  0  0  0  0  0  0  0  0  0
    8.1806  -15.8666   26.8742 O   0  0  0  0  0  0  0  0  0  0  0  0
  2  1  1  1
  3  2  1  0
  4  3  1  0
  5  4  1  0
  6  5  1  0
  7  6  1  0
  8  9  2  0
  8  2  1  0
 10  8  1  0
 11 12  1  0
 11 10  1  0
 12 14  1  0
 13 12  2  0
 14 15  1  0
 15 18  1  0
 15 16  1  1
 16 17  1  0
 18 20  2  0
 18 19  1  0
M  END
$$$$
