KGC.pdb
     RDKit          3D

 20 19  0  0  1  0  0  0  0  0999 V2000
    9.8429  -16.3618   22.2910 N   0  0  0  0  0  0  0  0  0  0  0  0
    8.9153  -17.2939   21.7333 C   0  0  1  0  0  0  0  0  0  0  0  0
    9.4921  -18.5951   21.2954 C   0  0  0  0  0  0  0  0  0  0  0  0
   10.8334  -18.5525   20.6637 C   0  0  0  0  0  0  0  0  0  0  0  0
   11.9566  -19.1631   21.4271 C   0  0  0  0  0  0  0  0  0  0  0  0
   13.1892  -19.0952   20.5139 C   0  0  0  0  0  0  0  0  0  0  0  0
   14.3711  -19.5473   21.2392 N   0  0  0  0  0  0  0  0  0  0  0  0
    7.8528  -17.5795   22.7468 C   0  0  0  0  0  0  0  0  0  0  0  0
    6.9084  -18.3314   22.4381 O   0  0  0  0  0  0  0  0  0  0  0  0
    7.8898  -17.0119   24.0670 N   0  0  0  0  0  0  0  0  0  0  0  0
    7.0744  -17.4476   25.1480 C   0  0  0  0  0  0  0  0  0  0  0  0
    7.3997  -16.8148   26.4428 C   0  0  0  0  0  0  0  0  0  0  0  0
    6.6993  -17.0138   27.4789 O   0  0  0  0  0  0  0  0  0  0  0  0
    8.4997  -15.9658   26.5934 N   0  0  0  0  0  0  0  0  0  0  0  0
    8.6633  -15.0500   27.7118 C   0  0  1  0  0  0  0  0  0  0  0  0
   10.1648  -15.0456   28.0246 C   0  0  0  0  0  0  0  0  0  0  0  0
   11.1336  -14.7615   26.5325 S   0  0  0  0  0  0  0  0  0  0  0  0
    8.1747  -13.7086   27.4301 C   0  0  0  0  0  0  0  0  0  0  0  0
    8.0972  -12.7770   28.4400 O   0  0  0  0  0  0  0  0  0  0  0  0
    7.8233  -13.3911   26.2776 O   0  0  0  0  0  0  0  0  0  0  0  0
  2  1  1  1
  3  2  1  0
  4  3  1  0
  5  4  1  0
  6  5  1  0
  7  6  1  0
  8  9  2  0
  8  2  1  0
 10  8  1  0
 11 12  1  0
 11 10  1  0
 12 14  1  0
 13 12  2  0
 14 15  1  0
 15 18  1  0
 15 16  1  6
 16 17  1  0
 18 20  2  0
 18 19  1  0
M  END
$$$$
