KGC.pdb
     RDKit          3D

 20 19  0  0  1  0  0  0  0  0999 V2000
   10.5396  -17.6161   21.3554 N   0  0  0  0  0  0  0  0  0  0  0  0
    9.2089  -17.2559   20.9814 C   0  0  1  0  0  0  0  0  0  0  0  0
    8.4212  -18.3178   20.2961 C   0  0  0  0  0  0  0  0  0  0  0  0
    9.1893  -19.3343   19.5367 C   0  0  0  0  0  0  0  0  0  0  0  0
    8.8743  -19.4718   18.0879 C   0  0  0  0  0  0  0  0  0  0  0  0
    9.7723  -20.5971   17.5537 C   0  0  0  0  0  0  0  0  0  0  0  0
    9.4601  -20.8604   16.1535 N   0  0  0  0  0  0  0  0  0  0  0  0
    8.4586  -16.8464   22.2090 C   0  0  0  0  0  0  0  0  0  0  0  0
    8.5619  -17.5382   23.2403 O   0  0  0  0  0  0  0  0  0  0  0  0
    7.6221  -15.6777   22.2338 N   0  0  0  0  0  0  0  0  0  0  0  0
    6.8974  -15.2369   23.3756 C   0  0  0  0  0  0  0  0  0  0  0  0
    7.7317  -14.5839   24.4053 C   0  0  0  0  0  0  0  0  0  0  0  0
    8.9834  -14.4511   24.2662 O   0  0  0  0  0  0  0  0  0  0  0  0
    7.1830  -14.0752   25.5858 N   0  0  0  0  0  0  0  0  0  0  0  0
    7.9499  -13.3381   26.5784 C   0  0  1  0  0  0  0  0  0  0  0  0
    6.9445  -12.4077   27.2682 C   0  0  0  0  0  0  0  0  0  0  0  0
    5.8078  -11.6855   26.0714 S   0  0  0  0  0  0  0  0  0  0  0  0
    8.6225  -14.2001   27.5385 C   0  0  0  0  0  0  0  0  0  0  0  0
    9.5133  -13.6643   28.4401 O   0  0  0  0  0  0  0  0  0  0  0  0
    8.4001  -15.4261   27.5543 O   0  0  0  0  0  0  0  0  0  0  0  0
  2  1  1  1
  3  2  1  0
  4  3  1  0
  5  4  1  0
  6  5  1  0
  7  6  1  0
  8  9  2  0
  8  2  1  0
 10  8  1  0
 11 12  1  0
 11 10  1  0
 12 14  1  0
 13 12  2  0
 14 15  1  0
 15 18  1  0
 15 16  1  1
 16 17  1  0
 18 20  2  0
 18 19  1  0
M  END
$$$$
