KGC.pdb
     RDKit          3D

 20 19  0  0  1  0  0  0  0  0999 V2000
    7.0801  -19.7451   22.3237 N   0  0  0  0  0  0  0  0  0  0  0  0
    5.7568  -19.2110   22.2606 C   0  0  1  0  0  0  0  0  0  0  0  0
    4.6543  -20.2112   22.3030 C   0  0  0  0  0  0  0  0  0  0  0  0
    4.7979  -21.4010   21.4292 C   0  0  0  0  0  0  0  0  0  0  0  0
    3.6568  -21.7137   20.5252 C   0  0  0  0  0  0  0  0  0  0  0  0
    4.0896  -22.9224   19.6827 C   0  0  0  0  0  0  0  0  0  0  0  0
    3.0504  -23.2506   18.7132 N   0  0  0  0  0  0  0  0  0  0  0  0
    5.5649  -18.2660   23.4043 C   0  0  0  0  0  0  0  0  0  0  0  0
    4.5425  -17.5543   23.4362 O   0  0  0  0  0  0  0  0  0  0  0  0
    6.5254  -18.1553   24.4679 N   0  0  0  0  0  0  0  0  0  0  0  0
    6.4226  -17.2327   25.5457 C   0  0  0  0  0  0  0  0  0  0  0  0
    7.2144  -15.9990   25.3620 C   0  0  0  0  0  0  0  0  0  0  0  0
    8.0392  -15.8693   24.4099 O   0  0  0  0  0  0  0  0  0  0  0  0
    7.0922  -14.9083   26.2275 N   0  0  0  0  0  0  0  0  0  0  0  0
    7.8900  -13.6970   26.1147 C   0  0  1  0  0  0  0  0  0  0  0  0
    7.1572  -12.6414   26.9519 C   0  0  0  0  0  0  0  0  0  0  0  0
    5.4722  -12.4047   26.3598 S   0  0  0  0  0  0  0  0  0  0  0  0
    9.2634  -13.8718   26.5626 C   0  0  0  0  0  0  0  0  0  0  0  0
   10.1990  -12.8935   26.3151 O   0  0  0  0  0  0  0  0  0  0  0  0
    9.6049  -14.9037   27.1718 O   0  0  0  0  0  0  0  0  0  0  0  0
  2  1  1  1
  3  2  1  0
  4  3  1  0
  5  4  1  0
  6  5  1  0
  7  6  1  0
  8  9  2  0
  8  2  1  0
 10  8  1  0
 11 12  1  0
 11 10  1  0
 12 14  1  0
 13 12  2  0
 14 15  1  0
 15 18  1  0
 15 16  1  1
 16 17  1  0
 18 20  2  0
 18 19  1  0
M  END
$$$$
