KGC.pdb
     RDKit          3D

 20 19  0  0  1  0  0  0  0  0999 V2000
    7.6766  -16.0977   19.5818 N   0  0  0  0  0  0  0  0  0  0  0  0
    8.3622  -14.9830   20.1543 C   0  0  1  0  0  0  0  0  0  0  0  0
    7.9275  -13.6420   19.6744 C   0  0  0  0  0  0  0  0  0  0  0  0
    7.5747  -13.5285   18.2382 C   0  0  0  0  0  0  0  0  0  0  0  0
    8.6033  -13.9689   17.2557 C   0  0  0  0  0  0  0  0  0  0  0  0
    7.9984  -13.7408   15.8629 C   0  0  0  0  0  0  0  0  0  0  0  0
    8.9251  -14.2039   14.8362 N   0  0  0  0  0  0  0  0  0  0  0  0
    8.1841  -15.0202   21.6391 C   0  0  0  0  0  0  0  0  0  0  0  0
    8.7940  -14.1921   22.3427 O   0  0  0  0  0  0  0  0  0  0  0  0
    7.3295  -15.9833   22.2780 N   0  0  0  0  0  0  0  0  0  0  0  0
    7.1663  -16.0981   23.6864 C   0  0  0  0  0  0  0  0  0  0  0  0
    8.0364  -15.1975   24.4704 C   0  0  0  0  0  0  0  0  0  0  0  0
    9.2600  -15.0359   24.1869 O   0  0  0  0  0  0  0  0  0  0  0  0
    7.5540  -14.4735   25.5643 N   0  0  0  0  0  0  0  0  0  0  0  0
    8.3655  -13.5464   26.3379 C   0  0  1  0  0  0  0  0  0  0  0  0
    7.4672  -12.3310   26.5986 C   0  0  0  0  0  0  0  0  0  0  0  0
    5.9260  -12.8260   27.3896 S   0  0  0  0  0  0  0  0  0  0  0  0
    8.8610  -14.1182   27.5808 C   0  0  0  0  0  0  0  0  0  0  0  0
    8.4946  -15.3930   27.9474 O   0  0  0  0  0  0  0  0  0  0  0  0
    9.6182  -13.4630   28.3224 O   0  0  0  0  0  0  0  0  0  0  0  0
  2  1  1  6
  3  2  1  0
  4  3  1  0
  5  4  1  0
  6  5  1  0
  7  6  1  0
  8  9  2  0
  8  2  1  0
 10  8  1  0
 11 12  1  0
 11 10  1  0
 12 14  1  0
 13 12  2  0
 14 15  1  0
 15 18  1  0
 15 16  1  1
 16 17  1  0
 18 20  2  0
 18 19  1  0
M  END
$$$$
