KGC.pdb
     RDKit          3D

 20 19  0  0  1  0  0  0  0  0999 V2000
    8.2565  -18.8718   23.3532 N   0  0  0  0  0  0  0  0  0  0  0  0
    7.0241  -18.5273   23.9878 C   0  0  1  0  0  0  0  0  0  0  0  0
    6.9764  -18.7362   25.4615 C   0  0  0  0  0  0  0  0  0  0  0  0
    8.0869  -19.5146   26.0621 C   0  0  0  0  0  0  0  0  0  0  0  0
    7.9737  -19.8408   27.5106 C   0  0  0  0  0  0  0  0  0  0  0  0
    9.2633  -20.5832   27.8901 C   0  0  0  0  0  0  0  0  0  0  0  0
    9.2623  -20.8843   29.3172 N   0  0  0  0  0  0  0  0  0  0  0  0
    6.7309  -17.0855   23.7178 C   0  0  0  0  0  0  0  0  0  0  0  0
    5.6511  -16.6035   24.1109 O   0  0  0  0  0  0  0  0  0  0  0  0
    7.6590  -16.2394   23.0184 N   0  0  0  0  0  0  0  0  0  0  0  0
    7.4166  -14.8732   22.7057 C   0  0  0  0  0  0  0  0  0  0  0  0
    7.6926  -13.9410   23.8182 C   0  0  0  0  0  0  0  0  0  0  0  0
    7.7708  -12.6899   23.6385 O   0  0  0  0  0  0  0  0  0  0  0  0
    7.8785  -14.3906   25.1285 N   0  0  0  0  0  0  0  0  0  0  0  0
    8.3460  -13.5410   26.2130 C   0  0  1  0  0  0  0  0  0  0  0  0
    7.0821  -13.0798   26.9494 C   0  0  0  0  0  0  0  0  0  0  0  0
    5.9929  -12.1605   25.8475 S   0  0  0  0  0  0  0  0  0  0  0  0
    9.2693  -14.2161   27.1124 C   0  0  0  0  0  0  0  0  0  0  0  0
    9.8262  -13.5326   28.1690 O   0  0  0  0  0  0  0  0  0  0  0  0
    9.5639  -15.4140   26.9362 O   0  0  0  0  0  0  0  0  0  0  0  0
  2  1  1  1
  3  2  1  0
  4  3  1  0
  5  4  1  0
  6  5  1  0
  7  6  1  0
  8  9  2  0
  8  2  1  0
 10  8  1  0
 11 12  1  0
 11 10  1  0
 12 14  1  0
 13 12  2  0
 14 15  1  0
 15 18  1  0
 15 16  1  1
 16 17  1  0
 18 20  2  0
 18 19  1  0
M  END
$$$$
