TKQ.pdb
     RDKit          3D

 26 25  0  0  1  0  0  0  0  0999 V2000
   27.5834  -18.2588  -16.0555 C   0  0  0  0  0  0  0  0  0  0  0  0
   27.7953  -19.4684  -16.9407 C   0  0  1  0  0  0  0  0  0  0  0  0
   28.8097  -19.2211  -17.8411 O   0  0  0  0  0  0  0  0  0  0  0  0
   28.0862  -20.7088  -16.1256 C   0  0  2  0  0  0  0  0  0  0  0  0
   28.2756  -21.8425  -17.0052 N   0  0  0  0  0  0  0  0  0  0  0  0
   26.9732  -21.0336  -15.2012 C   0  0  0  0  0  0  0  0  0  0  0  0
   25.9469  -21.6717  -15.5797 O   0  0  0  0  0  0  0  0  0  0  0  0
   27.0021  -20.6465  -13.8486 N   0  0  0  0  0  0  0  0  0  0  0  0
   25.8379  -20.8457  -12.9515 C   0  0  1  0  0  0  0  0  0  0  0  0
   26.3398  -20.6814  -11.5767 C   0  0  0  0  0  0  0  0  0  0  0  0
   25.4162  -20.8767  -10.4417 C   0  0  0  0  0  0  0  0  0  0  0  0
   26.2511  -20.5697   -9.1793 C   0  0  0  0  0  0  0  0  0  0  0  0
   25.4103  -20.7404   -7.9390 C   0  0  0  0  0  0  0  0  0  0  0  0
   26.1200  -20.2394   -6.7767 N   0  0  0  0  0  0  0  0  0  0  0  0
   24.7794  -19.9589  -13.4111 C   0  0  0  0  0  0  0  0  0  0  0  0
   25.0486  -18.9287  -14.0742 O   0  0  0  0  0  0  0  0  0  0  0  0
   23.3304  -19.1003  -18.2830 N   0  0  0  0  0  0  0  0  0  0  0  0
   22.9425  -18.0587  -17.3940 C   0  0  0  0  0  0  0  0  0  0  0  0
   22.8289  -16.8961  -17.9133 O   0  0  0  0  0  0  0  0  0  0  0  0
   22.6738  -18.2684  -15.9658 C   0  0  0  0  0  0  0  0  0  0  0  0
   22.9412  -19.6262  -15.4375 C   0  0  0  0  0  0  0  0  0  0  0  0
   22.3410  -19.9370  -14.1341 C   0  0  2  0  0  0  0  0  0  0  0  0
   23.4082  -20.2119  -13.1386 N   0  0  0  0  0  0  0  0  0  0  0  0
   21.3030  -20.9455  -14.0895 C   0  0  0  0  0  0  0  0  0  0  0  0
   20.1342  -20.9911  -14.8324 O   0  0  0  0  0  0  0  0  0  0  0  0
   21.4352  -21.9279  -13.2713 O   0  0  0  0  0  0  0  0  0  0  0  0
  2  1  1  1
  2  4  1  0
  2  3  1  0
  4  5  1  6
  6  4  1  0
  7  6  2  0
  8  6  1  0
  9  8  1  0
  9 10  1  1
 10 11  1  0
 11 12  1  0
 12 13  1  0
 13 14  1  0
 15 23  1  0
 15  9  1  0
 16 15  2  0
 17 18  1  0
 18 19  2  0
 20 18  1  0
 20 21  1  0
 22 21  1  6
 22 23  1  0
 24 22  1  0
 24 25  1  0
 26 24  2  0
M  END
$$$$
