TKQ.pdb
     RDKit          3D

 26 25  0  0  1  0  0  0  0  0999 V2000
   27.2656  -14.9386  -15.3583 C   0  0  0  0  0  0  0  0  0  0  0  0
   26.0168  -15.7169  -15.7141 C   0  0  1  0  0  0  0  0  0  0  0  0
   25.3962  -15.1396  -16.8016 O   0  0  0  0  0  0  0  0  0  0  0  0
   26.3268  -17.1734  -15.9786 C   0  0  2  0  0  0  0  0  0  0  0  0
   27.1765  -17.2920  -17.1442 N   0  0  0  0  0  0  0  0  0  0  0  0
   25.0962  -17.9607  -16.2330 C   0  0  0  0  0  0  0  0  0  0  0  0
   24.4880  -17.9209  -17.3430 O   0  0  0  0  0  0  0  0  0  0  0  0
   24.5394  -18.7965  -15.2474 N   0  0  0  0  0  0  0  0  0  0  0  0
   23.3687  -19.6636  -15.5254 C   0  0  1  0  0  0  0  0  0  0  0  0
   23.7462  -21.0214  -15.0975 C   0  0  0  0  0  0  0  0  0  0  0  0
   24.5422  -21.8705  -16.0057 C   0  0  0  0  0  0  0  0  0  0  0  0
   24.7207  -23.2104  -15.2590 C   0  0  0  0  0  0  0  0  0  0  0  0
   25.5102  -24.1804  -16.1017 C   0  0  0  0  0  0  0  0  0  0  0  0
   25.6675  -25.4425  -15.4029 N   0  0  0  0  0  0  0  0  0  0  0  0
   22.2099  -19.0405  -14.9033 C   0  0  0  0  0  0  0  0  0  0  0  0
   22.2549  -18.6471  -13.7130 O   0  0  0  0  0  0  0  0  0  0  0  0
   18.2066  -15.1068  -17.7538 N   0  0  0  0  0  0  0  0  0  0  0  0
   17.7228  -15.2548  -16.4235 C   0  0  0  0  0  0  0  0  0  0  0  0
   16.8058  -14.4373  -16.0698 O   0  0  0  0  0  0  0  0  0  0  0  0
   18.2156  -16.2745  -15.4890 C   0  0  0  0  0  0  0  0  0  0  0  0
   19.3580  -17.0957  -15.9524 C   0  0  0  0  0  0  0  0  0  0  0  0
   19.8462  -18.1071  -15.0067 C   0  0  2  0  0  0  0  0  0  0  0  0
   20.9881  -18.8468  -15.6020 N   0  0  0  0  0  0  0  0  0  0  0  0
   18.8778  -19.0105  -14.4213 C   0  0  0  0  0  0  0  0  0  0  0  0
   18.7005  -20.3567  -14.6978 O   0  0  0  0  0  0  0  0  0  0  0  0
   18.0593  -18.5499  -13.5439 O   0  0  0  0  0  0  0  0  0  0  0  0
  2  1  1  6
  2  4  1  0
  2  3  1  0
  4  5  1  6
  6  4  1  0
  7  6  2  0
  8  6  1  0
  9  8  1  0
  9 10  1  1
 10 11  1  0
 11 12  1  0
 12 13  1  0
 13 14  1  0
 15 23  1  0
 15  9  1  0
 16 15  2  0
 17 18  1  0
 18 19  2  0
 20 18  1  0
 20 21  1  0
 22 21  1  6
 22 23  1  0
 24 22  1  0
 24 25  1  0
 26 24  2  0
M  END
$$$$
