TKQ.pdb
     RDKit          3D

 26 25  0  0  1  0  0  0  0  0999 V2000
   27.7231  -10.7922  -15.0663 C   0  0  0  0  0  0  0  0  0  0  0  0
   26.4273  -10.1067  -15.4441 C   0  0  1  0  0  0  0  0  0  0  0  0
   26.6895   -8.8541  -15.9571 O   0  0  0  0  0  0  0  0  0  0  0  0
   25.6257  -10.9352  -16.4231 C   0  0  2  0  0  0  0  0  0  0  0  0
   26.3545  -11.0694  -17.6664 N   0  0  0  0  0  0  0  0  0  0  0  0
   24.3166  -10.3102  -16.7306 C   0  0  0  0  0  0  0  0  0  0  0  0
   24.1178   -9.6499  -17.7927 O   0  0  0  0  0  0  0  0  0  0  0  0
   23.2232  -10.4203  -15.8518 N   0  0  0  0  0  0  0  0  0  0  0  0
   21.8849   -9.8807  -16.1947 C   0  0  1  0  0  0  0  0  0  0  0  0
   20.9149  -10.9426  -15.8779 C   0  0  0  0  0  0  0  0  0  0  0  0
   19.4720  -10.6759  -16.0404 C   0  0  0  0  0  0  0  0  0  0  0  0
   18.7740  -12.0243  -15.7582 C   0  0  0  0  0  0  0  0  0  0  0  0
   17.2877  -11.9036  -15.9833 C   0  0  0  0  0  0  0  0  0  0  0  0
   16.6566  -13.2069  -15.8889 N   0  0  0  0  0  0  0  0  0  0  0  0
   21.7489   -8.5976  -15.5214 C   0  0  0  0  0  0  0  0  0  0  0  0
   22.2177   -8.4243  -14.3707 O   0  0  0  0  0  0  0  0  0  0  0  0
   23.0549   -3.1172  -17.9491 N   0  0  0  0  0  0  0  0  0  0  0  0
   22.3967   -2.7841  -16.7319 C   0  0  0  0  0  0  0  0  0  0  0  0
   22.4320   -1.5505  -16.3986 O   0  0  0  0  0  0  0  0  0  0  0  0
   21.7036   -3.7662  -15.8886 C   0  0  0  0  0  0  0  0  0  0  0  0
   21.7029   -5.1662  -16.3725 C   0  0  0  0  0  0  0  0  0  0  0  0
   21.0609   -6.1492  -15.4908 C   0  0  2  0  0  0  0  0  0  0  0  0
   21.0909   -7.4921  -16.1242 N   0  0  0  0  0  0  0  0  0  0  0  0
   19.7451   -5.8374  -14.9731 C   0  0  0  0  0  0  0  0  0  0  0  0
   19.4269   -4.9894  -13.9244 O   0  0  0  0  0  0  0  0  0  0  0  0
   18.7230   -6.3984  -15.5140 O   0  0  0  0  0  0  0  0  0  0  0  0
  2  1  1  6
  2  4  1  0
  2  3  1  0
  4  5  1  6
  6  4  1  0
  7  6  2  0
  8  6  1  0
  9  8  1  0
  9 10  1  1
 10 11  1  0
 11 12  1  0
 12 13  1  0
 13 14  1  0
 15 23  1  0
 15  9  1  0
 16 15  2  0
 17 18  1  0
 18 19  2  0
 20 18  1  0
 20 21  1  0
 22 21  1  6
 22 23  1  0
 24 22  1  0
 24 25  1  0
 26 24  2  0
M  END
$$$$
