TKQ.pdb
     RDKit          3D

 26 25  0  0  1  0  0  0  0  0999 V2000
   22.4697  -12.4560  -15.4170 C   0  0  0  0  0  0  0  0  0  0  0  0
   21.4942  -11.3151  -15.6132 C   0  0  1  0  0  0  0  0  0  0  0  0
   22.1251  -10.2578  -16.2338 O   0  0  0  0  0  0  0  0  0  0  0  0
   20.2770  -11.7538  -16.3965 C   0  0  2  0  0  0  0  0  0  0  0  0
   20.6641  -12.1235  -17.7412 N   0  0  0  0  0  0  0  0  0  0  0  0
   19.2678  -10.6720  -16.4968 C   0  0  0  0  0  0  0  0  0  0  0  0
   19.1990   -9.9054  -17.5024 O   0  0  0  0  0  0  0  0  0  0  0  0
   18.3302  -10.4420  -15.4731 N   0  0  0  0  0  0  0  0  0  0  0  0
   17.3366   -9.3437  -15.5529 C   0  0  1  0  0  0  0  0  0  0  0  0
   16.0349   -9.9343  -15.1982 C   0  0  0  0  0  0  0  0  0  0  0  0
   14.8472   -9.0626  -15.1034 C   0  0  0  0  0  0  0  0  0  0  0  0
   13.6772  -10.0054  -14.7466 C   0  0  0  0  0  0  0  0  0  0  0  0
   12.6083   -9.9414  -15.8085 C   0  0  0  0  0  0  0  0  0  0  0  0
   11.6463  -11.0113  -15.6198 N   0  0  0  0  0  0  0  0  0  0  0  0
   17.8397   -8.2439  -14.7433 C   0  0  0  0  0  0  0  0  0  0  0  0
   18.4449   -8.4644  -13.6668 O   0  0  0  0  0  0  0  0  0  0  0  0
   22.7057   -5.9873  -14.6470 N   0  0  0  0  0  0  0  0  0  0  0  0
   22.0437   -4.9739  -13.8984 C   0  0  0  0  0  0  0  0  0  0  0  0
   22.8029   -4.1475  -13.2861 O   0  0  0  0  0  0  0  0  0  0  0  0
   20.5831   -4.8484  -13.8164 C   0  0  0  0  0  0  0  0  0  0  0  0
   19.7922   -5.8959  -14.5031 C   0  0  0  0  0  0  0  0  0  0  0  0
   18.3333   -5.7735  -14.3931 C   0  0  2  0  0  0  0  0  0  0  0  0
   17.6758   -6.8854  -15.1258 N   0  0  0  0  0  0  0  0  0  0  0  0
   17.7340   -4.4966  -14.7203 C   0  0  0  0  0  0  0  0  0  0  0  0
   17.7182   -3.3460  -13.9483 O   0  0  0  0  0  0  0  0  0  0  0  0
   17.1259   -4.3735  -15.8459 O   0  0  0  0  0  0  0  0  0  0  0  0
  2  1  1  6
  2  4  1  0
  2  3  1  0
  4  5  1  6
  6  4  1  0
  7  6  2  0
  8  6  1  0
  9  8  1  0
  9 10  1  1
 10 11  1  0
 11 12  1  0
 12 13  1  0
 13 14  1  0
 15 23  1  0
 15  9  1  0
 16 15  2  0
 17 18  1  0
 18 19  2  0
 20 18  1  0
 20 21  1  0
 22 21  1  6
 22 23  1  0
 24 22  1  0
 24 25  1  0
 26 24  2  0
M  END
$$$$
