TKQ.pdb
     RDKit          3D

 26 25  0  0  1  0  0  0  0  0999 V2000
   35.9885  -27.9543  -16.8113 C   0  0  0  0  0  0  0  0  0  0  0  0
   35.2568  -29.2753  -16.9167 C   0  0  1  0  0  0  0  0  0  0  0  0
   33.9098  -29.0534  -17.1096 O   0  0  0  0  0  0  0  0  0  0  0  0
   35.8261  -30.1388  -18.0203 C   0  0  2  0  0  0  0  0  0  0  0  0
   35.6957  -29.4610  -19.2924 N   0  0  0  0  0  0  0  0  0  0  0  0
   35.1177  -31.4374  -18.1241 C   0  0  0  0  0  0  0  0  0  0  0  0
   34.1794  -31.6290  -18.9527 O   0  0  0  0  0  0  0  0  0  0  0  0
   35.4548  -32.5283  -17.3017 N   0  0  0  0  0  0  0  0  0  0  0  0
   34.7538  -33.8315  -17.4024 C   0  0  1  0  0  0  0  0  0  0  0  0
   35.7498  -34.8656  -17.0744 C   0  0  0  0  0  0  0  0  0  0  0  0
   35.3205  -36.2738  -16.9641 C   0  0  0  0  0  0  0  0  0  0  0  0
   36.6108  -37.0717  -16.6749 C   0  0  0  0  0  0  0  0  0  0  0  0
   36.3022  -38.5427  -16.5519 C   0  0  0  0  0  0  0  0  0  0  0  0
   37.5229  -39.2969  -16.3352 N   0  0  0  0  0  0  0  0  0  0  0  0
   33.5543  -33.7432  -16.5830 C   0  0  0  0  0  0  0  0  0  0  0  0
   33.4897  -32.9356  -15.6253 O   0  0  0  0  0  0  0  0  0  0  0  0
   27.1200  -32.1324  -15.7998 N   0  0  0  0  0  0  0  0  0  0  0  0
   28.5195  -31.9002  -15.9154 C   0  0  0  0  0  0  0  0  0  0  0  0
   28.8629  -30.9328  -16.6772 O   0  0  0  0  0  0  0  0  0  0  0  0
   29.5350  -32.6955  -15.2139 C   0  0  0  0  0  0  0  0  0  0  0  0
   30.7756  -32.9922  -15.9671 C   0  0  0  0  0  0  0  0  0  0  0  0
   31.1606  -34.4073  -16.0369 C   0  0  2  0  0  0  0  0  0  0  0  0
   32.4118  -34.5528  -16.8235 N   0  0  0  0  0  0  0  0  0  0  0  0
   30.1569  -35.3625  -16.4575 C   0  0  0  0  0  0  0  0  0  0  0  0
   30.2139  -36.2313  -17.5354 O   0  0  0  0  0  0  0  0  0  0  0  0
   29.0636  -35.4409  -15.7863 O   0  0  0  0  0  0  0  0  0  0  0  0
  2  1  1  6
  2  4  1  0
  2  3  1  0
  4  5  1  6
  6  4  1  0
  7  6  2  0
  8  6  1  0
  9  8  1  0
  9 10  1  1
 10 11  1  0
 11 12  1  0
 12 13  1  0
 13 14  1  0
 15 23  1  0
 15  9  1  0
 16 15  2  0
 17 18  1  0
 18 19  2  0
 20 18  1  0
 20 21  1  0
 22 21  1  6
 22 23  1  0
 24 22  1  0
 24 25  1  0
 26 24  2  0
M  END
$$$$
