TKQ.pdb
     RDKit          3D

 26 25  0  0  1  0  0  0  0  0999 V2000
   29.1832  -18.6264  -17.8010 C   0  0  0  0  0  0  0  0  0  0  0  0
   27.9510  -19.1510  -17.0951 C   0  0  1  0  0  0  0  0  0  0  0  0
   26.8844  -19.1794  -17.9683 O   0  0  0  0  0  0  0  0  0  0  0  0
   28.1947  -20.5175  -16.4944 C   0  0  2  0  0  0  0  0  0  0  0  0
   28.4883  -21.4708  -17.5432 N   0  0  0  0  0  0  0  0  0  0  0  0
   27.0102  -21.0115  -15.7517 C   0  0  0  0  0  0  0  0  0  0  0  0
   26.2887  -21.9574  -16.1857 O   0  0  0  0  0  0  0  0  0  0  0  0
   26.6265  -20.4503  -14.5197 N   0  0  0  0  0  0  0  0  0  0  0  0
   25.4603  -20.9580  -13.7567 C   0  0  1  0  0  0  0  0  0  0  0  0
   25.7711  -20.7461  -12.3328 C   0  0  0  0  0  0  0  0  0  0  0  0
   24.7668  -21.1056  -11.3123 C   0  0  0  0  0  0  0  0  0  0  0  0
   25.4052  -20.7224   -9.9593 C   0  0  0  0  0  0  0  0  0  0  0  0
   24.4875  -21.0932   -8.8215 C   0  0  0  0  0  0  0  0  0  0  0  0
   25.1262  -20.8156   -7.5484 N   0  0  0  0  0  0  0  0  0  0  0  0
   24.2721  -20.3222  -14.3064 C   0  0  0  0  0  0  0  0  0  0  0  0
   24.2734  -19.1014  -14.5953 O   0  0  0  0  0  0  0  0  0  0  0  0
   18.7371  -23.0926  -16.0621 N   0  0  0  0  0  0  0  0  0  0  0  0
   18.7322  -21.7852  -16.6248 C   0  0  0  0  0  0  0  0  0  0  0  0
   17.6408  -21.4228  -17.1829 O   0  0  0  0  0  0  0  0  0  0  0  0
   19.8858  -20.8779  -16.5803 C   0  0  0  0  0  0  0  0  0  0  0  0
   21.0990  -21.3875  -15.9002 C   0  0  0  0  0  0  0  0  0  0  0  0
   21.8688  -20.3985  -15.1354 C   0  0  2  0  0  0  0  0  0  0  0  0
   23.0694  -21.0407  -14.5426 N   0  0  0  0  0  0  0  0  0  0  0  0
   21.1610  -19.5967  -14.1594 C   0  0  0  0  0  0  0  0  0  0  0  0
   20.9583  -19.8793  -12.8181 O   0  0  0  0  0  0  0  0  0  0  0  0
   20.6339  -18.4881  -14.5405 O   0  0  0  0  0  0  0  0  0  0  0  0
  2  1  1  6
  2  4  1  0
  2  3  1  0
  4  5  1  6
  6  4  1  0
  7  6  2  0
  8  6  1  0
  9  8  1  0
  9 10  1  1
 10 11  1  0
 11 12  1  0
 12 13  1  0
 13 14  1  0
 15 23  1  0
 15  9  1  0
 16 15  2  0
 17 18  1  0
 18 19  2  0
 20 18  1  0
 20 21  1  0
 22 21  1  1
 22 23  1  0
 24 22  1  0
 24 25  1  0
 26 24  2  0
M  END
$$$$
