TKQ.pdb
     RDKit          3D

 26 25  0  0  1  0  0  0  0  0999 V2000
   27.8195  -22.4042  -17.2466 C   0  0  0  0  0  0  0  0  0  0  0  0
   26.7562  -21.4867  -16.6817 C   0  0  1  0  0  0  0  0  0  0  0  0
   26.1029  -22.1089  -15.6391 O   0  0  0  0  0  0  0  0  0  0  0  0
   27.3416  -20.1637  -16.2406 C   0  0  2  0  0  0  0  0  0  0  0  0
   28.4038  -20.3901  -15.2838 N   0  0  0  0  0  0  0  0  0  0  0  0
   26.3247  -19.3005  -15.5927 C   0  0  0  0  0  0  0  0  0  0  0  0
   26.3816  -18.9972  -14.3646 O   0  0  0  0  0  0  0  0  0  0  0  0
   25.2389  -18.7720  -16.3151 N   0  0  0  0  0  0  0  0  0  0  0  0
   24.2674  -17.8371  -15.6971 C   0  0  1  0  0  0  0  0  0  0  0  0
   24.2963  -16.6098  -16.5107 C   0  0  0  0  0  0  0  0  0  0  0  0
   25.3687  -15.6200  -16.2882 C   0  0  0  0  0  0  0  0  0  0  0  0
   24.7215  -14.2470  -16.5728 C   0  0  0  0  0  0  0  0  0  0  0  0
   25.7463  -13.1475  -16.4493 C   0  0  0  0  0  0  0  0  0  0  0  0
   25.1002  -11.8490  -16.4993 N   0  0  0  0  0  0  0  0  0  0  0  0
   23.0046  -18.5485  -15.5647 C   0  0  0  0  0  0  0  0  0  0  0  0
   22.6007  -19.3127  -16.4739 O   0  0  0  0  0  0  0  0  0  0  0  0
   19.8608  -20.1802  -10.1729 N   0  0  0  0  0  0  0  0  0  0  0  0
   19.2624  -20.8346  -11.2862 C   0  0  0  0  0  0  0  0  0  0  0  0
   18.3784  -21.7146  -11.0063 O   0  0  0  0  0  0  0  0  0  0  0  0
   19.6071  -20.5398  -12.6827 C   0  0  0  0  0  0  0  0  0  0  0  0
   20.6275  -19.4886  -12.9016 C   0  0  0  0  0  0  0  0  0  0  0  0
   20.8714  -19.1128  -14.2998 C   0  0  2  0  0  0  0  0  0  0  0  0
   22.1788  -18.4180  -14.4160 N   0  0  0  0  0  0  0  0  0  0  0  0
   19.8268  -18.3957  -15.0007 C   0  0  0  0  0  0  0  0  0  0  0  0
   18.8942  -18.9107  -15.8867 O   0  0  0  0  0  0  0  0  0  0  0  0
   19.7214  -17.1281  -14.8165 O   0  0  0  0  0  0  0  0  0  0  0  0
  2  1  1  1
  2  4  1  0
  2  3  1  0
  4  5  1  1
  6  4  1  0
  7  6  2  0
  8  6  1  0
  9  8  1  0
  9 10  1  6
 10 11  1  0
 11 12  1  0
 12 13  1  0
 13 14  1  0
 15 23  1  0
 15  9  1  0
 16 15  2  0
 17 18  1  0
 18 19  2  0
 20 18  1  0
 20 21  1  0
 22 21  1  1
 22 23  1  0
 24 22  1  0
 24 25  1  0
 26 24  2  0
M  END
$$$$
