TKQ.pdb
     RDKit          3D

 26 25  0  0  1  0  0  0  0  0999 V2000
   16.1183   -6.9373  -16.6041 C   0  0  0  0  0  0  0  0  0  0  0  0
   15.3383   -7.9918  -15.8482 C   0  0  1  0  0  0  0  0  0  0  0  0
   13.9898   -7.8484  -16.0966 O   0  0  0  0  0  0  0  0  0  0  0  0
   15.8074   -9.3866  -16.1979 C   0  0  2  0  0  0  0  0  0  0  0  0
   14.9701  -10.3668  -15.5398 N   0  0  0  0  0  0  0  0  0  0  0  0
   17.2060   -9.6217  -15.7650 C   0  0  0  0  0  0  0  0  0  0  0  0
   17.5374   -9.6524  -14.5432 O   0  0  0  0  0  0  0  0  0  0  0  0
   18.2413   -9.8237  -16.6963 N   0  0  0  0  0  0  0  0  0  0  0  0
   19.6620   -9.9173  -16.2806 C   0  0  1  0  0  0  0  0  0  0  0  0
   20.2622  -10.9908  -17.0909 C   0  0  0  0  0  0  0  0  0  0  0  0
   20.5027  -12.3116  -16.4771 C   0  0  0  0  0  0  0  0  0  0  0  0
   21.0798  -13.1885  -17.6098 C   0  0  0  0  0  0  0  0  0  0  0  0
   21.3596  -14.5817  -17.1050 C   0  0  0  0  0  0  0  0  0  0  0  0
   21.9272  -15.3963  -18.1633 N   0  0  0  0  0  0  0  0  0  0  0  0
   20.2304   -8.5809  -16.3744 C   0  0  0  0  0  0  0  0  0  0  0  0
   20.0999   -7.9003  -17.4201 O   0  0  0  0  0  0  0  0  0  0  0  0
   21.6057   -4.3348  -17.7966 N   0  0  0  0  0  0  0  0  0  0  0  0
   21.1092   -3.6185  -16.6713 C   0  0  0  0  0  0  0  0  0  0  0  0
   21.3049   -2.3554  -16.6840 O   0  0  0  0  0  0  0  0  0  0  0  0
   20.4049   -4.2541  -15.5507 C   0  0  0  0  0  0  0  0  0  0  0  0
   20.1928   -5.7168  -15.6503 C   0  0  0  0  0  0  0  0  0  0  0  0
   21.3497   -6.5568  -15.3164 C   0  0  2  0  0  0  0  0  0  0  0  0
   20.9491   -7.9868  -15.3025 N   0  0  0  0  0  0  0  0  0  0  0  0
   22.1205   -6.2117  -14.1402 C   0  0  0  0  0  0  0  0  0  0  0  0
   23.3466   -5.5680  -14.0903 O   0  0  0  0  0  0  0  0  0  0  0  0
   21.6549   -6.5294  -12.9851 O   0  0  0  0  0  0  0  0  0  0  0  0
  2  1  1  6
  2  4  1  0
  2  3  1  0
  4  5  1  1
  6  4  1  0
  7  6  2  0
  8  6  1  0
  9  8  1  0
  9 10  1  6
 10 11  1  0
 11 12  1  0
 12 13  1  0
 13 14  1  0
 15 23  1  0
 15  9  1  0
 16 15  2  0
 17 18  1  0
 18 19  2  0
 20 18  1  0
 20 21  1  0
 22 21  1  1
 22 23  1  0
 24 22  1  0
 24 25  1  0
 26 24  2  0
M  END
$$$$
