TKQ.pdb
     RDKit          3D

 26 25  0  0  1  0  0  0  0  0999 V2000
   28.2457  -14.7221  -20.5475 C   0  0  0  0  0  0  0  0  0  0  0  0
   27.8361  -16.1755  -20.4409 C   0  0  1  0  0  0  0  0  0  0  0  0
   28.7646  -16.9741  -21.0742 O   0  0  0  0  0  0  0  0  0  0  0  0
   27.6538  -16.5968  -18.9998 C   0  0  2  0  0  0  0  0  0  0  0  0
   28.9027  -16.4516  -18.2828 N   0  0  0  0  0  0  0  0  0  0  0  0
   27.2304  -18.0136  -18.8897 C   0  0  0  0  0  0  0  0  0  0  0  0
   26.1489  -18.4353  -19.3960 O   0  0  0  0  0  0  0  0  0  0  0  0
   28.0142  -18.9663  -18.2129 N   0  0  0  0  0  0  0  0  0  0  0  0
   27.5417  -20.3545  -17.9906 C   0  0  1  0  0  0  0  0  0  0  0  0
   28.7379  -21.1564  -17.6823 C   0  0  0  0  0  0  0  0  0  0  0  0
   28.5819  -22.5811  -17.3286 C   0  0  0  0  0  0  0  0  0  0  0  0
   30.0110  -23.0868  -17.0340 C   0  0  0  0  0  0  0  0  0  0  0  0
   29.9912  -24.5602  -16.7130 C   0  0  0  0  0  0  0  0  0  0  0  0
   31.3237  -25.0179  -16.3656 N   0  0  0  0  0  0  0  0  0  0  0  0
   26.4752  -20.2967  -17.0020 C   0  0  0  0  0  0  0  0  0  0  0  0
   26.5096  -19.4578  -16.0698 O   0  0  0  0  0  0  0  0  0  0  0  0
   22.7272  -16.9855  -15.6747 N   0  0  0  0  0  0  0  0  0  0  0  0
   22.1972  -18.0600  -14.9064 C   0  0  0  0  0  0  0  0  0  0  0  0
   21.2614  -17.7537  -14.0912 O   0  0  0  0  0  0  0  0  0  0  0  0
   22.6646  -19.4472  -15.0202 C   0  0  0  0  0  0  0  0  0  0  0  0
   23.8104  -19.6840  -15.9286 C   0  0  0  0  0  0  0  0  0  0  0  0
   24.2456  -21.0800  -16.0617 C   0  0  2  0  0  0  0  0  0  0  0  0
   25.3569  -21.1719  -17.0425 N   0  0  0  0  0  0  0  0  0  0  0  0
   23.2332  -22.0841  -16.3132 C   0  0  0  0  0  0  0  0  0  0  0  0
   23.1336  -22.9312  -17.4053 O   0  0  0  0  0  0  0  0  0  0  0  0
   22.2904  -22.2355  -15.4527 O   0  0  0  0  0  0  0  0  0  0  0  0
  2  1  1  1
  2  4  1  0
  2  3  1  0
  4  5  1  1
  6  4  1  0
  7  6  2  0
  8  6  1  0
  9  8  1  0
  9 10  1  1
 10 11  1  0
 11 12  1  0
 12 13  1  0
 13 14  1  0
 15 23  1  0
 15  9  1  0
 16 15  2  0
 17 18  1  0
 18 19  2  0
 20 18  1  0
 20 21  1  0
 22 21  1  6
 22 23  1  0
 24 22  1  0
 24 25  1  0
 26 24  2  0
M  END
$$$$
