TKQ.pdb
     RDKit          3D

 26 25  0  0  1  0  0  0  0  0999 V2000
   19.8057  -19.9456  -13.3344 C   0  0  0  0  0  0  0  0  0  0  0  0
   21.2806  -19.7511  -13.6143 C   0  0  1  0  0  0  0  0  0  0  0  0
   22.0212  -20.6618  -12.8910 O   0  0  0  0  0  0  0  0  0  0  0  0
   21.5843  -19.8589  -15.0920 C   0  0  2  0  0  0  0  0  0  0  0  0
   21.3605  -21.2160  -15.5427 N   0  0  0  0  0  0  0  0  0  0  0  0
   22.9939  -19.5089  -15.3913 C   0  0  0  0  0  0  0  0  0  0  0  0
   23.4815  -18.3750  -15.1083 O   0  0  0  0  0  0  0  0  0  0  0  0
   23.8654  -20.4252  -16.0085 N   0  0  0  0  0  0  0  0  0  0  0  0
   25.2269  -20.0362  -16.4499 C   0  0  1  0  0  0  0  0  0  0  0  0
   26.0834  -21.2167  -16.2448 C   0  0  0  0  0  0  0  0  0  0  0  0
   27.4308  -21.2458  -16.8471 C   0  0  0  0  0  0  0  0  0  0  0  0
   28.0413  -22.5970  -16.4152 C   0  0  0  0  0  0  0  0  0  0  0  0
   29.4356  -22.7449  -16.9704 C   0  0  0  0  0  0  0  0  0  0  0  0
   30.1180  -23.8535  -16.3291 N   0  0  0  0  0  0  0  0  0  0  0  0
   25.1084  -19.4941  -17.7953 C   0  0  0  0  0  0  0  0  0  0  0  0
   24.2572  -19.9481  -18.5971 O   0  0  0  0  0  0  0  0  0  0  0  0
   24.5623  -13.3384  -20.9049 N   0  0  0  0  0  0  0  0  0  0  0  0
   24.1214  -14.5549  -20.3121 C   0  0  0  0  0  0  0  0  0  0  0  0
   22.8810  -14.8278  -20.4564 O   0  0  0  0  0  0  0  0  0  0  0  0
   25.0070  -15.4687  -19.5795 C   0  0  0  0  0  0  0  0  0  0  0  0
   24.6497  -16.9057  -19.6194 C   0  0  0  0  0  0  0  0  0  0  0  0
   25.7764  -17.8471  -19.6147 C   0  0  2  0  0  0  0  0  0  0  0  0
   25.9362  -18.4377  -18.2615 N   0  0  0  0  0  0  0  0  0  0  0  0
   27.0435  -17.3898  -20.1456 C   0  0  0  0  0  0  0  0  0  0  0  0
   27.6455  -17.7606  -21.3373 O   0  0  0  0  0  0  0  0  0  0  0  0
   27.7294  -16.5471  -19.4591 O   0  0  0  0  0  0  0  0  0  0  0  0
  2  1  1  6
  2  4  1  0
  2  3  1  0
  4  5  1  1
  6  4  1  0
  7  6  2  0
  8  6  1  0
  9  8  1  0
  9 10  1  6
 10 11  1  0
 11 12  1  0
 12 13  1  0
 13 14  1  0
 15 23  1  0
 15  9  1  0
 16 15  2  0
 17 18  1  0
 18 19  2  0
 20 18  1  0
 20 21  1  0
 22 21  1  1
 22 23  1  0
 24 22  1  0
 24 25  1  0
 26 24  2  0
M  END
$$$$
