TKQ.pdb
     RDKit          3D

 26 25  0  0  1  0  0  0  0  0999 V2000
   28.3665  -18.8467  -17.5172 C   0  0  0  0  0  0  0  0  0  0  0  0
   27.2588  -19.4279  -16.6646 C   0  0  1  0  0  0  0  0  0  0  0  0
   26.1480  -19.6779  -17.4422 O   0  0  0  0  0  0  0  0  0  0  0  0
   27.7096  -20.6806  -15.9469 C   0  0  2  0  0  0  0  0  0  0  0  0
   27.9666  -21.7325  -16.9073 N   0  0  0  0  0  0  0  0  0  0  0  0
   26.6802  -21.1733  -15.0001 C   0  0  0  0  0  0  0  0  0  0  0  0
   25.8096  -22.0292  -15.3363 O   0  0  0  0  0  0  0  0  0  0  0  0
   26.6192  -20.7112  -13.6723 N   0  0  0  0  0  0  0  0  0  0  0  0
   25.5506  -21.1455  -12.7399 C   0  0  1  0  0  0  0  0  0  0  0  0
   26.0269  -20.8248  -11.3837 C   0  0  0  0  0  0  0  0  0  0  0  0
   25.1554  -21.1063  -10.2259 C   0  0  0  0  0  0  0  0  0  0  0  0
   25.9691  -20.6708   -8.9877 C   0  0  0  0  0  0  0  0  0  0  0  0
   25.2252  -21.0160   -7.7221 C   0  0  0  0  0  0  0  0  0  0  0  0
   25.9945  -20.6124   -6.5597 N   0  0  0  0  0  0  0  0  0  0  0  0
   24.3064  -20.5435  -13.1954 C   0  0  0  0  0  0  0  0  0  0  0  0
   24.2695  -19.3429  -13.5571 O   0  0  0  0  0  0  0  0  0  0  0  0
   20.1172  -22.8313  -17.1310 N   0  0  0  0  0  0  0  0  0  0  0  0
   19.4654  -21.7043  -16.5558 C   0  0  0  0  0  0  0  0  0  0  0  0
   18.3457  -21.3802  -17.0806 O   0  0  0  0  0  0  0  0  0  0  0  0
   20.0095  -20.9410  -15.4257 C   0  0  0  0  0  0  0  0  0  0  0  0
   21.3207  -21.3868  -14.9000 C   0  0  0  0  0  0  0  0  0  0  0  0
   21.8218  -20.6602  -13.7266 C   0  0  2  0  0  0  0  0  0  0  0  0
   23.0892  -21.2739  -13.2551 N   0  0  0  0  0  0  0  0  0  0  0  0
   20.9049  -20.4302  -12.6298 C   0  0  0  0  0  0  0  0  0  0  0  0
   19.9836  -19.4037  -12.4974 O   0  0  0  0  0  0  0  0  0  0  0  0
   20.9196  -21.2444  -11.6354 O   0  0  0  0  0  0  0  0  0  0  0  0
  2  1  1  6
  2  4  1  0
  2  3  1  0
  4  5  1  6
  6  4  1  0
  7  6  2  0
  8  6  1  0
  9  8  1  0
  9 10  1  1
 10 11  1  0
 11 12  1  0
 12 13  1  0
 13 14  1  0
 15 23  1  0
 15  9  1  0
 16 15  2  0
 17 18  1  0
 18 19  2  0
 20 18  1  0
 20 21  1  0
 22 21  1  6
 22 23  1  0
 24 22  1  0
 24 25  1  0
 26 24  2  0
M  END
$$$$
