TKQ.pdb
     RDKit          3D

 26 25  0  0  1  0  0  0  0  0999 V2000
   16.3749   -6.5567  -16.9820 C   0  0  0  0  0  0  0  0  0  0  0  0
   15.5673   -7.4135  -16.0305 C   0  0  1  0  0  0  0  0  0  0  0  0
   14.2407   -7.4121  -16.4062 O   0  0  0  0  0  0  0  0  0  0  0  0
   16.1077   -8.8243  -15.9589 C   0  0  2  0  0  0  0  0  0  0  0  0
   15.2784   -9.6251  -15.0837 N   0  0  0  0  0  0  0  0  0  0  0  0
   17.4915   -8.8574  -15.4271 C   0  0  0  0  0  0  0  0  0  0  0  0
   17.7435   -8.7148  -14.1943 O   0  0  0  0  0  0  0  0  0  0  0  0
   18.6007   -9.0501  -16.2713 N   0  0  0  0  0  0  0  0  0  0  0  0
   19.9899   -9.0510  -15.7519 C   0  0  1  0  0  0  0  0  0  0  0  0
   20.7267  -10.0556  -16.5373 C   0  0  0  0  0  0  0  0  0  0  0  0
   22.1819  -10.2040  -16.3382 C   0  0  0  0  0  0  0  0  0  0  0  0
   22.6375  -11.2231  -17.4054 C   0  0  0  0  0  0  0  0  0  0  0  0
   24.0796  -11.6054  -17.1849 C   0  0  0  0  0  0  0  0  0  0  0  0
   24.5681  -12.3931  -18.3015 N   0  0  0  0  0  0  0  0  0  0  0  0
   20.4622   -7.6746  -15.7741 C   0  0  0  0  0  0  0  0  0  0  0  0
   20.3125   -6.9615  -16.7953 O   0  0  0  0  0  0  0  0  0  0  0  0
   18.1796   -3.0134  -15.7775 N   0  0  0  0  0  0  0  0  0  0  0  0
   19.4484   -2.4990  -15.3883 C   0  0  0  0  0  0  0  0  0  0  0  0
   19.5608   -1.2257  -15.3996 O   0  0  0  0  0  0  0  0  0  0  0  0
   20.5786   -3.3452  -14.9854 C   0  0  0  0  0  0  0  0  0  0  0  0
   20.3581   -4.8090  -15.0402 C   0  0  0  0  0  0  0  0  0  0  0  0
   21.4989   -5.6447  -14.6455 C   0  0  2  0  0  0  0  0  0  0  0  0
   21.1049   -7.0765  -14.6571 N   0  0  0  0  0  0  0  0  0  0  0  0
   22.2026   -5.2992  -13.4281 C   0  0  0  0  0  0  0  0  0  0  0  0
   22.3574   -6.0749  -12.2903 O   0  0  0  0  0  0  0  0  0  0  0  0
   22.7563   -4.1422  -13.3454 O   0  0  0  0  0  0  0  0  0  0  0  0
  2  1  1  6
  2  4  1  0
  2  3  1  0
  4  5  1  1
  6  4  1  0
  7  6  2  0
  8  6  1  0
  9  8  1  0
  9 10  1  6
 10 11  1  0
 11 12  1  0
 12 13  1  0
 13 14  1  0
 15 23  1  0
 15  9  1  0
 16 15  2  0
 17 18  1  0
 18 19  2  0
 20 18  1  0
 20 21  1  0
 22 21  1  1
 22 23  1  0
 24 22  1  0
 24 25  1  0
 26 24  2  0
M  END
$$$$
