TKQ.pdb
     RDKit          3D

 26 25  0  0  1  0  0  0  0  0999 V2000
   28.5526  -11.5550  -15.5867 C   0  0  0  0  0  0  0  0  0  0  0  0
   27.2631  -10.8668  -15.9807 C   0  0  1  0  0  0  0  0  0  0  0  0
   27.5389   -9.7479  -16.7378 O   0  0  0  0  0  0  0  0  0  0  0  0
   26.3363  -11.8054  -16.7206 C   0  0  2  0  0  0  0  0  0  0  0  0
   26.9627  -12.2498  -17.9474 N   0  0  0  0  0  0  0  0  0  0  0  0
   25.0566  -11.1471  -17.0781 C   0  0  0  0  0  0  0  0  0  0  0  0
   24.8225  -10.7179  -18.2462 O   0  0  0  0  0  0  0  0  0  0  0  0
   24.0320  -10.9652  -16.1309 N   0  0  0  0  0  0  0  0  0  0  0  0
   22.7083  -10.4107  -16.5052 C   0  0  1  0  0  0  0  0  0  0  0  0
   21.7775  -11.5513  -16.5499 C   0  0  0  0  0  0  0  0  0  0  0  0
   21.2041  -11.9662  -17.8454 C   0  0  0  0  0  0  0  0  0  0  0  0
   20.2266  -13.1137  -17.5096 C   0  0  0  0  0  0  0  0  0  0  0  0
   19.6152  -13.6692  -18.7714 C   0  0  0  0  0  0  0  0  0  0  0  0
   18.7550  -14.7958  -18.4605 N   0  0  0  0  0  0  0  0  0  0  0  0
   22.4197   -9.3192  -15.5868 C   0  0  0  0  0  0  0  0  0  0  0  0
   22.7458   -9.3950  -14.3779 O   0  0  0  0  0  0  0  0  0  0  0  0
   21.3948   -3.1180  -17.0445 N   0  0  0  0  0  0  0  0  0  0  0  0
   21.0461   -3.2707  -15.6730 C   0  0  0  0  0  0  0  0  0  0  0  0
   20.7065   -2.2006  -15.0618 O   0  0  0  0  0  0  0  0  0  0  0  0
   21.0565   -4.5606  -14.9715 C   0  0  0  0  0  0  0  0  0  0  0  0
   21.4259   -5.7465  -15.7785 C   0  0  0  0  0  0  0  0  0  0  0  0
   21.4476   -7.0281  -15.0625 C   0  0  2  0  0  0  0  0  0  0  0  0
   21.7662   -8.1295  -16.0064 N   0  0  0  0  0  0  0  0  0  0  0  0
   20.3104   -7.3577  -14.2290 C   0  0  0  0  0  0  0  0  0  0  0  0
   20.1221   -7.0468  -12.8919 O   0  0  0  0  0  0  0  0  0  0  0  0
   19.3419   -8.0255  -14.7468 O   0  0  0  0  0  0  0  0  0  0  0  0
  2  1  1  6
  2  4  1  0
  2  3  1  0
  4  5  1  6
  6  4  1  0
  7  6  2  0
  8  6  1  0
  9  8  1  0
  9 10  1  1
 10 11  1  0
 11 12  1  0
 12 13  1  0
 13 14  1  0
 15 23  1  0
 15  9  1  0
 16 15  2  0
 17 18  1  0
 18 19  2  0
 20 18  1  0
 20 21  1  0
 22 21  1  6
 22 23  1  0
 24 22  1  0
 24 25  1  0
 26 24  2  0
M  END
$$$$
