TKQ.pdb
     RDKit          3D

 26 25  0  0  1  0  0  0  0  0999 V2000
   25.7689  -23.2695  -14.2629 C   0  0  0  0  0  0  0  0  0  0  0  0
   25.0994  -21.9285  -14.4756 C   0  0  1  0  0  0  0  0  0  0  0  0
   23.7328  -22.0921  -14.5560 O   0  0  0  0  0  0  0  0  0  0  0  0
   25.4633  -20.9469  -13.3840 C   0  0  2  0  0  0  0  0  0  0  0  0
   25.0490  -21.4653  -12.0978 N   0  0  0  0  0  0  0  0  0  0  0  0
   24.7992  -19.6355  -13.5792 C   0  0  0  0  0  0  0  0  0  0  0  0
   23.7965  -19.2790  -12.8928 O   0  0  0  0  0  0  0  0  0  0  0  0
   25.2529  -18.7161  -14.5430 N   0  0  0  0  0  0  0  0  0  0  0  0
   24.5516  -17.4335  -14.7936 C   0  0  1  0  0  0  0  0  0  0  0  0
   25.5773  -16.4821  -15.2541 C   0  0  0  0  0  0  0  0  0  0  0  0
   25.1912  -15.0872  -15.5447 C   0  0  0  0  0  0  0  0  0  0  0  0
   26.4884  -14.3952  -16.0172 C   0  0  0  0  0  0  0  0  0  0  0  0
   26.2332  -12.9355  -16.2973 C   0  0  0  0  0  0  0  0  0  0  0  0
   27.4848  -12.2436  -16.5432 N   0  0  0  0  0  0  0  0  0  0  0  0
   23.4282  -17.7179  -15.6739 C   0  0  0  0  0  0  0  0  0  0  0  0
   23.3037  -18.8447  -16.2112 O   0  0  0  0  0  0  0  0  0  0  0  0
   18.4720  -17.8144  -12.6952 N   0  0  0  0  0  0  0  0  0  0  0  0
   18.7925  -18.9003  -13.5578 C   0  0  0  0  0  0  0  0  0  0  0  0
   18.0033  -19.9046  -13.5063 O   0  0  0  0  0  0  0  0  0  0  0  0
   19.9440  -18.9009  -14.4687 C   0  0  0  0  0  0  0  0  0  0  0  0
   20.8055  -17.6962  -14.4425 C   0  0  0  0  0  0  0  0  0  0  0  0
   20.9862  -17.0088  -15.7272 C   0  0  2  0  0  0  0  0  0  0  0  0
   22.4293  -16.7501  -15.9637 N   0  0  0  0  0  0  0  0  0  0  0  0
   20.1881  -15.8278  -15.9817 C   0  0  0  0  0  0  0  0  0  0  0  0
   18.8986  -15.7698  -16.4857 O   0  0  0  0  0  0  0  0  0  0  0  0
   20.6999  -14.6750  -15.7346 O   0  0  0  0  0  0  0  0  0  0  0  0
  2  1  1  1
  2  4  1  0
  2  3  1  0
  4  5  1  1
  6  4  1  0
  7  6  2  0
  8  6  1  0
  9  8  1  0
  9 10  1  6
 10 11  1  0
 11 12  1  0
 12 13  1  0
 13 14  1  0
 15 23  1  0
 15  9  1  0
 16 15  2  0
 17 18  1  0
 18 19  2  0
 20 18  1  0
 20 21  1  0
 22 21  1  1
 22 23  1  0
 24 22  1  0
 24 25  1  0
 26 24  2  0
M  END
$$$$
