TKQ.pdb
     RDKit          3D

 26 25  0  0  1  0  0  0  0  0999 V2000
   13.4939   -8.1461  -18.4117 C   0  0  0  0  0  0  0  0  0  0  0  0
   14.8836   -8.5167  -17.9394 C   0  0  1  0  0  0  0  0  0  0  0  0
   15.3536   -7.5612  -17.0635 O   0  0  0  0  0  0  0  0  0  0  0  0
   14.9068   -9.8897  -17.3054 C   0  0  2  0  0  0  0  0  0  0  0  0
   14.0030   -9.9253  -16.1754 N   0  0  0  0  0  0  0  0  0  0  0  0
   16.2599  -10.2465  -16.8146 C   0  0  0  0  0  0  0  0  0  0  0  0
   16.6638   -9.9257  -15.6582 O   0  0  0  0  0  0  0  0  0  0  0  0
   17.1681  -10.9641  -17.6148 N   0  0  0  0  0  0  0  0  0  0  0  0
   18.5352  -11.2950  -17.1442 C   0  0  1  0  0  0  0  0  0  0  0  0
   18.9440  -12.5071  -17.8740 C   0  0  0  0  0  0  0  0  0  0  0  0
   20.3134  -13.0297  -17.6981 C   0  0  0  0  0  0  0  0  0  0  0  0
   20.1505  -14.3359  -16.8904 C   0  0  0  0  0  0  0  0  0  0  0  0
   21.5006  -14.9196  -16.5576 C   0  0  0  0  0  0  0  0  0  0  0  0
   21.3452  -16.1581  -15.8173 N   0  0  0  0  0  0  0  0  0  0  0  0
   19.3461  -10.0951  -17.2889 C   0  0  0  0  0  0  0  0  0  0  0  0
   19.1353   -9.2876  -18.2255 O   0  0  0  0  0  0  0  0  0  0  0  0
   21.4683   -6.4440  -12.6467 N   0  0  0  0  0  0  0  0  0  0  0  0
   22.1443   -5.9733  -13.8074 C   0  0  0  0  0  0  0  0  0  0  0  0
   22.8510   -4.9195  -13.6519 O   0  0  0  0  0  0  0  0  0  0  0  0
   22.0655   -6.6335  -15.1165 C   0  0  0  0  0  0  0  0  0  0  0  0
   21.2104   -7.8405  -15.1953 C   0  0  0  0  0  0  0  0  0  0  0  0
   21.1799   -8.5212  -16.4959 C   0  0  2  0  0  0  0  0  0  0  0  0
   20.3999   -9.7804  -16.3895 N   0  0  0  0  0  0  0  0  0  0  0  0
   22.4389   -8.7345  -17.1785 C   0  0  0  0  0  0  0  0  0  0  0  0
   23.0809   -7.8777  -18.0582 O   0  0  0  0  0  0  0  0  0  0  0  0
   23.0650   -9.8396  -16.9822 O   0  0  0  0  0  0  0  0  0  0  0  0
  2  1  1  1
  2  4  1  0
  2  3  1  0
  4  5  1  1
  6  4  1  0
  7  6  2  0
  8  6  1  0
  9  8  1  0
  9 10  1  6
 10 11  1  0
 11 12  1  0
 12 13  1  0
 13 14  1  0
 15 23  1  0
 15  9  1  0
 16 15  2  0
 17 18  1  0
 18 19  2  0
 20 18  1  0
 20 21  1  0
 22 21  1  1
 22 23  1  0
 24 22  1  0
 24 25  1  0
 26 24  2  0
M  END
$$$$
