TKQ.pdb
     RDKit          3D

 26 25  0  0  1  0  0  0  0  0999 V2000
   17.0689  -12.2321  -10.3144 C   0  0  0  0  0  0  0  0  0  0  0  0
   16.6943  -12.3977  -11.7718 C   0  0  1  0  0  0  0  0  0  0  0  0
   16.9508  -13.6895  -12.1800 O   0  0  0  0  0  0  0  0  0  0  0  0
   15.2482  -12.0296  -12.0187 C   0  0  2  0  0  0  0  0  0  0  0  0
   14.9017  -12.2944  -13.3988 N   0  0  0  0  0  0  0  0  0  0  0  0
   14.9933  -10.5928  -11.7553 C   0  0  0  0  0  0  0  0  0  0  0  0
   15.2501   -9.6948  -12.6104 O   0  0  0  0  0  0  0  0  0  0  0  0
   14.4498  -10.1528  -10.5342 N   0  0  0  0  0  0  0  0  0  0  0  0
   14.2455   -8.7134  -10.2408 C   0  0  1  0  0  0  0  0  0  0  0  0
   13.1015   -8.6359   -9.3164 C   0  0  0  0  0  0  0  0  0  0  0  0
   12.7147   -7.3274   -8.7528 C   0  0  0  0  0  0  0  0  0  0  0  0
   11.4773   -7.6120   -7.8738 C   0  0  0  0  0  0  0  0  0  0  0  0
   10.8561   -6.3196   -7.4068 C   0  0  0  0  0  0  0  0  0  0  0  0
    9.7366   -6.5891   -6.5237 N   0  0  0  0  0  0  0  0  0  0  0  0
   15.5245   -8.1740   -9.8036 C   0  0  0  0  0  0  0  0  0  0  0  0
   16.4169   -8.9288   -9.3480 O   0  0  0  0  0  0  0  0  0  0  0  0
   19.9594   -8.2843  -12.5131 N   0  0  0  0  0  0  0  0  0  0  0  0
   20.3448   -7.1286  -11.7773 C   0  0  0  0  0  0  0  0  0  0  0  0
   21.5442   -6.7259  -11.9600 O   0  0  0  0  0  0  0  0  0  0  0  0
   19.4475   -6.4122  -10.8621 C   0  0  0  0  0  0  0  0  0  0  0  0
   18.0920   -6.9835  -10.6869 C   0  0  0  0  0  0  0  0  0  0  0  0
   17.2120   -6.2716   -9.7518 C   0  0  2  0  0  0  0  0  0  0  0  0
   15.8243   -6.7869   -9.8715 N   0  0  0  0  0  0  0  0  0  0  0  0
   17.2418   -4.8240   -9.7620 C   0  0  0  0  0  0  0  0  0  0  0  0
   18.1421   -3.9911   -9.1172 O   0  0  0  0  0  0  0  0  0  0  0  0
   16.3395   -4.1954  -10.4273 O   0  0  0  0  0  0  0  0  0  0  0  0
  2  1  1  1
  2  4  1  0
  2  3  1  0
  4  5  1  6
  6  4  1  0
  7  6  2  0
  8  6  1  0
  9  8  1  0
  9 10  1  1
 10 11  1  0
 11 12  1  0
 12 13  1  0
 13 14  1  0
 15 23  1  0
 15  9  1  0
 16 15  2  0
 17 18  1  0
 18 19  2  0
 20 18  1  0
 20 21  1  0
 22 21  1  6
 22 23  1  0
 24 22  1  0
 24 25  1  0
 26 24  2  0
M  END
$$$$
