LPH.pdb
     RDKit          3D

 26 27  0  0  1  0  0  0  0  0999 V2000
   26.8794  -17.1126  -16.9881 C   0  0  0  0  0  0  0  0  0  0  0  0
   27.5918  -18.1341  -16.1743 C   0  0  1  0  0  0  0  0  0  0  0  0
   28.0947  -17.4093  -14.9157 C   0  0  0  0  0  0  0  0  0  0  0  0
   26.8276  -19.3365  -15.7749 C   0  0  0  0  0  0  0  0  0  0  0  0
   27.6997  -20.5367  -15.4818 C   0  0  2  0  0  0  0  0  0  0  0  0
   27.5932  -21.4642  -16.5470 N   0  0  0  0  0  0  0  0  0  0  0  0
   27.4334  -21.0717  -14.1283 C   0  0  0  0  0  0  0  0  0  0  0  0
   26.4982  -21.9645  -14.0796 O   0  0  0  0  0  0  0  0  0  0  0  0
   28.0530  -20.7377  -12.9268 N   0  0  0  0  0  0  0  0  0  0  0  0
   29.1495  -19.8658  -12.6522 C   0  0  0  0  0  0  0  0  0  0  0  0
   29.9943  -20.6910  -11.6942 C   0  0  0  0  0  0  0  0  0  0  0  0
   28.9908  -21.5147  -10.9651 C   0  0  0  0  0  0  0  0  0  0  0  0
   27.6546  -21.2606  -11.6182 C   0  0  1  0  0  0  0  0  0  0  0  0
   26.8181  -20.2965  -10.8805 C   0  0  0  0  0  0  0  0  0  0  0  0
   27.1312  -19.0748  -10.9282 O   0  0  0  0  0  0  0  0  0  0  0  0
   25.6898  -20.6388  -10.1226 N   0  0  0  0  0  0  0  0  0  0  0  0
   24.3093  -20.2966  -10.5113 C   0  0  1  0  0  0  0  0  0  0  0  0
   23.9631  -20.9850  -11.8080 C   0  0  0  0  0  0  0  0  0  0  0  0
   22.5796  -20.6555  -12.1945 C   0  0  0  0  0  0  0  0  0  0  0  0
   21.7674  -19.7384  -11.5054 C   0  0  0  0  0  0  0  0  0  0  0  0
   20.5767  -19.6788  -12.1215 N   0  0  0  0  0  0  0  0  0  0  0  0
   20.5906  -20.5079  -13.1628 C   0  0  0  0  0  0  0  0  0  0  0  0
   21.7921  -21.0811  -13.1905 N   0  0  0  0  0  0  0  0  0  0  0  0
   23.4271  -20.8911   -9.4536 C   0  0  0  0  0  0  0  0  0  0  0  0
   23.7181  -22.0637   -9.0262 O   0  0  0  0  0  0  0  0  0  0  0  0
   22.3357  -20.3120   -8.8896 O   0  0  0  0  0  0  0  0  0  0  0  0
  2  1  1  1
  3  2  1  0
  4  2  1  0
  5  6  1  6
  5  4  1  0
  7  8  2  0
  7  5  1  0
  9  7  1  0
 10  9  1  0
 11 10  1  0
 12 11  1  0
 12 13  1  0
 13 14  1  1
 13  9  1  0
 14 15  2  0
 16 17  1  0
 16 14  1  0
 18 19  1  0
 17 18  1  6
 19 23  1  0
 20 19  2  0
 20 21  1  0
 21 22  1  0
 23 22  2  0
 24 17  1  0
 25 24  2  0
 26 24  1  0
M  END
$$$$
