LPH.pdb
     RDKit          3D

 26 27  0  0  1  0  0  0  0  0999 V2000
   18.7731  -12.2924  -21.3686 C   0  0  0  0  0  0  0  0  0  0  0  0
   20.1186  -12.0765  -20.7718 C   0  0  1  0  0  0  0  0  0  0  0  0
   20.8348  -11.0620  -21.6774 C   0  0  0  0  0  0  0  0  0  0  0  0
   20.1712  -11.6052  -19.3702 C   0  0  0  0  0  0  0  0  0  0  0  0
   21.5741  -11.5285  -18.8109 C   0  0  2  0  0  0  0  0  0  0  0  0
   22.1309  -12.8300  -18.7634 N   0  0  0  0  0  0  0  0  0  0  0  0
   21.6021  -10.7655  -17.5436 C   0  0  0  0  0  0  0  0  0  0  0  0
   21.6458  -11.4982  -16.4781 O   0  0  0  0  0  0  0  0  0  0  0  0
   21.5868   -9.3849  -17.3624 N   0  0  0  0  0  0  0  0  0  0  0  0
   21.3736   -8.3232  -18.2926 C   0  0  0  0  0  0  0  0  0  0  0  0
   22.4812   -7.3446  -17.9346 C   0  0  0  0  0  0  0  0  0  0  0  0
   22.6683   -7.5496  -16.4717 C   0  0  0  0  0  0  0  0  0  0  0  0
   21.7991   -8.7178  -16.0761 C   0  0  1  0  0  0  0  0  0  0  0  0
   20.5235   -8.3133  -15.4576 C   0  0  0  0  0  0  0  0  0  0  0  0
   19.5519   -8.0410  -16.2157 O   0  0  0  0  0  0  0  0  0  0  0  0
   20.3071   -8.2076  -14.0768 N   0  0  0  0  0  0  0  0  0  0  0  0
   18.9837   -8.3525  -13.4433 C   0  0  1  0  0  0  0  0  0  0  0  0
   19.1456   -8.9281  -12.0585 C   0  0  0  0  0  0  0  0  0  0  0  0
   17.8557   -8.8881  -11.3470 C   0  0  0  0  0  0  0  0  0  0  0  0
   16.6409   -8.5049  -11.9412 C   0  0  0  0  0  0  0  0  0  0  0  0
   15.6722   -8.5818  -11.0157 N   0  0  0  0  0  0  0  0  0  0  0  0
   16.2071   -8.9928   -9.8681 C   0  0  0  0  0  0  0  0  0  0  0  0
   17.5089   -9.1702  -10.0846 N   0  0  0  0  0  0  0  0  0  0  0  0
   18.4550   -6.9585  -13.2764 C   0  0  0  0  0  0  0  0  0  0  0  0
   19.3070   -6.0138  -13.1217 O   0  0  0  0  0  0  0  0  0  0  0  0
   17.1501   -6.5822  -13.2719 O   0  0  0  0  0  0  0  0  0  0  0  0
  2  1  1  6
  3  2  1  0
  4  2  1  0
  5  6  1  1
  5  4  1  0
  7  8  2  0
  7  5  1  0
  9  7  1  0
 10  9  1  0
 11 10  1  0
 12 11  1  0
 12 13  1  0
 13 14  1  6
 13  9  1  0
 14 15  2  0
 16 17  1  0
 16 14  1  0
 18 19  1  0
 17 18  1  1
 19 23  1  0
 20 19  2  0
 20 21  1  0
 21 22  1  0
 23 22  2  0
 24 17  1  0
 25 24  2  0
 26 24  1  0
M  END
$$$$
