LPH.pdb
     RDKit          3D

 26 27  0  0  1  0  0  0  0  0999 V2000
   21.9565  -31.0542   -9.3302 C   0  0  0  0  0  0  0  0  0  0  0  0
   22.5667  -32.4108   -9.3113 C   0  0  1  0  0  0  0  0  0  0  0  0
   23.5861  -32.4417  -10.4613 C   0  0  0  0  0  0  0  0  0  0  0  0
   23.2277  -32.8399   -8.0590 C   0  0  0  0  0  0  0  0  0  0  0  0
   23.6952  -34.2778   -8.0845 C   0  0  2  0  0  0  0  0  0  0  0  0
   22.6554  -35.0993   -8.5847 N   0  0  0  0  0  0  0  0  0  0  0  0
   24.2644  -34.6769   -6.7784 C   0  0  0  0  0  0  0  0  0  0  0  0
   23.5033  -35.4533   -6.0771 O   0  0  0  0  0  0  0  0  0  0  0  0
   25.4927  -34.3254   -6.2243 N   0  0  0  0  0  0  0  0  0  0  0  0
   26.4533  -33.3488   -6.6260 C   0  0  0  0  0  0  0  0  0  0  0  0
   27.7636  -34.1133   -6.5209 C   0  0  0  0  0  0  0  0  0  0  0  0
   27.5194  -35.0727   -5.4087 C   0  0  0  0  0  0  0  0  0  0  0  0
   26.0657  -34.9425   -5.0262 C   0  0  1  0  0  0  0  0  0  0  0  0
   25.8491  -34.1086   -3.8300 C   0  0  0  0  0  0  0  0  0  0  0  0
   25.2653  -32.9988   -3.9731 O   0  0  0  0  0  0  0  0  0  0  0  0
   26.2472  -34.4596   -2.5327 N   0  0  0  0  0  0  0  0  0  0  0  0
   25.3355  -34.4757   -1.3741 C   0  0  1  0  0  0  0  0  0  0  0  0
   24.2400  -35.4863   -1.6059 C   0  0  0  0  0  0  0  0  0  0  0  0
   22.9257  -34.8234   -1.5346 C   0  0  0  0  0  0  0  0  0  0  0  0
   22.7503  -33.4441   -1.3291 C   0  0  0  0  0  0  0  0  0  0  0  0
   21.4346  -33.1800   -1.3183 N   0  0  0  0  0  0  0  0  0  0  0  0
   20.7675  -34.3166   -1.5057 C   0  0  0  0  0  0  0  0  0  0  0  0
   21.6724  -35.2850   -1.6325 N   0  0  0  0  0  0  0  0  0  0  0  0
   26.1513  -34.9752   -0.2184 C   0  0  0  0  0  0  0  0  0  0  0  0
   25.7635  -34.6629    0.9624 O   0  0  0  0  0  0  0  0  0  0  0  0
   27.2744  -35.7355   -0.2884 O   0  0  0  0  0  0  0  0  0  0  0  0
  2  1  1  1
  3  2  1  0
  4  2  1  0
  5  6  1  1
  5  4  1  0
  7  8  2  0
  7  5  1  0
  9  7  1  0
 10  9  1  0
 11 10  1  0
 12 11  1  0
 12 13  1  0
 13 14  1  1
 13  9  1  0
 14 15  2  0
 16 17  1  0
 16 14  1  0
 18 19  1  0
 17 18  1  6
 19 23  1  0
 20 19  2  0
 20 21  1  0
 21 22  1  0
 23 22  2  0
 24 17  1  0
 25 24  2  0
 26 24  1  0
M  END
$$$$
