LPH.pdb
     RDKit          3D

 26 27  0  0  1  0  0  0  0  0999 V2000
   14.3118  -14.3914  -16.4531 C   0  0  0  0  0  0  0  0  0  0  0  0
   15.7181  -13.9518  -16.6584 C   0  0  1  0  0  0  0  0  0  0  0  0
   15.7742  -13.3252  -18.0607 C   0  0  0  0  0  0  0  0  0  0  0  0
   16.2822  -13.0017  -15.6742 C   0  0  0  0  0  0  0  0  0  0  0  0
   17.7405  -12.6799  -15.9125 C   0  0  2  0  0  0  0  0  0  0  0  0
   18.5095  -13.8612  -15.7728 N   0  0  0  0  0  0  0  0  0  0  0  0
   18.1725  -11.5254  -15.0942 C   0  0  0  0  0  0  0  0  0  0  0  0
   18.7982  -11.8434  -14.0073 O   0  0  0  0  0  0  0  0  0  0  0  0
   17.9909  -10.1680  -15.3461 N   0  0  0  0  0  0  0  0  0  0  0  0
   17.3351   -9.4974  -16.4222 C   0  0  0  0  0  0  0  0  0  0  0  0
   18.3259   -8.4004  -16.7791 C   0  0  0  0  0  0  0  0  0  0  0  0
   18.9821   -8.0868  -15.4798 C   0  0  0  0  0  0  0  0  0  0  0  0
   18.4760   -9.0940  -14.4767 C   0  0  1  0  0  0  0  0  0  0  0  0
   17.4031   -8.5690  -13.6128 C   0  0  0  0  0  0  0  0  0  0  0  0
   16.2381   -8.4849  -14.0911 O   0  0  0  0  0  0  0  0  0  0  0  0
   17.5819   -8.1520  -12.2865 N   0  0  0  0  0  0  0  0  0  0  0  0
   16.4811   -7.6984  -11.4168 C   0  0  1  0  0  0  0  0  0  0  0  0
   16.8685   -7.8852   -9.9710 C   0  0  0  0  0  0  0  0  0  0  0  0
   15.7844   -7.4026   -9.0971 C   0  0  0  0  0  0  0  0  0  0  0  0
   14.4177   -7.5040   -9.4096 C   0  0  0  0  0  0  0  0  0  0  0  0
   13.7107   -6.9696   -8.4020 N   0  0  0  0  0  0  0  0  0  0  0  0
   14.5547   -6.5355   -7.4687 C   0  0  0  0  0  0  0  0  0  0  0  0
   15.7858   -6.8021   -7.9001 N   0  0  0  0  0  0  0  0  0  0  0  0
   16.3595   -6.2210  -11.6475 C   0  0  0  0  0  0  0  0  0  0  0  0
   15.2108   -5.6830  -11.4648 O   0  0  0  0  0  0  0  0  0  0  0  0
   17.3508   -5.3774  -12.0347 O   0  0  0  0  0  0  0  0  0  0  0  0
  2  1  1  1
  3  2  1  0
  4  2  1  0
  5  6  1  1
  5  4  1  0
  7  8  2  0
  7  5  1  0
  9  7  1  0
 10  9  1  0
 11 10  1  0
 12 11  1  0
 12 13  1  0
 13 14  1  6
 13  9  1  0
 14 15  2  0
 16 17  1  0
 16 14  1  0
 18 19  1  0
 17 18  1  1
 19 23  1  0
 20 19  2  0
 20 21  1  0
 21 22  1  0
 23 22  2  0
 24 17  1  0
 25 24  2  0
 26 24  1  0
M  END
$$$$
