LPH.pdb
     RDKit          3D

 26 27  0  0  1  0  0  0  0  0999 V2000
   30.9369  -30.8039  -19.8806 C   0  0  0  0  0  0  0  0  0  0  0  0
   29.6821  -30.0118  -19.9860 C   0  0  1  0  0  0  0  0  0  0  0  0
   29.0611  -30.3660  -21.3465 C   0  0  0  0  0  0  0  0  0  0  0  0
   28.6709  -30.1984  -18.9221 C   0  0  0  0  0  0  0  0  0  0  0  0
   29.1166  -29.6907  -17.5692 C   0  0  2  0  0  0  0  0  0  0  0  0
   29.3388  -30.7915  -16.7060 N   0  0  0  0  0  0  0  0  0  0  0  0
   28.1996  -28.6456  -17.0631 C   0  0  0  0  0  0  0  0  0  0  0  0
   27.4215  -29.0339  -16.1051 O   0  0  0  0  0  0  0  0  0  0  0  0
   28.0748  -27.3241  -17.4839 N   0  0  0  0  0  0  0  0  0  0  0  0
   28.7486  -26.6053  -18.5170 C   0  0  0  0  0  0  0  0  0  0  0  0
   29.1006  -25.2948  -17.8305 C   0  0  0  0  0  0  0  0  0  0  0  0
   27.9930  -25.1042  -16.8539 C   0  0  0  0  0  0  0  0  0  0  0  0
   27.1484  -26.3538  -16.8968 C   0  0  1  0  0  0  0  0  0  0  0  0
   25.9287  -26.2064  -17.7117 C   0  0  0  0  0  0  0  0  0  0  0  0
   26.0187  -26.3803  -18.9585 O   0  0  0  0  0  0  0  0  0  0  0  0
   24.6641  -25.8844  -17.2000 N   0  0  0  0  0  0  0  0  0  0  0  0
   23.4471  -25.7912  -18.0272 C   0  0  1  0  0  0  0  0  0  0  0  0
   22.3502  -26.6217  -17.4091 C   0  0  0  0  0  0  0  0  0  0  0  0
   21.1333  -26.5371  -18.2361 C   0  0  0  0  0  0  0  0  0  0  0  0
   20.0962  -25.6139  -18.0178 C   0  0  0  0  0  0  0  0  0  0  0  0
   19.1488  -25.8114  -18.9474 N   0  0  0  0  0  0  0  0  0  0  0  0
   19.5293  -26.8090  -19.7423 C   0  0  0  0  0  0  0  0  0  0  0  0
   20.7141  -27.2290  -19.3033 N   0  0  0  0  0  0  0  0  0  0  0  0
   23.0068  -24.3593  -17.9473 C   0  0  0  0  0  0  0  0  0  0  0  0
   22.1141  -23.9643  -18.7776 O   0  0  0  0  0  0  0  0  0  0  0  0
   23.4581  -23.4205  -17.0759 O   0  0  0  0  0  0  0  0  0  0  0  0
  2  1  1  1
  3  2  1  0
  4  2  1  0
  5  6  1  1
  5  4  1  0
  7  8  2  0
  7  5  1  0
  9  7  1  0
 10  9  1  0
 11 10  1  0
 12 11  1  0
 12 13  1  0
 13 14  1  6
 13  9  1  0
 14 15  2  0
 16 17  1  0
 16 14  1  0
 18 19  1  0
 17 18  1  1
 19 23  1  0
 20 19  2  0
 20 21  1  0
 21 22  1  0
 23 22  2  0
 24 17  1  0
 25 24  2  0
 26 24  1  0
M  END
$$$$
