LPH.pdb
     RDKit          3D

 26 27  0  0  1  0  0  0  0  0999 V2000
   20.5232  -14.6695  -20.9397 C   0  0  0  0  0  0  0  0  0  0  0  0
   20.7668  -15.0899  -19.5335 C   0  0  1  0  0  0  0  0  0  0  0  0
   22.0301  -15.9650  -19.5574 C   0  0  0  0  0  0  0  0  0  0  0  0
   20.9307  -14.0201  -18.5246 C   0  0  0  0  0  0  0  0  0  0  0  0
   20.9546  -14.5305  -17.1013 C   0  0  2  0  0  0  0  0  0  0  0  0
   19.8403  -15.3789  -16.8894 N   0  0  0  0  0  0  0  0  0  0  0  0
   21.1143  -13.4186  -16.1384 C   0  0  0  0  0  0  0  0  0  0  0  0
   20.0134  -13.0318  -15.5794 O   0  0  0  0  0  0  0  0  0  0  0  0
   22.2799  -12.7519  -15.7695 N   0  0  0  0  0  0  0  0  0  0  0  0
   23.6309  -12.9274  -16.1959 C   0  0  0  0  0  0  0  0  0  0  0  0
   24.3973  -12.8955  -14.8829 C   0  0  0  0  0  0  0  0  0  0  0  0
   23.5875  -11.9837  -14.0285 C   0  0  0  0  0  0  0  0  0  0  0  0
   22.3333  -11.6554  -14.8004 C   0  0  1  0  0  0  0  0  0  0  0  0
   22.3860  -10.3426  -15.4689 C   0  0  0  0  0  0  0  0  0  0  0  0
   22.9927  -10.2580  -16.5724 O   0  0  0  0  0  0  0  0  0  0  0  0
   21.8069   -9.1696  -14.9655 N   0  0  0  0  0  0  0  0  0  0  0  0
   21.7014   -7.9153  -15.7334 C   0  0  1  0  0  0  0  0  0  0  0  0
   20.6765   -8.0767  -16.8282 C   0  0  0  0  0  0  0  0  0  0  0  0
   19.3296   -8.1844  -16.2396 C   0  0  0  0  0  0  0  0  0  0  0  0
   18.7324   -9.3983  -15.8583 C   0  0  0  0  0  0  0  0  0  0  0  0
   17.5134   -9.1349  -15.3628 N   0  0  0  0  0  0  0  0  0  0  0  0
   17.3062   -7.8209  -15.4095 C   0  0  0  0  0  0  0  0  0  0  0  0
   18.3991   -7.2709  -15.9349 N   0  0  0  0  0  0  0  0  0  0  0  0
   21.1597   -6.8943  -14.7769 C   0  0  0  0  0  0  0  0  0  0  0  0
   21.0887   -5.6801  -15.1804 O   0  0  0  0  0  0  0  0  0  0  0  0
   20.7285   -7.1206  -13.5092 O   0  0  0  0  0  0  0  0  0  0  0  0
  2  1  1  6
  3  2  1  0
  4  2  1  0
  5  6  1  1
  5  4  1  0
  7  8  2  0
  7  5  1  0
  9  7  1  0
 10  9  1  0
 11 10  1  0
 12 11  1  0
 12 13  1  0
 13 14  1  6
 13  9  1  0
 14 15  2  0
 16 17  1  0
 16 14  1  0
 18 19  1  0
 17 18  1  6
 19 23  1  0
 20 19  2  0
 20 21  1  0
 21 22  1  0
 23 22  2  0
 24 17  1  0
 25 24  2  0
 26 24  1  0
M  END
$$$$
