LPH.pdb
     RDKit          3D

 26 27  0  0  1  0  0  0  0  0999 V2000
   26.5112  -14.0845  -15.2726 C   0  0  0  0  0  0  0  0  0  0  0  0
   26.8226  -15.2406  -16.1556 C   0  0  1  0  0  0  0  0  0  0  0  0
   28.3534  -15.2833  -16.2868 C   0  0  0  0  0  0  0  0  0  0  0  0
   26.3297  -16.5698  -15.7319 C   0  0  0  0  0  0  0  0  0  0  0  0
   26.4730  -17.6346  -16.7961 C   0  0  2  0  0  0  0  0  0  0  0  0
   26.0198  -17.1213  -18.0360 N   0  0  0  0  0  0  0  0  0  0  0  0
   25.8616  -18.9096  -16.3607 C   0  0  0  0  0  0  0  0  0  0  0  0
   24.7278  -19.1794  -16.9226 O   0  0  0  0  0  0  0  0  0  0  0  0
   26.3473  -19.8338  -15.4392 N   0  0  0  0  0  0  0  0  0  0  0  0
   27.4650  -19.7704  -14.5534 C   0  0  0  0  0  0  0  0  0  0  0  0
   28.1132  -21.1328  -14.7433 C   0  0  0  0  0  0  0  0  0  0  0  0
   26.9632  -22.0257  -15.0553 C   0  0  0  0  0  0  0  0  0  0  0  0
   25.7454  -21.1450  -15.1880 C   0  0  1  0  0  0  0  0  0  0  0  0
   24.9002  -21.1315  -13.9803 C   0  0  0  0  0  0  0  0  0  0  0  0
   25.3488  -20.5689  -12.9434 O   0  0  0  0  0  0  0  0  0  0  0  0
   23.6228  -21.7025  -13.8967 N   0  0  0  0  0  0  0  0  0  0  0  0
   22.7760  -21.6385  -12.6914 C   0  0  1  0  0  0  0  0  0  0  0  0
   22.9324  -20.2900  -12.0340 C   0  0  0  0  0  0  0  0  0  0  0  0
   23.9828  -20.3561  -11.0024 C   0  0  0  0  0  0  0  0  0  0  0  0
   23.9463  -21.2231   -9.8967 C   0  0  0  0  0  0  0  0  0  0  0  0
   25.0524  -21.0236   -9.1636 N   0  0  0  0  0  0  0  0  0  0  0  0
   25.7872  -20.0779   -9.7446 C   0  0  0  0  0  0  0  0  0  0  0  0
   25.1341  -19.6920  -10.8388 N   0  0  0  0  0  0  0  0  0  0  0  0
   21.3604  -21.7227  -13.1810 C   0  0  0  0  0  0  0  0  0  0  0  0
   21.1212  -21.3353  -14.3789 O   0  0  0  0  0  0  0  0  0  0  0  0
   20.2869  -22.1729  -12.4815 O   0  0  0  0  0  0  0  0  0  0  0  0
  2  1  1  1
  3  2  1  0
  4  2  1  0
  5  6  1  6
  5  4  1  0
  7  8  2  0
  7  5  1  0
  9  7  1  0
 10  9  1  0
 11 10  1  0
 12 11  1  0
 12 13  1  0
 13 14  1  1
 13  9  1  0
 14 15  2  0
 16 17  1  0
 16 14  1  0
 18 19  1  0
 17 18  1  6
 19 23  1  0
 20 19  2  0
 20 21  1  0
 21 22  1  0
 23 22  2  0
 24 17  1  0
 25 24  2  0
 26 24  1  0
M  END
$$$$
