LPH.pdb
     RDKit          3D

 26 27  0  0  1  0  0  0  0  0999 V2000
   30.4282  -19.2243   -3.0544 C   0  0  0  0  0  0  0  0  0  0  0  0
   29.4921  -18.9249   -4.1713 C   0  0  1  0  0  0  0  0  0  0  0  0
   28.1706  -18.4857   -3.5209 C   0  0  0  0  0  0  0  0  0  0  0  0
   29.9160  -17.9056   -5.1566 C   0  0  0  0  0  0  0  0  0  0  0  0
   28.9032  -17.6687   -6.2543 C   0  0  2  0  0  0  0  0  0  0  0  0
   27.9750  -16.6862   -5.8308 N   0  0  0  0  0  0  0  0  0  0  0  0
   28.3241  -18.9443   -6.7301 C   0  0  0  0  0  0  0  0  0  0  0  0
   27.1232  -18.8447   -7.2012 O   0  0  0  0  0  0  0  0  0  0  0  0
   28.9017  -20.2114   -6.7319 N   0  0  0  0  0  0  0  0  0  0  0  0
   30.1241  -20.6812   -6.1637 C   0  0  0  0  0  0  0  0  0  0  0  0
   30.7116  -21.5160   -7.2909 C   0  0  0  0  0  0  0  0  0  0  0  0
   29.5112  -22.0458   -7.9946 C   0  0  0  0  0  0  0  0  0  0  0  0
   28.3068  -21.3900   -7.3655 C   0  0  1  0  0  0  0  0  0  0  0  0
   27.6225  -22.2478   -6.3811 C   0  0  0  0  0  0  0  0  0  0  0  0
   28.0321  -22.2314   -5.1873 O   0  0  0  0  0  0  0  0  0  0  0  0
   26.5402  -23.0887   -6.6747 N   0  0  0  0  0  0  0  0  0  0  0  0
   25.1332  -22.6484   -6.6523 C   0  0  1  0  0  0  0  0  0  0  0  0
   24.9306  -21.5492   -7.6652 C   0  0  0  0  0  0  0  0  0  0  0  0
   23.5046  -21.1822   -7.7254 C   0  0  0  0  0  0  0  0  0  0  0  0
   22.5483  -21.5828   -6.7764 C   0  0  0  0  0  0  0  0  0  0  0  0
   21.3578  -21.0763   -7.1328 N   0  0  0  0  0  0  0  0  0  0  0  0
   21.5080  -20.3769   -8.2554 C   0  0  0  0  0  0  0  0  0  0  0  0
   22.7937  -20.4513   -8.5936 N   0  0  0  0  0  0  0  0  0  0  0  0
   24.3287  -23.8251   -7.1198 C   0  0  0  0  0  0  0  0  0  0  0  0
   23.8197  -24.5903   -6.2267 O   0  0  0  0  0  0  0  0  0  0  0  0
   24.0761  -24.1732   -8.4080 O   0  0  0  0  0  0  0  0  0  0  0  0
  2  1  1  1
  3  2  1  0
  4  2  1  0
  5  6  1  1
  5  4  1  0
  7  8  2  0
  7  5  1  0
  9  7  1  0
 10  9  1  0
 11 10  1  0
 12 11  1  0
 12 13  1  0
 13 14  1  1
 13  9  1  0
 14 15  2  0
 16 17  1  0
 16 14  1  0
 18 19  1  0
 17 18  1  6
 19 23  1  0
 20 19  2  0
 20 21  1  0
 21 22  1  0
 23 22  2  0
 24 17  1  0
 25 24  2  0
 26 24  1  0
M  END
$$$$
