LPH.pdb
     RDKit          3D

 26 27  0  0  1  0  0  0  0  0999 V2000
   27.2023  -15.4333  -14.7933 C   0  0  0  0  0  0  0  0  0  0  0  0
   25.9908  -15.5471  -15.6492 C   0  0  1  0  0  0  0  0  0  0  0  0
   25.0014  -16.4374  -14.8806 C   0  0  0  0  0  0  0  0  0  0  0  0
   25.3165  -14.2896  -16.0408 C   0  0  0  0  0  0  0  0  0  0  0  0
   24.2382  -14.4818  -17.0835 C   0  0  2  0  0  0  0  0  0  0  0  0
   24.7864  -15.1482  -18.2066 N   0  0  0  0  0  0  0  0  0  0  0  0
   23.5351  -13.2105  -17.3642 C   0  0  0  0  0  0  0  0  0  0  0  0
   24.0196  -12.5386  -18.3580 O   0  0  0  0  0  0  0  0  0  0  0  0
   22.4397  -12.6613  -16.7027 N   0  0  0  0  0  0  0  0  0  0  0  0
   21.7126  -13.1174  -15.5620 C   0  0  0  0  0  0  0  0  0  0  0  0
   20.2674  -12.9297  -15.9962 C   0  0  0  0  0  0  0  0  0  0  0  0
   20.3267  -11.7529  -16.9065 C   0  0  0  0  0  0  0  0  0  0  0  0
   21.7847  -11.4092  -17.0871 C   0  0  1  0  0  0  0  0  0  0  0  0
   22.2281  -10.2840  -16.2442 C   0  0  0  0  0  0  0  0  0  0  0  0
   22.5065  -10.5165  -15.0353 O   0  0  0  0  0  0  0  0  0  0  0  0
   22.3649   -8.9620  -16.6895 N   0  0  0  0  0  0  0  0  0  0  0  0
   22.9658   -7.8852  -15.8812 C   0  0  1  0  0  0  0  0  0  0  0  0
   23.6504   -6.8933  -16.7881 C   0  0  0  0  0  0  0  0  0  0  0  0
   24.8257   -7.5209  -17.4180 C   0  0  0  0  0  0  0  0  0  0  0  0
   24.7645   -8.6627  -18.2355 C   0  0  0  0  0  0  0  0  0  0  0  0
   26.0084   -8.9635  -18.6390 N   0  0  0  0  0  0  0  0  0  0  0  0
   26.8538   -8.0748  -18.1220 C   0  0  0  0  0  0  0  0  0  0  0  0
   26.1311   -7.2230  -17.3974 N   0  0  0  0  0  0  0  0  0  0  0  0
   21.8167   -7.1663  -15.2382 C   0  0  0  0  0  0  0  0  0  0  0  0
   20.6393   -7.4107  -15.6814 O   0  0  0  0  0  0  0  0  0  0  0  0
   21.8893   -6.2703  -14.2203 O   0  0  0  0  0  0  0  0  0  0  0  0
  2  1  1  1
  3  2  1  0
  4  2  1  0
  5  6  1  6
  5  4  1  0
  7  8  2  0
  7  5  1  0
  9  7  1  0
 10  9  1  0
 11 10  1  0
 12 11  1  0
 12 13  1  0
 13 14  1  1
 13  9  1  0
 14 15  2  0
 16 17  1  0
 16 14  1  0
 18 19  1  0
 17 18  1  6
 19 23  1  0
 20 19  2  0
 20 21  1  0
 21 22  1  0
 23 22  2  0
 24 17  1  0
 25 24  2  0
 26 24  1  0
M  END
$$$$
