LPH.pdb
     RDKit          3D

 26 27  0  0  1  0  0  0  0  0999 V2000
   19.0533  -18.8992  -14.6915 C   0  0  0  0  0  0  0  0  0  0  0  0
   20.2901  -19.1941  -13.9192 C   0  0  1  0  0  0  0  0  0  0  0  0
   20.7845  -17.8482  -13.3657 C   0  0  0  0  0  0  0  0  0  0  0  0
   20.1819  -20.1695  -12.8118 C   0  0  0  0  0  0  0  0  0  0  0  0
   21.5066  -20.7800  -12.4128 C   0  0  2  0  0  0  0  0  0  0  0  0
   22.1386  -21.3183  -13.5604 N   0  0  0  0  0  0  0  0  0  0  0  0
   21.3450  -21.7043  -11.2689 C   0  0  0  0  0  0  0  0  0  0  0  0
   21.1482  -22.9391  -11.6017 O   0  0  0  0  0  0  0  0  0  0  0  0
   21.3777  -21.4130   -9.9076 N   0  0  0  0  0  0  0  0  0  0  0  0
   21.4212  -20.1622   -9.2210 C   0  0  0  0  0  0  0  0  0  0  0  0
   22.4915  -20.4018   -8.1677 C   0  0  0  0  0  0  0  0  0  0  0  0
   22.3675  -21.8553   -7.8690 C   0  0  0  0  0  0  0  0  0  0  0  0
   21.3670  -22.4218   -8.8461 C   0  0  1  0  0  0  0  0  0  0  0  0
   20.0201  -22.5899   -8.2709 C   0  0  0  0  0  0  0  0  0  0  0  0
   19.2727  -21.5759   -8.1934 O   0  0  0  0  0  0  0  0  0  0  0  0
   19.5024  -23.8040   -7.7991 N   0  0  0  0  0  0  0  0  0  0  0  0
   18.1089  -23.9792   -7.3503 C   0  0  1  0  0  0  0  0  0  0  0  0
   17.5192  -25.2074   -7.9977 C   0  0  0  0  0  0  0  0  0  0  0  0
   17.2267  -24.9329   -9.4158 C   0  0  0  0  0  0  0  0  0  0  0  0
   17.1826  -23.6441   -9.9749 C   0  0  0  0  0  0  0  0  0  0  0  0
   16.8913  -23.7568  -11.2800 N   0  0  0  0  0  0  0  0  0  0  0  0
   16.7486  -25.0463  -11.5777 C   0  0  0  0  0  0  0  0  0  0  0  0
   16.9520  -25.7320  -10.4547 N   0  0  0  0  0  0  0  0  0  0  0  0
   18.1850  -24.2570   -5.8780 C   0  0  0  0  0  0  0  0  0  0  0  0
   19.3343  -24.5345   -5.3837 O   0  0  0  0  0  0  0  0  0  0  0  0
   17.1514  -24.2455   -4.9972 O   0  0  0  0  0  0  0  0  0  0  0  0
  2  1  1  1
  3  2  1  0
  4  2  1  0
  5  6  1  6
  5  4  1  0
  7  8  2  0
  7  5  1  0
  9  7  1  0
 10  9  1  0
 11 10  1  0
 12 11  1  0
 12 13  1  0
 13 14  1  1
 13  9  1  0
 14 15  2  0
 16 17  1  0
 16 14  1  0
 18 19  1  0
 17 18  1  6
 19 23  1  0
 20 19  2  0
 20 21  1  0
 21 22  1  0
 23 22  2  0
 24 17  1  0
 25 24  2  0
 26 24  1  0
M  END
$$$$
