LPH.pdb
     RDKit          3D

 26 27  0  0  1  0  0  0  0  0999 V2000
   22.3487  -20.8896  -19.2696 C   0  0  0  0  0  0  0  0  0  0  0  0
   23.0572  -20.5467  -18.0072 C   0  0  1  0  0  0  0  0  0  0  0  0
   24.5126  -21.0050  -18.1908 C   0  0  0  0  0  0  0  0  0  0  0  0
   23.0395  -19.1292  -17.5831 C   0  0  0  0  0  0  0  0  0  0  0  0
   23.4655  -18.9230  -16.1468 C   0  0  2  0  0  0  0  0  0  0  0  0
   22.7787  -19.8436  -15.3181 N   0  0  0  0  0  0  0  0  0  0  0  0
   23.3608  -17.4991  -15.7587 C   0  0  0  0  0  0  0  0  0  0  0  0
   22.2738  -17.1947  -15.1264 O   0  0  0  0  0  0  0  0  0  0  0  0
   24.2700  -16.4693  -15.9868 N   0  0  0  0  0  0  0  0  0  0  0  0
   25.4735  -16.4389  -16.7540 C   0  0  0  0  0  0  0  0  0  0  0  0
   26.4409  -15.7277  -15.8208 C   0  0  0  0  0  0  0  0  0  0  0  0
   25.5650  -14.8037  -15.0488 C   0  0  0  0  0  0  0  0  0  0  0  0
   24.1417  -15.1172  -15.4392 C   0  0  1  0  0  0  0  0  0  0  0  0
   23.5889  -14.1794  -16.4333 C   0  0  0  0  0  0  0  0  0  0  0  0
   23.8752  -14.3604  -17.6491 O   0  0  0  0  0  0  0  0  0  0  0  0
   22.7610  -13.0910  -16.1260 N   0  0  0  0  0  0  0  0  0  0  0  0
   21.9312  -12.3883  -17.1218 C   0  0  1  0  0  0  0  0  0  0  0  0
   20.8696  -11.5811  -16.4170 C   0  0  0  0  0  0  0  0  0  0  0  0
   20.0480  -10.8632  -17.4078 C   0  0  0  0  0  0  0  0  0  0  0  0
   20.2662  -10.9134  -18.7954 C   0  0  0  0  0  0  0  0  0  0  0  0
   19.3424  -10.1496  -19.3987 N   0  0  0  0  0  0  0  0  0  0  0  0
   18.5513   -9.6186  -18.4691 C   0  0  0  0  0  0  0  0  0  0  0  0
   18.9869  -10.0549  -17.2890 N   0  0  0  0  0  0  0  0  0  0  0  0
   22.8449  -11.4095  -17.7984 C   0  0  0  0  0  0  0  0  0  0  0  0
   22.3775  -10.7480  -18.7914 O   0  0  0  0  0  0  0  0  0  0  0  0
   24.1347  -11.1433  -17.4672 O   0  0  0  0  0  0  0  0  0  0  0  0
  2  1  1  6
  3  2  1  0
  4  2  1  0
  5  6  1  1
  5  4  1  0
  7  8  2  0
  7  5  1  0
  9  7  1  0
 10  9  1  0
 11 10  1  0
 12 11  1  0
 12 13  1  0
 13 14  1  6
 13  9  1  0
 14 15  2  0
 16 17  1  0
 16 14  1  0
 18 19  1  0
 17 18  1  1
 19 23  1  0
 20 19  2  0
 20 21  1  0
 21 22  1  0
 23 22  2  0
 24 17  1  0
 25 24  2  0
 26 24  1  0
M  END
$$$$
