LPH.pdb
     RDKit          3D

 26 27  0  0  1  0  0  0  0  0999 V2000
   24.7610  -20.8306   -8.5054 C   0  0  0  0  0  0  0  0  0  0  0  0
   25.5388  -19.8872   -9.3529 C   0  0  1  0  0  0  0  0  0  0  0  0
   26.9058  -19.7205   -8.6705 C   0  0  0  0  0  0  0  0  0  0  0  0
   25.7409  -20.2583  -10.7710 C   0  0  0  0  0  0  0  0  0  0  0  0
   26.4004  -19.1726  -11.5914 C   0  0  2  0  0  0  0  0  0  0  0  0
   25.9750  -17.9063  -11.1207 N   0  0  0  0  0  0  0  0  0  0  0  0
   26.2248  -19.4176  -13.0399 C   0  0  0  0  0  0  0  0  0  0  0  0
   25.4450  -18.5739  -13.6352 O   0  0  0  0  0  0  0  0  0  0  0  0
   26.7839  -20.4242  -13.8230 N   0  0  0  0  0  0  0  0  0  0  0  0
   27.5962  -21.5426  -13.4661 C   0  0  0  0  0  0  0  0  0  0  0  0
   28.6913  -21.5038  -14.5204 C   0  0  0  0  0  0  0  0  0  0  0  0
   28.0064  -20.9351  -15.7140 C   0  0  0  0  0  0  0  0  0  0  0  0
   26.6214  -20.5285  -15.2746 C   0  0  1  0  0  0  0  0  0  0  0  0
   25.5827  -21.5105  -15.6351 C   0  0  0  0  0  0  0  0  0  0  0  0
   25.5373  -22.5955  -14.9919 O   0  0  0  0  0  0  0  0  0  0  0  0
   24.6322  -21.3274  -16.6489 N   0  0  0  0  0  0  0  0  0  0  0  0
   23.1912  -21.1451  -16.3953 C   0  0  1  0  0  0  0  0  0  0  0  0
   22.9870  -19.9970  -15.4385 C   0  0  0  0  0  0  0  0  0  0  0  0
   21.9807  -20.3636  -14.4261 C   0  0  0  0  0  0  0  0  0  0  0  0
   22.1560  -21.3848  -13.4763 C   0  0  0  0  0  0  0  0  0  0  0  0
   21.0530  -21.4509  -12.7149 N   0  0  0  0  0  0  0  0  0  0  0  0
   20.1890  -20.5275  -13.1305 C   0  0  0  0  0  0  0  0  0  0  0  0
   20.7590  -19.8894  -14.1508 N   0  0  0  0  0  0  0  0  0  0  0  0
   22.5942  -20.7299  -17.7074 C   0  0  0  0  0  0  0  0  0  0  0  0
   23.1731  -19.7858  -18.3522 O   0  0  0  0  0  0  0  0  0  0  0  0
   21.4888  -21.2548  -18.2965 O   0  0  0  0  0  0  0  0  0  0  0  0
  2  1  1  1
  3  2  1  0
  4  2  1  0
  5  6  1  1
  5  4  1  0
  7  8  2  0
  7  5  1  0
  9  7  1  0
 10  9  1  0
 11 10  1  0
 12 11  1  0
 12 13  1  0
 13 14  1  1
 13  9  1  0
 14 15  2  0
 16 17  1  0
 16 14  1  0
 18 19  1  0
 17 18  1  1
 19 23  1  0
 20 19  2  0
 20 21  1  0
 21 22  1  0
 23 22  2  0
 24 17  1  0
 25 24  2  0
 26 24  1  0
M  END
$$$$
