LPH.pdb
     RDKit          3D

 26 27  0  0  1  0  0  0  0  0999 V2000
   22.7308  -23.0704  -12.4915 C   0  0  0  0  0  0  0  0  0  0  0  0
   23.9914  -22.3438  -12.1811 C   0  0  1  0  0  0  0  0  0  0  0  0
   24.2293  -21.3739  -13.3495 C   0  0  0  0  0  0  0  0  0  0  0  0
   24.0472  -21.5970  -10.9050 C   0  0  0  0  0  0  0  0  0  0  0  0
   25.3774  -20.9214  -10.6581 C   0  0  2  0  0  0  0  0  0  0  0  0
   25.3216  -20.2110   -9.4341 N   0  0  0  0  0  0  0  0  0  0  0  0
   25.8075  -20.1424  -11.8402 C   0  0  0  0  0  0  0  0  0  0  0  0
   25.0894  -19.0932  -12.0804 O   0  0  0  0  0  0  0  0  0  0  0  0
   26.8676  -20.3960  -12.7067 N   0  0  0  0  0  0  0  0  0  0  0  0
   27.7674  -21.5016  -12.7831 C   0  0  0  0  0  0  0  0  0  0  0  0
   29.1157  -20.8180  -12.9482 C   0  0  0  0  0  0  0  0  0  0  0  0
   28.7857  -19.5713  -13.6926 C   0  0  0  0  0  0  0  0  0  0  0  0
   27.2817  -19.5017  -13.7899 C   0  0  1  0  0  0  0  0  0  0  0  0
   26.7596  -19.9504  -15.0935 C   0  0  0  0  0  0  0  0  0  0  0  0
   26.7060  -21.1908  -15.3207 O   0  0  0  0  0  0  0  0  0  0  0  0
   26.3137  -19.0939  -16.1095 N   0  0  0  0  0  0  0  0  0  0  0  0
   24.9336  -19.0899  -16.6283 C   0  0  1  0  0  0  0  0  0  0  0  0
   23.9814  -18.6848  -15.5309 C   0  0  0  0  0  0  0  0  0  0  0  0
   22.6020  -18.6630  -16.0493 C   0  0  0  0  0  0  0  0  0  0  0  0
   22.2179  -19.2075  -17.2868 C   0  0  0  0  0  0  0  0  0  0  0  0
   20.8990  -19.0163  -17.4442 N   0  0  0  0  0  0  0  0  0  0  0  0
   20.4271  -18.3806  -16.3741 C   0  0  0  0  0  0  0  0  0  0  0  0
   21.4562  -18.1785  -15.5537 N   0  0  0  0  0  0  0  0  0  0  0  0
   24.8893  -18.0066  -17.6652 C   0  0  0  0  0  0  0  0  0  0  0  0
   25.6011  -16.9603  -17.4629 O   0  0  0  0  0  0  0  0  0  0  0  0
   24.1656  -18.0143  -18.8143 O   0  0  0  0  0  0  0  0  0  0  0  0
  2  1  1  6
  3  2  1  0
  4  2  1  0
  5  6  1  1
  5  4  1  0
  7  8  2  0
  7  5  1  0
  9  7  1  0
 10  9  1  0
 11 10  1  0
 12 11  1  0
 12 13  1  0
 13 14  1  6
 13  9  1  0
 14 15  2  0
 16 17  1  0
 16 14  1  0
 18 19  1  0
 17 18  1  1
 19 23  1  0
 20 19  2  0
 20 21  1  0
 21 22  1  0
 23 22  2  0
 24 17  1  0
 25 24  2  0
 26 24  1  0
M  END
$$$$
