GRY.pdb
     RDKit          3D

 28 28  0  0  1  0  0  0  0  0999 V2000
   17.9007  -26.6209   -3.1021 N   0  0  0  0  0  0  0  0  0  0  0  0
   17.2985  -25.8767   -4.1497 C   0  0  0  0  0  0  0  0  0  0  0  0
   18.1078  -25.8633   -5.4004 C   0  0  0  0  0  0  0  0  0  0  0  0
   19.3839  -26.0178   -5.3097 O   0  0  0  0  0  0  0  0  0  0  0  0
   20.7606  -28.4475  -10.8903 N   0  0  0  0  0  0  0  0  0  0  0  0
   20.5609  -29.4898   -9.8909 C   0  0  0  0  0  0  0  0  0  0  0  0
   21.5975  -30.0621   -9.5072 N   0  0  0  0  0  0  0  0  0  0  0  0
   19.2270  -29.7191   -9.4243 N   0  0  0  0  0  0  0  0  0  0  0  0
   18.2162  -28.7691   -9.9096 C   0  0  0  0  0  0  0  0  0  0  0  0
   17.6791  -28.0489   -8.7172 C   0  0  0  0  0  0  0  0  0  0  0  0
   17.4860  -26.6043   -8.7988 C   0  0  0  0  0  0  0  0  0  0  0  0
   18.2443  -25.6699   -7.9281 C   0  0  2  0  0  0  0  0  0  0  0  0
   17.4932  -25.6860   -6.6549 N   0  0  0  0  0  0  0  0  0  0  0  0
   18.1908  -24.2929   -8.5061 C   0  0  0  0  0  0  0  0  0  0  0  0
   17.1452  -23.5778   -8.3367 O   0  0  0  0  0  0  0  0  0  0  0  0
   21.7034  -30.9173   -8.8853 O   0  0  0  0  0  0  0  0  0  0  0  0
   20.7962  -16.7822  -12.5364 C   0  0  0  0  0  0  0  0  0  0  0  0
   20.7565  -18.0556  -11.9824 C   0  0  0  0  0  0  0  0  0  0  0  0
   21.0245  -18.2567  -10.6281 C   0  0  0  0  0  0  0  0  0  0  0  0
   20.9828  -19.5034  -10.0547 C   0  0  0  0  0  0  0  0  0  0  0  0
   20.6799  -20.6215  -10.7717 C   0  0  0  0  0  0  0  0  0  0  0  0
   20.6558  -21.9857  -10.2396 C   0  0  2  0  0  0  0  0  0  0  0  0
   19.2423  -22.3729   -9.7964 N   0  0  0  0  0  0  0  0  0  0  0  0
   19.2385  -23.7054   -9.2429 C   0  0  0  0  0  0  0  0  0  0  0  0
   18.3317  -22.2078  -10.9199 O   0  0  0  0  0  0  0  0  0  0  0  0
   18.1190  -23.0265  -11.8368 C   0  0  0  0  0  0  0  0  0  0  0  0
   20.4077  -20.4507  -12.1401 C   0  0  0  0  0  0  0  0  0  0  0  0
   20.4515  -19.1954  -12.7114 O   0  0  0  0  0  0  0  0  0  0  0  0
  1  2  1  0
  3  2  1  0
  3  4  2  0
  5  6  1  0
  6  7  2  0
  8  6  1  0
  8  9  1  0
 10  9  1  0
 11 10  1  0
 12 13  1  0
 12 11  1  6
 13  3  1  0
 14 12  1  0
 15 14  2  0
 17 16  1  0
 17 18  2  0
 19 18  1  0
 20 19  2  0
 21 20  1  0
 22 21  1  1
 22 23  1  0
 23 14  1  0
 24 22  1  0
 24 28  1  0
 25 24  2  0
 26 27  2  0
 26 20  1  0
 27 17  1  0
M  END
$$$$
