GRY.pdb
     RDKit          3D

 28 28  0  0  1  0  0  0  0  0999 V2000
   23.4341  -18.0769  -20.2071 N   0  0  0  0  0  0  0  0  0  0  0  0
   23.4681  -17.4236  -18.9477 C   0  0  0  0  0  0  0  0  0  0  0  0
   24.0417  -18.2688  -17.8633 C   0  0  0  0  0  0  0  0  0  0  0  0
   24.2646  -19.5146  -18.1064 O   0  0  0  0  0  0  0  0  0  0  0  0
   27.2040  -21.7142  -14.8312 N   0  0  0  0  0  0  0  0  0  0  0  0
   28.0923  -20.7830  -15.5159 C   0  0  0  0  0  0  0  0  0  0  0  0
   28.5658  -21.1950  -16.5908 N   0  0  0  0  0  0  0  0  0  0  0  0
   28.2946  -19.4961  -14.9223 N   0  0  0  0  0  0  0  0  0  0  0  0
   27.3553  -19.1408  -13.8494 C   0  0  0  0  0  0  0  0  0  0  0  0
   26.9276  -17.7302  -14.0865 C   0  0  0  0  0  0  0  0  0  0  0  0
   25.6081  -17.4847  -14.6603 C   0  0  0  0  0  0  0  0  0  0  0  0
   24.9226  -18.5052  -15.4941 C   0  0  2  0  0  0  0  0  0  0  0  0
   24.3346  -17.7200  -16.6001 N   0  0  0  0  0  0  0  0  0  0  0  0
   23.8203  -19.1360  -14.7067 C   0  0  0  0  0  0  0  0  0  0  0  0
   22.7753  -18.4553  -14.4270 O   0  0  0  0  0  0  0  0  0  0  0  0
   29.2909  -20.7443  -17.2235 O   0  0  0  0  0  0  0  0  0  0  0  0
   27.2049  -19.8719   -8.9650 C   0  0  0  0  0  0  0  0  0  0  0  0
   26.2834  -20.4400   -9.8356 C   0  0  0  0  0  0  0  0  0  0  0  0
   26.6867  -20.9650  -11.0636 C   0  0  0  0  0  0  0  0  0  0  0  0
   25.7974  -21.5399  -11.9373 C   0  0  0  0  0  0  0  0  0  0  0  0
   24.4664  -21.6316  -11.6616 C   0  0  0  0  0  0  0  0  0  0  0  0
   23.4544  -22.1929  -12.5590 C   0  0  1  0  0  0  0  0  0  0  0  0
   22.8320  -21.0987  -13.4308 N   0  0  0  0  0  0  0  0  0  0  0  0
   23.8458  -20.4647  -14.2384 C   0  0  0  0  0  0  0  0  0  0  0  0
   22.1039  -20.1706  -12.5780 O   0  0  0  0  0  0  0  0  0  0  0  0
   22.4284  -18.9986  -12.2999 C   0  0  0  0  0  0  0  0  0  0  0  0
   24.0295  -21.1085  -10.4323 C   0  0  0  0  0  0  0  0  0  0  0  0
   24.9276  -20.5313   -9.5580 O   0  0  0  0  0  0  0  0  0  0  0  0
  1  2  1  0
  3  2  1  0
  3  4  2  0
  5  6  1  0
  6  7  2  0
  8  6  1  0
  8  9  1  0
 10  9  1  0
 11 10  1  0
 12 13  1  0
 12 11  1  1
 13  3  1  0
 14 12  1  0
 15 14  2  0
 17 16  1  0
 17 18  2  0
 19 18  1  0
 20 19  2  0
 21 20  1  0
 22 21  1  6
 22 23  1  0
 23 14  1  0
 24 22  1  0
 24 28  1  0
 25 24  2  0
 26 27  2  0
 26 20  1  0
 27 17  1  0
M  END
$$$$
