GRY.pdb
     RDKit          3D

 28 28  0  0  1  0  0  0  0  0999 V2000
   26.3417  -21.7058  -14.9725 N   0  0  0  0  0  0  0  0  0  0  0  0
   25.1168  -21.7192  -15.6890 C   0  0  0  0  0  0  0  0  0  0  0  0
   24.0008  -21.0582  -14.9562 C   0  0  0  0  0  0  0  0  0  0  0  0
   24.2118  -20.6488  -13.7527 O   0  0  0  0  0  0  0  0  0  0  0  0
   23.7031  -16.7110  -17.2614 N   0  0  0  0  0  0  0  0  0  0  0  0
   22.4244  -16.0695  -17.5422 C   0  0  0  0  0  0  0  0  0  0  0  0
   22.3041  -15.6078  -18.6919 N   0  0  0  0  0  0  0  0  0  0  0  0
   21.4358  -16.0720  -16.5068 N   0  0  0  0  0  0  0  0  0  0  0  0
   21.3885  -17.2872  -15.6817 C   0  0  0  0  0  0  0  0  0  0  0  0
   21.0127  -18.4173  -16.5820 C   0  0  0  0  0  0  0  0  0  0  0  0
   20.7620  -19.7292  -15.9931 C   0  0  0  0  0  0  0  0  0  0  0  0
   21.5949  -20.2516  -14.8796 C   0  0  2  0  0  0  0  0  0  0  0  0
   22.7428  -20.8836  -15.5641 N   0  0  0  0  0  0  0  0  0  0  0  0
   20.8345  -21.3016  -14.1364 C   0  0  0  0  0  0  0  0  0  0  0  0
   20.6726  -22.4549  -14.6629 O   0  0  0  0  0  0  0  0  0  0  0  0
   21.4781  -15.1044  -19.1319 O   0  0  0  0  0  0  0  0  0  0  0  0
   17.5832  -26.6758   -8.1479 C   0  0  0  0  0  0  0  0  0  0  0  0
   18.2637  -25.6655   -8.8158 C   0  0  0  0  0  0  0  0  0  0  0  0
   18.4017  -24.3982   -8.2491 C   0  0  0  0  0  0  0  0  0  0  0  0
   19.0773  -23.3859   -8.8844 C   0  0  0  0  0  0  0  0  0  0  0  0
   19.6527  -23.5543  -10.1078 C   0  0  0  0  0  0  0  0  0  0  0  0
   20.3523  -22.5127  -10.8630 C   0  0  2  0  0  0  0  0  0  0  0  0
   19.5455  -22.0995  -12.0970 N   0  0  0  0  0  0  0  0  0  0  0  0
   20.2687  -21.1111  -12.8600 C   0  0  0  0  0  0  0  0  0  0  0  0
   18.2259  -21.6551  -11.6732 O   0  0  0  0  0  0  0  0  0  0  0  0
   17.9343  -20.5520  -11.1692 C   0  0  0  0  0  0  0  0  0  0  0  0
   19.5278  -24.8204  -10.7055 C   0  0  0  0  0  0  0  0  0  0  0  0
   18.8473  -25.8341  -10.0626 O   0  0  0  0  0  0  0  0  0  0  0  0
  1  2  1  0
  3  2  1  0
  3  4  2  0
  5  6  1  0
  6  7  2  0
  8  6  1  0
  8  9  1  0
 10  9  1  0
 11 10  1  0
 12 13  1  0
 12 11  1  6
 13  3  1  0
 14 12  1  0
 15 14  2  0
 17 16  1  0
 17 18  2  0
 19 18  1  0
 20 19  2  0
 21 20  1  0
 22 21  1  6
 22 23  1  0
 23 14  1  0
 24 22  1  0
 24 28  1  0
 25 24  2  0
 26 27  2  0
 26 20  1  0
 27 17  1  0
M  END
$$$$
