GRY.pdb
     RDKit          3D

 28 28  0  0  1  0  0  0  0  0999 V2000
   27.1445  -15.8807  -16.9778 N   0  0  0  0  0  0  0  0  0  0  0  0
   27.6805  -16.7329  -15.9776 C   0  0  0  0  0  0  0  0  0  0  0  0
   27.2489  -18.1514  -16.1220 C   0  0  0  0  0  0  0  0  0  0  0  0
   26.3348  -18.4318  -16.9860 O   0  0  0  0  0  0  0  0  0  0  0  0
   32.2075  -24.8026  -14.5997 N   0  0  0  0  0  0  0  0  0  0  0  0
   31.8842  -24.5795  -16.0036 C   0  0  0  0  0  0  0  0  0  0  0  0
   32.6696  -25.0991  -16.8175 N   0  0  0  0  0  0  0  0  0  0  0  0
   30.6966  -23.8390  -16.3046 N   0  0  0  0  0  0  0  0  0  0  0  0
   29.7941  -23.6040  -15.1688 C   0  0  0  0  0  0  0  0  0  0  0  0
   28.6571  -22.7779  -15.6724 C   0  0  0  0  0  0  0  0  0  0  0  0
   28.6409  -21.3496  -15.3714 C   0  0  0  0  0  0  0  0  0  0  0  0
   27.3753  -20.5720  -15.3672 C   0  0  2  0  0  0  0  0  0  0  0  0
   27.8262  -19.1645  -15.3327 N   0  0  0  0  0  0  0  0  0  0  0  0
   26.6108  -20.8678  -14.1179 C   0  0  0  0  0  0  0  0  0  0  0  0
   27.2081  -21.4088  -13.1259 O   0  0  0  0  0  0  0  0  0  0  0  0
   32.6073  -25.1452  -17.8774 O   0  0  0  0  0  0  0  0  0  0  0  0
   27.9361  -20.5741   -7.6504 C   0  0  0  0  0  0  0  0  0  0  0  0
   27.0067  -20.4445   -8.6747 C   0  0  0  0  0  0  0  0  0  0  0  0
   25.8433  -21.2143   -8.6887 C   0  0  0  0  0  0  0  0  0  0  0  0
   24.9053  -21.0986   -9.6844 C   0  0  0  0  0  0  0  0  0  0  0  0
   25.0524  -20.2276  -10.7215 C   0  0  0  0  0  0  0  0  0  0  0  0
   24.1169  -20.0778  -11.8383 C   0  0  2  0  0  0  0  0  0  0  0  0
   24.3856  -21.1286  -12.9189 N   0  0  0  0  0  0  0  0  0  0  0  0
   25.2414  -20.5841  -13.9451 C   0  0  0  0  0  0  0  0  0  0  0  0
   23.1137  -21.6233  -13.4251 O   0  0  0  0  0  0  0  0  0  0  0  0
   22.2105  -22.1764  -12.7660 C   0  0  0  0  0  0  0  0  0  0  0  0
   26.2166  -19.4400  -10.7362 C   0  0  0  0  0  0  0  0  0  0  0  0
   27.1564  -19.5607   -9.7331 O   0  0  0  0  0  0  0  0  0  0  0  0
  1  2  1  0
  3  2  1  0
  3  4  2  0
  5  6  1  0
  6  7  2  0
  8  6  1  0
  8  9  1  0
 10  9  1  0
 11 10  1  0
 12 13  1  0
 12 11  1  1
 13  3  1  0
 14 12  1  0
 15 14  2  0
 17 16  1  0
 17 18  2  0
 19 18  1  0
 20 19  2  0
 21 20  1  0
 22 21  1  1
 22 23  1  0
 23 14  1  0
 24 22  1  0
 24 28  1  0
 25 24  2  0
 26 27  2  0
 26 20  1  0
 27 17  1  0
M  END
$$$$
