GRY.pdb
     RDKit          3D

 28 28  0  0  1  0  0  0  0  0999 V2000
   28.2929  -19.0465  -15.4466 N   0  0  0  0  0  0  0  0  0  0  0  0
   27.9135  -20.1336  -14.6170 C   0  0  0  0  0  0  0  0  0  0  0  0
   27.0476  -19.7264  -13.4752 C   0  0  0  0  0  0  0  0  0  0  0  0
   27.1408  -18.5201  -13.0315 O   0  0  0  0  0  0  0  0  0  0  0  0
   19.8566  -19.8680  -12.0251 N   0  0  0  0  0  0  0  0  0  0  0  0
   20.0249  -19.9731  -13.4693 C   0  0  0  0  0  0  0  0  0  0  0  0
   19.3686  -19.1558  -14.1405 N   0  0  0  0  0  0  0  0  0  0  0  0
   20.9424  -20.9546  -13.9637 N   0  0  0  0  0  0  0  0  0  0  0  0
   21.8101  -21.5741  -12.9522 C   0  0  0  0  0  0  0  0  0  0  0  0
   23.0344  -20.7268  -12.8425 C   0  0  0  0  0  0  0  0  0  0  0  0
   24.0870  -21.1324  -11.9160 C   0  0  0  0  0  0  0  0  0  0  0  0
   25.3079  -20.3092  -11.7206 C   0  0  2  0  0  0  0  0  0  0  0  0
   26.1465  -20.6383  -12.8928 N   0  0  0  0  0  0  0  0  0  0  0  0
   26.0142  -20.7492  -10.4794 C   0  0  0  0  0  0  0  0  0  0  0  0
   26.5374  -21.9142  -10.4305 O   0  0  0  0  0  0  0  0  0  0  0  0
   19.3084  -19.0457  -15.1958 O   0  0  0  0  0  0  0  0  0  0  0  0
   30.0129  -20.6021   -2.6029 C   0  0  0  0  0  0  0  0  0  0  0  0
   29.4163  -20.2366   -3.8030 C   0  0  0  0  0  0  0  0  0  0  0  0
   28.1836  -19.5836   -3.8211 C   0  0  0  0  0  0  0  0  0  0  0  0
   27.5776  -19.2039   -4.9929 C   0  0  0  0  0  0  0  0  0  0  0  0
   28.1401  -19.4427   -6.2106 C   0  0  0  0  0  0  0  0  0  0  0  0
   27.5361  -19.1045   -7.5012 C   0  0  1  0  0  0  0  0  0  0  0  0
   26.8445  -20.3245   -8.1157 N   0  0  0  0  0  0  0  0  0  0  0  0
   26.1535  -19.9515   -9.3262 C   0  0  0  0  0  0  0  0  0  0  0  0
   25.9785  -20.9317   -7.1157 O   0  0  0  0  0  0  0  0  0  0  0  0
   26.3316  -21.6390   -6.1508 C   0  0  0  0  0  0  0  0  0  0  0  0
   29.3814  -20.1019   -6.2245 C   0  0  0  0  0  0  0  0  0  0  0  0
   29.9858  -20.4817   -5.0437 O   0  0  0  0  0  0  0  0  0  0  0  0
  1  2  1  0
  3  2  1  0
  3  4  2  0
  5  6  1  0
  6  7  2  0
  8  6  1  0
  8  9  1  0
 10  9  1  0
 11 10  1  0
 12 13  1  0
 12 11  1  6
 13  3  1  0
 14 12  1  0
 15 14  2  0
 17 16  1  0
 17 18  2  0
 19 18  1  0
 20 19  2  0
 21 20  1  0
 22 21  1  6
 22 23  1  0
 23 14  1  0
 24 22  1  0
 24 28  1  0
 25 24  2  0
 26 27  2  0
 26 20  1  0
 27 17  1  0
M  END
$$$$
