GRY.pdb
     RDKit          3D

 28 28  0  0  1  0  0  0  0  0999 V2000
   29.0203  -26.4282  -17.1245 N   0  0  0  0  0  0  0  0  0  0  0  0
   27.7992  -26.0732  -17.7544 C   0  0  0  0  0  0  0  0  0  0  0  0
   27.3136  -24.7178  -17.3718 C   0  0  0  0  0  0  0  0  0  0  0  0
   28.0086  -24.0289  -16.5332 O   0  0  0  0  0  0  0  0  0  0  0  0
   23.0478  -19.9494  -21.1816 N   0  0  0  0  0  0  0  0  0  0  0  0
   23.2122  -18.7847  -20.3203 C   0  0  0  0  0  0  0  0  0  0  0  0
   22.6868  -17.7370  -20.7393 N   0  0  0  0  0  0  0  0  0  0  0  0
   23.9076  -18.9645  -19.0819 N   0  0  0  0  0  0  0  0  0  0  0  0
   24.7884  -20.1391  -19.0170 C   0  0  0  0  0  0  0  0  0  0  0  0
   23.9153  -21.3352  -18.8273 C   0  0  0  0  0  0  0  0  0  0  0  0
   24.5439  -22.6376  -18.6283 C   0  0  0  0  0  0  0  0  0  0  0  0
   25.6420  -22.8269  -17.6460 C   0  0  2  0  0  0  0  0  0  0  0  0
   26.1218  -24.1994  -17.9137 N   0  0  0  0  0  0  0  0  0  0  0  0
   25.0882  -22.7678  -16.2594 C   0  0  0  0  0  0  0  0  0  0  0  0
   24.5006  -23.7922  -15.7705 O   0  0  0  0  0  0  0  0  0  0  0  0
   22.6635  -16.7717  -20.2955 O   0  0  0  0  0  0  0  0  0  0  0  0
   24.3087  -20.4811   -7.7459 C   0  0  0  0  0  0  0  0  0  0  0  0
   24.6161  -20.4947   -9.1006 C   0  0  0  0  0  0  0  0  0  0  0  0
   25.7903  -21.0894   -9.5633 C   0  0  0  0  0  0  0  0  0  0  0  0
   26.1124  -21.1242  -10.8973 C   0  0  0  0  0  0  0  0  0  0  0  0
   25.3079  -20.5787  -11.8520 C   0  0  0  0  0  0  0  0  0  0  0  0
   25.6038  -20.5415  -13.2858 C   0  0  2  0  0  0  0  0  0  0  0  0
   24.7581  -21.5686  -14.0436 N   0  0  0  0  0  0  0  0  0  0  0  0
   25.1703  -21.6355  -15.4247 C   0  0  0  0  0  0  0  0  0  0  0  0
   23.3501  -21.2414  -13.8726 O   0  0  0  0  0  0  0  0  0  0  0  0
   22.6916  -20.4069  -14.5253 C   0  0  0  0  0  0  0  0  0  0  0  0
   24.1186  -19.9696  -11.4158 C   0  0  0  0  0  0  0  0  0  0  0  0
   23.8000  -19.9370  -10.0736 O   0  0  0  0  0  0  0  0  0  0  0  0
  1  2  1  0
  3  2  1  0
  3  4  2  0
  5  6  1  0
  6  7  2  0
  8  6  1  0
  8  9  1  0
 10  9  1  0
 11 10  1  0
 12 13  1  0
 12 11  1  6
 13  3  1  0
 14 12  1  0
 15 14  2  0
 17 16  1  0
 17 18  2  0
 19 18  1  0
 20 19  2  0
 21 20  1  0
 22 21  1  1
 22 23  1  0
 23 14  1  0
 24 22  1  0
 24 28  1  0
 25 24  2  0
 26 27  2  0
 26 20  1  0
 27 17  1  0
M  END
$$$$
