GRY.pdb
     RDKit          3D

 28 28  0  0  1  0  0  0  0  0999 V2000
   26.3014  -29.1797  -16.8783 N   0  0  0  0  0  0  0  0  0  0  0  0
   26.4160  -27.9768  -17.6225 C   0  0  0  0  0  0  0  0  0  0  0  0
   26.6818  -26.7832  -16.7716 C   0  0  0  0  0  0  0  0  0  0  0  0
   26.6809  -26.9275  -15.4910 O   0  0  0  0  0  0  0  0  0  0  0  0
   32.0705  -24.4969  -14.7111 N   0  0  0  0  0  0  0  0  0  0  0  0
   31.9740  -24.6077  -16.1615 C   0  0  0  0  0  0  0  0  0  0  0  0
   32.8330  -25.3326  -16.6962 N   0  0  0  0  0  0  0  0  0  0  0  0
   30.8977  -23.9236  -16.8120 N   0  0  0  0  0  0  0  0  0  0  0  0
   30.0482  -23.1052  -15.9356 C   0  0  0  0  0  0  0  0  0  0  0  0
   28.9581  -22.5372  -16.7830 C   0  0  0  0  0  0  0  0  0  0  0  0
   27.9941  -23.4499  -17.3900 C   0  0  0  0  0  0  0  0  0  0  0  0
   27.0891  -24.2863  -16.5607 C   0  0  2  0  0  0  0  0  0  0  0  0
   26.9290  -25.5245  -17.3524 N   0  0  0  0  0  0  0  0  0  0  0  0
   25.7604  -23.6138  -16.4369 C   0  0  0  0  0  0  0  0  0  0  0  0
   25.0556  -23.4118  -17.4838 O   0  0  0  0  0  0  0  0  0  0  0  0
   32.9149  -25.6443  -17.7088 O   0  0  0  0  0  0  0  0  0  0  0  0
   18.5331  -19.9970  -12.6460 C   0  0  0  0  0  0  0  0  0  0  0  0
   19.8018  -20.5126  -12.8787 C   0  0  0  0  0  0  0  0  0  0  0  0
   20.0221  -21.8899  -12.9053 C   0  0  0  0  0  0  0  0  0  0  0  0
   21.2642  -22.4244  -13.1423 C   0  0  0  0  0  0  0  0  0  0  0  0
   22.3591  -21.6445  -13.3636 C   0  0  0  0  0  0  0  0  0  0  0  0
   23.7195  -22.1405  -13.5824 C   0  0  2  0  0  0  0  0  0  0  0  0
   23.9264  -22.5360  -15.0470 N   0  0  0  0  0  0  0  0  0  0  0  0
   25.2086  -23.1756  -15.2166 C   0  0  0  0  0  0  0  0  0  0  0  0
   23.7487  -21.3592  -15.8850 O   0  0  0  0  0  0  0  0  0  0  0  0
   24.5955  -20.4741  -16.1208 C   0  0  0  0  0  0  0  0  0  0  0  0
   22.1688  -20.2520  -13.3401 C   0  0  0  0  0  0  0  0  0  0  0  0
   20.9182  -19.7201  -13.1010 O   0  0  0  0  0  0  0  0  0  0  0  0
  1  2  1  0
  3  2  1  0
  3  4  2  0
  5  6  1  0
  6  7  2  0
  8  6  1  0
  8  9  1  0
 10  9  1  0
 11 10  1  0
 12 13  1  0
 12 11  1  6
 13  3  1  0
 14 12  1  0
 15 14  2  0
 17 16  1  0
 17 18  2  0
 19 18  1  0
 20 19  2  0
 21 20  1  0
 22 21  1  1
 22 23  1  0
 23 14  1  0
 24 22  1  0
 24 28  1  0
 25 24  2  0
 26 27  2  0
 26 20  1  0
 27 17  1  0
M  END
$$$$
