GRY.pdb
     RDKit          3D

 28 28  0  0  1  0  0  0  0  0999 V2000
   16.1577  -23.5520    2.9734 N   0  0  0  0  0  0  0  0  0  0  0  0
   15.7030  -22.3748    3.6225 C   0  0  0  0  0  0  0  0  0  0  0  0
   16.7408  -21.3088    3.6996 C   0  0  0  0  0  0  0  0  0  0  0  0
   17.9388  -21.5869    3.3147 O   0  0  0  0  0  0  0  0  0  0  0  0
   18.1884  -13.6682    5.3978 N   0  0  0  0  0  0  0  0  0  0  0  0
   17.7041  -13.2334    4.0934 C   0  0  0  0  0  0  0  0  0  0  0  0
   18.0646  -12.0935    3.7469 N   0  0  0  0  0  0  0  0  0  0  0  0
   16.9154  -14.1557    3.3339 N   0  0  0  0  0  0  0  0  0  0  0  0
   16.2142  -15.1820    4.1180 C   0  0  0  0  0  0  0  0  0  0  0  0
   17.1254  -16.3604    4.2172 C   0  0  0  0  0  0  0  0  0  0  0  0
   16.5576  -17.6988    4.0860 C   0  0  0  0  0  0  0  0  0  0  0  0
   17.3966  -18.9154    4.2349 C   0  0  2  0  0  0  0  0  0  0  0  0
   16.4213  -20.0252    4.1822 N   0  0  0  0  0  0  0  0  0  0  0  0
   18.0528  -18.9091    5.5775 C   0  0  0  0  0  0  0  0  0  0  0  0
   17.3445  -19.0846    6.6267 O   0  0  0  0  0  0  0  0  0  0  0  0
   17.8758  -11.5749    2.8388 O   0  0  0  0  0  0  0  0  0  0  0  0
   24.3606  -17.4569   11.7423 C   0  0  0  0  0  0  0  0  0  0  0  0
   23.6870  -17.7023   10.5524 C   0  0  0  0  0  0  0  0  0  0  0  0
   23.0361  -18.9169   10.3344 C   0  0  0  0  0  0  0  0  0  0  0  0
   22.3560  -19.1803    9.1713 C   0  0  0  0  0  0  0  0  0  0  0  0
   22.2759  -18.2742    8.1570 C   0  0  0  0  0  0  0  0  0  0  0  0
   21.6049  -18.4985    6.8748 C   0  0  2  0  0  0  0  0  0  0  0  0
   20.0836  -18.4977    7.0484 N   0  0  0  0  0  0  0  0  0  0  0  0
   19.4348  -18.7217    5.7792 C   0  0  0  0  0  0  0  0  0  0  0  0
   19.6814  -17.2577    7.6958 O   0  0  0  0  0  0  0  0  0  0  0  0
   19.5576  -16.1391    7.1579 C   0  0  0  0  0  0  0  0  0  0  0  0
   22.9245  -17.0417    8.3466 C   0  0  0  0  0  0  0  0  0  0  0  0
   23.6071  -16.7824    9.5174 O   0  0  0  0  0  0  0  0  0  0  0  0
  1  2  1  0
  3  2  1  0
  3  4  2  0
  5  6  1  0
  6  7  2  0
  8  6  1  0
  8  9  1  0
 10  9  1  0
 11 10  1  0
 12 13  1  0
 12 11  1  1
 13  3  1  0
 14 12  1  0
 15 14  2  0
 17 16  1  0
 17 18  2  0
 19 18  1  0
 20 19  2  0
 21 20  1  0
 22 21  1  1
 22 23  1  0
 23 14  1  0
 24 22  1  0
 24 28  1  0
 25 24  2  0
 26 27  2  0
 26 20  1  0
 27 17  1  0
M  END
$$$$
