GRY.pdb
     RDKit          3D

 28 28  0  0  1  0  0  0  0  0999 V2000
   18.5355  -22.3039   10.7757 N   0  0  0  0  0  0  0  0  0  0  0  0
   17.3247  -21.8318   10.2055 C   0  0  0  0  0  0  0  0  0  0  0  0
   17.5041  -21.2479    8.8468 C   0  0  0  0  0  0  0  0  0  0  0  0
   18.6992  -20.9859    8.4422 O   0  0  0  0  0  0  0  0  0  0  0  0
   16.3734  -19.1602    1.9976 N   0  0  0  0  0  0  0  0  0  0  0  0
   15.4661  -20.2354    1.6153 C   0  0  0  0  0  0  0  0  0  0  0  0
   15.8349  -20.9198    0.6433 N   0  0  0  0  0  0  0  0  0  0  0  0
   14.2869  -20.4247    2.4047 N   0  0  0  0  0  0  0  0  0  0  0  0
   14.3604  -19.9167    3.7817 C   0  0  0  0  0  0  0  0  0  0  0  0
   15.0620  -20.9520    4.5970 C   0  0  0  0  0  0  0  0  0  0  0  0
   15.1969  -20.7393    6.0348 C   0  0  0  0  0  0  0  0  0  0  0  0
   16.5130  -20.4381    6.6543 C   0  0  2  0  0  0  0  0  0  0  0  0
   16.3933  -20.9877    8.0216 N   0  0  0  0  0  0  0  0  0  0  0  0
   16.6981  -18.9578    6.7404 C   0  0  0  0  0  0  0  0  0  0  0  0
   15.9559  -18.2737    7.5244 O   0  0  0  0  0  0  0  0  0  0  0  0
   15.3937  -21.7935    0.2293 O   0  0  0  0  0  0  0  0  0  0  0  0
   20.1930  -10.8960    5.9348 C   0  0  0  0  0  0  0  0  0  0  0  0
   19.9242  -12.2473    5.7565 C   0  0  0  0  0  0  0  0  0  0  0  0
   19.3249  -12.7104    4.5849 C   0  0  0  0  0  0  0  0  0  0  0  0
   19.0574  -14.0413    4.3805 C   0  0  0  0  0  0  0  0  0  0  0  0
   19.3577  -14.9922    5.3089 C   0  0  0  0  0  0  0  0  0  0  0  0
   19.0662  -16.4214    5.1792 C   0  0  2  0  0  0  0  0  0  0  0  0
   17.8514  -16.8089    6.0267 N   0  0  0  0  0  0  0  0  0  0  0  0
   17.6597  -18.2389    6.0028 C   0  0  0  0  0  0  0  0  0  0  0  0
   16.6925  -16.0595    5.5640 O   0  0  0  0  0  0  0  0  0  0  0  0
   16.3266  -14.9323    5.9535 C   0  0  0  0  0  0  0  0  0  0  0  0
   19.9600  -14.5553    6.5014 C   0  0  0  0  0  0  0  0  0  0  0  0
   20.2263  -13.2162    6.7017 O   0  0  0  0  0  0  0  0  0  0  0  0
  1  2  1  0
  3  2  1  0
  3  4  2  0
  5  6  1  0
  6  7  2  0
  8  6  1  0
  8  9  1  0
 10  9  1  0
 11 10  1  0
 12 13  1  0
 12 11  1  6
 13  3  1  0
 14 12  1  0
 15 14  2  0
 17 16  1  0
 17 18  2  0
 19 18  1  0
 20 19  2  0
 21 20  1  0
 22 21  1  1
 22 23  1  0
 23 14  1  0
 24 22  1  0
 24 28  1  0
 25 24  2  0
 26 27  2  0
 26 20  1  0
 27 17  1  0
M  END
$$$$
