GRY.pdb
     RDKit          3D

 28 28  0  0  1  0  0  0  0  0999 V2000
   26.3721  -14.7960  -16.2471 N   0  0  0  0  0  0  0  0  0  0  0  0
   26.9993  -16.0552  -16.4338 C   0  0  0  0  0  0  0  0  0  0  0  0
   26.0457  -17.1987  -16.3868 C   0  0  0  0  0  0  0  0  0  0  0  0
   24.8203  -16.9656  -16.0629 O   0  0  0  0  0  0  0  0  0  0  0  0
   25.3363  -24.1562  -14.9657 N   0  0  0  0  0  0  0  0  0  0  0  0
   26.0217  -24.3447  -16.2384 C   0  0  0  0  0  0  0  0  0  0  0  0
   27.1379  -24.8905  -16.1638 N   0  0  0  0  0  0  0  0  0  0  0  0
   25.3412  -23.9342  -17.4292 N   0  0  0  0  0  0  0  0  0  0  0  0
   26.0685  -22.9764  -18.2738 C   0  0  0  0  0  0  0  0  0  0  0  0
   25.3050  -21.6938  -18.2445 C   0  0  0  0  0  0  0  0  0  0  0  0
   26.0013  -20.4721  -17.8527 C   0  0  0  0  0  0  0  0  0  0  0  0
   25.5673  -19.6750  -16.6768 C   0  0  2  0  0  0  0  0  0  0  0  0
   26.4722  -18.5060  -16.6896 N   0  0  0  0  0  0  0  0  0  0  0  0
   25.8040  -20.4587  -15.4266 C   0  0  0  0  0  0  0  0  0  0  0  0
   26.9917  -20.5719  -14.9683 O   0  0  0  0  0  0  0  0  0  0  0  0
   27.8768  -25.0172  -16.9169 O   0  0  0  0  0  0  0  0  0  0  0  0
   25.8326  -19.7846   -7.0952 C   0  0  0  0  0  0  0  0  0  0  0  0
   25.9013  -20.0620   -8.4547 C   0  0  0  0  0  0  0  0  0  0  0  0
   25.8196  -21.3733   -8.9237 C   0  0  0  0  0  0  0  0  0  0  0  0
   25.8756  -21.6729  -10.2623 C   0  0  0  0  0  0  0  0  0  0  0  0
   26.0166  -20.7098  -11.2156 C   0  0  0  0  0  0  0  0  0  0  0  0
   26.1245  -20.9555  -12.6553 C   0  0  1  0  0  0  0  0  0  0  0  0
   24.7524  -21.2671  -13.2592 N   0  0  0  0  0  0  0  0  0  0  0  0
   24.7859  -21.0982  -14.6918 C   0  0  0  0  0  0  0  0  0  0  0  0
   23.7474  -20.4457  -12.6005 O   0  0  0  0  0  0  0  0  0  0  0  0
   23.4194  -19.2804  -12.9014 C   0  0  0  0  0  0  0  0  0  0  0  0
   26.1044  -19.3786  -10.7730 C   0  0  0  0  0  0  0  0  0  0  0  0
   26.0481  -19.0832   -9.4263 O   0  0  0  0  0  0  0  0  0  0  0  0
  1  2  1  0
  3  2  1  0
  3  4  2  0
  5  6  1  0
  6  7  2  0
  8  6  1  0
  8  9  1  0
 10  9  1  0
 11 10  1  0
 12 13  1  0
 12 11  1  6
 13  3  1  0
 14 12  1  0
 15 14  2  0
 17 16  1  0
 17 18  2  0
 19 18  1  0
 20 19  2  0
 21 20  1  0
 22 21  1  6
 22 23  1  0
 23 14  1  0
 24 22  1  0
 24 28  1  0
 25 24  2  0
 26 27  2  0
 26 20  1  0
 27 17  1  0
M  END
$$$$
