GRY.pdb
     RDKit          3D

 28 28  0  0  1  0  0  0  0  0999 V2000
   26.9565  -25.3744  -17.2088 N   0  0  0  0  0  0  0  0  0  0  0  0
   27.1220  -23.9997  -16.8978 C   0  0  0  0  0  0  0  0  0  0  0  0
   26.1456  -23.5048  -15.8873 C   0  0  0  0  0  0  0  0  0  0  0  0
   25.1419  -24.2535  -15.5828 O   0  0  0  0  0  0  0  0  0  0  0  0
   26.3937  -20.8683   -9.2582 N   0  0  0  0  0  0  0  0  0  0  0  0
   24.9616  -20.6064   -9.1837 C   0  0  0  0  0  0  0  0  0  0  0  0
   24.4438  -20.8033   -8.0690 N   0  0  0  0  0  0  0  0  0  0  0  0
   24.3115  -20.1160  -10.3612 N   0  0  0  0  0  0  0  0  0  0  0  0
   24.5923  -20.8632  -11.5951 C   0  0  0  0  0  0  0  0  0  0  0  0
   25.6918  -20.1450  -12.3053 C   0  0  0  0  0  0  0  0  0  0  0  0
   26.0946  -20.6124  -13.6282 C   0  0  0  0  0  0  0  0  0  0  0  0
   25.3258  -21.6598  -14.3481 C   0  0  2  0  0  0  0  0  0  0  0  0
   26.3145  -22.2470  -15.2773 N   0  0  0  0  0  0  0  0  0  0  0  0
   24.2328  -21.0211  -15.1420 C   0  0  0  0  0  0  0  0  0  0  0  0
   24.5117  -20.4393  -16.2454 O   0  0  0  0  0  0  0  0  0  0  0  0
   23.4471  -20.6218   -7.7484 O   0  0  0  0  0  0  0  0  0  0  0  0
   17.4136  -18.5596  -19.7350 C   0  0  0  0  0  0  0  0  0  0  0  0
   18.4368  -19.1807  -19.0300 C   0  0  0  0  0  0  0  0  0  0  0  0
   18.1616  -20.1918  -18.1089 C   0  0  0  0  0  0  0  0  0  0  0  0
   19.1552  -20.8273  -17.4065 C   0  0  0  0  0  0  0  0  0  0  0  0
   20.4708  -20.5095  -17.5627 C   0  0  0  0  0  0  0  0  0  0  0  0
   21.5797  -21.1136  -16.8211 C   0  0  1  0  0  0  0  0  0  0  0  0
   21.7921  -20.4016  -15.4824 N   0  0  0  0  0  0  0  0  0  0  0  0
   22.8777  -21.0144  -14.7559 C   0  0  0  0  0  0  0  0  0  0  0  0
   20.5354  -20.3891  -14.7480 O   0  0  0  0  0  0  0  0  0  0  0  0
   19.6245  -19.5416  -14.8388 C   0  0  0  0  0  0  0  0  0  0  0  0
   20.7790  -19.4921  -18.4823 C   0  0  0  0  0  0  0  0  0  0  0  0
   19.7763  -18.8563  -19.1853 O   0  0  0  0  0  0  0  0  0  0  0  0
  1  2  1  0
  3  2  1  0
  3  4  2  0
  5  6  1  0
  6  7  2  0
  8  6  1  0
  8  9  1  0
 10  9  1  0
 11 10  1  0
 12 13  1  0
 12 11  1  6
 13  3  1  0
 14 12  1  0
 15 14  2  0
 17 16  1  0
 17 18  2  0
 19 18  1  0
 20 19  2  0
 21 20  1  0
 22 21  1  6
 22 23  1  0
 23 14  1  0
 24 22  1  0
 24 28  1  0
 25 24  2  0
 26 27  2  0
 26 20  1  0
 27 17  1  0
M  END
$$$$
