GRY.pdb
     RDKit          3D

 28 28  0  0  1  0  0  0  0  0999 V2000
   24.7465  -10.4235  -26.8897 N   0  0  0  0  0  0  0  0  0  0  0  0
   24.9791  -10.5567  -25.4961 C   0  0  0  0  0  0  0  0  0  0  0  0
   25.0446  -11.9750  -25.0448 C   0  0  0  0  0  0  0  0  0  0  0  0
   24.1834  -12.8108  -25.5143 O   0  0  0  0  0  0  0  0  0  0  0  0
   30.6784  -16.7750  -23.1958 N   0  0  0  0  0  0  0  0  0  0  0  0
   31.3607  -15.7733  -24.0059 C   0  0  0  0  0  0  0  0  0  0  0  0
   32.1470  -16.2263  -24.8578 N   0  0  0  0  0  0  0  0  0  0  0  0
   31.0344  -14.3979  -23.7793 N   0  0  0  0  0  0  0  0  0  0  0  0
   29.9436  -14.1566  -22.8246 C   0  0  0  0  0  0  0  0  0  0  0  0
   28.6691  -14.1550  -23.6021 C   0  0  0  0  0  0  0  0  0  0  0  0
   27.4286  -13.8099  -22.9143 C   0  0  0  0  0  0  0  0  0  0  0  0
   26.1268  -13.7833  -23.6292 C   0  0  2  0  0  0  0  0  0  0  0  0
   26.0255  -12.3945  -24.1258 N   0  0  0  0  0  0  0  0  0  0  0  0
   25.0183  -14.0342  -22.6590 C   0  0  0  0  0  0  0  0  0  0  0  0
   24.3756  -13.0457  -22.1659 O   0  0  0  0  0  0  0  0  0  0  0  0
   32.7263  -15.7076  -25.5822 O   0  0  0  0  0  0  0  0  0  0  0  0
   19.0006  -12.0440  -18.4514 C   0  0  0  0  0  0  0  0  0  0  0  0
   19.7748  -12.7975  -19.3248 C   0  0  0  0  0  0  0  0  0  0  0  0
   21.0581  -12.3846  -19.6836 C   0  0  0  0  0  0  0  0  0  0  0  0
   21.8464  -13.1157  -20.5373 C   0  0  0  0  0  0  0  0  0  0  0  0
   21.4247  -14.2878  -21.0890 C   0  0  0  0  0  0  0  0  0  0  0  0
   22.1912  -15.0996  -22.0366 C   0  0  2  0  0  0  0  0  0  0  0  0
   23.4821  -15.6142  -21.3938 N   0  0  0  0  0  0  0  0  0  0  0  0
   24.6146  -15.3166  -22.2370 C   0  0  0  0  0  0  0  0  0  0  0  0
   23.3327  -17.0321  -21.1005 O   0  0  0  0  0  0  0  0  0  0  0  0
   24.0504  -17.9622  -21.5198 C   0  0  0  0  0  0  0  0  0  0  0  0
   20.1341  -14.7283  -20.7481 C   0  0  0  0  0  0  0  0  0  0  0  0
   19.3459  -13.9893  -19.8899 O   0  0  0  0  0  0  0  0  0  0  0  0
  1  2  1  0
  3  2  1  0
  3  4  2  0
  5  6  1  0
  6  7  2  0
  8  6  1  0
  8  9  1  0
 10  9  1  0
 11 10  1  0
 12 13  1  0
 12 11  1  1
 13  3  1  0
 14 12  1  0
 15 14  2  0
 17 16  1  0
 17 18  2  0
 19 18  1  0
 20 19  2  0
 21 20  1  0
 22 21  1  1
 22 23  1  0
 23 14  1  0
 24 22  1  0
 24 28  1  0
 25 24  2  0
 26 27  2  0
 26 20  1  0
 27 17  1  0
M  END
$$$$
