GRY.pdb
     RDKit          3D

 28 28  0  0  1  0  0  0  0  0999 V2000
   13.6251  -23.1835   -6.8291 N   0  0  0  0  0  0  0  0  0  0  0  0
   14.7963  -23.3554   -6.0463 C   0  0  0  0  0  0  0  0  0  0  0  0
   14.5250  -23.9462   -4.7059 C   0  0  0  0  0  0  0  0  0  0  0  0
   13.3157  -24.2839   -4.4153 O   0  0  0  0  0  0  0  0  0  0  0  0
   19.9660  -27.7820   -3.3894 N   0  0  0  0  0  0  0  0  0  0  0  0
   19.0527  -28.8771   -3.0859 C   0  0  0  0  0  0  0  0  0  0  0  0
   19.5976  -29.9421   -2.7422 N   0  0  0  0  0  0  0  0  0  0  0  0
   17.6476  -28.6151   -3.1671 N   0  0  0  0  0  0  0  0  0  0  0  0
   17.2798  -27.2141   -3.4156 C   0  0  0  0  0  0  0  0  0  0  0  0
   17.1810  -26.5415   -2.0865 C   0  0  0  0  0  0  0  0  0  0  0  0
   16.7358  -25.1522   -2.0351 C   0  0  0  0  0  0  0  0  0  0  0  0
   15.3652  -24.7609   -2.4531 C   0  0  2  0  0  0  0  0  0  0  0  0
   15.5658  -24.1324   -3.7761 N   0  0  0  0  0  0  0  0  0  0  0  0
   14.8265  -23.7381   -1.5062 C   0  0  0  0  0  0  0  0  0  0  0  0
   15.3927  -22.5954   -1.4228 O   0  0  0  0  0  0  0  0  0  0  0  0
   19.1537  -30.8480   -2.4084 O   0  0  0  0  0  0  0  0  0  0  0  0
   11.0793  -19.3346   -4.4264 C   0  0  0  0  0  0  0  0  0  0  0  0
   11.2315  -20.1741   -3.3301 C   0  0  0  0  0  0  0  0  0  0  0  0
   11.4086  -19.6537   -2.0479 C   0  0  0  0  0  0  0  0  0  0  0  0
   11.5520  -20.4618   -0.9474 C   0  0  0  0  0  0  0  0  0  0  0  0
   11.5328  -21.8210   -1.0383 C   0  0  0  0  0  0  0  0  0  0  0  0
   11.7195  -22.7454    0.0821 C   0  0  2  0  0  0  0  0  0  0  0  0
   13.2066  -23.0240    0.3168 N   0  0  0  0  0  0  0  0  0  0  0  0
   13.7065  -23.9439   -0.6762 C   0  0  0  0  0  0  0  0  0  0  0  0
   13.3917  -23.4878    1.6840 O   0  0  0  0  0  0  0  0  0  0  0  0
   13.0577  -22.8918    2.7276 C   0  0  0  0  0  0  0  0  0  0  0  0
   11.3586  -22.3749   -2.3184 C   0  0  0  0  0  0  0  0  0  0  0  0
   11.2154  -21.5580   -3.4212 O   0  0  0  0  0  0  0  0  0  0  0  0
  1  2  1  0
  3  2  1  0
  3  4  2  0
  5  6  1  0
  6  7  2  0
  8  6  1  0
  8  9  1  0
 10  9  1  0
 11 10  1  0
 12 13  1  0
 12 11  1  1
 13  3  1  0
 14 12  1  0
 15 14  2  0
 17 16  1  0
 17 18  2  0
 19 18  1  0
 20 19  2  0
 21 20  1  0
 22 21  1  6
 22 23  1  0
 23 14  1  0
 24 22  1  0
 24 28  1  0
 25 24  2  0
 26 27  2  0
 26 20  1  0
 27 17  1  0
M  END
$$$$
