CWV.pdb
     RDKit          3D

 28 29  0  0  1  0  0  0  0  0999 V2000
   30.4256  -20.6651  -12.1727 N   0  0  0  0  0  0  0  0  0  0  0  0
   29.2581  -19.8667  -11.9660 C   0  0  1  0  0  0  0  0  0  0  0  0
   28.6965  -19.4630  -13.3125 C   0  0  0  0  0  0  0  0  0  0  0  0
   29.7499  -18.2360  -14.1336 S   0  0  0  0  0  0  0  0  0  0  0  0
   28.1769  -20.5711  -11.2295 C   0  0  0  0  0  0  0  0  0  0  0  0
   28.0778  -21.8256  -11.2482 O   0  0  0  0  0  0  0  0  0  0  0  0
   27.1766  -19.8748  -10.4523 N   0  0  0  0  0  0  0  0  0  0  0  0
   25.9599  -20.5459  -10.0462 C   0  0  1  0  0  0  0  0  0  0  0  0
   25.5270  -20.0741   -8.6993 C   0  0  0  0  0  0  0  0  0  0  0  0
   26.5900  -19.5986   -7.8113 C   0  0  0  0  0  0  0  0  0  0  0  0
   27.3179  -18.4447   -7.8285 C   0  0  0  0  0  0  0  0  0  0  0  0
   28.1713  -18.4621   -6.8001 N   0  0  0  0  0  0  0  0  0  0  0  0
   28.0099  -19.6041   -6.1184 C   0  0  0  0  0  0  0  0  0  0  0  0
   28.6250  -20.1247   -4.9876 C   0  0  0  0  0  0  0  0  0  0  0  0
   28.2740  -21.3571   -4.4612 C   0  0  0  0  0  0  0  0  0  0  0  0
   27.2848  -22.0967   -5.0712 C   0  0  0  0  0  0  0  0  0  0  0  0
   26.6704  -21.5868   -6.1931 C   0  0  0  0  0  0  0  0  0  0  0  0
   27.0300  -20.3467   -6.7156 C   0  0  0  0  0  0  0  0  0  0  0  0
   24.8774  -20.4811  -11.0388 C   0  0  0  0  0  0  0  0  0  0  0  0
   24.7145  -19.4632  -11.7689 O   0  0  0  0  0  0  0  0  0  0  0  0
   23.1232  -23.9435  -12.5221 C   0  0  0  0  0  0  0  0  0  0  0  0
   23.2666  -22.6519  -13.2947 C   0  0  1  0  0  0  0  0  0  0  0  0
   22.2803  -22.6874  -14.4345 C   0  0  0  0  0  0  0  0  0  0  0  0
   23.0609  -21.5106  -12.3449 C   0  0  2  0  0  0  0  0  0  0  0  0
   23.9718  -21.5496  -11.2249 N   0  0  0  0  0  0  0  0  0  0  0  0
   21.6380  -21.6176  -11.8684 C   0  0  0  0  0  0  0  0  0  0  0  0
   21.3727  -21.9974  -10.5479 O   0  0  0  0  0  0  0  0  0  0  0  0
   20.6661  -21.3822  -12.6018 O   0  0  0  0  0  0  0  0  0  0  0  0
  2  3  1  0
  2  1  1  6
  3  4  1  0
  5  2  1  0
  6  5  2  0
  7  5  1  0
  8  7  1  0
  8  9  1  1
 10  9  1  0
 10 18  1  0
 11 12  1  0
 11 10  2  0
 12 13  1  0
 13 18  2  0
 13 14  1  0
 14 15  2  0
 15 16  1  0
 17 16  2  0
 18 17  1  0
 19 20  2  0
 19  8  1  0
 22 24  1  0
 22 21  1  1
 23 22  1  0
 24 25  1  1
 25 19  1  0
 26 24  1  0
 27 26  1  0
 28 26  2  0
M  END
$$$$
