CWV.pdb
     RDKit          3D

 28 29  0  0  1  0  0  0  0  0999 V2000
   27.1433  -22.7520  -18.7696 N   0  0  0  0  0  0  0  0  0  0  0  0
   26.1482  -22.8959  -17.7536 C   0  0  1  0  0  0  0  0  0  0  0  0
   26.1951  -24.3115  -17.2195 C   0  0  0  0  0  0  0  0  0  0  0  0
   24.9528  -24.5773  -15.9251 S   0  0  0  0  0  0  0  0  0  0  0  0
   26.3392  -21.9812  -16.5984 C   0  0  0  0  0  0  0  0  0  0  0  0
   27.4879  -21.6679  -16.1905 O   0  0  0  0  0  0  0  0  0  0  0  0
   25.2349  -21.3967  -15.8715 N   0  0  0  0  0  0  0  0  0  0  0  0
   25.4753  -20.4674  -14.7879 C   0  0  1  0  0  0  0  0  0  0  0  0
   24.5260  -19.3196  -14.8631 C   0  0  0  0  0  0  0  0  0  0  0  0
   23.1310  -19.6148  -14.5295 C   0  0  0  0  0  0  0  0  0  0  0  0
   22.5060  -19.7241  -13.3215 C   0  0  0  0  0  0  0  0  0  0  0  0
   21.2153  -20.0000  -13.5313 N   0  0  0  0  0  0  0  0  0  0  0  0
   20.9931  -20.0714  -14.8505 C   0  0  0  0  0  0  0  0  0  0  0  0
   19.8552  -20.3248  -15.6049 C   0  0  0  0  0  0  0  0  0  0  0  0
   19.8806  -20.3447  -16.9899 C   0  0  0  0  0  0  0  0  0  0  0  0
   21.0668  -20.1065  -17.6486 C   0  0  0  0  0  0  0  0  0  0  0  0
   22.1993  -19.8545  -16.9070 C   0  0  0  0  0  0  0  0  0  0  0  0
   22.1646  -19.8368  -15.5146 C   0  0  0  0  0  0  0  0  0  0  0  0
   25.4997  -21.0897  -13.4562 C   0  0  0  0  0  0  0  0  0  0  0  0
   24.8840  -22.1678  -13.2225 O   0  0  0  0  0  0  0  0  0  0  0  0
   28.6347  -21.5645  -11.2894 C   0  0  0  0  0  0  0  0  0  0  0  0
   27.5361  -21.0471  -10.3888 C   0  0  1  0  0  0  0  0  0  0  0  0
   27.8737  -19.6234  -10.0250 C   0  0  0  0  0  0  0  0  0  0  0  0
   26.2289  -21.2000  -11.1064 C   0  0  2  0  0  0  0  0  0  0  0  0
   26.2107  -20.5161  -12.3783 N   0  0  0  0  0  0  0  0  0  0  0  0
   25.1818  -20.6300  -10.1888 C   0  0  0  0  0  0  0  0  0  0  0  0
   24.5497  -19.4254  -10.5170 O   0  0  0  0  0  0  0  0  0  0  0  0
   24.8426  -21.1845   -9.1327 O   0  0  0  0  0  0  0  0  0  0  0  0
  2  3  1  0
  2  1  1  6
  3  4  1  0
  5  2  1  0
  6  5  2  0
  7  5  1  0
  8  7  1  0
  8  9  1  1
 10  9  1  0
 10 18  1  0
 11 12  1  0
 11 10  2  0
 12 13  1  0
 13 18  2  0
 13 14  1  0
 14 15  2  0
 15 16  1  0
 17 16  2  0
 18 17  1  0
 19 20  2  0
 19  8  1  0
 22 24  1  0
 22 21  1  6
 23 22  1  0
 24 25  1  6
 25 19  1  0
 26 24  1  0
 27 26  1  0
 28 26  2  0
M  END
$$$$
