CWV.pdb
     RDKit          3D

 28 29  0  0  1  0  0  0  0  0999 V2000
   28.2506  -22.4870  -15.3553 N   0  0  0  0  0  0  0  0  0  0  0  0
   28.0971  -21.2874  -14.5934 C   0  0  1  0  0  0  0  0  0  0  0  0
   27.3917  -20.2535  -15.4448 C   0  0  0  0  0  0  0  0  0  0  0  0
   28.4951  -19.5658  -16.7093 S   0  0  0  0  0  0  0  0  0  0  0  0
   27.2925  -21.4652  -13.3570 C   0  0  0  0  0  0  0  0  0  0  0  0
   26.2046  -22.0981  -13.3658 O   0  0  0  0  0  0  0  0  0  0  0  0
   27.6961  -20.9303  -12.0763 N   0  0  0  0  0  0  0  0  0  0  0  0
   26.8137  -21.0130  -10.9318 C   0  0  1  0  0  0  0  0  0  0  0  0
   27.5182  -20.5678   -9.6950 C   0  0  0  0  0  0  0  0  0  0  0  0
   26.7163  -20.5453   -8.4698 C   0  0  0  0  0  0  0  0  0  0  0  0
   25.4057  -20.8584   -8.2550 C   0  0  0  0  0  0  0  0  0  0  0  0
   25.1323  -20.6874   -6.9580 N   0  0  0  0  0  0  0  0  0  0  0  0
   26.2396  -20.2700   -6.3300 C   0  0  0  0  0  0  0  0  0  0  0  0
   26.5110  -19.9476   -5.0069 C   0  0  0  0  0  0  0  0  0  0  0  0
   27.7662  -19.5315   -4.5942 C   0  0  0  0  0  0  0  0  0  0  0  0
   28.7837  -19.4316   -5.5174 C   0  0  0  0  0  0  0  0  0  0  0  0
   28.5219  -19.7497   -6.8313 C   0  0  0  0  0  0  0  0  0  0  0  0
   27.2565  -20.1670   -7.2375 C   0  0  0  0  0  0  0  0  0  0  0  0
   25.5225  -20.3351  -11.1177 C   0  0  0  0  0  0  0  0  0  0  0  0
   25.4479  -19.0779  -11.2164 O   0  0  0  0  0  0  0  0  0  0  0  0
   21.2924  -19.9427  -13.1263 C   0  0  0  0  0  0  0  0  0  0  0  0
   22.5962  -20.6757  -12.9059 C   0  0  1  0  0  0  0  0  0  0  0  0
   23.5389  -20.2776  -14.0131 C   0  0  0  0  0  0  0  0  0  0  0  0
   23.0947  -20.3452  -11.5315 C   0  0  2  0  0  0  0  0  0  0  0  0
   24.3081  -21.0530  -11.1962 N   0  0  0  0  0  0  0  0  0  0  0  0
   21.9878  -20.7235  -10.5856 C   0  0  0  0  0  0  0  0  0  0  0  0
   22.0178  -21.9645   -9.9395 O   0  0  0  0  0  0  0  0  0  0  0  0
   21.0283  -19.9761  -10.3437 O   0  0  0  0  0  0  0  0  0  0  0  0
  2  3  1  0
  2  1  1  6
  3  4  1  0
  5  2  1  0
  6  5  2  0
  7  5  1  0
  8  7  1  0
  8  9  1  1
 10  9  1  0
 10 18  1  0
 11 12  1  0
 11 10  2  0
 12 13  1  0
 13 18  2  0
 13 14  1  0
 14 15  2  0
 15 16  1  0
 17 16  2  0
 18 17  1  0
 19 20  2  0
 19  8  1  0
 22 24  1  0
 22 21  1  6
 23 22  1  0
 24 25  1  1
 25 19  1  0
 26 24  1  0
 27 26  1  0
 28 26  2  0
M  END
$$$$
