CWV.pdb
     RDKit          3D

 28 29  0  0  1  0  0  0  0  0999 V2000
   30.3612  -20.8809  -12.0533 N   0  0  0  0  0  0  0  0  0  0  0  0
   29.2180  -20.0321  -11.9272 C   0  0  1  0  0  0  0  0  0  0  0  0
   28.7556  -19.6252  -13.3099 C   0  0  0  0  0  0  0  0  0  0  0  0
   29.4763  -18.0391  -13.8142 S   0  0  0  0  0  0  0  0  0  0  0  0
   28.0660  -20.6805  -11.2489 C   0  0  0  0  0  0  0  0  0  0  0  0
   27.8056  -21.9004  -11.4168 O   0  0  0  0  0  0  0  0  0  0  0  0
   27.1754  -19.9657  -10.3628 N   0  0  0  0  0  0  0  0  0  0  0  0
   25.9630  -20.5891   -9.8762 C   0  0  1  0  0  0  0  0  0  0  0  0
   25.6908  -20.1758   -8.4693 C   0  0  0  0  0  0  0  0  0  0  0  0
   26.8438  -19.6956   -7.7048 C   0  0  0  0  0  0  0  0  0  0  0  0
   27.7297  -18.6903   -7.9625 C   0  0  0  0  0  0  0  0  0  0  0  0
   28.6095  -18.6279   -6.9584 N   0  0  0  0  0  0  0  0  0  0  0  0
   28.3104  -19.5725   -6.0567 C   0  0  0  0  0  0  0  0  0  0  0  0
   28.8857  -19.9411   -4.8479 C   0  0  0  0  0  0  0  0  0  0  0  0
   28.3803  -20.9763   -4.0785 C   0  0  0  0  0  0  0  0  0  0  0  0
   27.2725  -21.6674   -4.5174 C   0  0  0  0  0  0  0  0  0  0  0  0
   26.6966  -21.3075   -5.7152 C   0  0  0  0  0  0  0  0  0  0  0  0
   27.2118  -20.2653   -6.4826 C   0  0  0  0  0  0  0  0  0  0  0  0
   24.7972  -20.4020  -10.7521 C   0  0  0  0  0  0  0  0  0  0  0  0
   24.5654  -19.2929  -11.3107 O   0  0  0  0  0  0  0  0  0  0  0  0
   22.5495  -23.7282  -12.1624 C   0  0  0  0  0  0  0  0  0  0  0  0
   22.9669  -22.5420  -13.0017 C   0  0  1  0  0  0  0  0  0  0  0  0
   22.0193  -22.4514  -14.1709 C   0  0  0  0  0  0  0  0  0  0  0  0
   22.9737  -21.3255  -12.1260 C   0  0  2  0  0  0  0  0  0  0  0  0
   23.8844  -21.4488  -11.0119 N   0  0  0  0  0  0  0  0  0  0  0  0
   21.5618  -21.1595  -11.6340 C   0  0  0  0  0  0  0  0  0  0  0  0
   20.5596  -20.7483  -12.5200 O   0  0  0  0  0  0  0  0  0  0  0  0
   21.2327  -21.3722  -10.4575 O   0  0  0  0  0  0  0  0  0  0  0  0
  2  3  1  0
  2  1  1  6
  3  4  1  0
  5  2  1  0
  6  5  2  0
  7  5  1  0
  8  7  1  0
  8  9  1  1
 10  9  1  0
 10 18  1  0
 11 12  1  0
 11 10  2  0
 12 13  1  0
 13 18  2  0
 13 14  1  0
 14 15  2  0
 15 16  1  0
 17 16  2  0
 18 17  1  0
 19 20  2  0
 19  8  1  0
 22 24  1  0
 22 21  1  1
 23 22  1  0
 24 25  1  1
 25 19  1  0
 26 24  1  0
 27 26  1  0
 28 26  2  0
M  END
$$$$
