CWV.pdb
     RDKit          3D

 28 29  0  0  1  0  0  0  0  0999 V2000
   28.3682  -21.5560  -15.3481 N   0  0  0  0  0  0  0  0  0  0  0  0
   28.3038  -20.5039  -14.3826 C   0  0  1  0  0  0  0  0  0  0  0  0
   27.6200  -19.3069  -15.0079 C   0  0  0  0  0  0  0  0  0  0  0  0
   28.7190  -18.4372  -16.1590 S   0  0  0  0  0  0  0  0  0  0  0  0
   27.5378  -20.8621  -13.1608 C   0  0  0  0  0  0  0  0  0  0  0  0
   26.4886  -21.5544  -13.2218 O   0  0  0  0  0  0  0  0  0  0  0  0
   27.9374  -20.4450  -11.8357 N   0  0  0  0  0  0  0  0  0  0  0  0
   27.0857  -20.7024  -10.6939 C   0  0  1  0  0  0  0  0  0  0  0  0
   27.7156  -20.1858   -9.4446 C   0  0  0  0  0  0  0  0  0  0  0  0
   26.9569  -20.3902   -8.2088 C   0  0  0  0  0  0  0  0  0  0  0  0
   25.7225  -20.9322   -7.9986 C   0  0  0  0  0  0  0  0  0  0  0  0
   25.4626  -20.9082   -6.6879 N   0  0  0  0  0  0  0  0  0  0  0  0
   26.5040  -20.3616   -6.0465 C   0  0  0  0  0  0  0  0  0  0  0  0
   26.7571  -20.1002   -4.7064 C   0  0  0  0  0  0  0  0  0  0  0  0
   27.9383  -19.5140   -4.2820 C   0  0  0  0  0  0  0  0  0  0  0  0
   28.8982  -19.1764   -5.2106 C   0  0  0  0  0  0  0  0  0  0  0  0
   28.6541  -19.4326   -6.5414 C   0  0  0  0  0  0  0  0  0  0  0  0
   27.4632  -20.0223   -6.9591 C   0  0  0  0  0  0  0  0  0  0  0  0
   25.7013  -20.2364  -10.8591 C   0  0  0  0  0  0  0  0  0  0  0  0
   25.4251  -19.0055  -10.9259 O   0  0  0  0  0  0  0  0  0  0  0  0
   21.5354  -21.0003  -13.0785 C   0  0  0  0  0  0  0  0  0  0  0  0
   22.9169  -21.4701  -12.6828 C   0  0  1  0  0  0  0  0  0  0  0  0
   23.8121  -21.3278  -13.8876 C   0  0  0  0  0  0  0  0  0  0  0  0
   23.3620  -20.6727  -11.4941 C   0  0  2  0  0  0  0  0  0  0  0  0
   24.6173  -21.1379  -10.9523 N   0  0  0  0  0  0  0  0  0  0  0  0
   22.2673  -20.8053  -10.4709 C   0  0  0  0  0  0  0  0  0  0  0  0
   21.2473  -19.8488  -10.4147 O   0  0  0  0  0  0  0  0  0  0  0  0
   22.2211  -21.7389   -9.6560 O   0  0  0  0  0  0  0  0  0  0  0  0
  2  3  1  0
  2  1  1  6
  3  4  1  0
  5  2  1  0
  6  5  2  0
  7  5  1  0
  8  7  1  0
  8  9  1  1
 10  9  1  0
 10 18  1  0
 11 12  1  0
 11 10  2  0
 12 13  1  0
 13 18  2  0
 13 14  1  0
 14 15  2  0
 15 16  1  0
 17 16  2  0
 18 17  1  0
 19 20  2  0
 19  8  1  0
 22 24  1  0
 22 21  1  6
 23 22  1  0
 24 25  1  1
 25 19  1  0
 26 24  1  0
 27 26  1  0
 28 26  2  0
M  END
$$$$
