CWV.pdb
     RDKit          3D

 28 29  0  0  1  0  0  0  0  0999 V2000
   19.6170  -24.8050  -14.0783 N   0  0  0  0  0  0  0  0  0  0  0  0
   19.3497  -25.0089  -12.6889 C   0  0  1  0  0  0  0  0  0  0  0  0
   17.9507  -24.5188  -12.3826 C   0  0  0  0  0  0  0  0  0  0  0  0
   17.5088  -24.8058  -10.6471 S   0  0  0  0  0  0  0  0  0  0  0  0
   19.4206  -26.4329  -12.2709 C   0  0  0  0  0  0  0  0  0  0  0  0
   18.6198  -27.2918  -12.7238 O   0  0  0  0  0  0  0  0  0  0  0  0
   20.3991  -26.9243  -11.3272 N   0  0  0  0  0  0  0  0  0  0  0  0
   20.4712  -28.3343  -11.0073 C   0  0  1  0  0  0  0  0  0  0  0  0
   21.8894  -28.7558  -10.8192 C   0  0  0  0  0  0  0  0  0  0  0  0
   22.1318  -30.1995  -10.7772 C   0  0  0  0  0  0  0  0  0  0  0  0
   21.6241  -31.2123  -11.5375 C   0  0  0  0  0  0  0  0  0  0  0  0
   22.1559  -32.3662  -11.1229 N   0  0  0  0  0  0  0  0  0  0  0  0
   22.9972  -32.1198  -10.1099 C   0  0  0  0  0  0  0  0  0  0  0  0
   23.7991  -32.9395   -9.3268 C   0  0  0  0  0  0  0  0  0  0  0  0
   24.6007  -32.4349   -8.3159 C   0  0  0  0  0  0  0  0  0  0  0  0
   24.6099  -31.0791   -8.0722 C   0  0  0  0  0  0  0  0  0  0  0  0
   23.8171  -30.2601   -8.8448 C   0  0  0  0  0  0  0  0  0  0  0  0
   23.0139  -30.7763   -9.8591 C   0  0  0  0  0  0  0  0  0  0  0  0
   19.6108  -28.7415   -9.8870 C   0  0  0  0  0  0  0  0  0  0  0  0
   19.3895  -27.9685   -8.9127 O   0  0  0  0  0  0  0  0  0  0  0  0
   16.0071  -29.6259   -9.6825 C   0  0  0  0  0  0  0  0  0  0  0  0
   16.7821  -30.8141   -9.1600 C   0  0  1  0  0  0  0  0  0  0  0  0
   16.8148  -31.8555  -10.2497 C   0  0  0  0  0  0  0  0  0  0  0  0
   18.1369  -30.3390   -8.7290 C   0  0  2  0  0  0  0  0  0  0  0  0
   18.9912  -30.0108   -9.8461 N   0  0  0  0  0  0  0  0  0  0  0  0
   18.7338  -31.4605   -7.9233 C   0  0  0  0  0  0  0  0  0  0  0  0
   19.8108  -32.1909   -8.4380 O   0  0  0  0  0  0  0  0  0  0  0  0
   18.3110  -31.7789   -6.8019 O   0  0  0  0  0  0  0  0  0  0  0  0
  2  3  1  0
  2  1  1  6
  3  4  1  0
  5  2  1  0
  6  5  2  0
  7  5  1  0
  8  7  1  0
  8  9  1  1
 10  9  1  0
 10 18  1  0
 11 12  1  0
 11 10  2  0
 12 13  1  0
 13 18  2  0
 13 14  1  0
 14 15  2  0
 15 16  1  0
 17 16  2  0
 18 17  1  0
 19 20  2  0
 19  8  1  0
 22 24  1  0
 22 21  1  6
 23 22  1  0
 24 25  1  6
 25 19  1  0
 26 24  1  0
 27 26  1  0
 28 26  2  0
M  END
$$$$
