CWV.pdb
     RDKit          3D

 28 29  0  0  1  0  0  0  0  0999 V2000
   28.9515  -22.6337  -15.7777 N   0  0  0  0  0  0  0  0  0  0  0  0
   28.2401  -21.4321  -15.4721 C   0  0  1  0  0  0  0  0  0  0  0  0
   27.4984  -20.9741  -16.7096 C   0  0  0  0  0  0  0  0  0  0  0  0
   26.4834  -19.5089  -16.3746 S   0  0  0  0  0  0  0  0  0  0  0  0
   27.2356  -21.5931  -14.3891 C   0  0  0  0  0  0  0  0  0  0  0  0
   26.4989  -22.6114  -14.3215 O   0  0  0  0  0  0  0  0  0  0  0  0
   27.0358  -20.6050  -13.3532 N   0  0  0  0  0  0  0  0  0  0  0  0
   26.0538  -20.8180  -12.3111 C   0  0  1  0  0  0  0  0  0  0  0  0
   26.4476  -20.0972  -11.0663 C   0  0  0  0  0  0  0  0  0  0  0  0
   27.5853  -20.6549  -10.3319 C   0  0  0  0  0  0  0  0  0  0  0  0
   28.6711  -21.3570  -10.7673 C   0  0  0  0  0  0  0  0  0  0  0  0
   29.4445  -21.6440   -9.7158 N   0  0  0  0  0  0  0  0  0  0  0  0
   28.8806  -21.1416   -8.6093 C   0  0  0  0  0  0  0  0  0  0  0  0
   29.2533  -21.1492   -7.2717 C   0  0  0  0  0  0  0  0  0  0  0  0
   28.4836  -20.5457   -6.2906 C   0  0  0  0  0  0  0  0  0  0  0  0
   27.3105  -19.9155   -6.6428 C   0  0  0  0  0  0  0  0  0  0  0  0
   26.9345  -19.9039   -7.9675 C   0  0  0  0  0  0  0  0  0  0  0  0
   27.7145  -20.5136   -8.9473 C   0  0  0  0  0  0  0  0  0  0  0  0
   24.6720  -20.5232  -12.7176 C   0  0  0  0  0  0  0  0  0  0  0  0
   24.3744  -19.4438  -13.3025 O   0  0  0  0  0  0  0  0  0  0  0  0
   20.5150  -21.7807  -14.5561 C   0  0  0  0  0  0  0  0  0  0  0  0
   21.8728  -22.1804  -14.0247 C   0  0  1  0  0  0  0  0  0  0  0  0
   22.8011  -22.3289  -15.2034 C   0  0  0  0  0  0  0  0  0  0  0  0
   22.3104  -21.1487  -13.0293 C   0  0  2  0  0  0  0  0  0  0  0  0
   23.6148  -21.4291  -12.4764 N   0  0  0  0  0  0  0  0  0  0  0  0
   21.2688  -21.1500  -11.9439 C   0  0  0  0  0  0  0  0  0  0  0  0
   21.3988  -22.0198  -10.8552 O   0  0  0  0  0  0  0  0  0  0  0  0
   20.2783  -20.4042  -11.9646 O   0  0  0  0  0  0  0  0  0  0  0  0
  2  3  1  0
  2  1  1  6
  3  4  1  0
  5  2  1  0
  6  5  2  0
  7  5  1  0
  8  7  1  0
  8  9  1  1
 10  9  1  0
 10 18  1  0
 11 12  1  0
 11 10  2  0
 12 13  1  0
 13 18  2  0
 13 14  1  0
 14 15  2  0
 15 16  1  0
 17 16  2  0
 18 17  1  0
 19 20  2  0
 19  8  1  0
 22 24  1  0
 22 21  1  6
 23 22  1  0
 24 25  1  1
 25 19  1  0
 26 24  1  0
 27 26  1  0
 28 26  2  0
M  END
$$$$
