CWV.pdb
     RDKit          3D

 28 29  0  0  1  0  0  0  0  0999 V2000
   29.3425  -23.3577  -16.0785 N   0  0  0  0  0  0  0  0  0  0  0  0
   28.5039  -22.2002  -16.0648 C   0  0  1  0  0  0  0  0  0  0  0  0
   27.7182  -22.1497  -17.3577 C   0  0  0  0  0  0  0  0  0  0  0  0
   26.4457  -20.8580  -17.3145 S   0  0  0  0  0  0  0  0  0  0  0  0
   27.5216  -22.1889  -14.9500 C   0  0  0  0  0  0  0  0  0  0  0  0
   26.8535  -23.2129  -14.6519 O   0  0  0  0  0  0  0  0  0  0  0  0
   27.2671  -21.0173  -14.1425 N   0  0  0  0  0  0  0  0  0  0  0  0
   26.2796  -21.0518  -13.0845 C   0  0  1  0  0  0  0  0  0  0  0  0
   26.6857  -20.1589  -11.9610 C   0  0  0  0  0  0  0  0  0  0  0  0
   27.7785  -20.6443  -11.1157 C   0  0  0  0  0  0  0  0  0  0  0  0
   28.9883  -21.1837  -11.4431 C   0  0  0  0  0  0  0  0  0  0  0  0
   29.6491  -21.4670  -10.3165 N   0  0  0  0  0  0  0  0  0  0  0  0
   28.8910  -21.1216   -9.2673 C   0  0  0  0  0  0  0  0  0  0  0  0
   29.0869  -21.1960   -7.8946 C   0  0  0  0  0  0  0  0  0  0  0  0
   28.1302  -20.7632   -6.9910 C   0  0  0  0  0  0  0  0  0  0  0  0
   26.9444  -20.2410   -7.4588 C   0  0  0  0  0  0  0  0  0  0  0  0
   26.7432  -20.1641   -8.8188 C   0  0  0  0  0  0  0  0  0  0  0  0
   27.7107  -20.6020   -9.7202 C   0  0  0  0  0  0  0  0  0  0  0  0
   24.9045  -20.7955  -13.5369 C   0  0  0  0  0  0  0  0  0  0  0  0
   24.6315  -19.8209  -14.2929 O   0  0  0  0  0  0  0  0  0  0  0  0
   20.4426  -22.2307  -14.6458 C   0  0  0  0  0  0  0  0  0  0  0  0
   21.7664  -22.6170  -14.0262 C   0  0  1  0  0  0  0  0  0  0  0  0
   22.4846  -23.5150  -15.0014 C   0  0  0  0  0  0  0  0  0  0  0  0
   22.5124  -21.3611  -13.6898 C   0  0  2  0  0  0  0  0  0  0  0  0
   23.8264  -21.6234  -13.1512 N   0  0  0  0  0  0  0  0  0  0  0  0
   21.6670  -20.6332  -12.6805 C   0  0  0  0  0  0  0  0  0  0  0  0
   21.7257  -20.9978  -11.3307 O   0  0  0  0  0  0  0  0  0  0  0  0
   20.9032  -19.7065  -12.9897 O   0  0  0  0  0  0  0  0  0  0  0  0
  2  3  1  0
  2  1  1  6
  3  4  1  0
  5  2  1  0
  6  5  2  0
  7  5  1  0
  8  7  1  0
  8  9  1  1
 10  9  1  0
 10 18  1  0
 11 12  1  0
 11 10  2  0
 12 13  1  0
 13 18  2  0
 13 14  1  0
 14 15  2  0
 15 16  1  0
 17 16  2  0
 18 17  1  0
 19 20  2  0
 19  8  1  0
 22 24  1  0
 22 21  1  6
 23 22  1  0
 24 25  1  1
 25 19  1  0
 26 24  1  0
 27 26  1  0
 28 26  2  0
M  END
$$$$
