CWV.pdb
     RDKit          3D

 28 29  0  0  1  0  0  0  0  0999 V2000
   28.2432  -18.1188  -18.5951 N   0  0  0  0  0  0  0  0  0  0  0  0
   27.7152  -17.5899  -17.3766 C   0  0  1  0  0  0  0  0  0  0  0  0
   26.7009  -16.5163  -17.7079 C   0  0  0  0  0  0  0  0  0  0  0  0
   27.4870  -15.0663  -18.4622 S   0  0  0  0  0  0  0  0  0  0  0  0
   27.0272  -18.6034  -16.5356 C   0  0  0  0  0  0  0  0  0  0  0  0
   26.2087  -19.4219  -17.0297 O   0  0  0  0  0  0  0  0  0  0  0  0
   27.2455  -18.7176  -15.1112 N   0  0  0  0  0  0  0  0  0  0  0  0
   26.4780  -19.6568  -14.3210 C   0  0  1  0  0  0  0  0  0  0  0  0
   27.1555  -19.9207  -13.0188 C   0  0  0  0  0  0  0  0  0  0  0  0
   26.4873  -20.8700  -12.1261 C   0  0  0  0  0  0  0  0  0  0  0  0
   26.1122  -22.1672  -12.3221 C   0  0  0  0  0  0  0  0  0  0  0  0
   25.5392  -22.6203  -11.2029 N   0  0  0  0  0  0  0  0  0  0  0  0
   25.5362  -21.6423  -10.2874 C   0  0  0  0  0  0  0  0  0  0  0  0
   25.0741  -21.5732   -8.9798 C   0  0  0  0  0  0  0  0  0  0  0  0
   25.1894  -20.4212   -8.2191 C   0  0  0  0  0  0  0  0  0  0  0  0
   25.7799  -19.3041   -8.7678 C   0  0  0  0  0  0  0  0  0  0  0  0
   26.2406  -19.3652  -10.0640 C   0  0  0  0  0  0  0  0  0  0  0  0
   26.1201  -20.5278  -10.8216 C   0  0  0  0  0  0  0  0  0  0  0  0
   25.0646  -19.2885  -14.1543 C   0  0  0  0  0  0  0  0  0  0  0  0
   24.7202  -18.1005  -13.8977 O   0  0  0  0  0  0  0  0  0  0  0  0
   20.4372  -19.4031  -14.9590 C   0  0  0  0  0  0  0  0  0  0  0  0
   21.8415  -19.8439  -15.3044 C   0  0  1  0  0  0  0  0  0  0  0  0
   22.3547  -18.9316  -16.3896 C   0  0  0  0  0  0  0  0  0  0  0  0
   22.6627  -19.8231  -14.0506 C   0  0  2  0  0  0  0  0  0  0  0  0
   24.0272  -20.2403  -14.2739 N   0  0  0  0  0  0  0  0  0  0  0  0
   21.9786  -20.7571  -13.0900 C   0  0  0  0  0  0  0  0  0  0  0  0
   21.3319  -20.2430  -11.9605 O   0  0  0  0  0  0  0  0  0  0  0  0
   21.9582  -21.9865  -13.2505 O   0  0  0  0  0  0  0  0  0  0  0  0
  2  3  1  0
  2  1  1  6
  3  4  1  0
  5  2  1  0
  6  5  2  0
  7  5  1  0
  8  7  1  0
  8  9  1  1
 10  9  1  0
 10 18  1  0
 11 12  1  0
 11 10  2  0
 12 13  1  0
 13 18  2  0
 13 14  1  0
 14 15  2  0
 15 16  1  0
 17 16  2  0
 18 17  1  0
 19 20  2  0
 19  8  1  0
 22 24  1  0
 22 21  1  1
 23 22  1  0
 24 25  1  6
 25 19  1  0
 26 24  1  0
 27 26  1  0
 28 26  2  0
M  END
$$$$
