CWV.pdb
     RDKit          3D

 28 29  0  0  1  0  0  0  0  0999 V2000
   28.3406  -22.9525  -16.7938 N   0  0  0  0  0  0  0  0  0  0  0  0
   28.2543  -21.7221  -16.0713 C   0  0  1  0  0  0  0  0  0  0  0  0
   27.6529  -20.6658  -16.9735 C   0  0  0  0  0  0  0  0  0  0  0  0
   28.9287  -19.5886  -17.6815 S   0  0  0  0  0  0  0  0  0  0  0  0
   27.4028  -21.8026  -14.8564 C   0  0  0  0  0  0  0  0  0  0  0  0
   26.3029  -22.4144  -14.8637 O   0  0  0  0  0  0  0  0  0  0  0  0
   27.7718  -21.1915  -13.5995 N   0  0  0  0  0  0  0  0  0  0  0  0
   26.8770  -21.2458  -12.4628 C   0  0  1  0  0  0  0  0  0  0  0  0
   27.5901  -20.8431  -11.2164 C   0  0  0  0  0  0  0  0  0  0  0  0
   26.7612  -20.7016  -10.0175 C   0  0  0  0  0  0  0  0  0  0  0  0
   25.4085  -20.7738   -9.8540 C   0  0  0  0  0  0  0  0  0  0  0  0
   25.1233  -20.5848   -8.5620 N   0  0  0  0  0  0  0  0  0  0  0  0
   26.2643  -20.3919   -7.8870 C   0  0  0  0  0  0  0  0  0  0  0  0
   26.5411  -20.1546   -6.5471 C   0  0  0  0  0  0  0  0  0  0  0  0
   27.8351  -19.9851   -6.0825 C   0  0  0  0  0  0  0  0  0  0  0  0
   28.8870  -20.0527   -6.9693 C   0  0  0  0  0  0  0  0  0  0  0  0
   28.6201  -20.2877   -8.2996 C   0  0  0  0  0  0  0  0  0  0  0  0
   27.3157  -20.4566   -8.7580 C   0  0  0  0  0  0  0  0  0  0  0  0
   25.6184  -20.5103  -12.6525 C   0  0  0  0  0  0  0  0  0  0  0  0
   25.6073  -19.2586  -12.8234 O   0  0  0  0  0  0  0  0  0  0  0  0
   23.5827  -20.0495  -15.2625 C   0  0  0  0  0  0  0  0  0  0  0  0
   22.5995  -20.5960  -14.2524 C   0  0  1  0  0  0  0  0  0  0  0  0
   22.3427  -22.0410  -14.5978 C   0  0  0  0  0  0  0  0  0  0  0  0
   23.1693  -20.3881  -12.8816 C   0  0  2  0  0  0  0  0  0  0  0  0
   24.3659  -21.1642  -12.6545 N   0  0  0  0  0  0  0  0  0  0  0  0
   22.0891  -20.7941  -11.9165 C   0  0  0  0  0  0  0  0  0  0  0  0
   20.9344  -20.0129  -11.7950 O   0  0  0  0  0  0  0  0  0  0  0  0
   22.1711  -21.8075  -11.2064 O   0  0  0  0  0  0  0  0  0  0  0  0
  2  3  1  0
  2  1  1  6
  3  4  1  0
  5  2  1  0
  6  5  2  0
  7  5  1  0
  8  7  1  0
  8  9  1  1
 10  9  1  0
 10 18  1  0
 11 12  1  0
 11 10  2  0
 12 13  1  0
 13 18  2  0
 13 14  1  0
 14 15  2  0
 15 16  1  0
 17 16  2  0
 18 17  1  0
 19 20  2  0
 19  8  1  0
 22 24  1  0
 22 21  1  6
 23 22  1  0
 24 25  1  6
 25 19  1  0
 26 24  1  0
 27 26  1  0
 28 26  2  0
M  END
$$$$
