CWV.pdb
     RDKit          3D

 28 29  0  0  1  0  0  0  0  0999 V2000
   29.9260  -22.2433  -17.5889 N   0  0  0  0  0  0  0  0  0  0  0  0
   28.8270  -22.9799  -17.0475 C   0  0  1  0  0  0  0  0  0  0  0  0
   29.3620  -24.0294  -16.0969 C   0  0  0  0  0  0  0  0  0  0  0  0
   30.3619  -25.2683  -16.9658 S   0  0  0  0  0  0  0  0  0  0  0  0
   27.8657  -22.1420  -16.2850 C   0  0  0  0  0  0  0  0  0  0  0  0
   28.2550  -21.3259  -15.4095 O   0  0  0  0  0  0  0  0  0  0  0  0
   26.4363  -22.2056  -16.4912 N   0  0  0  0  0  0  0  0  0  0  0  0
   25.5530  -21.2742  -15.8220 C   0  0  1  0  0  0  0  0  0  0  0  0
   24.4727  -20.8225  -16.7456 C   0  0  0  0  0  0  0  0  0  0  0  0
   23.4749  -19.9154  -16.1745 C   0  0  0  0  0  0  0  0  0  0  0  0
   23.6117  -18.6851  -15.6008 C   0  0  0  0  0  0  0  0  0  0  0  0
   22.4031  -18.2465  -15.2361 N   0  0  0  0  0  0  0  0  0  0  0  0
   21.4876  -19.1686  -15.5624 C   0  0  0  0  0  0  0  0  0  0  0  0
   20.1081  -19.2244  -15.4140 C   0  0  0  0  0  0  0  0  0  0  0  0
   19.3660  -20.3128  -15.8429 C   0  0  0  0  0  0  0  0  0  0  0  0
   20.0072  -21.3776  -16.4366 C   0  0  0  0  0  0  0  0  0  0  0  0
   21.3751  -21.3292  -16.5871 C   0  0  0  0  0  0  0  0  0  0  0  0
   22.1133  -20.2308  -16.1526 C   0  0  0  0  0  0  0  0  0  0  0  0
   25.0274  -21.7606  -14.5381 C   0  0  0  0  0  0  0  0  0  0  0  0
   24.6768  -22.9645  -14.3844 O   0  0  0  0  0  0  0  0  0  0  0  0
   26.4677  -21.6206  -11.1194 C   0  0  0  0  0  0  0  0  0  0  0  0
   25.0689  -21.0641  -10.9809 C   0  0  1  0  0  0  0  0  0  0  0  0
   25.1871  -19.5791  -10.7488 C   0  0  0  0  0  0  0  0  0  0  0  0
   24.2936  -21.4298  -12.2105 C   0  0  2  0  0  0  0  0  0  0  0  0
   24.8907  -20.9098  -13.4182 N   0  0  0  0  0  0  0  0  0  0  0  0
   22.9153  -20.8584  -12.0181 C   0  0  0  0  0  0  0  0  0  0  0  0
   22.0494  -21.4301  -11.0791 O   0  0  0  0  0  0  0  0  0  0  0  0
   22.4971  -19.8856  -12.6635 O   0  0  0  0  0  0  0  0  0  0  0  0
  2  3  1  0
  2  1  1  1
  3  4  1  0
  5  2  1  0
  6  5  2  0
  7  5  1  0
  8  7  1  0
  8  9  1  6
 10  9  1  0
 10 18  1  0
 11 12  1  0
 11 10  2  0
 12 13  1  0
 13 18  2  0
 13 14  1  0
 14 15  2  0
 15 16  1  0
 17 16  2  0
 18 17  1  0
 19 20  2  0
 19  8  1  0
 22 24  1  0
 22 21  1  6
 23 22  1  0
 24 25  1  6
 25 19  1  0
 26 24  1  0
 27 26  1  0
 28 26  2  0
M  END
$$$$
