CWV.pdb
     RDKit          3D

 28 29  0  0  1  0  0  0  0  0999 V2000
   29.4963  -21.0272  -14.1716 N   0  0  0  0  0  0  0  0  0  0  0  0
   28.6621  -20.0521  -13.5419 C   0  0  1  0  0  0  0  0  0  0  0  0
   27.9287  -19.2712  -14.6114 C   0  0  0  0  0  0  0  0  0  0  0  0
   28.7951  -17.7327  -15.0258 S   0  0  0  0  0  0  0  0  0  0  0  0
   27.6362  -20.6379  -12.6407 C   0  0  0  0  0  0  0  0  0  0  0  0
   27.0211  -21.6935  -12.9429 O   0  0  0  0  0  0  0  0  0  0  0  0
   27.2768  -20.0441  -11.3727 N   0  0  0  0  0  0  0  0  0  0  0  0
   26.2134  -20.6092  -10.5693 C   0  0  1  0  0  0  0  0  0  0  0  0
   26.3742  -20.2179   -9.1392 C   0  0  0  0  0  0  0  0  0  0  0  0
   27.6399  -20.5955   -8.5068 C   0  0  0  0  0  0  0  0  0  0  0  0
   28.6799  -21.3473   -8.9702 C   0  0  0  0  0  0  0  0  0  0  0  0
   29.6216  -21.4042   -8.0235 N   0  0  0  0  0  0  0  0  0  0  0  0
   29.2114  -20.7043   -6.9574 C   0  0  0  0  0  0  0  0  0  0  0  0
   29.7878  -20.4391   -5.7223 C   0  0  0  0  0  0  0  0  0  0  0  0
   29.1499  -19.6692   -4.7634 C   0  0  0  0  0  0  0  0  0  0  0  0
   27.9048  -19.1456   -5.0341 C   0  0  0  0  0  0  0  0  0  0  0  0
   27.3270  -19.4045   -6.2569 C   0  0  0  0  0  0  0  0  0  0  0  0
   27.9757  -20.1800   -7.2151 C   0  0  0  0  0  0  0  0  0  0  0  0
   24.8626  -20.3323  -11.0790 C   0  0  0  0  0  0  0  0  0  0  0  0
   24.5153  -19.1675  -11.4233 O   0  0  0  0  0  0  0  0  0  0  0  0
   21.2254  -21.7723  -13.8112 C   0  0  0  0  0  0  0  0  0  0  0  0
   22.4587  -22.1548  -13.0250 C   0  0  1  0  0  0  0  0  0  0  0  0
   23.5899  -22.3351  -14.0054 C   0  0  0  0  0  0  0  0  0  0  0  0
   22.7072  -21.0947  -11.9948 C   0  0  2  0  0  0  0  0  0  0  0  0
   23.8918  -21.3507  -11.2095 N   0  0  0  0  0  0  0  0  0  0  0  0
   21.4875  -21.0765  -11.1144 C   0  0  0  0  0  0  0  0  0  0  0  0
   20.4765  -20.1367  -11.3448 O   0  0  0  0  0  0  0  0  0  0  0  0
   21.3282  -21.8685  -10.1736 O   0  0  0  0  0  0  0  0  0  0  0  0
  2  3  1  0
  2  1  1  6
  3  4  1  0
  5  2  1  0
  6  5  2  0
  7  5  1  0
  8  7  1  0
  8  9  1  1
 10  9  1  0
 10 18  1  0
 11 12  1  0
 11 10  2  0
 12 13  1  0
 13 18  2  0
 13 14  1  0
 14 15  2  0
 15 16  1  0
 17 16  2  0
 18 17  1  0
 19 20  2  0
 19  8  1  0
 22 24  1  0
 22 21  1  6
 23 22  1  0
 24 25  1  1
 25 19  1  0
 26 24  1  0
 27 26  1  0
 28 26  2  0
M  END
$$$$
