CWV.pdb
     RDKit          3D

 28 29  0  0  1  0  0  0  0  0999 V2000
   28.5090  -22.4510  -15.6750 N   0  0  0  0  0  0  0  0  0  0  0  0
   28.3465  -21.2526  -14.9130 C   0  0  1  0  0  0  0  0  0  0  0  0
   27.6943  -20.2020  -15.7861 C   0  0  0  0  0  0  0  0  0  0  0  0
   28.7472  -19.7585  -17.1947 S   0  0  0  0  0  0  0  0  0  0  0  0
   27.4897  -21.4221  -13.7109 C   0  0  0  0  0  0  0  0  0  0  0  0
   26.4134  -22.0728  -13.7570 O   0  0  0  0  0  0  0  0  0  0  0  0
   27.8267  -20.8584  -12.4232 N   0  0  0  0  0  0  0  0  0  0  0  0
   26.9594  -21.0578  -11.2816 C   0  0  1  0  0  0  0  0  0  0  0  0
   27.7154  -20.8649  -10.0105 C   0  0  0  0  0  0  0  0  0  0  0  0
   26.9161  -20.8385   -8.7837 C   0  0  0  0  0  0  0  0  0  0  0  0
   25.6840  -21.3566   -8.5098 C   0  0  0  0  0  0  0  0  0  0  0  0
   25.3767  -21.0800   -7.2389 N   0  0  0  0  0  0  0  0  0  0  0  0
   26.3853  -20.3933   -6.6856 C   0  0  0  0  0  0  0  0  0  0  0  0
   26.5857  -19.8663   -5.4167 C   0  0  0  0  0  0  0  0  0  0  0  0
   27.7411  -19.1804   -5.0795 C   0  0  0  0  0  0  0  0  0  0  0  0
   28.7281  -19.0110   -6.0254 C   0  0  0  0  0  0  0  0  0  0  0  0
   28.5363  -19.5309   -7.2859 C   0  0  0  0  0  0  0  0  0  0  0  0
   27.3711  -20.2190   -7.6162 C   0  0  0  0  0  0  0  0  0  0  0  0
   25.7197  -20.2687  -11.3231 C   0  0  0  0  0  0  0  0  0  0  0  0
   25.7360  -19.0306  -11.5735 O   0  0  0  0  0  0  0  0  0  0  0  0
   21.6884  -19.6237  -13.2985 C   0  0  0  0  0  0  0  0  0  0  0  0
   22.9338  -20.4083  -12.9538 C   0  0  1  0  0  0  0  0  0  0  0  0
   24.0174  -19.9953  -13.9174 C   0  0  0  0  0  0  0  0  0  0  0  0
   23.2670  -20.1532  -11.5148 C   0  0  2  0  0  0  0  0  0  0  0  0
   24.4553  -20.8539  -11.0876 N   0  0  0  0  0  0  0  0  0  0  0  0
   22.0731  -20.6135  -10.7237 C   0  0  0  0  0  0  0  0  0  0  0  0
   21.1042  -19.6867  -10.3228 O   0  0  0  0  0  0  0  0  0  0  0  0
   21.8995  -21.7980  -10.4005 O   0  0  0  0  0  0  0  0  0  0  0  0
  2  3  1  0
  2  1  1  6
  3  4  1  0
  5  2  1  0
  6  5  2  0
  7  5  1  0
  8  7  1  0
  8  9  1  1
 10  9  1  0
 10 18  1  0
 11 12  1  0
 11 10  2  0
 12 13  1  0
 13 18  2  0
 13 14  1  0
 14 15  2  0
 15 16  1  0
 17 16  2  0
 18 17  1  0
 19 20  2  0
 19  8  1  0
 22 24  1  0
 22 21  1  6
 23 22  1  0
 24 25  1  1
 25 19  1  0
 26 24  1  0
 27 26  1  0
 28 26  2  0
M  END
$$$$
