CWV.pdb
     RDKit          3D

 28 29  0  0  1  0  0  0  0  0999 V2000
   29.1435  -20.4326  -14.2070 N   0  0  0  0  0  0  0  0  0  0  0  0
   28.3990  -19.5827  -13.3314 C   0  0  1  0  0  0  0  0  0  0  0  0
   27.6752  -18.5416  -14.1583 C   0  0  0  0  0  0  0  0  0  0  0  0
   28.7502  -17.1336  -14.5471 S   0  0  0  0  0  0  0  0  0  0  0  0
   27.3743  -20.3021  -12.5312 C   0  0  0  0  0  0  0  0  0  0  0  0
   26.7589  -21.2979  -12.9935 O   0  0  0  0  0  0  0  0  0  0  0  0
   27.0166  -19.9134  -11.1857 N   0  0  0  0  0  0  0  0  0  0  0  0
   26.0013  -20.6407  -10.4538 C   0  0  1  0  0  0  0  0  0  0  0  0
   26.1340  -20.3926   -8.9892 C   0  0  0  0  0  0  0  0  0  0  0  0
   27.4358  -20.7091   -8.3978 C   0  0  0  0  0  0  0  0  0  0  0  0
   28.5129  -21.3700   -8.9124 C   0  0  0  0  0  0  0  0  0  0  0  0
   29.4772  -21.4012   -7.9875 N   0  0  0  0  0  0  0  0  0  0  0  0
   29.0452  -20.7739   -6.8854 C   0  0  0  0  0  0  0  0  0  0  0  0
   29.6301  -20.5201   -5.6518 C   0  0  0  0  0  0  0  0  0  0  0  0
   28.9640  -19.8341   -4.6495 C   0  0  0  0  0  0  0  0  0  0  0  0
   27.6811  -19.3851   -4.8739 C   0  0  0  0  0  0  0  0  0  0  0  0
   27.0947  -19.6331   -6.0948 C   0  0  0  0  0  0  0  0  0  0  0  0
   27.7720  -20.3241   -7.0969 C   0  0  0  0  0  0  0  0  0  0  0  0
   24.6322  -20.4157  -10.9399 C   0  0  0  0  0  0  0  0  0  0  0  0
   24.1659  -19.2495  -11.0762 O   0  0  0  0  0  0  0  0  0  0  0  0
   21.1539  -21.8429  -13.9346 C   0  0  0  0  0  0  0  0  0  0  0  0
   22.4270  -22.1908  -13.1971 C   0  0  1  0  0  0  0  0  0  0  0  0
   23.5557  -22.1715  -14.1964 C   0  0  0  0  0  0  0  0  0  0  0  0
   22.5958  -21.2207  -12.0669 C   0  0  2  0  0  0  0  0  0  0  0  0
   23.7758  -21.4873  -11.2782 N   0  0  0  0  0  0  0  0  0  0  0  0
   21.3586  -21.3489  -11.2207 C   0  0  0  0  0  0  0  0  0  0  0  0
   20.2313  -20.5731  -11.5136 O   0  0  0  0  0  0  0  0  0  0  0  0
   21.2845  -22.1232  -10.2549 O   0  0  0  0  0  0  0  0  0  0  0  0
  2  3  1  0
  2  1  1  6
  3  4  1  0
  5  2  1  0
  6  5  2  0
  7  5  1  0
  8  7  1  0
  8  9  1  1
 10  9  1  0
 10 18  1  0
 11 12  1  0
 11 10  2  0
 12 13  1  0
 13 18  2  0
 13 14  1  0
 14 15  2  0
 15 16  1  0
 17 16  2  0
 18 17  1  0
 19 20  2  0
 19  8  1  0
 22 24  1  0
 22 21  1  6
 23 22  1  0
 24 25  1  1
 25 19  1  0
 26 24  1  0
 27 26  1  0
 28 26  2  0
M  END
$$$$
