PLM.pdb
     RDKit          3D

 24 24  0  0  1  0  0  0  0  0999 V2000
    6.5587  -20.2852   21.8689 N   0  0  0  0  0  0  0  0  0  0  0  0
    7.1004  -20.9396   23.0209 C   0  0  0  0  0  0  0  0  0  0  0  0
    6.1345  -20.5175   24.1170 C   0  0  0  0  0  0  0  0  0  0  0  0
    5.7992  -19.0973   23.7139 C   0  0  0  0  0  0  0  0  0  0  0  0
    6.0857  -18.9913   22.2488 C   0  0  1  0  0  0  0  0  0  0  0  0
    7.1115  -17.9791   21.9299 C   0  0  0  0  0  0  0  0  0  0  0  0
    8.3111  -18.3034   21.7307 O   0  0  0  0  0  0  0  0  0  0  0  0
    8.8902  -13.6092   19.1737 C   0  0  0  0  0  0  0  0  0  0  0  0
    8.2357  -13.2824   20.5376 C   0  0  1  0  0  0  0  0  0  0  0  0
    7.5561  -11.9443   20.3418 C   0  0  0  0  0  0  0  0  0  0  0  0
    7.2518  -14.3380   20.8935 C   0  0  0  0  0  0  0  0  0  0  0  0
    7.7789  -15.5852   21.5306 C   0  0  2  0  0  0  0  0  0  0  0  0
    6.8121  -16.5804   21.8279 N   0  0  0  0  0  0  0  0  0  0  0  0
    8.6069  -15.1979   22.7075 C   0  0  0  0  0  0  0  0  0  0  0  0
    9.6607  -14.5638   22.4826 O   0  0  0  0  0  0  0  0  0  0  0  0
    7.0362  -10.8940   26.8367 C   0  0  0  0  0  0  0  0  0  0  0  0
    6.1578  -12.4135   26.4167 S   0  0  0  0  0  0  0  0  0  0  0  0
    7.1529  -13.4235   25.2567 C   0  0  0  0  0  0  0  0  0  0  0  0
    8.1965  -14.1709   26.0173 C   0  0  0  0  0  0  0  0  0  0  0  0
    9.0356  -15.1067   25.2032 C   0  0  2  0  0  0  0  0  0  0  0  0
    8.2590  -15.5109   24.0404 N   0  0  0  0  0  0  0  0  0  0  0  0
    9.4039  -16.3081   25.9973 C   0  0  0  0  0  0  0  0  0  0  0  0
   10.2767  -16.1970   27.0945 O   0  0  0  0  0  0  0  0  0  0  0  0
    8.9702  -17.4646   25.7431 O   0  0  0  0  0  0  0  0  0  0  0  0
  2  1  1  0
  3  2  1  0
  4  3  1  0
  4  5  1  0
  5  6  1  1
  5  1  1  0
  6  7  2  0
  9  8  1  6
  9 11  1  0
 10  9  1  0
 12 11  1  1
 13 12  1  0
 13  6  1  0
 14 15  2  0
 14 12  1  0
 16 17  1  0
 18 17  1  0
 18 19  1  0
 20 19  1  1
 20 22  1  0
 20 21  1  0
 21 14  1  0
 22 23  1  0
 24 22  2  0
M  END
$$$$
