PLM.pdb
     RDKit          3D

 24 24  0  0  1  0  0  0  0  0999 V2000
    7.8385  -16.8934   20.2908 N   0  0  0  0  0  0  0  0  0  0  0  0
    6.8163  -16.0541   19.7437 C   0  0  0  0  0  0  0  0  0  0  0  0
    7.5413  -15.3667   18.5972 C   0  0  0  0  0  0  0  0  0  0  0  0
    8.9307  -15.1790   19.1683 C   0  0  0  0  0  0  0  0  0  0  0  0
    9.0824  -16.1907   20.2608 C   0  0  1  0  0  0  0  0  0  0  0  0
    9.3370  -15.5840   21.5821 C   0  0  0  0  0  0  0  0  0  0  0  0
   10.3203  -14.8223   21.7739 O   0  0  0  0  0  0  0  0  0  0  0  0
    5.5780  -13.5178   25.4065 C   0  0  0  0  0  0  0  0  0  0  0  0
    6.7655  -13.7254   24.4359 C   0  0  1  0  0  0  0  0  0  0  0  0
    7.6225  -12.4869   24.5857 C   0  0  0  0  0  0  0  0  0  0  0  0
    7.5197  -14.9496   24.8123 C   0  0  0  0  0  0  0  0  0  0  0  0
    8.7364  -15.2843   24.0080 C   0  0  2  0  0  0  0  0  0  0  0  0
    8.4924  -15.8198   22.7168 N   0  0  0  0  0  0  0  0  0  0  0  0
    9.6301  -16.1377   24.8407 C   0  0  0  0  0  0  0  0  0  0  0  0
    9.9879  -17.2341   24.3578 O   0  0  0  0  0  0  0  0  0  0  0  0
   10.7327  -13.1090   29.5715 C   0  0  0  0  0  0  0  0  0  0  0  0
   11.9894  -14.2888   30.1061 S   0  0  0  0  0  0  0  0  0  0  0  0
   12.1249  -15.6629   28.9022 C   0  0  0  0  0  0  0  0  0  0  0  0
   10.7657  -16.0219   28.4022 C   0  0  0  0  0  0  0  0  0  0  0  0
   10.7309  -16.6802   27.0576 C   0  0  2  0  0  0  0  0  0  0  0  0
   10.0815  -15.7684   26.1274 N   0  0  0  0  0  0  0  0  0  0  0  0
    9.9698  -17.9557   27.1167 C   0  0  0  0  0  0  0  0  0  0  0  0
   10.6461  -19.1887   27.1384 O   0  0  0  0  0  0  0  0  0  0  0  0
    8.7103  -18.0085   27.1492 O   0  0  0  0  0  0  0  0  0  0  0  0
  2  1  1  0
  3  2  1  0
  4  3  1  0
  4  5  1  0
  5  6  1  1
  5  1  1  0
  6  7  2  0
  9  8  1  1
  9 11  1  0
 10  9  1  0
 12 11  1  1
 13 12  1  0
 13  6  1  0
 14 15  2  0
 14 12  1  0
 16 17  1  0
 18 17  1  0
 18 19  1  0
 20 19  1  1
 20 22  1  0
 20 21  1  0
 21 14  1  0
 22 23  1  0
 24 22  2  0
M  END
$$$$
