PLM.pdb
     RDKit          3D

 24 24  0  0  1  0  0  0  0  0999 V2000
    7.1540  -17.1380   21.0833 N   0  0  0  0  0  0  0  0  0  0  0  0
    6.1101  -16.3370   20.5200 C   0  0  0  0  0  0  0  0  0  0  0  0
    6.6388  -16.0524   19.1227 C   0  0  0  0  0  0  0  0  0  0  0  0
    8.1253  -15.9078   19.3701 C   0  0  0  0  0  0  0  0  0  0  0  0
    8.4166  -16.6287   20.6489 C   0  0  1  0  0  0  0  0  0  0  0  0
    8.9795  -15.7516   21.6941 C   0  0  0  0  0  0  0  0  0  0  0  0
   10.0844  -15.1704   21.5353 O   0  0  0  0  0  0  0  0  0  0  0  0
    5.8678  -13.1719   25.9698 C   0  0  0  0  0  0  0  0  0  0  0  0
    6.7844  -13.3613   24.7372 C   0  0  1  0  0  0  0  0  0  0  0  0
    7.3362  -11.9844   24.4367 C   0  0  0  0  0  0  0  0  0  0  0  0
    7.8748  -14.3188   25.0589 C   0  0  0  0  0  0  0  0  0  0  0  0
    8.8302  -14.6695   23.9618 C   0  0  2  0  0  0  0  0  0  0  0  0
    8.3135  -15.5084   22.9406 N   0  0  0  0  0  0  0  0  0  0  0  0
   10.0815  -15.1938   24.5780 C   0  0  0  0  0  0  0  0  0  0  0  0
   11.0821  -14.4442   24.5688 O   0  0  0  0  0  0  0  0  0  0  0  0
   11.6203  -14.2131   29.6403 C   0  0  0  0  0  0  0  0  0  0  0  0
    9.8448  -14.4187   29.3903 S   0  0  0  0  0  0  0  0  0  0  0  0
    9.4743  -16.1242   28.8335 C   0  0  0  0  0  0  0  0  0  0  0  0
    9.2960  -16.1360   27.3522 C   0  0  0  0  0  0  0  0  0  0  0  0
   10.4377  -16.7135   26.5740 C   0  0  2  0  0  0  0  0  0  0  0  0
   10.1838  -16.4767   25.1606 N   0  0  0  0  0  0  0  0  0  0  0  0
   10.5554  -18.1747   26.8202 C   0  0  0  0  0  0  0  0  0  0  0  0
   10.0353  -19.0974   25.8949 O   0  0  0  0  0  0  0  0  0  0  0  0
   11.1110  -18.6612   27.8423 O   0  0  0  0  0  0  0  0  0  0  0  0
  2  1  1  0
  3  2  1  0
  4  3  1  0
  4  5  1  0
  5  6  1  1
  5  1  1  0
  6  7  2  0
  9  8  1  1
  9 11  1  0
 10  9  1  0
 12 11  1  1
 13 12  1  0
 13  6  1  0
 14 15  2  0
 14 12  1  0
 16 17  1  0
 18 17  1  0
 18 19  1  0
 20 19  1  1
 20 22  1  0
 20 21  1  0
 21 14  1  0
 22 23  1  0
 24 22  2  0
M  END
$$$$
