PLM.pdb
     RDKit          3D

 24 24  0  0  1  0  0  0  0  0999 V2000
    7.2945  -17.8318   21.3141 N   0  0  0  0  0  0  0  0  0  0  0  0
    6.1357  -17.2189   20.7393 C   0  0  0  0  0  0  0  0  0  0  0  0
    6.5487  -17.0453   19.2859 C   0  0  0  0  0  0  0  0  0  0  0  0
    8.0206  -16.7143   19.4125 C   0  0  0  0  0  0  0  0  0  0  0  0
    8.4640  -17.2447   20.7399 C   0  0  1  0  0  0  0  0  0  0  0  0
    8.9811  -16.1958   21.6404 C   0  0  0  0  0  0  0  0  0  0  0  0
   10.0471  -15.5788   21.3821 O   0  0  0  0  0  0  0  0  0  0  0  0
    5.8400  -13.1979   25.5012 C   0  0  0  0  0  0  0  0  0  0  0  0
    6.7801  -13.5742   24.3308 C   0  0  1  0  0  0  0  0  0  0  0  0
    7.2732  -12.2548   23.7770 C   0  0  0  0  0  0  0  0  0  0  0  0
    7.9082  -14.4016   24.8328 C   0  0  0  0  0  0  0  0  0  0  0  0
    8.8684  -14.9444   23.8215 C   0  0  2  0  0  0  0  0  0  0  0  0
    8.3118  -15.8172   22.8509 N   0  0  0  0  0  0  0  0  0  0  0  0
   10.0307  -15.5324   24.5451 C   0  0  0  0  0  0  0  0  0  0  0  0
   11.1477  -15.0012   24.3620 O   0  0  0  0  0  0  0  0  0  0  0  0
    9.8783  -13.8219   29.0895 C   0  0  0  0  0  0  0  0  0  0  0  0
   10.9739  -15.0407   29.8453 S   0  0  0  0  0  0  0  0  0  0  0  0
   10.7073  -16.6891   29.0920 C   0  0  0  0  0  0  0  0  0  0  0  0
    9.9811  -16.5331   27.7980 C   0  0  0  0  0  0  0  0  0  0  0  0
   10.7793  -16.8552   26.5725 C   0  0  2  0  0  0  0  0  0  0  0  0
    9.9267  -16.6429   25.4121 N   0  0  0  0  0  0  0  0  0  0  0  0
   11.2377  -18.2690   26.6007 C   0  0  0  0  0  0  0  0  0  0  0  0
   10.7801  -19.1858   25.6374 O   0  0  0  0  0  0  0  0  0  0  0  0
   12.0395  -18.7188   27.4638 O   0  0  0  0  0  0  0  0  0  0  0  0
  2  1  1  0
  3  2  1  0
  4  3  1  0
  4  5  1  0
  5  6  1  1
  5  1  1  0
  6  7  2  0
  9  8  1  1
  9 11  1  0
 10  9  1  0
 12 11  1  1
 13 12  1  0
 13  6  1  0
 14 15  2  0
 14 12  1  0
 16 17  1  0
 18 17  1  0
 18 19  1  0
 20 19  1  1
 20 22  1  0
 20 21  1  0
 21 14  1  0
 22 23  1  0
 24 22  2  0
M  END
$$$$
