PLM.pdb
     RDKit          3D

 24 24  0  0  1  0  0  0  0  0999 V2000
    7.3387  -17.3387   21.3478 N   0  0  0  0  0  0  0  0  0  0  0  0
    6.1031  -16.7377   20.9470 C   0  0  0  0  0  0  0  0  0  0  0  0
    6.4250  -16.2389   19.5469 C   0  0  0  0  0  0  0  0  0  0  0  0
    7.8667  -15.8000   19.6909 C   0  0  0  0  0  0  0  0  0  0  0  0
    8.4217  -16.5395   20.8678 C   0  0  1  0  0  0  0  0  0  0  0  0
    8.8900  -15.6465   21.9458 C   0  0  0  0  0  0  0  0  0  0  0  0
    9.9130  -14.9277   21.8020 O   0  0  0  0  0  0  0  0  0  0  0  0
    5.4467  -13.1608   25.8208 C   0  0  0  0  0  0  0  0  0  0  0  0
    6.4794  -13.4356   24.7014 C   0  0  1  0  0  0  0  0  0  0  0  0
    6.9764  -12.0710   24.2752 C   0  0  0  0  0  0  0  0  0  0  0  0
    7.5895  -14.2710   25.2297 C   0  0  0  0  0  0  0  0  0  0  0  0
    8.6507  -14.6976   24.2648 C   0  0  2  0  0  0  0  0  0  0  0  0
    8.2192  -15.5417   23.2089 N   0  0  0  0  0  0  0  0  0  0  0  0
    9.7921  -15.2604   25.0401 C   0  0  0  0  0  0  0  0  0  0  0  0
   10.7538  -14.4979   25.2788 O   0  0  0  0  0  0  0  0  0  0  0  0
   10.1801  -13.0630   29.8775 C   0  0  0  0  0  0  0  0  0  0  0  0
   10.5286  -14.8226   29.6784 S   0  0  0  0  0  0  0  0  0  0  0  0
   10.8444  -15.2129   27.9167 C   0  0  0  0  0  0  0  0  0  0  0  0
   10.7540  -16.6878   27.7101 C   0  0  0  0  0  0  0  0  0  0  0  0
   10.9241  -17.1482   26.2952 C   0  0  2  0  0  0  0  0  0  0  0  0
    9.8334  -16.5929   25.5076 N   0  0  0  0  0  0  0  0  0  0  0  0
   10.8881  -18.6322   26.2178 C   0  0  0  0  0  0  0  0  0  0  0  0
   11.9263  -19.4002   26.7747 O   0  0  0  0  0  0  0  0  0  0  0  0
    9.9537  -19.2732   25.6644 O   0  0  0  0  0  0  0  0  0  0  0  0
  2  1  1  0
  3  2  1  0
  4  3  1  0
  4  5  1  0
  5  6  1  1
  5  1  1  0
  6  7  2  0
  9  8  1  1
  9 11  1  0
 10  9  1  0
 12 11  1  1
 13 12  1  0
 13  6  1  0
 14 15  2  0
 14 12  1  0
 16 17  1  0
 18 17  1  0
 18 19  1  0
 20 19  1  1
 20 22  1  0
 20 21  1  0
 21 14  1  0
 22 23  1  0
 24 22  2  0
M  END
$$$$
