PLM.pdb
     RDKit          3D

 24 24  0  0  1  0  0  0  0  0999 V2000
    7.5124  -16.8625   20.3044 N   0  0  0  0  0  0  0  0  0  0  0  0
    6.4217  -16.0815   19.8052 C   0  0  0  0  0  0  0  0  0  0  0  0
    7.0465  -15.3803   18.6091 C   0  0  0  0  0  0  0  0  0  0  0  0
    8.4557  -15.1180   19.0965 C   0  0  0  0  0  0  0  0  0  0  0  0
    8.7176  -16.1028   20.1927 C   0  0  1  0  0  0  0  0  0  0  0  0
    9.0177  -15.4625   21.4883 C   0  0  0  0  0  0  0  0  0  0  0  0
   10.0635  -14.7827   21.6556 O   0  0  0  0  0  0  0  0  0  0  0  0
    5.9166  -12.9066   25.9088 C   0  0  0  0  0  0  0  0  0  0  0  0
    6.8586  -13.1992   24.7163 C   0  0  1  0  0  0  0  0  0  0  0  0
    8.0552  -12.2959   24.9240 C   0  0  0  0  0  0  0  0  0  0  0  0
    7.2580  -14.6308   24.7253 C   0  0  0  0  0  0  0  0  0  0  0  0
    8.4427  -15.0213   23.8988 C   0  0  2  0  0  0  0  0  0  0  0  0
    8.1494  -15.5720   22.6243 N   0  0  0  0  0  0  0  0  0  0  0  0
    9.3277  -15.8889   24.7261 C   0  0  0  0  0  0  0  0  0  0  0  0
    9.0112  -17.0938   24.8326 O   0  0  0  0  0  0  0  0  0  0  0  0
   10.0327  -13.4114   29.8680 C   0  0  0  0  0  0  0  0  0  0  0  0
   11.0576  -14.7971   30.4030 S   0  0  0  0  0  0  0  0  0  0  0  0
   11.3766  -15.9311   29.0000 C   0  0  0  0  0  0  0  0  0  0  0  0
   10.8751  -15.3138   27.7376 C   0  0  0  0  0  0  0  0  0  0  0  0
   11.1324  -16.1038   26.4918 C   0  0  2  0  0  0  0  0  0  0  0  0
   10.4863  -15.4175   25.3827 N   0  0  0  0  0  0  0  0  0  0  0  0
   10.5785  -17.4775   26.6170 C   0  0  0  0  0  0  0  0  0  0  0  0
    9.1881  -17.6832   26.6688 O   0  0  0  0  0  0  0  0  0  0  0  0
   11.2990  -18.5103   26.6831 O   0  0  0  0  0  0  0  0  0  0  0  0
  2  1  1  0
  3  2  1  0
  4  3  1  0
  4  5  1  0
  5  6  1  1
  5  1  1  0
  6  7  2  0
  9  8  1  1
  9 11  1  0
 10  9  1  0
 12 11  1  1
 13 12  1  0
 13  6  1  0
 14 15  2  0
 14 12  1  0
 16 17  1  0
 18 17  1  0
 18 19  1  0
 20 19  1  1
 20 22  1  0
 20 21  1  0
 21 14  1  0
 22 23  1  0
 24 22  2  0
M  END
$$$$
