PLM.pdb
     RDKit          3D

 24 24  0  0  1  0  0  0  0  0999 V2000
    7.3304  -17.3380   21.7786 N   0  0  0  0  0  0  0  0  0  0  0  0
    6.1852  -16.6755   21.2323 C   0  0  0  0  0  0  0  0  0  0  0  0
    6.5598  -16.5389   19.7647 C   0  0  0  0  0  0  0  0  0  0  0  0
    8.0493  -16.2792   19.8410 C   0  0  0  0  0  0  0  0  0  0  0  0
    8.5083  -16.8157   21.1607 C   0  0  1  0  0  0  0  0  0  0  0  0
    9.1042  -15.7832   22.0311 C   0  0  0  0  0  0  0  0  0  0  0  0
   10.1225  -15.1351   21.6748 O   0  0  0  0  0  0  0  0  0  0  0  0
    6.0605  -12.5832   25.4642 C   0  0  0  0  0  0  0  0  0  0  0  0
    7.0872  -13.0590   24.4084 C   0  0  1  0  0  0  0  0  0  0  0  0
    7.5584  -11.7984   23.7158 C   0  0  0  0  0  0  0  0  0  0  0  0
    8.2152  -13.7583   25.0775 C   0  0  0  0  0  0  0  0  0  0  0  0
    9.1640  -14.5236   24.2095 C   0  0  2  0  0  0  0  0  0  0  0  0
    8.5692  -15.4564   23.3208 N   0  0  0  0  0  0  0  0  0  0  0  0
   10.2149  -15.1250   25.0780 C   0  0  0  0  0  0  0  0  0  0  0  0
   11.2096  -14.4170   25.3473 O   0  0  0  0  0  0  0  0  0  0  0  0
    9.6061  -13.8729   28.5643 C   0  0  0  0  0  0  0  0  0  0  0  0
    9.5844  -15.5046   29.3352 S   0  0  0  0  0  0  0  0  0  0  0  0
    9.0674  -16.7749   28.1207 C   0  0  0  0  0  0  0  0  0  0  0  0
   10.2558  -17.5718   27.6980 C   0  0  0  0  0  0  0  0  0  0  0  0
   11.0618  -16.9785   26.5840 C   0  0  2  0  0  0  0  0  0  0  0  0
   10.1370  -16.4354   25.6000 N   0  0  0  0  0  0  0  0  0  0  0  0
   11.9165  -18.0133   25.9451 C   0  0  0  0  0  0  0  0  0  0  0  0
   11.6983  -18.3918   24.6083 O   0  0  0  0  0  0  0  0  0  0  0  0
   12.8598  -18.5974   26.5444 O   0  0  0  0  0  0  0  0  0  0  0  0
  2  1  1  0
  3  2  1  0
  4  3  1  0
  4  5  1  0
  5  6  1  1
  5  1  1  0
  6  7  2  0
  9  8  1  1
  9 11  1  0
 10  9  1  0
 12 11  1  1
 13 12  1  0
 13  6  1  0
 14 15  2  0
 14 12  1  0
 16 17  1  0
 18 17  1  0
 18 19  1  0
 20 19  1  1
 20 22  1  0
 20 21  1  0
 21 14  1  0
 22 23  1  0
 24 22  2  0
M  END
$$$$
