PLM.pdb
     RDKit          3D

 24 24  0  0  1  0  0  0  0  0999 V2000
    7.3350  -16.7613   21.8500 N   0  0  0  0  0  0  0  0  0  0  0  0
    6.2458  -16.0437   21.2607 C   0  0  0  0  0  0  0  0  0  0  0  0
    6.7768  -15.7344   19.8697 C   0  0  0  0  0  0  0  0  0  0  0  0
    8.2444  -15.4797   20.1404 C   0  0  0  0  0  0  0  0  0  0  0  0
    8.5647  -16.1656   21.4316 C   0  0  1  0  0  0  0  0  0  0  0  0
    9.0440  -15.2401   22.4768 C   0  0  0  0  0  0  0  0  0  0  0  0
   10.0863  -14.5536   22.3150 O   0  0  0  0  0  0  0  0  0  0  0  0
    5.5733  -12.5038   26.1173 C   0  0  0  0  0  0  0  0  0  0  0  0
    6.6685  -12.7986   25.0643 C   0  0  1  0  0  0  0  0  0  0  0  0
    7.2270  -11.4448   24.6821 C   0  0  0  0  0  0  0  0  0  0  0  0
    7.7202  -13.6662   25.6561 C   0  0  0  0  0  0  0  0  0  0  0  0
    8.7916  -14.1720   24.7419 C   0  0  2  0  0  0  0  0  0  0  0  0
    8.3629  -15.0658   23.7266 N   0  0  0  0  0  0  0  0  0  0  0  0
    9.9020  -14.7147   25.5743 C   0  0  0  0  0  0  0  0  0  0  0  0
   10.3934  -13.9566   26.4385 O   0  0  0  0  0  0  0  0  0  0  0  0
   12.3379  -15.1504   29.7748 C   0  0  0  0  0  0  0  0  0  0  0  0
   10.8383  -16.1105   30.0686 S   0  0  0  0  0  0  0  0  0  0  0  0
   10.7225  -17.4916   28.8706 C   0  0  0  0  0  0  0  0  0  0  0  0
   10.1285  -16.9952   27.5951 C   0  0  0  0  0  0  0  0  0  0  0  0
   11.1048  -16.7499   26.4864 C   0  0  2  0  0  0  0  0  0  0  0  0
   10.4136  -16.0238   25.4312 N   0  0  0  0  0  0  0  0  0  0  0  0
   11.6227  -18.0353   25.9486 C   0  0  0  0  0  0  0  0  0  0  0  0
   12.5297  -18.8070   26.6967 O   0  0  0  0  0  0  0  0  0  0  0  0
   11.2911  -18.4976   24.8232 O   0  0  0  0  0  0  0  0  0  0  0  0
  2  1  1  0
  3  2  1  0
  4  3  1  0
  4  5  1  0
  5  6  1  1
  5  1  1  0
  6  7  2  0
  9  8  1  1
  9 11  1  0
 10  9  1  0
 12 11  1  1
 13 12  1  0
 13  6  1  0
 14 15  2  0
 14 12  1  0
 16 17  1  0
 18 17  1  0
 18 19  1  0
 20 19  1  1
 20 22  1  0
 20 21  1  0
 21 14  1  0
 22 23  1  0
 24 22  2  0
M  END
$$$$
