PLM.pdb
     RDKit          3D

 24 24  0  0  1  0  0  0  0  0999 V2000
    7.6034  -16.4391   19.9317 N   0  0  0  0  0  0  0  0  0  0  0  0
    6.6015  -15.5150   19.4948 C   0  0  0  0  0  0  0  0  0  0  0  0
    7.3565  -14.6778   18.4741 C   0  0  0  0  0  0  0  0  0  0  0  0
    8.7364  -14.5947   19.0912 C   0  0  0  0  0  0  0  0  0  0  0  0
    8.8554  -15.7568   20.0269 C   0  0  1  0  0  0  0  0  0  0  0  0
    9.0906  -15.3527   21.4269 C   0  0  0  0  0  0  0  0  0  0  0  0
   10.1940  -14.8701   21.7921 O   0  0  0  0  0  0  0  0  0  0  0  0
    7.5839  -12.4460   25.2186 C   0  0  0  0  0  0  0  0  0  0  0  0
    7.1791  -13.8519   25.7234 C   0  0  1  0  0  0  0  0  0  0  0  0
    5.8509  -13.6562   26.4223 C   0  0  0  0  0  0  0  0  0  0  0  0
    7.0491  -14.7852   24.5739 C   0  0  0  0  0  0  0  0  0  0  0  0
    8.2899  -15.1027   23.8001 C   0  0  2  0  0  0  0  0  0  0  0  0
    8.0913  -15.4821   22.4472 N   0  0  0  0  0  0  0  0  0  0  0  0
    9.0889  -16.0912   24.5779 C   0  0  0  0  0  0  0  0  0  0  0  0
    9.1269  -17.2639   24.1460 O   0  0  0  0  0  0  0  0  0  0  0  0
   10.1558  -12.2151   29.3906 C   0  0  0  0  0  0  0  0  0  0  0  0
   10.3700  -14.0063   29.4433 S   0  0  0  0  0  0  0  0  0  0  0  0
   11.0531  -14.6120   27.8551 C   0  0  0  0  0  0  0  0  0  0  0  0
   10.9671  -16.1010   27.8123 C   0  0  0  0  0  0  0  0  0  0  0  0
   10.6693  -16.6871   26.4668 C   0  0  2  0  0  0  0  0  0  0  0  0
    9.7915  -15.7663   25.7597 N   0  0  0  0  0  0  0  0  0  0  0  0
    9.9984  -18.0063   26.6053 C   0  0  0  0  0  0  0  0  0  0  0  0
   10.7588  -19.1816   26.7420 O   0  0  0  0  0  0  0  0  0  0  0  0
    8.7454  -18.1480   26.6079 O   0  0  0  0  0  0  0  0  0  0  0  0
  2  1  1  0
  3  2  1  0
  4  3  1  0
  4  5  1  0
  5  6  1  1
  5  1  1  0
  6  7  2  0
  9  8  1  6
  9 11  1  0
 10  9  1  0
 12 11  1  1
 13 12  1  0
 13  6  1  0
 14 15  2  0
 14 12  1  0
 16 17  1  0
 18 17  1  0
 18 19  1  0
 20 19  1  1
 20 22  1  0
 20 21  1  0
 21 14  1  0
 22 23  1  0
 24 22  2  0
M  END
$$$$
