HAE.pdb
     RDKit          3D

 25 25  0  0  1  0  0  0  0  0999 V2000
    7.5654  -15.4849   19.0192 N   0  0  0  0  0  0  0  0  0  0  0  0
    8.9514  -15.0897   19.1336 C   0  0  1  0  0  0  0  0  0  0  0  0
    9.0790  -13.7500   18.4021 C   0  0  0  0  0  0  0  0  0  0  0  0
    8.6076  -13.9054   17.0108 C   0  0  0  0  0  0  0  0  0  0  0  0
    7.5240  -13.2790   16.4559 C   0  0  0  0  0  0  0  0  0  0  0  0
    7.4525  -13.7049   15.1603 N   0  0  0  0  0  0  0  0  0  0  0  0
    8.4536  -14.5660   14.9128 C   0  0  0  0  0  0  0  0  0  0  0  0
    9.1588  -14.6790   16.0674 N   0  0  0  0  0  0  0  0  0  0  0  0
    9.3394  -14.8129   20.5439 C   0  0  0  0  0  0  0  0  0  0  0  0
   10.5383  -14.5013   20.7770 O   0  0  0  0  0  0  0  0  0  0  0  0
    7.6722  -14.6357   23.8650 C   0  0  0  0  0  0  0  0  0  0  0  0
    8.9193  -14.7645   22.9988 C   0  0  2  0  0  0  0  0  0  0  0  0
    8.4605  -14.8748   21.6339 N   0  0  0  0  0  0  0  0  0  0  0  0
    9.6580  -15.9677   23.4438 C   0  0  0  0  0  0  0  0  0  0  0  0
    9.3041  -17.1415   23.1802 O   0  0  0  0  0  0  0  0  0  0  0  0
   10.8308  -15.7897   24.2107 N   0  0  0  0  0  0  0  0  0  0  0  0
   11.6653  -16.9951   24.5733 C   0  0  1  0  0  0  0  0  0  0  0  0
   13.0494  -16.5121   24.3158 C   0  0  0  0  0  0  0  0  0  0  0  0
   14.1676  -17.4098   24.6178 C   0  0  0  0  0  0  0  0  0  0  0  0
   15.4932  -16.8696   24.3290 C   0  0  0  0  0  0  0  0  0  0  0  0
   15.6250  -15.6892   23.8828 O   0  0  0  0  0  0  0  0  0  0  0  0
   11.4196  -17.3149   25.9838 C   0  0  0  0  0  0  0  0  0  0  0  0
   10.8459  -16.5886   26.8068 O   0  0  0  0  0  0  0  0  0  0  0  0
   16.6327  -17.6266   24.5391 O   0  0  0  0  0  0  0  0  0  0  0  0
   11.8855  -18.5757   26.4405 O   0  0  0  0  0  0  0  0  0  0  0  0
  2  1  1  1
  2  9  1  0
  3  4  1  0
  3  2  1  0
  4  8  1  0
  4  5  2  0
  5  6  1  0
  7  6  1  0
  8  7  2  0
  9 13  1  0
  9 10  2  0
 12 11  1  1
 12 14  1  0
 13 12  1  0
 14 16  1  0
 14 15  2  0
 16 17  1  0
 17 22  1  0
 17 18  1  1
 19 20  1  0
 19 18  1  0
 20 24  1  0
 21 20  2  0
 22 25  1  0
 23 22  2  0
M  END
$$$$
