HAE.pdb
     RDKit          3D

 25 25  0  0  1  0  0  0  0  0999 V2000
   11.2102  -16.8474   20.0535 N   0  0  0  0  0  0  0  0  0  0  0  0
   10.1470  -17.3873   20.8712 C   0  0  1  0  0  0  0  0  0  0  0  0
   10.1580  -18.9024   20.6464 C   0  0  0  0  0  0  0  0  0  0  0  0
    9.4702  -19.2137   19.3767 C   0  0  0  0  0  0  0  0  0  0  0  0
    8.9650  -18.2986   18.4925 C   0  0  0  0  0  0  0  0  0  0  0  0
    8.4201  -19.0140   17.4646 N   0  0  0  0  0  0  0  0  0  0  0  0
    8.5777  -20.3278   17.6963 C   0  0  0  0  0  0  0  0  0  0  0  0
    9.2292  -20.4344   18.8827 N   0  0  0  0  0  0  0  0  0  0  0  0
   10.4078  -17.1975   22.3245 C   0  0  0  0  0  0  0  0  0  0  0  0
   11.5892  -17.3472   22.7375 O   0  0  0  0  0  0  0  0  0  0  0  0
    8.5681  -15.9424   25.2859 C   0  0  0  0  0  0  0  0  0  0  0  0
    9.7300  -16.7138   24.6722 C   0  0  2  0  0  0  0  0  0  0  0  0
    9.4271  -16.8624   23.2680 N   0  0  0  0  0  0  0  0  0  0  0  0
    9.8272  -18.0167   25.3684 C   0  0  0  0  0  0  0  0  0  0  0  0
    9.0926  -19.0006   25.1142 O   0  0  0  0  0  0  0  0  0  0  0  0
   10.8023  -18.1662   26.3794 N   0  0  0  0  0  0  0  0  0  0  0  0
   10.9765  -19.5116   27.0432 C   0  0  1  0  0  0  0  0  0  0  0  0
   12.4148  -19.4929   27.4257 C   0  0  0  0  0  0  0  0  0  0  0  0
   13.4194  -19.5695   26.3615 C   0  0  0  0  0  0  0  0  0  0  0  0
   14.8071  -19.5084   26.8118 C   0  0  0  0  0  0  0  0  0  0  0  0
   15.0813  -19.4531   28.0494 O   0  0  0  0  0  0  0  0  0  0  0  0
   10.0739  -19.5729   28.1981 C   0  0  0  0  0  0  0  0  0  0  0  0
    9.4246  -18.6281   28.6670 O   0  0  0  0  0  0  0  0  0  0  0  0
   15.8520  -19.5148   25.9041 O   0  0  0  0  0  0  0  0  0  0  0  0
    9.9370  -20.8359   28.8317 O   0  0  0  0  0  0  0  0  0  0  0  0
  2  1  1  6
  2  9  1  0
  3  4  1  0
  3  2  1  0
  4  8  1  0
  4  5  2  0
  5  6  1  0
  7  6  1  0
  8  7  2  0
  9 13  1  0
  9 10  2  0
 12 11  1  1
 12 14  1  0
 13 12  1  0
 14 16  1  0
 14 15  2  0
 16 17  1  0
 17 22  1  0
 17 18  1  1
 19 20  1  0
 19 18  1  0
 20 24  1  0
 21 20  2  0
 22 25  1  0
 23 22  2  0
M  END
$$$$
