HAE.pdb
     RDKit          3D

 25 25  0  0  1  0  0  0  0  0999 V2000
    9.5231  -14.6795   14.7487 N   0  0  0  0  0  0  0  0  0  0  0  0
    8.6858  -15.1352   15.8357 C   0  0  1  0  0  0  0  0  0  0  0  0
    8.8494  -16.6570   15.8965 C   0  0  0  0  0  0  0  0  0  0  0  0
    8.2352  -17.2633   14.6977 C   0  0  0  0  0  0  0  0  0  0  0  0
    7.0262  -16.9199   14.1546 C   0  0  0  0  0  0  0  0  0  0  0  0
    6.8496  -17.7234   13.0645 N   0  0  0  0  0  0  0  0  0  0  0  0
    7.9079  -18.5399   12.9299 C   0  0  0  0  0  0  0  0  0  0  0  0
    8.7558  -18.2425   13.9477 N   0  0  0  0  0  0  0  0  0  0  0  0
    9.1572  -14.6301   17.1544 C   0  0  0  0  0  0  0  0  0  0  0  0
   10.3731  -14.7866   17.4470 O   0  0  0  0  0  0  0  0  0  0  0  0
    7.6487  -12.9637   20.1268 C   0  0  0  0  0  0  0  0  0  0  0  0
    8.8180  -13.6262   19.4088 C   0  0  2  0  0  0  0  0  0  0  0  0
    8.3394  -13.9902   18.0958 N   0  0  0  0  0  0  0  0  0  0  0  0
    9.2300  -14.8044   20.2049 C   0  0  0  0  0  0  0  0  0  0  0  0
    8.7449  -15.9512   20.0570 O   0  0  0  0  0  0  0  0  0  0  0  0
   10.2273  -14.6329   21.1904 N   0  0  0  0  0  0  0  0  0  0  0  0
   10.7100  -15.8341   21.9683 C   0  0  1  0  0  0  0  0  0  0  0  0
   12.1794  -15.6040   22.0281 C   0  0  0  0  0  0  0  0  0  0  0  0
   12.9950  -16.5180   22.8324 C   0  0  0  0  0  0  0  0  0  0  0  0
   14.4289  -16.2415   22.8239 C   0  0  0  0  0  0  0  0  0  0  0  0
   15.2350  -17.0356   22.2501 O   0  0  0  0  0  0  0  0  0  0  0  0
   10.0693  -15.8128   23.2879 C   0  0  0  0  0  0  0  0  0  0  0  0
    9.4104  -14.8782   23.7635 O   0  0  0  0  0  0  0  0  0  0  0  0
   14.9401  -15.1092   23.4342 O   0  0  0  0  0  0  0  0  0  0  0  0
   10.2233  -16.9752   24.0883 O   0  0  0  0  0  0  0  0  0  0  0  0
  2  1  1  6
  2  9  1  0
  3  4  1  0
  3  2  1  0
  4  8  1  0
  4  5  2  0
  5  6  1  0
  7  6  1  0
  8  7  2  0
  9 13  1  0
  9 10  2  0
 12 11  1  1
 12 14  1  0
 13 12  1  0
 14 16  1  0
 14 15  2  0
 16 17  1  0
 17 22  1  0
 17 18  1  1
 19 20  1  0
 19 18  1  0
 20 24  1  0
 21 20  2  0
 22 25  1  0
 23 22  2  0
M  END
$$$$
