HAE.pdb
     RDKit          3D

 25 25  0  0  1  0  0  0  0  0999 V2000
    9.7325  -14.9124   14.9059 N   0  0  0  0  0  0  0  0  0  0  0  0
    8.5657  -14.9674   15.7580 C   0  0  1  0  0  0  0  0  0  0  0  0
    8.0931  -16.4243   15.7475 C   0  0  0  0  0  0  0  0  0  0  0  0
    7.5254  -16.7450   14.4221 C   0  0  0  0  0  0  0  0  0  0  0  0
    7.1766  -15.8379   13.4577 C   0  0  0  0  0  0  0  0  0  0  0  0
    6.6990  -16.5604   12.4017 N   0  0  0  0  0  0  0  0  0  0  0  0
    6.7465  -17.8708   12.6936 C   0  0  0  0  0  0  0  0  0  0  0  0
    7.2601  -17.9681   13.9466 N   0  0  0  0  0  0  0  0  0  0  0  0
    8.8953  -14.6649   17.1779 C   0  0  0  0  0  0  0  0  0  0  0  0
    9.9516  -15.1577   17.6574 O   0  0  0  0  0  0  0  0  0  0  0  0
    7.3102  -12.8366   20.0095 C   0  0  0  0  0  0  0  0  0  0  0  0
    8.4616  -13.6275   19.4007 C   0  0  2  0  0  0  0  0  0  0  0  0
    8.1096  -13.8669   18.0207 N   0  0  0  0  0  0  0  0  0  0  0  0
    8.6063  -14.8833   20.1712 C   0  0  0  0  0  0  0  0  0  0  0  0
    8.3453  -16.0196   19.7096 O   0  0  0  0  0  0  0  0  0  0  0  0
    9.0645  -14.8032   21.5049 N   0  0  0  0  0  0  0  0  0  0  0  0
    9.6206  -16.0402   22.1695 C   0  0  1  0  0  0  0  0  0  0  0  0
   10.7959  -16.3591   21.3137 C   0  0  0  0  0  0  0  0  0  0  0  0
   11.6428  -17.4947   21.6890 C   0  0  0  0  0  0  0  0  0  0  0  0
   12.7505  -17.7710   20.7784 C   0  0  0  0  0  0  0  0  0  0  0  0
   13.4126  -16.8200   20.2617 O   0  0  0  0  0  0  0  0  0  0  0  0
    9.9879  -15.6942   23.5471 C   0  0  0  0  0  0  0  0  0  0  0  0
   10.1918  -14.5528   23.9825 O   0  0  0  0  0  0  0  0  0  0  0  0
   13.1064  -19.0707   20.4627 O   0  0  0  0  0  0  0  0  0  0  0  0
   10.1198  -16.7733   24.4601 O   0  0  0  0  0  0  0  0  0  0  0  0
  2  1  1  6
  2  9  1  0
  3  4  1  0
  3  2  1  0
  4  8  1  0
  4  5  2  0
  5  6  1  0
  7  6  1  0
  8  7  2  0
  9 13  1  0
  9 10  2  0
 12 11  1  1
 12 14  1  0
 13 12  1  0
 14 16  1  0
 14 15  2  0
 16 17  1  0
 17 22  1  0
 17 18  1  6
 19 20  1  0
 19 18  1  0
 20 24  1  0
 21 20  2  0
 22 25  1  0
 23 22  2  0
M  END
$$$$
