HAE.pdb
     RDKit          3D

 25 25  0  0  1  0  0  0  0  0999 V2000
    8.9485  -14.8916   14.7748 N   0  0  0  0  0  0  0  0  0  0  0  0
    8.1604  -15.3060   15.9139 C   0  0  1  0  0  0  0  0  0  0  0  0
    8.2491  -16.8343   15.9658 C   0  0  0  0  0  0  0  0  0  0  0  0
    7.3749  -17.4107   14.9240 C   0  0  0  0  0  0  0  0  0  0  0  0
    6.0252  -17.6143   15.0313 C   0  0  0  0  0  0  0  0  0  0  0  0
    5.6211  -18.1608   13.8468 N   0  0  0  0  0  0  0  0  0  0  0  0
    6.6778  -18.2950   13.0282 C   0  0  0  0  0  0  0  0  0  0  0  0
    7.7547  -17.8263   13.7093 N   0  0  0  0  0  0  0  0  0  0  0  0
    8.7410  -14.8286   17.1989 C   0  0  0  0  0  0  0  0  0  0  0  0
    9.9631  -15.0495   17.4137 O   0  0  0  0  0  0  0  0  0  0  0  0
    7.5417  -13.0077   20.2210 C   0  0  0  0  0  0  0  0  0  0  0  0
    8.6222  -13.7436   19.4381 C   0  0  2  0  0  0  0  0  0  0  0  0
    8.0198  -14.1480   18.1894 N   0  0  0  0  0  0  0  0  0  0  0  0
    9.0633  -14.8995   20.2511 C   0  0  0  0  0  0  0  0  0  0  0  0
    8.5303  -16.0334   20.1996 O   0  0  0  0  0  0  0  0  0  0  0  0
   10.1473  -14.7207   21.1389 N   0  0  0  0  0  0  0  0  0  0  0  0
   10.6432  -15.8982   21.9443 C   0  0  1  0  0  0  0  0  0  0  0  0
   12.1010  -15.6179   22.0518 C   0  0  0  0  0  0  0  0  0  0  0  0
   12.9201  -16.5008   22.8867 C   0  0  0  0  0  0  0  0  0  0  0  0
   14.3446  -16.1812   22.9172 C   0  0  0  0  0  0  0  0  0  0  0  0
   14.7337  -14.9890   23.1093 O   0  0  0  0  0  0  0  0  0  0  0  0
    9.9572  -15.8876   23.2411 C   0  0  0  0  0  0  0  0  0  0  0  0
    9.2740  -14.9606   23.6970 O   0  0  0  0  0  0  0  0  0  0  0  0
   15.3003  -17.1672   22.7434 O   0  0  0  0  0  0  0  0  0  0  0  0
   10.0939  -17.0516   24.0423 O   0  0  0  0  0  0  0  0  0  0  0  0
  2  1  1  6
  2  9  1  0
  3  4  1  0
  3  2  1  0
  4  8  1  0
  4  5  2  0
  5  6  1  0
  7  6  1  0
  8  7  2  0
  9 13  1  0
  9 10  2  0
 12 11  1  1
 12 14  1  0
 13 12  1  0
 14 16  1  0
 14 15  2  0
 16 17  1  0
 17 22  1  0
 17 18  1  1
 19 20  1  0
 19 18  1  0
 20 24  1  0
 21 20  2  0
 22 25  1  0
 23 22  2  0
M  END
$$$$
