HAE.pdb
     RDKit          3D

 25 25  0  0  1  0  0  0  0  0999 V2000
    9.7555  -17.3002   17.3672 N   0  0  0  0  0  0  0  0  0  0  0  0
   10.0870  -18.1833   18.4629 C   0  0  1  0  0  0  0  0  0  0  0  0
   11.1861  -19.1167   17.9464 C   0  0  0  0  0  0  0  0  0  0  0  0
   10.6715  -19.8896   16.7974 C   0  0  0  0  0  0  0  0  0  0  0  0
    9.8358  -20.9717   16.8679 C   0  0  0  0  0  0  0  0  0  0  0  0
    9.6141  -21.3737   15.5816 N   0  0  0  0  0  0  0  0  0  0  0  0
   10.2861  -20.5737   14.7371 C   0  0  0  0  0  0  0  0  0  0  0  0
   10.9347  -19.6610   15.5049 N   0  0  0  0  0  0  0  0  0  0  0  0
   10.6919  -17.4502   19.6087 C   0  0  0  0  0  0  0  0  0  0  0  0
   11.9373  -17.2571   19.5956 O   0  0  0  0  0  0  0  0  0  0  0  0
    9.4929  -15.7585   22.7018 C   0  0  0  0  0  0  0  0  0  0  0  0
   10.6102  -16.2746   21.8034 C   0  0  2  0  0  0  0  0  0  0  0  0
    9.9695  -16.9580   20.7042 N   0  0  0  0  0  0  0  0  0  0  0  0
   11.4596  -17.1792   22.6107 C   0  0  0  0  0  0  0  0  0  0  0  0
   11.1383  -18.3527   22.9142 O   0  0  0  0  0  0  0  0  0  0  0  0
   12.7060  -16.6979   23.0690 N   0  0  0  0  0  0  0  0  0  0  0  0
   13.5938  -17.6080   23.8842 C   0  0  1  0  0  0  0  0  0  0  0  0
   14.9568  -17.1543   23.4944 C   0  0  0  0  0  0  0  0  0  0  0  0
   15.3569  -15.7848   23.8288 C   0  0  0  0  0  0  0  0  0  0  0  0
   16.7110  -15.4170   23.4243 C   0  0  0  0  0  0  0  0  0  0  0  0
   17.7168  -15.8795   24.0440 O   0  0  0  0  0  0  0  0  0  0  0  0
   13.2968  -17.3865   25.3037 C   0  0  0  0  0  0  0  0  0  0  0  0
   12.5693  -16.4972   25.7662 O   0  0  0  0  0  0  0  0  0  0  0  0
   16.9289  -14.5633   22.3568 O   0  0  0  0  0  0  0  0  0  0  0  0
   13.9030  -18.2784   26.2269 O   0  0  0  0  0  0  0  0  0  0  0  0
  2  1  1  6
  2  9  1  0
  3  4  1  0
  3  2  1  0
  4  8  1  0
  4  5  2  0
  5  6  1  0
  7  6  1  0
  8  7  2  0
  9 13  1  0
  9 10  2  0
 12 11  1  1
 12 14  1  0
 13 12  1  0
 14 16  1  0
 14 15  2  0
 16 17  1  0
 17 22  1  0
 17 18  1  1
 19 20  1  0
 19 18  1  0
 20 24  1  0
 21 20  2  0
 22 25  1  0
 23 22  2  0
M  END
$$$$
