HAE.pdb
     RDKit          3D

 25 25  0  0  1  0  0  0  0  0999 V2000
   11.0253  -14.7524   16.9594 N   0  0  0  0  0  0  0  0  0  0  0  0
    9.7017  -15.0043   17.4841 C   0  0  1  0  0  0  0  0  0  0  0  0
    9.4404  -16.5013   17.2927 C   0  0  0  0  0  0  0  0  0  0  0  0
    9.3120  -16.7951   15.8507 C   0  0  0  0  0  0  0  0  0  0  0  0
    8.1411  -16.8433   15.1428 C   0  0  0  0  0  0  0  0  0  0  0  0
    8.4801  -17.1441   13.8545 N   0  0  0  0  0  0  0  0  0  0  0  0
    9.8132  -17.2797   13.7589 C   0  0  0  0  0  0  0  0  0  0  0  0
   10.3129  -17.0606   15.0022 N   0  0  0  0  0  0  0  0  0  0  0  0
    9.6285  -14.7708   18.9525 C   0  0  0  0  0  0  0  0  0  0  0  0
   10.6111  -15.1264   19.6573 O   0  0  0  0  0  0  0  0  0  0  0  0
    7.2186  -13.2428   21.3490 C   0  0  0  0  0  0  0  0  0  0  0  0
    8.5369  -13.9377   21.0308 C   0  0  2  0  0  0  0  0  0  0  0  0
    8.5388  -14.1806   19.6073 N   0  0  0  0  0  0  0  0  0  0  0  0
    8.5894  -15.1915   21.8163 C   0  0  0  0  0  0  0  0  0  0  0  0
    8.2019  -16.3029   21.3841 O   0  0  0  0  0  0  0  0  0  0  0  0
    9.1050  -15.1389   23.1303 N   0  0  0  0  0  0  0  0  0  0  0  0
    9.2343  -16.4175   23.9238 C   0  0  1  0  0  0  0  0  0  0  0  0
   10.3101  -17.1388   23.1905 C   0  0  0  0  0  0  0  0  0  0  0  0
   11.6853  -16.6471   23.3112 C   0  0  0  0  0  0  0  0  0  0  0  0
   12.6790  -17.3857   22.5370 C   0  0  0  0  0  0  0  0  0  0  0  0
   12.7850  -17.2056   21.2855 O   0  0  0  0  0  0  0  0  0  0  0  0
    9.6086  -16.0676   25.2985 C   0  0  0  0  0  0  0  0  0  0  0  0
    9.8046  -16.8647   26.2260 O   0  0  0  0  0  0  0  0  0  0  0  0
   13.5289  -18.2917   23.1475 O   0  0  0  0  0  0  0  0  0  0  0  0
    9.7583  -14.6852   25.5845 O   0  0  0  0  0  0  0  0  0  0  0  0
  2  1  1  1
  2  9  1  0
  3  4  1  0
  3  2  1  0
  4  8  1  0
  4  5  2  0
  5  6  1  0
  7  6  1  0
  8  7  2  0
  9 13  1  0
  9 10  2  0
 12 11  1  1
 12 14  1  0
 13 12  1  0
 14 16  1  0
 14 15  2  0
 16 17  1  0
 17 22  1  0
 17 18  1  6
 19 20  1  0
 19 18  1  0
 20 24  1  0
 21 20  2  0
 22 25  1  0
 23 22  2  0
M  END
$$$$
