HAE.pdb
     RDKit          3D

 25 25  0  0  1  0  0  0  0  0999 V2000
    8.4701  -12.7375   19.5773 N   0  0  0  0  0  0  0  0  0  0  0  0
    7.4744  -13.3701   20.4133 C   0  0  1  0  0  0  0  0  0  0  0  0
    7.1794  -14.7316   19.7765 C   0  0  0  0  0  0  0  0  0  0  0  0
    7.7065  -14.7508   18.3967 C   0  0  0  0  0  0  0  0  0  0  0  0
    7.5447  -13.7635   17.4620 C   0  0  0  0  0  0  0  0  0  0  0  0
    8.1887  -14.1884   16.3351 N   0  0  0  0  0  0  0  0  0  0  0  0
    8.7333  -15.3966   16.5554 C   0  0  0  0  0  0  0  0  0  0  0  0
    8.4261  -15.7301   17.8351 N   0  0  0  0  0  0  0  0  0  0  0  0
    7.9965  -13.6710   21.7746 C   0  0  0  0  0  0  0  0  0  0  0  0
    9.2347  -13.8685   21.9025 O   0  0  0  0  0  0  0  0  0  0  0  0
    6.6381  -13.8499   25.2355 C   0  0  0  0  0  0  0  0  0  0  0  0
    7.7609  -14.0511   24.2251 C   0  0  2  0  0  0  0  0  0  0  0  0
    7.2034  -13.7497   22.9275 N   0  0  0  0  0  0  0  0  0  0  0  0
    8.2182  -15.4553   24.3294 C   0  0  0  0  0  0  0  0  0  0  0  0
    7.7129  -16.4039   23.6835 O   0  0  0  0  0  0  0  0  0  0  0  0
    9.2857  -15.7500   25.2063 N   0  0  0  0  0  0  0  0  0  0  0  0
    9.7962  -17.1685   25.2964 C   0  0  1  0  0  0  0  0  0  0  0  0
   11.1127  -17.0765   24.6081 C   0  0  0  0  0  0  0  0  0  0  0  0
   11.9727  -18.2628   24.5888 C   0  0  0  0  0  0  0  0  0  0  0  0
   13.2282  -18.1079   23.8593 C   0  0  0  0  0  0  0  0  0  0  0  0
   13.9426  -17.0716   24.0185 O   0  0  0  0  0  0  0  0  0  0  0  0
    9.9113  -17.5247   26.7150 C   0  0  0  0  0  0  0  0  0  0  0  0
    9.9449  -18.6729   27.1780 O   0  0  0  0  0  0  0  0  0  0  0  0
   13.6697  -19.0856   22.9846 O   0  0  0  0  0  0  0  0  0  0  0  0
    9.9909  -16.4478   27.6365 O   0  0  0  0  0  0  0  0  0  0  0  0
  2  1  1  6
  2  9  1  0
  3  4  1  0
  3  2  1  0
  4  8  1  0
  4  5  2  0
  5  6  1  0
  7  6  1  0
  8  7  2  0
  9 13  1  0
  9 10  2  0
 12 11  1  1
 12 14  1  0
 13 12  1  0
 14 16  1  0
 14 15  2  0
 16 17  1  0
 17 22  1  0
 17 18  1  1
 19 20  1  0
 19 18  1  0
 20 24  1  0
 21 20  2  0
 22 25  1  0
 23 22  2  0
M  END
$$$$
