HAE.pdb
     RDKit          3D

 25 25  0  0  1  0  0  0  0  0999 V2000
   10.9386  -13.6111   19.7147 N   0  0  0  0  0  0  0  0  0  0  0  0
    9.6084  -13.8665   20.2205 C   0  0  1  0  0  0  0  0  0  0  0  0
    9.1007  -15.1118   19.4873 C   0  0  0  0  0  0  0  0  0  0  0  0
    8.6428  -14.7310   18.1355 C   0  0  0  0  0  0  0  0  0  0  0  0
    8.7768  -13.4952   17.5613 C   0  0  0  0  0  0  0  0  0  0  0  0
    8.2218  -13.5848   16.3167 N   0  0  0  0  0  0  0  0  0  0  0  0
    7.7573  -14.8297   16.1186 C   0  0  0  0  0  0  0  0  0  0  0  0
    8.0257  -15.5261   17.2528 N   0  0  0  0  0  0  0  0  0  0  0  0
    9.6193  -14.2300   21.6641 C   0  0  0  0  0  0  0  0  0  0  0  0
   10.6332  -14.8272   22.1156 O   0  0  0  0  0  0  0  0  0  0  0  0
    7.4328  -13.6530   24.6221 C   0  0  0  0  0  0  0  0  0  0  0  0
    8.6744  -14.2477   23.9689 C   0  0  2  0  0  0  0  0  0  0  0  0
    8.5766  -13.9526   22.5586 N   0  0  0  0  0  0  0  0  0  0  0  0
    8.6770  -15.7028   24.2410 C   0  0  0  0  0  0  0  0  0  0  0  0
    7.8167  -16.4982   23.7942 O   0  0  0  0  0  0  0  0  0  0  0  0
    9.7061  -16.2322   25.0510 N   0  0  0  0  0  0  0  0  0  0  0  0
    9.6739  -17.6959   25.4219 C   0  0  1  0  0  0  0  0  0  0  0  0
   11.0333  -18.1539   25.0248 C   0  0  0  0  0  0  0  0  0  0  0  0
   11.3845  -18.1406   23.6022 C   0  0  0  0  0  0  0  0  0  0  0  0
   12.7433  -17.6979   23.3021 C   0  0  0  0  0  0  0  0  0  0  0  0
   13.5621  -17.4498   24.2390 O   0  0  0  0  0  0  0  0  0  0  0  0
    9.4303  -17.7975   26.8650 C   0  0  0  0  0  0  0  0  0  0  0  0
    9.3347  -16.8499   27.6568 O   0  0  0  0  0  0  0  0  0  0  0  0
   13.1704  -17.5439   21.9945 O   0  0  0  0  0  0  0  0  0  0  0  0
    9.2923  -19.1068   27.3960 O   0  0  0  0  0  0  0  0  0  0  0  0
  2  1  1  6
  2  9  1  0
  3  4  1  0
  3  2  1  0
  4  8  1  0
  4  5  2  0
  5  6  1  0
  7  6  1  0
  8  7  2  0
  9 13  1  0
  9 10  2  0
 12 11  1  1
 12 14  1  0
 13 12  1  0
 14 16  1  0
 14 15  2  0
 16 17  1  0
 17 22  1  0
 17 18  1  1
 19 20  1  0
 19 18  1  0
 20 24  1  0
 21 20  2  0
 22 25  1  0
 23 22  2  0
M  END
$$$$
