HAE.pdb
     RDKit          3D

 25 25  0  0  1  0  0  0  0  0999 V2000
    8.0971  -12.8637   19.1600 N   0  0  0  0  0  0  0  0  0  0  0  0
    7.4642  -13.8411   20.0170 C   0  0  1  0  0  0  0  0  0  0  0  0
    7.7312  -15.2087   19.3811 C   0  0  0  0  0  0  0  0  0  0  0  0
    7.9513  -15.0390   17.9303 C   0  0  0  0  0  0  0  0  0  0  0  0
    7.9822  -13.8471   17.2573 C   0  0  0  0  0  0  0  0  0  0  0  0
    8.2114  -14.1495   15.9454 N   0  0  0  0  0  0  0  0  0  0  0  0
    8.3196  -15.4808   15.8017 C   0  0  0  0  0  0  0  0  0  0  0  0
    8.1565  -16.0163   17.0386 N   0  0  0  0  0  0  0  0  0  0  0  0
    8.0963  -13.8968   21.3637 C   0  0  0  0  0  0  0  0  0  0  0  0
    9.3154  -13.5910   21.4575 O   0  0  0  0  0  0  0  0  0  0  0  0
    7.0139  -14.1114   24.8751 C   0  0  0  0  0  0  0  0  0  0  0  0
    8.0924  -14.3184   23.8188 C   0  0  2  0  0  0  0  0  0  0  0  0
    7.4269  -14.2668   22.5382 N   0  0  0  0  0  0  0  0  0  0  0  0
    8.7277  -15.6316   24.0709 C   0  0  0  0  0  0  0  0  0  0  0  0
    8.2606  -16.7225   23.6658 O   0  0  0  0  0  0  0  0  0  0  0  0
    9.9305  -15.6641   24.8108 N   0  0  0  0  0  0  0  0  0  0  0  0
   10.5888  -16.9942   25.0907 C   0  0  1  0  0  0  0  0  0  0  0  0
   12.0305  -16.6835   24.8897 C   0  0  0  0  0  0  0  0  0  0  0  0
   12.6036  -16.8711   23.5541 C   0  0  0  0  0  0  0  0  0  0  0  0
   13.9988  -16.4636   23.4141 C   0  0  0  0  0  0  0  0  0  0  0  0
   14.6558  -16.0574   24.4206 O   0  0  0  0  0  0  0  0  0  0  0  0
   10.2697  -17.3822   26.4691 C   0  0  0  0  0  0  0  0  0  0  0  0
   10.2544  -18.5371   26.9164 O   0  0  0  0  0  0  0  0  0  0  0  0
   14.6368  -16.5153   22.1868 O   0  0  0  0  0  0  0  0  0  0  0  0
    9.9498  -16.3309   27.3678 O   0  0  0  0  0  0  0  0  0  0  0  0
  2  1  1  6
  2  9  1  0
  3  4  1  0
  3  2  1  0
  4  8  1  0
  4  5  2  0
  5  6  1  0
  7  6  1  0
  8  7  2  0
  9 13  1  0
  9 10  2  0
 12 11  1  1
 12 14  1  0
 13 12  1  0
 14 16  1  0
 14 15  2  0
 16 17  1  0
 17 22  1  0
 17 18  1  1
 19 20  1  0
 19 18  1  0
 20 24  1  0
 21 20  2  0
 22 25  1  0
 23 22  2  0
M  END
$$$$
