HAE.pdb
     RDKit          3D

 25 25  0  0  1  0  0  0  0  0999 V2000
    9.8176  -15.9182   19.7348 N   0  0  0  0  0  0  0  0  0  0  0  0
    9.0968  -15.3654   20.8597 C   0  0  1  0  0  0  0  0  0  0  0  0
    7.6542  -15.1600   20.3879 C   0  0  0  0  0  0  0  0  0  0  0  0
    7.6567  -14.3899   19.1273 C   0  0  0  0  0  0  0  0  0  0  0  0
    8.7673  -13.9707   18.4452 C   0  0  0  0  0  0  0  0  0  0  0  0
    8.3152  -13.3005   17.3445 N   0  0  0  0  0  0  0  0  0  0  0  0
    6.9718  -13.2997   17.3373 C   0  0  0  0  0  0  0  0  0  0  0  0
    6.5802  -13.9776   18.4465 N   0  0  0  0  0  0  0  0  0  0  0  0
    9.0126  -16.3240   21.9956 C   0  0  0  0  0  0  0  0  0  0  0  0
    8.4015  -15.9567   23.0350 O   0  0  0  0  0  0  0  0  0  0  0  0
    9.9618  -19.8545   22.6724 C   0  0  0  0  0  0  0  0  0  0  0  0
    9.5212  -18.4745   23.1452 C   0  0  2  0  0  0  0  0  0  0  0  0
    9.5676  -17.6110   21.9887 N   0  0  0  0  0  0  0  0  0  0  0  0
   10.4541  -18.0409   24.2098 C   0  0  0  0  0  0  0  0  0  0  0  0
   11.6509  -17.7282   24.0045 O   0  0  0  0  0  0  0  0  0  0  0  0
    9.9738  -17.9738   25.5365 N   0  0  0  0  0  0  0  0  0  0  0  0
   10.8933  -17.4844   26.6301 C   0  0  1  0  0  0  0  0  0  0  0  0
   10.2093  -16.2445   27.0888 C   0  0  0  0  0  0  0  0  0  0  0  0
   10.7265  -15.5636   28.2788 C   0  0  0  0  0  0  0  0  0  0  0  0
   10.0887  -14.2875   28.5906 C   0  0  0  0  0  0  0  0  0  0  0  0
    9.1200  -13.8628   27.8898 O   0  0  0  0  0  0  0  0  0  0  0  0
   10.9644  -18.5203   27.6665 C   0  0  0  0  0  0  0  0  0  0  0  0
   11.8858  -18.6764   28.4793 O   0  0  0  0  0  0  0  0  0  0  0  0
   10.5199  -13.5166   29.6562 O   0  0  0  0  0  0  0  0  0  0  0  0
    9.8720  -19.4241   27.7382 O   0  0  0  0  0  0  0  0  0  0  0  0
  2  1  1  6
  2  9  1  0
  3  4  1  0
  3  2  1  0
  4  8  1  0
  4  5  2  0
  5  6  1  0
  7  6  1  0
  8  7  2  0
  9 13  1  0
  9 10  2  0
 12 11  1  6
 12 14  1  0
 13 12  1  0
 14 16  1  0
 14 15  2  0
 16 17  1  0
 17 22  1  0
 17 18  1  1
 19 20  1  0
 19 18  1  0
 20 24  1  0
 21 20  2  0
 22 25  1  0
 23 22  2  0
M  END
$$$$
