HAE.pdb
     RDKit          3D

 25 25  0  0  1  0  0  0  0  0999 V2000
   10.2814  -14.2167   20.8983 N   0  0  0  0  0  0  0  0  0  0  0  0
    8.9857  -13.9472   21.4807 C   0  0  1  0  0  0  0  0  0  0  0  0
    8.0000  -14.8999   20.7976 C   0  0  0  0  0  0  0  0  0  0  0  0
    7.7606  -14.4456   19.4125 C   0  0  0  0  0  0  0  0  0  0  0  0
    8.3727  -13.3861   18.7984 C   0  0  0  0  0  0  0  0  0  0  0  0
    7.8608  -13.3235   17.5338 N   0  0  0  0  0  0  0  0  0  0  0  0
    6.9615  -14.3066   17.3622 C   0  0  0  0  0  0  0  0  0  0  0  0
    6.9114  -14.9917   18.5333 N   0  0  0  0  0  0  0  0  0  0  0  0
    8.9397  -14.2953   22.9274 C   0  0  0  0  0  0  0  0  0  0  0  0
    9.8007  -15.1030   23.3688 O   0  0  0  0  0  0  0  0  0  0  0  0
    6.7086  -13.6135   25.8238 C   0  0  0  0  0  0  0  0  0  0  0  0
    8.0057  -14.1514   25.2322 C   0  0  2  0  0  0  0  0  0  0  0  0
    8.0020  -13.7847   23.8354 N   0  0  0  0  0  0  0  0  0  0  0  0
    8.0198  -15.6185   25.4295 C   0  0  0  0  0  0  0  0  0  0  0  0
    7.2325  -16.4078   24.8554 O   0  0  0  0  0  0  0  0  0  0  0  0
    8.9735  -16.1673   26.3152 N   0  0  0  0  0  0  0  0  0  0  0  0
    8.9488  -17.6504   26.5995 C   0  0  1  0  0  0  0  0  0  0  0  0
    9.8341  -18.1929   25.5330 C   0  0  0  0  0  0  0  0  0  0  0  0
   11.2782  -17.9720   25.6477 C   0  0  0  0  0  0  0  0  0  0  0  0
   12.0834  -18.5624   24.5821 C   0  0  0  0  0  0  0  0  0  0  0  0
   12.3056  -19.8114   24.5587 O   0  0  0  0  0  0  0  0  0  0  0  0
    9.4760  -17.8666   27.9513 C   0  0  0  0  0  0  0  0  0  0  0  0
    9.9874  -17.0061   28.6807 O   0  0  0  0  0  0  0  0  0  0  0  0
   12.6166  -17.7784   23.5738 O   0  0  0  0  0  0  0  0  0  0  0  0
    9.3885  -19.1874   28.4643 O   0  0  0  0  0  0  0  0  0  0  0  0
  2  1  1  6
  2  9  1  0
  3  4  1  0
  3  2  1  0
  4  8  1  0
  4  5  2  0
  5  6  1  0
  7  6  1  0
  8  7  2  0
  9 13  1  0
  9 10  2  0
 12 11  1  1
 12 14  1  0
 13 12  1  0
 14 16  1  0
 14 15  2  0
 16 17  1  0
 17 22  1  0
 17 18  1  6
 19 20  1  0
 19 18  1  0
 20 24  1  0
 21 20  2  0
 22 25  1  0
 23 22  2  0
M  END
$$$$
