HAE.pdb
     RDKit          3D

 25 25  0  0  1  0  0  0  0  0999 V2000
    7.4654  -16.6746   19.9844 N   0  0  0  0  0  0  0  0  0  0  0  0
    8.8796  -16.3795   20.0433 C   0  0  1  0  0  0  0  0  0  0  0  0
    9.0030  -14.9855   20.6659 C   0  0  0  0  0  0  0  0  0  0  0  0
    8.4482  -13.9826   19.7340 C   0  0  0  0  0  0  0  0  0  0  0  0
    9.0996  -13.4386   18.6596 C   0  0  0  0  0  0  0  0  0  0  0  0
    8.2253  -12.5646   18.0791 N   0  0  0  0  0  0  0  0  0  0  0  0
    7.0697  -12.5609   18.7642 C   0  0  0  0  0  0  0  0  0  0  0  0
    7.2239  -13.4433   19.7845 N   0  0  0  0  0  0  0  0  0  0  0  0
    9.6038  -17.2948   20.9674 C   0  0  0  0  0  0  0  0  0  0  0  0
    9.2239  -17.3447   22.1681 O   0  0  0  0  0  0  0  0  0  0  0  0
   12.3564  -19.7910   20.7361 C   0  0  0  0  0  0  0  0  0  0  0  0
   11.3883  -18.9347   21.5432 C   0  0  2  0  0  0  0  0  0  0  0  0
   10.6823  -18.1079   20.5928 N   0  0  0  0  0  0  0  0  0  0  0  0
   12.1823  -18.1361   22.5041 C   0  0  0  0  0  0  0  0  0  0  0  0
   12.6880  -17.0207   22.2349 O   0  0  0  0  0  0  0  0  0  0  0  0
   12.3858  -18.6559   23.8017 N   0  0  0  0  0  0  0  0  0  0  0  0
   13.1857  -17.8538   24.8007 C   0  0  1  0  0  0  0  0  0  0  0  0
   12.5926  -18.2799   26.0976 C   0  0  0  0  0  0  0  0  0  0  0  0
   12.7966  -19.6634   26.5353 C   0  0  0  0  0  0  0  0  0  0  0  0
   12.1854  -20.0059   27.8166 C   0  0  0  0  0  0  0  0  0  0  0  0
   11.5647  -19.1278   28.4899 O   0  0  0  0  0  0  0  0  0  0  0  0
   14.5977  -18.2271   24.6624 C   0  0  0  0  0  0  0  0  0  0  0  0
   15.0371  -19.1939   24.0250 O   0  0  0  0  0  0  0  0  0  0  0  0
   12.2636  -21.2919   28.3226 O   0  0  0  0  0  0  0  0  0  0  0  0
   15.5422  -17.3987   25.3233 O   0  0  0  0  0  0  0  0  0  0  0  0
  2  1  1  1
  2  9  1  0
  3  4  1  0
  3  2  1  0
  4  8  1  0
  4  5  2  0
  5  6  1  0
  7  6  1  0
  8  7  2  0
  9 13  1  0
  9 10  2  0
 12 11  1  6
 12 14  1  0
 13 12  1  0
 14 16  1  0
 14 15  2  0
 16 17  1  0
 17 22  1  0
 17 18  1  1
 19 20  1  0
 19 18  1  0
 20 24  1  0
 21 20  2  0
 22 25  1  0
 23 22  2  0
M  END
$$$$
