HAE.pdb
     RDKit          3D

 25 25  0  0  1  0  0  0  0  0999 V2000
    8.5246  -17.1681   19.4270 N   0  0  0  0  0  0  0  0  0  0  0  0
    8.9726  -16.1012   20.2940 C   0  0  1  0  0  0  0  0  0  0  0  0
    7.9381  -14.9790   20.1656 C   0  0  0  0  0  0  0  0  0  0  0  0
    8.0029  -14.4070   18.8052 C   0  0  0  0  0  0  0  0  0  0  0  0
    8.6978  -13.2859   18.4383 C   0  0  0  0  0  0  0  0  0  0  0  0
    8.4850  -13.1197   17.0996 N   0  0  0  0  0  0  0  0  0  0  0  0
    7.6864  -14.0997   16.6449 C   0  0  0  0  0  0  0  0  0  0  0  0
    7.3974  -14.8875   17.7121 N   0  0  0  0  0  0  0  0  0  0  0  0
    8.9526  -16.5004   21.7280 C   0  0  0  0  0  0  0  0  0  0  0  0
    7.8382  -16.5388   22.3155 O   0  0  0  0  0  0  0  0  0  0  0  0
   11.1567  -18.2440   24.0672 C   0  0  0  0  0  0  0  0  0  0  0  0
   10.0115  -17.2625   23.8501 C   0  0  2  0  0  0  0  0  0  0  0  0
   10.0914  -16.8379   22.4721 N   0  0  0  0  0  0  0  0  0  0  0  0
   10.1918  -16.1390   24.7971 C   0  0  0  0  0  0  0  0  0  0  0  0
   10.9094  -15.1375   24.5637 O   0  0  0  0  0  0  0  0  0  0  0  0
    9.5188  -16.1926   26.0378 N   0  0  0  0  0  0  0  0  0  0  0  0
    9.6332  -15.0260   26.9902 C   0  0  1  0  0  0  0  0  0  0  0  0
    8.3094  -14.3623   26.8396 C   0  0  0  0  0  0  0  0  0  0  0  0
    8.0117  -13.2028   27.6848 C   0  0  0  0  0  0  0  0  0  0  0  0
    6.6865  -12.6196   27.4947 C   0  0  0  0  0  0  0  0  0  0  0  0
    5.8466  -13.1675   26.7174 O   0  0  0  0  0  0  0  0  0  0  0  0
    9.8618  -15.5563   28.3388 C   0  0  0  0  0  0  0  0  0  0  0  0
    9.5928  -16.7012   28.7273 O   0  0  0  0  0  0  0  0  0  0  0  0
    6.3146  -11.4635   28.1588 O   0  0  0  0  0  0  0  0  0  0  0  0
   10.4458  -14.6690   29.2805 O   0  0  0  0  0  0  0  0  0  0  0  0
  2  1  1  6
  2  9  1  0
  3  4  1  0
  3  2  1  0
  4  8  1  0
  4  5  2  0
  5  6  1  0
  7  6  1  0
  8  7  2  0
  9 13  1  0
  9 10  2  0
 12 11  1  1
 12 14  1  0
 13 12  1  0
 14 16  1  0
 14 15  2  0
 16 17  1  0
 17 22  1  0
 17 18  1  1
 19 20  1  0
 19 18  1  0
 20 24  1  0
 21 20  2  0
 22 25  1  0
 23 22  2  0
M  END
$$$$
