CPV.pdb
     RDKit          3D

 21 21  0  0  1  0  0  0  0  0999 V2000
    7.7566  -19.3394   21.7808 N   0  0  0  0  0  0  0  0  0  0  0  0
    7.3420  -18.2865   22.7411 C   0  0  1  0  0  0  0  0  0  0  0  0
    7.3714  -18.9424   24.1227 C   0  0  0  0  0  0  0  0  0  0  0  0
    6.7081  -17.6689   25.2661 S   0  0  0  0  0  0  0  0  0  0  0  0
    8.2444  -17.1517   22.6116 C   0  0  0  0  0  0  0  0  0  0  0  0
    9.4969  -17.3624   22.7612 O   0  0  0  0  0  0  0  0  0  0  0  0
    7.7840  -15.8510   22.3309 N   0  0  0  0  0  0  0  0  0  0  0  0
    6.3537  -15.6345   21.9883 C   0  0  0  0  0  0  0  0  0  0  0  0
    6.4598  -14.4012   21.0665 C   0  0  0  0  0  0  0  0  0  0  0  0
    7.4121  -13.5855   21.9023 C   0  0  0  0  0  0  0  0  0  0  0  0
    8.4562  -14.5942   22.3174 C   0  0  1  0  0  0  0  0  0  0  0  0
    8.8746  -14.1627   23.6898 C   0  0  0  0  0  0  0  0  0  0  0  0
    9.6338  -13.1934   23.8002 O   0  0  0  0  0  0  0  0  0  0  0  0
    8.0264  -12.0631   25.3787 C   0  0  0  0  0  0  0  0  0  0  0  0
    7.6479  -13.1137   26.3982 C   0  0  1  0  0  0  0  0  0  0  0  0
    6.1950  -13.4528   26.3685 C   0  0  0  0  0  0  0  0  0  0  0  0
    8.5417  -14.3089   26.1729 C   0  0  2  0  0  0  0  0  0  0  0  0
    8.4195  -14.8383   24.8326 N   0  0  0  0  0  0  0  0  0  0  0  0
    8.3018  -15.3351   27.2083 C   0  0  0  0  0  0  0  0  0  0  0  0
    7.8027  -16.4356   26.9262 O   0  0  0  0  0  0  0  0  0  0  0  0
    8.6432  -15.0550   28.5151 O   0  0  0  0  0  0  0  0  0  0  0  0
  2  1  1  6
  3  2  1  0
  4  3  1  0
  5  7  1  0
  5  2  1  0
  6  5  2  0
  7  8  1  0
  9  8  1  0
 10  9  1  0
 11 10  1  0
 11  7  1  0
 11 12  1  1
 12 18  1  0
 13 12  2  0
 15 14  1  6
 15 16  1  0
 17 15  1  0
 17 18  1  6
 19 17  1  0
 19 21  1  0
 20 19  2  0
M  END
$$$$
