CPV.pdb
     RDKit          3D

 21 21  0  0  1  0  0  0  0  0999 V2000
   11.6505  -16.3618   19.8541 N   0  0  0  0  0  0  0  0  0  0  0  0
   10.4092  -16.7382   20.5754 C   0  0  1  0  0  0  0  0  0  0  0  0
   10.5265  -18.2366   20.8604 C   0  0  0  0  0  0  0  0  0  0  0  0
   11.8053  -18.3712   22.1701 S   0  0  0  0  0  0  0  0  0  0  0  0
   10.2968  -15.9205   21.7744 C   0  0  0  0  0  0  0  0  0  0  0  0
   11.3595  -15.3713   22.2265 O   0  0  0  0  0  0  0  0  0  0  0  0
    9.0712  -15.7210   22.4382 N   0  0  0  0  0  0  0  0  0  0  0  0
    7.8300  -16.3286   21.8904 C   0  0  0  0  0  0  0  0  0  0  0  0
    6.7735  -15.3091   22.3663 C   0  0  0  0  0  0  0  0  0  0  0  0
    7.2526  -15.1452   23.7856 C   0  0  0  0  0  0  0  0  0  0  0  0
    8.7484  -15.0096   23.6304 C   0  0  1  0  0  0  0  0  0  0  0  0
    9.3165  -15.6662   24.8514 C   0  0  0  0  0  0  0  0  0  0  0  0
    9.6157  -16.8642   24.7947 O   0  0  0  0  0  0  0  0  0  0  0  0
   11.1101  -13.3193   27.7275 C   0  0  0  0  0  0  0  0  0  0  0  0
   10.3204  -14.4716   28.3064 C   0  0  1  0  0  0  0  0  0  0  0  0
    9.0293  -14.0398   28.9174 C   0  0  0  0  0  0  0  0  0  0  0  0
   10.1467  -15.4983   27.2137 C   0  0  2  0  0  0  0  0  0  0  0  0
    9.5088  -14.9448   26.0397 N   0  0  0  0  0  0  0  0  0  0  0  0
    9.4399  -16.6879   27.7312 C   0  0  0  0  0  0  0  0  0  0  0  0
    8.2509  -16.9073   27.4522 O   0  0  0  0  0  0  0  0  0  0  0  0
   10.1248  -17.5690   28.5420 O   0  0  0  0  0  0  0  0  0  0  0  0
  2  1  1  1
  3  2  1  0
  4  3  1  0
  5  7  1  0
  5  2  1  0
  6  5  2  0
  7  8  1  0
  9  8  1  0
 10  9  1  0
 11 10  1  0
 11  7  1  0
 11 12  1  1
 12 18  1  0
 13 12  2  0
 15 14  1  6
 15 16  1  0
 17 15  1  0
 17 18  1  6
 19 17  1  0
 19 21  1  0
 20 19  2  0
M  END
$$$$
