CPV.pdb
     RDKit          3D

 21 21  0  0  1  0  0  0  0  0999 V2000
    8.1215  -18.4859   20.8827 N   0  0  0  0  0  0  0  0  0  0  0  0
    7.4026  -17.5469   21.7795 C   0  0  1  0  0  0  0  0  0  0  0  0
    7.0611  -18.3462   23.0383 C   0  0  0  0  0  0  0  0  0  0  0  0
    5.8345  -17.3167   23.9352 S   0  0  0  0  0  0  0  0  0  0  0  0
    8.2540  -16.3933   22.0307 C   0  0  0  0  0  0  0  0  0  0  0  0
    9.3291  -16.5764   22.6986 O   0  0  0  0  0  0  0  0  0  0  0  0
    7.9318  -15.1037   21.5661 N   0  0  0  0  0  0  0  0  0  0  0  0
    6.7557  -14.9142   20.6769 C   0  0  0  0  0  0  0  0  0  0  0  0
    7.2096  -13.6911   19.8524 C   0  0  0  0  0  0  0  0  0  0  0  0
    7.7408  -12.8499   20.9843 C   0  0  0  0  0  0  0  0  0  0  0  0
    8.5415  -13.8366   21.7999 C   0  0  1  0  0  0  0  0  0  0  0  0
    8.3724  -13.3813   23.2171 C   0  0  0  0  0  0  0  0  0  0  0  0
    7.8240  -12.2938   23.4285 O   0  0  0  0  0  0  0  0  0  0  0  0
    7.2016  -12.9096   27.4245 C   0  0  0  0  0  0  0  0  0  0  0  0
    7.2447  -13.3358   25.9743 C   0  0  1  0  0  0  0  0  0  0  0  0
    6.7642  -12.2730   25.0437 C   0  0  0  0  0  0  0  0  0  0  0  0
    8.6516  -13.7944   25.6768 C   0  0  2  0  0  0  0  0  0  0  0  0
    8.8238  -14.1659   24.2897 N   0  0  0  0  0  0  0  0  0  0  0  0
    9.0489  -14.8746   26.6030 C   0  0  0  0  0  0  0  0  0  0  0  0
    9.1057  -14.6889   27.8285 O   0  0  0  0  0  0  0  0  0  0  0  0
    9.3620  -16.1142   26.0850 O   0  0  0  0  0  0  0  0  0  0  0  0
  2  1  1  6
  3  2  1  0
  4  3  1  0
  5  7  1  0
  5  2  1  0
  6  5  2  0
  7  8  1  0
  9  8  1  0
 10  9  1  0
 11 10  1  0
 11  7  1  0
 11 12  1  1
 12 18  1  0
 13 12  2  0
 15 14  1  1
 15 16  1  0
 17 15  1  0
 17 18  1  6
 19 17  1  0
 19 21  1  0
 20 19  2  0
M  END
$$$$
