CPV.pdb
     RDKit          3D

 21 21  0  0  1  0  0  0  0  0999 V2000
   12.0241  -15.0329   19.2952 N   0  0  0  0  0  0  0  0  0  0  0  0
   11.0389  -15.8584   20.0372 C   0  0  1  0  0  0  0  0  0  0  0  0
   11.8596  -16.8358   20.8806 C   0  0  0  0  0  0  0  0  0  0  0  0
   12.2217  -18.2422   19.7581 S   0  0  0  0  0  0  0  0  0  0  0  0
   10.1865  -14.9784   20.8233 C   0  0  0  0  0  0  0  0  0  0  0  0
   10.7278  -13.9643   21.3839 O   0  0  0  0  0  0  0  0  0  0  0  0
    8.8064  -15.2089   20.9802 N   0  0  0  0  0  0  0  0  0  0  0  0
    8.1663  -16.3512   20.2764 C   0  0  0  0  0  0  0  0  0  0  0  0
    6.7375  -15.8036   20.0747 C   0  0  0  0  0  0  0  0  0  0  0  0
    6.5206  -15.2456   21.4577 C   0  0  0  0  0  0  0  0  0  0  0  0
    7.8165  -14.5263   21.7457 C   0  0  1  0  0  0  0  0  0  0  0  0
    8.0248  -14.6974   23.2194 C   0  0  0  0  0  0  0  0  0  0  0  0
    8.7355  -15.6291   23.6129 O   0  0  0  0  0  0  0  0  0  0  0  0
    5.8236  -12.4611   26.1454 C   0  0  0  0  0  0  0  0  0  0  0  0
    7.3335  -12.5089   26.2119 C   0  0  1  0  0  0  0  0  0  0  0  0
    7.8572  -12.3575   27.6009 C   0  0  0  0  0  0  0  0  0  0  0  0
    7.7778  -13.7883   25.5455 C   0  0  2  0  0  0  0  0  0  0  0  0
    7.4297  -13.8234   24.1422 N   0  0  0  0  0  0  0  0  0  0  0  0
    7.2630  -14.9601   26.2834 C   0  0  0  0  0  0  0  0  0  0  0  0
    6.1942  -15.5058   25.9680 O   0  0  0  0  0  0  0  0  0  0  0  0
    7.9934  -15.4517   27.3453 O   0  0  0  0  0  0  0  0  0  0  0  0
  2  1  1  1
  3  2  1  0
  4  3  1  0
  5  7  1  0
  5  2  1  0
  6  5  2  0
  7  8  1  0
  9  8  1  0
 10  9  1  0
 11 10  1  0
 11  7  1  0
 11 12  1  1
 12 18  1  0
 13 12  2  0
 15 14  1  1
 15 16  1  0
 17 15  1  0
 17 18  1  6
 19 17  1  0
 19 21  1  0
 20 19  2  0
M  END
$$$$
