CPV.pdb
     RDKit          3D

 21 21  0  0  1  0  0  0  0  0999 V2000
    7.8153  -19.2516   21.8971 N   0  0  0  0  0  0  0  0  0  0  0  0
    7.1743  -18.0705   22.5270 C   0  0  1  0  0  0  0  0  0  0  0  0
    6.7526  -18.5181   23.9277 C   0  0  0  0  0  0  0  0  0  0  0  0
    5.3125  -19.6237   23.6584 S   0  0  0  0  0  0  0  0  0  0  0  0
    8.1221  -16.9656   22.5253 C   0  0  0  0  0  0  0  0  0  0  0  0
    9.3118  -17.1965   22.9335 O   0  0  0  0  0  0  0  0  0  0  0  0
    7.7707  -15.6722   22.0936 N   0  0  0  0  0  0  0  0  0  0  0  0
    6.4066  -15.4198   21.5595 C   0  0  0  0  0  0  0  0  0  0  0  0
    6.6909  -14.2703   20.5696 C   0  0  0  0  0  0  0  0  0  0  0  0
    7.5777  -13.4339   21.4555 C   0  0  0  0  0  0  0  0  0  0  0  0
    8.5072  -14.4520   22.0716 C   0  0  1  0  0  0  0  0  0  0  0  0
    8.7786  -13.9312   23.4499 C   0  0  0  0  0  0  0  0  0  0  0  0
    9.0898  -12.7423   23.5832 O   0  0  0  0  0  0  0  0  0  0  0  0
    7.3655  -12.8081   27.4805 C   0  0  0  0  0  0  0  0  0  0  0  0
    7.3709  -13.3230   26.0588 C   0  0  1  0  0  0  0  0  0  0  0  0
    7.3873  -12.2273   25.0460 C   0  0  0  0  0  0  0  0  0  0  0  0
    8.5351  -14.2741   25.9240 C   0  0  2  0  0  0  0  0  0  0  0  0
    8.6844  -14.7677   24.5728 N   0  0  0  0  0  0  0  0  0  0  0  0
    8.4270  -15.3654   26.9140 C   0  0  0  0  0  0  0  0  0  0  0  0
    8.1019  -16.5148   26.5781 O   0  0  0  0  0  0  0  0  0  0  0  0
    8.6954  -15.0914   28.2390 O   0  0  0  0  0  0  0  0  0  0  0  0
  2  1  1  1
  3  2  1  0
  4  3  1  0
  5  7  1  0
  5  2  1  0
  6  5  2  0
  7  8  1  0
  9  8  1  0
 10  9  1  0
 11 10  1  0
 11  7  1  0
 11 12  1  1
 12 18  1  0
 13 12  2  0
 15 14  1  1
 15 16  1  0
 17 15  1  0
 17 18  1  6
 19 17  1  0
 19 21  1  0
 20 19  2  0
M  END
$$$$
