CPV.pdb
     RDKit          3D

 21 21  0  0  1  0  0  0  0  0999 V2000
   11.2234  -16.5742   19.4018 N   0  0  0  0  0  0  0  0  0  0  0  0
   10.2773  -17.1209   20.4062 C   0  0  1  0  0  0  0  0  0  0  0  0
   10.8235  -18.4965   20.7931 C   0  0  0  0  0  0  0  0  0  0  0  0
    9.5772  -19.1941   21.9460 S   0  0  0  0  0  0  0  0  0  0  0  0
   10.1883  -16.1905   21.5222 C   0  0  0  0  0  0  0  0  0  0  0  0
   11.2727  -15.6690   21.9551 O   0  0  0  0  0  0  0  0  0  0  0  0
    8.9620  -15.8548   22.1272 N   0  0  0  0  0  0  0  0  0  0  0  0
    7.7026  -16.4655   21.6264 C   0  0  0  0  0  0  0  0  0  0  0  0
    6.6893  -15.3474   21.9505 C   0  0  0  0  0  0  0  0  0  0  0  0
    7.1496  -15.0352   23.3511 C   0  0  0  0  0  0  0  0  0  0  0  0
    8.6528  -14.9897   23.2171 C   0  0  1  0  0  0  0  0  0  0  0  0
    9.1651  -15.5193   24.5216 C   0  0  0  0  0  0  0  0  0  0  0  0
    9.4101  -16.7273   24.6152 O   0  0  0  0  0  0  0  0  0  0  0  0
    8.5343  -13.6347   28.1651 C   0  0  0  0  0  0  0  0  0  0  0  0
    9.9754  -14.0110   27.9041 C   0  0  1  0  0  0  0  0  0  0  0  0
   10.7096  -14.3886   29.1471 C   0  0  0  0  0  0  0  0  0  0  0  0
    9.9790  -15.0991   26.8581 C   0  0  2  0  0  0  0  0  0  0  0  0
    9.3661  -14.6699   25.6205 N   0  0  0  0  0  0  0  0  0  0  0  0
    9.3649  -16.3315   27.3934 C   0  0  0  0  0  0  0  0  0  0  0  0
    8.1819  -16.6215   27.1566 O   0  0  0  0  0  0  0  0  0  0  0  0
   10.1312  -17.1728   28.1730 O   0  0  0  0  0  0  0  0  0  0  0  0
  2  1  1  6
  3  2  1  0
  4  3  1  0
  5  7  1  0
  5  2  1  0
  6  5  2  0
  7  8  1  0
  9  8  1  0
 10  9  1  0
 11 10  1  0
 11  7  1  0
 11 12  1  1
 12 18  1  0
 13 12  2  0
 15 14  1  1
 15 16  1  0
 17 15  1  0
 17 18  1  6
 19 17  1  0
 19 21  1  0
 20 19  2  0
M  END
$$$$
