CPV.pdb
     RDKit          3D

 21 21  0  0  1  0  0  0  0  0999 V2000
    9.7488  -16.2246   16.1630 N   0  0  0  0  0  0  0  0  0  0  0  0
    8.6795  -16.1128   17.1862 C   0  0  1  0  0  0  0  0  0  0  0  0
    8.0048  -17.4846   17.2409 C   0  0  0  0  0  0  0  0  0  0  0  0
    6.8591  -17.3926   18.6719 S   0  0  0  0  0  0  0  0  0  0  0  0
    9.2785  -15.7035   18.4482 C   0  0  0  0  0  0  0  0  0  0  0  0
   10.4001  -16.2236   18.7753 O   0  0  0  0  0  0  0  0  0  0  0  0
    8.6675  -14.7666   19.3034 N   0  0  0  0  0  0  0  0  0  0  0  0
    7.3724  -14.1495   18.9139 C   0  0  0  0  0  0  0  0  0  0  0  0
    7.4838  -12.7772   19.6112 C   0  0  0  0  0  0  0  0  0  0  0  0
    7.9917  -13.2524   20.9481 C   0  0  0  0  0  0  0  0  0  0  0  0
    9.0583  -14.2538   20.5747 C   0  0  1  0  0  0  0  0  0  0  0  0
    8.9914  -15.2960   21.6489 C   0  0  0  0  0  0  0  0  0  0  0  0
    8.0589  -16.1071   21.6300 O   0  0  0  0  0  0  0  0  0  0  0  0
   10.7595  -18.0177   21.8723 C   0  0  0  0  0  0  0  0  0  0  0  0
   11.1340  -17.4407   23.2189 C   0  0  1  0  0  0  0  0  0  0  0  0
   12.5071  -16.8568   23.2372 C   0  0  0  0  0  0  0  0  0  0  0  0
   10.0620  -16.4502   23.6034 C   0  0  2  0  0  0  0  0  0  0  0  0
    9.9626  -15.3584   22.6602 N   0  0  0  0  0  0  0  0  0  0  0  0
   10.2662  -15.9809   24.9893 C   0  0  0  0  0  0  0  0  0  0  0  0
   10.6549  -14.8279   25.2321 O   0  0  0  0  0  0  0  0  0  0  0  0
   10.0166  -16.8508   26.0304 O   0  0  0  0  0  0  0  0  0  0  0  0
  2  1  1  6
  3  2  1  0
  4  3  1  0
  5  7  1  0
  5  2  1  0
  6  5  2  0
  7  8  1  0
  9  8  1  0
 10  9  1  0
 11 10  1  0
 11  7  1  0
 11 12  1  1
 12 18  1  0
 13 12  2  0
 15 14  1  6
 15 16  1  0
 17 15  1  0
 17 18  1  6
 19 17  1  0
 19 21  1  0
 20 19  2  0
M  END
$$$$
