CPV.pdb
     RDKit          3D

 21 21  0  0  1  0  0  0  0  0999 V2000
   11.3368  -16.7488   19.8300 N   0  0  0  0  0  0  0  0  0  0  0  0
   10.0946  -16.9367   20.6202 C   0  0  1  0  0  0  0  0  0  0  0  0
   10.0871  -18.4051   21.0489 C   0  0  0  0  0  0  0  0  0  0  0  0
   11.5825  -18.6011   22.0950 S   0  0  0  0  0  0  0  0  0  0  0  0
   10.1015  -16.0007   21.7350 C   0  0  0  0  0  0  0  0  0  0  0  0
   11.2122  -15.4487   22.0467 O   0  0  0  0  0  0  0  0  0  0  0  0
    8.9388  -15.6917   22.4665 N   0  0  0  0  0  0  0  0  0  0  0  0
    7.6186  -16.1847   21.9932 C   0  0  0  0  0  0  0  0  0  0  0  0
    6.6872  -15.0742   22.5235 C   0  0  0  0  0  0  0  0  0  0  0  0
    7.2594  -14.9544   23.9124 C   0  0  0  0  0  0  0  0  0  0  0  0
    8.7500  -14.9543   23.6717 C   0  0  1  0  0  0  0  0  0  0  0  0
    9.3255  -15.6597   24.8615 C   0  0  0  0  0  0  0  0  0  0  0  0
    9.5045  -16.8811   24.7966 O   0  0  0  0  0  0  0  0  0  0  0  0
   11.2379  -13.4894   27.8429 C   0  0  0  0  0  0  0  0  0  0  0  0
   10.3651  -14.6133   28.3544 C   0  0  1  0  0  0  0  0  0  0  0  0
    9.0783  -14.1292   28.9345 C   0  0  0  0  0  0  0  0  0  0  0  0
   10.1750  -15.5929   27.2220 C   0  0  2  0  0  0  0  0  0  0  0  0
    9.6578  -14.9575   26.0303 N   0  0  0  0  0  0  0  0  0  0  0  0
    9.3427  -16.7323   27.6597 C   0  0  0  0  0  0  0  0  0  0  0  0
    9.8039  -17.6336   28.3772 O   0  0  0  0  0  0  0  0  0  0  0  0
    8.0245  -16.7874   27.2570 O   0  0  0  0  0  0  0  0  0  0  0  0
  2  1  1  6
  3  2  1  0
  4  3  1  0
  5  7  1  0
  5  2  1  0
  6  5  2  0
  7  8  1  0
  9  8  1  0
 10  9  1  0
 11 10  1  0
 11  7  1  0
 11 12  1  1
 12 18  1  0
 13 12  2  0
 15 14  1  6
 15 16  1  0
 17 15  1  0
 17 18  1  6
 19 17  1  0
 19 21  1  0
 20 19  2  0
M  END
$$$$
