CPV.pdb
     RDKit          3D

 21 21  0  0  1  0  0  0  0  0999 V2000
   10.7217  -16.6609   19.7168 N   0  0  0  0  0  0  0  0  0  0  0  0
    9.5878  -16.8618   20.6531 C   0  0  1  0  0  0  0  0  0  0  0  0
    9.5681  -18.3573   20.9748 C   0  0  0  0  0  0  0  0  0  0  0  0
    7.9385  -18.9500   20.3733 S   0  0  0  0  0  0  0  0  0  0  0  0
    9.7866  -16.0140   21.8196 C   0  0  0  0  0  0  0  0  0  0  0  0
   10.9869  -15.7196   22.1485 O   0  0  0  0  0  0  0  0  0  0  0  0
    8.7121  -15.5175   22.5821 N   0  0  0  0  0  0  0  0  0  0  0  0
    7.3157  -15.7858   22.1482 C   0  0  0  0  0  0  0  0  0  0  0  0
    6.5957  -14.5370   22.6995 C   0  0  0  0  0  0  0  0  0  0  0  0
    7.2191  -14.5136   24.0713 C   0  0  0  0  0  0  0  0  0  0  0  0
    8.6818  -14.7594   23.7888 C   0  0  1  0  0  0  0  0  0  0  0  0
    9.1667  -15.5505   24.9651 C   0  0  0  0  0  0  0  0  0  0  0  0
    9.1314  -16.7846   24.9041 O   0  0  0  0  0  0  0  0  0  0  0  0
   11.2141  -13.5120   27.8830 C   0  0  0  0  0  0  0  0  0  0  0  0
   10.4603  -14.7057   28.4248 C   0  0  1  0  0  0  0  0  0  0  0  0
    9.2374  -14.3206   29.1882 C   0  0  0  0  0  0  0  0  0  0  0  0
   10.1708  -15.6259   27.2639 C   0  0  2  0  0  0  0  0  0  0  0  0
    9.6526  -14.9131   26.1171 N   0  0  0  0  0  0  0  0  0  0  0  0
    9.2854  -16.7296   27.6887 C   0  0  0  0  0  0  0  0  0  0  0  0
    8.0759  -16.7331   27.4116 O   0  0  0  0  0  0  0  0  0  0  0  0
    9.8239  -17.7755   28.4091 O   0  0  0  0  0  0  0  0  0  0  0  0
  2  1  1  6
  3  2  1  0
  4  3  1  0
  5  7  1  0
  5  2  1  0
  6  5  2  0
  7  8  1  0
  9  8  1  0
 10  9  1  0
 11 10  1  0
 11  7  1  0
 11 12  1  1
 12 18  1  0
 13 12  2  0
 15 14  1  6
 15 16  1  0
 17 15  1  0
 17 18  1  6
 19 17  1  0
 19 21  1  0
 20 19  2  0
M  END
$$$$
