CPV.pdb
     RDKit          3D

 21 21  0  0  1  0  0  0  0  0999 V2000
    9.8983  -16.1453   15.6665 N   0  0  0  0  0  0  0  0  0  0  0  0
    8.8149  -15.8471   16.6361 C   0  0  1  0  0  0  0  0  0  0  0  0
    7.9808  -17.1252   16.7405 C   0  0  0  0  0  0  0  0  0  0  0  0
    7.1118  -17.2570   15.1291 S   0  0  0  0  0  0  0  0  0  0  0  0
    9.4139  -15.4335   17.8966 C   0  0  0  0  0  0  0  0  0  0  0  0
   10.5955  -15.8448   18.1616 O   0  0  0  0  0  0  0  0  0  0  0  0
    8.7398  -14.6071   18.8159 N   0  0  0  0  0  0  0  0  0  0  0  0
    7.4232  -14.0212   18.4510 C   0  0  0  0  0  0  0  0  0  0  0  0
    7.4515  -12.7126   19.2687 C   0  0  0  0  0  0  0  0  0  0  0  0
    7.9562  -13.2797   20.5704 C   0  0  0  0  0  0  0  0  0  0  0  0
    9.0791  -14.1911   20.1364 C   0  0  1  0  0  0  0  0  0  0  0  0
    9.0436  -15.3266   21.1130 C   0  0  0  0  0  0  0  0  0  0  0  0
    8.1682  -16.1901   20.9859 O   0  0  0  0  0  0  0  0  0  0  0  0
   11.3219  -17.9190   21.5586 C   0  0  0  0  0  0  0  0  0  0  0  0
   11.3050  -17.3239   22.9486 C   0  0  1  0  0  0  0  0  0  0  0  0
   12.5327  -16.5331   23.2550 C   0  0  0  0  0  0  0  0  0  0  0  0
   10.0329  -16.5229   23.0849 C   0  0  2  0  0  0  0  0  0  0  0  0
    9.9805  -15.4174   22.1540 N   0  0  0  0  0  0  0  0  0  0  0  0
    9.8429  -16.0905   24.4848 C   0  0  0  0  0  0  0  0  0  0  0  0
    9.9762  -14.9032   24.8198 O   0  0  0  0  0  0  0  0  0  0  0  0
    9.5101  -17.0346   25.4339 O   0  0  0  0  0  0  0  0  0  0  0  0
  2  1  1  6
  3  2  1  0
  4  3  1  0
  5  7  1  0
  5  2  1  0
  6  5  2  0
  7  8  1  0
  9  8  1  0
 10  9  1  0
 11 10  1  0
 11  7  1  0
 11 12  1  1
 12 18  1  0
 13 12  2  0
 15 14  1  6
 15 16  1  0
 17 15  1  0
 17 18  1  6
 19 17  1  0
 19 21  1  0
 20 19  2  0
M  END
$$$$
