CPV.pdb
     RDKit          3D

 21 21  0  0  1  0  0  0  0  0999 V2000
   12.9426  -16.4861   20.2207 N   0  0  0  0  0  0  0  0  0  0  0  0
   12.2295  -17.3637   21.1820 C   0  0  1  0  0  0  0  0  0  0  0  0
   13.3029  -18.2464   21.8215 C   0  0  0  0  0  0  0  0  0  0  0  0
   13.3630  -19.7529   20.7747 S   0  0  0  0  0  0  0  0  0  0  0  0
   11.5118  -16.5300   22.1353 C   0  0  0  0  0  0  0  0  0  0  0  0
   12.0553  -15.4303   22.4972 O   0  0  0  0  0  0  0  0  0  0  0  0
   10.2573  -16.8947   22.6603 N   0  0  0  0  0  0  0  0  0  0  0  0
    9.5963  -18.1403   22.1896 C   0  0  0  0  0  0  0  0  0  0  0  0
    8.1098  -17.7606   22.3565 C   0  0  0  0  0  0  0  0  0  0  0  0
    8.1952  -17.1428   23.7283 C   0  0  0  0  0  0  0  0  0  0  0  0
    9.4267  -16.2738   23.6383 C   0  0  1  0  0  0  0  0  0  0  0  0
   10.0297  -16.3289   25.0086 C   0  0  0  0  0  0  0  0  0  0  0  0
   10.8468  -17.2215   25.2608 O   0  0  0  0  0  0  0  0  0  0  0  0
   10.5249  -14.2483   29.4531 C   0  0  0  0  0  0  0  0  0  0  0  0
    9.7539  -14.2289   28.1525 C   0  0  1  0  0  0  0  0  0  0  0  0
    9.8915  -12.9379   27.4169 C   0  0  0  0  0  0  0  0  0  0  0  0
   10.1966  -15.4238   27.3435 C   0  0  2  0  0  0  0  0  0  0  0  0
    9.6807  -15.3911   25.9927 N   0  0  0  0  0  0  0  0  0  0  0  0
    9.8561  -16.6777   28.0466 C   0  0  0  0  0  0  0  0  0  0  0  0
    8.7390  -17.2045   27.9273 O   0  0  0  0  0  0  0  0  0  0  0  0
   10.8075  -17.2690   28.8517 O   0  0  0  0  0  0  0  0  0  0  0  0
  2  1  1  6
  3  2  1  0
  4  3  1  0
  5  7  1  0
  5  2  1  0
  6  5  2  0
  7  8  1  0
  9  8  1  0
 10  9  1  0
 11 10  1  0
 11  7  1  0
 11 12  1  1
 12 18  1  0
 13 12  2  0
 15 14  1  1
 15 16  1  0
 17 15  1  0
 17 18  1  6
 19 17  1  0
 19 21  1  0
 20 19  2  0
M  END
$$$$
