CPV.pdb
     RDKit          3D

 21 21  0  0  1  0  0  0  0  0999 V2000
   11.4350  -16.5061   19.6374 N   0  0  0  0  0  0  0  0  0  0  0  0
   10.5576  -17.1237   20.6629 C   0  0  1  0  0  0  0  0  0  0  0  0
   11.2486  -18.4233   21.0799 C   0  0  0  0  0  0  0  0  0  0  0  0
   10.1692  -19.1374   22.3814 S   0  0  0  0  0  0  0  0  0  0  0  0
   10.3765  -16.1794   21.7558 C   0  0  0  0  0  0  0  0  0  0  0  0
   11.3957  -15.5133   22.1469 O   0  0  0  0  0  0  0  0  0  0  0  0
    9.1312  -15.9825   22.3828 N   0  0  0  0  0  0  0  0  0  0  0  0
    7.9255  -16.6765   21.8590 C   0  0  0  0  0  0  0  0  0  0  0  0
    6.8212  -15.6689   22.2428 C   0  0  0  0  0  0  0  0  0  0  0  0
    7.2656  -15.3858   23.6547 C   0  0  0  0  0  0  0  0  0  0  0  0
    8.7577  -15.2019   23.5154 C   0  0  1  0  0  0  0  0  0  0  0  0
    9.3266  -15.7471   24.7896 C   0  0  0  0  0  0  0  0  0  0  0  0
    9.7819  -16.8964   24.7911 O   0  0  0  0  0  0  0  0  0  0  0  0
   10.6015  -14.8940   29.4863 C   0  0  0  0  0  0  0  0  0  0  0  0
    9.7650  -14.4257   28.3169 C   0  0  1  0  0  0  0  0  0  0  0  0
   10.0792  -13.0268   27.9034 C   0  0  0  0  0  0  0  0  0  0  0  0
    9.9401  -15.4283   27.2022 C   0  0  2  0  0  0  0  0  0  0  0  0
    9.3470  -14.9770   25.9628 N   0  0  0  0  0  0  0  0  0  0  0  0
    9.4379  -16.7542   27.6173 C   0  0  0  0  0  0  0  0  0  0  0  0
    8.2695  -17.1047   27.3900 O   0  0  0  0  0  0  0  0  0  0  0  0
   10.2941  -17.6154   28.2717 O   0  0  0  0  0  0  0  0  0  0  0  0
  2  1  1  6
  3  2  1  0
  4  3  1  0
  5  7  1  0
  5  2  1  0
  6  5  2  0
  7  8  1  0
  9  8  1  0
 10  9  1  0
 11 10  1  0
 11  7  1  0
 11 12  1  1
 12 18  1  0
 13 12  2  0
 15 14  1  1
 15 16  1  0
 17 15  1  0
 17 18  1  6
 19 17  1  0
 19 21  1  0
 20 19  2  0
M  END
$$$$
