CPV.pdb
     RDKit          3D

 21 21  0  0  1  0  0  0  0  0999 V2000
   11.6125  -16.6140   19.8270 N   0  0  0  0  0  0  0  0  0  0  0  0
   10.6919  -17.2182   20.8221 C   0  0  1  0  0  0  0  0  0  0  0  0
   11.2983  -18.5745   21.1866 C   0  0  0  0  0  0  0  0  0  0  0  0
   10.1895  -19.2572   22.4802 S   0  0  0  0  0  0  0  0  0  0  0  0
   10.5623  -16.3111   21.9531 C   0  0  0  0  0  0  0  0  0  0  0  0
   11.6261  -15.7679   22.4101 O   0  0  0  0  0  0  0  0  0  0  0  0
    9.3194  -16.0201   22.5471 N   0  0  0  0  0  0  0  0  0  0  0  0
    8.0821  -16.6439   22.0085 C   0  0  0  0  0  0  0  0  0  0  0  0
    7.0388  -15.5583   22.3474 C   0  0  0  0  0  0  0  0  0  0  0  0
    7.4697  -15.2764   23.7636 C   0  0  0  0  0  0  0  0  0  0  0  0
    8.9734  -15.1937   23.6558 C   0  0  1  0  0  0  0  0  0  0  0  0
    9.4768  -15.7491   24.9530 C   0  0  0  0  0  0  0  0  0  0  0  0
    9.7086  -16.9611   25.0283 O   0  0  0  0  0  0  0  0  0  0  0  0
   10.7498  -14.8546   29.6433 C   0  0  0  0  0  0  0  0  0  0  0  0
    9.9392  -14.4008   28.4502 C   0  0  1  0  0  0  0  0  0  0  0  0
   10.2439  -12.9980   28.0428 C   0  0  0  0  0  0  0  0  0  0  0  0
   10.1600  -15.4024   27.3428 C   0  0  2  0  0  0  0  0  0  0  0  0
    9.6843  -14.9191   26.0655 N   0  0  0  0  0  0  0  0  0  0  0  0
    9.5739  -16.7093   27.7048 C   0  0  0  0  0  0  0  0  0  0  0  0
    8.3906  -16.9817   27.4492 O   0  0  0  0  0  0  0  0  0  0  0  0
   10.3670  -17.6416   28.3409 O   0  0  0  0  0  0  0  0  0  0  0  0
  2  1  1  6
  3  2  1  0
  4  3  1  0
  5  7  1  0
  5  2  1  0
  6  5  2  0
  7  8  1  0
  9  8  1  0
 10  9  1  0
 11 10  1  0
 11  7  1  0
 11 12  1  1
 12 18  1  0
 13 12  2  0
 15 14  1  1
 15 16  1  0
 17 15  1  0
 17 18  1  6
 19 17  1  0
 19 21  1  0
 20 19  2  0
M  END
$$$$
