CPV.pdb
     RDKit          3D

 21 21  0  0  1  0  0  0  0  0999 V2000
    7.6865  -18.2398   19.2505 N   0  0  0  0  0  0  0  0  0  0  0  0
    6.8873  -17.2850   20.0582 C   0  0  1  0  0  0  0  0  0  0  0  0
    5.9675  -18.1402   20.9315 C   0  0  0  0  0  0  0  0  0  0  0  0
    4.9360  -16.9353   21.8553 S   0  0  0  0  0  0  0  0  0  0  0  0
    7.7953  -16.4377   20.8175 C   0  0  0  0  0  0  0  0  0  0  0  0
    8.6350  -17.0067   21.5964 O   0  0  0  0  0  0  0  0  0  0  0  0
    7.7749  -15.0333   20.7192 N   0  0  0  0  0  0  0  0  0  0  0  0
    6.9405  -14.3804   19.6763 C   0  0  0  0  0  0  0  0  0  0  0  0
    7.7543  -13.0951   19.4164 C   0  0  0  0  0  0  0  0  0  0  0  0
    8.0249  -12.7149   20.8492 C   0  0  0  0  0  0  0  0  0  0  0  0
    8.4321  -14.0241   21.4817 C   0  0  1  0  0  0  0  0  0  0  0  0
    7.9098  -13.9455   22.8837 C   0  0  0  0  0  0  0  0  0  0  0  0
    6.9055  -13.2593   23.1041 O   0  0  0  0  0  0  0  0  0  0  0  0
    7.4005  -13.3017   27.2434 C   0  0  0  0  0  0  0  0  0  0  0  0
    7.2196  -13.8772   25.8568 C   0  0  1  0  0  0  0  0  0  0  0  0
    6.3766  -13.0154   24.9775 C   0  0  0  0  0  0  0  0  0  0  0  0
    8.5939  -14.1395   25.2905 C   0  0  2  0  0  0  0  0  0  0  0  0
    8.5405  -14.6330   23.9321 N   0  0  0  0  0  0  0  0  0  0  0  0
    9.3587  -15.0325   26.1850 C   0  0  0  0  0  0  0  0  0  0  0  0
    9.6046  -14.7171   27.3596 O   0  0  0  0  0  0  0  0  0  0  0  0
    9.8056  -16.2421   25.6949 O   0  0  0  0  0  0  0  0  0  0  0  0
  2  1  1  1
  3  2  1  0
  4  3  1  0
  5  7  1  0
  5  2  1  0
  6  5  2  0
  7  8  1  0
  9  8  1  0
 10  9  1  0
 11 10  1  0
 11  7  1  0
 11 12  1  1
 12 18  1  0
 13 12  2  0
 15 14  1  1
 15 16  1  0
 17 15  1  0
 17 18  1  6
 19 17  1  0
 19 21  1  0
 20 19  2  0
M  END
$$$$
