CPV.pdb
     RDKit          3D

 21 21  0  0  1  0  0  0  0  0999 V2000
   11.1870  -16.9701   19.7617 N   0  0  0  0  0  0  0  0  0  0  0  0
    9.8871  -16.9873   20.4778 C   0  0  1  0  0  0  0  0  0  0  0  0
    9.6099  -18.4545   20.8106 C   0  0  0  0  0  0  0  0  0  0  0  0
   10.3815  -18.7216   22.4544 S   0  0  0  0  0  0  0  0  0  0  0  0
    9.9854  -16.1290   21.6494 C   0  0  0  0  0  0  0  0  0  0  0  0
   11.1531  -15.8333   22.0789 O   0  0  0  0  0  0  0  0  0  0  0  0
    8.8496  -15.6240   22.3108 N   0  0  0  0  0  0  0  0  0  0  0  0
    7.4927  -15.9690   21.8111 C   0  0  0  0  0  0  0  0  0  0  0  0
    6.7000  -14.7143   22.2346 C   0  0  0  0  0  0  0  0  0  0  0  0
    7.2344  -14.5820   23.6374 C   0  0  0  0  0  0  0  0  0  0  0  0
    8.7191  -14.7927   23.4613 C   0  0  1  0  0  0  0  0  0  0  0  0
    9.1536  -15.4899   24.7142 C   0  0  0  0  0  0  0  0  0  0  0  0
    9.2887  -16.7184   24.6920 O   0  0  0  0  0  0  0  0  0  0  0  0
   10.5227  -15.1016   29.4480 C   0  0  0  0  0  0  0  0  0  0  0  0
    9.8097  -14.4390   28.2907 C   0  0  1  0  0  0  0  0  0  0  0  0
   10.3498  -13.0838   27.9772 C   0  0  0  0  0  0  0  0  0  0  0  0
    9.8672  -15.3875   27.1180 C   0  0  2  0  0  0  0  0  0  0  0  0
    9.4044  -14.7721   25.8938 N   0  0  0  0  0  0  0  0  0  0  0  0
    9.1435  -16.6373   27.4293 C   0  0  0  0  0  0  0  0  0  0  0  0
    7.9357  -16.7668   27.1758 O   0  0  0  0  0  0  0  0  0  0  0  0
    9.8337  -17.6783   28.0147 O   0  0  0  0  0  0  0  0  0  0  0  0
  2  1  1  1
  3  2  1  0
  4  3  1  0
  5  7  1  0
  5  2  1  0
  6  5  2  0
  7  8  1  0
  9  8  1  0
 10  9  1  0
 11 10  1  0
 11  7  1  0
 11 12  1  1
 12 18  1  0
 13 12  2  0
 15 14  1  1
 15 16  1  0
 17 15  1  0
 17 18  1  6
 19 17  1  0
 19 21  1  0
 20 19  2  0
M  END
$$$$
