CPV.pdb
     RDKit          3D

 21 21  0  0  1  0  0  0  0  0999 V2000
    9.9287  -15.8007   15.5480 N   0  0  0  0  0  0  0  0  0  0  0  0
    8.8799  -15.6090   16.5805 C   0  0  1  0  0  0  0  0  0  0  0  0
    8.1463  -16.9471   16.6881 C   0  0  0  0  0  0  0  0  0  0  0  0
    7.3436  -17.1803   15.0540 S   0  0  0  0  0  0  0  0  0  0  0  0
    9.5140  -15.1868   17.8209 C   0  0  0  0  0  0  0  0  0  0  0  0
   10.7416  -15.4965   18.0015 O   0  0  0  0  0  0  0  0  0  0  0  0
    8.8247  -14.4591   18.8098 N   0  0  0  0  0  0  0  0  0  0  0  0
    7.4661  -13.9293   18.5210 C   0  0  0  0  0  0  0  0  0  0  0  0
    7.4475  -12.6741   19.4187 C   0  0  0  0  0  0  0  0  0  0  0  0
    8.0253  -13.2900   20.6668 C   0  0  0  0  0  0  0  0  0  0  0  0
    9.1828  -14.1062   20.1436 C   0  0  1  0  0  0  0  0  0  0  0  0
    9.2429  -15.2999   21.0469 C   0  0  0  0  0  0  0  0  0  0  0  0
    8.4661  -16.2390   20.8401 O   0  0  0  0  0  0  0  0  0  0  0  0
   11.8784  -18.1468   23.9307 C   0  0  0  0  0  0  0  0  0  0  0  0
   11.7990  -16.9386   23.0250 C   0  0  1  0  0  0  0  0  0  0  0  0
   12.4306  -17.1706   21.6931 C   0  0  0  0  0  0  0  0  0  0  0  0
   10.3478  -16.5343   22.9321 C   0  0  2  0  0  0  0  0  0  0  0  0
   10.1587  -15.3605   22.1086 N   0  0  0  0  0  0  0  0  0  0  0  0
    9.7692  -16.3749   24.2821 C   0  0  0  0  0  0  0  0  0  0  0  0
    9.6880  -15.2620   24.8248 O   0  0  0  0  0  0  0  0  0  0  0  0
    9.3115  -17.4937   24.9466 O   0  0  0  0  0  0  0  0  0  0  0  0
  2  1  1  6
  3  2  1  0
  4  3  1  0
  5  7  1  0
  5  2  1  0
  6  5  2  0
  7  8  1  0
  9  8  1  0
 10  9  1  0
 11 10  1  0
 11  7  1  0
 11 12  1  1
 12 18  1  0
 13 12  2  0
 15 14  1  1
 15 16  1  0
 17 15  1  0
 17 18  1  1
 19 17  1  0
 19 21  1  0
 20 19  2  0
M  END
$$$$
