RKW.pdb
     RDKit          3D

 35 36  0  0  1  0  0  0  0  0999 V2000
    9.5434  -13.7882   18.4890 N   0  0  0  0  0  0  0  0  0  0  0  0
    8.9164  -12.6867   19.1535 C   0  0  0  0  0  0  0  0  0  0  0  0
    9.6081  -11.6055   19.2925 N   0  0  0  0  0  0  0  0  0  0  0  0
    7.5787  -12.7963   19.6374 N   0  0  0  0  0  0  0  0  0  0  0  0
    7.0474  -14.1600   19.7098 C   0  0  0  0  0  0  0  0  0  0  0  0
    7.2574  -14.6582   21.0980 C   0  0  0  0  0  0  0  0  0  0  0  0
    6.7302  -16.0121   21.4012 C   0  0  0  0  0  0  0  0  0  0  0  0
    7.6154  -17.1634   21.0442 C   0  0  2  0  0  0  0  0  0  0  0  0
    6.9112  -18.2485   20.4399 N   0  0  0  0  0  0  0  0  0  0  0  0
    8.2749  -17.6125   22.3281 C   0  0  0  0  0  0  0  0  0  0  0  0
    7.5079  -18.1054   23.1932 O   0  0  0  0  0  0  0  0  0  0  0  0
    9.2118  -10.7389   19.6733 N   0  0  0  0  0  0  0  0  0  0  0  0
    9.6755  -17.4559   22.4736 C   0  0  2  0  0  0  0  0  0  0  0  0
   10.3172  -18.0321   23.6707 C   0  0  0  0  0  0  0  0  0  0  0  0
   11.5839  -18.6210   23.2289 C   0  0  0  0  0  0  0  0  0  0  0  0
   12.4767  -19.2900   24.1832 C   0  0  0  0  0  0  0  0  0  0  0  0
   13.7079  -19.9142   23.6066 C   0  0  0  0  0  0  0  0  0  0  0  0
   14.4865  -20.6955   24.6799 N   0  0  0  0  0  0  0  0  0  0  0  0
   14.4233  -22.1192   24.4048 C   0  0  0  0  0  0  0  0  0  0  0  0
   10.3344  -16.9835   24.6824 O   0  0  0  0  0  0  0  0  0  0  0  0
   10.9128  -15.8748   24.4087 N   0  0  0  0  0  0  0  0  0  0  0  0
    9.7641  -17.0461   25.9829 C   0  0  1  0  0  0  0  0  0  0  0  0
   10.1022  -16.1007   27.0287 C   0  0  0  0  0  0  0  0  0  0  0  0
    8.8614  -15.7250   27.8486 C   0  0  0  0  0  0  0  0  0  0  0  0
    7.8479  -15.1940   26.9102 C   0  0  0  0  0  0  0  0  0  0  0  0
    6.9388  -15.9323   26.1867 N   0  0  0  0  0  0  0  0  0  0  0  0
    6.1929  -15.0840   25.4512 C   0  0  0  0  0  0  0  0  0  0  0  0
    6.5945  -13.8305   25.6803 C   0  0  0  0  0  0  0  0  0  0  0  0
    6.1515  -12.6227   25.1738 C   0  0  0  0  0  0  0  0  0  0  0  0
    6.7804  -11.4775   25.6114 C   0  0  0  0  0  0  0  0  0  0  0  0
    7.8233  -11.4891   26.5249 C   0  0  0  0  0  0  0  0  0  0  0  0
    8.2430  -12.6955   27.0110 C   0  0  0  0  0  0  0  0  0  0  0  0
    7.6371  -13.8538   26.5949 C   0  0  0  0  0  0  0  0  0  0  0  0
   11.2136  -16.5581   27.8632 O   0  0  0  0  0  0  0  0  0  0  0  0
   11.9759  -15.7698   28.6791 O   0  0  0  0  0  0  0  0  0  0  0  0
  2  3  2  0
  2  1  1  0
  4  2  1  0
  5  4  1  0
  6  5  1  0
  7  6  1  0
  8  7  1  0
  8  9  1  1
 10 12  1  0
 10  8  1  0
 11 10  2  0
 13 12  1  0
 13 19  1  0
 14 15  1  0
 13 14  1  6
 15 16  1  0
 16 17  1  0
 17 18  1  0
 19 21  1  0
 20 19  2  0
 21 22  1  0
 22 23  1  1
 22 33  1  0
 23 24  1  0
 24 25  2  0
 25 26  1  0
 27 28  2  0
 27 26  1  0
 29 28  1  0
 30 29  2  0
 31 30  1  0
 31 32  2  0
 32 24  1  0
 32 27  1  0
 33 34  1  0
 35 33  2  0
M  END
$$$$
