RKW.pdb
     RDKit          3D

 35 36  0  0  1  0  0  0  0  0999 V2000
    9.0254  -25.5470   23.2796 N   0  0  0  0  0  0  0  0  0  0  0  0
    7.7368  -25.5238   22.6576 C   0  0  0  0  0  0  0  0  0  0  0  0
    7.0225  -26.5967   22.7317 N   0  0  0  0  0  0  0  0  0  0  0  0
    7.2753  -24.3527   21.9858 N   0  0  0  0  0  0  0  0  0  0  0  0
    8.2579  -23.2729   21.8604 C   0  0  0  0  0  0  0  0  0  0  0  0
    8.2111  -22.4661   23.1119 C   0  0  0  0  0  0  0  0  0  0  0  0
    8.3404  -20.9958   22.9555 C   0  0  0  0  0  0  0  0  0  0  0  0
    8.2706  -20.4692   21.5576 C   0  0  2  0  0  0  0  0  0  0  0  0
    8.9493  -21.2946   20.6107 N   0  0  0  0  0  0  0  0  0  0  0  0
    8.8834  -19.0877   21.5877 C   0  0  0  0  0  0  0  0  0  0  0  0
   10.1393  -19.0475   21.6194 O   0  0  0  0  0  0  0  0  0  0  0  0
    6.0755  -26.6604   22.3414 N   0  0  0  0  0  0  0  0  0  0  0  0
    8.0308  -17.9563   21.5779 C   0  0  1  0  0  0  0  0  0  0  0  0
    8.6533  -16.6187   21.5719 C   0  0  0  0  0  0  0  0  0  0  0  0
    7.8678  -15.7913   20.6527 C   0  0  0  0  0  0  0  0  0  0  0  0
    8.2955  -14.4284   20.3137 C   0  0  0  0  0  0  0  0  0  0  0  0
    7.5099  -13.7388   19.2434 C   0  0  0  0  0  0  0  0  0  0  0  0
    8.1623  -12.4005   18.8537 N   0  0  0  0  0  0  0  0  0  0  0  0
    7.3461  -11.7161   17.8678 C   0  0  0  0  0  0  0  0  0  0  0  0
    8.7812  -16.2099   22.9647 O   0  0  0  0  0  0  0  0  0  0  0  0
    7.8854  -16.5831   23.7996 N   0  0  0  0  0  0  0  0  0  0  0  0
    9.8196  -15.4193   23.5277 C   0  0  2  0  0  0  0  0  0  0  0  0
   10.0172  -15.2962   24.9587 C   0  0  0  0  0  0  0  0  0  0  0  0
    8.9775  -16.1215   25.7275 C   0  0  0  0  0  0  0  0  0  0  0  0
    7.7319  -15.3254   25.7922 C   0  0  0  0  0  0  0  0  0  0  0  0
    6.4632  -15.7686   25.4940 N   0  0  0  0  0  0  0  0  0  0  0  0
    5.6033  -14.7466   25.6755 C   0  0  0  0  0  0  0  0  0  0  0  0
    6.2791  -13.6670   26.0790 C   0  0  0  0  0  0  0  0  0  0  0  0
    5.8556  -12.3887   26.3924 C   0  0  0  0  0  0  0  0  0  0  0  0
    6.8117  -11.4772   26.7839 C   0  0  0  0  0  0  0  0  0  0  0  0
    8.1601  -11.7868   26.8742 C   0  0  0  0  0  0  0  0  0  0  0  0
    8.5538  -13.0571   26.5592 C   0  0  0  0  0  0  0  0  0  0  0  0
    7.6259  -13.9878   26.1660 C   0  0  0  0  0  0  0  0  0  0  0  0
   11.3902  -15.5969   25.3653 O   0  0  0  0  0  0  0  0  0  0  0  0
   11.8552  -15.6187   26.6504 O   0  0  0  0  0  0  0  0  0  0  0  0
  2  3  2  0
  2  1  1  0
  4  2  1  0
  5  4  1  0
  6  5  1  0
  7  6  1  0
  8  7  1  0
  8  9  1  6
 10 12  1  0
 10  8  1  0
 11 10  2  0
 13 12  1  0
 13 19  1  0
 14 15  1  0
 13 14  1  6
 15 16  1  0
 16 17  1  0
 17 18  1  0
 19 21  1  0
 20 19  2  0
 21 22  1  0
 22 23  1  6
 22 33  1  0
 23 24  1  0
 24 25  2  0
 25 26  1  0
 27 28  2  0
 27 26  1  0
 29 28  1  0
 30 29  2  0
 31 30  1  0
 31 32  2  0
 32 24  1  0
 32 27  1  0
 33 34  1  0
 35 33  2  0
M  END
$$$$
