RKW.pdb
     RDKit          3D

 35 36  0  0  1  0  0  0  0  0999 V2000
    8.5238  -12.7055   17.0913 N   0  0  0  0  0  0  0  0  0  0  0  0
    8.4454  -12.9988   18.4899 C   0  0  0  0  0  0  0  0  0  0  0  0
    8.4121  -11.9983   19.3052 N   0  0  0  0  0  0  0  0  0  0  0  0
    8.4069  -14.3495   18.9479 N   0  0  0  0  0  0  0  0  0  0  0  0
    7.1125  -15.0222   18.8098 C   0  0  0  0  0  0  0  0  0  0  0  0
    6.6051  -15.3203   20.1784 C   0  0  0  0  0  0  0  0  0  0  0  0
    7.5202  -16.0717   21.0734 C   0  0  0  0  0  0  0  0  0  0  0  0
    7.4372  -17.5633   21.0052 C   0  0  2  0  0  0  0  0  0  0  0  0
    6.1070  -18.0603   21.1536 N   0  0  0  0  0  0  0  0  0  0  0  0
    8.3245  -18.0938   22.1081 C   0  0  0  0  0  0  0  0  0  0  0  0
    7.7469  -18.3667   23.1906 O   0  0  0  0  0  0  0  0  0  0  0  0
    8.5340  -12.1047   20.3186 N   0  0  0  0  0  0  0  0  0  0  0  0
    9.7112  -18.2475   21.8618 C   0  0  2  0  0  0  0  0  0  0  0  0
   10.5478  -18.8153   22.9362 C   0  0  0  0  0  0  0  0  0  0  0  0
   11.5735  -19.6340   22.2851 C   0  0  0  0  0  0  0  0  0  0  0  0
   11.2105  -20.6239   21.2635 C   0  0  0  0  0  0  0  0  0  0  0  0
   12.3422  -21.3979   20.6651 C   0  0  0  0  0  0  0  0  0  0  0  0
   11.8286  -22.4290   19.6444 N   0  0  0  0  0  0  0  0  0  0  0  0
   12.9397  -23.1864   19.0983 C   0  0  0  0  0  0  0  0  0  0  0  0
   10.9572  -17.7010   23.7814 O   0  0  0  0  0  0  0  0  0  0  0  0
   11.1730  -16.5630   23.2362 N   0  0  0  0  0  0  0  0  0  0  0  0
   11.1512  -17.7271   25.1892 C   0  0  1  0  0  0  0  0  0  0  0  0
   10.7186  -16.6484   26.0559 C   0  0  0  0  0  0  0  0  0  0  0  0
    9.2504  -16.2906   25.7929 C   0  0  0  0  0  0  0  0  0  0  0  0
    8.8738  -15.2176   26.7397 C   0  0  0  0  0  0  0  0  0  0  0  0
    9.3506  -15.0547   28.0208 N   0  0  0  0  0  0  0  0  0  0  0  0
    8.7664  -13.9639   28.5553 C   0  0  0  0  0  0  0  0  0  0  0  0
    7.9338  -13.4253   27.6600 C   0  0  0  0  0  0  0  0  0  0  0  0
    7.1140  -12.3140   27.7280 C   0  0  0  0  0  0  0  0  0  0  0  0
    6.3580  -12.0091   26.6172 C   0  0  0  0  0  0  0  0  0  0  0  0
    6.3869  -12.7612   25.4528 C   0  0  0  0  0  0  0  0  0  0  0  0
    7.2053  -13.8549   25.4102 C   0  0  0  0  0  0  0  0  0  0  0  0
    7.9706  -14.1849   26.4998 C   0  0  0  0  0  0  0  0  0  0  0  0
   10.9904  -16.9176   27.4682 O   0  0  0  0  0  0  0  0  0  0  0  0
   11.5058  -16.0250   28.3659 O   0  0  0  0  0  0  0  0  0  0  0  0
  2  3  2  0
  2  1  1  0
  4  2  1  0
  5  4  1  0
  6  5  1  0
  7  6  1  0
  8  7  1  0
  8  9  1  1
 10 12  1  0
 10  8  1  0
 11 10  2  0
 13 12  1  0
 13 19  1  0
 14 15  1  0
 13 14  1  6
 15 16  1  0
 16 17  1  0
 17 18  1  0
 19 21  1  0
 20 19  2  0
 21 22  1  0
 22 23  1  1
 22 33  1  0
 23 24  1  0
 24 25  2  0
 25 26  1  0
 27 28  2  0
 27 26  1  0
 29 28  1  0
 30 29  2  0
 31 30  1  0
 31 32  2  0
 32 24  1  0
 32 27  1  0
 33 34  1  0
 35 33  2  0
M  END
$$$$
