RKW.pdb
     RDKit          3D

 35 36  0  0  1  0  0  0  0  0999 V2000
    8.2208  -11.6334   20.0929 N   0  0  0  0  0  0  0  0  0  0  0  0
    8.1836  -12.6784   19.1158 C   0  0  0  0  0  0  0  0  0  0  0  0
    8.2589  -12.3330   17.8741 N   0  0  0  0  0  0  0  0  0  0  0  0
    8.0673  -14.0430   19.5157 N   0  0  0  0  0  0  0  0  0  0  0  0
    8.2438  -14.2943   20.9485 C   0  0  0  0  0  0  0  0  0  0  0  0
    8.1185  -15.7617   21.1730 C   0  0  0  0  0  0  0  0  0  0  0  0
    6.7418  -16.3162   21.1654 C   0  0  0  0  0  0  0  0  0  0  0  0
    6.6211  -17.7933   21.3656 C   0  0  2  0  0  0  0  0  0  0  0  0
    5.2722  -18.2591   21.3195 N   0  0  0  0  0  0  0  0  0  0  0  0
    7.2379  -18.0963   22.7119 C   0  0  0  0  0  0  0  0  0  0  0  0
    6.4745  -17.9737   23.7029 O   0  0  0  0  0  0  0  0  0  0  0  0
    8.2305  -13.0136   17.1066 N   0  0  0  0  0  0  0  0  0  0  0  0
    8.5978  -18.4890   22.7731 C   0  0  2  0  0  0  0  0  0  0  0  0
    9.1323  -18.9378   24.0730 C   0  0  0  0  0  0  0  0  0  0  0  0
   10.1641  -19.9367   23.7833 C   0  0  0  0  0  0  0  0  0  0  0  0
   10.8932  -20.6031   24.8694 C   0  0  0  0  0  0  0  0  0  0  0  0
   11.9443  -21.5828   24.4528 C   0  0  0  0  0  0  0  0  0  0  0  0
   12.6804  -22.1578   25.6759 N   0  0  0  0  0  0  0  0  0  0  0  0
   12.6317  -23.6082   25.6510 C   0  0  0  0  0  0  0  0  0  0  0  0
    9.4930  -17.7366   24.8149 O   0  0  0  0  0  0  0  0  0  0  0  0
   10.1995  -16.8427   24.2313 N   0  0  0  0  0  0  0  0  0  0  0  0
    9.1403  -17.4269   26.1566 C   0  0  1  0  0  0  0  0  0  0  0  0
    9.8454  -16.4295   26.9375 C   0  0  0  0  0  0  0  0  0  0  0  0
    8.8772  -15.6609   27.8458 C   0  0  0  0  0  0  0  0  0  0  0  0
    7.8586  -15.0263   26.9802 C   0  0  0  0  0  0  0  0  0  0  0  0
    6.7585  -15.6421   26.4274 N   0  0  0  0  0  0  0  0  0  0  0  0
    6.0791  -14.7287   25.7057 C   0  0  0  0  0  0  0  0  0  0  0  0
    6.7072  -13.5519   25.7789 C   0  0  0  0  0  0  0  0  0  0  0  0
    6.4116  -12.3225   25.2195 C   0  0  0  0  0  0  0  0  0  0  0  0
    7.2698  -11.2775   25.4840 C   0  0  0  0  0  0  0  0  0  0  0  0
    8.4000  -11.4088   26.2762 C   0  0  0  0  0  0  0  0  0  0  0  0
    8.6706  -12.6341   26.8178 C   0  0  0  0  0  0  0  0  0  0  0  0
    7.8354  -13.6944   26.5733 C   0  0  0  0  0  0  0  0  0  0  0  0
   10.9831  -16.9881   27.6686 O   0  0  0  0  0  0  0  0  0  0  0  0
   11.9390  -16.2676   28.3285 O   0  0  0  0  0  0  0  0  0  0  0  0
  2  3  2  0
  2  1  1  0
  4  2  1  0
  5  4  1  0
  6  5  1  0
  7  6  1  0
  8  7  1  0
  8  9  1  1
 10 12  1  0
 10  8  1  0
 11 10  2  0
 13 12  1  0
 13 19  1  0
 14 15  1  0
 13 14  1  6
 15 16  1  0
 16 17  1  0
 17 18  1  0
 19 21  1  0
 20 19  2  0
 21 22  1  0
 22 23  1  1
 22 33  1  0
 23 24  1  0
 24 25  2  0
 25 26  1  0
 27 28  2  0
 27 26  1  0
 29 28  1  0
 30 29  2  0
 31 30  1  0
 31 32  2  0
 32 24  1  0
 32 27  1  0
 33 34  1  0
 35 33  2  0
M  END
$$$$
