RKW.pdb
     RDKit          3D

 35 36  0  0  1  0  0  0  0  0999 V2000
    7.1896  -12.4681   15.1565 N   0  0  0  0  0  0  0  0  0  0  0  0
    7.9202  -13.6660   14.8747 C   0  0  0  0  0  0  0  0  0  0  0  0
    8.7352  -13.6426   13.8737 N   0  0  0  0  0  0  0  0  0  0  0  0
    7.7424  -14.8314   15.6784 N   0  0  0  0  0  0  0  0  0  0  0  0
    8.9594  -15.3514   16.3075 C   0  0  0  0  0  0  0  0  0  0  0  0
    9.3125  -14.4450   17.4359 C   0  0  0  0  0  0  0  0  0  0  0  0
    8.7365  -14.7840   18.7611 C   0  0  0  0  0  0  0  0  0  0  0  0
    9.7107  -15.1682   19.8287 C   0  0  2  0  0  0  0  0  0  0  0  0
   10.7197  -16.0694   19.3721 N   0  0  0  0  0  0  0  0  0  0  0  0
    8.9036  -15.7994   20.9400 C   0  0  0  0  0  0  0  0  0  0  0  0
    7.9907  -15.0851   21.4262 O   0  0  0  0  0  0  0  0  0  0  0  0
    9.3802  -14.4133   13.6658 N   0  0  0  0  0  0  0  0  0  0  0  0
    9.2150  -17.1184   21.3530 C   0  0  1  0  0  0  0  0  0  0  0  0
    8.5473  -17.6433   22.5594 C   0  0  0  0  0  0  0  0  0  0  0  0
    8.5493  -19.1036   22.4418 C   0  0  0  0  0  0  0  0  0  0  0  0
    9.8059  -19.8613   22.4895 C   0  0  0  0  0  0  0  0  0  0  0  0
    9.6991  -21.3306   22.2298 C   0  0  0  0  0  0  0  0  0  0  0  0
   11.0774  -22.0096   22.3180 N   0  0  0  0  0  0  0  0  0  0  0  0
   11.3020  -22.5100   23.6618 C   0  0  0  0  0  0  0  0  0  0  0  0
    9.2000  -17.0206   23.7039 O   0  0  0  0  0  0  0  0  0  0  0  0
   10.2681  -16.3426   23.5084 N   0  0  0  0  0  0  0  0  0  0  0  0
    8.7767  -17.0769   25.0596 C   0  0  1  0  0  0  0  0  0  0  0  0
    9.5527  -16.5058   26.1429 C   0  0  0  0  0  0  0  0  0  0  0  0
    8.6396  -16.0432   27.2853 C   0  0  0  0  0  0  0  0  0  0  0  0
    7.5980  -15.1696   26.7010 C   0  0  0  0  0  0  0  0  0  0  0  0
    6.3943  -15.5762   26.1711 N   0  0  0  0  0  0  0  0  0  0  0  0
    5.7291  -14.4849   25.7428 C   0  0  0  0  0  0  0  0  0  0  0  0
    6.4664  -13.3965   25.9810 C   0  0  0  0  0  0  0  0  0  0  0  0
    6.2272  -12.0582   25.7289 C   0  0  0  0  0  0  0  0  0  0  0  0
    7.2003  -11.1551   26.0974 C   0  0  0  0  0  0  0  0  0  0  0  0
    8.3907  -11.5299   26.7012 C   0  0  0  0  0  0  0  0  0  0  0  0
    8.6036  -12.8587   26.9399 C   0  0  0  0  0  0  0  0  0  0  0  0
    7.6540  -13.7827   26.5849 C   0  0  0  0  0  0  0  0  0  0  0  0
   10.6220  -17.3946   26.5988 O   0  0  0  0  0  0  0  0  0  0  0  0
   11.6630  -17.0396   27.4103 O   0  0  0  0  0  0  0  0  0  0  0  0
  2  3  2  0
  2  1  1  0
  4  2  1  0
  5  4  1  0
  6  5  1  0
  7  6  1  0
  8  7  1  0
  8  9  1  6
 10 12  1  0
 10  8  1  0
 11 10  2  0
 13 12  1  0
 13 19  1  0
 14 15  1  0
 13 14  1  6
 15 16  1  0
 16 17  1  0
 17 18  1  0
 19 21  1  0
 20 19  2  0
 21 22  1  0
 22 23  1  1
 22 33  1  0
 23 24  1  0
 24 25  2  0
 25 26  1  0
 27 28  2  0
 27 26  1  0
 29 28  1  0
 30 29  2  0
 31 30  1  0
 31 32  2  0
 32 24  1  0
 32 27  1  0
 33 34  1  0
 35 33  2  0
M  END
$$$$
