RKW.pdb
     RDKit          3D

 35 36  0  0  1  0  0  0  0  0999 V2000
   14.4256  -19.8420   25.4691 N   0  0  0  0  0  0  0  0  0  0  0  0
   13.8155  -21.0837   25.1028 C   0  0  0  0  0  0  0  0  0  0  0  0
   14.5981  -22.0504   24.7569 N   0  0  0  0  0  0  0  0  0  0  0  0
   12.3964  -21.2300   25.1243 N   0  0  0  0  0  0  0  0  0  0  0  0
   11.7778  -21.5392   23.8324 C   0  0  0  0  0  0  0  0  0  0  0  0
   11.2231  -20.2728   23.2776 C   0  0  0  0  0  0  0  0  0  0  0  0
    9.7556  -20.2340   23.0590 C   0  0  0  0  0  0  0  0  0  0  0  0
    9.2949  -19.6740   21.7511 C   0  0  2  0  0  0  0  0  0  0  0  0
    9.8263  -20.3689   20.6228 N   0  0  0  0  0  0  0  0  0  0  0  0
    9.7251  -18.2251   21.7286 C   0  0  0  0  0  0  0  0  0  0  0  0
   10.8776  -18.0040   21.2782 O   0  0  0  0  0  0  0  0  0  0  0  0
   14.2569  -22.9999   24.5691 N   0  0  0  0  0  0  0  0  0  0  0  0
    8.8300  -17.2339   22.2016 C   0  0  1  0  0  0  0  0  0  0  0  0
    9.1878  -15.8183   21.9901 C   0  0  0  0  0  0  0  0  0  0  0  0
    8.1751  -15.2560   21.0931 C   0  0  0  0  0  0  0  0  0  0  0  0
    8.3684  -13.9413   20.4690 C   0  0  0  0  0  0  0  0  0  0  0  0
    7.5045  -13.6410   19.2851 C   0  0  0  0  0  0  0  0  0  0  0  0
    7.8803  -12.2880   18.6551 N   0  0  0  0  0  0  0  0  0  0  0  0
    6.9528  -11.9598   17.5881 C   0  0  0  0  0  0  0  0  0  0  0  0
    9.3733  -15.2314   23.3109 O   0  0  0  0  0  0  0  0  0  0  0  0
    8.7279  -14.1660   23.6062 N   0  0  0  0  0  0  0  0  0  0  0  0
   10.2141  -15.7186   24.3483 C   0  0  2  0  0  0  0  0  0  0  0  0
    9.7232  -15.9966   25.6837 C   0  0  0  0  0  0  0  0  0  0  0  0
    8.3173  -16.6080   25.6336 C   0  0  0  0  0  0  0  0  0  0  0  0
    7.3441  -15.4935   25.6144 C   0  0  0  0  0  0  0  0  0  0  0  0
    6.0057  -15.5833   25.3054 N   0  0  0  0  0  0  0  0  0  0  0  0
    5.4647  -14.3525   25.4008 C   0  0  0  0  0  0  0  0  0  0  0  0
    6.4113  -13.4806   25.7599 C   0  0  0  0  0  0  0  0  0  0  0  0
    6.3594  -12.1174   25.9849 C   0  0  0  0  0  0  0  0  0  0  0  0
    7.5281  -11.4855   26.3502 C   0  0  0  0  0  0  0  0  0  0  0  0
    8.7344  -12.1526   26.4985 C   0  0  0  0  0  0  0  0  0  0  0  0
    8.7598  -13.5000   26.2706 C   0  0  0  0  0  0  0  0  0  0  0  0
    7.6129  -14.1582   25.9055 C   0  0  0  0  0  0  0  0  0  0  0  0
   10.6600  -16.7977   26.4723 O   0  0  0  0  0  0  0  0  0  0  0  0
   11.6973  -17.5342   25.9725 O   0  0  0  0  0  0  0  0  0  0  0  0
  2  3  2  0
  2  1  1  0
  4  2  1  0
  5  4  1  0
  6  5  1  0
  7  6  1  0
  8  7  1  0
  8  9  1  6
 10 12  1  0
 10  8  1  0
 11 10  2  0
 13 12  1  0
 13 19  1  0
 14 15  1  0
 13 14  1  1
 15 16  1  0
 16 17  1  0
 17 18  1  0
 19 21  1  0
 20 19  2  0
 21 22  1  0
 22 23  1  1
 22 33  1  0
 23 24  1  0
 24 25  2  0
 25 26  1  0
 27 28  2  0
 27 26  1  0
 29 28  1  0
 30 29  2  0
 31 30  1  0
 31 32  2  0
 32 24  1  0
 32 27  1  0
 33 34  1  0
 35 33  2  0
M  END
$$$$
