RKW.pdb
     RDKit          3D

 35 36  0  0  1  0  0  0  0  0999 V2000
    9.3320  -11.4665   18.3998 N   0  0  0  0  0  0  0  0  0  0  0  0
    8.7178  -12.7422   18.1914 C   0  0  0  0  0  0  0  0  0  0  0  0
    8.6851  -13.1950   16.9828 N   0  0  0  0  0  0  0  0  0  0  0  0
    8.1677  -13.4714   19.2874 N   0  0  0  0  0  0  0  0  0  0  0  0
    7.5839  -14.7715   18.9464 C   0  0  0  0  0  0  0  0  0  0  0  0
    8.5935  -15.8211   19.2598 C   0  0  0  0  0  0  0  0  0  0  0  0
    8.5973  -16.3404   20.6502 C   0  0  0  0  0  0  0  0  0  0  0  0
    8.1392  -17.7523   20.8317 C   0  0  2  0  0  0  0  0  0  0  0  0
    6.8406  -17.9966   20.2910 N   0  0  0  0  0  0  0  0  0  0  0  0
    8.1498  -18.0196   22.3195 C   0  0  0  0  0  0  0  0  0  0  0  0
    7.1079  -17.6911   22.9412 O   0  0  0  0  0  0  0  0  0  0  0  0
    8.2937  -14.1134   16.7452 N   0  0  0  0  0  0  0  0  0  0  0  0
    9.2983  -18.6070   22.9050 C   0  0  1  0  0  0  0  0  0  0  0  0
    9.2096  -19.0551   24.3079 C   0  0  0  0  0  0  0  0  0  0  0  0
    9.7839  -20.4019   24.3584 C   0  0  0  0  0  0  0  0  0  0  0  0
    9.1703  -21.5106   23.6170 C   0  0  0  0  0  0  0  0  0  0  0  0
    9.8488  -22.8384   23.7372 C   0  0  0  0  0  0  0  0  0  0  0  0
    9.2055  -23.6899   24.8462 N   0  0  0  0  0  0  0  0  0  0  0  0
    7.9168  -24.1916   24.4058 C   0  0  0  0  0  0  0  0  0  0  0  0
    9.7976  -17.9997   25.1227 O   0  0  0  0  0  0  0  0  0  0  0  0
   10.7257  -17.2776   24.6168 N   0  0  0  0  0  0  0  0  0  0  0  0
    9.4505  -17.6631   26.4594 C   0  0  1  0  0  0  0  0  0  0  0  0
   10.0925  -16.5835   27.1832 C   0  0  0  0  0  0  0  0  0  0  0  0
    9.1047  -15.9015   28.1381 C   0  0  0  0  0  0  0  0  0  0  0  0
    7.9210  -15.4990   27.3465 C   0  0  0  0  0  0  0  0  0  0  0  0
    6.9598  -16.3385   26.8305 N   0  0  0  0  0  0  0  0  0  0  0  0
    6.0509  -15.5901   26.1744 C   0  0  0  0  0  0  0  0  0  0  0  0
    6.3988  -14.3026   26.2537 C   0  0  0  0  0  0  0  0  0  0  0  0
    5.8005  -13.1622   25.7503 C   0  0  0  0  0  0  0  0  0  0  0  0
    6.4129  -11.9544   26.0047 C   0  0  0  0  0  0  0  0  0  0  0  0
    7.5865  -11.8400   26.7339 C   0  0  0  0  0  0  0  0  0  0  0  0
    8.1584  -12.9818   27.2209 C   0  0  0  0  0  0  0  0  0  0  0  0
    7.5731  -14.1997   26.9848 C   0  0  0  0  0  0  0  0  0  0  0  0
   11.3232  -17.0076   27.8515 O   0  0  0  0  0  0  0  0  0  0  0  0
   12.2301  -16.1807   28.4532 O   0  0  0  0  0  0  0  0  0  0  0  0
  2  3  2  0
  2  1  1  0
  4  2  1  0
  5  4  1  0
  6  5  1  0
  7  6  1  0
  8  7  1  0
  8  9  1  1
 10 12  1  0
 10  8  1  0
 11 10  2  0
 13 12  1  0
 13 19  1  0
 14 15  1  0
 13 14  1  1
 15 16  1  0
 16 17  1  0
 17 18  1  0
 19 21  1  0
 20 19  2  0
 21 22  1  0
 22 23  1  1
 22 33  1  0
 23 24  1  0
 24 25  2  0
 25 26  1  0
 27 28  2  0
 27 26  1  0
 29 28  1  0
 30 29  2  0
 31 30  1  0
 31 32  2  0
 32 24  1  0
 32 27  1  0
 33 34  1  0
 35 33  2  0
M  END
$$$$
