RKW.pdb
     RDKit          3D

 35 36  0  0  1  0  0  0  0  0999 V2000
    4.9113  -19.9099   20.9940 N   0  0  0  0  0  0  0  0  0  0  0  0
    5.4658  -19.0263   21.9737 C   0  0  0  0  0  0  0  0  0  0  0  0
    5.3479  -19.3656   23.2137 N   0  0  0  0  0  0  0  0  0  0  0  0
    6.1197  -17.8214   21.5781 N   0  0  0  0  0  0  0  0  0  0  0  0
    6.2863  -17.6433   20.1332 C   0  0  0  0  0  0  0  0  0  0  0  0
    7.6115  -18.2083   19.7538 C   0  0  0  0  0  0  0  0  0  0  0  0
    8.6483  -17.2345   19.3299 C   0  0  0  0  0  0  0  0  0  0  0  0
   10.0118  -17.7900   19.0679 C   0  0  2  0  0  0  0  0  0  0  0  0
   10.0035  -18.9053   18.1765 N   0  0  0  0  0  0  0  0  0  0  0  0
   10.5771  -18.1925   20.4108 C   0  0  0  0  0  0  0  0  0  0  0  0
   10.4159  -19.3967   20.7330 O   0  0  0  0  0  0  0  0  0  0  0  0
    5.7694  -18.8266   23.9786 N   0  0  0  0  0  0  0  0  0  0  0  0
   11.2353  -17.2177   21.2006 C   0  0  1  0  0  0  0  0  0  0  0  0
   11.7410  -17.6245   22.5255 C   0  0  0  0  0  0  0  0  0  0  0  0
   13.1611  -17.9425   22.3563 C   0  0  0  0  0  0  0  0  0  0  0  0
   13.8221  -17.7686   21.0570 C   0  0  0  0  0  0  0  0  0  0  0  0
   15.2983  -18.0099   21.0317 C   0  0  0  0  0  0  0  0  0  0  0  0
   15.8875  -17.6897   19.6464 N   0  0  0  0  0  0  0  0  0  0  0  0
   17.2226  -17.1383   19.7875 C   0  0  0  0  0  0  0  0  0  0  0  0
   11.3529  -16.5773   23.4616 O   0  0  0  0  0  0  0  0  0  0  0  0
   12.2712  -15.8921   24.0326 N   0  0  0  0  0  0  0  0  0  0  0  0
   10.0293  -16.2115   23.8285 C   0  0  1  0  0  0  0  0  0  0  0  0
    9.5611  -16.2523   25.2000 C   0  0  0  0  0  0  0  0  0  0  0  0
    8.1529  -16.8552   25.2797 C   0  0  0  0  0  0  0  0  0  0  0  0
    7.2044  -15.7474   25.5304 C   0  0  0  0  0  0  0  0  0  0  0  0
    5.8398  -15.8577   25.6741 N   0  0  0  0  0  0  0  0  0  0  0  0
    5.3350  -14.6265   25.8888 C   0  0  0  0  0  0  0  0  0  0  0  0
    6.3300  -13.7348   25.8871 C   0  0  0  0  0  0  0  0  0  0  0  0
    6.3273  -12.3631   26.0609 C   0  0  0  0  0  0  0  0  0  0  0  0
    7.5390  -11.7097   26.0031 C   0  0  0  0  0  0  0  0  0  0  0  0
    8.7412  -12.3636   25.7810 C   0  0  0  0  0  0  0  0  0  0  0  0
    8.7176  -13.7196   25.6122 C   0  0  0  0  0  0  0  0  0  0  0  0
    7.5271  -14.3992   25.6643 C   0  0  0  0  0  0  0  0  0  0  0  0
   10.5093  -16.9106   26.0991 O   0  0  0  0  0  0  0  0  0  0  0  0
   10.7231  -16.5863   27.4096 O   0  0  0  0  0  0  0  0  0  0  0  0
  2  3  2  0
  2  1  1  0
  4  2  1  0
  5  4  1  0
  6  5  1  0
  7  6  1  0
  8  7  1  0
  8  9  1  6
 10 12  1  0
 10  8  1  0
 11 10  2  0
 13 12  1  0
 13 19  1  0
 14 15  1  0
 13 14  1  1
 15 16  1  0
 16 17  1  0
 17 18  1  0
 19 21  1  0
 20 19  2  0
 21 22  1  0
 22 23  1  1
 22 33  1  0
 23 24  1  0
 24 25  2  0
 25 26  1  0
 27 28  2  0
 27 26  1  0
 29 28  1  0
 30 29  2  0
 31 30  1  0
 31 32  2  0
 32 24  1  0
 32 27  1  0
 33 34  1  0
 35 33  2  0
M  END
$$$$
