EDP.pdb
     RDKit          3D

 25 25  0  0  1  0  0  0  0  0999 V2000
   12.2256  -19.3427   17.3087 N   0  0  0  0  0  0  0  0  0  0  0  0
   11.6760  -19.3296   18.6387 C   0  0  1  0  0  0  0  0  0  0  0  0
   12.7787  -19.2967   19.6379 C   0  0  0  0  0  0  0  0  0  0  0  0
   14.0361  -18.6953   19.1158 C   0  0  0  0  0  0  0  0  0  0  0  0
   15.2045  -18.7849   20.0128 C   0  0  0  0  0  0  0  0  0  0  0  0
   15.6330  -17.7702   20.6158 O   0  0  0  0  0  0  0  0  0  0  0  0
   10.8243  -18.1053   18.8315 C   0  0  0  0  0  0  0  0  0  0  0  0
   11.3179  -16.9448   18.7246 O   0  0  0  0  0  0  0  0  0  0  0  0
   15.8690  -19.9841   20.2221 O   0  0  0  0  0  0  0  0  0  0  0  0
    9.4444  -18.1931   19.1387 N   0  0  0  0  0  0  0  0  0  0  0  0
    8.6367  -16.9607   19.3097 C   0  0  1  0  0  0  0  0  0  0  0  0
    7.2062  -17.4497   19.2548 C   0  0  0  0  0  0  0  0  0  0  0  0
    6.8396  -18.1281   18.0102 C   0  0  0  0  0  0  0  0  0  0  0  0
    7.3459  -17.6386   16.9434 O   0  0  0  0  0  0  0  0  0  0  0  0
    8.9988  -16.2853   20.5565 C   0  0  0  0  0  0  0  0  0  0  0  0
    9.8905  -16.8424   21.3007 O   0  0  0  0  0  0  0  0  0  0  0  0
    6.0243  -19.2164   17.8537 O   0  0  0  0  0  0  0  0  0  0  0  0
    8.4633  -15.0691   21.0280 N   0  0  0  0  0  0  0  0  0  0  0  0
    7.4296  -14.2929   20.3154 C   0  0  0  0  0  0  0  0  0  0  0  0
    7.7091  -12.8532   20.6083 C   0  0  0  0  0  0  0  0  0  0  0  0
    8.6971  -12.8359   21.7302 C   0  0  0  0  0  0  0  0  0  0  0  0
    8.7207  -14.2814   22.2052 C   0  0  1  0  0  0  0  0  0  0  0  0
    7.6260  -14.5023   23.1895 C   0  0  0  0  0  0  0  0  0  0  0  0
    7.7742  -14.0651   24.3521 O   0  0  0  0  0  0  0  0  0  0  0  0
    6.4658  -15.1823   22.8139 O   0  0  0  0  0  0  0  0  0  0  0  0
  2  1  1  6
  2  3  1  0
  3  4  1  0
  5  4  1  0
  5  6  2  0
  7  2  1  0
  7  8  2  0
  9  5  1  0
 10  7  1  0
 11 10  1  0
 12 13  1  0
 11 12  1  1
 13 17  1  0
 14 13  2  0
 15 11  1  0
 16 15  2  0
 18 15  1  0
 18 22  1  0
 19 20  1  0
 19 18  1  0
 20 21  1  0
 22 21  1  0
 22 23  1  1
 24 23  2  0
 25 23  1  0
M  END
$$$$
