EDP.pdb
     RDKit          3D

 25 25  0  0  1  0  0  0  0  0999 V2000
    7.4886  -15.9201   19.1751 N   0  0  0  0  0  0  0  0  0  0  0  0
    7.8303  -14.7949   20.0048 C   0  0  1  0  0  0  0  0  0  0  0  0
    7.1976  -13.5609   19.4638 C   0  0  0  0  0  0  0  0  0  0  0  0
    8.1189  -12.7339   18.6376 C   0  0  0  0  0  0  0  0  0  0  0  0
    8.8416  -13.4570   17.5733 C   0  0  0  0  0  0  0  0  0  0  0  0
   10.0745  -13.6760   17.6661 O   0  0  0  0  0  0  0  0  0  0  0  0
    7.3232  -15.0140   21.4035 C   0  0  0  0  0  0  0  0  0  0  0  0
    6.1160  -14.7793   21.7030 O   0  0  0  0  0  0  0  0  0  0  0  0
    8.1914  -13.9186   16.4386 O   0  0  0  0  0  0  0  0  0  0  0  0
    8.1640  -15.4882   22.4399 N   0  0  0  0  0  0  0  0  0  0  0  0
    7.6354  -15.6505   23.8162 C   0  0  1  0  0  0  0  0  0  0  0  0
    7.4303  -17.1427   23.9564 C   0  0  0  0  0  0  0  0  0  0  0  0
    7.0414  -17.5827   25.2976 C   0  0  0  0  0  0  0  0  0  0  0  0
    7.9920  -18.0127   26.0361 O   0  0  0  0  0  0  0  0  0  0  0  0
    8.5643  -15.0726   24.7883 C   0  0  0  0  0  0  0  0  0  0  0  0
    9.8253  -15.2220   24.5717 O   0  0  0  0  0  0  0  0  0  0  0  0
    5.7894  -17.5892   25.8510 O   0  0  0  0  0  0  0  0  0  0  0  0
    8.2111  -14.3577   25.9513 N   0  0  0  0  0  0  0  0  0  0  0  0
    6.8191  -14.1158   26.3785 C   0  0  0  0  0  0  0  0  0  0  0  0
    6.8124  -12.7800   27.0511 C   0  0  0  0  0  0  0  0  0  0  0  0
    8.2444  -12.4172   27.2810 C   0  0  0  0  0  0  0  0  0  0  0  0
    8.9917  -13.7058   26.9702 C   0  0  1  0  0  0  0  0  0  0  0  0
    9.0284  -14.5678   28.1834 C   0  0  0  0  0  0  0  0  0  0  0  0
    8.2185  -15.5177   28.2630 O   0  0  0  0  0  0  0  0  0  0  0  0
    9.9489  -14.3136   29.2021 O   0  0  0  0  0  0  0  0  0  0  0  0
  2  1  1  6
  2  3  1  0
  3  4  1  0
  5  4  1  0
  5  6  2  0
  7  2  1  0
  7  8  2  0
  9  5  1  0
 10  7  1  0
 11 10  1  0
 12 13  1  0
 11 12  1  1
 13 17  1  0
 14 13  2  0
 15 11  1  0
 16 15  2  0
 18 15  1  0
 18 22  1  0
 19 20  1  0
 19 18  1  0
 20 21  1  0
 22 21  1  0
 22 23  1  1
 24 23  2  0
 25 23  1  0
M  END
$$$$
