EDP.pdb
     RDKit          3D

 25 25  0  0  1  0  0  0  0  0999 V2000
    6.5353  -15.3279   19.2071 N   0  0  0  0  0  0  0  0  0  0  0  0
    7.4797  -14.7238   20.1096 C   0  0  1  0  0  0  0  0  0  0  0  0
    7.5448  -13.2576   19.8615 C   0  0  0  0  0  0  0  0  0  0  0  0
    8.1572  -12.9030   18.5521 C   0  0  0  0  0  0  0  0  0  0  0  0
    9.3650  -13.6682   18.1865 C   0  0  0  0  0  0  0  0  0  0  0  0
   10.3227  -13.7829   18.9905 O   0  0  0  0  0  0  0  0  0  0  0  0
    7.0461  -14.9455   21.5324 C   0  0  0  0  0  0  0  0  0  0  0  0
    5.8316  -14.8289   21.8691 O   0  0  0  0  0  0  0  0  0  0  0  0
    9.4873  -14.2850   16.9504 O   0  0  0  0  0  0  0  0  0  0  0  0
    7.9671  -15.2914   22.5513 N   0  0  0  0  0  0  0  0  0  0  0  0
    7.4944  -15.5296   23.9369 C   0  0  1  0  0  0  0  0  0  0  0  0
    7.3495  -17.0331   24.0212 C   0  0  0  0  0  0  0  0  0  0  0  0
    7.1205  -17.5501   25.3717 C   0  0  0  0  0  0  0  0  0  0  0  0
    6.0328  -17.1769   25.9300 O   0  0  0  0  0  0  0  0  0  0  0  0
    8.4357  -14.9567   24.9000 C   0  0  0  0  0  0  0  0  0  0  0  0
    9.6926  -15.0447   24.6320 O   0  0  0  0  0  0  0  0  0  0  0  0
    7.9272  -18.3795   26.1032 O   0  0  0  0  0  0  0  0  0  0  0  0
    8.0985  -14.3080   26.1057 N   0  0  0  0  0  0  0  0  0  0  0  0
    6.7195  -14.1867   26.6181 C   0  0  0  0  0  0  0  0  0  0  0  0
    6.6526  -12.8772   27.3375 C   0  0  0  0  0  0  0  0  0  0  0  0
    8.0645  -12.4135   27.5002 C   0  0  0  0  0  0  0  0  0  0  0  0
    8.8863  -13.6308   27.1024 C   0  0  1  0  0  0  0  0  0  0  0  0
    9.0577  -14.5253   28.2799 C   0  0  0  0  0  0  0  0  0  0  0  0
    8.2916  -15.5071   28.3977 O   0  0  0  0  0  0  0  0  0  0  0  0
   10.0529  -14.2659   29.2244 O   0  0  0  0  0  0  0  0  0  0  0  0
  2  1  1  6
  2  3  1  0
  3  4  1  0
  5  4  1  0
  5  6  2  0
  7  2  1  0
  7  8  2  0
  9  5  1  0
 10  7  1  0
 11 10  1  0
 12 13  1  0
 11 12  1  1
 13 17  1  0
 14 13  2  0
 15 11  1  0
 16 15  2  0
 18 15  1  0
 18 22  1  0
 19 20  1  0
 19 18  1  0
 20 21  1  0
 22 21  1  0
 22 23  1  1
 24 23  2  0
 25 23  1  0
M  END
$$$$
