EDP.pdb
     RDKit          3D

 25 25  0  0  1  0  0  0  0  0999 V2000
    9.0347  -13.2165   18.8304 N   0  0  0  0  0  0  0  0  0  0  0  0
    9.0101  -14.5103   19.4603 C   0  0  1  0  0  0  0  0  0  0  0  0
   10.3971  -15.0364   19.5823 C   0  0  0  0  0  0  0  0  0  0  0  0
   11.4459  -14.0019   19.3699 C   0  0  0  0  0  0  0  0  0  0  0  0
   12.8059  -14.3763   19.8037 C   0  0  0  0  0  0  0  0  0  0  0  0
   13.7934  -13.6532   19.5231 O   0  0  0  0  0  0  0  0  0  0  0  0
    8.4214  -14.4000   20.8397 C   0  0  0  0  0  0  0  0  0  0  0  0
    8.2064  -13.2700   21.3679 O   0  0  0  0  0  0  0  0  0  0  0  0
   13.0433  -15.5323   20.5323 O   0  0  0  0  0  0  0  0  0  0  0  0
    8.0837  -15.5436   21.6041 N   0  0  0  0  0  0  0  0  0  0  0  0
    7.3696  -15.3953   22.8957 C   0  0  1  0  0  0  0  0  0  0  0  0
    6.7379  -16.7509   23.1229 C   0  0  0  0  0  0  0  0  0  0  0  0
    5.7348  -17.1323   22.1268 C   0  0  0  0  0  0  0  0  0  0  0  0
    4.5169  -16.9563   22.4728 O   0  0  0  0  0  0  0  0  0  0  0  0
    8.3000  -14.9768   23.9451 C   0  0  0  0  0  0  0  0  0  0  0  0
    9.5537  -15.2068   23.7586 O   0  0  0  0  0  0  0  0  0  0  0  0
    5.9443  -17.6519   20.8779 O   0  0  0  0  0  0  0  0  0  0  0  0
    7.9556  -14.3370   25.1535 N   0  0  0  0  0  0  0  0  0  0  0  0
    6.5699  -14.0238   25.5540 C   0  0  0  0  0  0  0  0  0  0  0  0
    6.6369  -12.7530   26.3396 C   0  0  0  0  0  0  0  0  0  0  0  0
    8.0819  -12.5239   26.6474 C   0  0  0  0  0  0  0  0  0  0  0  0
    8.7420  -13.8363   26.2505 C   0  0  1  0  0  0  0  0  0  0  0  0
    8.6659  -14.7975   27.3846 C   0  0  0  0  0  0  0  0  0  0  0  0
    7.7756  -15.6759   27.3612 O   0  0  0  0  0  0  0  0  0  0  0  0
    9.5714  -14.7122   28.4441 O   0  0  0  0  0  0  0  0  0  0  0  0
  2  1  1  1
  2  3  1  0
  3  4  1  0
  5  4  1  0
  5  6  2  0
  7  2  1  0
  7  8  2  0
  9  5  1  0
 10  7  1  0
 11 10  1  0
 12 13  1  0
 11 12  1  1
 13 17  1  0
 14 13  2  0
 15 11  1  0
 16 15  2  0
 18 15  1  0
 18 22  1  0
 19 20  1  0
 19 18  1  0
 20 21  1  0
 22 21  1  0
 22 23  1  1
 24 23  2  0
 25 23  1  0
M  END
$$$$
