EDP.pdb
     RDKit          3D

 25 25  0  0  1  0  0  0  0  0999 V2000
    8.1152  -17.6274   19.9003 N   0  0  0  0  0  0  0  0  0  0  0  0
    8.5347  -16.3225   20.3391 C   0  0  1  0  0  0  0  0  0  0  0  0
    8.2757  -15.3241   19.2660 C   0  0  0  0  0  0  0  0  0  0  0  0
    8.7951  -15.7357   17.9333 C   0  0  0  0  0  0  0  0  0  0  0  0
    8.4011  -14.8728   16.8027 C   0  0  0  0  0  0  0  0  0  0  0  0
    7.6820  -13.8598   16.9856 O   0  0  0  0  0  0  0  0  0  0  0  0
    7.7590  -15.9169   21.5619 C   0  0  0  0  0  0  0  0  0  0  0  0
    6.7371  -15.1757   21.4691 O   0  0  0  0  0  0  0  0  0  0  0  0
    8.8071  -15.1459   15.5050 O   0  0  0  0  0  0  0  0  0  0  0  0
    8.1320  -16.3407   22.8609 N   0  0  0  0  0  0  0  0  0  0  0  0
    7.4016  -15.8379   24.0499 C   0  0  1  0  0  0  0  0  0  0  0  0
    6.8894  -17.0923   24.7227 C   0  0  0  0  0  0  0  0  0  0  0  0
    6.1552  -18.0022   23.8414 C   0  0  0  0  0  0  0  0  0  0  0  0
    4.9894  -17.6122   23.4907 O   0  0  0  0  0  0  0  0  0  0  0  0
    8.2869  -15.0222   24.8822 C   0  0  0  0  0  0  0  0  0  0  0  0
    9.5445  -15.0307   24.6035 O   0  0  0  0  0  0  0  0  0  0  0  0
    6.5653  -19.2129   23.3519 O   0  0  0  0  0  0  0  0  0  0  0  0
    7.8941  -14.2164   25.9706 N   0  0  0  0  0  0  0  0  0  0  0  0
    6.4975  -14.0697   26.4251 C   0  0  0  0  0  0  0  0  0  0  0  0
    6.3688  -12.6723   26.9422 C   0  0  0  0  0  0  0  0  0  0  0  0
    7.7603  -12.1409   27.0701 C   0  0  0  0  0  0  0  0  0  0  0  0
    8.6307  -13.3738   26.8761 C   0  0  1  0  0  0  0  0  0  0  0  0
    8.7945  -14.0801   28.1763 C   0  0  0  0  0  0  0  0  0  0  0  0
    8.0815  -15.0826   28.4027 O   0  0  0  0  0  0  0  0  0  0  0  0
    9.7248  -13.6264   29.1136 O   0  0  0  0  0  0  0  0  0  0  0  0
  2  1  1  6
  2  3  1  0
  3  4  1  0
  5  4  1  0
  5  6  2  0
  7  2  1  0
  7  8  2  0
  9  5  1  0
 10  7  1  0
 11 10  1  0
 12 13  1  0
 11 12  1  1
 13 17  1  0
 14 13  2  0
 15 11  1  0
 16 15  2  0
 18 15  1  0
 18 22  1  0
 19 20  1  0
 19 18  1  0
 20 21  1  0
 22 21  1  0
 22 23  1  1
 24 23  2  0
 25 23  1  0
M  END
$$$$
