EDP.pdb
     RDKit          3D

 25 25  0  0  1  0  0  0  0  0999 V2000
   13.2412  -20.9369   15.6063 N   0  0  0  0  0  0  0  0  0  0  0  0
   13.1273  -19.6159   16.1659 C   0  0  1  0  0  0  0  0  0  0  0  0
   11.7290  -19.1270   16.0199 C   0  0  0  0  0  0  0  0  0  0  0  0
   10.8306  -20.0929   15.3305 C   0  0  0  0  0  0  0  0  0  0  0  0
    9.4279  -19.6602   15.1786 C   0  0  0  0  0  0  0  0  0  0  0  0
    9.0623  -19.0009   14.1744 O   0  0  0  0  0  0  0  0  0  0  0  0
   13.4690  -19.6461   17.6301 C   0  0  0  0  0  0  0  0  0  0  0  0
   13.1036  -20.6099   18.3646 O   0  0  0  0  0  0  0  0  0  0  0  0
    8.4674  -19.9629   16.1321 O   0  0  0  0  0  0  0  0  0  0  0  0
   14.2079  -18.6081   18.2488 N   0  0  0  0  0  0  0  0  0  0  0  0
   14.4614  -18.6395   19.7099 C   0  0  1  0  0  0  0  0  0  0  0  0
   15.6123  -17.6768   19.9029 C   0  0  0  0  0  0  0  0  0  0  0  0
   16.8616  -18.0801   19.2547 C   0  0  0  0  0  0  0  0  0  0  0  0
   17.5570  -18.9478   19.8853 O   0  0  0  0  0  0  0  0  0  0  0  0
   13.2457  -18.2854   20.4439 C   0  0  0  0  0  0  0  0  0  0  0  0
   12.3758  -17.5518   19.8404 O   0  0  0  0  0  0  0  0  0  0  0  0
   17.3707  -17.6414   18.0622 O   0  0  0  0  0  0  0  0  0  0  0  0
   12.9279  -18.6748   21.7613 N   0  0  0  0  0  0  0  0  0  0  0  0
   13.7575  -19.5861   22.5738 C   0  0  0  0  0  0  0  0  0  0  0  0
   12.8112  -20.3573   23.4378 C   0  0  0  0  0  0  0  0  0  0  0  0
   11.4909  -19.6629   23.3404 C   0  0  0  0  0  0  0  0  0  0  0  0
   11.8269  -18.3581   22.6332 C   0  0  1  0  0  0  0  0  0  0  0  0
   12.2704  -17.3475   23.6322 C   0  0  0  0  0  0  0  0  0  0  0  0
   13.4963  -17.1332   23.7577 O   0  0  0  0  0  0  0  0  0  0  0  0
   11.3322  -16.6607   24.4054 O   0  0  0  0  0  0  0  0  0  0  0  0
  2  1  1  1
  2  3  1  0
  3  4  1  0
  5  4  1  0
  5  6  2  0
  7  2  1  0
  7  8  2  0
  9  5  1  0
 10  7  1  0
 11 10  1  0
 12 13  1  0
 11 12  1  6
 13 17  1  0
 14 13  2  0
 15 11  1  0
 16 15  2  0
 18 15  1  0
 18 22  1  0
 19 20  1  0
 19 18  1  0
 20 21  1  0
 22 21  1  0
 22 23  1  1
 24 23  2  0
 25 23  1  0
M  END
$$$$
