EDP.pdb
     RDKit          3D

 25 25  0  0  1  0  0  0  0  0999 V2000
    8.7013  -17.8435   13.6426 N   0  0  0  0  0  0  0  0  0  0  0  0
    9.4074  -18.0448   14.8803 C   0  0  1  0  0  0  0  0  0  0  0  0
   10.8214  -17.6048   14.7296 C   0  0  0  0  0  0  0  0  0  0  0  0
   10.9663  -16.3004   14.0276 C   0  0  0  0  0  0  0  0  0  0  0  0
   11.4769  -16.3751   12.6450 C   0  0  0  0  0  0  0  0  0  0  0  0
   12.6318  -16.8067   12.4073 O   0  0  0  0  0  0  0  0  0  0  0  0
    8.7714  -17.2315   15.9737 C   0  0  0  0  0  0  0  0  0  0  0  0
    8.3818  -16.0461   15.7614 O   0  0  0  0  0  0  0  0  0  0  0  0
   10.7063  -15.9746   11.5637 O   0  0  0  0  0  0  0  0  0  0  0  0
    8.5810  -17.7487   17.2785 N   0  0  0  0  0  0  0  0  0  0  0  0
    7.8682  -16.9478   18.3035 C   0  0  1  0  0  0  0  0  0  0  0  0
    7.1799  -17.9838   19.1645 C   0  0  0  0  0  0  0  0  0  0  0  0
    6.3360  -18.9271   18.4286 C   0  0  0  0  0  0  0  0  0  0  0  0
    5.3202  -18.4192   17.8418 O   0  0  0  0  0  0  0  0  0  0  0  0
    8.8106  -16.0905   19.0237 C   0  0  0  0  0  0  0  0  0  0  0  0
   10.0610  -16.3943   18.9634 O   0  0  0  0  0  0  0  0  0  0  0  0
    6.5035  -20.2791   18.2953 O   0  0  0  0  0  0  0  0  0  0  0  0
    8.4813  -14.9498   19.7843 N   0  0  0  0  0  0  0  0  0  0  0  0
    7.1042  -14.4509   19.9670 C   0  0  0  0  0  0  0  0  0  0  0  0
    7.2066  -12.9620   20.0652 C   0  0  0  0  0  0  0  0  0  0  0  0
    8.6567  -12.6513   20.2543 C   0  0  0  0  0  0  0  0  0  0  0  0
    9.2785  -14.0122   20.5313 C   0  0  1  0  0  0  0  0  0  0  0  0
    9.1695  -14.3260   21.9824 C   0  0  0  0  0  0  0  0  0  0  0  0
    8.2500  -15.0856   22.3594 O   0  0  0  0  0  0  0  0  0  0  0  0
   10.0771  -13.7804   22.8925 O   0  0  0  0  0  0  0  0  0  0  0  0
  2  1  1  6
  2  3  1  0
  3  4  1  0
  5  4  1  0
  5  6  2  0
  7  2  1  0
  7  8  2  0
  9  5  1  0
 10  7  1  0
 11 10  1  0
 12 13  1  0
 11 12  1  1
 13 17  1  0
 14 13  2  0
 15 11  1  0
 16 15  2  0
 18 15  1  0
 18 22  1  0
 19 20  1  0
 19 18  1  0
 20 21  1  0
 22 21  1  0
 22 23  1  1
 24 23  2  0
 25 23  1  0
M  END
$$$$
