EDP.pdb
     RDKit          3D

 25 25  0  0  1  0  0  0  0  0999 V2000
    8.3380  -17.0174   19.4950 N   0  0  0  0  0  0  0  0  0  0  0  0
    9.1614  -17.1735   20.6650 C   0  0  1  0  0  0  0  0  0  0  0  0
   10.4182  -16.3927   20.5029 C   0  0  0  0  0  0  0  0  0  0  0  0
   11.2381  -16.8215   19.3370 C   0  0  0  0  0  0  0  0  0  0  0  0
   12.5172  -16.1067   19.1614 C   0  0  0  0  0  0  0  0  0  0  0  0
   12.7129  -15.3726   18.1616 O   0  0  0  0  0  0  0  0  0  0  0  0
    8.4358  -16.6585   21.8773 C   0  0  0  0  0  0  0  0  0  0  0  0
    7.5724  -15.7384   21.7778 O   0  0  0  0  0  0  0  0  0  0  0  0
   13.5442  -16.2177   20.0869 O   0  0  0  0  0  0  0  0  0  0  0  0
    8.6824  -17.1736   23.1734 N   0  0  0  0  0  0  0  0  0  0  0  0
    7.8774  -16.7076   24.3288 C   0  0  1  0  0  0  0  0  0  0  0  0
    7.4807  -17.9839   25.0375 C   0  0  0  0  0  0  0  0  0  0  0  0
    7.0558  -17.8045   26.4271 C   0  0  0  0  0  0  0  0  0  0  0  0
    5.7940  -17.7191   26.6132 O   0  0  0  0  0  0  0  0  0  0  0  0
    8.6554  -15.7767   25.1473 C   0  0  0  0  0  0  0  0  0  0  0  0
    9.9395  -15.8593   25.0889 O   0  0  0  0  0  0  0  0  0  0  0  0
    7.8434  -17.7172   27.5432 O   0  0  0  0  0  0  0  0  0  0  0  0
    8.1318  -14.7850   26.0020 N   0  0  0  0  0  0  0  0  0  0  0  0
    6.6889  -14.5656   26.2224 C   0  0  0  0  0  0  0  0  0  0  0  0
    6.5171  -13.0972   26.4484 C   0  0  0  0  0  0  0  0  0  0  0  0
    7.8877  -12.5419   26.6681 C   0  0  0  0  0  0  0  0  0  0  0  0
    8.7525  -13.7835   26.8292 C   0  0  1  0  0  0  0  0  0  0  0  0
    8.7215  -14.2341   28.2477 C   0  0  0  0  0  0  0  0  0  0  0  0
    8.0272  -15.2328   28.5396 O   0  0  0  0  0  0  0  0  0  0  0  0
    9.4535  -13.5514   29.2212 O   0  0  0  0  0  0  0  0  0  0  0  0
  2  1  1  6
  2  3  1  0
  3  4  1  0
  5  4  1  0
  5  6  2  0
  7  2  1  0
  7  8  2  0
  9  5  1  0
 10  7  1  0
 11 10  1  0
 12 13  1  0
 11 12  1  1
 13 17  1  0
 14 13  2  0
 15 11  1  0
 16 15  2  0
 18 15  1  0
 18 22  1  0
 19 20  1  0
 19 18  1  0
 20 21  1  0
 22 21  1  0
 22 23  1  1
 24 23  2  0
 25 23  1  0
M  END
$$$$
