EDP.pdb
     RDKit          3D

 25 25  0  0  1  0  0  0  0  0999 V2000
   10.3530  -14.0755   19.8937 N   0  0  0  0  0  0  0  0  0  0  0  0
    9.1111  -13.3484   19.8956 C   0  0  1  0  0  0  0  0  0  0  0  0
    8.3674  -13.6205   18.6352 C   0  0  0  0  0  0  0  0  0  0  0  0
    8.6073  -14.9829   18.0859 C   0  0  0  0  0  0  0  0  0  0  0  0
    7.9158  -15.2888   16.8186 C   0  0  0  0  0  0  0  0  0  0  0  0
    7.9058  -16.4559   16.3557 O   0  0  0  0  0  0  0  0  0  0  0  0
    8.2589  -13.7886   21.0538 C   0  0  0  0  0  0  0  0  0  0  0  0
    7.1640  -13.2093   21.3143 O   0  0  0  0  0  0  0  0  0  0  0  0
    7.2557  -14.3061   16.0960 O   0  0  0  0  0  0  0  0  0  0  0  0
    8.6378  -14.8607   21.8983 N   0  0  0  0  0  0  0  0  0  0  0  0
    7.8693  -15.1462   23.1345 C   0  0  1  0  0  0  0  0  0  0  0  0
    7.7840  -16.6561   23.1723 C   0  0  0  0  0  0  0  0  0  0  0  0
    6.7949  -17.2353   22.2613 C   0  0  0  0  0  0  0  0  0  0  0  0
    5.6029  -16.7898   22.3831 O   0  0  0  0  0  0  0  0  0  0  0  0
    8.5320  -14.5475   24.2939 C   0  0  0  0  0  0  0  0  0  0  0  0
    9.8182  -14.4792   24.2778 O   0  0  0  0  0  0  0  0  0  0  0  0
    6.9929  -18.1910   21.3015 O   0  0  0  0  0  0  0  0  0  0  0  0
    7.8936  -14.0297   25.4396 N   0  0  0  0  0  0  0  0  0  0  0  0
    6.4310  -14.0292   25.6383 C   0  0  0  0  0  0  0  0  0  0  0  0
    6.1143  -12.7958   26.4226 C   0  0  0  0  0  0  0  0  0  0  0  0
    7.4193  -12.2740   26.9321 C   0  0  0  0  0  0  0  0  0  0  0  0
    8.3939  -13.4046   26.6361 C   0  0  1  0  0  0  0  0  0  0  0  0
    8.3680  -14.3917   27.7501 C   0  0  0  0  0  0  0  0  0  0  0  0
    7.6761  -15.4249   27.6136 O   0  0  0  0  0  0  0  0  0  0  0  0
    9.1022  -14.1606   28.9151 O   0  0  0  0  0  0  0  0  0  0  0  0
  2  1  1  6
  2  3  1  0
  3  4  1  0
  5  4  1  0
  5  6  2  0
  7  2  1  0
  7  8  2  0
  9  5  1  0
 10  7  1  0
 11 10  1  0
 12 13  1  0
 11 12  1  1
 13 17  1  0
 14 13  2  0
 15 11  1  0
 16 15  2  0
 18 15  1  0
 18 22  1  0
 19 20  1  0
 19 18  1  0
 20 21  1  0
 22 21  1  0
 22 23  1  1
 24 23  2  0
 25 23  1  0
M  END
$$$$
