EDP.pdb
     RDKit          3D

 25 25  0  0  1  0  0  0  0  0999 V2000
    5.3856  -18.9462   21.5678 N   0  0  0  0  0  0  0  0  0  0  0  0
    6.6434  -18.3592   21.9480 C   0  0  1  0  0  0  0  0  0  0  0  0
    7.0485  -17.3420   20.9396 C   0  0  0  0  0  0  0  0  0  0  0  0
    6.6934  -17.7151   19.5432 C   0  0  0  0  0  0  0  0  0  0  0  0
    7.8144  -18.1826   18.7049 C   0  0  0  0  0  0  0  0  0  0  0  0
    8.8779  -17.5201   18.6237 O   0  0  0  0  0  0  0  0  0  0  0  0
    6.5112  -17.6782   23.2822 C   0  0  0  0  0  0  0  0  0  0  0  0
    5.6037  -16.8203   23.4887 O   0  0  0  0  0  0  0  0  0  0  0  0
    7.7364  -19.3625   17.9802 O   0  0  0  0  0  0  0  0  0  0  0  0
    7.3869  -17.9620   24.3586 N   0  0  0  0  0  0  0  0  0  0  0  0
    7.3965  -17.0960   25.5628 C   0  0  1  0  0  0  0  0  0  0  0  0
    8.1556  -17.9059   26.5905 C   0  0  0  0  0  0  0  0  0  0  0  0
    7.4344  -19.0723   27.1035 C   0  0  0  0  0  0  0  0  0  0  0  0
    8.0989  -19.8333   27.8866 O   0  0  0  0  0  0  0  0  0  0  0  0
    7.9968  -15.7983   25.2502 C   0  0  0  0  0  0  0  0  0  0  0  0
    8.9047  -15.7644   24.3371 O   0  0  0  0  0  0  0  0  0  0  0  0
    6.1422  -19.4430   26.8455 O   0  0  0  0  0  0  0  0  0  0  0  0
    7.6738  -14.5665   25.8556 N   0  0  0  0  0  0  0  0  0  0  0  0
    6.5691  -14.3860   26.8178 C   0  0  0  0  0  0  0  0  0  0  0  0
    6.0419  -13.0039   26.5974 C   0  0  0  0  0  0  0  0  0  0  0  0
    7.0453  -12.3023   25.7395 C   0  0  0  0  0  0  0  0  0  0  0  0
    8.2383  -13.2469   25.7433 C   0  0  1  0  0  0  0  0  0  0  0  0
    9.0871  -12.9758   26.9358 C   0  0  0  0  0  0  0  0  0  0  0  0
    9.0028  -13.7502   27.9145 O   0  0  0  0  0  0  0  0  0  0  0  0
    9.9535  -11.8810   26.9513 O   0  0  0  0  0  0  0  0  0  0  0  0
  2  1  1  6
  2  3  1  0
  3  4  1  0
  5  4  1  0
  5  6  2  0
  7  2  1  0
  7  8  2  0
  9  5  1  0
 10  7  1  0
 11 10  1  0
 12 13  1  0
 11 12  1  1
 13 17  1  0
 14 13  2  0
 15 11  1  0
 16 15  2  0
 18 15  1  0
 18 22  1  0
 19 20  1  0
 19 18  1  0
 20 21  1  0
 22 21  1  0
 22 23  1  1
 24 23  2  0
 25 23  1  0
M  END
$$$$
