EDP.pdb
     RDKit          3D

 25 25  0  0  1  0  0  0  0  0999 V2000
    8.7357  -13.5183   19.0019 N   0  0  0  0  0  0  0  0  0  0  0  0
    9.2136  -14.5593   19.8731 C   0  0  1  0  0  0  0  0  0  0  0  0
   10.6615  -14.3562   20.1518 C   0  0  0  0  0  0  0  0  0  0  0  0
   11.5551  -14.9793   19.1376 C   0  0  0  0  0  0  0  0  0  0  0  0
   12.9991  -14.9112   19.4342 C   0  0  0  0  0  0  0  0  0  0  0  0
   13.6407  -13.8443   19.2706 O   0  0  0  0  0  0  0  0  0  0  0  0
    8.4689  -14.5195   21.1791 C   0  0  0  0  0  0  0  0  0  0  0  0
    7.9633  -13.4414   21.6082 O   0  0  0  0  0  0  0  0  0  0  0  0
   13.6973  -16.0147   19.9013 O   0  0  0  0  0  0  0  0  0  0  0  0
    8.3005  -15.6746   21.9813 N   0  0  0  0  0  0  0  0  0  0  0  0
    7.4774  -15.6153   23.2138 C   0  0  1  0  0  0  0  0  0  0  0  0
    7.0298  -17.0449   23.4246 C   0  0  0  0  0  0  0  0  0  0  0  0
    6.3096  -17.2813   24.6773 C   0  0  0  0  0  0  0  0  0  0  0  0
    5.9493  -16.2334   25.3145 O   0  0  0  0  0  0  0  0  0  0  0  0
    8.2571  -15.0553   24.3185 C   0  0  0  0  0  0  0  0  0  0  0  0
    9.5401  -15.1496   24.2524 O   0  0  0  0  0  0  0  0  0  0  0  0
    5.9790  -18.4827   25.2440 O   0  0  0  0  0  0  0  0  0  0  0  0
    7.7364  -14.4130   25.4607 N   0  0  0  0  0  0  0  0  0  0  0  0
    6.3028  -14.3901   25.8112 C   0  0  0  0  0  0  0  0  0  0  0  0
    6.0557  -13.0770   26.4829 C   0  0  0  0  0  0  0  0  0  0  0  0
    7.4008  -12.5019   26.7911 C   0  0  0  0  0  0  0  0  0  0  0  0
    8.3520  -13.6586   26.5211 C   0  0  1  0  0  0  0  0  0  0  0  0
    8.4545  -14.5155   27.7341 C   0  0  0  0  0  0  0  0  0  0  0  0
    7.8372  -15.6034   27.7478 O   0  0  0  0  0  0  0  0  0  0  0  0
    9.2239  -14.1056   28.8248 O   0  0  0  0  0  0  0  0  0  0  0  0
  2  1  1  6
  2  3  1  0
  3  4  1  0
  5  4  1  0
  5  6  2  0
  7  2  1  0
  7  8  2  0
  9  5  1  0
 10  7  1  0
 11 10  1  0
 12 13  1  0
 11 12  1  1
 13 17  1  0
 14 13  2  0
 15 11  1  0
 16 15  2  0
 18 15  1  0
 18 22  1  0
 19 20  1  0
 19 18  1  0
 20 21  1  0
 22 21  1  0
 22 23  1  1
 24 23  2  0
 25 23  1  0
M  END
$$$$
