EDP.pdb
     RDKit          3D

 25 25  0  0  1  0  0  0  0  0999 V2000
   12.2910  -17.2579   21.9535 N   0  0  0  0  0  0  0  0  0  0  0  0
   11.5580  -17.2631   23.1920 C   0  0  1  0  0  0  0  0  0  0  0  0
   12.5072  -17.2318   24.3380 C   0  0  0  0  0  0  0  0  0  0  0  0
   12.9675  -18.5811   24.7655 C   0  0  0  0  0  0  0  0  0  0  0  0
   14.4220  -18.8150   24.6768 C   0  0  0  0  0  0  0  0  0  0  0  0
   15.1758  -17.9798   24.1191 O   0  0  0  0  0  0  0  0  0  0  0  0
   10.6760  -16.0477   23.2731 C   0  0  0  0  0  0  0  0  0  0  0  0
   11.1644  -14.9024   23.5005 O   0  0  0  0  0  0  0  0  0  0  0  0
   15.0071  -19.9574   25.2018 O   0  0  0  0  0  0  0  0  0  0  0  0
    9.2725  -16.1274   23.1006 N   0  0  0  0  0  0  0  0  0  0  0  0
    8.4261  -14.9245   23.2929 C   0  0  1  0  0  0  0  0  0  0  0  0
    7.0858  -15.3236   22.7162 C   0  0  0  0  0  0  0  0  0  0  0  0
    7.1566  -16.0177   21.4290 C   0  0  0  0  0  0  0  0  0  0  0  0
    6.3984  -17.0399   21.3092 O   0  0  0  0  0  0  0  0  0  0  0  0
    8.3900  -14.5499   24.7072 C   0  0  0  0  0  0  0  0  0  0  0  0
    9.0745  -15.2642   25.5322 O   0  0  0  0  0  0  0  0  0  0  0  0
    7.9332  -15.7051   20.3460 O   0  0  0  0  0  0  0  0  0  0  0  0
    7.6732  -13.4699   25.2622 N   0  0  0  0  0  0  0  0  0  0  0  0
    6.7533  -12.6095   24.4927 C   0  0  0  0  0  0  0  0  0  0  0  0
    6.8505  -11.2449   25.0968 C   0  0  0  0  0  0  0  0  0  0  0  0
    7.5776  -11.4090   26.3928 C   0  0  0  0  0  0  0  0  0  0  0  0
    7.6156  -12.9173   26.5903 C   0  0  1  0  0  0  0  0  0  0  0  0
    6.3602  -13.3669   27.2522 C   0  0  0  0  0  0  0  0  0  0  0  0
    5.4788  -13.9095   26.5498 O   0  0  0  0  0  0  0  0  0  0  0  0
    6.1810  -13.1829   28.6246 O   0  0  0  0  0  0  0  0  0  0  0  0
  2  1  1  6
  2  3  1  0
  3  4  1  0
  5  4  1  0
  5  6  2  0
  7  2  1  0
  7  8  2  0
  9  5  1  0
 10  7  1  0
 11 10  1  0
 12 13  1  0
 11 12  1  1
 13 17  1  0
 14 13  2  0
 15 11  1  0
 16 15  2  0
 18 15  1  0
 18 22  1  0
 19 20  1  0
 19 18  1  0
 20 21  1  0
 22 21  1  0
 22 23  1  6
 24 23  2  0
 25 23  1  0
M  END
$$$$
