EDP.pdb
     RDKit          3D

 25 25  0  0  1  0  0  0  0  0999 V2000
    8.1491  -15.9833   19.3440 N   0  0  0  0  0  0  0  0  0  0  0  0
    8.1256  -14.7316   20.0538 C   0  0  1  0  0  0  0  0  0  0  0  0
    7.2832  -13.7511   19.3159 C   0  0  0  0  0  0  0  0  0  0  0  0
    7.9860  -13.1039   18.1746 C   0  0  0  0  0  0  0  0  0  0  0  0
    8.3669  -14.0041   17.0690 C   0  0  0  0  0  0  0  0  0  0  0  0
    9.2616  -13.6768   16.2509 O   0  0  0  0  0  0  0  0  0  0  0  0
    7.5362  -14.9276   21.4234 C   0  0  0  0  0  0  0  0  0  0  0  0
    6.3066  -14.7191   21.6394 O   0  0  0  0  0  0  0  0  0  0  0  0
    7.7557  -15.2365   16.8926 O   0  0  0  0  0  0  0  0  0  0  0  0
    8.3215  -15.3503   22.5237 N   0  0  0  0  0  0  0  0  0  0  0  0
    7.7037  -15.5206   23.8615 C   0  0  1  0  0  0  0  0  0  0  0  0
    7.4590  -17.0098   23.9651 C   0  0  0  0  0  0  0  0  0  0  0  0
    7.1184  -17.4811   25.3089 C   0  0  0  0  0  0  0  0  0  0  0  0
    5.9881  -17.0920   25.7616 O   0  0  0  0  0  0  0  0  0  0  0  0
    8.5812  -14.9770   24.8989 C   0  0  0  0  0  0  0  0  0  0  0  0
    9.8440  -15.2095   24.7955 O   0  0  0  0  0  0  0  0  0  0  0  0
    7.8614  -18.2827   26.1329 O   0  0  0  0  0  0  0  0  0  0  0  0
    8.1763  -14.2128   26.0126 N   0  0  0  0  0  0  0  0  0  0  0  0
    6.7743  -13.8480   26.2954 C   0  0  0  0  0  0  0  0  0  0  0  0
    6.8140  -12.5034   26.9491 C   0  0  0  0  0  0  0  0  0  0  0  0
    8.2417  -12.2562   27.3173 C   0  0  0  0  0  0  0  0  0  0  0  0
    8.9046  -13.6082   27.0973 C   0  0  1  0  0  0  0  0  0  0  0  0
    8.7482  -14.4464   28.3175 C   0  0  0  0  0  0  0  0  0  0  0  0
    7.8673  -15.3346   28.3203 O   0  0  0  0  0  0  0  0  0  0  0  0
    9.5701  -14.2382   29.4269 O   0  0  0  0  0  0  0  0  0  0  0  0
  2  1  1  6
  2  3  1  0
  3  4  1  0
  5  4  1  0
  5  6  2  0
  7  2  1  0
  7  8  2  0
  9  5  1  0
 10  7  1  0
 11 10  1  0
 12 13  1  0
 11 12  1  1
 13 17  1  0
 14 13  2  0
 15 11  1  0
 16 15  2  0
 18 15  1  0
 18 22  1  0
 19 20  1  0
 19 18  1  0
 20 21  1  0
 22 21  1  0
 22 23  1  1
 24 23  2  0
 25 23  1  0
M  END
$$$$
