ETR.pdb
     RDKit          3D

 28 27  0  0  1  0  0  0  0  0999 V2000
   13.3317  -17.8222   16.6815 N   0  0  0  0  0  0  0  0  0  0  0  0
   13.8933  -18.1139   18.0122 C   0  0  1  0  0  0  0  0  0  0  0  0
   14.8968  -17.0265   18.3760 C   0  0  0  0  0  0  0  0  0  0  0  0
   14.2364  -15.6667   18.1967 C   0  0  0  0  0  0  0  0  0  0  0  0
   15.2484  -14.6423   18.5208 C   0  0  0  0  0  0  0  0  0  0  0  0
   15.1593  -13.9220   19.5489 O   0  0  0  0  0  0  0  0  0  0  0  0
   12.7743  -18.0188   18.9774 C   0  0  0  0  0  0  0  0  0  0  0  0
   11.6343  -17.5663   18.6240 O   0  0  0  0  0  0  0  0  0  0  0  0
   16.3359  -14.4452   17.6900 O   0  0  0  0  0  0  0  0  0  0  0  0
   10.9989  -19.8874   23.1081 C   0  0  0  0  0  0  0  0  0  0  0  0
   12.1850  -19.8339   22.1609 C   0  0  1  0  0  0  0  0  0  0  0  0
   12.2773  -20.9752   21.3832 O   0  0  0  0  0  0  0  0  0  0  0  0
   11.8659  -18.6778   21.1987 C   0  0  2  0  0  0  0  0  0  0  0  0
   12.9934  -18.4444   20.3173 N   0  0  0  0  0  0  0  0  0  0  0  0
   11.6828  -17.4812   22.0584 C   0  0  0  0  0  0  0  0  0  0  0  0
   12.6933  -16.9040   22.5956 O   0  0  0  0  0  0  0  0  0  0  0  0
    8.5590  -12.0406   19.6604 N   0  0  0  0  0  0  0  0  0  0  0  0
    7.7571  -13.0401   19.0320 C   0  0  0  0  0  0  0  0  0  0  0  0
    7.6644  -13.0441   17.7472 N   0  0  0  0  0  0  0  0  0  0  0  0
    7.0717  -14.0106   19.7922 N   0  0  0  0  0  0  0  0  0  0  0  0
    7.3517  -14.1501   21.2196 C   0  0  0  0  0  0  0  0  0  0  0  0
    8.7555  -14.6399   21.3894 C   0  0  0  0  0  0  0  0  0  0  0  0
    9.0475  -14.9607   22.8123 C   0  0  0  0  0  0  0  0  0  0  0  0
   10.3707  -15.6269   23.0607 C   0  0  2  0  0  0  0  0  0  0  0  0
   10.4269  -16.9074   22.3392 N   0  0  0  0  0  0  0  0  0  0  0  0
   10.6148  -15.9367   24.4811 C   0  0  0  0  0  0  0  0  0  0  0  0
   11.4457  -15.1866   25.2994 O   0  0  0  0  0  0  0  0  0  0  0  0
   10.0591  -16.9223   25.0092 O   0  0  0  0  0  0  0  0  0  0  0  0
  2  1  1  6
  3  2  1  0
  4  3  1  0
  5  4  1  0
  5  6  2  0
  7  8  2  0
  7  2  1  0
  9  5  1  0
 11 10  1  1
 12 11  1  0
 13 11  1  0
 13 14  1  6
 14  7  1  0
 15 13  1  0
 16 15  2  0
 18 17  1  0
 18 19  2  0
 20 18  1  0
 21 20  1  0
 21 22  1  0
 24 23  1  1
 23 22  1  0
 24 25  1  0
 25 15  1  0
 26 27  1  0
 26 24  1  0
 28 26  2  0
M  END
$$$$
