ETR.pdb
     RDKit          3D

 28 27  0  0  1  0  0  0  0  0999 V2000
    9.4823  -15.6250   15.7768 N   0  0  0  0  0  0  0  0  0  0  0  0
    9.6539  -16.4542   16.9827 C   0  0  1  0  0  0  0  0  0  0  0  0
   11.0155  -17.1357   16.9261 C   0  0  0  0  0  0  0  0  0  0  0  0
   11.4164  -17.3155   15.4687 C   0  0  0  0  0  0  0  0  0  0  0  0
   12.7500  -17.9480   15.4560 C   0  0  0  0  0  0  0  0  0  0  0  0
   13.8012  -17.2790   15.2800 O   0  0  0  0  0  0  0  0  0  0  0  0
    9.6747  -15.5278   18.1378 C   0  0  0  0  0  0  0  0  0  0  0  0
   10.3707  -14.4582   18.1136 O   0  0  0  0  0  0  0  0  0  0  0  0
   12.8793  -19.3123   15.6397 O   0  0  0  0  0  0  0  0  0  0  0  0
    7.2546  -13.3702   19.2156 C   0  0  0  0  0  0  0  0  0  0  0  0
    7.3145  -14.3444   20.3793 C   0  0  1  0  0  0  0  0  0  0  0  0
    6.4807  -15.4322   20.1861 O   0  0  0  0  0  0  0  0  0  0  0  0
    8.7517  -14.8904   20.3594 C   0  0  2  0  0  0  0  0  0  0  0  0
    8.8986  -15.8532   19.2850 N   0  0  0  0  0  0  0  0  0  0  0  0
    8.9292  -15.5961   21.6536 C   0  0  0  0  0  0  0  0  0  0  0  0
    8.9847  -16.8760   21.6957 O   0  0  0  0  0  0  0  0  0  0  0  0
   11.3037  -17.6672   28.6010 N   0  0  0  0  0  0  0  0  0  0  0  0
   10.8309  -16.5279   29.3189 C   0  0  0  0  0  0  0  0  0  0  0  0
   11.0618  -16.4518   30.5839 N   0  0  0  0  0  0  0  0  0  0  0  0
   10.1207  -15.4977   28.6678 N   0  0  0  0  0  0  0  0  0  0  0  0
   10.6730  -14.8791   27.4647 C   0  0  0  0  0  0  0  0  0  0  0  0
   10.4547  -15.8003   26.3057 C   0  0  0  0  0  0  0  0  0  0  0  0
   10.1324  -15.0430   25.0667 C   0  0  0  0  0  0  0  0  0  0  0  0
    9.1950  -15.7346   24.1183 C   0  0  2  0  0  0  0  0  0  0  0  0
    9.0472  -14.9353   22.8925 N   0  0  0  0  0  0  0  0  0  0  0  0
    7.8377  -15.9182   24.6636 C   0  0  0  0  0  0  0  0  0  0  0  0
    7.4685  -16.9908   25.4609 O   0  0  0  0  0  0  0  0  0  0  0  0
    6.9461  -15.0806   24.4131 O   0  0  0  0  0  0  0  0  0  0  0  0
  2  1  1  6
  3  2  1  0
  4  3  1  0
  5  4  1  0
  5  6  2  0
  7  8  2  0
  7  2  1  0
  9  5  1  0
 11 10  1  6
 12 11  1  0
 13 11  1  0
 13 14  1  6
 14  7  1  0
 15 13  1  0
 16 15  2  0
 18 17  1  0
 18 19  2  0
 20 18  1  0
 21 20  1  0
 21 22  1  0
 24 23  1  1
 23 22  1  0
 24 25  1  0
 25 15  1  0
 26 27  1  0
 26 24  1  0
 28 26  2  0
M  END
$$$$
