ETR.pdb
     RDKit          3D

 28 27  0  0  1  0  0  0  0  0999 V2000
   11.6708  -15.2824   15.3217 N   0  0  0  0  0  0  0  0  0  0  0  0
   11.1419  -16.1962   16.3497 C   0  0  1  0  0  0  0  0  0  0  0  0
   12.2366  -17.1768   16.7519 C   0  0  0  0  0  0  0  0  0  0  0  0
   11.8307  -18.5762   16.3113 C   0  0  0  0  0  0  0  0  0  0  0  0
   12.9617  -19.4755   16.6126 C   0  0  0  0  0  0  0  0  0  0  0  0
   12.8048  -20.5510   17.2471 O   0  0  0  0  0  0  0  0  0  0  0  0
   10.8358  -15.3686   17.5390 C   0  0  0  0  0  0  0  0  0  0  0  0
   11.7283  -14.6330   18.0788 O   0  0  0  0  0  0  0  0  0  0  0  0
   14.2412  -19.1537   16.1994 O   0  0  0  0  0  0  0  0  0  0  0  0
    7.4749  -13.2006   20.2696 C   0  0  0  0  0  0  0  0  0  0  0  0
    7.7064  -14.0965   19.0652 C   0  0  1  0  0  0  0  0  0  0  0  0
    7.6283  -13.3934   17.8755 O   0  0  0  0  0  0  0  0  0  0  0  0
    9.1656  -14.5627   19.1986 C   0  0  2  0  0  0  0  0  0  0  0  0
    9.5180  -15.4077   18.0742 N   0  0  0  0  0  0  0  0  0  0  0  0
    9.2123  -15.3805   20.4370 C   0  0  0  0  0  0  0  0  0  0  0  0
    9.2232  -16.6605   20.3725 O   0  0  0  0  0  0  0  0  0  0  0  0
   10.5073  -15.8629   30.1896 N   0  0  0  0  0  0  0  0  0  0  0  0
   10.3833  -15.0789   29.0035 C   0  0  0  0  0  0  0  0  0  0  0  0
   10.3606  -13.7951   29.1077 N   0  0  0  0  0  0  0  0  0  0  0  0
   10.2846  -15.6858   27.7340 N   0  0  0  0  0  0  0  0  0  0  0  0
   10.1894  -14.8564   26.5348 C   0  0  0  0  0  0  0  0  0  0  0  0
    9.8518  -15.7320   25.3691 C   0  0  0  0  0  0  0  0  0  0  0  0
    9.7027  -14.9365   24.1210 C   0  0  0  0  0  0  0  0  0  0  0  0
    9.3745  -15.7316   22.8895 C   0  0  2  0  0  0  0  0  0  0  0  0
    9.2481  -14.8306   21.7339 N   0  0  0  0  0  0  0  0  0  0  0  0
    8.1005  -16.4667   22.9875 C   0  0  0  0  0  0  0  0  0  0  0  0
    8.0052  -17.7882   23.3966 O   0  0  0  0  0  0  0  0  0  0  0  0
    7.0281  -15.8988   22.6928 O   0  0  0  0  0  0  0  0  0  0  0  0
  2  1  1  6
  3  2  1  0
  4  3  1  0
  5  4  1  0
  5  6  2  0
  7  8  2  0
  7  2  1  0
  9  5  1  0
 11 10  1  1
 12 11  1  0
 13 11  1  0
 13 14  1  6
 14  7  1  0
 15 13  1  0
 16 15  2  0
 18 17  1  0
 18 19  2  0
 20 18  1  0
 21 20  1  0
 21 22  1  0
 24 23  1  1
 23 22  1  0
 24 25  1  0
 25 15  1  0
 26 27  1  0
 26 24  1  0
 28 26  2  0
M  END
$$$$
