ETR.pdb
     RDKit          3D

 28 27  0  0  1  0  0  0  0  0999 V2000
   11.0353  -19.2836   19.5751 N   0  0  0  0  0  0  0  0  0  0  0  0
   11.9249  -18.1096   19.5368 C   0  0  1  0  0  0  0  0  0  0  0  0
   12.2975  -17.8171   18.0885 C   0  0  0  0  0  0  0  0  0  0  0  0
   12.5871  -19.1323   17.3789 C   0  0  0  0  0  0  0  0  0  0  0  0
   13.3170  -18.8087   16.1375 C   0  0  0  0  0  0  0  0  0  0  0  0
   13.4305  -17.6262   15.7223 O   0  0  0  0  0  0  0  0  0  0  0  0
   11.1329  -16.9584   20.0270 C   0  0  0  0  0  0  0  0  0  0  0  0
   11.5642  -15.7628   19.9102 O   0  0  0  0  0  0  0  0  0  0  0  0
   13.9027  -19.8123   15.3881 O   0  0  0  0  0  0  0  0  0  0  0  0
    7.4553  -15.9958   19.3830 C   0  0  0  0  0  0  0  0  0  0  0  0
    7.5992  -16.3327   20.8569 C   0  0  1  0  0  0  0  0  0  0  0  0
    7.3431  -17.6694   21.1089 O   0  0  0  0  0  0  0  0  0  0  0  0
    9.0889  -16.1106   21.1658 C   0  0  2  0  0  0  0  0  0  0  0  0
    9.8717  -17.2100   20.6357 N   0  0  0  0  0  0  0  0  0  0  0  0
    9.1966  -16.1249   22.6466 C   0  0  0  0  0  0  0  0  0  0  0  0
    9.8210  -17.0707   23.2454 O   0  0  0  0  0  0  0  0  0  0  0  0
    6.4709  -10.2689   28.2878 N   0  0  0  0  0  0  0  0  0  0  0  0
    5.8741  -11.2726   27.4672 C   0  0  0  0  0  0  0  0  0  0  0  0
    4.6651  -11.1011   27.0571 N   0  0  0  0  0  0  0  0  0  0  0  0
    6.5834  -12.4371   27.1059 N   0  0  0  0  0  0  0  0  0  0  0  0
    7.9204  -12.6736   27.6462 C   0  0  0  0  0  0  0  0  0  0  0  0
    8.4496  -13.9534   27.0792 C   0  0  0  0  0  0  0  0  0  0  0  0
    8.3220  -13.9816   25.5974 C   0  0  0  0  0  0  0  0  0  0  0  0
    8.8394  -15.2256   24.9331 C   0  0  2  0  0  0  0  0  0  0  0  0
    8.6404  -15.1331   23.4787 N   0  0  0  0  0  0  0  0  0  0  0  0
    8.1528  -16.4543   25.3714 C   0  0  0  0  0  0  0  0  0  0  0  0
    8.6386  -17.2944   26.3618 O   0  0  0  0  0  0  0  0  0  0  0  0
    7.0718  -16.7875   24.8426 O   0  0  0  0  0  0  0  0  0  0  0  0
  2  1  1  6
  3  2  1  0
  4  3  1  0
  5  4  1  0
  5  6  2  0
  7  8  2  0
  7  2  1  0
  9  5  1  0
 11 10  1  6
 12 11  1  0
 13 11  1  0
 13 14  1  6
 14  7  1  0
 15 13  1  0
 16 15  2  0
 18 17  1  0
 18 19  2  0
 20 18  1  0
 21 20  1  0
 21 22  1  0
 24 23  1  1
 23 22  1  0
 24 25  1  0
 25 15  1  0
 26 27  1  0
 26 24  1  0
 28 26  2  0
M  END
$$$$
