ETR.pdb
     RDKit          3D

 28 27  0  0  1  0  0  0  0  0999 V2000
    9.5335  -16.8001   16.0334 N   0  0  0  0  0  0  0  0  0  0  0  0
    9.1916  -17.2830   17.3829 C   0  0  1  0  0  0  0  0  0  0  0  0
   10.1988  -18.3483   17.7982 C   0  0  0  0  0  0  0  0  0  0  0  0
   10.1774  -19.4731   16.7727 C   0  0  0  0  0  0  0  0  0  0  0  0
   11.1208  -20.5083   17.2384 C   0  0  0  0  0  0  0  0  0  0  0  0
   12.2403  -20.6822   16.6904 O   0  0  0  0  0  0  0  0  0  0  0  0
    9.3631  -16.1350   18.3026 C   0  0  0  0  0  0  0  0  0  0  0  0
   10.2931  -15.2793   18.1240 O   0  0  0  0  0  0  0  0  0  0  0  0
   10.7928  -21.3256   18.3043 O   0  0  0  0  0  0  0  0  0  0  0  0
    7.5435  -12.9207   21.2730 C   0  0  0  0  0  0  0  0  0  0  0  0
    7.2515  -14.1279   20.3988 C   0  0  1  0  0  0  0  0  0  0  0  0
    6.9193  -13.7615   19.1060 O   0  0  0  0  0  0  0  0  0  0  0  0
    8.5906  -14.8778   20.3067 C   0  0  2  0  0  0  0  0  0  0  0  0
    8.4653  -16.0011   19.3983 N   0  0  0  0  0  0  0  0  0  0  0  0
    8.8506  -15.4009   21.6717 C   0  0  0  0  0  0  0  0  0  0  0  0
    8.9403  -16.6624   21.8799 O   0  0  0  0  0  0  0  0  0  0  0  0
    7.8276  -20.3958   25.7599 N   0  0  0  0  0  0  0  0  0  0  0  0
    6.6821  -19.9423   25.0396 C   0  0  0  0  0  0  0  0  0  0  0  0
    5.6253  -20.6789   25.0268 N   0  0  0  0  0  0  0  0  0  0  0  0
    6.6938  -18.7128   24.3483 N   0  0  0  0  0  0  0  0  0  0  0  0
    6.4656  -17.4657   25.0747 C   0  0  0  0  0  0  0  0  0  0  0  0
    7.0895  -16.3413   24.3093 C   0  0  0  0  0  0  0  0  0  0  0  0
    8.5688  -16.4846   24.2480 C   0  0  0  0  0  0  0  0  0  0  0  0
    9.3317  -15.1992   24.0991 C   0  0  2  0  0  0  0  0  0  0  0  0
    9.0139  -14.5785   22.8042 N   0  0  0  0  0  0  0  0  0  0  0  0
   10.7947  -15.3778   24.1289 C   0  0  0  0  0  0  0  0  0  0  0  0
   11.5262  -15.5340   25.2964 O   0  0  0  0  0  0  0  0  0  0  0  0
   11.4432  -15.3938   23.0619 O   0  0  0  0  0  0  0  0  0  0  0  0
  2  1  1  6
  3  2  1  0
  4  3  1  0
  5  4  1  0
  5  6  2  0
  7  8  2  0
  7  2  1  0
  9  5  1  0
 11 10  1  1
 12 11  1  0
 13 11  1  0
 13 14  1  6
 14  7  1  0
 15 13  1  0
 16 15  2  0
 18 17  1  0
 18 19  2  0
 20 18  1  0
 21 20  1  0
 21 22  1  0
 24 23  1  6
 23 22  1  0
 24 25  1  0
 25 15  1  0
 26 27  1  0
 26 24  1  0
 28 26  2  0
M  END
$$$$
