ETR.pdb
     RDKit          3D

 28 27  0  0  1  0  0  0  0  0999 V2000
    5.9805  -20.6665   13.7323 N   0  0  0  0  0  0  0  0  0  0  0  0
    6.1173  -21.8954   14.5337 C   0  0  1  0  0  0  0  0  0  0  0  0
    7.5790  -22.3260   14.5355 C   0  0  0  0  0  0  0  0  0  0  0  0
    7.9694  -22.7501   13.1266 C   0  0  0  0  0  0  0  0  0  0  0  0
    9.3886  -23.1537   13.1681 C   0  0  0  0  0  0  0  0  0  0  0  0
    9.7413  -24.3559   13.0510 O   0  0  0  0  0  0  0  0  0  0  0  0
    5.7639  -21.5376   15.9265 C   0  0  0  0  0  0  0  0  0  0  0  0
    5.7932  -20.3252   16.3244 O   0  0  0  0  0  0  0  0  0  0  0  0
   10.3809  -22.2063   13.3397 O   0  0  0  0  0  0  0  0  0  0  0  0
    3.4043  -22.5834   19.9732 C   0  0  0  0  0  0  0  0  0  0  0  0
    3.7176  -23.0213   18.5530 C   0  0  1  0  0  0  0  0  0  0  0  0
    2.7460  -22.6072   17.6584 O   0  0  0  0  0  0  0  0  0  0  0  0
    5.0012  -22.2601   18.1826 C   0  0  2  0  0  0  0  0  0  0  0  0
    5.3875  -22.5777   16.8216 N   0  0  0  0  0  0  0  0  0  0  0  0
    6.0486  -22.7713   19.1025 C   0  0  0  0  0  0  0  0  0  0  0  0
    6.8629  -23.6841   18.7197 O   0  0  0  0  0  0  0  0  0  0  0  0
    6.8493  -28.4685   24.2958 N   0  0  0  0  0  0  0  0  0  0  0  0
    6.2606  -27.7245   23.2297 C   0  0  0  0  0  0  0  0  0  0  0  0
    5.2049  -28.1901   22.6568 N   0  0  0  0  0  0  0  0  0  0  0  0
    6.8154  -26.5010   22.7998 N   0  0  0  0  0  0  0  0  0  0  0  0
    8.0782  -26.4914   22.0646 C   0  0  0  0  0  0  0  0  0  0  0  0
    8.4461  -25.0737   21.7576 C   0  0  0  0  0  0  0  0  0  0  0  0
    7.3468  -24.3731   21.0412 C   0  0  0  0  0  0  0  0  0  0  0  0
    7.2920  -22.8863   21.2485 C   0  0  2  0  0  0  0  0  0  0  0  0
    6.2223  -22.3072   20.4215 N   0  0  0  0  0  0  0  0  0  0  0  0
    8.5362  -22.1940   20.8670 C   0  0  0  0  0  0  0  0  0  0  0  0
    9.7958  -22.5861   21.2941 O   0  0  0  0  0  0  0  0  0  0  0  0
    8.4903  -21.1949   20.1192 O   0  0  0  0  0  0  0  0  0  0  0  0
  2  1  1  6
  3  2  1  0
  4  3  1  0
  5  4  1  0
  5  6  2  0
  7  8  2  0
  7  2  1  0
  9  5  1  0
 11 10  1  1
 12 11  1  0
 13 11  1  0
 13 14  1  6
 14  7  1  0
 15 13  1  0
 16 15  2  0
 18 17  1  0
 18 19  2  0
 20 18  1  0
 21 20  1  0
 21 22  1  0
 24 23  1  6
 23 22  1  0
 24 25  1  0
 25 15  1  0
 26 27  1  0
 26 24  1  0
 28 26  2  0
M  END
$$$$
