ETR.pdb
     RDKit          3D

 28 27  0  0  1  0  0  0  0  0999 V2000
    9.9869  -15.9714   15.2952 N   0  0  0  0  0  0  0  0  0  0  0  0
    8.8887  -16.0999   16.2693 C   0  0  1  0  0  0  0  0  0  0  0  0
    8.5270  -17.5726   16.4172 C   0  0  0  0  0  0  0  0  0  0  0  0
    9.4590  -18.3992   15.5423 C   0  0  0  0  0  0  0  0  0  0  0  0
    9.2152  -19.8194   15.8623 C   0  0  0  0  0  0  0  0  0  0  0  0
    8.4683  -20.5418   15.1524 O   0  0  0  0  0  0  0  0  0  0  0  0
    9.4212  -15.6458   17.5744 C   0  0  0  0  0  0  0  0  0  0  0  0
   10.6733  -15.4737   17.7528 O   0  0  0  0  0  0  0  0  0  0  0  0
    9.8102  -20.4001   16.9670 O   0  0  0  0  0  0  0  0  0  0  0  0
    8.0664  -12.6396   19.3201 C   0  0  0  0  0  0  0  0  0  0  0  0
    7.9745  -13.7465   20.3560 C   0  0  1  0  0  0  0  0  0  0  0  0
    6.7281  -14.3485   20.3598 O   0  0  0  0  0  0  0  0  0  0  0  0
    8.9708  -14.8150   19.8767 C   0  0  2  0  0  0  0  0  0  0  0  0
    8.5050  -15.4023   18.6354 N   0  0  0  0  0  0  0  0  0  0  0  0
    8.9669  -15.8649   20.9267 C   0  0  0  0  0  0  0  0  0  0  0  0
    8.4820  -17.0265   20.6849 O   0  0  0  0  0  0  0  0  0  0  0  0
   15.7823  -19.5459   23.5184 N   0  0  0  0  0  0  0  0  0  0  0  0
   15.2856  -18.9964   22.2984 C   0  0  0  0  0  0  0  0  0  0  0  0
   16.0287  -19.0460   21.2474 N   0  0  0  0  0  0  0  0  0  0  0  0
   14.0066  -18.4052   22.2313 N   0  0  0  0  0  0  0  0  0  0  0  0
   12.8153  -19.2494   22.1732 C   0  0  0  0  0  0  0  0  0  0  0  0
   11.7370  -18.6181   22.9967 C   0  0  0  0  0  0  0  0  0  0  0  0
   11.0875  -17.4957   22.2679 C   0  0  0  0  0  0  0  0  0  0  0  0
    9.9470  -16.8371   22.9904 C   0  0  2  0  0  0  0  0  0  0  0  0
    9.4792  -15.6714   22.2250 N   0  0  0  0  0  0  0  0  0  0  0  0
   10.3094  -16.3393   24.3298 C   0  0  0  0  0  0  0  0  0  0  0  0
   10.3113  -17.1299   25.4688 O   0  0  0  0  0  0  0  0  0  0  0  0
   10.6376  -15.1444   24.4836 O   0  0  0  0  0  0  0  0  0  0  0  0
  2  1  1  6
  3  2  1  0
  4  3  1  0
  5  4  1  0
  5  6  2  0
  7  8  2  0
  7  2  1  0
  9  5  1  0
 11 10  1  6
 12 11  1  0
 13 11  1  0
 13 14  1  6
 14  7  1  0
 15 13  1  0
 16 15  2  0
 18 17  1  0
 18 19  2  0
 20 18  1  0
 21 20  1  0
 21 22  1  0
 24 23  1  6
 23 22  1  0
 24 25  1  0
 25 15  1  0
 26 27  1  0
 26 24  1  0
 28 26  2  0
M  END
$$$$
