ETR.pdb
     RDKit          3D

 28 27  0  0  1  0  0  0  0  0999 V2000
    8.4923  -14.7972   14.1519 N   0  0  0  0  0  0  0  0  0  0  0  0
    8.3182  -15.5899   15.3818 C   0  0  1  0  0  0  0  0  0  0  0  0
    9.0056  -16.9381   15.2041 C   0  0  0  0  0  0  0  0  0  0  0  0
   10.3950  -16.7103   14.6253 C   0  0  0  0  0  0  0  0  0  0  0  0
   11.0149  -18.0368   14.4394 C   0  0  0  0  0  0  0  0  0  0  0  0
   10.3245  -19.0819   14.3172 O   0  0  0  0  0  0  0  0  0  0  0  0
    9.0363  -14.8699   16.4583 C   0  0  0  0  0  0  0  0  0  0  0  0
   10.0178  -14.0975   16.1951 O   0  0  0  0  0  0  0  0  0  0  0  0
   12.3908  -18.1663   14.3945 O   0  0  0  0  0  0  0  0  0  0  0  0
    7.5340  -12.6086   19.1245 C   0  0  0  0  0  0  0  0  0  0  0  0
    8.1693  -13.7845   19.8460 C   0  0  1  0  0  0  0  0  0  0  0  0
    7.2718  -14.8213   20.0344 O   0  0  0  0  0  0  0  0  0  0  0  0
    9.2395  -14.3084   18.8743 C   0  0  2  0  0  0  0  0  0  0  0  0
    8.6096  -15.0554   17.8029 N   0  0  0  0  0  0  0  0  0  0  0  0
   10.0795  -15.2398   19.6690 C   0  0  0  0  0  0  0  0  0  0  0  0
    9.9468  -16.5081   19.5404 O   0  0  0  0  0  0  0  0  0  0  0  0
   15.0323  -13.6991   17.0172 N   0  0  0  0  0  0  0  0  0  0  0  0
   15.8747  -14.3422   17.9731 C   0  0  0  0  0  0  0  0  0  0  0  0
   16.7660  -15.1731   17.5553 N   0  0  0  0  0  0  0  0  0  0  0  0
   15.7432  -14.0831   19.3534 N   0  0  0  0  0  0  0  0  0  0  0  0
   15.4135  -15.1713   20.2713 C   0  0  0  0  0  0  0  0  0  0  0  0
   13.9652  -15.5129   20.1129 C   0  0  0  0  0  0  0  0  0  0  0  0
   13.2511  -15.4577   21.4167 C   0  0  0  0  0  0  0  0  0  0  0  0
   11.7952  -15.8238   21.3661 C   0  0  2  0  0  0  0  0  0  0  0  0
   11.0544  -14.8150   20.5935 N   0  0  0  0  0  0  0  0  0  0  0  0
   11.1582  -15.8835   22.6942 C   0  0  0  0  0  0  0  0  0  0  0  0
   11.3663  -16.9118   23.6007 O   0  0  0  0  0  0  0  0  0  0  0  0
   10.3819  -14.9745   23.0553 O   0  0  0  0  0  0  0  0  0  0  0  0
  2  1  1  6
  3  2  1  0
  4  3  1  0
  5  4  1  0
  5  6  2  0
  7  8  2  0
  7  2  1  0
  9  5  1  0
 11 10  1  6
 12 11  1  0
 13 11  1  0
 13 14  1  6
 14  7  1  0
 15 13  1  0
 16 15  2  0
 18 17  1  0
 18 19  2  0
 20 18  1  0
 21 20  1  0
 21 22  1  0
 24 23  1  1
 23 22  1  0
 24 25  1  0
 25 15  1  0
 26 27  1  0
 26 24  1  0
 28 26  2  0
M  END
$$$$
