ETR.pdb
     RDKit          3D

 28 27  0  0  1  0  0  0  0  0999 V2000
   12.6442  -15.9027   16.5928 N   0  0  0  0  0  0  0  0  0  0  0  0
   11.2971  -16.3059   17.0334 C   0  0  1  0  0  0  0  0  0  0  0  0
   11.3612  -17.7226   17.5908 C   0  0  0  0  0  0  0  0  0  0  0  0
   12.6324  -17.8708   18.4149 C   0  0  0  0  0  0  0  0  0  0  0  0
   12.7021  -19.2752   18.8639 C   0  0  0  0  0  0  0  0  0  0  0  0
   12.5317  -20.2361   18.0694 O   0  0  0  0  0  0  0  0  0  0  0  0
   10.9291  -15.4100   18.1536 C   0  0  0  0  0  0  0  0  0  0  0  0
   11.8218  -14.8852   18.8998 O   0  0  0  0  0  0  0  0  0  0  0  0
   12.9598  -19.5744   20.1889 O   0  0  0  0  0  0  0  0  0  0  0  0
    7.4108  -12.9548   20.5070 C   0  0  0  0  0  0  0  0  0  0  0  0
    7.6867  -13.8662   19.3238 C   0  0  1  0  0  0  0  0  0  0  0  0
    7.6178  -13.1860   18.1203 O   0  0  0  0  0  0  0  0  0  0  0  0
    9.1527  -14.2973   19.4952 C   0  0  2  0  0  0  0  0  0  0  0  0
    9.5512  -15.1418   18.3858 N   0  0  0  0  0  0  0  0  0  0  0  0
    9.1888  -15.1051   20.7405 C   0  0  0  0  0  0  0  0  0  0  0  0
    9.1082  -16.3833   20.6906 O   0  0  0  0  0  0  0  0  0  0  0  0
   10.1206  -17.4800   28.5211 N   0  0  0  0  0  0  0  0  0  0  0  0
   10.3050  -16.0956   28.8148 C   0  0  0  0  0  0  0  0  0  0  0  0
   11.0418  -15.7669   29.8191 N   0  0  0  0  0  0  0  0  0  0  0  0
    9.6958  -15.0951   28.0289 N   0  0  0  0  0  0  0  0  0  0  0  0
   10.3491  -14.6284   26.8080 C   0  0  0  0  0  0  0  0  0  0  0  0
    9.8876  -15.4728   25.6619 C   0  0  0  0  0  0  0  0  0  0  0  0
    9.7616  -14.6703   24.4157 C   0  0  0  0  0  0  0  0  0  0  0  0
    9.3492  -15.4425   23.1951 C   0  0  2  0  0  0  0  0  0  0  0  0
    9.3113  -14.5473   22.0287 N   0  0  0  0  0  0  0  0  0  0  0  0
    8.0070  -16.0421   23.3053 C   0  0  0  0  0  0  0  0  0  0  0  0
    7.7751  -17.3259   23.7748 O   0  0  0  0  0  0  0  0  0  0  0  0
    7.0006  -15.3858   22.9652 O   0  0  0  0  0  0  0  0  0  0  0  0
  2  1  1  1
  3  2  1  0
  4  3  1  0
  5  4  1  0
  5  6  2  0
  7  8  2  0
  7  2  1  0
  9  5  1  0
 11 10  1  1
 12 11  1  0
 13 11  1  0
 13 14  1  6
 14  7  1  0
 15 13  1  0
 16 15  2  0
 18 17  1  0
 18 19  2  0
 20 18  1  0
 21 20  1  0
 21 22  1  0
 24 23  1  1
 23 22  1  0
 24 25  1  0
 25 15  1  0
 26 27  1  0
 26 24  1  0
 28 26  2  0
M  END
$$$$
