ETR.pdb
     RDKit          3D

 28 27  0  0  1  0  0  0  0  0999 V2000
    9.2841  -15.3894   16.2290 N   0  0  0  0  0  0  0  0  0  0  0  0
    9.1352  -16.2645   17.4051 C   0  0  1  0  0  0  0  0  0  0  0  0
   10.2656  -17.2862   17.4092 C   0  0  0  0  0  0  0  0  0  0  0  0
   10.5114  -17.7548   15.9819 C   0  0  0  0  0  0  0  0  0  0  0  0
   11.6318  -18.7148   16.0229 C   0  0  0  0  0  0  0  0  0  0  0  0
   12.7584  -18.4428   15.5326 O   0  0  0  0  0  0  0  0  0  0  0  0
    9.3142  -15.4075   18.5995 C   0  0  0  0  0  0  0  0  0  0  0  0
   10.2296  -14.5191   18.6434 O   0  0  0  0  0  0  0  0  0  0  0  0
   11.4688  -19.9560   16.6099 O   0  0  0  0  0  0  0  0  0  0  0  0
    6.9852  -13.0338   20.0303 C   0  0  0  0  0  0  0  0  0  0  0  0
    7.1523  -14.0726   21.1256 C   0  0  1  0  0  0  0  0  0  0  0  0
    6.2208  -15.0907   21.0188 O   0  0  0  0  0  0  0  0  0  0  0  0
    8.5249  -14.7103   20.8544 C   0  0  2  0  0  0  0  0  0  0  0  0
    8.4405  -15.5930   19.7071 N   0  0  0  0  0  0  0  0  0  0  0  0
    8.8313  -15.5261   22.0566 C   0  0  0  0  0  0  0  0  0  0  0  0
    9.4450  -16.6458   21.9451 O   0  0  0  0  0  0  0  0  0  0  0  0
    7.1324  -22.2625   24.2407 N   0  0  0  0  0  0  0  0  0  0  0  0
    6.0272  -21.4580   24.6508 C   0  0  0  0  0  0  0  0  0  0  0  0
    4.8509  -21.9827   24.6701 N   0  0  0  0  0  0  0  0  0  0  0  0
    6.2054  -20.1107   25.0289 N   0  0  0  0  0  0  0  0  0  0  0  0
    7.5193  -19.4847   24.8993 C   0  0  0  0  0  0  0  0  0  0  0  0
    7.3439  -18.1079   24.3399 C   0  0  0  0  0  0  0  0  0  0  0  0
    8.6562  -17.4762   24.0372 C   0  0  0  0  0  0  0  0  0  0  0  0
    8.7988  -16.0491   24.4835 C   0  0  2  0  0  0  0  0  0  0  0  0
    8.4833  -15.1443   23.3676 N   0  0  0  0  0  0  0  0  0  0  0  0
   10.1621  -15.7059   24.9269 C   0  0  0  0  0  0  0  0  0  0  0  0
   11.2226  -15.4959   24.0587 O   0  0  0  0  0  0  0  0  0  0  0  0
   10.4115  -15.5903   26.1450 O   0  0  0  0  0  0  0  0  0  0  0  0
  2  1  1  6
  3  2  1  0
  4  3  1  0
  5  4  1  0
  5  6  2  0
  7  8  2  0
  7  2  1  0
  9  5  1  0
 11 10  1  6
 12 11  1  0
 13 11  1  0
 13 14  1  6
 14  7  1  0
 15 13  1  0
 16 15  2  0
 18 17  1  0
 18 19  2  0
 20 18  1  0
 21 20  1  0
 21 22  1  0
 24 23  1  6
 23 22  1  0
 24 25  1  0
 25 15  1  0
 26 27  1  0
 26 24  1  0
 28 26  2  0
M  END
$$$$
