ETR.pdb
     RDKit          3D

 28 27  0  0  1  0  0  0  0  0999 V2000
    9.4858  -18.7062   19.3297 N   0  0  0  0  0  0  0  0  0  0  0  0
    8.2331  -17.9354   19.4190 C   0  0  1  0  0  0  0  0  0  0  0  0
    7.1894  -18.7687   20.1523 C   0  0  0  0  0  0  0  0  0  0  0  0
    7.7123  -19.1011   21.5427 C   0  0  0  0  0  0  0  0  0  0  0  0
    6.6930  -19.9378   22.2057 C   0  0  0  0  0  0  0  0  0  0  0  0
    6.8688  -21.1682   22.4027 O   0  0  0  0  0  0  0  0  0  0  0  0
    8.5201  -16.7516   20.2613 C   0  0  0  0  0  0  0  0  0  0  0  0
    9.5294  -16.7262   21.0422 O   0  0  0  0  0  0  0  0  0  0  0  0
    5.5012  -19.3821   22.6328 O   0  0  0  0  0  0  0  0  0  0  0  0
    7.4738  -12.0560   21.2015 C   0  0  0  0  0  0  0  0  0  0  0  0
    7.0857  -13.2581   20.3582 C   0  0  1  0  0  0  0  0  0  0  0  0
    7.4090  -13.0796   19.0243 O   0  0  0  0  0  0  0  0  0  0  0  0
    7.9774  -14.4008   20.8715 C   0  0  2  0  0  0  0  0  0  0  0  0
    7.6438  -15.6333   20.1843 N   0  0  0  0  0  0  0  0  0  0  0  0
    7.6406  -14.5556   22.3093 C   0  0  0  0  0  0  0  0  0  0  0  0
    6.6619  -15.2991   22.6729 O   0  0  0  0  0  0  0  0  0  0  0  0
   11.9856  -16.7433   29.3919 N   0  0  0  0  0  0  0  0  0  0  0  0
   11.0066  -15.8559   29.9314 C   0  0  0  0  0  0  0  0  0  0  0  0
   11.0208  -15.6108   31.1959 N   0  0  0  0  0  0  0  0  0  0  0  0
   10.0341  -15.2529   29.1064 N   0  0  0  0  0  0  0  0  0  0  0  0
   10.3027  -15.0616   27.6829 C   0  0  0  0  0  0  0  0  0  0  0  0
    9.0135  -14.7592   26.9858 C   0  0  0  0  0  0  0  0  0  0  0  0
    9.2224  -14.5574   25.5269 C   0  0  0  0  0  0  0  0  0  0  0  0
    7.9872  -14.2142   24.7440 C   0  0  2  0  0  0  0  0  0  0  0  0
    8.3476  -13.9193   23.3489 N   0  0  0  0  0  0  0  0  0  0  0  0
    7.2807  -13.0248   25.2533 C   0  0  0  0  0  0  0  0  0  0  0  0
    6.2867  -13.0762   26.2187 O   0  0  0  0  0  0  0  0  0  0  0  0
    7.5677  -11.8923   24.8126 O   0  0  0  0  0  0  0  0  0  0  0  0
  2  1  1  1
  3  2  1  0
  4  3  1  0
  5  4  1  0
  5  6  2  0
  7  8  2  0
  7  2  1  0
  9  5  1  0
 11 10  1  1
 12 11  1  0
 13 11  1  0
 13 14  1  6
 14  7  1  0
 15 13  1  0
 16 15  2  0
 18 17  1  0
 18 19  2  0
 20 18  1  0
 21 20  1  0
 21 22  1  0
 24 23  1  1
 23 22  1  0
 24 25  1  0
 25 15  1  0
 26 27  1  0
 26 24  1  0
 28 26  2  0
M  END
$$$$
