ETR.pdb
     RDKit          3D

 28 27  0  0  1  0  0  0  0  0999 V2000
   10.0259  -15.8288   15.0498 N   0  0  0  0  0  0  0  0  0  0  0  0
    9.3464  -16.5307   16.1530 C   0  0  1  0  0  0  0  0  0  0  0  0
   10.0633  -17.8488   16.4183 C   0  0  0  0  0  0  0  0  0  0  0  0
   11.5521  -17.5759   16.5808 C   0  0  0  0  0  0  0  0  0  0  0  0
   12.2207  -18.8810   16.7490 C   0  0  0  0  0  0  0  0  0  0  0  0
   13.1152  -19.0627   17.6153 O   0  0  0  0  0  0  0  0  0  0  0  0
    9.5136  -15.6897   17.3604 C   0  0  0  0  0  0  0  0  0  0  0  0
   10.4701  -14.8497   17.4525 O   0  0  0  0  0  0  0  0  0  0  0  0
   11.8760  -19.9527   15.9463 O   0  0  0  0  0  0  0  0  0  0  0  0
    7.5923  -12.9770   20.5969 C   0  0  0  0  0  0  0  0  0  0  0  0
    7.5052  -13.8443   19.3531 C   0  0  1  0  0  0  0  0  0  0  0  0
    7.8349  -13.1402   18.2080 O   0  0  0  0  0  0  0  0  0  0  0  0
    8.6005  -14.9072   19.5393 C   0  0  2  0  0  0  0  0  0  0  0  0
    8.5814  -15.8354   18.4254 N   0  0  0  0  0  0  0  0  0  0  0  0
    8.2357  -15.6449   20.7752 C   0  0  0  0  0  0  0  0  0  0  0  0
    7.7097  -16.8117   20.7064 O   0  0  0  0  0  0  0  0  0  0  0  0
   16.0492  -18.0051   22.6384 N   0  0  0  0  0  0  0  0  0  0  0  0
   15.4283  -16.9497   23.3716 C   0  0  0  0  0  0  0  0  0  0  0  0
   16.1501  -15.9567   23.7618 N   0  0  0  0  0  0  0  0  0  0  0  0
   14.0504  -16.9818   23.6721 N   0  0  0  0  0  0  0  0  0  0  0  0
   13.0871  -16.4021   22.7388 C   0  0  0  0  0  0  0  0  0  0  0  0
   11.7056  -16.6409   23.2622 C   0  0  0  0  0  0  0  0  0  0  0  0
   10.6795  -16.0181   22.3836 C   0  0  0  0  0  0  0  0  0  0  0  0
    9.3183  -15.8615   22.9991 C   0  0  2  0  0  0  0  0  0  0  0  0
    8.4339  -15.1363   22.0743 N   0  0  0  0  0  0  0  0  0  0  0  0
    9.3275  -15.0932   24.2571 C   0  0  0  0  0  0  0  0  0  0  0  0
    9.4252  -15.6748   25.5120 O   0  0  0  0  0  0  0  0  0  0  0  0
    9.2439  -13.8477   24.2282 O   0  0  0  0  0  0  0  0  0  0  0  0
  2  1  1  6
  3  2  1  0
  4  3  1  0
  5  4  1  0
  5  6  2  0
  7  8  2  0
  7  2  1  0
  9  5  1  0
 11 10  1  1
 12 11  1  0
 13 11  1  0
 13 14  1  6
 14  7  1  0
 15 13  1  0
 16 15  2  0
 18 17  1  0
 18 19  2  0
 20 18  1  0
 21 20  1  0
 21 22  1  0
 24 23  1  6
 23 22  1  0
 24 25  1  0
 25 15  1  0
 26 27  1  0
 26 24  1  0
 28 26  2  0
M  END
$$$$
