ETR.pdb
     RDKit          3D

 28 27  0  0  1  0  0  0  0  0999 V2000
   13.4641  -13.8189   18.0175 N   0  0  0  0  0  0  0  0  0  0  0  0
   12.6958  -14.9255   18.6146 C   0  0  1  0  0  0  0  0  0  0  0  0
   13.6516  -15.8440   19.3659 C   0  0  0  0  0  0  0  0  0  0  0  0
   14.2939  -16.8041   18.3745 C   0  0  0  0  0  0  0  0  0  0  0  0
   15.1997  -17.6829   19.1398 C   0  0  0  0  0  0  0  0  0  0  0  0
   16.3828  -17.3474   19.4065 O   0  0  0  0  0  0  0  0  0  0  0  0
   11.7884  -14.3220   19.6173 C   0  0  0  0  0  0  0  0  0  0  0  0
   12.1975  -13.4148   20.4165 O   0  0  0  0  0  0  0  0  0  0  0  0
   14.7642  -18.9158   19.5893 O   0  0  0  0  0  0  0  0  0  0  0  0
    8.3829  -12.7923   18.9556 C   0  0  0  0  0  0  0  0  0  0  0  0
    8.1510  -13.9479   19.9135 C   0  0  1  0  0  0  0  0  0  0  0  0
    7.8614  -15.1241   19.2439 O   0  0  0  0  0  0  0  0  0  0  0  0
    9.5085  -14.1639   20.6026 C   0  0  2  0  0  0  0  0  0  0  0  0
   10.4407  -14.7747   19.6749 N   0  0  0  0  0  0  0  0  0  0  0  0
    9.2479  -15.1198   21.7085 C   0  0  0  0  0  0  0  0  0  0  0  0
    9.8429  -16.2545   21.7427 O   0  0  0  0  0  0  0  0  0  0  0  0
   10.0335  -13.7411   30.1308 N   0  0  0  0  0  0  0  0  0  0  0  0
   10.1164  -15.1503   29.9206 C   0  0  0  0  0  0  0  0  0  0  0  0
   10.5860  -15.8919   30.8634 N   0  0  0  0  0  0  0  0  0  0  0  0
    9.6969  -15.7334   28.7066 N   0  0  0  0  0  0  0  0  0  0  0  0
    9.6052  -14.9162   27.4987 C   0  0  0  0  0  0  0  0  0  0  0  0
    9.0762  -15.7625   26.3836 C   0  0  0  0  0  0  0  0  0  0  0  0
    8.9939  -14.9929   25.1133 C   0  0  0  0  0  0  0  0  0  0  0  0
    8.3855  -15.7310   23.9551 C   0  0  2  0  0  0  0  0  0  0  0  0
    8.3574  -14.8610   22.7694 N   0  0  0  0  0  0  0  0  0  0  0  0
    6.9942  -16.1554   24.1948 C   0  0  0  0  0  0  0  0  0  0  0  0
    6.6492  -17.2721   24.9409 O   0  0  0  0  0  0  0  0  0  0  0  0
    6.0491  -15.4962   23.7137 O   0  0  0  0  0  0  0  0  0  0  0  0
  2  1  1  1
  3  2  1  0
  4  3  1  0
  5  4  1  0
  5  6  2  0
  7  8  2  0
  7  2  1  0
  9  5  1  0
 11 10  1  6
 12 11  1  0
 13 11  1  0
 13 14  1  6
 14  7  1  0
 15 13  1  0
 16 15  2  0
 18 17  1  0
 18 19  2  0
 20 18  1  0
 21 20  1  0
 21 22  1  0
 24 23  1  1
 23 22  1  0
 24 25  1  0
 25 15  1  0
 26 27  1  0
 26 24  1  0
 28 26  2  0
M  END
$$$$
