ETR.pdb
     RDKit          3D

 28 27  0  0  1  0  0  0  0  0999 V2000
    8.9175  -17.5456   17.6413 N   0  0  0  0  0  0  0  0  0  0  0  0
   10.2297  -16.9051   17.8391 C   0  0  1  0  0  0  0  0  0  0  0  0
   10.6689  -16.2601   16.5304 C   0  0  0  0  0  0  0  0  0  0  0  0
   11.9272  -16.9588   16.0347 C   0  0  0  0  0  0  0  0  0  0  0  0
   11.5552  -17.7301   14.8324 C   0  0  0  0  0  0  0  0  0  0  0  0
   11.7269  -18.9747   14.7618 O   0  0  0  0  0  0  0  0  0  0  0  0
   10.0281  -15.8140   18.8198 C   0  0  0  0  0  0  0  0  0  0  0  0
   11.0181  -15.1694   19.3030 O   0  0  0  0  0  0  0  0  0  0  0  0
   11.0006  -17.0944   13.7369 O   0  0  0  0  0  0  0  0  0  0  0  0
    7.1097  -13.0592   18.9947 C   0  0  0  0  0  0  0  0  0  0  0  0
    7.0580  -13.9738   20.2061 C   0  0  1  0  0  0  0  0  0  0  0  0
    6.1999  -15.0422   20.0107 O   0  0  0  0  0  0  0  0  0  0  0  0
    8.4728  -14.5670   20.3096 C   0  0  2  0  0  0  0  0  0  0  0  0
    8.7001  -15.4936   19.2177 N   0  0  0  0  0  0  0  0  0  0  0  0
    8.4957  -15.3258   21.5857 C   0  0  0  0  0  0  0  0  0  0  0  0
    8.4558  -16.6069   21.5827 O   0  0  0  0  0  0  0  0  0  0  0  0
   10.5889  -13.9201   30.2537 N   0  0  0  0  0  0  0  0  0  0  0  0
   10.6382  -15.3025   29.9025 C   0  0  0  0  0  0  0  0  0  0  0  0
   11.2731  -16.1164   30.6731 N   0  0  0  0  0  0  0  0  0  0  0  0
   10.0092  -15.7820   28.7345 N   0  0  0  0  0  0  0  0  0  0  0  0
    9.9860  -14.9578   27.5281 C   0  0  0  0  0  0  0  0  0  0  0  0
    9.2789  -15.7097   26.4446 C   0  0  0  0  0  0  0  0  0  0  0  0
    9.2595  -14.9363   25.1741 C   0  0  0  0  0  0  0  0  0  0  0  0
    8.4696  -15.5574   24.0575 C   0  0  2  0  0  0  0  0  0  0  0  0
    8.5617  -14.7164   22.8544 N   0  0  0  0  0  0  0  0  0  0  0  0
    7.0338  -15.6969   24.3608 C   0  0  0  0  0  0  0  0  0  0  0  0
    6.4881  -16.7956   25.0073 O   0  0  0  0  0  0  0  0  0  0  0  0
    6.2359  -14.7948   24.0312 O   0  0  0  0  0  0  0  0  0  0  0  0
  2  1  1  6
  3  2  1  0
  4  3  1  0
  5  4  1  0
  5  6  2  0
  7  8  2  0
  7  2  1  0
  9  5  1  0
 11 10  1  6
 12 11  1  0
 13 11  1  0
 13 14  1  6
 14  7  1  0
 15 13  1  0
 16 15  2  0
 18 17  1  0
 18 19  2  0
 20 18  1  0
 21 20  1  0
 21 22  1  0
 24 23  1  1
 23 22  1  0
 24 25  1  0
 25 15  1  0
 26 27  1  0
 26 24  1  0
 28 26  2  0
M  END
$$$$
