ETR.pdb
     RDKit          3D

 28 27  0  0  1  0  0  0  0  0999 V2000
    8.8010  -14.9646   14.1815 N   0  0  0  0  0  0  0  0  0  0  0  0
    8.4139  -15.6585   15.4225 C   0  0  1  0  0  0  0  0  0  0  0  0
    8.9685  -17.0774   15.3908 C   0  0  0  0  0  0  0  0  0  0  0  0
   10.4348  -17.0243   14.9854 C   0  0  0  0  0  0  0  0  0  0  0  0
   10.9349  -18.4129   14.9678 C   0  0  0  0  0  0  0  0  0  0  0  0
   10.1685  -19.3974   15.1320 O   0  0  0  0  0  0  0  0  0  0  0  0
    9.0865  -14.9494   16.5350 C   0  0  0  0  0  0  0  0  0  0  0  0
   10.1368  -14.2525   16.3345 O   0  0  0  0  0  0  0  0  0  0  0  0
   12.2786  -18.6705   14.7678 O   0  0  0  0  0  0  0  0  0  0  0  0
    7.4562  -12.6121   19.0680 C   0  0  0  0  0  0  0  0  0  0  0  0
    8.0499  -13.7641   19.8599 C   0  0  1  0  0  0  0  0  0  0  0  0
    7.1316  -14.7798   20.0619 O   0  0  0  0  0  0  0  0  0  0  0  0
    9.1440  -14.3433   18.9481 C   0  0  2  0  0  0  0  0  0  0  0  0
    8.5369  -15.0592   17.8428 N   0  0  0  0  0  0  0  0  0  0  0  0
    9.8906  -15.3148   19.7869 C   0  0  0  0  0  0  0  0  0  0  0  0
    9.6539  -16.5711   19.6959 O   0  0  0  0  0  0  0  0  0  0  0  0
   16.2303  -13.2916   18.8912 N   0  0  0  0  0  0  0  0  0  0  0  0
   16.0385  -14.4620   18.0973 C   0  0  0  0  0  0  0  0  0  0  0  0
   16.3236  -14.4142   16.8420 N   0  0  0  0  0  0  0  0  0  0  0  0
   15.5445  -15.6556   18.6639 N   0  0  0  0  0  0  0  0  0  0  0  0
   15.0694  -15.6647   20.0458 C   0  0  0  0  0  0  0  0  0  0  0  0
   13.5934  -15.9113   20.0460 C   0  0  0  0  0  0  0  0  0  0  0  0
   13.0329  -15.8347   21.4218 C   0  0  0  0  0  0  0  0  0  0  0  0
   11.5414  -15.9862   21.5156 C   0  0  2  0  0  0  0  0  0  0  0  0
   10.8834  -14.9425   20.7150 N   0  0  0  0  0  0  0  0  0  0  0  0
   11.0224  -15.8489   22.8886 C   0  0  0  0  0  0  0  0  0  0  0  0
   10.1899  -14.8176   23.2958 O   0  0  0  0  0  0  0  0  0  0  0  0
   11.3298  -16.6899   23.7588 O   0  0  0  0  0  0  0  0  0  0  0  0
  2  1  1  6
  3  2  1  0
  4  3  1  0
  5  4  1  0
  5  6  2  0
  7  8  2  0
  7  2  1  0
  9  5  1  0
 11 10  1  6
 12 11  1  0
 13 11  1  0
 13 14  1  6
 14  7  1  0
 15 13  1  0
 16 15  2  0
 18 17  1  0
 18 19  2  0
 20 18  1  0
 21 20  1  0
 21 22  1  0
 24 23  1  1
 23 22  1  0
 24 25  1  0
 25 15  1  0
 26 27  1  0
 26 24  1  0
 28 26  2  0
M  END
$$$$
