ETR.pdb
     RDKit          3D

 28 27  0  0  1  0  0  0  0  0999 V2000
   10.0639  -15.6770   15.4184 N   0  0  0  0  0  0  0  0  0  0  0  0
    9.3048  -16.2770   16.5298 C   0  0  1  0  0  0  0  0  0  0  0  0
    9.8236  -17.6877   16.7799 C   0  0  0  0  0  0  0  0  0  0  0  0
   11.3451  -17.6680   16.7364 C   0  0  0  0  0  0  0  0  0  0  0  0
   11.8040  -19.0679   16.8275 C   0  0  0  0  0  0  0  0  0  0  0  0
   11.2893  -19.9825   16.1331 O   0  0  0  0  0  0  0  0  0  0  0  0
    9.6118  -15.4762   17.7370 C   0  0  0  0  0  0  0  0  0  0  0  0
   10.7576  -14.9373   17.8979 O   0  0  0  0  0  0  0  0  0  0  0  0
   12.8263  -19.4146   17.6915 O   0  0  0  0  0  0  0  0  0  0  0  0
    7.5290  -12.6415   19.2194 C   0  0  0  0  0  0  0  0  0  0  0  0
    7.6199  -13.7141   20.2909 C   0  0  1  0  0  0  0  0  0  0  0  0
    6.5458  -14.5857   20.2419 O   0  0  0  0  0  0  0  0  0  0  0  0
    8.8638  -14.5369   19.9168 C   0  0  2  0  0  0  0  0  0  0  0  0
    8.5987  -15.3164   18.7232 N   0  0  0  0  0  0  0  0  0  0  0  0
    9.0821  -15.4695   21.0513 C   0  0  0  0  0  0  0  0  0  0  0  0
    8.8058  -16.7155   20.9329 O   0  0  0  0  0  0  0  0  0  0  0  0
   14.1375  -19.7832   24.6864 N   0  0  0  0  0  0  0  0  0  0  0  0
   12.9759  -20.4071   25.2326 C   0  0  0  0  0  0  0  0  0  0  0  0
   13.0714  -21.6098   25.6840 N   0  0  0  0  0  0  0  0  0  0  0  0
   11.7388  -19.7310   25.2816 N   0  0  0  0  0  0  0  0  0  0  0  0
   11.3254  -18.8851   24.1641 C   0  0  0  0  0  0  0  0  0  0  0  0
   11.4946  -17.4511   24.5572 C   0  0  0  0  0  0  0  0  0  0  0  0
   11.1718  -16.5393   23.4271 C   0  0  0  0  0  0  0  0  0  0  0  0
    9.7449  -16.0738   23.3665 C   0  0  2  0  0  0  0  0  0  0  0  0
    9.5932  -15.0700   22.3022 N   0  0  0  0  0  0  0  0  0  0  0  0
    9.2822  -15.4352   24.6120 C   0  0  0  0  0  0  0  0  0  0  0  0
    8.8891  -16.1424   25.7380 O   0  0  0  0  0  0  0  0  0  0  0  0
    9.2283  -14.1903   24.6922 O   0  0  0  0  0  0  0  0  0  0  0  0
  2  1  1  6
  3  2  1  0
  4  3  1  0
  5  4  1  0
  5  6  2  0
  7  8  2  0
  7  2  1  0
  9  5  1  0
 11 10  1  6
 12 11  1  0
 13 11  1  0
 13 14  1  6
 14  7  1  0
 15 13  1  0
 16 15  2  0
 18 17  1  0
 18 19  2  0
 20 18  1  0
 21 20  1  0
 21 22  1  0
 24 23  1  1
 23 22  1  0
 24 25  1  0
 25 15  1  0
 26 27  1  0
 26 24  1  0
 28 26  2  0
M  END
$$$$
