VPW.pdb
     RDKit          3D

 29 31  0  0  1  0  0  0  0  0999 V2000
    5.2734  -19.2260   19.9580 C   0  0  0  0  0  0  0  0  0  0  0  0
    6.2718  -18.3382   20.6898 C   0  0  2  0  0  0  0  0  0  0  0  0
    5.4606  -17.4205   21.5697 C   0  0  0  0  0  0  0  0  0  0  0  0
    7.0162  -17.5396   19.6077 C   0  0  2  0  0  0  0  0  0  0  0  0
    7.5550  -18.4996   18.7076 N   0  0  0  0  0  0  0  0  0  0  0  0
    7.9644  -16.6818   20.3096 C   0  0  0  0  0  0  0  0  0  0  0  0
    9.0451  -17.2684   20.6861 O   0  0  0  0  0  0  0  0  0  0  0  0
    7.8496  -15.3167   20.6225 N   0  0  0  0  0  0  0  0  0  0  0  0
    6.7691  -14.3960   20.3806 C   0  0  0  0  0  0  0  0  0  0  0  0
    7.5491  -13.1875   19.8352 C   0  0  0  0  0  0  0  0  0  0  0  0
    8.5851  -13.0716   20.9632 C   0  0  0  0  0  0  0  0  0  0  0  0
    8.8657  -14.5246   21.3027 C   0  0  1  0  0  0  0  0  0  0  0  0
    8.7920  -14.7122   22.7635 C   0  0  0  0  0  0  0  0  0  0  0  0
    8.0696  -14.0353   23.5294 O   0  0  0  0  0  0  0  0  0  0  0  0
    9.6027  -15.7419   23.3659 N   0  0  0  0  0  0  0  0  0  0  0  0
   10.1983  -15.5693   24.6465 C   0  0  1  0  0  0  0  0  0  0  0  0
    9.3564  -15.7287   25.8387 C   0  0  0  0  0  0  0  0  0  0  0  0
    7.9767  -15.2344   25.7944 C   0  0  0  0  0  0  0  0  0  0  0  0
    6.8086  -15.8447   25.4441 C   0  0  0  0  0  0  0  0  0  0  0  0
    5.8120  -14.9635   25.5853 N   0  0  0  0  0  0  0  0  0  0  0  0
    6.3118  -13.7964   26.0196 C   0  0  0  0  0  0  0  0  0  0  0  0
    5.7383  -12.5690   26.3286 C   0  0  0  0  0  0  0  0  0  0  0  0
    6.4980  -11.4898   26.7720 C   0  0  0  0  0  0  0  0  0  0  0  0
    7.8573  -11.6358   26.9107 C   0  0  0  0  0  0  0  0  0  0  0  0
    8.4251  -12.8537   26.6040 C   0  0  0  0  0  0  0  0  0  0  0  0
    7.6524  -13.9254   26.1613 C   0  0  0  0  0  0  0  0  0  0  0  0
   11.3694  -16.5166   24.7260 C   0  0  0  0  0  0  0  0  0  0  0  0
   11.5872  -17.4025   23.8722 O   0  0  0  0  0  0  0  0  0  0  0  0
   12.2683  -16.4291   25.7839 O   0  0  0  0  0  0  0  0  0  0  0  0
  2  1  1  6
  2  3  1  0
  4  2  1  0
  4  5  1  6
  6  4  1  0
  6  7  2  0
  8  6  1  0
  9  8  1  0
 10  9  1  0
 11 10  1  0
 11 12  1  0
 12  8  1  0
 12 13  1  1
 13 14  2  0
 15 13  1  0
 16 15  1  0
 16 17  1  1
 17 18  1  0
 18 26  1  0
 18 19  2  0
 19 20  1  0
 21 22  2  0
 21 20  1  0
 23 22  1  0
 24 23  2  0
 25 24  1  0
 25 26  2  0
 26 21  1  0
 27 16  1  0
 28 27  2  0
 29 27  1  0
M  END
$$$$
