VPW.pdb
     RDKit          3D

 29 31  0  0  1  0  0  0  0  0999 V2000
    7.3824  -13.2378   21.5722 C   0  0  0  0  0  0  0  0  0  0  0  0
    8.1248  -13.4856   20.2653 C   0  0  2  0  0  0  0  0  0  0  0  0
    7.6519  -12.4279   19.2999 C   0  0  0  0  0  0  0  0  0  0  0  0
    7.7073  -14.8859   19.7883 C   0  0  2  0  0  0  0  0  0  0  0  0
    6.3189  -14.8054   19.4918 N   0  0  0  0  0  0  0  0  0  0  0  0
    8.1094  -15.8145   20.8387 C   0  0  0  0  0  0  0  0  0  0  0  0
    7.2130  -16.0364   21.7337 O   0  0  0  0  0  0  0  0  0  0  0  0
    9.3328  -16.4877   20.9955 N   0  0  0  0  0  0  0  0  0  0  0  0
   10.5033  -16.4946   20.1568 C   0  0  0  0  0  0  0  0  0  0  0  0
   10.8146  -18.0007   20.1244 C   0  0  0  0  0  0  0  0  0  0  0  0
   10.7998  -18.2573   21.6387 C   0  0  0  0  0  0  0  0  0  0  0  0
    9.6737  -17.3568   22.1140 C   0  0  1  0  0  0  0  0  0  0  0  0
   10.1290  -16.5698   23.2751 C   0  0  0  0  0  0  0  0  0  0  0  0
   10.7424  -15.4815   23.1970 O   0  0  0  0  0  0  0  0  0  0  0  0
    9.8571  -17.0763   24.5979 N   0  0  0  0  0  0  0  0  0  0  0  0
   10.3131  -16.4007   25.7642 C   0  0  1  0  0  0  0  0  0  0  0  0
    9.7635  -15.0731   26.0656 C   0  0  0  0  0  0  0  0  0  0  0  0
    8.3211  -14.8594   25.9118 C   0  0  0  0  0  0  0  0  0  0  0  0
    7.3069  -15.7197   25.6105 C   0  0  0  0  0  0  0  0  0  0  0  0
    6.1588  -15.0331   25.6001 N   0  0  0  0  0  0  0  0  0  0  0  0
    6.4100  -13.7469   25.8885 C   0  0  0  0  0  0  0  0  0  0  0  0
    5.6040  -12.6217   26.0108 C   0  0  0  0  0  0  0  0  0  0  0  0
    6.1259  -11.3706   26.3281 C   0  0  0  0  0  0  0  0  0  0  0  0
    7.4789  -11.2371   26.5279 C   0  0  0  0  0  0  0  0  0  0  0  0
    8.2775  -12.3539   26.4063 C   0  0  0  0  0  0  0  0  0  0  0  0
    7.7413  -13.6001   26.0882 C   0  0  0  0  0  0  0  0  0  0  0  0
   10.0771  -17.3218   26.9352 C   0  0  0  0  0  0  0  0  0  0  0  0
   10.4751  -17.0672   28.0920 O   0  0  0  0  0  0  0  0  0  0  0  0
    9.3890  -18.5172   26.7563 O   0  0  0  0  0  0  0  0  0  0  0  0
  2  1  1  1
  2  3  1  0
  4  2  1  0
  4  5  1  1
  6  4  1  0
  6  7  2  0
  8  6  1  0
  9  8  1  0
 10  9  1  0
 11 10  1  0
 11 12  1  0
 12  8  1  0
 12 13  1  1
 13 14  2  0
 15 13  1  0
 16 15  1  0
 16 17  1  1
 17 18  1  0
 18 26  1  0
 18 19  2  0
 19 20  1  0
 21 22  2  0
 21 20  1  0
 23 22  1  0
 24 23  2  0
 25 24  1  0
 25 26  2  0
 26 21  1  0
 27 16  1  0
 28 27  2  0
 29 27  1  0
M  END
$$$$
