VPW.pdb
     RDKit          3D

 29 31  0  0  1  0  0  0  0  0999 V2000
    7.3055  -12.5318   19.2405 C   0  0  0  0  0  0  0  0  0  0  0  0
    7.6345  -13.4936   20.3751 C   0  0  2  0  0  0  0  0  0  0  0  0
    8.9427  -13.0272   20.9628 C   0  0  0  0  0  0  0  0  0  0  0  0
    7.7880  -14.8827   19.7353 C   0  0  2  0  0  0  0  0  0  0  0  0
    6.5466  -15.1663   19.1024 N   0  0  0  0  0  0  0  0  0  0  0  0
    8.2100  -15.7824   20.8029 C   0  0  0  0  0  0  0  0  0  0  0  0
    7.3189  -16.0060   21.7027 O   0  0  0  0  0  0  0  0  0  0  0  0
    9.4475  -16.4264   20.9716 N   0  0  0  0  0  0  0  0  0  0  0  0
   10.6326  -16.3900   20.1543 C   0  0  0  0  0  0  0  0  0  0  0  0
   10.9833  -17.8869   20.1045 C   0  0  0  0  0  0  0  0  0  0  0  0
   10.9482  -18.1676   21.6142 C   0  0  0  0  0  0  0  0  0  0  0  0
    9.7909  -17.3039   22.0827 C   0  0  1  0  0  0  0  0  0  0  0  0
   10.2049  -16.5240   23.2638 C   0  0  0  0  0  0  0  0  0  0  0  0
   10.8444  -15.4491   23.2146 O   0  0  0  0  0  0  0  0  0  0  0  0
    9.8573  -17.0214   24.5723 N   0  0  0  0  0  0  0  0  0  0  0  0
   10.3215  -16.3885   25.7590 C   0  0  1  0  0  0  0  0  0  0  0  0
    9.7679  -15.0766   26.1167 C   0  0  0  0  0  0  0  0  0  0  0  0
    8.3135  -14.8950   26.0795 C   0  0  0  0  0  0  0  0  0  0  0  0
    7.2978  -15.7771   25.8559 C   0  0  0  0  0  0  0  0  0  0  0  0
    6.1375  -15.1166   25.9405 N   0  0  0  0  0  0  0  0  0  0  0  0
    6.3823  -13.8259   26.2143 C   0  0  0  0  0  0  0  0  0  0  0  0
    5.5638  -12.7196   26.4062 C   0  0  0  0  0  0  0  0  0  0  0  0
    6.0815  -11.4580   26.6871 C   0  0  0  0  0  0  0  0  0  0  0  0
    7.4428  -11.2947   26.7790 C   0  0  0  0  0  0  0  0  0  0  0  0
    8.2537  -12.3928   26.5885 C   0  0  0  0  0  0  0  0  0  0  0  0
    7.7218  -13.6497   26.3080 C   0  0  0  0  0  0  0  0  0  0  0  0
   10.1025  -17.3551   26.8961 C   0  0  0  0  0  0  0  0  0  0  0  0
    9.4095  -18.3891   26.7862 O   0  0  0  0  0  0  0  0  0  0  0  0
   10.6828  -17.1167   28.1374 O   0  0  0  0  0  0  0  0  0  0  0  0
  2  1  1  6
  2  3  1  0
  4  2  1  0
  4  5  1  1
  6  4  1  0
  6  7  2  0
  8  6  1  0
  9  8  1  0
 10  9  1  0
 11 10  1  0
 11 12  1  0
 12  8  1  0
 12 13  1  1
 13 14  2  0
 15 13  1  0
 16 15  1  0
 16 17  1  1
 17 18  1  0
 18 26  1  0
 18 19  2  0
 19 20  1  0
 21 22  2  0
 21 20  1  0
 23 22  1  0
 24 23  2  0
 25 24  1  0
 25 26  2  0
 26 21  1  0
 27 16  1  0
 28 27  2  0
 29 27  1  0
M  END
$$$$
