VPW.pdb
     RDKit          3D

 29 31  0  0  1  0  0  0  0  0999 V2000
   10.8517  -18.0342   18.3929 C   0  0  0  0  0  0  0  0  0  0  0  0
    9.7792  -17.3428   17.5610 C   0  0  2  0  0  0  0  0  0  0  0  0
    9.7422  -18.0587   16.2341 C   0  0  0  0  0  0  0  0  0  0  0  0
   10.2396  -15.8872   17.3832 C   0  0  2  0  0  0  0  0  0  0  0  0
   11.5336  -15.9501   16.7970 N   0  0  0  0  0  0  0  0  0  0  0  0
   10.1349  -15.2600   18.6959 C   0  0  0  0  0  0  0  0  0  0  0  0
   11.2607  -14.9677   19.2445 O   0  0  0  0  0  0  0  0  0  0  0  0
    8.9785  -14.9391   19.4268 N   0  0  0  0  0  0  0  0  0  0  0  0
    7.5895  -15.1342   19.1006 C   0  0  0  0  0  0  0  0  0  0  0  0
    7.0157  -13.7615   19.4912 C   0  0  0  0  0  0  0  0  0  0  0  0
    7.5965  -13.6802   20.9108 C   0  0  0  0  0  0  0  0  0  0  0  0
    8.9655  -14.3148   20.7431 C   0  0  1  0  0  0  0  0  0  0  0  0
    9.1780  -15.3157   21.8050 C   0  0  0  0  0  0  0  0  0  0  0  0
    9.3982  -16.5307   21.5998 O   0  0  0  0  0  0  0  0  0  0  0  0
    9.1309  -14.8803   23.1792 N   0  0  0  0  0  0  0  0  0  0  0  0
    9.5062  -15.7411   24.2482 C   0  0  1  0  0  0  0  0  0  0  0  0
    9.2993  -15.2791   25.6263 C   0  0  0  0  0  0  0  0  0  0  0  0
    7.9608  -14.8306   26.0224 C   0  0  0  0  0  0  0  0  0  0  0  0
    6.7890  -15.5104   26.1784 C   0  0  0  0  0  0  0  0  0  0  0  0
    5.8465  -14.6449   26.5687 N   0  0  0  0  0  0  0  0  0  0  0  0
    6.3849  -13.4198   26.6682 C   0  0  0  0  0  0  0  0  0  0  0  0
    5.8726  -12.1789   27.0264 C   0  0  0  0  0  0  0  0  0  0  0  0
    6.6631  -11.0330   27.0513 C   0  0  0  0  0  0  0  0  0  0  0  0
    7.9917  -11.1249   26.7126 C   0  0  0  0  0  0  0  0  0  0  0  0
    8.4989  -12.3563   26.3575 C   0  0  0  0  0  0  0  0  0  0  0  0
    7.6959  -13.4949   26.3370 C   0  0  0  0  0  0  0  0  0  0  0  0
    8.7859  -17.0502   24.0418 C   0  0  0  0  0  0  0  0  0  0  0  0
    7.6906  -17.1377   23.4466 O   0  0  0  0  0  0  0  0  0  0  0  0
    9.3361  -18.2338   24.5223 O   0  0  0  0  0  0  0  0  0  0  0  0
  2  1  1  1
  2  3  1  0
  4  2  1  0
  4  5  1  1
  6  4  1  0
  6  7  2  0
  8  6  1  0
  9  8  1  0
 10  9  1  0
 11 10  1  0
 11 12  1  0
 12  8  1  0
 12 13  1  1
 13 14  2  0
 15 13  1  0
 16 15  1  0
 16 17  1  1
 17 18  1  0
 18 26  1  0
 18 19  2  0
 19 20  1  0
 21 22  2  0
 21 20  1  0
 23 22  1  0
 24 23  2  0
 25 24  1  0
 25 26  2  0
 26 21  1  0
 27 16  1  0
 28 27  2  0
 29 27  1  0
M  END
$$$$
