VPW.pdb
     RDKit          3D

 29 31  0  0  1  0  0  0  0  0999 V2000
    6.9551  -12.4575   19.5445 C   0  0  0  0  0  0  0  0  0  0  0  0
    7.3563  -13.4353   20.6416 C   0  0  2  0  0  0  0  0  0  0  0  0
    8.6409  -12.9097   21.2315 C   0  0  0  0  0  0  0  0  0  0  0  0
    7.5862  -14.7898   19.9524 C   0  0  2  0  0  0  0  0  0  0  0  0
    6.3688  -15.1086   19.2902 N   0  0  0  0  0  0  0  0  0  0  0  0
    8.0371  -15.7083   20.9918 C   0  0  0  0  0  0  0  0  0  0  0  0
    7.1439  -16.0143   21.8648 O   0  0  0  0  0  0  0  0  0  0  0  0
    9.3040  -16.2929   21.1588 N   0  0  0  0  0  0  0  0  0  0  0  0
   10.5012  -16.1564   20.3703 C   0  0  0  0  0  0  0  0  0  0  0  0
   10.9330  -17.6288   20.2614 C   0  0  0  0  0  0  0  0  0  0  0  0
   10.8836  -17.9798   21.7559 C   0  0  0  0  0  0  0  0  0  0  0  0
    9.6724  -17.2010   22.2369 C   0  0  1  0  0  0  0  0  0  0  0  0
   10.0204  -16.4551   23.4605 C   0  0  0  0  0  0  0  0  0  0  0  0
   10.5445  -15.3185   23.4726 O   0  0  0  0  0  0  0  0  0  0  0  0
    9.7449  -17.0643   24.7385 N   0  0  0  0  0  0  0  0  0  0  0  0
   10.1349  -16.4465   25.9595 C   0  0  1  0  0  0  0  0  0  0  0  0
    9.0930  -16.0997   26.9340 C   0  0  0  0  0  0  0  0  0  0  0  0
    7.8552  -15.4823   26.4479 C   0  0  0  0  0  0  0  0  0  0  0  0
    6.7436  -16.0199   25.8692 C   0  0  0  0  0  0  0  0  0  0  0  0
    5.8783  -15.0315   25.6163 N   0  0  0  0  0  0  0  0  0  0  0  0
    6.4076  -13.8662   26.0195 C   0  0  0  0  0  0  0  0  0  0  0  0
    5.9521  -12.5537   25.9993 C   0  0  0  0  0  0  0  0  0  0  0  0
    6.7151  -11.4995   26.4942 C   0  0  0  0  0  0  0  0  0  0  0  0
    7.9580  -11.7578   27.0204 C   0  0  0  0  0  0  0  0  0  0  0  0
    8.4089  -13.0602   27.0400 C   0  0  0  0  0  0  0  0  0  0  0  0
    7.6343  -14.1055   26.5412 C   0  0  0  0  0  0  0  0  0  0  0  0
   11.1545  -17.3475   26.6105 C   0  0  0  0  0  0  0  0  0  0  0  0
   11.8216  -17.0085   27.6113 O   0  0  0  0  0  0  0  0  0  0  0  0
   11.3890  -18.6202   26.1008 O   0  0  0  0  0  0  0  0  0  0  0  0
  2  1  1  6
  2  3  1  0
  4  2  1  0
  4  5  1  1
  6  4  1  0
  6  7  2  0
  8  6  1  0
  9  8  1  0
 10  9  1  0
 11 10  1  0
 11 12  1  0
 12  8  1  0
 12 13  1  1
 13 14  2  0
 15 13  1  0
 16 15  1  0
 16 17  1  1
 17 18  1  0
 18 26  1  0
 18 19  2  0
 19 20  1  0
 21 22  2  0
 21 20  1  0
 23 22  1  0
 24 23  2  0
 25 24  1  0
 25 26  2  0
 26 21  1  0
 27 16  1  0
 28 27  2  0
 29 27  1  0
M  END
$$$$
