VPW.pdb
     RDKit          3D

 29 31  0  0  1  0  0  0  0  0999 V2000
    7.2785  -12.6061   19.5885 C   0  0  0  0  0  0  0  0  0  0  0  0
    7.5974  -13.6167   20.6828 C   0  0  2  0  0  0  0  0  0  0  0  0
    8.8622  -13.1372   21.3498 C   0  0  0  0  0  0  0  0  0  0  0  0
    7.8293  -14.9620   19.9764 C   0  0  2  0  0  0  0  0  0  0  0  0
    6.6110  -15.2762   19.3138 N   0  0  0  0  0  0  0  0  0  0  0  0
    8.2858  -15.8919   21.0032 C   0  0  0  0  0  0  0  0  0  0  0  0
    7.3831  -16.2486   21.8467 O   0  0  0  0  0  0  0  0  0  0  0  0
    9.5669  -16.4395   21.1859 N   0  0  0  0  0  0  0  0  0  0  0  0
   10.7625  -16.2891   20.3975 C   0  0  0  0  0  0  0  0  0  0  0  0
   11.2327  -17.7518   20.3218 C   0  0  0  0  0  0  0  0  0  0  0  0
   11.1879  -18.0715   21.8234 C   0  0  0  0  0  0  0  0  0  0  0  0
    9.9555  -17.3141   22.2844 C   0  0  1  0  0  0  0  0  0  0  0  0
   10.2804  -16.5331   23.4923 C   0  0  0  0  0  0  0  0  0  0  0  0
   10.9794  -15.4947   23.4980 O   0  0  0  0  0  0  0  0  0  0  0  0
    9.7656  -16.9845   24.7618 N   0  0  0  0  0  0  0  0  0  0  0  0
   10.2266  -16.4371   25.9915 C   0  0  1  0  0  0  0  0  0  0  0  0
    9.6401  -15.1759   26.4614 C   0  0  0  0  0  0  0  0  0  0  0  0
    8.2178  -14.9261   26.2076 C   0  0  0  0  0  0  0  0  0  0  0  0
    7.1909  -15.7718   25.9080 C   0  0  0  0  0  0  0  0  0  0  0  0
    6.0716  -15.0501   25.7812 N   0  0  0  0  0  0  0  0  0  0  0  0
    6.3539  -13.7554   25.9927 C   0  0  0  0  0  0  0  0  0  0  0  0
    5.5849  -12.5981   25.9875 C   0  0  0  0  0  0  0  0  0  0  0  0
    6.1344  -11.3453   26.2464 C   0  0  0  0  0  0  0  0  0  0  0  0
    7.4779  -11.2427   26.5162 C   0  0  0  0  0  0  0  0  0  0  0  0
    8.2398  -12.3913   26.5211 C   0  0  0  0  0  0  0  0  0  0  0  0
    7.6763  -13.6388   26.2603 C   0  0  0  0  0  0  0  0  0  0  0  0
   10.0503  -17.4995   27.0477 C   0  0  0  0  0  0  0  0  0  0  0  0
    9.3748  -18.5348   26.8652 O   0  0  0  0  0  0  0  0  0  0  0  0
   10.6524  -17.3534   28.2930 O   0  0  0  0  0  0  0  0  0  0  0  0
  2  1  1  6
  2  3  1  0
  4  2  1  0
  4  5  1  1
  6  4  1  0
  6  7  2  0
  8  6  1  0
  9  8  1  0
 10  9  1  0
 11 10  1  0
 11 12  1  0
 12  8  1  0
 12 13  1  1
 13 14  2  0
 15 13  1  0
 16 15  1  0
 16 17  1  1
 17 18  1  0
 18 26  1  0
 18 19  2  0
 19 20  1  0
 21 22  2  0
 21 20  1  0
 23 22  1  0
 24 23  2  0
 25 24  1  0
 25 26  2  0
 26 21  1  0
 27 16  1  0
 28 27  2  0
 29 27  1  0
M  END
$$$$
