VPW.pdb
     RDKit          3D

 29 31  0  0  1  0  0  0  0  0999 V2000
    7.3186  -12.5902   19.1957 C   0  0  0  0  0  0  0  0  0  0  0  0
    7.6359  -13.5667   20.3210 C   0  0  2  0  0  0  0  0  0  0  0  0
    8.8762  -13.0438   21.0014 C   0  0  0  0  0  0  0  0  0  0  0  0
    7.9106  -14.9236   19.6531 C   0  0  2  0  0  0  0  0  0  0  0  0
    6.7342  -15.2516   18.9249 N   0  0  0  0  0  0  0  0  0  0  0  0
    8.3062  -15.8346   20.7213 C   0  0  0  0  0  0  0  0  0  0  0  0
    7.3697  -16.1299   21.5518 O   0  0  0  0  0  0  0  0  0  0  0  0
    9.5610  -16.4220   20.9557 N   0  0  0  0  0  0  0  0  0  0  0  0
   10.7826  -16.3366   20.1981 C   0  0  0  0  0  0  0  0  0  0  0  0
   11.2013  -17.8166   20.1758 C   0  0  0  0  0  0  0  0  0  0  0  0
   11.1033  -18.0919   21.6837 C   0  0  0  0  0  0  0  0  0  0  0  0
    9.8870  -17.2785   22.0883 C   0  0  1  0  0  0  0  0  0  0  0  0
   10.2064  -16.4756   23.2833 C   0  0  0  0  0  0  0  0  0  0  0  0
   10.8705  -15.4147   23.2674 O   0  0  0  0  0  0  0  0  0  0  0  0
    9.7288  -16.9317   24.5656 N   0  0  0  0  0  0  0  0  0  0  0  0
   10.2183  -16.3816   25.7831 C   0  0  1  0  0  0  0  0  0  0  0  0
    9.6255  -15.1324   26.2765 C   0  0  0  0  0  0  0  0  0  0  0  0
    8.1989  -14.8910   26.0392 C   0  0  0  0  0  0  0  0  0  0  0  0
    7.1825  -15.7363   25.7046 C   0  0  0  0  0  0  0  0  0  0  0  0
    6.0530  -15.0251   25.6148 N   0  0  0  0  0  0  0  0  0  0  0  0
    6.3184  -13.7377   25.8845 C   0  0  0  0  0  0  0  0  0  0  0  0
    5.5335  -12.5922   25.9350 C   0  0  0  0  0  0  0  0  0  0  0  0
    6.0668  -11.3450   26.2492 C   0  0  0  0  0  0  0  0  0  0  0  0
    7.4098  -11.2363   26.5190 C   0  0  0  0  0  0  0  0  0  0  0  0
    8.1874  -12.3732   26.4687 C   0  0  0  0  0  0  0  0  0  0  0  0
    7.6401  -13.6151   26.1527 C   0  0  0  0  0  0  0  0  0  0  0  0
   10.0922  -17.4512   26.8392 C   0  0  0  0  0  0  0  0  0  0  0  0
    9.4041  -18.4827   26.6843 O   0  0  0  0  0  0  0  0  0  0  0  0
   10.7580  -17.3166   28.0530 O   0  0  0  0  0  0  0  0  0  0  0  0
  2  1  1  6
  2  3  1  0
  4  2  1  0
  4  5  1  1
  6  4  1  0
  6  7  2  0
  8  6  1  0
  9  8  1  0
 10  9  1  0
 11 10  1  0
 11 12  1  0
 12  8  1  0
 12 13  1  1
 13 14  2  0
 15 13  1  0
 16 15  1  0
 16 17  1  1
 17 18  1  0
 18 26  1  0
 18 19  2  0
 19 20  1  0
 21 22  2  0
 21 20  1  0
 23 22  1  0
 24 23  2  0
 25 24  1  0
 25 26  2  0
 26 21  1  0
 27 16  1  0
 28 27  2  0
 29 27  1  0
M  END
$$$$
