VPW.pdb
     RDKit          3D

 29 31  0  0  1  0  0  0  0  0999 V2000
    7.4172  -12.4703   19.2538 C   0  0  0  0  0  0  0  0  0  0  0  0
    7.6625  -13.4131   20.4249 C   0  0  2  0  0  0  0  0  0  0  0  0
    9.0950  -13.2037   20.8473 C   0  0  0  0  0  0  0  0  0  0  0  0
    7.4551  -14.8374   19.8856 C   0  0  2  0  0  0  0  0  0  0  0  0
    6.1397  -14.8688   19.3462 N   0  0  0  0  0  0  0  0  0  0  0  0
    7.7401  -15.7419   20.9939 C   0  0  0  0  0  0  0  0  0  0  0  0
    6.9064  -15.6763   21.9708 O   0  0  0  0  0  0  0  0  0  0  0  0
    8.7937  -16.6619   21.1287 N   0  0  0  0  0  0  0  0  0  0  0  0
    9.8651  -16.9864   20.2228 C   0  0  0  0  0  0  0  0  0  0  0  0
    9.8335  -18.5228   20.2922 C   0  0  0  0  0  0  0  0  0  0  0  0
    9.8805  -18.6713   21.8203 C   0  0  0  0  0  0  0  0  0  0  0  0
    9.0209  -17.5115   22.2902 C   0  0  1  0  0  0  0  0  0  0  0  0
    9.7272  -16.7742   23.3542 C   0  0  0  0  0  0  0  0  0  0  0  0
   10.5744  -15.8755   23.1513 O   0  0  0  0  0  0  0  0  0  0  0  0
    9.4330  -17.1005   24.7281 N   0  0  0  0  0  0  0  0  0  0  0  0
   10.1483  -16.5077   25.8057 C   0  0  1  0  0  0  0  0  0  0  0  0
    9.5655  -15.3383   26.4753 C   0  0  0  0  0  0  0  0  0  0  0  0
    8.1419  -15.0514   26.2733 C   0  0  0  0  0  0  0  0  0  0  0  0
    7.0812  -15.8710   26.0225 C   0  0  0  0  0  0  0  0  0  0  0  0
    5.9783  -15.1195   25.9306 N   0  0  0  0  0  0  0  0  0  0  0  0
    6.3041  -13.8312   26.1168 C   0  0  0  0  0  0  0  0  0  0  0  0
    5.5677  -12.6530   26.1282 C   0  0  0  0  0  0  0  0  0  0  0  0
    6.1610  -11.4135   26.3521 C   0  0  0  0  0  0  0  0  0  0  0  0
    7.5162  -11.3459   26.5692 C   0  0  0  0  0  0  0  0  0  0  0  0
    8.2458  -12.5152   26.5577 C   0  0  0  0  0  0  0  0  0  0  0  0
    7.6386  -13.7490   26.3324 C   0  0  0  0  0  0  0  0  0  0  0  0
   10.4073  -17.5929   26.8209 C   0  0  0  0  0  0  0  0  0  0  0  0
   11.1673  -17.4404   27.8010 O   0  0  0  0  0  0  0  0  0  0  0  0
    9.7892  -18.8323   26.6919 O   0  0  0  0  0  0  0  0  0  0  0  0
  2  1  1  6
  2  3  1  0
  4  2  1  0
  4  5  1  1
  6  4  1  0
  6  7  2  0
  8  6  1  0
  9  8  1  0
 10  9  1  0
 11 10  1  0
 11 12  1  0
 12  8  1  0
 12 13  1  1
 13 14  2  0
 15 13  1  0
 16 15  1  0
 16 17  1  1
 17 18  1  0
 18 26  1  0
 18 19  2  0
 19 20  1  0
 21 22  2  0
 21 20  1  0
 23 22  1  0
 24 23  2  0
 25 24  1  0
 25 26  2  0
 26 21  1  0
 27 16  1  0
 28 27  2  0
 29 27  1  0
M  END
$$$$
