VPW.pdb
     RDKit          3D

 29 31  0  0  1  0  0  0  0  0999 V2000
    7.1034  -13.3683   21.6470 C   0  0  0  0  0  0  0  0  0  0  0  0
    8.0556  -13.5666   20.4745 C   0  0  2  0  0  0  0  0  0  0  0  0
    7.6673  -12.5468   19.4335 C   0  0  0  0  0  0  0  0  0  0  0  0
    7.8147  -14.9938   19.9570 C   0  0  2  0  0  0  0  0  0  0  0  0
    6.4568  -15.0387   19.5373 N   0  0  0  0  0  0  0  0  0  0  0  0
    8.2066  -15.8936   21.0360 C   0  0  0  0  0  0  0  0  0  0  0  0
    7.2560  -16.2178   21.8390 O   0  0  0  0  0  0  0  0  0  0  0  0
    9.4712  -16.4434   21.3062 N   0  0  0  0  0  0  0  0  0  0  0  0
   10.7292  -16.2558   20.6308 C   0  0  0  0  0  0  0  0  0  0  0  0
   11.2150  -17.7122   20.5362 C   0  0  0  0  0  0  0  0  0  0  0  0
   11.0434  -18.0939   22.0141 C   0  0  0  0  0  0  0  0  0  0  0  0
    9.7702  -17.3611   22.3975 C   0  0  1  0  0  0  0  0  0  0  0  0
    9.9841  -16.6294   23.6598 C   0  0  0  0  0  0  0  0  0  0  0  0
   10.4544  -15.4720   23.7371 O   0  0  0  0  0  0  0  0  0  0  0  0
    9.6328  -17.2791   24.8988 N   0  0  0  0  0  0  0  0  0  0  0  0
    9.9293  -16.6911   26.1600 C   0  0  1  0  0  0  0  0  0  0  0  0
    8.8245  -16.4392   27.0935 C   0  0  0  0  0  0  0  0  0  0  0  0
    7.6472  -15.7129   26.6074 C   0  0  0  0  0  0  0  0  0  0  0  0
    6.4732  -16.1510   26.0696 C   0  0  0  0  0  0  0  0  0  0  0  0
    5.7101  -15.0868   25.7959 N   0  0  0  0  0  0  0  0  0  0  0  0
    6.3666  -13.9701   26.1457 C   0  0  0  0  0  0  0  0  0  0  0  0
    6.0498  -12.6185   26.0849 C   0  0  0  0  0  0  0  0  0  0  0  0
    6.9292  -11.6334   26.5261 C   0  0  0  0  0  0  0  0  0  0  0  0
    8.1498  -12.0019   27.0388 C   0  0  0  0  0  0  0  0  0  0  0  0
    8.4630  -13.3428   27.0987 C   0  0  0  0  0  0  0  0  0  0  0  0
    7.5729  -14.3181   26.6534 C   0  0  0  0  0  0  0  0  0  0  0  0
   10.9642  -17.5626   26.8271 C   0  0  0  0  0  0  0  0  0  0  0  0
   11.3121  -18.6739   26.3742 O   0  0  0  0  0  0  0  0  0  0  0  0
   11.5799  -17.1420   28.0013 O   0  0  0  0  0  0  0  0  0  0  0  0
  2  1  1  1
  2  3  1  0
  4  2  1  0
  4  5  1  1
  6  4  1  0
  6  7  2  0
  8  6  1  0
  9  8  1  0
 10  9  1  0
 11 10  1  0
 11 12  1  0
 12  8  1  0
 12 13  1  1
 13 14  2  0
 15 13  1  0
 16 15  1  0
 16 17  1  1
 17 18  1  0
 18 26  1  0
 18 19  2  0
 19 20  1  0
 21 22  2  0
 21 20  1  0
 23 22  1  0
 24 23  2  0
 25 24  1  0
 25 26  2  0
 26 21  1  0
 27 16  1  0
 28 27  2  0
 29 27  1  0
M  END
$$$$
