VPW.pdb
     RDKit          3D

 29 31  0  0  1  0  0  0  0  0999 V2000
    3.7775  -18.4996   20.7336 C   0  0  0  0  0  0  0  0  0  0  0  0
    5.0519  -17.8248   21.2247 C   0  0  2  0  0  0  0  0  0  0  0  0
    4.6157  -16.6374   22.0458 C   0  0  0  0  0  0  0  0  0  0  0  0
    5.8133  -17.3702   19.9692 C   0  0  2  0  0  0  0  0  0  0  0  0
    5.9382  -18.5212   19.1436 N   0  0  0  0  0  0  0  0  0  0  0  0
    7.0483  -16.7525   20.4389 C   0  0  0  0  0  0  0  0  0  0  0  0
    7.9916  -17.5801   20.7197 O   0  0  0  0  0  0  0  0  0  0  0  0
    7.3349  -15.3890   20.6212 N   0  0  0  0  0  0  0  0  0  0  0  0
    6.5187  -14.2277   20.3783 C   0  0  0  0  0  0  0  0  0  0  0  0
    7.5288  -13.3237   19.6513 C   0  0  0  0  0  0  0  0  0  0  0  0
    8.6730  -13.4131   20.6721 C   0  0  0  0  0  0  0  0  0  0  0  0
    8.5918  -14.8578   21.1316 C   0  0  1  0  0  0  0  0  0  0  0  0
    8.6277  -14.9089   22.6049 C   0  0  0  0  0  0  0  0  0  0  0  0
    7.9229  -14.1977   23.3561 O   0  0  0  0  0  0  0  0  0  0  0  0
    9.5326  -15.8362   23.2387 N   0  0  0  0  0  0  0  0  0  0  0  0
   10.0947  -15.5736   24.5191 C   0  0  1  0  0  0  0  0  0  0  0  0
    9.2969  -15.8829   25.7121 C   0  0  0  0  0  0  0  0  0  0  0  0
    7.9536  -15.3065   25.8265 C   0  0  0  0  0  0  0  0  0  0  0  0
    6.7169  -15.8558   25.6581 C   0  0  0  0  0  0  0  0  0  0  0  0
    5.7990  -14.9105   25.8896 N   0  0  0  0  0  0  0  0  0  0  0  0
    6.4168  -13.7617   26.2041 C   0  0  0  0  0  0  0  0  0  0  0  0
    5.9595  -12.4911   26.5316 C   0  0  0  0  0  0  0  0  0  0  0  0
    6.8308  -11.4456   26.8251 C   0  0  0  0  0  0  0  0  0  0  0  0
    8.1861  -11.6700   26.7918 C   0  0  0  0  0  0  0  0  0  0  0  0
    8.6387  -12.9307   26.4668 C   0  0  0  0  0  0  0  0  0  0  0  0
    7.7550  -13.9678   26.1754 C   0  0  0  0  0  0  0  0  0  0  0  0
   11.4107  -16.3075   24.5885 C   0  0  0  0  0  0  0  0  0  0  0  0
   12.1754  -16.2414   25.5745 O   0  0  0  0  0  0  0  0  0  0  0  0
   11.8240  -17.1031   23.5251 O   0  0  0  0  0  0  0  0  0  0  0  0
  2  1  1  6
  2  3  1  0
  4  2  1  0
  4  5  1  6
  6  4  1  0
  6  7  2  0
  8  6  1  0
  9  8  1  0
 10  9  1  0
 11 10  1  0
 11 12  1  0
 12  8  1  0
 12 13  1  1
 13 14  2  0
 15 13  1  0
 16 15  1  0
 16 17  1  1
 17 18  1  0
 18 26  1  0
 18 19  2  0
 19 20  1  0
 21 22  2  0
 21 20  1  0
 23 22  1  0
 24 23  2  0
 25 24  1  0
 25 26  2  0
 26 21  1  0
 27 16  1  0
 28 27  2  0
 29 27  1  0
M  END
$$$$
