VPW.pdb
     RDKit          3D

 29 31  0  0  1  0  0  0  0  0999 V2000
    5.2626  -18.0553   22.1765 C   0  0  0  0  0  0  0  0  0  0  0  0
    4.7233  -17.1469   21.0791 C   0  0  2  0  0  0  0  0  0  0  0  0
    3.3838  -17.7124   20.6782 C   0  0  0  0  0  0  0  0  0  0  0  0
    5.7228  -17.2333   19.9145 C   0  0  2  0  0  0  0  0  0  0  0  0
    5.7182  -18.5901   19.4888 N   0  0  0  0  0  0  0  0  0  0  0  0
    6.9841  -16.6986   20.4152 C   0  0  0  0  0  0  0  0  0  0  0  0
    7.8546  -17.5874   20.7406 O   0  0  0  0  0  0  0  0  0  0  0  0
    7.3639  -15.3565   20.5851 N   0  0  0  0  0  0  0  0  0  0  0  0
    6.6347  -14.1438   20.3181 C   0  0  0  0  0  0  0  0  0  0  0  0
    7.7147  -13.3224   19.5935 C   0  0  0  0  0  0  0  0  0  0  0  0
    8.8374  -13.4792   20.6299 C   0  0  0  0  0  0  0  0  0  0  0  0
    8.6490  -14.9086   21.1054 C   0  0  1  0  0  0  0  0  0  0  0  0
    8.6634  -14.9434   22.5796 C   0  0  0  0  0  0  0  0  0  0  0  0
    7.9122  -14.2607   23.3119 O   0  0  0  0  0  0  0  0  0  0  0  0
    9.6027  -15.8185   23.2372 N   0  0  0  0  0  0  0  0  0  0  0  0
   10.1693  -15.4911   24.5006 C   0  0  1  0  0  0  0  0  0  0  0  0
    9.3845  -15.7596   25.7120 C   0  0  0  0  0  0  0  0  0  0  0  0
    8.0134  -15.2455   25.7880 C   0  0  0  0  0  0  0  0  0  0  0  0
    6.8122  -15.8309   25.5163 C   0  0  0  0  0  0  0  0  0  0  0  0
    5.8435  -14.9399   25.7560 N   0  0  0  0  0  0  0  0  0  0  0  0
    6.3938  -13.7908   26.1770 C   0  0  0  0  0  0  0  0  0  0  0  0
    5.8655  -12.5637   26.5588 C   0  0  0  0  0  0  0  0  0  0  0  0
    6.6743  -11.5062   26.9663 C   0  0  0  0  0  0  0  0  0  0  0  0
    8.0379  -11.6742   26.9943 C   0  0  0  0  0  0  0  0  0  0  0  0
    8.5609  -12.8919   26.6154 C   0  0  0  0  0  0  0  0  0  0  0  0
    7.7392  -13.9416   26.2097 C   0  0  0  0  0  0  0  0  0  0  0  0
   11.4970  -16.2010   24.5925 C   0  0  0  0  0  0  0  0  0  0  0  0
   11.9192  -16.9719   23.7043 O   0  0  0  0  0  0  0  0  0  0  0  0
   12.3148  -16.0126   25.7017 O   0  0  0  0  0  0  0  0  0  0  0  0
  2  1  1  1
  2  3  1  0
  4  2  1  0
  4  5  1  1
  6  4  1  0
  6  7  2  0
  8  6  1  0
  9  8  1  0
 10  9  1  0
 11 10  1  0
 11 12  1  0
 12  8  1  0
 12 13  1  1
 13 14  2  0
 15 13  1  0
 16 15  1  0
 16 17  1  1
 17 18  1  0
 18 26  1  0
 18 19  2  0
 19 20  1  0
 21 22  2  0
 21 20  1  0
 23 22  1  0
 24 23  2  0
 25 24  1  0
 25 26  2  0
 26 21  1  0
 27 16  1  0
 28 27  2  0
 29 27  1  0
M  END
$$$$
