VPW.pdb
     RDKit          3D

 29 31  0  0  1  0  0  0  0  0999 V2000
    7.4006  -19.5523   22.2617 C   0  0  0  0  0  0  0  0  0  0  0  0
    6.3308  -18.5303   21.8990 C   0  0  2  0  0  0  0  0  0  0  0  0
    5.0208  -19.2771   21.8705 C   0  0  0  0  0  0  0  0  0  0  0  0
    6.6899  -18.0046   20.5000 C   0  0  2  0  0  0  0  0  0  0  0  0
    6.9012  -19.1527   19.6879 N   0  0  0  0  0  0  0  0  0  0  0  0
    7.8203  -17.1004   20.6786 C   0  0  0  0  0  0  0  0  0  0  0  0
    8.9742  -17.6380   20.4965 O   0  0  0  0  0  0  0  0  0  0  0  0
    7.8099  -15.7371   21.0193 N   0  0  0  0  0  0  0  0  0  0  0  0
    6.7351  -14.9080   21.5000 C   0  0  0  0  0  0  0  0  0  0  0  0
    6.9228  -13.6656   20.6128 C   0  0  0  0  0  0  0  0  0  0  0  0
    8.4175  -13.4331   20.8794 C   0  0  0  0  0  0  0  0  0  0  0  0
    8.9624  -14.8482   20.9540 C   0  0  1  0  0  0  0  0  0  0  0  0
    9.8067  -14.9884   22.1548 C   0  0  0  0  0  0  0  0  0  0  0  0
   10.9221  -14.4405   22.3048 O   0  0  0  0  0  0  0  0  0  0  0  0
    9.3285  -15.8108   23.2390 N   0  0  0  0  0  0  0  0  0  0  0  0
   10.0438  -15.9208   24.4640 C   0  0  1  0  0  0  0  0  0  0  0  0
    9.6107  -15.1045   25.6048 C   0  0  0  0  0  0  0  0  0  0  0  0
    8.1737  -14.9229   25.8322 C   0  0  0  0  0  0  0  0  0  0  0  0
    7.1304  -15.7986   25.7668 C   0  0  0  0  0  0  0  0  0  0  0  0
    6.0067  -15.1418   26.0758 N   0  0  0  0  0  0  0  0  0  0  0  0
    6.3021  -13.8597   26.3395 C   0  0  0  0  0  0  0  0  0  0  0  0
    5.5359  -12.7601   26.7063 C   0  0  0  0  0  0  0  0  0  0  0  0
    6.1010  -11.5071   26.9277 C   0  0  0  0  0  0  0  0  0  0  0  0
    7.4577  -11.3456   26.7808 C   0  0  0  0  0  0  0  0  0  0  0  0
    8.2169  -12.4369   26.4170 C   0  0  0  0  0  0  0  0  0  0  0  0
    7.6377  -13.6854   26.1987 C   0  0  0  0  0  0  0  0  0  0  0  0
   10.0383  -17.3775   24.8555 C   0  0  0  0  0  0  0  0  0  0  0  0
    9.2335  -18.2068   24.3800 O   0  0  0  0  0  0  0  0  0  0  0  0
   10.9564  -17.8548   25.7850 O   0  0  0  0  0  0  0  0  0  0  0  0
  2  1  1  6
  2  3  1  0
  4  2  1  0
  4  5  1  6
  6  4  1  0
  6  7  2  0
  8  6  1  0
  9  8  1  0
 10  9  1  0
 11 10  1  0
 11 12  1  0
 12  8  1  0
 12 13  1  1
 13 14  2  0
 15 13  1  0
 16 15  1  0
 16 17  1  1
 17 18  1  0
 18 26  1  0
 18 19  2  0
 19 20  1  0
 21 22  2  0
 21 20  1  0
 23 22  1  0
 24 23  2  0
 25 24  1  0
 25 26  2  0
 26 21  1  0
 27 16  1  0
 28 27  2  0
 29 27  1  0
M  END
$$$$
