GDH.pdb
     RDKit          3D

 23 23  0  0  1  0  0  0  0  0999 V2000
   27.8884  -35.0878   -6.9996 N   0  0  0  0  0  0  0  0  0  0  0  0
   28.7030  -34.5988   -5.9096 C   0  0  0  0  0  0  0  0  0  0  0  0
   28.3884  -35.3407   -4.6207 C   0  0  0  0  0  0  0  0  0  0  0  0
   27.5349  -36.2455   -4.6184 O   0  0  0  0  0  0  0  0  0  0  0  0
   29.1116  -34.9325   -3.4894 N   0  0  0  0  0  0  0  0  0  0  0  0
   28.9438  -35.4428   -2.1711 C   0  0  1  0  0  0  0  0  0  0  0  0
   29.9734  -36.4475   -1.7019 C   0  0  0  0  0  0  0  0  0  0  0  0
   29.6064  -36.9354   -0.3565 C   0  0  0  0  0  0  0  0  0  0  0  0
   30.4188  -36.9706    0.6266 O   0  0  0  0  0  0  0  0  0  0  0  0
   28.4988  -34.4840   -1.1681 C   0  0  0  0  0  0  0  0  0  0  0  0
   29.2601  -33.5016   -0.8464 O   0  0  0  0  0  0  0  0  0  0  0  0
   28.3222  -37.3979   -0.0700 O   0  0  0  0  0  0  0  0  0  0  0  0
   27.2585  -34.5254   -0.4829 N   0  0  0  0  0  0  0  0  0  0  0  0
   26.2802  -33.4423   -0.5255 C   0  0  1  0  0  0  0  0  0  0  0  0
   26.4280  -32.6095   -1.7510 C   0  0  0  0  0  0  0  0  0  0  0  0
   25.4883  -31.4691   -1.6950 C   0  0  0  0  0  0  0  0  0  0  0  0
   25.4919  -30.5216   -0.6934 C   0  0  0  0  0  0  0  0  0  0  0  0
   24.5110  -29.6474   -0.9626 N   0  0  0  0  0  0  0  0  0  0  0  0
   23.8955  -30.0098   -2.0897 C   0  0  0  0  0  0  0  0  0  0  0  0
   24.4937  -31.1171   -2.5298 N   0  0  0  0  0  0  0  0  0  0  0  0
   24.9182  -33.9195   -0.3210 C   0  0  0  0  0  0  0  0  0  0  0  0
   24.4746  -35.2246   -0.3633 O   0  0  0  0  0  0  0  0  0  0  0  0
   24.0159  -33.0448   -0.0745 O   0  0  0  0  0  0  0  0  0  0  0  0
  2  1  1  0
  3  2  1  0
  4  3  2  0
  5  3  1  0
  6 10  1  0
  6  5  1  0
  7  8  1  0
  6  7  1  1
  8  9  2  0
  8 12  1  0
 10 13  1  0
 11 10  2  0
 13 14  1  0
 14 15  1  6
 15 16  1  0
 16 17  2  0
 18 17  1  0
 19 18  1  0
 20 19  2  0
 20 16  1  0
 21 14  1  0
 21 22  1  0
 23 21  2  0
M  END
$$$$
