GDH.pdb
     RDKit          3D

 23 23  0  0  1  0  0  0  0  0999 V2000
   23.5299  -12.3573  -19.2724 N   0  0  0  0  0  0  0  0  0  0  0  0
   23.8671  -11.8840  -17.9483 C   0  0  0  0  0  0  0  0  0  0  0  0
   23.0265  -10.6743  -17.5732 C   0  0  0  0  0  0  0  0  0  0  0  0
   22.9814   -9.6907  -18.3332 O   0  0  0  0  0  0  0  0  0  0  0  0
   22.3404  -10.7628  -16.3522 N   0  0  0  0  0  0  0  0  0  0  0  0
   21.5229   -9.7440  -15.7863 C   0  0  1  0  0  0  0  0  0  0  0  0
   20.4067  -10.2051  -14.8747 C   0  0  0  0  0  0  0  0  0  0  0  0
   19.4668   -9.0886  -14.6450 C   0  0  0  0  0  0  0  0  0  0  0  0
   19.2712   -8.5553  -13.5026 O   0  0  0  0  0  0  0  0  0  0  0  0
   22.2134   -8.5303  -15.3700 C   0  0  0  0  0  0  0  0  0  0  0  0
   23.2566   -8.6160  -14.6265 O   0  0  0  0  0  0  0  0  0  0  0  0
   18.7184   -8.5354  -15.6837 O   0  0  0  0  0  0  0  0  0  0  0  0
   21.8366   -7.2085  -15.7172 N   0  0  0  0  0  0  0  0  0  0  0  0
   22.5344   -6.0206  -15.2335 C   0  0  1  0  0  0  0  0  0  0  0  0
   22.8284   -5.0631  -16.3353 C   0  0  0  0  0  0  0  0  0  0  0  0
   23.8316   -5.6488  -17.2504 C   0  0  0  0  0  0  0  0  0  0  0  0
   23.5177   -6.5035  -18.2857 C   0  0  0  0  0  0  0  0  0  0  0  0
   24.6650   -6.8345  -18.8964 N   0  0  0  0  0  0  0  0  0  0  0  0
   25.6813   -6.2227  -18.2855 C   0  0  0  0  0  0  0  0  0  0  0  0
   25.1686   -5.5039  -17.2864 N   0  0  0  0  0  0  0  0  0  0  0  0
   21.8517   -5.3998  -14.1052 C   0  0  0  0  0  0  0  0  0  0  0  0
   22.4184   -4.6544  -13.0927 O   0  0  0  0  0  0  0  0  0  0  0  0
   20.5828   -5.5524  -14.0251 O   0  0  0  0  0  0  0  0  0  0  0  0
  2  1  1  0
  3  2  1  0
  4  3  2  0
  5  3  1  0
  6 10  1  0
  6  5  1  0
  7  8  1  0
  6  7  1  1
  8  9  2  0
  8 12  1  0
 10 13  1  0
 11 10  2  0
 13 14  1  0
 14 15  1  6
 15 16  1  0
 16 17  2  0
 18 17  1  0
 19 18  1  0
 20 19  2  0
 20 16  1  0
 21 14  1  0
 21 22  1  0
 23 21  2  0
M  END
$$$$
