GDH.pdb
     RDKit          3D

 23 23  0  0  1  0  0  0  0  0999 V2000
   30.2972  -35.5528   -5.3276 N   0  0  0  0  0  0  0  0  0  0  0  0
   28.8725  -35.5490   -5.5753 C   0  0  0  0  0  0  0  0  0  0  0  0
   28.0940  -35.5430   -4.2697 C   0  0  0  0  0  0  0  0  0  0  0  0
   26.8602  -35.3858   -4.2841 O   0  0  0  0  0  0  0  0  0  0  0  0
   28.8553  -35.7214   -3.1044 N   0  0  0  0  0  0  0  0  0  0  0  0
   28.3562  -35.6626   -1.7725 C   0  0  1  0  0  0  0  0  0  0  0  0
   29.1337  -36.4327   -0.7275 C   0  0  0  0  0  0  0  0  0  0  0  0
   30.2663  -35.6111   -0.2532 C   0  0  0  0  0  0  0  0  0  0  0  0
   30.5924  -35.5020    0.9755 O   0  0  0  0  0  0  0  0  0  0  0  0
   27.8353  -34.3712   -1.3433 C   0  0  0  0  0  0  0  0  0  0  0  0
   28.1512  -33.3105   -1.9940 O   0  0  0  0  0  0  0  0  0  0  0  0
   31.0674  -34.8879   -1.1365 O   0  0  0  0  0  0  0  0  0  0  0  0
   26.9780  -34.1566   -0.2348 N   0  0  0  0  0  0  0  0  0  0  0  0
   26.1131  -32.9878   -0.1023 C   0  0  1  0  0  0  0  0  0  0  0  0
   25.2101  -32.8302   -1.2758 C   0  0  0  0  0  0  0  0  0  0  0  0
   24.3721  -31.6243   -1.1016 C   0  0  0  0  0  0  0  0  0  0  0  0
   24.4992  -30.7491   -0.0439 C   0  0  0  0  0  0  0  0  0  0  0  0
   23.5837  -29.7829   -0.2086 N   0  0  0  0  0  0  0  0  0  0  0  0
   22.8907  -30.0187   -1.3242 C   0  0  0  0  0  0  0  0  0  0  0  0
   23.3743  -31.1387   -1.8622 N   0  0  0  0  0  0  0  0  0  0  0  0
   25.4030  -32.9673    1.1705 C   0  0  0  0  0  0  0  0  0  0  0  0
   24.5355  -33.9215    1.6592 O   0  0  0  0  0  0  0  0  0  0  0  0
   25.5903  -31.9579    1.9360 O   0  0  0  0  0  0  0  0  0  0  0  0
  2  1  1  0
  3  2  1  0
  4  3  2  0
  5  3  1  0
  6 10  1  0
  6  5  1  0
  7  8  1  0
  6  7  1  1
  8  9  2  0
  8 12  1  0
 10 13  1  0
 11 10  2  0
 13 14  1  0
 14 15  1  6
 15 16  1  0
 16 17  2  0
 18 17  1  0
 19 18  1  0
 20 19  2  0
 20 16  1  0
 21 14  1  0
 21 22  1  0
 23 21  2  0
M  END
$$$$
