GDH.pdb
     RDKit          3D

 23 23  0  0  1  0  0  0  0  0999 V2000
   21.7729  -11.7174  -21.4650 N   0  0  0  0  0  0  0  0  0  0  0  0
   22.6032  -10.6301  -20.9968 C   0  0  0  0  0  0  0  0  0  0  0  0
   22.0979  -10.0942  -19.6671 C   0  0  0  0  0  0  0  0  0  0  0  0
   21.0871   -9.3702  -19.6340 O   0  0  0  0  0  0  0  0  0  0  0  0
   22.8387  -10.4709  -18.5362 N   0  0  0  0  0  0  0  0  0  0  0  0
   22.5807  -10.0518  -17.2004 C   0  0  1  0  0  0  0  0  0  0  0  0
   23.1545  -10.9179  -16.1003 C   0  0  0  0  0  0  0  0  0  0  0  0
   22.6972  -12.3109  -16.2825 C   0  0  0  0  0  0  0  0  0  0  0  0
   21.4714  -12.6620  -16.2395 O   0  0  0  0  0  0  0  0  0  0  0  0
   22.6333   -8.6153  -16.9614 C   0  0  0  0  0  0  0  0  0  0  0  0
   23.6593   -7.9449  -17.3436 O   0  0  0  0  0  0  0  0  0  0  0  0
   23.5950  -13.3518  -16.5180 O   0  0  0  0  0  0  0  0  0  0  0  0
   21.6248   -7.8493  -16.3245 N   0  0  0  0  0  0  0  0  0  0  0  0
   21.7240   -6.4081  -16.1122 C   0  0  1  0  0  0  0  0  0  0  0  0
   20.8370   -5.6490  -17.0365 C   0  0  0  0  0  0  0  0  0  0  0  0
   21.0204   -4.1972  -16.8232 C   0  0  0  0  0  0  0  0  0  0  0  0
   22.2015   -3.5298  -17.0690 C   0  0  0  0  0  0  0  0  0  0  0  0
   22.0053   -2.2386  -16.7639 N   0  0  0  0  0  0  0  0  0  0  0  0
   20.7518   -2.0725  -16.3379 C   0  0  0  0  0  0  0  0  0  0  0  0
   20.1585   -3.2659  -16.3762 N   0  0  0  0  0  0  0  0  0  0  0  0
   21.5380   -6.0415  -14.7138 C   0  0  0  0  0  0  0  0  0  0  0  0
   21.8493   -4.8379  -14.1166 O   0  0  0  0  0  0  0  0  0  0  0  0
   21.0313   -6.9218  -13.9339 O   0  0  0  0  0  0  0  0  0  0  0  0
  2  1  1  0
  3  2  1  0
  4  3  2  0
  5  3  1  0
  6 10  1  0
  6  5  1  0
  7  8  1  0
  6  7  1  1
  8  9  2  0
  8 12  1  0
 10 13  1  0
 11 10  2  0
 13 14  1  0
 14 15  1  6
 15 16  1  0
 16 17  2  0
 18 17  1  0
 19 18  1  0
 20 19  2  0
 20 16  1  0
 21 14  1  0
 21 22  1  0
 23 21  2  0
M  END
$$$$
