GDH.pdb
     RDKit          3D

 23 23  0  0  1  0  0  0  0  0999 V2000
   28.0051  -20.7466  -15.7261 N   0  0  0  0  0  0  0  0  0  0  0  0
   27.2833  -20.5542  -14.4879 C   0  0  0  0  0  0  0  0  0  0  0  0
   25.8010  -20.8350  -14.6737 C   0  0  0  0  0  0  0  0  0  0  0  0
   25.3496  -21.0568  -15.8113 O   0  0  0  0  0  0  0  0  0  0  0  0
   25.0260  -20.8214  -13.5038 N   0  0  0  0  0  0  0  0  0  0  0  0
   23.6177  -21.0198  -13.4414 C   0  0  1  0  0  0  0  0  0  0  0  0
   23.1153  -21.9423  -12.3523 C   0  0  0  0  0  0  0  0  0  0  0  0
   21.7167  -22.3234  -12.6376 C   0  0  0  0  0  0  0  0  0  0  0  0
   21.3548  -22.9361  -13.6966 O   0  0  0  0  0  0  0  0  0  0  0  0
   22.7962  -19.8439  -13.6976 C   0  0  0  0  0  0  0  0  0  0  0  0
   22.3727  -19.1378  -12.7125 O   0  0  0  0  0  0  0  0  0  0  0  0
   20.6820  -22.0316  -11.7491 O   0  0  0  0  0  0  0  0  0  0  0  0
   22.4007  -19.3788  -14.9770 N   0  0  0  0  0  0  0  0  0  0  0  0
   21.5198  -18.2319  -15.1782 C   0  0  1  0  0  0  0  0  0  0  0  0
   21.5050  -17.7866  -16.5990 C   0  0  0  0  0  0  0  0  0  0  0  0
   20.7955  -16.4937  -16.7089 C   0  0  0  0  0  0  0  0  0  0  0  0
   21.4297  -15.2864  -16.9116 C   0  0  0  0  0  0  0  0  0  0  0  0
   20.4835  -14.3371  -16.9567 N   0  0  0  0  0  0  0  0  0  0  0  0
   19.2857  -14.9012  -16.7903 C   0  0  0  0  0  0  0  0  0  0  0  0
   19.4819  -16.2114  -16.6402 N   0  0  0  0  0  0  0  0  0  0  0  0
   20.1853  -18.4586  -14.6376 C   0  0  0  0  0  0  0  0  0  0  0  0
   19.3927  -17.5549  -13.9616 O   0  0  0  0  0  0  0  0  0  0  0  0
   19.6728  -19.6215  -14.7958 O   0  0  0  0  0  0  0  0  0  0  0  0
  2  1  1  0
  3  2  1  0
  4  3  2  0
  5  3  1  0
  6 10  1  0
  6  5  1  0
  7  8  1  0
  6  7  1  1
  8  9  2  0
  8 12  1  0
 10 13  1  0
 11 10  2  0
 13 14  1  0
 14 15  1  6
 15 16  1  0
 16 17  2  0
 18 17  1  0
 19 18  1  0
 20 19  2  0
 20 16  1  0
 21 14  1  0
 21 22  1  0
 23 21  2  0
M  END
$$$$
