GDH.pdb
     RDKit          3D

 23 23  0  0  1  0  0  0  0  0999 V2000
   15.5292  -15.4934  -15.7839 N   0  0  0  0  0  0  0  0  0  0  0  0
   14.9998  -14.4434  -14.9422 C   0  0  0  0  0  0  0  0  0  0  0  0
   15.3348  -13.0727  -15.5076 C   0  0  0  0  0  0  0  0  0  0  0  0
   15.9298  -12.9793  -16.5959 O   0  0  0  0  0  0  0  0  0  0  0  0
   14.9326  -11.9766  -14.7291 N   0  0  0  0  0  0  0  0  0  0  0  0
   15.2234  -10.6114  -15.0090 C   0  0  1  0  0  0  0  0  0  0  0  0
   14.1932   -9.5979  -14.5607 C   0  0  0  0  0  0  0  0  0  0  0  0
   12.8499  -10.0408  -14.9875 C   0  0  0  0  0  0  0  0  0  0  0  0
   12.5382  -10.2772  -16.2019 O   0  0  0  0  0  0  0  0  0  0  0  0
   16.6142  -10.2090  -14.8440 C   0  0  0  0  0  0  0  0  0  0  0  0
   17.1504  -10.2398  -13.6780 O   0  0  0  0  0  0  0  0  0  0  0  0
   11.8162  -10.2326  -14.0712 O   0  0  0  0  0  0  0  0  0  0  0  0
   17.4728   -9.7696  -15.8829 N   0  0  0  0  0  0  0  0  0  0  0  0
   18.8578   -9.3632  -15.6629 C   0  0  1  0  0  0  0  0  0  0  0  0
   19.6484   -9.3822  -16.9246 C   0  0  0  0  0  0  0  0  0  0  0  0
   21.0534   -9.0208  -16.6380 C   0  0  0  0  0  0  0  0  0  0  0  0
   21.9976   -9.9168  -16.1835 C   0  0  0  0  0  0  0  0  0  0  0  0
   23.1491   -9.2461  -16.0320 N   0  0  0  0  0  0  0  0  0  0  0  0
   22.9629   -7.9694  -16.3724 C   0  0  0  0  0  0  0  0  0  0  0  0
   21.6879   -7.8389  -16.7397 N   0  0  0  0  0  0  0  0  0  0  0  0
   18.9552   -8.0968  -14.9479 C   0  0  0  0  0  0  0  0  0  0  0  0
   17.9633   -7.1534  -14.7797 O   0  0  0  0  0  0  0  0  0  0  0  0
   20.0800   -7.8071  -14.4087 O   0  0  0  0  0  0  0  0  0  0  0  0
  2  1  1  0
  3  2  1  0
  4  3  2  0
  5  3  1  0
  6 10  1  0
  6  5  1  0
  7  8  1  0
  6  7  1  1
  8  9  2  0
  8 12  1  0
 10 13  1  0
 11 10  2  0
 13 14  1  0
 14 15  1  6
 15 16  1  0
 16 17  2  0
 18 17  1  0
 19 18  1  0
 20 19  2  0
 20 16  1  0
 21 14  1  0
 21 22  1  0
 23 21  2  0
M  END
$$$$
