GDH.pdb
     RDKit          3D

 23 23  0  0  1  0  0  0  0  0999 V2000
   17.8438  -13.5115  -15.9812 N   0  0  0  0  0  0  0  0  0  0  0  0
   17.9807  -12.4022  -15.0637 C   0  0  0  0  0  0  0  0  0  0  0  0
   18.8371  -11.3006  -15.6669 C   0  0  0  0  0  0  0  0  0  0  0  0
   19.7550  -11.5898  -16.4548 O   0  0  0  0  0  0  0  0  0  0  0  0
   18.5149   -9.9926  -15.2733 N   0  0  0  0  0  0  0  0  0  0  0  0
   19.2398   -8.8196  -15.6268 C   0  0  1  0  0  0  0  0  0  0  0  0
   18.5272   -7.5005  -15.4224 C   0  0  0  0  0  0  0  0  0  0  0  0
   17.1139   -7.6370  -15.8306 C   0  0  0  0  0  0  0  0  0  0  0  0
   16.7482   -7.9430  -17.0140 O   0  0  0  0  0  0  0  0  0  0  0  0
   20.6596   -8.8244  -15.2987 C   0  0  0  0  0  0  0  0  0  0  0  0
   21.0843   -9.5460  -14.3255 O   0  0  0  0  0  0  0  0  0  0  0  0
   16.0684   -7.4359  -14.9298 O   0  0  0  0  0  0  0  0  0  0  0  0
   21.6628   -8.0838  -15.9730 N   0  0  0  0  0  0  0  0  0  0  0  0
   23.0889   -8.3766  -15.8623 C   0  0  1  0  0  0  0  0  0  0  0  0
   23.3794   -9.8173  -16.1015 C   0  0  0  0  0  0  0  0  0  0  0  0
   24.8348  -10.0568  -15.9952 C   0  0  0  0  0  0  0  0  0  0  0  0
   25.4256  -10.7339  -14.9495 C   0  0  0  0  0  0  0  0  0  0  0  0
   26.7464  -10.7586  -15.1809 N   0  0  0  0  0  0  0  0  0  0  0  0
   27.0045  -10.1251  -16.3265 C   0  0  0  0  0  0  0  0  0  0  0  0
   25.8392   -9.7011  -16.8165 N   0  0  0  0  0  0  0  0  0  0  0  0
   23.9010   -7.4872  -16.6832 C   0  0  0  0  0  0  0  0  0  0  0  0
   25.1669   -7.0161  -16.4047 O   0  0  0  0  0  0  0  0  0  0  0  0
   23.4012   -7.0845  -17.7914 O   0  0  0  0  0  0  0  0  0  0  0  0
  2  1  1  0
  3  2  1  0
  4  3  2  0
  5  3  1  0
  6 10  1  0
  6  5  1  0
  7  8  1  0
  6  7  1  1
  8  9  2  0
  8 12  1  0
 10 13  1  0
 11 10  2  0
 13 14  1  0
 14 15  1  6
 15 16  1  0
 16 17  2  0
 18 17  1  0
 19 18  1  0
 20 19  2  0
 20 16  1  0
 21 14  1  0
 21 22  1  0
 23 21  2  0
M  END
$$$$
