GDH.pdb
     RDKit          3D

 23 23  0  0  1  0  0  0  0  0999 V2000
   16.3878  -13.6020  -15.3393 N   0  0  0  0  0  0  0  0  0  0  0  0
   16.2593  -12.4265  -14.5070 C   0  0  0  0  0  0  0  0  0  0  0  0
   16.6760  -11.1761  -15.2645 C   0  0  0  0  0  0  0  0  0  0  0  0
   16.9152  -11.2402  -16.4834 O   0  0  0  0  0  0  0  0  0  0  0  0
   16.7627  -10.0013  -14.5019 N   0  0  0  0  0  0  0  0  0  0  0  0
   17.1306   -8.7183  -14.9971 C   0  0  1  0  0  0  0  0  0  0  0  0
   16.3165   -7.5448  -14.4974 C   0  0  0  0  0  0  0  0  0  0  0  0
   16.6819   -6.3331  -15.2595 C   0  0  0  0  0  0  0  0  0  0  0  0
   17.2804   -5.3305  -14.7452 O   0  0  0  0  0  0  0  0  0  0  0  0
   18.5604   -8.4759  -15.1398 C   0  0  0  0  0  0  0  0  0  0  0  0
   19.3079   -8.4509  -14.0963 O   0  0  0  0  0  0  0  0  0  0  0  0
   16.3900   -6.2056  -16.6172 O   0  0  0  0  0  0  0  0  0  0  0  0
   19.2399   -8.2569  -16.3645 N   0  0  0  0  0  0  0  0  0  0  0  0
   20.6704   -7.9772  -16.4510 C   0  0  1  0  0  0  0  0  0  0  0  0
   21.2020   -8.2243  -17.8198 C   0  0  0  0  0  0  0  0  0  0  0  0
   22.6665   -8.0191  -17.8304 C   0  0  0  0  0  0  0  0  0  0  0  0
   23.5672   -8.8961  -17.2644 C   0  0  0  0  0  0  0  0  0  0  0  0
   24.7953   -8.3933  -17.4589 N   0  0  0  0  0  0  0  0  0  0  0  0
   24.6985   -7.2395  -18.1220 C   0  0  0  0  0  0  0  0  0  0  0  0
   23.4029   -7.0176  -18.3448 N   0  0  0  0  0  0  0  0  0  0  0  0
   21.0069   -6.6549  -15.9386 C   0  0  0  0  0  0  0  0  0  0  0  0
   22.1796   -6.2704  -15.3230 O   0  0  0  0  0  0  0  0  0  0  0  0
   20.1282   -5.7315  -16.0623 O   0  0  0  0  0  0  0  0  0  0  0  0
  2  1  1  0
  3  2  1  0
  4  3  2  0
  5  3  1  0
  6 10  1  0
  6  5  1  0
  7  8  1  0
  6  7  1  1
  8  9  2  0
  8 12  1  0
 10 13  1  0
 11 10  2  0
 13 14  1  0
 14 15  1  6
 15 16  1  0
 16 17  2  0
 18 17  1  0
 19 18  1  0
 20 19  2  0
 20 16  1  0
 21 14  1  0
 21 22  1  0
 23 21  2  0
M  END
$$$$
