GDH.pdb
     RDKit          3D

 23 23  0  0  1  0  0  0  0  0999 V2000
   24.3253   -7.4824  -20.9101 N   0  0  0  0  0  0  0  0  0  0  0  0
   23.4602   -6.3322  -20.7692 C   0  0  0  0  0  0  0  0  0  0  0  0
   22.2440   -6.6676  -19.9211 C   0  0  0  0  0  0  0  0  0  0  0  0
   21.2020   -5.9989  -20.0393 O   0  0  0  0  0  0  0  0  0  0  0  0
   22.3960   -7.7461  -19.0360 N   0  0  0  0  0  0  0  0  0  0  0  0
   21.4202   -8.1933  -18.1010 C   0  0  1  0  0  0  0  0  0  0  0  0
   21.4704   -9.6579  -17.7240 C   0  0  0  0  0  0  0  0  0  0  0  0
   21.5635  -10.4778  -18.9495 C   0  0  0  0  0  0  0  0  0  0  0  0
   22.5757  -11.1977  -19.2410 O   0  0  0  0  0  0  0  0  0  0  0  0
   21.1115   -7.2745  -17.0129 C   0  0  0  0  0  0  0  0  0  0  0  0
   19.9542   -7.3123  -16.4585 O   0  0  0  0  0  0  0  0  0  0  0  0
   20.5296  -10.5179  -19.8846 O   0  0  0  0  0  0  0  0  0  0  0  0
   21.9957   -6.3028  -16.4802 N   0  0  0  0  0  0  0  0  0  0  0  0
   21.6045   -5.3333  -15.4610 C   0  0  1  0  0  0  0  0  0  0  0  0
   22.2296   -5.6316  -14.1428 C   0  0  0  0  0  0  0  0  0  0  0  0
   21.6014   -6.8339  -13.5539 C   0  0  0  0  0  0  0  0  0  0  0  0
   20.5841   -7.5412  -14.1588 C   0  0  0  0  0  0  0  0  0  0  0  0
   20.2626   -8.5585  -13.3461 N   0  0  0  0  0  0  0  0  0  0  0  0
   21.0361   -8.5155  -12.2597 C   0  0  0  0  0  0  0  0  0  0  0  0
   21.8473   -7.4656  -12.3918 N   0  0  0  0  0  0  0  0  0  0  0  0
   21.8180   -3.9584  -15.8953 C   0  0  0  0  0  0  0  0  0  0  0  0
   21.5983   -2.8080  -15.1670 O   0  0  0  0  0  0  0  0  0  0  0  0
   22.2574   -3.7752  -17.0842 O   0  0  0  0  0  0  0  0  0  0  0  0
  2  1  1  0
  3  2  1  0
  4  3  2  0
  5  3  1  0
  6 10  1  0
  6  5  1  0
  7  8  1  0
  6  7  1  1
  8  9  2  0
  8 12  1  0
 10 13  1  0
 11 10  2  0
 13 14  1  0
 14 15  1  1
 15 16  1  0
 16 17  2  0
 18 17  1  0
 19 18  1  0
 20 19  2  0
 20 16  1  0
 21 14  1  0
 21 22  1  0
 23 21  2  0
M  END
$$$$
