GDH.pdb
     RDKit          3D

 23 23  0  0  1  0  0  0  0  0999 V2000
   16.3040  -13.7696  -15.3733 N   0  0  0  0  0  0  0  0  0  0  0  0
   17.2537  -12.7755  -14.9251 C   0  0  0  0  0  0  0  0  0  0  0  0
   17.1856  -11.5289  -15.7924 C   0  0  0  0  0  0  0  0  0  0  0  0
   16.2517  -11.3866  -16.6015 O   0  0  0  0  0  0  0  0  0  0  0  0
   18.2208  -10.5996  -15.6075 N   0  0  0  0  0  0  0  0  0  0  0  0
   18.3014   -9.3174  -16.2206 C   0  0  1  0  0  0  0  0  0  0  0  0
   17.1018   -8.4115  -16.0472 C   0  0  0  0  0  0  0  0  0  0  0  0
   17.0819   -7.8809  -14.6685 C   0  0  0  0  0  0  0  0  0  0  0  0
   18.1343   -7.5731  -14.0162 O   0  0  0  0  0  0  0  0  0  0  0  0
   19.6001   -8.6599  -16.1552 C   0  0  0  0  0  0  0  0  0  0  0  0
   20.2215   -8.5909  -15.0339 O   0  0  0  0  0  0  0  0  0  0  0  0
   15.8869   -7.6785  -13.9785 O   0  0  0  0  0  0  0  0  0  0  0  0
   20.2773   -8.0643  -17.2490 N   0  0  0  0  0  0  0  0  0  0  0  0
   21.5468   -7.3549  -17.1184 C   0  0  1  0  0  0  0  0  0  0  0  0
   22.0964   -6.9533  -18.4427 C   0  0  0  0  0  0  0  0  0  0  0  0
   23.4537   -6.3923  -18.2697 C   0  0  0  0  0  0  0  0  0  0  0  0
   23.7062   -5.0593  -18.0239 C   0  0  0  0  0  0  0  0  0  0  0  0
   25.0358   -4.9127  -17.9272 N   0  0  0  0  0  0  0  0  0  0  0  0
   25.6234   -6.0977  -18.1026 C   0  0  0  0  0  0  0  0  0  0  0  0
   24.6570   -6.9926  -18.3103 N   0  0  0  0  0  0  0  0  0  0  0  0
   21.4661   -6.2471  -16.1746 C   0  0  0  0  0  0  0  0  0  0  0  0
   22.4468   -5.8157  -15.3062 O   0  0  0  0  0  0  0  0  0  0  0  0
   20.3694   -5.5875  -16.1292 O   0  0  0  0  0  0  0  0  0  0  0  0
  2  1  1  0
  3  2  1  0
  4  3  2  0
  5  3  1  0
  6 10  1  0
  6  5  1  0
  7  8  1  0
  6  7  1  1
  8  9  2  0
  8 12  1  0
 10 13  1  0
 11 10  2  0
 13 14  1  0
 14 15  1  6
 15 16  1  0
 16 17  2  0
 18 17  1  0
 19 18  1  0
 20 19  2  0
 20 16  1  0
 21 14  1  0
 21 22  1  0
 23 21  2  0
M  END
$$$$
