GDH.pdb
     RDKit          3D

 23 23  0  0  1  0  0  0  0  0999 V2000
   46.3449  -12.9774   -6.2589 N   0  0  0  0  0  0  0  0  0  0  0  0
   44.9446  -12.8456   -5.9232 C   0  0  0  0  0  0  0  0  0  0  0  0
   44.3794  -11.5376   -6.4529 C   0  0  0  0  0  0  0  0  0  0  0  0
   45.1150  -10.7511   -7.0753 O   0  0  0  0  0  0  0  0  0  0  0  0
   43.0203  -11.3087   -6.1887 N   0  0  0  0  0  0  0  0  0  0  0  0
   42.3027  -10.1223   -6.5115 C   0  0  1  0  0  0  0  0  0  0  0  0
   40.9403  -10.3101   -7.1424 C   0  0  0  0  0  0  0  0  0  0  0  0
   40.4866   -9.0293   -7.7224 C   0  0  0  0  0  0  0  0  0  0  0  0
   39.4890   -8.3687   -7.2795 O   0  0  0  0  0  0  0  0  0  0  0  0
   42.4047   -9.0336   -5.5483 C   0  0  0  0  0  0  0  0  0  0  0  0
   41.7736   -9.1108   -4.4330 O   0  0  0  0  0  0  0  0  0  0  0  0
   41.1334   -8.4491   -8.8133 O   0  0  0  0  0  0  0  0  0  0  0  0
   43.1623   -7.8482   -5.7231 N   0  0  0  0  0  0  0  0  0  0  0  0
   43.1299   -6.7285   -4.7866 C   0  0  1  0  0  0  0  0  0  0  0  0
   44.4625   -6.0773   -4.6546 C   0  0  0  0  0  0  0  0  0  0  0  0
   44.4181   -5.0647   -3.5778 C   0  0  0  0  0  0  0  0  0  0  0  0
   44.4229   -5.3742   -2.2342 C   0  0  0  0  0  0  0  0  0  0  0  0
   44.3724   -4.2190   -1.5548 N   0  0  0  0  0  0  0  0  0  0  0  0
   44.3360   -3.2020   -2.4177 C   0  0  0  0  0  0  0  0  0  0  0  0
   44.3640   -3.7221   -3.6450 N   0  0  0  0  0  0  0  0  0  0  0  0
   42.0616   -5.7847   -5.0904 C   0  0  0  0  0  0  0  0  0  0  0  0
   41.6684   -5.3394   -6.3350 O   0  0  0  0  0  0  0  0  0  0  0  0
   41.4017   -5.3011   -4.1051 O   0  0  0  0  0  0  0  0  0  0  0  0
  2  1  1  0
  3  2  1  0
  4  3  2  0
  5  3  1  0
  6 10  1  0
  6  5  1  0
  7  8  1  0
  6  7  1  1
  8  9  2  0
  8 12  1  0
 10 13  1  0
 11 10  2  0
 13 14  1  0
 14 15  1  6
 15 16  1  0
 16 17  2  0
 18 17  1  0
 19 18  1  0
 20 19  2  0
 20 16  1  0
 21 14  1  0
 21 22  1  0
 23 21  2  0
M  END
$$$$
