GDH.pdb
     RDKit          3D

 23 23  0  0  1  0  0  0  0  0999 V2000
   18.2281  -13.0718  -15.3390 N   0  0  0  0  0  0  0  0  0  0  0  0
   18.3180  -11.6822  -15.7288 C   0  0  0  0  0  0  0  0  0  0  0  0
   18.5046  -10.7880  -14.5138 C   0  0  0  0  0  0  0  0  0  0  0  0
   18.3516  -11.2546  -13.3710 O   0  0  0  0  0  0  0  0  0  0  0  0
   18.8474   -9.4543  -14.7845 N   0  0  0  0  0  0  0  0  0  0  0  0
   18.9666   -8.4174  -13.8165 C   0  0  1  0  0  0  0  0  0  0  0  0
   19.8201   -7.2295  -14.2038 C   0  0  0  0  0  0  0  0  0  0  0  0
   21.2391   -7.6381  -14.2498 C   0  0  0  0  0  0  0  0  0  0  0  0
   21.8885   -7.8103  -15.3345 O   0  0  0  0  0  0  0  0  0  0  0  0
   17.7578   -8.1046  -13.0652 C   0  0  0  0  0  0  0  0  0  0  0  0
   16.6527   -7.9140  -13.6902 O   0  0  0  0  0  0  0  0  0  0  0  0
   21.9739   -7.8663  -13.0866 O   0  0  0  0  0  0  0  0  0  0  0  0
   17.6728   -7.9850  -11.6552 N   0  0  0  0  0  0  0  0  0  0  0  0
   16.4261   -7.7129  -10.9455 C   0  0  1  0  0  0  0  0  0  0  0  0
   16.5637   -7.9312   -9.4790 C   0  0  0  0  0  0  0  0  0  0  0  0
   15.2469   -7.7712   -8.8255 C   0  0  0  0  0  0  0  0  0  0  0  0
   14.0882   -7.4564   -9.5032 C   0  0  0  0  0  0  0  0  0  0  0  0
   13.0988   -7.3907   -8.6002 N   0  0  0  0  0  0  0  0  0  0  0  0
   13.5913   -7.6509   -7.3878 C   0  0  0  0  0  0  0  0  0  0  0  0
   14.8967   -7.8812   -7.5311 N   0  0  0  0  0  0  0  0  0  0  0  0
   15.8750   -6.4052  -11.2783 C   0  0  0  0  0  0  0  0  0  0  0  0
   16.5475   -5.2021  -11.3252 O   0  0  0  0  0  0  0  0  0  0  0  0
   14.6274   -6.3436  -11.5606 O   0  0  0  0  0  0  0  0  0  0  0  0
  2  1  1  0
  3  2  1  0
  4  3  2  0
  5  3  1  0
  6 10  1  0
  6  5  1  0
  7  8  1  0
  6  7  1  6
  8  9  2  0
  8 12  1  0
 10 13  1  0
 11 10  2  0
 13 14  1  0
 14 15  1  1
 15 16  1  0
 16 17  2  0
 18 17  1  0
 19 18  1  0
 20 19  2  0
 20 16  1  0
 21 14  1  0
 21 22  1  0
 23 21  2  0
M  END
$$$$
