GDH.pdb
     RDKit          3D

 23 23  0  0  1  0  0  0  0  0999 V2000
   16.8305   -5.5918  -14.7768 N   0  0  0  0  0  0  0  0  0  0  0  0
   17.8477   -4.8925  -15.5300 C   0  0  0  0  0  0  0  0  0  0  0  0
   19.0032   -5.8189  -15.8728 C   0  0  0  0  0  0  0  0  0  0  0  0
   19.0705   -6.3345  -17.0027 O   0  0  0  0  0  0  0  0  0  0  0  0
   19.9403   -6.0298  -14.8497 N   0  0  0  0  0  0  0  0  0  0  0  0
   21.0236   -6.9523  -14.8968 C   0  0  1  0  0  0  0  0  0  0  0  0
   22.1201   -6.7561  -13.8726 C   0  0  0  0  0  0  0  0  0  0  0  0
   22.5905   -5.3563  -13.9184 C   0  0  0  0  0  0  0  0  0  0  0  0
   22.3576   -4.5037  -12.9982 O   0  0  0  0  0  0  0  0  0  0  0  0
   20.6701   -8.3369  -15.1816 C   0  0  0  0  0  0  0  0  0  0  0  0
   19.8219   -8.9431  -14.4323 O   0  0  0  0  0  0  0  0  0  0  0  0
   23.3344   -4.8681  -14.9923 O   0  0  0  0  0  0  0  0  0  0  0  0
   21.1873   -9.1162  -16.2469 N   0  0  0  0  0  0  0  0  0  0  0  0
   20.5743  -10.3600  -16.7041 C   0  0  1  0  0  0  0  0  0  0  0  0
   19.1137  -10.2019  -16.9466 C   0  0  0  0  0  0  0  0  0  0  0  0
   18.5157  -11.5168  -17.2633 C   0  0  0  0  0  0  0  0  0  0  0  0
   19.1401  -12.7215  -17.0185 C   0  0  0  0  0  0  0  0  0  0  0  0
   18.3140  -13.6942  -17.4309 N   0  0  0  0  0  0  0  0  0  0  0  0
   17.2009  -13.1472  -17.9230 C   0  0  0  0  0  0  0  0  0  0  0  0
   17.3295  -11.8243  -17.8185 N   0  0  0  0  0  0  0  0  0  0  0  0
   21.2814  -10.9400  -17.8390 C   0  0  0  0  0  0  0  0  0  0  0  0
   22.3164  -10.3766  -18.5556 O   0  0  0  0  0  0  0  0  0  0  0  0
   20.9153  -12.1024  -18.2326 O   0  0  0  0  0  0  0  0  0  0  0  0
  2  1  1  0
  3  2  1  0
  4  3  2  0
  5  3  1  0
  6 10  1  0
  6  5  1  0
  7  8  1  0
  6  7  1  1
  8  9  2  0
  8 12  1  0
 10 13  1  0
 11 10  2  0
 13 14  1  0
 14 15  1  6
 15 16  1  0
 16 17  2  0
 18 17  1  0
 19 18  1  0
 20 19  2  0
 20 16  1  0
 21 14  1  0
 21 22  1  0
 23 21  2  0
M  END
$$$$
