HST.pdb
     RDKit          3D

 24 24  0  0  1  0  0  0  0  0999 V2000
   23.7448  -12.0868  -18.9802 N   0  0  0  0  0  0  0  0  0  0  0  0
   22.6804  -11.1671  -18.7286 C   0  0  1  0  0  0  0  0  0  0  0  0
   21.4965  -11.8816  -18.1131 C   0  0  0  0  0  0  0  0  0  0  0  0
   20.7988  -12.7533  -19.0779 C   0  0  0  0  0  0  0  0  0  0  0  0
   21.1134  -12.9283  -20.3927 C   0  0  0  0  0  0  0  0  0  0  0  0
   20.2233  -13.8116  -20.9185 N   0  0  0  0  0  0  0  0  0  0  0  0
   19.3708  -14.1724  -19.9271 C   0  0  0  0  0  0  0  0  0  0  0  0
   19.7335  -13.5167  -18.8020 N   0  0  0  0  0  0  0  0  0  0  0  0
   23.0502  -10.0629  -17.8332 C   0  0  0  0  0  0  0  0  0  0  0  0
   23.7690  -10.3327  -16.8152 O   0  0  0  0  0  0  0  0  0  0  0  0
   24.3393   -5.6021  -16.9989 O   0  0  0  0  0  0  0  0  0  0  0  0
   23.9667   -6.6223  -17.8924 C   0  0  0  0  0  0  0  0  0  0  0  0
   23.1586   -7.6479  -17.1231 C   0  0  2  0  0  0  0  0  0  0  0  0
   22.6840   -8.7087  -17.9881 N   0  0  0  0  0  0  0  0  0  0  0  0
   22.0422   -6.9830  -16.4042 C   0  0  0  0  0  0  0  0  0  0  0  0
   21.0008   -6.6120  -17.0130 O   0  0  0  0  0  0  0  0  0  0  0  0
   19.9912   -8.2274  -13.5718 C   0  0  0  0  0  0  0  0  0  0  0  0
   20.6540   -6.9640  -13.0745 C   0  0  1  0  0  0  0  0  0  0  0  0
   21.7763   -7.3636  -12.3386 O   0  0  0  0  0  0  0  0  0  0  0  0
   21.1417   -6.1036  -14.2225 C   0  0  2  0  0  0  0  0  0  0  0  0
   22.1496   -6.7614  -15.0064 N   0  0  0  0  0  0  0  0  0  0  0  0
   21.7143   -4.8656  -13.6525 C   0  0  0  0  0  0  0  0  0  0  0  0
   20.9743   -3.9109  -12.9687 O   0  0  0  0  0  0  0  0  0  0  0  0
   22.9411   -4.6540  -13.7883 O   0  0  0  0  0  0  0  0  0  0  0  0
  2  1  1  1
  3  2  1  0
  4  5  2  0
  4  3  1  0
  6  5  1  0
  7  8  2  0
  7  6  1  0
  8  4  1  0
  9  2  1  0
 10  9  2  0
 11 12  1  0
 13 12  1  6
 13 15  1  0
 13 14  1  0
 14  9  1  0
 15 21  1  0
 16 15  2  0
 18 19  1  0
 18 17  1  6
 20 18  1  0
 20 22  1  0
 20 21  1  1
 22 24  2  0
 22 23  1  0
M  END
$$$$
