HST.pdb
     RDKit          3D

 24 24  0  0  1  0  0  0  0  0999 V2000
   17.6052  -12.1239  -17.6614 N   0  0  0  0  0  0  0  0  0  0  0  0
   18.2659  -11.7163  -16.4616 C   0  0  1  0  0  0  0  0  0  0  0  0
   19.5714  -12.4639  -16.2948 C   0  0  0  0  0  0  0  0  0  0  0  0
   19.3730  -13.9160  -16.1239 C   0  0  0  0  0  0  0  0  0  0  0  0
   19.7354  -14.8959  -16.9995 C   0  0  0  0  0  0  0  0  0  0  0  0
   19.3723  -16.0901  -16.4598 N   0  0  0  0  0  0  0  0  0  0  0  0
   18.7913  -15.8371  -15.2605 C   0  0  0  0  0  0  0  0  0  0  0  0
   18.7972  -14.4995  -15.0648 N   0  0  0  0  0  0  0  0  0  0  0  0
   18.5645  -10.2791  -16.4081 C   0  0  0  0  0  0  0  0  0  0  0  0
   19.2102   -9.7652  -17.3802 O   0  0  0  0  0  0  0  0  0  0  0  0
   16.2195   -7.9934  -14.7987 O   0  0  0  0  0  0  0  0  0  0  0  0
   17.3388   -7.1480  -14.8999 C   0  0  0  0  0  0  0  0  0  0  0  0
   18.5110   -7.9773  -15.3846 C   0  0  2  0  0  0  0  0  0  0  0  0
   18.2027   -9.3928  -15.3710 N   0  0  0  0  0  0  0  0  0  0  0  0
   19.7209   -7.6698  -14.5804 C   0  0  0  0  0  0  0  0  0  0  0  0
   19.9836   -8.3078  -13.5237 O   0  0  0  0  0  0  0  0  0  0  0  0
   23.2938   -7.5715  -16.0604 C   0  0  0  0  0  0  0  0  0  0  0  0
   22.9817   -6.2409  -15.4165 C   0  0  1  0  0  0  0  0  0  0  0  0
   22.5287   -5.3977  -16.4386 O   0  0  0  0  0  0  0  0  0  0  0  0
   21.8672   -6.3647  -14.3973 C   0  0  2  0  0  0  0  0  0  0  0  0
   20.5972   -6.6391  -15.0094 N   0  0  0  0  0  0  0  0  0  0  0  0
   21.7761   -5.0841  -13.6644 C   0  0  0  0  0  0  0  0  0  0  0  0
   22.7301   -4.6366  -12.7611 O   0  0  0  0  0  0  0  0  0  0  0  0
   20.7816   -4.3491  -13.8624 O   0  0  0  0  0  0  0  0  0  0  0  0
  2  1  1  6
  3  2  1  0
  4  5  2  0
  4  3  1  0
  6  5  1  0
  7  8  2  0
  7  6  1  0
  8  4  1  0
  9  2  1  0
 10  9  2  0
 11 12  1  0
 13 12  1  1
 13 15  1  0
 13 14  1  0
 14  9  1  0
 15 21  1  0
 16 15  2  0
 18 19  1  0
 18 17  1  6
 20 18  1  0
 20 22  1  0
 20 21  1  6
 22 24  2  0
 22 23  1  0
M  END
$$$$
