HST.pdb
     RDKit          3D

 24 24  0  0  1  0  0  0  0  0999 V2000
   25.2386  -32.8724  -14.9174 N   0  0  0  0  0  0  0  0  0  0  0  0
   25.9261  -33.5678  -13.8753 C   0  0  1  0  0  0  0  0  0  0  0  0
   27.2948  -32.9629  -13.6474 C   0  0  0  0  0  0  0  0  0  0  0  0
   28.1769  -33.1029  -14.8219 C   0  0  0  0  0  0  0  0  0  0  0  0
   28.5429  -34.2660  -15.4315 C   0  0  0  0  0  0  0  0  0  0  0  0
   29.3607  -33.9504  -16.4711 N   0  0  0  0  0  0  0  0  0  0  0  0
   29.4914  -32.6005  -16.4935 C   0  0  0  0  0  0  0  0  0  0  0  0
   28.7606  -32.0908  -15.4769 N   0  0  0  0  0  0  0  0  0  0  0  0
   25.2157  -33.5618  -12.5897 C   0  0  0  0  0  0  0  0  0  0  0  0
   24.5734  -32.5090  -12.2654 O   0  0  0  0  0  0  0  0  0  0  0  0
   23.7590  -36.6569  -11.1430 O   0  0  0  0  0  0  0  0  0  0  0  0
   23.4435  -35.6262  -10.2397 C   0  0  0  0  0  0  0  0  0  0  0  0
   24.4897  -34.5393  -10.3838 C   0  0  2  0  0  0  0  0  0  0  0  0
   25.1709  -34.6225  -11.6597 N   0  0  0  0  0  0  0  0  0  0  0  0
   25.4429  -34.5946   -9.2464 C   0  0  0  0  0  0  0  0  0  0  0  0
   26.6294  -34.9939   -9.4059 O   0  0  0  0  0  0  0  0  0  0  0  0
   26.1372  -33.2889   -4.4767 C   0  0  0  0  0  0  0  0  0  0  0  0
   25.1558  -33.6186   -5.5770 C   0  0  1  0  0  0  0  0  0  0  0  0
   24.5559  -32.4108   -5.9538 O   0  0  0  0  0  0  0  0  0  0  0  0
   25.8571  -34.1817   -6.7966 C   0  0  2  0  0  0  0  0  0  0  0  0
   25.0101  -34.1903   -7.9566 N   0  0  0  0  0  0  0  0  0  0  0  0
   26.2589  -35.5709   -6.4898 C   0  0  0  0  0  0  0  0  0  0  0  0
   27.5269  -35.9355   -6.0588 O   0  0  0  0  0  0  0  0  0  0  0  0
   25.4119  -36.4838   -6.6233 O   0  0  0  0  0  0  0  0  0  0  0  0
  2  1  1  6
  3  2  1  0
  4  5  2  0
  4  3  1  0
  6  5  1  0
  7  8  2  0
  7  6  1  0
  8  4  1  0
  9  2  1  0
 10  9  2  0
 11 12  1  0
 13 12  1  1
 13 15  1  0
 13 14  1  0
 14  9  1  0
 15 21  1  0
 16 15  2  0
 18 19  1  0
 18 17  1  1
 20 18  1  0
 20 22  1  0
 20 21  1  6
 22 24  2  0
 22 23  1  0
M  END
$$$$
