HST.pdb
     RDKit          3D

 24 24  0  0  1  0  0  0  0  0999 V2000
   27.8370  -24.8458  -16.8221 N   0  0  0  0  0  0  0  0  0  0  0  0
   28.8840  -25.8023  -16.6465 C   0  0  1  0  0  0  0  0  0  0  0  0
   28.7595  -26.9175  -17.6624 C   0  0  0  0  0  0  0  0  0  0  0  0
   27.5370  -27.7215  -17.4716 C   0  0  0  0  0  0  0  0  0  0  0  0
   26.3038  -27.4645  -17.9925 C   0  0  0  0  0  0  0  0  0  0  0  0
   25.4631  -28.4479  -17.5737 N   0  0  0  0  0  0  0  0  0  0  0  0
   26.1824  -29.2996  -16.8011 C   0  0  0  0  0  0  0  0  0  0  0  0
   27.4539  -28.8438  -16.7454 N   0  0  0  0  0  0  0  0  0  0  0  0
   30.2329  -25.2341  -16.7706 C   0  0  0  0  0  0  0  0  0  0  0  0
   30.3792  -24.1902  -17.4881 O   0  0  0  0  0  0  0  0  0  0  0  0
   33.5325  -26.7161  -14.7585 O   0  0  0  0  0  0  0  0  0  0  0  0
   33.5063  -25.3262  -14.9714 C   0  0  0  0  0  0  0  0  0  0  0  0
   32.6844  -25.0575  -16.2160 C   0  0  2  0  0  0  0  0  0  0  0  0
   31.4051  -25.7355  -16.1651 N   0  0  0  0  0  0  0  0  0  0  0  0
   33.4571  -25.4303  -17.4281 C   0  0  0  0  0  0  0  0  0  0  0  0
   33.4363  -26.6082  -17.8806 O   0  0  0  0  0  0  0  0  0  0  0  0
   33.3438  -23.5167  -20.8336 C   0  0  0  0  0  0  0  0  0  0  0  0
   34.7617  -23.5584  -20.3136 C   0  0  1  0  0  0  0  0  0  0  0  0
   34.9786  -22.3476  -19.6444 O   0  0  0  0  0  0  0  0  0  0  0  0
   34.9525  -24.6771  -19.3096 C   0  0  2  0  0  0  0  0  0  0  0  0
   34.2328  -24.4424  -18.0890 N   0  0  0  0  0  0  0  0  0  0  0  0
   36.3953  -24.7711  -19.0013 C   0  0  0  0  0  0  0  0  0  0  0  0
   37.3706  -25.0864  -19.9372 O   0  0  0  0  0  0  0  0  0  0  0  0
   36.7732  -24.5550  -17.8270 O   0  0  0  0  0  0  0  0  0  0  0  0
  2  1  1  6
  3  2  1  0
  4  5  2  0
  4  3  1  0
  6  5  1  0
  7  8  2  0
  7  6  1  0
  8  4  1  0
  9  2  1  0
 10  9  2  0
 11 12  1  0
 13 12  1  1
 13 15  1  0
 13 14  1  0
 14  9  1  0
 15 21  1  0
 16 15  2  0
 18 19  1  0
 18 17  1  1
 20 18  1  0
 20 22  1  0
 20 21  1  1
 22 24  2  0
 22 23  1  0
M  END
$$$$
