HST.pdb
     RDKit          3D

 24 24  0  0  1  0  0  0  0  0999 V2000
   16.5485  -11.4523  -17.0583 N   0  0  0  0  0  0  0  0  0  0  0  0
   17.3098  -11.0754  -15.9093 C   0  0  1  0  0  0  0  0  0  0  0  0
   18.4235  -12.0701  -15.6614 C   0  0  0  0  0  0  0  0  0  0  0  0
   17.9171  -13.4301  -15.3945 C   0  0  0  0  0  0  0  0  0  0  0  0
   17.2405  -13.8440  -14.2859 C   0  0  0  0  0  0  0  0  0  0  0  0
   16.9591  -15.1654  -14.4405 N   0  0  0  0  0  0  0  0  0  0  0  0
   17.4628  -15.5534  -15.6387 C   0  0  0  0  0  0  0  0  0  0  0  0
   18.0485  -14.4802  -16.2154 N   0  0  0  0  0  0  0  0  0  0  0  0
   17.9169   -9.7418  -16.0117 C   0  0  0  0  0  0  0  0  0  0  0  0
   18.6843   -9.5078  -17.0029 O   0  0  0  0  0  0  0  0  0  0  0  0
   16.8374   -6.4838  -13.6672 O   0  0  0  0  0  0  0  0  0  0  0  0
   17.3193   -6.2616  -14.9696 C   0  0  0  0  0  0  0  0  0  0  0  0
   18.3127   -7.3586  -15.2959 C   0  0  2  0  0  0  0  0  0  0  0  0
   17.7340   -8.6734  -15.1079 N   0  0  0  0  0  0  0  0  0  0  0  0
   19.5497   -7.1819  -14.4936 C   0  0  0  0  0  0  0  0  0  0  0  0
   19.6790   -7.7258  -13.3622 O   0  0  0  0  0  0  0  0  0  0  0  0
   23.2273   -7.2163  -16.2276 C   0  0  0  0  0  0  0  0  0  0  0  0
   23.0024   -6.0035  -15.3550 C   0  0  1  0  0  0  0  0  0  0  0  0
   22.6095   -4.9643  -16.2073 O   0  0  0  0  0  0  0  0  0  0  0  0
   21.8791   -6.2327  -14.3641 C   0  0  2  0  0  0  0  0  0  0  0  0
   20.6056   -6.3865  -15.0103 N   0  0  0  0  0  0  0  0  0  0  0  0
   21.8187   -5.0606  -13.4652 C   0  0  0  0  0  0  0  0  0  0  0  0
   22.8257   -4.7109  -12.5763 O   0  0  0  0  0  0  0  0  0  0  0  0
   20.8016   -4.3307  -13.4987 O   0  0  0  0  0  0  0  0  0  0  0  0
  2  1  1  6
  3  2  1  0
  4  5  2  0
  4  3  1  0
  6  5  1  0
  7  8  2  0
  7  6  1  0
  8  4  1  0
  9  2  1  0
 10  9  2  0
 11 12  1  0
 13 12  1  1
 13 15  1  0
 13 14  1  0
 14  9  1  0
 15 21  1  0
 16 15  2  0
 18 19  1  0
 18 17  1  6
 20 18  1  0
 20 22  1  0
 20 21  1  6
 22 24  2  0
 22 23  1  0
M  END
$$$$
