HST.pdb
     RDKit          3D

 24 24  0  0  1  0  0  0  0  0999 V2000
   38.2406  -10.5154   -6.0060 N   0  0  0  0  0  0  0  0  0  0  0  0
   39.0606  -10.0360   -7.0735 C   0  0  1  0  0  0  0  0  0  0  0  0
   39.2732   -8.5425   -6.9495 C   0  0  0  0  0  0  0  0  0  0  0  0
   38.0253   -7.7770   -7.1342 C   0  0  0  0  0  0  0  0  0  0  0  0
   37.4734   -6.8947   -6.2537 C   0  0  0  0  0  0  0  0  0  0  0  0
   36.3303   -6.4126   -6.8106 N   0  0  0  0  0  0  0  0  0  0  0  0
   36.1878   -6.9996   -8.0250 C   0  0  0  0  0  0  0  0  0  0  0  0
   37.2338   -7.8351   -8.2130 N   0  0  0  0  0  0  0  0  0  0  0  0
   40.3834  -10.6715   -7.1363 C   0  0  0  0  0  0  0  0  0  0  0  0
   40.9452  -10.9945   -6.0381 O   0  0  0  0  0  0  0  0  0  0  0  0
   41.5481  -12.1271  -10.4713 O   0  0  0  0  0  0  0  0  0  0  0  0
   42.6978  -12.2451   -9.6700 C   0  0  0  0  0  0  0  0  0  0  0  0
   42.3853  -11.6522   -8.3107 C   0  0  2  0  0  0  0  0  0  0  0  0
   41.1093  -10.9663   -8.3103 N   0  0  0  0  0  0  0  0  0  0  0  0
   43.4901  -10.7598   -7.8770 C   0  0  0  0  0  0  0  0  0  0  0  0
   43.5259   -9.5470   -8.2239 O   0  0  0  0  0  0  0  0  0  0  0  0
   44.9543  -11.0132   -4.1321 C   0  0  0  0  0  0  0  0  0  0  0  0
   46.0588  -11.0206   -5.1630 C   0  0  1  0  0  0  0  0  0  0  0  0
   46.4211  -12.3599   -5.3521 O   0  0  0  0  0  0  0  0  0  0  0  0
   45.5782  -10.4836   -6.4959 C   0  0  2  0  0  0  0  0  0  0  0  0
   44.5241  -11.2819   -7.0569 N   0  0  0  0  0  0  0  0  0  0  0  0
   46.7254  -10.4863   -7.4283 C   0  0  0  0  0  0  0  0  0  0  0  0
   47.8575   -9.6992   -7.2689 O   0  0  0  0  0  0  0  0  0  0  0  0
   46.6851  -11.2409   -8.4269 O   0  0  0  0  0  0  0  0  0  0  0  0
  2  1  1  1
  3  2  1  0
  4  5  2  0
  4  3  1  0
  6  5  1  0
  7  8  2  0
  7  6  1  0
  8  4  1  0
  9  2  1  0
 10  9  2  0
 11 12  1  0
 13 12  1  6
 13 15  1  0
 13 14  1  0
 14  9  1  0
 15 21  1  0
 16 15  2  0
 18 19  1  0
 18 17  1  1
 20 18  1  0
 20 22  1  0
 20 21  1  6
 22 24  2  0
 22 23  1  0
M  END
$$$$
