HST.pdb
     RDKit          3D

 24 24  0  0  1  0  0  0  0  0999 V2000
   19.0155  -12.8164  -16.4571 N   0  0  0  0  0  0  0  0  0  0  0  0
   18.9111  -11.4320  -16.7956 C   0  0  1  0  0  0  0  0  0  0  0  0
   17.4594  -11.0062  -16.8453 C   0  0  0  0  0  0  0  0  0  0  0  0
   16.7068  -11.6890  -17.9152 C   0  0  0  0  0  0  0  0  0  0  0  0
   16.0869  -12.9000  -17.8294 C   0  0  0  0  0  0  0  0  0  0  0  0
   15.5131  -13.1590  -19.0347 N   0  0  0  0  0  0  0  0  0  0  0  0
   15.7831  -12.1094  -19.8503 C   0  0  0  0  0  0  0  0  0  0  0  0
   16.5163  -11.2132  -19.1526 N   0  0  0  0  0  0  0  0  0  0  0  0
   19.6065  -10.5388  -15.8597 C   0  0  0  0  0  0  0  0  0  0  0  0
   19.2362  -10.5444  -14.6395 O   0  0  0  0  0  0  0  0  0  0  0  0
   23.4399   -9.6413  -16.1071 O   0  0  0  0  0  0  0  0  0  0  0  0
   22.7431   -9.5112  -14.8924 C   0  0  0  0  0  0  0  0  0  0  0  0
   21.3923   -8.8921  -15.1903 C   0  0  2  0  0  0  0  0  0  0  0  0
   20.6624   -9.6586  -16.1795 N   0  0  0  0  0  0  0  0  0  0  0  0
   21.5602   -7.4762  -15.6052 C   0  0  0  0  0  0  0  0  0  0  0  0
   21.7444   -7.1664  -16.8146 O   0  0  0  0  0  0  0  0  0  0  0  0
   19.4947   -4.5377  -13.6472 C   0  0  0  0  0  0  0  0  0  0  0  0
   20.2141   -4.4029  -14.9690 C   0  0  1  0  0  0  0  0  0  0  0  0
   20.4017   -3.0321  -15.1848 O   0  0  0  0  0  0  0  0  0  0  0  0
   21.5830   -5.0512  -14.9251 C   0  0  2  0  0  0  0  0  0  0  0  0
   21.5122   -6.4535  -14.6223 N   0  0  0  0  0  0  0  0  0  0  0  0
   22.3730   -4.3762  -13.8736 C   0  0  0  0  0  0  0  0  0  0  0  0
   22.8546   -3.0785  -13.9766 O   0  0  0  0  0  0  0  0  0  0  0  0
   22.6299   -5.0034  -12.8205 O   0  0  0  0  0  0  0  0  0  0  0  0
  2  1  1  1
  3  2  1  0
  4  5  2  0
  4  3  1  0
  6  5  1  0
  7  8  2  0
  7  6  1  0
  8  4  1  0
  9  2  1  0
 10  9  2  0
 11 12  1  0
 13 12  1  6
 13 15  1  0
 13 14  1  0
 14  9  1  0
 15 21  1  0
 16 15  2  0
 18 19  1  0
 18 17  1  1
 20 18  1  0
 20 22  1  0
 20 21  1  1
 22 24  2  0
 22 23  1  0
M  END
$$$$
