HST.pdb
     RDKit          3D

 24 24  0  0  1  0  0  0  0  0999 V2000
   23.1705  -11.8665  -19.5922 N   0  0  0  0  0  0  0  0  0  0  0  0
   22.8665  -10.4737  -19.6922 C   0  0  1  0  0  0  0  0  0  0  0  0
   21.4092  -10.2732  -20.0490 C   0  0  0  0  0  0  0  0  0  0  0  0
   21.0626  -10.8584  -21.3585 C   0  0  0  0  0  0  0  0  0  0  0  0
   20.9927  -10.2017  -22.5510 C   0  0  0  0  0  0  0  0  0  0  0  0
   20.6416  -11.1067  -23.5033 N   0  0  0  0  0  0  0  0  0  0  0  0
   20.4985  -12.3091  -22.8921 C   0  0  0  0  0  0  0  0  0  0  0  0
   20.7593  -12.1447  -21.5759 N   0  0  0  0  0  0  0  0  0  0  0  0
   23.1324   -9.7190  -18.4605 C   0  0  0  0  0  0  0  0  0  0  0  0
   22.7685  -10.2341  -17.3523 O   0  0  0  0  0  0  0  0  0  0  0  0
   25.1101   -5.9712  -18.2005 O   0  0  0  0  0  0  0  0  0  0  0  0
   25.2730   -6.9367  -17.1910 C   0  0  0  0  0  0  0  0  0  0  0  0
   24.0073   -7.7678  -17.1278 C   0  0  2  0  0  0  0  0  0  0  0  0
   23.7614   -8.4582  -18.3774 N   0  0  0  0  0  0  0  0  0  0  0  0
   22.8566   -6.9158  -16.7339 C   0  0  0  0  0  0  0  0  0  0  0  0
   22.1651   -6.3099  -17.5984 O   0  0  0  0  0  0  0  0  0  0  0  0
   19.8595   -7.9122  -14.6253 C   0  0  0  0  0  0  0  0  0  0  0  0
   20.5407   -6.7590  -13.9260 C   0  0  1  0  0  0  0  0  0  0  0  0
   21.3553   -7.3174  -12.9333 O   0  0  0  0  0  0  0  0  0  0  0  0
   21.4367   -5.9864  -14.8728 C   0  0  2  0  0  0  0  0  0  0  0  0
   22.5295   -6.7815  -15.3594 N   0  0  0  0  0  0  0  0  0  0  0  0
   21.9825   -4.8257  -14.1377 C   0  0  0  0  0  0  0  0  0  0  0  0
   21.2105   -3.7752  -13.6614 O   0  0  0  0  0  0  0  0  0  0  0  0
   23.2158   -4.7759  -13.9255 O   0  0  0  0  0  0  0  0  0  0  0  0
  2  1  1  1
  3  2  1  0
  4  5  2  0
  4  3  1  0
  6  5  1  0
  7  8  2  0
  7  6  1  0
  8  4  1  0
  9  2  1  0
 10  9  2  0
 11 12  1  0
 13 12  1  6
 13 15  1  0
 13 14  1  0
 14  9  1  0
 15 21  1  0
 16 15  2  0
 18 19  1  0
 18 17  1  6
 20 18  1  0
 20 22  1  0
 20 21  1  1
 22 24  2  0
 22 23  1  0
M  END
$$$$
