HST.pdb
     RDKit          3D

 24 24  0  0  1  0  0  0  0  0999 V2000
   32.4021  -27.8765  -20.2045 N   0  0  0  0  0  0  0  0  0  0  0  0
   32.8812  -29.0856  -19.6125 C   0  0  1  0  0  0  0  0  0  0  0  0
   33.5078  -28.8038  -18.2637 C   0  0  0  0  0  0  0  0  0  0  0  0
   34.7583  -28.0282  -18.3729 C   0  0  0  0  0  0  0  0  0  0  0  0
   34.9245  -26.7064  -18.0839 C   0  0  0  0  0  0  0  0  0  0  0  0
   36.2259  -26.3903  -18.3197 N   0  0  0  0  0  0  0  0  0  0  0  0
   36.8486  -27.5157  -18.7504 C   0  0  0  0  0  0  0  0  0  0  0  0
   35.9382  -28.5146  -18.7791 N   0  0  0  0  0  0  0  0  0  0  0  0
   31.8399  -30.1031  -19.4171 C   0  0  0  0  0  0  0  0  0  0  0  0
   30.6236  -29.7205  -19.4051 O   0  0  0  0  0  0  0  0  0  0  0  0
   31.6514  -33.8220  -21.0380 O   0  0  0  0  0  0  0  0  0  0  0  0
   31.4760  -33.8343  -19.6427 C   0  0  0  0  0  0  0  0  0  0  0  0
   30.9842  -32.4647  -19.2195 C   0  0  2  0  0  0  0  0  0  0  0  0
   32.0528  -31.4867  -19.2378 N   0  0  0  0  0  0  0  0  0  0  0  0
   30.3345  -32.5452  -17.8866 C   0  0  0  0  0  0  0  0  0  0  0  0
   31.0049  -32.7902  -16.8458 O   0  0  0  0  0  0  0  0  0  0  0  0
   27.3126  -30.0048  -16.7438 C   0  0  0  0  0  0  0  0  0  0  0  0
   26.9715  -31.4697  -16.6000 C   0  0  1  0  0  0  0  0  0  0  0  0
   26.2672  -31.8321  -17.7548 O   0  0  0  0  0  0  0  0  0  0  0  0
   28.2194  -32.3270  -16.5367 C   0  0  2  0  0  0  0  0  0  0  0  0
   28.9336  -32.3424  -17.7827 N   0  0  0  0  0  0  0  0  0  0  0  0
   27.8069  -33.7078  -16.2071 C   0  0  0  0  0  0  0  0  0  0  0  0
   27.2493  -34.0827  -14.9926 O   0  0  0  0  0  0  0  0  0  0  0  0
   27.9653  -34.6030  -17.0684 O   0  0  0  0  0  0  0  0  0  0  0  0
  2  1  1  1
  3  2  1  0
  4  5  2  0
  4  3  1  0
  6  5  1  0
  7  8  2  0
  7  6  1  0
  8  4  1  0
  9  2  1  0
 10  9  2  0
 11 12  1  0
 13 12  1  1
 13 15  1  0
 13 14  1  0
 14  9  1  0
 15 21  1  0
 16 15  2  0
 18 19  1  0
 18 17  1  6
 20 18  1  0
 20 22  1  0
 20 21  1  6
 22 24  2  0
 22 23  1  0
M  END
$$$$
