HST.pdb
     RDKit          3D

 24 24  0  0  1  0  0  0  0  0999 V2000
   17.5508  -11.0289  -16.3783 N   0  0  0  0  0  0  0  0  0  0  0  0
   18.6240  -10.2165  -16.8580 C   0  0  1  0  0  0  0  0  0  0  0  0
   18.2175   -9.4947  -18.1248 C   0  0  0  0  0  0  0  0  0  0  0  0
   17.9206  -10.4225  -19.2332 C   0  0  0  0  0  0  0  0  0  0  0  0
   18.8154  -11.2004  -19.9057 C   0  0  0  0  0  0  0  0  0  0  0  0
   18.1300  -11.9022  -20.8474 N   0  0  0  0  0  0  0  0  0  0  0  0
   16.8233  -11.5522  -20.7478 C   0  0  0  0  0  0  0  0  0  0  0  0
   16.7065  -10.6435  -19.7538 N   0  0  0  0  0  0  0  0  0  0  0  0
   19.0787   -9.2054  -15.8945 C   0  0  0  0  0  0  0  0  0  0  0  0
   18.1937   -8.5266  -15.2764 O   0  0  0  0  0  0  0  0  0  0  0  0
   22.0406   -7.6009  -12.5703 O   0  0  0  0  0  0  0  0  0  0  0  0
   21.7909   -8.5518  -13.5760 C   0  0  0  0  0  0  0  0  0  0  0  0
   20.8058   -7.9492  -14.5575 C   0  0  2  0  0  0  0  0  0  0  0  0
   20.4204   -8.9030  -15.5774 N   0  0  0  0  0  0  0  0  0  0  0  0
   21.3686   -6.7086  -15.1485 C   0  0  0  0  0  0  0  0  0  0  0  0
   22.2218   -6.7551  -16.0773 O   0  0  0  0  0  0  0  0  0  0  0  0
   19.4702   -3.7428  -16.6441 C   0  0  0  0  0  0  0  0  0  0  0  0
   20.3051   -3.2313  -15.4934 C   0  0  1  0  0  0  0  0  0  0  0  0
   19.4556   -3.1608  -14.3825 O   0  0  0  0  0  0  0  0  0  0  0  0
   21.4272   -4.1906  -15.1517 C   0  0  2  0  0  0  0  0  0  0  0  0
   20.9380   -5.4480  -14.6590 N   0  0  0  0  0  0  0  0  0  0  0  0
   22.2616   -3.5614  -14.1061 C   0  0  0  0  0  0  0  0  0  0  0  0
   22.3406   -4.0166  -12.7972 O   0  0  0  0  0  0  0  0  0  0  0  0
   22.9436   -2.5552  -14.4076 O   0  0  0  0  0  0  0  0  0  0  0  0
  2  1  1  1
  3  2  1  0
  4  5  2  0
  4  3  1  0
  6  5  1  0
  7  8  2  0
  7  6  1  0
  8  4  1  0
  9  2  1  0
 10  9  2  0
 11 12  1  0
 13 12  1  1
 13 15  1  0
 13 14  1  0
 14  9  1  0
 15 21  1  0
 16 15  2  0
 18 19  1  0
 18 17  1  6
 20 18  1  0
 20 22  1  0
 20 21  1  1
 22 24  2  0
 22 23  1  0
M  END
$$$$
