HST.pdb
     RDKit          3D

 24 24  0  0  1  0  0  0  0  0999 V2000
   21.8672  -11.2168  -19.0684 N   0  0  0  0  0  0  0  0  0  0  0  0
   22.1315   -9.9600  -19.6951 C   0  0  1  0  0  0  0  0  0  0  0  0
   21.1708   -9.7265  -20.8412 C   0  0  0  0  0  0  0  0  0  0  0  0
   21.3758  -10.6755  -21.9524 C   0  0  0  0  0  0  0  0  0  0  0  0
   21.9117  -10.3953  -23.1741 C   0  0  0  0  0  0  0  0  0  0  0  0
   21.9200  -11.5467  -23.8977 N   0  0  0  0  0  0  0  0  0  0  0  0
   21.3911  -12.5231  -23.1189 C   0  0  0  0  0  0  0  0  0  0  0  0
   21.0606  -11.9770  -21.9272 N   0  0  0  0  0  0  0  0  0  0  0  0
   22.0294   -8.8110  -18.7858 C   0  0  0  0  0  0  0  0  0  0  0  0
   21.1987   -8.8830  -17.8210 O   0  0  0  0  0  0  0  0  0  0  0  0
   24.7663   -6.6178  -16.7575 O   0  0  0  0  0  0  0  0  0  0  0  0
   24.0330   -5.8718  -17.6975 C   0  0  0  0  0  0  0  0  0  0  0  0
   22.6919   -6.5503  -17.8918 C   0  0  2  0  0  0  0  0  0  0  0  0
   22.7708   -7.6132  -18.8731 N   0  0  0  0  0  0  0  0  0  0  0  0
   21.6589   -5.5457  -18.2506 C   0  0  0  0  0  0  0  0  0  0  0  0
   21.5293   -5.1356  -19.4371 O   0  0  0  0  0  0  0  0  0  0  0  0
   17.9173   -5.8078  -17.3706 C   0  0  0  0  0  0  0  0  0  0  0  0
   18.4468   -4.5069  -16.8140 C   0  0  1  0  0  0  0  0  0  0  0  0
   18.7262   -4.7345  -15.4609 O   0  0  0  0  0  0  0  0  0  0  0  0
   19.7422   -4.1009  -17.4871 C   0  0  2  0  0  0  0  0  0  0  0  0
   20.8020   -5.0382  -17.2393 N   0  0  0  0  0  0  0  0  0  0  0  0
   20.1390   -2.7810  -16.9525 C   0  0  0  0  0  0  0  0  0  0  0  0
   19.4386   -1.6058  -17.1866 O   0  0  0  0  0  0  0  0  0  0  0  0
   21.1685   -2.7058  -16.2434 O   0  0  0  0  0  0  0  0  0  0  0  0
  2  1  1  1
  3  2  1  0
  4  5  2  0
  4  3  1  0
  6  5  1  0
  7  8  2  0
  7  6  1  0
  8  4  1  0
  9  2  1  0
 10  9  2  0
 11 12  1  0
 13 12  1  6
 13 15  1  0
 13 14  1  0
 14  9  1  0
 15 21  1  0
 16 15  2  0
 18 19  1  0
 18 17  1  6
 20 18  1  0
 20 22  1  0
 20 21  1  1
 22 24  2  0
 22 23  1  0
M  END
$$$$
