HST.pdb
     RDKit          3D

 24 24  0  0  1  0  0  0  0  0999 V2000
   22.9739  -16.8730  -17.4330 N   0  0  0  0  0  0  0  0  0  0  0  0
   21.9762  -16.2715  -16.6056 C   0  0  1  0  0  0  0  0  0  0  0  0
   22.2561  -16.5558  -15.1454 C   0  0  0  0  0  0  0  0  0  0  0  0
   22.2484  -17.9992  -14.8394 C   0  0  0  0  0  0  0  0  0  0  0  0
   21.1549  -18.7708  -14.5804 C   0  0  0  0  0  0  0  0  0  0  0  0
   21.5870  -20.0394  -14.3499 N   0  0  0  0  0  0  0  0  0  0  0  0
   22.9383  -20.0390  -14.4682 C   0  0  0  0  0  0  0  0  0  0  0  0
   23.3332  -18.7816  -14.7688 N   0  0  0  0  0  0  0  0  0  0  0  0
   21.8730  -14.8150  -16.7650 C   0  0  0  0  0  0  0  0  0  0  0  0
   22.9482  -14.1307  -16.7256 O   0  0  0  0  0  0  0  0  0  0  0  0
   18.2969  -12.6848  -17.4174 O   0  0  0  0  0  0  0  0  0  0  0  0
   19.4650  -12.2774  -18.0864 C   0  0  0  0  0  0  0  0  0  0  0  0
   20.6545  -12.6588  -17.2284 C   0  0  2  0  0  0  0  0  0  0  0  0
   20.6827  -14.0823  -16.9609 N   0  0  0  0  0  0  0  0  0  0  0  0
   20.6555  -11.8631  -15.9747 C   0  0  0  0  0  0  0  0  0  0  0  0
   20.0967  -12.2916  -14.9274 O   0  0  0  0  0  0  0  0  0  0  0  0
   23.7494  -10.4289  -14.1841 C   0  0  0  0  0  0  0  0  0  0  0  0
   22.8264   -9.2911  -14.5531 C   0  0  1  0  0  0  0  0  0  0  0  0
   23.2963   -8.7713  -15.7655 O   0  0  0  0  0  0  0  0  0  0  0  0
   21.4094   -9.7769  -14.7816 C   0  0  2  0  0  0  0  0  0  0  0  0
   21.2973  -10.5973  -15.9552 N   0  0  0  0  0  0  0  0  0  0  0  0
   20.5422   -8.5909  -14.9450 C   0  0  0  0  0  0  0  0  0  0  0  0
   20.2574   -7.6909  -13.9274 O   0  0  0  0  0  0  0  0  0  0  0  0
   20.0270   -8.3742  -16.0657 O   0  0  0  0  0  0  0  0  0  0  0  0
  2  1  1  6
  3  2  1  0
  4  5  2  0
  4  3  1  0
  6  5  1  0
  7  8  2  0
  7  6  1  0
  8  4  1  0
  9  2  1  0
 10  9  2  0
 11 12  1  0
 13 12  1  1
 13 15  1  0
 13 14  1  0
 14  9  1  0
 15 21  1  0
 16 15  2  0
 18 19  1  0
 18 17  1  6
 20 18  1  0
 20 22  1  0
 20 21  1  6
 22 24  2  0
 22 23  1  0
M  END
$$$$
