HST.pdb
     RDKit          3D

 24 24  0  0  1  0  0  0  0  0999 V2000
   18.0029  -11.9503  -17.4220 N   0  0  0  0  0  0  0  0  0  0  0  0
   19.1930  -11.5032  -16.7695 C   0  0  1  0  0  0  0  0  0  0  0  0
   20.3856  -11.6364  -17.6921 C   0  0  0  0  0  0  0  0  0  0  0  0
   20.6835  -13.0414  -18.0309 C   0  0  0  0  0  0  0  0  0  0  0  0
   21.4738  -13.8991  -17.3253 C   0  0  0  0  0  0  0  0  0  0  0  0
   21.4812  -15.0908  -17.9804 N   0  0  0  0  0  0  0  0  0  0  0  0
   20.6984  -14.9580  -19.0801 C   0  0  0  0  0  0  0  0  0  0  0  0
   20.2141  -13.6961  -19.1009 N   0  0  0  0  0  0  0  0  0  0  0  0
   19.1324  -10.1070  -16.3172 C   0  0  0  0  0  0  0  0  0  0  0  0
   18.8870   -9.2063  -17.1858 O   0  0  0  0  0  0  0  0  0  0  0  0
   18.9908   -8.9334  -12.3441 O   0  0  0  0  0  0  0  0  0  0  0  0
   18.4079   -8.1096  -13.3236 C   0  0  0  0  0  0  0  0  0  0  0  0
   19.2073   -8.2628  -14.6020 C   0  0  2  0  0  0  0  0  0  0  0  0
   19.3216   -9.6527  -14.9944 N   0  0  0  0  0  0  0  0  0  0  0  0
   20.5384   -7.6221  -14.4513 C   0  0  0  0  0  0  0  0  0  0  0  0
   21.5259   -8.2640  -13.9979 O   0  0  0  0  0  0  0  0  0  0  0  0
   22.3095   -5.4697  -17.2521 C   0  0  0  0  0  0  0  0  0  0  0  0
   22.1622   -4.6680  -15.9800 C   0  0  1  0  0  0  0  0  0  0  0  0
   21.0074   -3.8900  -16.1283 O   0  0  0  0  0  0  0  0  0  0  0  0
   21.9574   -5.5669  -14.7774 C   0  0  2  0  0  0  0  0  0  0  0  0
   20.7017   -6.2626  -14.8247 N   0  0  0  0  0  0  0  0  0  0  0  0
   21.9876   -4.7204  -13.5658 C   0  0  0  0  0  0  0  0  0  0  0  0
   23.1204   -4.0637  -13.1053 O   0  0  0  0  0  0  0  0  0  0  0  0
   20.9326   -4.5796  -12.9059 O   0  0  0  0  0  0  0  0  0  0  0  0
  2  1  1  6
  3  2  1  0
  4  5  2  0
  4  3  1  0
  6  5  1  0
  7  8  2  0
  7  6  1  0
  8  4  1  0
  9  2  1  0
 10  9  2  0
 11 12  1  0
 13 12  1  1
 13 15  1  0
 13 14  1  0
 14  9  1  0
 15 21  1  0
 16 15  2  0
 18 19  1  0
 18 17  1  6
 20 18  1  0
 20 22  1  0
 20 21  1  6
 22 24  2  0
 22 23  1  0
M  END
$$$$
