HST.pdb
     RDKit          3D

 24 24  0  0  1  0  0  0  0  0999 V2000
   27.1499  -18.8420  -16.6439 N   0  0  0  0  0  0  0  0  0  0  0  0
   26.6456  -18.5921  -15.3304 C   0  0  1  0  0  0  0  0  0  0  0  0
   25.9287  -17.2598  -15.2822 C   0  0  0  0  0  0  0  0  0  0  0  0
   26.8280  -16.1239  -15.5621 C   0  0  0  0  0  0  0  0  0  0  0  0
   28.1670  -16.1874  -15.8101 C   0  0  0  0  0  0  0  0  0  0  0  0
   28.6115  -14.9189  -16.0166 N   0  0  0  0  0  0  0  0  0  0  0  0
   27.5468  -14.0874  -15.8946 C   0  0  0  0  0  0  0  0  0  0  0  0
   26.4576  -14.8380  -15.6156 N   0  0  0  0  0  0  0  0  0  0  0  0
   25.7124  -19.6189  -14.8484 C   0  0  0  0  0  0  0  0  0  0  0  0
   24.8463  -20.0724  -15.6670 O   0  0  0  0  0  0  0  0  0  0  0  0
   25.2635  -20.6792  -10.8879 O   0  0  0  0  0  0  0  0  0  0  0  0
   25.0985  -21.7571  -11.7761 C   0  0  0  0  0  0  0  0  0  0  0  0
   24.7426  -21.1935  -13.1371 C   0  0  2  0  0  0  0  0  0  0  0  0
   25.6763  -20.1645  -13.5473 N   0  0  0  0  0  0  0  0  0  0  0  0
   23.3430  -20.6972  -13.1339 C   0  0  0  0  0  0  0  0  0  0  0  0
   23.0715  -19.5074  -12.8126 O   0  0  0  0  0  0  0  0  0  0  0  0
   18.7878  -21.1700  -14.8635 C   0  0  0  0  0  0  0  0  0  0  0  0
   20.2553  -21.5291  -14.8628 C   0  0  1  0  0  0  0  0  0  0  0  0
   20.8626  -20.7343  -15.8427 O   0  0  0  0  0  0  0  0  0  0  0  0
   20.9076  -21.1982  -13.5357 C   0  0  2  0  0  0  0  0  0  0  0  0
   22.2922  -21.5785  -13.4993 N   0  0  0  0  0  0  0  0  0  0  0  0
   20.1838  -21.9333  -12.4768 C   0  0  0  0  0  0  0  0  0  0  0  0
   19.2010  -21.3711  -11.6741 O   0  0  0  0  0  0  0  0  0  0  0  0
   20.4661  -23.1379  -12.2825 O   0  0  0  0  0  0  0  0  0  0  0  0
  2  1  1  6
  3  2  1  0
  4  5  2  0
  4  3  1  0
  6  5  1  0
  7  8  2  0
  7  6  1  0
  8  4  1  0
  9  2  1  0
 10  9  2  0
 11 12  1  0
 13 12  1  1
 13 15  1  0
 13 14  1  0
 14  9  1  0
 15 21  1  0
 16 15  2  0
 18 19  1  0
 18 17  1  1
 20 18  1  0
 20 22  1  0
 20 21  1  6
 22 24  2  0
 22 23  1  0
M  END
$$$$
