HST.pdb
     RDKit          3D

 24 24  0  0  1  0  0  0  0  0999 V2000
   17.7643  -14.7257  -16.9769 N   0  0  0  0  0  0  0  0  0  0  0  0
   17.2873  -13.3796  -17.0258 C   0  0  1  0  0  0  0  0  0  0  0  0
   16.4478  -13.0697  -15.8050 C   0  0  0  0  0  0  0  0  0  0  0  0
   15.1215  -13.7146  -15.8529 C   0  0  0  0  0  0  0  0  0  0  0  0
   14.3423  -13.8932  -16.9570 C   0  0  0  0  0  0  0  0  0  0  0  0
   13.2050  -14.5270  -16.5645 N   0  0  0  0  0  0  0  0  0  0  0  0
   13.2924  -14.7330  -15.2267 C   0  0  0  0  0  0  0  0  0  0  0  0
   14.4728  -14.2303  -14.8007 N   0  0  0  0  0  0  0  0  0  0  0  0
   18.3557  -12.3743  -17.0997 C   0  0  0  0  0  0  0  0  0  0  0  0
   19.4121  -12.5718  -16.4134 O   0  0  0  0  0  0  0  0  0  0  0  0
   18.3094   -9.0003  -19.5829 O   0  0  0  0  0  0  0  0  0  0  0  0
   19.5485   -9.5819  -19.2601 C   0  0  0  0  0  0  0  0  0  0  0  0
   19.4200  -10.2347  -17.8985 C   0  0  2  0  0  0  0  0  0  0  0  0
   18.3315  -11.1902  -17.8673 N   0  0  0  0  0  0  0  0  0  0  0  0
   19.2717   -9.1968  -16.8469 C   0  0  0  0  0  0  0  0  0  0  0  0
   18.1341   -8.7734  -16.5014 O   0  0  0  0  0  0  0  0  0  0  0  0
   20.7195   -9.2441  -13.2665 C   0  0  0  0  0  0  0  0  0  0  0  0
   21.2677   -8.0436  -14.0022 C   0  0  1  0  0  0  0  0  0  0  0  0
   22.5230   -8.4166  -14.4979 O   0  0  0  0  0  0  0  0  0  0  0  0
   20.3987   -7.6739  -15.1873 C   0  0  2  0  0  0  0  0  0  0  0  0
   20.4316   -8.6722  -16.2195 N   0  0  0  0  0  0  0  0  0  0  0  0
   20.9025   -6.3992  -15.7412 C   0  0  0  0  0  0  0  0  0  0  0  0
   20.8658   -5.1891  -15.0624 O   0  0  0  0  0  0  0  0  0  0  0  0
   21.3947   -6.3984  -16.8927 O   0  0  0  0  0  0  0  0  0  0  0  0
  2  1  1  1
  3  2  1  0
  4  5  2  0
  4  3  1  0
  6  5  1  0
  7  8  2  0
  7  6  1  0
  8  4  1  0
  9  2  1  0
 10  9  2  0
 11 12  1  0
 13 12  1  6
 13 15  1  0
 13 14  1  0
 14  9  1  0
 15 21  1  0
 16 15  2  0
 18 19  1  0
 18 17  1  6
 20 18  1  0
 20 22  1  0
 20 21  1  6
 22 24  2  0
 22 23  1  0
M  END
$$$$
