HST.pdb
     RDKit          3D

 24 24  0  0  1  0  0  0  0  0999 V2000
   18.7938  -11.3780  -17.5401 N   0  0  0  0  0  0  0  0  0  0  0  0
   18.0387  -10.5958  -16.6127 C   0  0  1  0  0  0  0  0  0  0  0  0
   18.1187  -11.1951  -15.2250 C   0  0  0  0  0  0  0  0  0  0  0  0
   17.5025  -12.5338  -15.1514 C   0  0  0  0  0  0  0  0  0  0  0  0
   16.1925  -12.8403  -15.3709 C   0  0  0  0  0  0  0  0  0  0  0  0
   16.0460  -14.1816  -15.2019 N   0  0  0  0  0  0  0  0  0  0  0  0
   17.2624  -14.6887  -14.8809 C   0  0  0  0  0  0  0  0  0  0  0  0
   18.1487  -13.6683  -14.8528 N   0  0  0  0  0  0  0  0  0  0  0  0
   18.4782   -9.1973  -16.5210 C   0  0  0  0  0  0  0  0  0  0  0  0
   19.7291   -8.9675  -16.4300 O   0  0  0  0  0  0  0  0  0  0  0  0
   17.5959   -4.4110  -16.6998 O   0  0  0  0  0  0  0  0  0  0  0  0
   17.0201   -5.6926  -16.6368 C   0  0  0  0  0  0  0  0  0  0  0  0
   18.1379   -6.7013  -16.4649 C   0  0  2  0  0  0  0  0  0  0  0  0
   17.6411   -8.0609  -16.5233 N   0  0  0  0  0  0  0  0  0  0  0  0
   18.8733   -6.4379  -15.2019 C   0  0  0  0  0  0  0  0  0  0  0  0
   18.4101   -6.8041  -14.0866 O   0  0  0  0  0  0  0  0  0  0  0  0
   22.9892   -6.3426  -15.2466 C   0  0  0  0  0  0  0  0  0  0  0  0
   22.1252   -6.4322  -14.0104 C   0  0  1  0  0  0  0  0  0  0  0  0
   22.9172   -6.0077  -12.9365 O   0  0  0  0  0  0  0  0  0  0  0  0
   20.9333   -5.5005  -14.0969 C   0  0  2  0  0  0  0  0  0  0  0  0
   20.1202   -5.7617  -15.2516 N   0  0  0  0  0  0  0  0  0  0  0  0
   21.4433   -4.1152  -14.1769 C   0  0  0  0  0  0  0  0  0  0  0  0
   22.1798   -3.4996  -13.1744 O   0  0  0  0  0  0  0  0  0  0  0  0
   21.2023   -3.4458  -15.2076 O   0  0  0  0  0  0  0  0  0  0  0  0
  2  1  1  6
  3  2  1  0
  4  5  2  0
  4  3  1  0
  6  5  1  0
  7  8  2  0
  7  6  1  0
  8  4  1  0
  9  2  1  0
 10  9  2  0
 11 12  1  0
 13 12  1  1
 13 15  1  0
 13 14  1  0
 14  9  1  0
 15 21  1  0
 16 15  2  0
 18 19  1  0
 18 17  1  6
 20 18  1  0
 20 22  1  0
 20 21  1  6
 22 24  2  0
 22 23  1  0
M  END
$$$$
