HST.pdb
     RDKit          3D

 24 24  0  0  1  0  0  0  0  0999 V2000
   21.9540  -10.1737  -16.2668 N   0  0  0  0  0  0  0  0  0  0  0  0
   20.6406  -10.4102  -16.7777 C   0  0  1  0  0  0  0  0  0  0  0  0
   20.4584  -11.8745  -17.1148 C   0  0  0  0  0  0  0  0  0  0  0  0
   21.2370  -12.2824  -18.3000 C   0  0  0  0  0  0  0  0  0  0  0  0
   22.5356  -12.6964  -18.3181 C   0  0  0  0  0  0  0  0  0  0  0  0
   22.8643  -12.9760  -19.6077 N   0  0  0  0  0  0  0  0  0  0  0  0
   21.7696  -12.7328  -20.3708 C   0  0  0  0  0  0  0  0  0  0  0  0
   20.7769  -12.3077  -19.5576 N   0  0  0  0  0  0  0  0  0  0  0  0
   19.5665  -10.0284  -15.8513 C   0  0  0  0  0  0  0  0  0  0  0  0
   19.6727  -10.3851  -14.6317 O   0  0  0  0  0  0  0  0  0  0  0  0
   17.3521   -6.7948  -16.3829 O   0  0  0  0  0  0  0  0  0  0  0  0
   17.4327   -7.3293  -15.0845 C   0  0  0  0  0  0  0  0  0  0  0  0
   17.4424   -8.8404  -15.1989 C   0  0  2  0  0  0  0  0  0  0  0  0
   18.4073   -9.2934  -16.1800 N   0  0  0  0  0  0  0  0  0  0  0  0
   16.0762   -9.3382  -15.5000 C   0  0  0  0  0  0  0  0  0  0  0  0
   15.6546   -9.4146  -16.6871 O   0  0  0  0  0  0  0  0  0  0  0  0
   14.4578  -12.6551  -14.3266 C   0  0  0  0  0  0  0  0  0  0  0  0
   13.6390  -11.4944  -13.8119 C   0  0  1  0  0  0  0  0  0  0  0  0
   14.0647  -11.2547  -12.4996 O   0  0  0  0  0  0  0  0  0  0  0  0
   13.8956  -10.2346  -14.6139 C   0  0  2  0  0  0  0  0  0  0  0  0
   15.2299   -9.7353  -14.4320 N   0  0  0  0  0  0  0  0  0  0  0  0
   12.9359   -9.2044  -14.1631 C   0  0  0  0  0  0  0  0  0  0  0  0
   11.5637   -9.2841  -14.3555 O   0  0  0  0  0  0  0  0  0  0  0  0
   13.3761   -8.1931  -13.5699 O   0  0  0  0  0  0  0  0  0  0  0  0
  2  1  1  1
  3  2  1  0
  4  5  2  0
  4  3  1  0
  6  5  1  0
  7  8  2  0
  7  6  1  0
  8  4  1  0
  9  2  1  0
 10  9  2  0
 11 12  1  0
 13 12  1  6
 13 15  1  0
 13 14  1  0
 14  9  1  0
 15 21  1  0
 16 15  2  0
 18 19  1  0
 18 17  1  6
 20 18  1  0
 20 22  1  0
 20 21  1  1
 22 24  2  0
 22 23  1  0
M  END
$$$$
