PNW.pdb
     RDKit          3D

 30 32  0  0  1  0  0  0  0  0999 V2000
    8.9657  -14.1373   19.0374 N   0  0  0  0  0  0  0  0  0  0  0  0
    7.6591  -14.2884   18.4722 C   0  0  0  0  0  0  0  0  0  0  0  0
    6.7120  -13.4384   19.2494 C   0  0  0  0  0  0  0  0  0  0  0  0
    7.5300  -12.9576   20.4048 C   0  0  0  0  0  0  0  0  0  0  0  0
    8.8198  -13.7268   20.4159 C   0  0  1  0  0  0  0  0  0  0  0  0
    8.8059  -14.8776   21.3354 C   0  0  0  0  0  0  0  0  0  0  0  0
    7.8311  -15.0517   22.0874 O   0  0  0  0  0  0  0  0  0  0  0  0
    9.6527  -18.3510   19.9308 N   0  0  0  0  0  0  0  0  0  0  0  0
   10.8566  -18.4079   20.6635 C   0  0  0  0  0  0  0  0  0  0  0  0
   11.7584  -19.1714   20.1718 O   0  0  0  0  0  0  0  0  0  0  0  0
   11.1788  -17.7021   21.9002 C   0  0  0  0  0  0  0  0  0  0  0  0
   10.0761  -16.7952   22.3998 C   0  0  2  0  0  0  0  0  0  0  0  0
    9.8666  -15.7966   21.3949 N   0  0  0  0  0  0  0  0  0  0  0  0
   10.2168  -16.3237   23.7536 C   0  0  0  0  0  0  0  0  0  0  0  0
   10.9619  -15.3636   24.0309 O   0  0  0  0  0  0  0  0  0  0  0  0
    9.5148  -16.9330   24.8161 N   0  0  0  0  0  0  0  0  0  0  0  0
    9.7888  -16.5937   26.2228 C   0  0  1  0  0  0  0  0  0  0  0  0
    8.4537  -16.5535   26.8932 C   0  0  0  0  0  0  0  0  0  0  0  0
    7.5505  -15.5355   26.3210 C   0  0  0  0  0  0  0  0  0  0  0  0
    6.5006  -15.8108   25.4439 C   0  0  0  0  0  0  0  0  0  0  0  0
    5.8622  -14.6695   25.1611 N   0  0  0  0  0  0  0  0  0  0  0  0
    6.4372  -13.6453   25.8076 C   0  0  0  0  0  0  0  0  0  0  0  0
    6.2080  -12.2861   25.8745 C   0  0  0  0  0  0  0  0  0  0  0  0
    7.0206  -11.4907   26.6487 C   0  0  0  0  0  0  0  0  0  0  0  0
    8.0752  -12.0163   27.3725 C   0  0  0  0  0  0  0  0  0  0  0  0
    8.2984  -13.3823   27.3004 C   0  0  0  0  0  0  0  0  0  0  0  0
    7.4900  -14.1846   26.5301 C   0  0  0  0  0  0  0  0  0  0  0  0
   10.7927  -17.4807   26.7595 C   0  0  0  0  0  0  0  0  0  0  0  0
   11.2114  -17.3103   27.9632 O   0  0  0  0  0  0  0  0  0  0  0  0
   11.3856  -18.5441   26.1101 O   0  0  0  0  0  0  0  0  0  0  0  0
  1  5  1  0
  2  1  1  0
  2  3  1  0
  3  4  1  0
  5  4  1  0
  5  6  1  1
  6  7  2  0
  8  9  1  0
  9 10  2  0
  9 11  1  0
 12 11  1  6
 12 14  1  0
 12 13  1  0
 13  6  1  0
 14 16  1  0
 15 14  2  0
 16 17  1  0
 17 28  1  0
 18 19  1  0
 17 18  1  1
 19 27  1  0
 20 21  1  0
 20 19  2  0
 21 22  1  0
 22 27  2  0
 22 23  1  0
 23 24  2  0
 24 25  1  0
 26 25  2  0
 27 26  1  0
 28 29  2  0
 28 30  1  0
M  END
$$$$
