PNW.pdb
     RDKit          3D

 30 32  0  0  1  0  0  0  0  0999 V2000
    9.3977  -14.0134   19.2486 N   0  0  0  0  0  0  0  0  0  0  0  0
    8.2735  -14.2106   18.3846 C   0  0  0  0  0  0  0  0  0  0  0  0
    7.1054  -13.4871   18.9640 C   0  0  0  0  0  0  0  0  0  0  0  0
    7.5926  -13.0392   20.3045 C   0  0  0  0  0  0  0  0  0  0  0  0
    8.9048  -13.7174   20.5752 C   0  0  1  0  0  0  0  0  0  0  0  0
    8.7759  -14.9318   21.3991 C   0  0  0  0  0  0  0  0  0  0  0  0
    7.7564  -15.0998   22.0907 O   0  0  0  0  0  0  0  0  0  0  0  0
    9.4704  -18.3275   19.8969 N   0  0  0  0  0  0  0  0  0  0  0  0
   10.6623  -18.4835   20.6345 C   0  0  0  0  0  0  0  0  0  0  0  0
   11.5440  -19.2367   20.0928 O   0  0  0  0  0  0  0  0  0  0  0  0
   10.9927  -17.8889   21.9263 C   0  0  0  0  0  0  0  0  0  0  0  0
    9.9548  -16.9175   22.4434 C   0  0  2  0  0  0  0  0  0  0  0  0
    9.7749  -15.9187   21.4329 N   0  0  0  0  0  0  0  0  0  0  0  0
   10.1561  -16.4413   23.7878 C   0  0  0  0  0  0  0  0  0  0  0  0
   10.8702  -15.4469   24.0226 O   0  0  0  0  0  0  0  0  0  0  0  0
    9.5509  -17.0847   24.8890 N   0  0  0  0  0  0  0  0  0  0  0  0
    9.7955  -16.6474   26.2738 C   0  0  1  0  0  0  0  0  0  0  0  0
    8.4530  -16.6225   26.9299 C   0  0  0  0  0  0  0  0  0  0  0  0
    7.5532  -15.5973   26.3654 C   0  0  0  0  0  0  0  0  0  0  0  0
    6.4680  -15.8681   25.5308 C   0  0  0  0  0  0  0  0  0  0  0  0
    5.8456  -14.7192   25.2436 N   0  0  0  0  0  0  0  0  0  0  0  0
    6.4647  -13.6941   25.8466 C   0  0  0  0  0  0  0  0  0  0  0  0
    6.2677  -12.3289   25.8899 C   0  0  0  0  0  0  0  0  0  0  0  0
    7.1235  -11.5352   26.6178 C   0  0  0  0  0  0  0  0  0  0  0  0
    8.1906  -12.0684   27.3174 C   0  0  0  0  0  0  0  0  0  0  0  0
    8.3812  -13.4404   27.2692 C   0  0  0  0  0  0  0  0  0  0  0  0
    7.5295  -14.2410   26.5453 C   0  0  0  0  0  0  0  0  0  0  0  0
   10.8301  -17.4559   26.8729 C   0  0  0  0  0  0  0  0  0  0  0  0
   11.2996  -18.4647   26.2286 O   0  0  0  0  0  0  0  0  0  0  0  0
   11.4094  -17.2689   28.1113 O   0  0  0  0  0  0  0  0  0  0  0  0
  1  5  1  0
  2  1  1  0
  2  3  1  0
  3  4  1  0
  5  4  1  0
  5  6  1  1
  6  7  2  0
  8  9  1  0
  9 10  2  0
  9 11  1  0
 12 11  1  6
 12 14  1  0
 12 13  1  0
 13  6  1  0
 14 16  1  0
 15 14  2  0
 16 17  1  0
 17 28  1  0
 18 19  1  0
 17 18  1  1
 19 27  1  0
 20 21  1  0
 20 19  2  0
 21 22  1  0
 22 27  2  0
 22 23  1  0
 23 24  2  0
 24 25  1  0
 26 25  2  0
 27 26  1  0
 28 29  2  0
 28 30  1  0
M  END
$$$$
