PNW.pdb
     RDKit          3D

 30 32  0  0  1  0  0  0  0  0999 V2000
    9.1783  -13.8665   19.6913 N   0  0  0  0  0  0  0  0  0  0  0  0
    8.3024  -14.4281   18.7081 C   0  0  0  0  0  0  0  0  0  0  0  0
    6.8969  -14.1383   19.1134 C   0  0  0  0  0  0  0  0  0  0  0  0
    7.0338  -13.5542   20.4828 C   0  0  0  0  0  0  0  0  0  0  0  0
    8.4516  -13.7539   20.9361 C   0  0  1  0  0  0  0  0  0  0  0  0
    8.6307  -14.9420   21.7884 C   0  0  0  0  0  0  0  0  0  0  0  0
    7.7570  -15.2376   22.6222 O   0  0  0  0  0  0  0  0  0  0  0  0
   11.3040  -19.9346   22.6626 N   0  0  0  0  0  0  0  0  0  0  0  0
   11.8238  -18.6291   22.7830 C   0  0  0  0  0  0  0  0  0  0  0  0
   12.7717  -18.4959   23.6325 O   0  0  0  0  0  0  0  0  0  0  0  0
   11.4043  -17.4346   22.0559 C   0  0  0  0  0  0  0  0  0  0  0  0
   10.1898  -16.7489   22.6416 C   0  0  2  0  0  0  0  0  0  0  0  0
    9.7664  -15.7631   21.6929 N   0  0  0  0  0  0  0  0  0  0  0  0
   10.3142  -16.3122   24.0086 C   0  0  0  0  0  0  0  0  0  0  0  0
   11.0290  -15.3380   24.3147 O   0  0  0  0  0  0  0  0  0  0  0  0
    9.6301  -16.9731   25.0517 N   0  0  0  0  0  0  0  0  0  0  0  0
    9.8281  -16.6062   26.4642 C   0  0  1  0  0  0  0  0  0  0  0  0
    8.4587  -16.5500   27.0599 C   0  0  0  0  0  0  0  0  0  0  0  0
    7.5808  -15.5647   26.3982 C   0  0  0  0  0  0  0  0  0  0  0  0
    6.5748  -15.8863   25.4861 C   0  0  0  0  0  0  0  0  0  0  0  0
    5.9474  -14.7628   25.1198 N   0  0  0  0  0  0  0  0  0  0  0  0
    6.4879  -13.7063   25.7439 C   0  0  0  0  0  0  0  0  0  0  0  0
    6.2519  -12.3467   25.7356 C   0  0  0  0  0  0  0  0  0  0  0  0
    7.0243  -11.5117   26.5092 C   0  0  0  0  0  0  0  0  0  0  0  0
    8.0447  -11.9974   27.3062 C   0  0  0  0  0  0  0  0  0  0  0  0
    8.2750  -13.3641   27.3094 C   0  0  0  0  0  0  0  0  0  0  0  0
    7.5065  -14.2058   26.5402 C   0  0  0  0  0  0  0  0  0  0  0  0
   10.7987  -17.4842   27.0724 C   0  0  0  0  0  0  0  0  0  0  0  0
   11.2076  -18.5199   26.4296 O   0  0  0  0  0  0  0  0  0  0  0  0
   11.3736  -17.3407   28.3186 O   0  0  0  0  0  0  0  0  0  0  0  0
  1  5  1  0
  2  1  1  0
  2  3  1  0
  3  4  1  0
  5  4  1  0
  5  6  1  1
  6  7  2  0
  8  9  1  0
  9 10  2  0
  9 11  1  0
 12 11  1  6
 12 14  1  0
 12 13  1  0
 13  6  1  0
 14 16  1  0
 15 14  2  0
 16 17  1  0
 17 28  1  0
 18 19  1  0
 17 18  1  1
 19 27  1  0
 20 21  1  0
 20 19  2  0
 21 22  1  0
 22 27  2  0
 22 23  1  0
 23 24  2  0
 24 25  1  0
 26 25  2  0
 27 26  1  0
 28 29  2  0
 28 30  1  0
M  END
$$$$
