PNW.pdb
     RDKit          3D

 30 32  0  0  1  0  0  0  0  0999 V2000
    9.5035  -13.7928   19.5336 N   0  0  0  0  0  0  0  0  0  0  0  0
    8.7705  -14.1798   18.3665 C   0  0  0  0  0  0  0  0  0  0  0  0
    7.3184  -13.9749   18.6366 C   0  0  0  0  0  0  0  0  0  0  0  0
    7.2704  -13.6385   20.0925 C   0  0  0  0  0  0  0  0  0  0  0  0
    8.6274  -13.9047   20.6783 C   0  0  1  0  0  0  0  0  0  0  0  0
    8.7350  -15.2223   21.3281 C   0  0  0  0  0  0  0  0  0  0  0  0
    7.7510  -15.6969   21.9220 O   0  0  0  0  0  0  0  0  0  0  0  0
    9.7547  -18.8902   19.1431 N   0  0  0  0  0  0  0  0  0  0  0  0
   10.7351  -18.0679   19.7362 C   0  0  0  0  0  0  0  0  0  0  0  0
   11.3524  -17.2879   18.9307 O   0  0  0  0  0  0  0  0  0  0  0  0
   11.1148  -18.0117   21.1448 C   0  0  0  0  0  0  0  0  0  0  0  0
   10.1787  -17.1923   22.0052 C   0  0  2  0  0  0  0  0  0  0  0  0
    9.9230  -15.9713   21.3017 N   0  0  0  0  0  0  0  0  0  0  0  0
   10.5480  -17.0687   23.3920 C   0  0  0  0  0  0  0  0  0  0  0  0
   11.2772  -17.9144   23.9459 O   0  0  0  0  0  0  0  0  0  0  0  0
   10.0965  -15.9837   24.1743 N   0  0  0  0  0  0  0  0  0  0  0  0
   10.4047  -15.8816   25.6108 C   0  0  1  0  0  0  0  0  0  0  0  0
    9.9451  -14.5209   26.0240 C   0  0  0  0  0  0  0  0  0  0  0  0
    8.4764  -14.3742   25.9966 C   0  0  0  0  0  0  0  0  0  0  0  0
    7.5779  -15.4275   25.8215 C   0  0  0  0  0  0  0  0  0  0  0  0
    6.3306  -14.9491   25.8945 N   0  0  0  0  0  0  0  0  0  0  0  0
    6.3543  -13.6259   26.1093 C   0  0  0  0  0  0  0  0  0  0  0  0
    5.3924  -12.6470   26.2545 C   0  0  0  0  0  0  0  0  0  0  0  0
    5.7693  -11.3396   26.4563 C   0  0  0  0  0  0  0  0  0  0  0  0
    7.1000  -10.9686   26.5190 C   0  0  0  0  0  0  0  0  0  0  0  0
    8.0599  -11.9576   26.3729 C   0  0  0  0  0  0  0  0  0  0  0  0
    7.6916  -13.2671   26.1723 C   0  0  0  0  0  0  0  0  0  0  0  0
    9.8699  -17.0226   26.3143 C   0  0  0  0  0  0  0  0  0  0  0  0
    9.0429  -17.8054   25.7171 O   0  0  0  0  0  0  0  0  0  0  0  0
   10.1530  -17.3985   27.6115 O   0  0  0  0  0  0  0  0  0  0  0  0
  1  5  1  0
  2  1  1  0
  2  3  1  0
  3  4  1  0
  5  4  1  0
  5  6  1  6
  6  7  2  0
  8  9  1  0
  9 10  2  0
  9 11  1  0
 12 11  1  6
 12 14  1  0
 12 13  1  0
 13  6  1  0
 14 16  1  0
 15 14  2  0
 16 17  1  0
 17 28  1  0
 18 19  1  0
 17 18  1  1
 19 27  1  0
 20 21  1  0
 20 19  2  0
 21 22  1  0
 22 27  2  0
 22 23  1  0
 23 24  2  0
 24 25  1  0
 26 25  2  0
 27 26  1  0
 28 29  2  0
 28 30  1  0
M  END
$$$$
