PNW.pdb
     RDKit          3D

 30 32  0  0  1  0  0  0  0  0999 V2000
    9.4774  -14.0573   18.4493 N   0  0  0  0  0  0  0  0  0  0  0  0
    8.3547  -14.4087   17.6337 C   0  0  0  0  0  0  0  0  0  0  0  0
    7.1765  -13.6193   18.0943 C   0  0  0  0  0  0  0  0  0  0  0  0
    7.6592  -12.9533   19.3426 C   0  0  0  0  0  0  0  0  0  0  0  0
    8.9827  -13.5587   19.7130 C   0  0  1  0  0  0  0  0  0  0  0  0
    8.8751  -14.6259   20.7227 C   0  0  0  0  0  0  0  0  0  0  0  0
    8.1446  -14.4614   21.7154 O   0  0  0  0  0  0  0  0  0  0  0  0
    9.8695  -20.4454   21.6974 N   0  0  0  0  0  0  0  0  0  0  0  0
   10.5191  -19.2000   21.8248 C   0  0  0  0  0  0  0  0  0  0  0  0
   11.3127  -19.0989   22.8238 O   0  0  0  0  0  0  0  0  0  0  0  0
   10.3860  -18.0348   20.9554 C   0  0  0  0  0  0  0  0  0  0  0  0
    9.7026  -16.8526   21.6062 C   0  0  2  0  0  0  0  0  0  0  0  0
    9.5763  -15.8372   20.6041 N   0  0  0  0  0  0  0  0  0  0  0  0
   10.2412  -16.4377   22.8760 C   0  0  0  0  0  0  0  0  0  0  0  0
   11.2034  -15.6482   22.9446 O   0  0  0  0  0  0  0  0  0  0  0  0
    9.6977  -16.9110   24.0899 N   0  0  0  0  0  0  0  0  0  0  0  0
   10.1523  -16.4013   25.3947 C   0  0  1  0  0  0  0  0  0  0  0  0
    9.8359  -14.9408   25.3873 C   0  0  0  0  0  0  0  0  0  0  0  0
    8.3953  -14.6611   25.5488 C   0  0  0  0  0  0  0  0  0  0  0  0
    7.3778  -15.5896   25.3252 C   0  0  0  0  0  0  0  0  0  0  0  0
    6.2013  -15.0190   25.6085 N   0  0  0  0  0  0  0  0  0  0  0  0
    6.3857  -13.7531   26.0100 C   0  0  0  0  0  0  0  0  0  0  0  0
    5.5515  -12.7271   26.4048 C   0  0  0  0  0  0  0  0  0  0  0  0
    6.0823  -11.5062   26.7511 C   0  0  0  0  0  0  0  0  0  0  0  0
    7.4444  -11.2699   26.7156 C   0  0  0  0  0  0  0  0  0  0  0  0
    8.2754  -12.3056   26.3185 C   0  0  0  0  0  0  0  0  0  0  0  0
    7.7530  -13.5295   25.9722 C   0  0  0  0  0  0  0  0  0  0  0  0
    9.6078  -17.2097   26.4590 C   0  0  0  0  0  0  0  0  0  0  0  0
    9.9391  -16.9622   27.6765 O   0  0  0  0  0  0  0  0  0  0  0  0
    8.7291  -18.2653   26.3257 O   0  0  0  0  0  0  0  0  0  0  0  0
  1  5  1  0
  2  1  1  0
  2  3  1  0
  3  4  1  0
  5  4  1  0
  5  6  1  1
  6  7  2  0
  8  9  1  0
  9 10  2  0
  9 11  1  0
 12 11  1  6
 12 14  1  0
 12 13  1  0
 13  6  1  0
 14 16  1  0
 15 14  2  0
 16 17  1  0
 17 28  1  0
 18 19  1  0
 17 18  1  1
 19 27  1  0
 20 21  1  0
 20 19  2  0
 21 22  1  0
 22 27  2  0
 22 23  1  0
 23 24  2  0
 24 25  1  0
 26 25  2  0
 27 26  1  0
 28 29  2  0
 28 30  1  0
M  END
$$$$
