PNW.pdb
     RDKit          3D

 30 32  0  0  1  0  0  0  0  0999 V2000
    9.2351  -14.4312   18.4306 N   0  0  0  0  0  0  0  0  0  0  0  0
    7.9569  -14.4875   17.7885 C   0  0  0  0  0  0  0  0  0  0  0  0
    7.1428  -13.3325   18.2646 C   0  0  0  0  0  0  0  0  0  0  0  0
    7.9701  -12.7405   19.3601 C   0  0  0  0  0  0  0  0  0  0  0  0
    9.0914  -13.6919   19.6648 C   0  0  1  0  0  0  0  0  0  0  0  0
    8.8120  -14.5773   20.8085 C   0  0  0  0  0  0  0  0  0  0  0  0
    8.4495  -14.0861   21.8917 O   0  0  0  0  0  0  0  0  0  0  0  0
    6.5537  -18.7311   22.1594 N   0  0  0  0  0  0  0  0  0  0  0  0
    7.6967  -19.0921   21.4162 C   0  0  0  0  0  0  0  0  0  0  0  0
    7.6581  -20.2574   20.8884 O   0  0  0  0  0  0  0  0  0  0  0  0
    8.8977  -18.2939   21.1884 C   0  0  0  0  0  0  0  0  0  0  0  0
    8.8454  -16.9104   21.7978 C   0  0  2  0  0  0  0  0  0  0  0  0
    8.9420  -15.9731   20.7194 N   0  0  0  0  0  0  0  0  0  0  0  0
    9.7173  -16.6870   22.9224 C   0  0  0  0  0  0  0  0  0  0  0  0
   10.9401  -16.5015   22.7671 O   0  0  0  0  0  0  0  0  0  0  0  0
    9.2172  -16.6700   24.2425 N   0  0  0  0  0  0  0  0  0  0  0  0
   10.0946  -16.4353   25.4017 C   0  0  1  0  0  0  0  0  0  0  0  0
    9.8800  -15.0068   25.7847 C   0  0  0  0  0  0  0  0  0  0  0  0
    8.4573  -14.6721   25.9933 C   0  0  0  0  0  0  0  0  0  0  0  0
    7.4231  -15.6074   26.0482 C   0  0  0  0  0  0  0  0  0  0  0  0
    6.2739  -14.9679   26.2942 N   0  0  0  0  0  0  0  0  0  0  0  0
    6.4924  -13.6498   26.4053 C   0  0  0  0  0  0  0  0  0  0  0  0
    5.6945  -12.5482   26.6381 C   0  0  0  0  0  0  0  0  0  0  0  0
    6.2539  -11.2921   26.6784 C   0  0  0  0  0  0  0  0  0  0  0  0
    7.6096  -11.0945   26.4901 C   0  0  0  0  0  0  0  0  0  0  0  0
    8.4042  -12.2059   26.2574 C   0  0  0  0  0  0  0  0  0  0  0  0
    7.8531  -13.4650   26.2170 C   0  0  0  0  0  0  0  0  0  0  0  0
    9.8718  -17.4489   26.4046 C   0  0  0  0  0  0  0  0  0  0  0  0
    8.9216  -18.3005   26.2455 O   0  0  0  0  0  0  0  0  0  0  0  0
   10.5902  -17.6288   27.5690 O   0  0  0  0  0  0  0  0  0  0  0  0
  1  5  1  0
  2  1  1  0
  2  3  1  0
  3  4  1  0
  5  4  1  0
  5  6  1  1
  6  7  2  0
  8  9  1  0
  9 10  2  0
  9 11  1  0
 12 11  1  6
 12 14  1  0
 12 13  1  0
 13  6  1  0
 14 16  1  0
 15 14  2  0
 16 17  1  0
 17 28  1  0
 18 19  1  0
 17 18  1  1
 19 27  1  0
 20 21  1  0
 20 19  2  0
 21 22  1  0
 22 27  2  0
 22 23  1  0
 23 24  2  0
 24 25  1  0
 26 25  2  0
 27 26  1  0
 28 29  2  0
 28 30  1  0
M  END
$$$$
