PNW.pdb
     RDKit          3D

 30 32  0  0  1  0  0  0  0  0999 V2000
    9.1691  -14.1505   19.1304 N   0  0  0  0  0  0  0  0  0  0  0  0
    7.9229  -14.3942   18.4696 C   0  0  0  0  0  0  0  0  0  0  0  0
    6.8232  -13.9027   19.3487 C   0  0  0  0  0  0  0  0  0  0  0  0
    7.5173  -13.5509   20.6253 C   0  0  0  0  0  0  0  0  0  0  0  0
    8.9223  -14.0763   20.5530 C   0  0  1  0  0  0  0  0  0  0  0  0
    9.0919  -15.3834   21.2109 C   0  0  0  0  0  0  0  0  0  0  0  0
    8.1009  -15.9662   21.6847 O   0  0  0  0  0  0  0  0  0  0  0  0
   10.9557  -18.6709   18.9209 N   0  0  0  0  0  0  0  0  0  0  0  0
   11.6524  -17.8019   19.7860 C   0  0  0  0  0  0  0  0  0  0  0  0
   12.2464  -16.8234   19.2134 O   0  0  0  0  0  0  0  0  0  0  0  0
   11.7669  -17.8966   21.2384 C   0  0  0  0  0  0  0  0  0  0  0  0
   10.6333  -17.2373   21.9923 C   0  0  2  0  0  0  0  0  0  0  0  0
   10.3474  -16.0031   21.3245 N   0  0  0  0  0  0  0  0  0  0  0  0
   10.7855  -17.1726   23.4232 C   0  0  0  0  0  0  0  0  0  0  0  0
   11.3384  -18.0919   24.0579 O   0  0  0  0  0  0  0  0  0  0  0  0
   10.3131  -16.0640   24.1587 N   0  0  0  0  0  0  0  0  0  0  0  0
   10.3766  -16.0246   25.6295 C   0  0  1  0  0  0  0  0  0  0  0  0
    9.9775  -14.6360   26.0113 C   0  0  0  0  0  0  0  0  0  0  0  0
    8.5168  -14.4247   25.9768 C   0  0  0  0  0  0  0  0  0  0  0  0
    7.5832  -15.3996   25.6226 C   0  0  0  0  0  0  0  0  0  0  0  0
    6.3538  -14.8856   25.7430 N   0  0  0  0  0  0  0  0  0  0  0  0
    6.4230  -13.6133   26.1601 C   0  0  0  0  0  0  0  0  0  0  0  0
    5.4962  -12.6285   26.4351 C   0  0  0  0  0  0  0  0  0  0  0  0
    5.9178  -11.3846   26.8441 C   0  0  0  0  0  0  0  0  0  0  0  0
    7.2598  -11.0845   26.9907 C   0  0  0  0  0  0  0  0  0  0  0  0
    8.1842  -12.0791   26.7132 C   0  0  0  0  0  0  0  0  0  0  0  0
    7.7710  -13.3255   26.3052 C   0  0  0  0  0  0  0  0  0  0  0  0
    9.6275  -17.1250   26.1870 C   0  0  0  0  0  0  0  0  0  0  0  0
    8.8487  -17.8112   25.4282 O   0  0  0  0  0  0  0  0  0  0  0  0
    9.6473  -17.5557   27.4979 O   0  0  0  0  0  0  0  0  0  0  0  0
  1  5  1  0
  2  1  1  0
  2  3  1  0
  3  4  1  0
  5  4  1  0
  5  6  1  6
  6  7  2  0
  8  9  1  0
  9 10  2  0
  9 11  1  0
 12 11  1  6
 12 14  1  0
 12 13  1  0
 13  6  1  0
 14 16  1  0
 15 14  2  0
 16 17  1  0
 17 28  1  0
 18 19  1  0
 17 18  1  1
 19 27  1  0
 20 21  1  0
 20 19  2  0
 21 22  1  0
 22 27  2  0
 22 23  1  0
 23 24  2  0
 24 25  1  0
 26 25  2  0
 27 26  1  0
 28 29  2  0
 28 30  1  0
M  END
$$$$
