PNW.pdb
     RDKit          3D

 30 32  0  0  1  0  0  0  0  0999 V2000
    8.8812  -14.4944   18.7729 N   0  0  0  0  0  0  0  0  0  0  0  0
    7.4948  -14.3724   18.4378 C   0  0  0  0  0  0  0  0  0  0  0  0
    6.8983  -13.3076   19.2946 C   0  0  0  0  0  0  0  0  0  0  0  0
    7.9866  -12.9800   20.2659 C   0  0  0  0  0  0  0  0  0  0  0  0
    9.0661  -14.0143   20.1240 C   0  0  1  0  0  0  0  0  0  0  0  0
    8.9675  -15.1011   21.1136 C   0  0  0  0  0  0  0  0  0  0  0  0
    7.9116  -15.2579   21.7512 O   0  0  0  0  0  0  0  0  0  0  0  0
   11.7353  -18.4289   19.5689 N   0  0  0  0  0  0  0  0  0  0  0  0
   10.9558  -18.5660   20.7362 C   0  0  0  0  0  0  0  0  0  0  0  0
    9.9370  -19.3326   20.6243 O   0  0  0  0  0  0  0  0  0  0  0  0
   11.1819  -17.9390   22.0351 C   0  0  0  0  0  0  0  0  0  0  0  0
   10.1225  -16.9338   22.4292 C   0  0  2  0  0  0  0  0  0  0  0  0
   10.0359  -15.9773   21.3668 N   0  0  0  0  0  0  0  0  0  0  0  0
   10.2273  -16.4028   23.7640 C   0  0  0  0  0  0  0  0  0  0  0  0
   10.9374  -15.4087   24.0117 O   0  0  0  0  0  0  0  0  0  0  0  0
    9.5283  -16.9900   24.8409 N   0  0  0  0  0  0  0  0  0  0  0  0
    9.7185  -16.5364   26.2290 C   0  0  1  0  0  0  0  0  0  0  0  0
    8.3461  -16.4480   26.8139 C   0  0  0  0  0  0  0  0  0  0  0  0
    7.4959  -15.4447   26.1431 C   0  0  0  0  0  0  0  0  0  0  0  0
    6.5391  -15.7394   25.1709 C   0  0  0  0  0  0  0  0  0  0  0  0
    5.9233  -14.6071   24.8124 N   0  0  0  0  0  0  0  0  0  0  0  0
    6.4245  -13.5703   25.4991 C   0  0  0  0  0  0  0  0  0  0  0  0
    6.1799  -12.2124   25.5260 C   0  0  0  0  0  0  0  0  0  0  0  0
    6.9067  -11.4010   26.3659 C   0  0  0  0  0  0  0  0  0  0  0  0
    7.8891  -11.9089   27.1961 C   0  0  0  0  0  0  0  0  0  0  0  0
    8.1283  -13.2737   27.1637 C   0  0  0  0  0  0  0  0  0  0  0  0
    7.4052  -14.0920   26.3280 C   0  0  0  0  0  0  0  0  0  0  0  0
   10.6887  -17.3723   26.8945 C   0  0  0  0  0  0  0  0  0  0  0  0
   11.1322  -18.4240   26.3025 O   0  0  0  0  0  0  0  0  0  0  0  0
   11.2290  -17.1707   28.1482 O   0  0  0  0  0  0  0  0  0  0  0  0
  1  5  1  0
  2  1  1  0
  2  3  1  0
  3  4  1  0
  5  4  1  0
  5  6  1  1
  6  7  2  0
  8  9  1  0
  9 10  2  0
  9 11  1  0
 12 11  1  6
 12 14  1  0
 12 13  1  0
 13  6  1  0
 14 16  1  0
 15 14  2  0
 16 17  1  0
 17 28  1  0
 18 19  1  0
 17 18  1  1
 19 27  1  0
 20 21  1  0
 20 19  2  0
 21 22  1  0
 22 27  2  0
 22 23  1  0
 23 24  2  0
 24 25  1  0
 26 25  2  0
 27 26  1  0
 28 29  2  0
 28 30  1  0
M  END
$$$$
