PNW.pdb
     RDKit          3D

 30 32  0  0  1  0  0  0  0  0999 V2000
    9.4543  -14.4821   18.4502 N   0  0  0  0  0  0  0  0  0  0  0  0
    8.3742  -14.6533   17.5265 C   0  0  0  0  0  0  0  0  0  0  0  0
    7.4619  -13.4803   17.6508 C   0  0  0  0  0  0  0  0  0  0  0  0
    7.9906  -12.7415   18.8381 C   0  0  0  0  0  0  0  0  0  0  0  0
    9.0071  -13.6143   19.5165 C   0  0  1  0  0  0  0  0  0  0  0  0
    8.4589  -14.3746   20.6530 C   0  0  0  0  0  0  0  0  0  0  0  0
    7.8265  -13.7794   21.5428 O   0  0  0  0  0  0  0  0  0  0  0  0
    7.0072  -20.1864   22.1844 N   0  0  0  0  0  0  0  0  0  0  0  0
    7.1190  -18.7841   22.2849 C   0  0  0  0  0  0  0  0  0  0  0  0
    6.6940  -18.2805   23.3821 O   0  0  0  0  0  0  0  0  0  0  0  0
    7.6579  -17.8616   21.2898 C   0  0  0  0  0  0  0  0  0  0  0  0
    8.2205  -16.5838   21.8719 C   0  0  2  0  0  0  0  0  0  0  0  0
    8.6270  -15.7642   20.7701 N   0  0  0  0  0  0  0  0  0  0  0  0
    9.1763  -16.7473   22.9371 C   0  0  0  0  0  0  0  0  0  0  0  0
   10.2464  -17.3610   22.7584 O   0  0  0  0  0  0  0  0  0  0  0  0
    8.9347  -16.2175   24.2231 N   0  0  0  0  0  0  0  0  0  0  0  0
    9.9399  -16.2971   25.2966 C   0  0  1  0  0  0  0  0  0  0  0  0
    9.6437  -15.1514   26.2093 C   0  0  0  0  0  0  0  0  0  0  0  0
    8.2180  -14.7681   26.2114 C   0  0  0  0  0  0  0  0  0  0  0  0
    7.1567  -15.6629   26.0686 C   0  0  0  0  0  0  0  0  0  0  0  0
    6.0056  -14.9874   26.1622 N   0  0  0  0  0  0  0  0  0  0  0  0
    6.2487  -13.6838   26.3600 C   0  0  0  0  0  0  0  0  0  0  0  0
    5.4621  -12.5604   26.5135 C   0  0  0  0  0  0  0  0  0  0  0  0
    6.0508  -11.3299   26.6910 C   0  0  0  0  0  0  0  0  0  0  0  0
    7.4251  -11.1796   26.7207 C   0  0  0  0  0  0  0  0  0  0  0  0
    8.2081  -12.3128   26.5664 C   0  0  0  0  0  0  0  0  0  0  0  0
    7.6276  -13.5467   26.3900 C   0  0  0  0  0  0  0  0  0  0  0  0
    9.9601  -17.6263   25.8583 C   0  0  0  0  0  0  0  0  0  0  0  0
   10.8131  -17.9139   26.7765 O   0  0  0  0  0  0  0  0  0  0  0  0
    9.1341  -18.6780   25.5179 O   0  0  0  0  0  0  0  0  0  0  0  0
  1  5  1  0
  2  1  1  0
  2  3  1  0
  3  4  1  0
  5  4  1  0
  5  6  1  1
  6  7  2  0
  8  9  1  0
  9 10  2  0
  9 11  1  0
 12 11  1  6
 12 14  1  0
 12 13  1  0
 13  6  1  0
 14 16  1  0
 15 14  2  0
 16 17  1  0
 17 28  1  0
 18 19  1  0
 17 18  1  1
 19 27  1  0
 20 21  1  0
 20 19  2  0
 21 22  1  0
 22 27  2  0
 22 23  1  0
 23 24  2  0
 24 25  1  0
 26 25  2  0
 27 26  1  0
 28 29  2  0
 28 30  1  0
M  END
$$$$
