PNW.pdb
     RDKit          3D

 30 32  0  0  1  0  0  0  0  0999 V2000
    8.2576  -14.6687   17.9701 N   0  0  0  0  0  0  0  0  0  0  0  0
    6.9985  -14.0862   18.3232 C   0  0  0  0  0  0  0  0  0  0  0  0
    7.2607  -12.8371   19.0945 C   0  0  0  0  0  0  0  0  0  0  0  0
    8.7382  -12.8618   19.3218 C   0  0  0  0  0  0  0  0  0  0  0  0
    9.2502  -14.2147   18.9182 C   0  0  1  0  0  0  0  0  0  0  0  0
    9.3973  -15.1454   20.0506 C   0  0  0  0  0  0  0  0  0  0  0  0
    8.4386  -15.3340   20.8197 O   0  0  0  0  0  0  0  0  0  0  0  0
   12.3913  -19.7599   22.2641 N   0  0  0  0  0  0  0  0  0  0  0  0
   12.5445  -18.3609   22.1730 C   0  0  0  0  0  0  0  0  0  0  0  0
   13.1491  -17.8134   23.1593 O   0  0  0  0  0  0  0  0  0  0  0  0
   12.0956  -17.4857   21.0941 C   0  0  0  0  0  0  0  0  0  0  0  0
   10.9057  -16.6231   21.4521 C   0  0  2  0  0  0  0  0  0  0  0  0
   10.5955  -15.8358   20.2967 N   0  0  0  0  0  0  0  0  0  0  0  0
   10.9969  -15.9171   22.7043 C   0  0  0  0  0  0  0  0  0  0  0  0
   11.2979  -14.7082   22.7458 O   0  0  0  0  0  0  0  0  0  0  0  0
   10.7481  -16.5701   23.9310 N   0  0  0  0  0  0  0  0  0  0  0  0
    9.8960  -15.9693   24.9711 C   0  0  1  0  0  0  0  0  0  0  0  0
    8.6643  -15.5063   24.2626 C   0  0  0  0  0  0  0  0  0  0  0  0
    7.6328  -14.9825   25.1798 C   0  0  0  0  0  0  0  0  0  0  0  0
    6.5755  -15.7335   25.6951 C   0  0  0  0  0  0  0  0  0  0  0  0
    5.8614  -14.9635   26.5241 N   0  0  0  0  0  0  0  0  0  0  0  0
    6.3919  -13.7337   26.5857 C   0  0  0  0  0  0  0  0  0  0  0  0
    6.0715  -12.5689   27.2528 C   0  0  0  0  0  0  0  0  0  0  0  0
    6.8432  -11.4437   27.0777 C   0  0  0  0  0  0  0  0  0  0  0  0
    7.9454  -11.4416   26.2426 C   0  0  0  0  0  0  0  0  0  0  0  0
    8.2609  -12.6155   25.5767 C   0  0  0  0  0  0  0  0  0  0  0  0
    7.4956  -13.7450   25.7474 C   0  0  0  0  0  0  0  0  0  0  0  0
    9.7414  -16.8860   26.0750 C   0  0  0  0  0  0  0  0  0  0  0  0
    9.5869  -16.4250   27.2653 O   0  0  0  0  0  0  0  0  0  0  0  0
    9.7349  -18.2642   26.0076 O   0  0  0  0  0  0  0  0  0  0  0  0
  1  5  1  0
  2  1  1  0
  2  3  1  0
  3  4  1  0
  5  4  1  0
  5  6  1  1
  6  7  2  0
  8  9  1  0
  9 10  2  0
  9 11  1  0
 12 11  1  6
 12 14  1  0
 12 13  1  0
 13  6  1  0
 14 16  1  0
 15 14  2  0
 16 17  1  0
 17 28  1  0
 18 19  1  0
 17 18  1  6
 19 27  1  0
 20 21  1  0
 20 19  2  0
 21 22  1  0
 22 27  2  0
 22 23  1  0
 23 24  2  0
 24 25  1  0
 26 25  2  0
 27 26  1  0
 28 29  2  0
 28 30  1  0
M  END
$$$$
