PNW.pdb
     RDKit          3D

 30 32  0  0  1  0  0  0  0  0999 V2000
    8.7742  -15.0446   18.1945 N   0  0  0  0  0  0  0  0  0  0  0  0
    7.6779  -14.5780   17.4011 C   0  0  0  0  0  0  0  0  0  0  0  0
    7.6061  -13.0940   17.5289 C   0  0  0  0  0  0  0  0  0  0  0  0
    8.6035  -12.7794   18.5972 C   0  0  0  0  0  0  0  0  0  0  0  0
    9.0306  -14.0714   19.2325 C   0  0  1  0  0  0  0  0  0  0  0  0
    8.2993  -14.3825   20.4728 C   0  0  0  0  0  0  0  0  0  0  0  0
    8.1591  -13.5032   21.3406 O   0  0  0  0  0  0  0  0  0  0  0  0
    7.3684  -17.3008   19.2357 N   0  0  0  0  0  0  0  0  0  0  0  0
    6.9821  -18.0433   20.3708 C   0  0  0  0  0  0  0  0  0  0  0  0
    6.8356  -19.2998   20.1763 O   0  0  0  0  0  0  0  0  0  0  0  0
    6.7358  -17.5419   21.7196 C   0  0  0  0  0  0  0  0  0  0  0  0
    7.0956  -16.0855   21.9131 C   0  0  2  0  0  0  0  0  0  0  0  0
    7.7482  -15.6518   20.7143 N   0  0  0  0  0  0  0  0  0  0  0  0
    7.7508  -15.7607   23.1541 C   0  0  0  0  0  0  0  0  0  0  0  0
    7.1803  -15.0806   24.0291 O   0  0  0  0  0  0  0  0  0  0  0  0
    9.0645  -16.2018   23.4238 N   0  0  0  0  0  0  0  0  0  0  0  0
    9.8144  -15.7319   24.6010 C   0  0  1  0  0  0  0  0  0  0  0  0
    8.9539  -16.0537   25.7797 C   0  0  0  0  0  0  0  0  0  0  0  0
    7.7621  -15.1881   25.8783 C   0  0  0  0  0  0  0  0  0  0  0  0
    6.4452  -15.6378   25.7728 C   0  0  0  0  0  0  0  0  0  0  0  0
    5.6183  -14.6019   25.9548 N   0  0  0  0  0  0  0  0  0  0  0  0
    6.3213  -13.4818   26.1761 C   0  0  0  0  0  0  0  0  0  0  0  0
    5.9975  -12.1608   26.4094 C   0  0  0  0  0  0  0  0  0  0  0  0
    6.9956  -11.2311   26.5875 C   0  0  0  0  0  0  0  0  0  0  0  0
    8.3323  -11.5821   26.5395 C   0  0  0  0  0  0  0  0  0  0  0  0
    8.6491  -12.9109   26.3054 C   0  0  0  0  0  0  0  0  0  0  0  0
    7.6575  -13.8468   26.1277 C   0  0  0  0  0  0  0  0  0  0  0  0
   11.1575  -16.2595   24.5753 C   0  0  0  0  0  0  0  0  0  0  0  0
   11.4854  -17.1158   23.6740 O   0  0  0  0  0  0  0  0  0  0  0  0
   12.1854  -15.9402   25.4388 O   0  0  0  0  0  0  0  0  0  0  0  0
  1  5  1  0
  2  1  1  0
  2  3  1  0
  3  4  1  0
  5  4  1  0
  5  6  1  1
  6  7  2  0
  8  9  1  0
  9 10  2  0
  9 11  1  0
 12 11  1  6
 12 14  1  0
 12 13  1  0
 13  6  1  0
 14 16  1  0
 15 14  2  0
 16 17  1  0
 17 28  1  0
 18 19  1  0
 17 18  1  1
 19 27  1  0
 20 21  1  0
 20 19  2  0
 21 22  1  0
 22 27  2  0
 22 23  1  0
 23 24  2  0
 24 25  1  0
 26 25  2  0
 27 26  1  0
 28 29  2  0
 28 30  1  0
M  END
$$$$
