PNW.pdb
     RDKit          3D

 30 32  0  0  1  0  0  0  0  0999 V2000
    8.6199  -15.0325   18.8870 N   0  0  0  0  0  0  0  0  0  0  0  0
    8.2331  -16.1748   18.1157 C   0  0  0  0  0  0  0  0  0  0  0  0
    6.8676  -16.5902   18.5475 C   0  0  0  0  0  0  0  0  0  0  0  0
    6.5956  -15.7343   19.7427 C   0  0  0  0  0  0  0  0  0  0  0  0
    7.8748  -15.0472   20.1259 C   0  0  1  0  0  0  0  0  0  0  0  0
    8.6081  -15.7356   21.2022 C   0  0  0  0  0  0  0  0  0  0  0  0
    8.0130  -16.0502   22.2476 O   0  0  0  0  0  0  0  0  0  0  0  0
   13.7024  -16.7710   23.6191 N   0  0  0  0  0  0  0  0  0  0  0  0
   13.1672  -17.3315   22.4408 C   0  0  0  0  0  0  0  0  0  0  0  0
   13.5917  -18.5042   22.1533 O   0  0  0  0  0  0  0  0  0  0  0  0
   12.1984  -16.7287   21.5300 C   0  0  0  0  0  0  0  0  0  0  0  0
   10.8351  -16.4963   22.1429 C   0  0  2  0  0  0  0  0  0  0  0  0
    9.9718  -16.0531   21.0897 N   0  0  0  0  0  0  0  0  0  0  0  0
   10.8170  -15.7211   23.3568 C   0  0  0  0  0  0  0  0  0  0  0  0
   10.7228  -14.4784   23.3303 O   0  0  0  0  0  0  0  0  0  0  0  0
   10.9054  -16.3420   24.6215 N   0  0  0  0  0  0  0  0  0  0  0  0
    9.7942  -16.2976   25.5871 C   0  0  1  0  0  0  0  0  0  0  0  0
    8.5613  -16.0827   24.7704 C   0  0  0  0  0  0  0  0  0  0  0  0
    7.5748  -15.2069   25.4332 C   0  0  0  0  0  0  0  0  0  0  0  0
    6.4045  -15.6543   26.0477 C   0  0  0  0  0  0  0  0  0  0  0  0
    5.7695  -14.6061   26.5844 N   0  0  0  0  0  0  0  0  0  0  0  0
    6.4605  -13.4800   26.3562 C   0  0  0  0  0  0  0  0  0  0  0  0
    6.2757  -12.1470   26.6621 C   0  0  0  0  0  0  0  0  0  0  0  0
    7.2007  -11.2147   26.2528 C   0  0  0  0  0  0  0  0  0  0  0  0
    8.3259  -11.5749   25.5341 C   0  0  0  0  0  0  0  0  0  0  0  0
    8.5044  -12.9156   25.2314 C   0  0  0  0  0  0  0  0  0  0  0  0
    7.5854  -13.8540   25.6381 C   0  0  0  0  0  0  0  0  0  0  0  0
    9.8440  -17.4515   26.4525 C   0  0  0  0  0  0  0  0  0  0  0  0
    9.4341  -17.3515   27.6671 O   0  0  0  0  0  0  0  0  0  0  0  0
   10.2958  -18.7124   26.1204 O   0  0  0  0  0  0  0  0  0  0  0  0
  1  5  1  0
  2  1  1  0
  2  3  1  0
  3  4  1  0
  5  4  1  0
  5  6  1  1
  6  7  2  0
  8  9  1  0
  9 10  2  0
  9 11  1  0
 12 11  1  6
 12 14  1  0
 12 13  1  0
 13  6  1  0
 14 16  1  0
 15 14  2  0
 16 17  1  0
 17 28  1  0
 18 19  1  0
 17 18  1  6
 19 27  1  0
 20 21  1  0
 20 19  2  0
 21 22  1  0
 22 27  2  0
 22 23  1  0
 23 24  2  0
 24 25  1  0
 26 25  2  0
 27 26  1  0
 28 29  2  0
 28 30  1  0
M  END
$$$$
