SCE.pdb
     RDKit          3D

 22 21  0  0  1  0  0  0  0  0999 V2000
   18.9546  -11.2253  -17.4305 O   0  0  0  0  0  0  0  0  0  0  0  0
   20.0536  -11.3236  -18.2470 C   0  0  0  0  0  0  0  0  0  0  0  0
   21.2294  -11.9875  -17.5179 C   0  0  2  0  0  0  0  0  0  0  0  0
   20.7161  -13.1572  -16.8709 N   0  0  0  0  0  0  0  0  0  0  0  0
   21.7777  -10.9880  -16.5453 C   0  0  0  0  0  0  0  0  0  0  0  0
   21.1108  -10.7843  -15.5004 O   0  0  0  0  0  0  0  0  0  0  0  0
   22.9732  -10.2936  -16.7547 N   0  0  0  0  0  0  0  0  0  0  0  0
   23.4700   -9.2509  -15.8875 C   0  0  1  0  0  0  0  0  0  0  0  0
   24.9910   -9.2694  -15.7767 C   0  0  0  0  0  0  0  0  0  0  0  0
   25.5383  -10.5430  -14.6377 S   0  0  0  0  0  0  0  0  0  0  0  0
   23.0806   -7.9098  -16.3381 C   0  0  0  0  0  0  0  0  0  0  0  0
   22.9082   -7.7008  -17.5864 O   0  0  0  0  0  0  0  0  0  0  0  0
   22.8704   -6.7876  -15.4989 N   0  0  0  0  0  0  0  0  0  0  0  0
   22.1692   -5.5727  -15.9667 C   0  0  1  0  0  0  0  0  0  0  0  0
   20.8782   -5.9396  -16.5744 C   0  0  0  0  0  0  0  0  0  0  0  0
   20.0366   -4.7965  -17.0021 C   0  0  0  0  0  0  0  0  0  0  0  0
   18.7387   -5.1225  -17.6037 C   0  0  0  0  0  0  0  0  0  0  0  0
   18.1291   -6.2240  -17.3689 O   0  0  0  0  0  0  0  0  0  0  0  0
   22.1412   -4.6171  -14.8965 C   0  0  0  0  0  0  0  0  0  0  0  0
   22.2588   -3.3861  -15.1208 O   0  0  0  0  0  0  0  0  0  0  0  0
   18.0805   -4.2599  -18.4700 O   0  0  0  0  0  0  0  0  0  0  0  0
   21.9705   -5.0192  -13.5732 O   0  0  0  0  0  0  0  0  0  0  0  0
  2  1  1  0
  3  2  1  0
  3  5  1  0
  3  4  1  1
  5  7  1  0
  5  6  2  0
  7  8  1  0
  8  9  1  6
 10  9  1  0
 11 12  2  0
 11  8  1  0
 13 11  1  0
 14 13  1  0
 14 15  1  1
 15 16  1  0
 17 21  1  0
 17 16  1  0
 18 17  2  0
 19 14  1  0
 20 19  2  0
 22 19  1  0
M  END
$$$$
