SCE.pdb
     RDKit          3D

 22 21  0  0  1  0  0  0  0  0999 V2000
   15.4203   -9.8848  -14.8223 O   0  0  0  0  0  0  0  0  0  0  0  0
   16.3901   -8.9583  -14.5302 C   0  0  0  0  0  0  0  0  0  0  0  0
   17.5094   -9.5750  -13.6809 C   0  0  2  0  0  0  0  0  0  0  0  0
   16.9591   -9.8345  -12.3848 N   0  0  0  0  0  0  0  0  0  0  0  0
   18.6371   -8.5889  -13.6383 C   0  0  0  0  0  0  0  0  0  0  0  0
   18.5045   -7.6044  -12.8694 O   0  0  0  0  0  0  0  0  0  0  0  0
   19.7996   -8.7232  -14.4035 N   0  0  0  0  0  0  0  0  0  0  0  0
   20.9471   -7.8524  -14.2981 C   0  0  1  0  0  0  0  0  0  0  0  0
   22.2142   -8.4995  -14.8476 C   0  0  0  0  0  0  0  0  0  0  0  0
   22.7904   -9.8085  -13.7645 S   0  0  0  0  0  0  0  0  0  0  0  0
   20.7593   -6.5838  -15.0113 C   0  0  0  0  0  0  0  0  0  0  0  0
   20.3970   -6.6086  -16.2360 O   0  0  0  0  0  0  0  0  0  0  0  0
   20.9462   -5.2925  -14.4584 N   0  0  0  0  0  0  0  0  0  0  0  0
   20.5685   -4.0610  -15.1846 C   0  0  1  0  0  0  0  0  0  0  0  0
   19.4471   -3.3962  -14.4981 C   0  0  0  0  0  0  0  0  0  0  0  0
   19.0139   -2.1120  -15.0990 C   0  0  0  0  0  0  0  0  0  0  0  0
   17.9075   -1.4137  -14.4349 C   0  0  0  0  0  0  0  0  0  0  0  0
   17.3665   -1.8493  -13.3589 O   0  0  0  0  0  0  0  0  0  0  0  0
   21.7512   -3.2811  -15.4135 C   0  0  0  0  0  0  0  0  0  0  0  0
   22.7152   -3.3103  -14.6077 O   0  0  0  0  0  0  0  0  0  0  0  0
   17.3692   -0.2321  -14.9265 O   0  0  0  0  0  0  0  0  0  0  0  0
   21.8771   -2.4743  -16.5427 O   0  0  0  0  0  0  0  0  0  0  0  0
  2  1  1  0
  3  2  1  0
  3  5  1  0
  3  4  1  1
  5  7  1  0
  5  6  2  0
  7  8  1  0
  8  9  1  6
 10  9  1  0
 11 12  2  0
 11  8  1  0
 13 11  1  0
 14 13  1  0
 14 15  1  1
 15 16  1  0
 17 21  1  0
 17 16  1  0
 18 17  2  0
 19 14  1  0
 20 19  2  0
 22 19  1  0
M  END
$$$$
