SCE.pdb
     RDKit          3D

 22 21  0  0  1  0  0  0  0  0999 V2000
   16.0400  -12.6813  -10.5437 O   0  0  0  0  0  0  0  0  0  0  0  0
   15.9627  -11.3427  -10.8377 C   0  0  0  0  0  0  0  0  0  0  0  0
   14.8649  -10.6559  -10.0145 C   0  0  2  0  0  0  0  0  0  0  0  0
   13.6091  -11.1459  -10.4972 N   0  0  0  0  0  0  0  0  0  0  0  0
   15.0162   -9.1775  -10.2076 C   0  0  0  0  0  0  0  0  0  0  0  0
   14.6419   -8.7055  -11.3099 O   0  0  0  0  0  0  0  0  0  0  0  0
   15.5448   -8.3289   -9.2302 N   0  0  0  0  0  0  0  0  0  0  0  0
   15.7190   -6.9050   -9.3982 C   0  0  1  0  0  0  0  0  0  0  0  0
   15.6300   -6.1532   -8.0741 C   0  0  0  0  0  0  0  0  0  0  0  0
   15.9872   -4.4094   -8.2985 S   0  0  0  0  0  0  0  0  0  0  0  0
   17.0086   -6.5631  -10.0092 C   0  0  0  0  0  0  0  0  0  0  0  0
   18.0786   -7.0575   -9.5168 O   0  0  0  0  0  0  0  0  0  0  0  0
   17.1905   -5.7115  -11.1270 N   0  0  0  0  0  0  0  0  0  0  0  0
   18.5046   -5.5402  -11.7830 C   0  0  1  0  0  0  0  0  0  0  0  0
   18.9583   -6.8249  -12.3437 C   0  0  0  0  0  0  0  0  0  0  0  0
   20.2313   -6.7663  -13.1013 C   0  0  0  0  0  0  0  0  0  0  0  0
   20.7865   -8.0457  -13.5569 C   0  0  0  0  0  0  0  0  0  0  0  0
   21.8906   -8.1258  -14.2008 O   0  0  0  0  0  0  0  0  0  0  0  0
   18.4279   -4.4239  -12.6816 C   0  0  0  0  0  0  0  0  0  0  0  0
   17.3250   -4.0328  -13.1397 O   0  0  0  0  0  0  0  0  0  0  0  0
   20.1538   -9.2591  -13.3223 O   0  0  0  0  0  0  0  0  0  0  0  0
   19.5715   -3.7274  -13.0677 O   0  0  0  0  0  0  0  0  0  0  0  0
  2  1  1  0
  3  2  1  0
  3  5  1  0
  3  4  1  6
  5  7  1  0
  5  6  2  0
  7  8  1  0
  8  9  1  1
 10  9  1  0
 11 12  2  0
 11  8  1  0
 13 11  1  0
 14 13  1  0
 14 15  1  6
 15 16  1  0
 17 21  1  0
 17 16  1  0
 18 17  2  0
 19 14  1  0
 20 19  2  0
 22 19  1  0
M  END
$$$$
