SCE.pdb
     RDKit          3D

 22 21  0  0  1  0  0  0  0  0999 V2000
   16.9695   -8.7689  -17.8858 O   0  0  0  0  0  0  0  0  0  0  0  0
   17.3238   -7.9913  -16.8115 C   0  0  0  0  0  0  0  0  0  0  0  0
   18.1159   -8.8016  -15.7768 C   0  0  2  0  0  0  0  0  0  0  0  0
   17.1753   -9.6245  -15.0781 N   0  0  0  0  0  0  0  0  0  0  0  0
   18.8059   -7.8251  -14.8732 C   0  0  0  0  0  0  0  0  0  0  0  0
   18.1397   -7.3710  -13.9100 O   0  0  0  0  0  0  0  0  0  0  0  0
   20.1291   -7.4137  -15.0602 N   0  0  0  0  0  0  0  0  0  0  0  0
   20.7623   -6.3503  -14.3157 C   0  0  1  0  0  0  0  0  0  0  0  0
   22.2835   -6.4578  -14.3377 C   0  0  0  0  0  0  0  0  0  0  0  0
   23.0371   -5.1203  -13.4092 S   0  0  0  0  0  0  0  0  0  0  0  0
   20.4107   -5.0194  -14.8242 C   0  0  0  0  0  0  0  0  0  0  0  0
   20.4200   -4.8150  -16.0851 O   0  0  0  0  0  0  0  0  0  0  0  0
   20.0505   -3.9028  -14.0297 N   0  0  0  0  0  0  0  0  0  0  0  0
   19.7516   -2.5794  -14.6178 C   0  0  1  0  0  0  0  0  0  0  0  0
   18.3171   -2.2766  -14.4721 C   0  0  0  0  0  0  0  0  0  0  0  0
   17.8904   -0.9697  -15.0268 C   0  0  0  0  0  0  0  0  0  0  0  0
   16.4676   -0.6336  -14.9019 C   0  0  0  0  0  0  0  0  0  0  0  0
   16.0645    0.4860  -14.4285 O   0  0  0  0  0  0  0  0  0  0  0  0
   20.6802   -1.6212  -14.0896 C   0  0  0  0  0  0  0  0  0  0  0  0
   21.3870   -1.8864  -13.0849 O   0  0  0  0  0  0  0  0  0  0  0  0
   15.4587   -1.5058  -15.2878 O   0  0  0  0  0  0  0  0  0  0  0  0
   20.8395   -0.3687  -14.6793 O   0  0  0  0  0  0  0  0  0  0  0  0
  2  1  1  0
  3  2  1  0
  3  5  1  0
  3  4  1  1
  5  7  1  0
  5  6  2  0
  7  8  1  0
  8  9  1  6
 10  9  1  0
 11 12  2  0
 11  8  1  0
 13 11  1  0
 14 13  1  0
 14 15  1  1
 15 16  1  0
 17 21  1  0
 17 16  1  0
 18 17  2  0
 19 14  1  0
 20 19  2  0
 22 19  1  0
M  END
$$$$
