SCE.pdb
     RDKit          3D

 22 21  0  0  1  0  0  0  0  0999 V2000
   16.5983  -11.0275  -16.6596 O   0  0  0  0  0  0  0  0  0  0  0  0
   17.0664  -10.4753  -15.4932 C   0  0  0  0  0  0  0  0  0  0  0  0
   18.5977  -10.5429  -15.4223 C   0  0  2  0  0  0  0  0  0  0  0  0
   18.9478  -11.9122  -15.1932 N   0  0  0  0  0  0  0  0  0  0  0  0
   19.0365   -9.6442  -14.3062 C   0  0  0  0  0  0  0  0  0  0  0  0
   18.8934  -10.0775  -13.1358 O   0  0  0  0  0  0  0  0  0  0  0  0
   19.5846   -8.3752  -14.5167 N   0  0  0  0  0  0  0  0  0  0  0  0
   19.9580   -7.4655  -13.4588 C   0  0  1  0  0  0  0  0  0  0  0  0
   21.3016   -6.7942  -13.7234 C   0  0  0  0  0  0  0  0  0  0  0  0
   21.7224   -5.6535  -12.4041 S   0  0  0  0  0  0  0  0  0  0  0  0
   18.9693   -6.4003  -13.2563 C   0  0  0  0  0  0  0  0  0  0  0  0
   18.6048   -5.6942  -14.2565 O   0  0  0  0  0  0  0  0  0  0  0  0
   18.3594   -6.0664  -12.0216 N   0  0  0  0  0  0  0  0  0  0  0  0
   17.3637   -4.9797  -11.9017 C   0  0  1  0  0  0  0  0  0  0  0  0
   16.7225   -5.0291  -10.5761 C   0  0  0  0  0  0  0  0  0  0  0  0
   15.7401   -3.9507  -10.3119 C   0  0  0  0  0  0  0  0  0  0  0  0
   15.0113   -4.0202   -9.0403 C   0  0  0  0  0  0  0  0  0  0  0  0
   15.1566   -4.9899   -8.2165 O   0  0  0  0  0  0  0  0  0  0  0  0
   17.9841   -3.7434  -12.2836 C   0  0  0  0  0  0  0  0  0  0  0  0
   17.3249   -2.8303  -12.8413 O   0  0  0  0  0  0  0  0  0  0  0  0
   14.1128   -3.0398   -8.6411 O   0  0  0  0  0  0  0  0  0  0  0  0
   19.3354   -3.5072  -12.0385 O   0  0  0  0  0  0  0  0  0  0  0  0
  2  1  1  0
  3  2  1  0
  3  5  1  0
  3  4  1  1
  5  7  1  0
  5  6  2  0
  7  8  1  0
  8  9  1  6
 10  9  1  0
 11 12  2  0
 11  8  1  0
 13 11  1  0
 14 13  1  0
 14 15  1  1
 15 16  1  0
 17 21  1  0
 17 16  1  0
 18 17  2  0
 19 14  1  0
 20 19  2  0
 22 19  1  0
M  END
$$$$
