SCE.pdb
     RDKit          3D

 22 21  0  0  1  0  0  0  0  0999 V2000
   12.8396   -9.1324  -14.3406 O   0  0  0  0  0  0  0  0  0  0  0  0
   14.1064   -9.5533  -14.0205 C   0  0  0  0  0  0  0  0  0  0  0  0
   14.4303  -10.8968  -14.6873 C   0  0  2  0  0  0  0  0  0  0  0  0
   13.8101  -11.9179  -13.8982 N   0  0  0  0  0  0  0  0  0  0  0  0
   15.9224  -11.0305  -14.7283 C   0  0  0  0  0  0  0  0  0  0  0  0
   16.4868  -11.4398  -13.6835 O   0  0  0  0  0  0  0  0  0  0  0  0
   16.6868  -10.7239  -15.8583 N   0  0  0  0  0  0  0  0  0  0  0  0
   18.1287  -10.7918  -15.9070 C   0  0  1  0  0  0  0  0  0  0  0  0
   18.6264  -11.6559  -17.0610 C   0  0  0  0  0  0  0  0  0  0  0  0
   20.4191  -11.6652  -17.1317 S   0  0  0  0  0  0  0  0  0  0  0  0
   18.7507   -9.4705  -16.0500 C   0  0  0  0  0  0  0  0  0  0  0  0
   18.2962   -8.6632  -16.9295 O   0  0  0  0  0  0  0  0  0  0  0  0
   19.8405   -8.9859  -15.2849 N   0  0  0  0  0  0  0  0  0  0  0  0
   20.3274   -7.5943  -15.3985 C   0  0  1  0  0  0  0  0  0  0  0  0
   20.9498   -7.1741  -14.1310 C   0  0  0  0  0  0  0  0  0  0  0  0
   21.4439   -5.7766  -14.1055 C   0  0  0  0  0  0  0  0  0  0  0  0
   22.0874   -5.3276  -12.8657 C   0  0  0  0  0  0  0  0  0  0  0  0
   22.4986   -4.1260  -12.7005 O   0  0  0  0  0  0  0  0  0  0  0  0
   21.1226   -7.4811  -16.5877 C   0  0  0  0  0  0  0  0  0  0  0  0
   21.8852   -8.4117  -16.9509 O   0  0  0  0  0  0  0  0  0  0  0  0
   22.2962   -6.1738  -11.7850 O   0  0  0  0  0  0  0  0  0  0  0  0
   21.0679   -6.3412  -17.3876 O   0  0  0  0  0  0  0  0  0  0  0  0
  2  1  1  0
  3  2  1  0
  3  5  1  0
  3  4  1  1
  5  7  1  0
  5  6  2  0
  7  8  1  0
  8  9  1  6
 10  9  1  0
 11 12  2  0
 11  8  1  0
 13 11  1  0
 14 13  1  0
 14 15  1  1
 15 16  1  0
 17 21  1  0
 17 16  1  0
 18 17  2  0
 19 14  1  0
 20 19  2  0
 22 19  1  0
M  END
$$$$
