SCE.pdb
     RDKit          3D

 22 21  0  0  1  0  0  0  0  0999 V2000
   25.7071  -17.2168  -15.5412 O   0  0  0  0  0  0  0  0  0  0  0  0
   26.8754  -17.4225  -14.8505 C   0  0  0  0  0  0  0  0  0  0  0  0
   27.4528  -18.8148  -15.1382 C   0  0  2  0  0  0  0  0  0  0  0  0
   27.5791  -18.9319  -16.5596 N   0  0  0  0  0  0  0  0  0  0  0  0
   26.5053  -19.8226  -14.5616 C   0  0  0  0  0  0  0  0  0  0  0  0
   25.8234  -20.4944  -15.3750 O   0  0  0  0  0  0  0  0  0  0  0  0
   26.3583  -20.0352  -13.1874 N   0  0  0  0  0  0  0  0  0  0  0  0
   25.4197  -20.9657  -12.6049 C   0  0  1  0  0  0  0  0  0  0  0  0
   25.7283  -21.2543  -11.1394 C   0  0  0  0  0  0  0  0  0  0  0  0
   27.4396  -21.7494  -10.9272 S   0  0  0  0  0  0  0  0  0  0  0  0
   24.0344  -20.4864  -12.6738 C   0  0  0  0  0  0  0  0  0  0  0  0
   23.7539  -19.3314  -12.2059 O   0  0  0  0  0  0  0  0  0  0  0  0
   22.9422  -21.2007  -13.2256 N   0  0  0  0  0  0  0  0  0  0  0  0
   21.6067  -20.5900  -13.3993 C   0  0  1  0  0  0  0  0  0  0  0  0
   21.5749  -19.7941  -14.6388 C   0  0  0  0  0  0  0  0  0  0  0  0
   20.2696  -19.1629  -14.9478 C   0  0  0  0  0  0  0  0  0  0  0  0
   20.1994  -18.3609  -16.1746 C   0  0  0  0  0  0  0  0  0  0  0  0
   19.1740  -17.6560  -16.4775 O   0  0  0  0  0  0  0  0  0  0  0  0
   20.6107  -21.6125  -13.2517 C   0  0  0  0  0  0  0  0  0  0  0  0
   20.8651  -22.8122  -13.5260 O   0  0  0  0  0  0  0  0  0  0  0  0
   21.2394  -18.3104  -17.0930 O   0  0  0  0  0  0  0  0  0  0  0  0
   19.3313  -21.3131  -12.7877 O   0  0  0  0  0  0  0  0  0  0  0  0
  2  1  1  0
  3  2  1  0
  3  5  1  0
  3  4  1  6
  5  7  1  0
  5  6  2  0
  7  8  1  0
  8  9  1  1
 10  9  1  0
 11 12  2  0
 11  8  1  0
 13 11  1  0
 14 13  1  0
 14 15  1  6
 15 16  1  0
 17 21  1  0
 17 16  1  0
 18 17  2  0
 19 14  1  0
 20 19  2  0
 22 19  1  0
M  END
$$$$
