SCE.pdb
     RDKit          3D

 22 21  0  0  1  0  0  0  0  0999 V2000
   14.6597   -9.2109  -13.5286 O   0  0  0  0  0  0  0  0  0  0  0  0
   15.7817   -8.6328  -12.9889 C   0  0  0  0  0  0  0  0  0  0  0  0
   16.6990   -9.6868  -12.3547 C   0  0  2  0  0  0  0  0  0  0  0  0
   16.2096   -9.9279  -11.0309 N   0  0  0  0  0  0  0  0  0  0  0  0
   18.0914   -9.1328  -12.3594 C   0  0  0  0  0  0  0  0  0  0  0  0
   18.3797   -8.3083  -11.4566 O   0  0  0  0  0  0  0  0  0  0  0  0
   19.0541   -9.4921  -13.3076 N   0  0  0  0  0  0  0  0  0  0  0  0
   20.3834   -8.9306  -13.3692 C   0  0  1  0  0  0  0  0  0  0  0  0
   21.3722   -9.8645  -14.0592 C   0  0  0  0  0  0  0  0  0  0  0  0
   23.0370   -9.1985  -13.9983 S   0  0  0  0  0  0  0  0  0  0  0  0
   20.4214   -7.6490  -14.0827 C   0  0  0  0  0  0  0  0  0  0  0  0
   19.9596   -7.5875  -15.2721 O   0  0  0  0  0  0  0  0  0  0  0  0
   20.9364   -6.4339  -13.5667 N   0  0  0  0  0  0  0  0  0  0  0  0
   20.9916   -5.1950  -14.3722 C   0  0  1  0  0  0  0  0  0  0  0  0
   19.6837   -4.5174  -14.3432 C   0  0  0  0  0  0  0  0  0  0  0  0
   19.6266   -3.2284  -15.0732 C   0  0  0  0  0  0  0  0  0  0  0  0
   18.3437   -2.5164  -15.0540 C   0  0  0  0  0  0  0  0  0  0  0  0
   17.2310   -3.1102  -14.8315 O   0  0  0  0  0  0  0  0  0  0  0  0
   22.1346   -4.4304  -13.9619 C   0  0  0  0  0  0  0  0  0  0  0  0
   22.7442   -4.6941  -12.8950 O   0  0  0  0  0  0  0  0  0  0  0  0
   18.2461   -1.1494  -15.2761 O   0  0  0  0  0  0  0  0  0  0  0  0
   22.6157   -3.3774  -14.7376 O   0  0  0  0  0  0  0  0  0  0  0  0
  2  1  1  0
  3  2  1  0
  3  5  1  0
  3  4  1  1
  5  7  1  0
  5  6  2  0
  7  8  1  0
  8  9  1  6
 10  9  1  0
 11 12  2  0
 11  8  1  0
 13 11  1  0
 14 13  1  0
 14 15  1  1
 15 16  1  0
 17 21  1  0
 17 16  1  0
 18 17  2  0
 19 14  1  0
 20 19  2  0
 22 19  1  0
M  END
$$$$
