SCE.pdb
     RDKit          3D

 22 21  0  0  1  0  0  0  0  0999 V2000
   16.0793  -11.0007  -18.6357 O   0  0  0  0  0  0  0  0  0  0  0  0
   16.8114  -10.6855  -17.5181 C   0  0  0  0  0  0  0  0  0  0  0  0
   18.1553  -11.4260  -17.5076 C   0  0  2  0  0  0  0  0  0  0  0  0
   17.8789  -12.7937  -17.1867 N   0  0  0  0  0  0  0  0  0  0  0  0
   19.0270  -10.7618  -16.4853 C   0  0  0  0  0  0  0  0  0  0  0  0
   18.5055  -10.5059  -15.3716 O   0  0  0  0  0  0  0  0  0  0  0  0
   20.3637  -10.4267  -16.7219 N   0  0  0  0  0  0  0  0  0  0  0  0
   21.2211   -9.7762  -15.7587 C   0  0  1  0  0  0  0  0  0  0  0  0
   22.6453  -10.3206  -15.7946 C   0  0  0  0  0  0  0  0  0  0  0  0
   23.6873   -9.4769  -14.6024 S   0  0  0  0  0  0  0  0  0  0  0  0
   21.3021   -8.3256  -15.9652 C   0  0  0  0  0  0  0  0  0  0  0  0
   21.5835   -7.8797  -17.1287 O   0  0  0  0  0  0  0  0  0  0  0  0
   21.0925   -7.3390  -14.9700 N   0  0  0  0  0  0  0  0  0  0  0  0
   21.1519   -5.8919  -15.2685 C   0  0  1  0  0  0  0  0  0  0  0  0
   19.7907   -5.3295  -15.3045 C   0  0  0  0  0  0  0  0  0  0  0  0
   19.7167   -3.8800  -15.6070 C   0  0  0  0  0  0  0  0  0  0  0  0
   18.3783   -3.2790  -15.6296 C   0  0  0  0  0  0  0  0  0  0  0  0
   17.8983   -2.6315  -14.6344 O   0  0  0  0  0  0  0  0  0  0  0  0
   22.0915   -5.2764  -14.3755 C   0  0  0  0  0  0  0  0  0  0  0  0
   22.4948   -5.8718  -13.3448 O   0  0  0  0  0  0  0  0  0  0  0  0
   17.5383   -3.3705  -16.7313 O   0  0  0  0  0  0  0  0  0  0  0  0
   22.5988   -4.0029  -14.6261 O   0  0  0  0  0  0  0  0  0  0  0  0
  2  1  1  0
  3  2  1  0
  3  5  1  0
  3  4  1  1
  5  7  1  0
  5  6  2  0
  7  8  1  0
  8  9  1  6
 10  9  1  0
 11 12  2  0
 11  8  1  0
 13 11  1  0
 14 13  1  0
 14 15  1  1
 15 16  1  0
 17 21  1  0
 17 16  1  0
 18 17  2  0
 19 14  1  0
 20 19  2  0
 22 19  1  0
M  END
$$$$
