SCE.pdb
     RDKit          3D

 22 21  0  0  1  0  0  0  0  0999 V2000
   11.7118   -7.1551  -10.4468 O   0  0  0  0  0  0  0  0  0  0  0  0
   13.0059   -7.5605  -10.2343 C   0  0  0  0  0  0  0  0  0  0  0  0
   13.1629   -9.0673  -10.4783 C   0  0  2  0  0  0  0  0  0  0  0  0
   12.6416   -9.7364   -9.3248 N   0  0  0  0  0  0  0  0  0  0  0  0
   14.6215   -9.3394  -10.6889 C   0  0  0  0  0  0  0  0  0  0  0  0
   15.3896   -9.1092   -9.7219 O   0  0  0  0  0  0  0  0  0  0  0  0
   15.1426   -9.8272  -11.8912 N   0  0  0  0  0  0  0  0  0  0  0  0
   16.5304  -10.1711  -12.0953 C   0  0  1  0  0  0  0  0  0  0  0  0
   16.6972  -11.5642  -12.6933 C   0  0  0  0  0  0  0  0  0  0  0  0
   16.5920  -12.8269  -11.4231 S   0  0  0  0  0  0  0  0  0  0  0  0
   17.2199   -9.2285  -12.9838 C   0  0  0  0  0  0  0  0  0  0  0  0
   16.6396   -8.8506  -14.0573 O   0  0  0  0  0  0  0  0  0  0  0  0
   18.5068   -8.6784  -12.7621 N   0  0  0  0  0  0  0  0  0  0  0  0
   19.0993   -7.6680  -13.6647 C   0  0  1  0  0  0  0  0  0  0  0  0
   20.0850   -6.8548  -12.9314 C   0  0  0  0  0  0  0  0  0  0  0  0
   20.7716   -5.8186  -13.7394 C   0  0  0  0  0  0  0  0  0  0  0  0
   21.8383   -5.0630  -13.0731 C   0  0  0  0  0  0  0  0  0  0  0  0
   21.8514   -3.7831  -13.0311 O   0  0  0  0  0  0  0  0  0  0  0  0
   19.5504   -8.3256  -14.8578 C   0  0  0  0  0  0  0  0  0  0  0  0
   19.3390   -7.8296  -15.9930 O   0  0  0  0  0  0  0  0  0  0  0  0
   22.9086   -5.6825  -12.4418 O   0  0  0  0  0  0  0  0  0  0  0  0
   20.2488   -9.5300  -14.7989 O   0  0  0  0  0  0  0  0  0  0  0  0
  2  1  1  0
  3  2  1  0
  3  5  1  0
  3  4  1  1
  5  7  1  0
  5  6  2  0
  7  8  1  0
  8  9  1  6
 10  9  1  0
 11 12  2  0
 11  8  1  0
 13 11  1  0
 14 13  1  0
 14 15  1  1
 15 16  1  0
 17 21  1  0
 17 16  1  0
 18 17  2  0
 19 14  1  0
 20 19  2  0
 22 19  1  0
M  END
$$$$
