SCE.pdb
     RDKit          3D

 22 21  0  0  1  0  0  0  0  0999 V2000
   18.9787   -9.9329  -18.4931 O   0  0  0  0  0  0  0  0  0  0  0  0
   19.9820  -10.6949  -19.0383 C   0  0  0  0  0  0  0  0  0  0  0  0
   20.5984  -11.6326  -17.9917 C   0  0  2  0  0  0  0  0  0  0  0  0
   19.5766  -12.5569  -17.6020 N   0  0  0  0  0  0  0  0  0  0  0  0
   21.0702  -10.7842  -16.8499 C   0  0  0  0  0  0  0  0  0  0  0  0
   20.2071  -10.4287  -16.0094 O   0  0  0  0  0  0  0  0  0  0  0  0
   22.4012  -10.3860  -16.6923 N   0  0  0  0  0  0  0  0  0  0  0  0
   22.8705   -9.5192  -15.6366 C   0  0  1  0  0  0  0  0  0  0  0  0
   24.3773   -9.6292  -15.4275 C   0  0  0  0  0  0  0  0  0  0  0  0
   24.7969  -11.1350  -14.5470 S   0  0  0  0  0  0  0  0  0  0  0  0
   22.5664   -8.1062  -15.8904 C   0  0  0  0  0  0  0  0  0  0  0  0
   22.8242   -7.6132  -17.0402 O   0  0  0  0  0  0  0  0  0  0  0  0
   21.9968   -7.2057  -14.9563 N   0  0  0  0  0  0  0  0  0  0  0  0
   21.6383   -5.8170  -15.3167 C   0  0  1  0  0  0  0  0  0  0  0  0
   20.1760   -5.6453  -15.2643 C   0  0  0  0  0  0  0  0  0  0  0  0
   19.6962   -4.2622  -15.4982 C   0  0  0  0  0  0  0  0  0  0  0  0
   18.3217   -4.1159  -15.9904 C   0  0  0  0  0  0  0  0  0  0  0  0
   17.3045   -4.5012  -15.3143 O   0  0  0  0  0  0  0  0  0  0  0  0
   22.4321   -4.9180  -14.5286 C   0  0  0  0  0  0  0  0  0  0  0  0
   22.7026   -3.7608  -14.9373 O   0  0  0  0  0  0  0  0  0  0  0  0
   18.0274   -3.5499  -17.2235 O   0  0  0  0  0  0  0  0  0  0  0  0
   22.9200   -5.2920  -13.2780 O   0  0  0  0  0  0  0  0  0  0  0  0
  2  1  1  0
  3  2  1  0
  3  5  1  0
  3  4  1  1
  5  7  1  0
  5  6  2  0
  7  8  1  0
  8  9  1  6
 10  9  1  0
 11 12  2  0
 11  8  1  0
 13 11  1  0
 14 13  1  0
 14 15  1  1
 15 16  1  0
 17 21  1  0
 17 16  1  0
 18 17  2  0
 19 14  1  0
 20 19  2  0
 22 19  1  0
M  END
$$$$
