SCE.pdb
     RDKit          3D

 22 21  0  0  1  0  0  0  0  0999 V2000
   27.6299  -17.0332  -14.5883 O   0  0  0  0  0  0  0  0  0  0  0  0
   26.9122  -18.2032  -14.5680 C   0  0  0  0  0  0  0  0  0  0  0  0
   27.8410  -19.4246  -14.5814 C   0  0  2  0  0  0  0  0  0  0  0  0
   28.1224  -19.7235  -15.9531 N   0  0  0  0  0  0  0  0  0  0  0  0
   27.1245  -20.5422  -13.8860 C   0  0  0  0  0  0  0  0  0  0  0  0
   27.0166  -21.6263  -14.5114 O   0  0  0  0  0  0  0  0  0  0  0  0
   26.5871  -20.4233  -12.6007 N   0  0  0  0  0  0  0  0  0  0  0  0
   25.5303  -21.2595  -12.0811 C   0  0  1  0  0  0  0  0  0  0  0  0
   25.6697  -21.4995  -10.5814 C   0  0  0  0  0  0  0  0  0  0  0  0
   25.7568  -19.9471   -9.6863 S   0  0  0  0  0  0  0  0  0  0  0  0
   24.1972  -20.6910  -12.3109 C   0  0  0  0  0  0  0  0  0  0  0  0
   24.0011  -19.4523  -12.0683 O   0  0  0  0  0  0  0  0  0  0  0  0
   23.0696  -21.4027  -12.7905 N   0  0  0  0  0  0  0  0  0  0  0  0
   21.7700  -20.7443  -13.0437 C   0  0  1  0  0  0  0  0  0  0  0  0
   21.6265  -20.4505  -14.4803 C   0  0  0  0  0  0  0  0  0  0  0  0
   21.8196  -21.6112  -15.3822 C   0  0  0  0  0  0  0  0  0  0  0  0
   21.6997  -21.3542  -16.8218 C   0  0  0  0  0  0  0  0  0  0  0  0
   21.8744  -22.2693  -17.7006 O   0  0  0  0  0  0  0  0  0  0  0  0
   20.7330  -21.5215  -12.4274 C   0  0  0  0  0  0  0  0  0  0  0  0
   20.9249  -22.7203  -12.1025 O   0  0  0  0  0  0  0  0  0  0  0  0
   21.3890  -20.1010  -17.3323 O   0  0  0  0  0  0  0  0  0  0  0  0
   19.4818  -20.9711  -12.1564 O   0  0  0  0  0  0  0  0  0  0  0  0
  2  1  1  0
  3  2  1  0
  3  5  1  0
  3  4  1  6
  5  7  1  0
  5  6  2  0
  7  8  1  0
  8  9  1  1
 10  9  1  0
 11 12  2  0
 11  8  1  0
 13 11  1  0
 14 13  1  0
 14 15  1  6
 15 16  1  0
 17 21  1  0
 17 16  1  0
 18 17  2  0
 19 14  1  0
 20 19  2  0
 22 19  1  0
M  END
$$$$
