MEG.pdb
     RDKit          3D

 22 21  0  0  1  0  0  0  0  0999 V2000
    7.9194  -12.0080   26.9393 C   0  0  0  0  0  0  0  0  0  0  0  0
    6.7302  -11.8113   25.5704 S   0  0  0  0  0  0  0  0  0  0  0  0
    5.9754  -13.4217   25.2162 C   0  0  0  0  0  0  0  0  0  0  0  0
    6.9201  -14.5469   25.5789 C   0  0  0  0  0  0  0  0  0  0  0  0
    6.9680  -15.6108   24.5174 C   0  0  2  0  0  0  0  0  0  0  0  0
    5.6633  -16.1625   24.3122 N   0  0  0  0  0  0  0  0  0  0  0  0
    7.9577  -16.6752   24.8120 C   0  0  0  0  0  0  0  0  0  0  0  0
    7.6853  -17.7170   25.4480 O   0  0  0  0  0  0  0  0  0  0  0  0
    9.2775  -16.5069   24.3519 N   0  0  0  0  0  0  0  0  0  0  0  0
   10.3369  -17.5219   24.5158 C   0  0  1  0  0  0  0  0  0  0  0  0
   11.4748  -17.2035   23.6036 C   0  0  0  0  0  0  0  0  0  0  0  0
   11.1398  -17.4227   22.1635 C   0  0  0  0  0  0  0  0  0  0  0  0
   12.2557  -16.9017   21.2771 C   0  0  0  0  0  0  0  0  0  0  0  0
   13.4292  -17.2336   21.5656 O   0  0  0  0  0  0  0  0  0  0  0  0
   10.6495  -17.6345   25.9388 C   0  0  0  0  0  0  0  0  0  0  0  0
   10.9959  -16.5995   26.5774 O   0  0  0  0  0  0  0  0  0  0  0  0
   11.9984  -16.0943   20.1950 O   0  0  0  0  0  0  0  0  0  0  0  0
   10.5847  -18.8399   26.6593 N   0  0  0  0  0  0  0  0  0  0  0  0
   10.8887  -18.8991   28.1029 C   0  0  0  0  0  0  0  0  0  0  0  0
   12.3154  -19.1222   28.3357 C   0  0  0  0  0  0  0  0  0  0  0  0
   13.1031  -19.1536   27.3587 O   0  0  0  0  0  0  0  0  0  0  0  0
   12.8460  -19.3032   29.6026 O   0  0  0  0  0  0  0  0  0  0  0  0
  2  1  1  0
  3  2  1  0
  4  3  1  0
  4  5  1  0
  5  6  1  1
  7  5  1  0
  8  7  2  0
  9  7  1  0
 10  9  1  0
 10 11  1  6
 11 12  1  0
 12 13  1  0
 13 17  1  0
 14 13  2  0
 15 10  1  0
 16 15  2  0
 18 15  1  0
 19 18  1  0
 20 22  1  0
 20 19  1  0
 21 20  2  0
M  END
$$$$
