MEG.pdb
     RDKit          3D

 22 21  0  0  1  0  0  0  0  0999 V2000
    7.9416  -11.2976   25.8680 C   0  0  0  0  0  0  0  0  0  0  0  0
    6.2070  -11.8385   26.0277 S   0  0  0  0  0  0  0  0  0  0  0  0
    6.0396  -13.4887   25.2949 C   0  0  0  0  0  0  0  0  0  0  0  0
    7.2915  -14.3067   25.5268 C   0  0  0  0  0  0  0  0  0  0  0  0
    7.2327  -15.6407   24.8353 C   0  0  2  0  0  0  0  0  0  0  0  0
    6.0593  -16.3544   25.2384 N   0  0  0  0  0  0  0  0  0  0  0  0
    8.4532  -16.4555   25.0494 C   0  0  0  0  0  0  0  0  0  0  0  0
    8.4847  -17.4803   25.7656 O   0  0  0  0  0  0  0  0  0  0  0  0
    9.6438  -16.0561   24.4130 N   0  0  0  0  0  0  0  0  0  0  0  0
   10.8940  -16.8402   24.4499 C   0  0  1  0  0  0  0  0  0  0  0  0
   11.7884  -16.4010   23.3383 C   0  0  0  0  0  0  0  0  0  0  0  0
   11.3653  -16.9389   22.0093 C   0  0  0  0  0  0  0  0  0  0  0  0
   12.3201  -16.4759   20.9248 C   0  0  0  0  0  0  0  0  0  0  0  0
   13.5380  -16.7298   21.0763 O   0  0  0  0  0  0  0  0  0  0  0  0
   11.4439  -16.7656   25.8017 C   0  0  0  0  0  0  0  0  0  0  0  0
   12.5811  -17.2680   26.0329 O   0  0  0  0  0  0  0  0  0  0  0  0
   11.8747  -15.8017   19.8130 O   0  0  0  0  0  0  0  0  0  0  0  0
   10.7814  -16.1562   26.8815 N   0  0  0  0  0  0  0  0  0  0  0  0
   11.3624  -16.1378   28.2386 C   0  0  0  0  0  0  0  0  0  0  0  0
   11.0052  -17.3441   28.9848 C   0  0  0  0  0  0  0  0  0  0  0  0
   10.3914  -18.2715   28.4024 O   0  0  0  0  0  0  0  0  0  0  0  0
   11.3171  -17.5137   30.3239 O   0  0  0  0  0  0  0  0  0  0  0  0
  2  1  1  0
  3  2  1  0
  4  3  1  0
  4  5  1  0
  5  6  1  1
  7  5  1  0
  8  7  2  0
  9  7  1  0
 10  9  1  0
 10 11  1  6
 11 12  1  0
 12 13  1  0
 13 17  1  0
 14 13  2  0
 15 10  1  0
 16 15  2  0
 18 15  1  0
 19 18  1  0
 20 22  1  0
 20 19  1  0
 21 20  2  0
M  END
$$$$
