MEG.pdb
     RDKit          3D

 22 21  0  0  1  0  0  0  0  0999 V2000
    5.1792  -11.6239   26.0339 C   0  0  0  0  0  0  0  0  0  0  0  0
    6.8135  -11.2114   26.7311 S   0  0  0  0  0  0  0  0  0  0  0  0
    7.7953  -12.7308   26.8570 C   0  0  0  0  0  0  0  0  0  0  0  0
    7.1625  -13.8452   26.0521 C   0  0  0  0  0  0  0  0  0  0  0  0
    7.9762  -15.1088   26.0969 C   0  0  2  0  0  0  0  0  0  0  0  0
    9.2797  -14.8384   26.6229 N   0  0  0  0  0  0  0  0  0  0  0  0
    8.0616  -15.7867   24.7806 C   0  0  0  0  0  0  0  0  0  0  0  0
    7.1094  -16.4064   24.2579 O   0  0  0  0  0  0  0  0  0  0  0  0
    9.2803  -15.7315   24.0780 N   0  0  0  0  0  0  0  0  0  0  0  0
    9.5208  -16.4314   22.8007 C   0  0  1  0  0  0  0  0  0  0  0  0
    9.4493  -15.4517   21.6767 C   0  0  0  0  0  0  0  0  0  0  0  0
    8.0914  -14.8456   21.5239 C   0  0  0  0  0  0  0  0  0  0  0  0
    7.8802  -14.3780   20.0960 C   0  0  0  0  0  0  0  0  0  0  0  0
    8.7077  -14.7545   19.2333 O   0  0  0  0  0  0  0  0  0  0  0  0
   10.7581  -17.1992   22.9229 C   0  0  0  0  0  0  0  0  0  0  0  0
   11.2132  -17.8002   21.9076 O   0  0  0  0  0  0  0  0  0  0  0  0
    6.8227  -13.5704   19.7517 O   0  0  0  0  0  0  0  0  0  0  0  0
   11.4923  -17.3118   24.1164 N   0  0  0  0  0  0  0  0  0  0  0  0
   12.7915  -18.0114   24.1659 C   0  0  0  0  0  0  0  0  0  0  0  0
   12.6371  -19.3833   24.6493 C   0  0  0  0  0  0  0  0  0  0  0  0
   11.4851  -19.8579   24.8028 O   0  0  0  0  0  0  0  0  0  0  0  0
   13.7185  -20.1952   24.9502 O   0  0  0  0  0  0  0  0  0  0  0  0
  2  1  1  0
  3  2  1  0
  4  3  1  0
  4  5  1  0
  5  6  1  6
  7  5  1  0
  8  7  2  0
  9  7  1  0
 10  9  1  0
 10 11  1  6
 11 12  1  0
 12 13  1  0
 13 17  1  0
 14 13  2  0
 15 10  1  0
 16 15  2  0
 18 15  1  0
 19 18  1  0
 20 22  1  0
 20 19  1  0
 21 20  2  0
M  END
$$$$
