MEG.pdb
     RDKit          3D

 22 21  0  0  1  0  0  0  0  0999 V2000
    8.1023  -11.8118   27.0846 C   0  0  0  0  0  0  0  0  0  0  0  0
    6.2900  -11.9706   26.9535 S   0  0  0  0  0  0  0  0  0  0  0  0
    5.8917  -13.6309   26.3429 C   0  0  0  0  0  0  0  0  0  0  0  0
    7.0520  -14.2057   25.5596 C   0  0  0  0  0  0  0  0  0  0  0  0
    6.7508  -15.5792   25.0268 C   0  0  2  0  0  0  0  0  0  0  0  0
    6.1649  -16.3888   26.0515 N   0  0  0  0  0  0  0  0  0  0  0  0
    7.9388  -16.2420   24.4365 C   0  0  0  0  0  0  0  0  0  0  0  0
    8.6865  -17.0172   25.0723 O   0  0  0  0  0  0  0  0  0  0  0  0
    8.2449  -15.9868   23.0862 N   0  0  0  0  0  0  0  0  0  0  0  0
    9.4316  -16.5332   22.3988 C   0  0  1  0  0  0  0  0  0  0  0  0
    9.2846  -16.3405   20.9258 C   0  0  0  0  0  0  0  0  0  0  0  0
   10.4311  -16.9068   20.1517 C   0  0  0  0  0  0  0  0  0  0  0  0
    9.9376  -17.5341   18.8613 C   0  0  0  0  0  0  0  0  0  0  0  0
    9.2863  -16.8078   18.0746 O   0  0  0  0  0  0  0  0  0  0  0  0
   10.6255  -15.9621   23.0184 C   0  0  0  0  0  0  0  0  0  0  0  0
   10.7113  -14.7073   23.1498 O   0  0  0  0  0  0  0  0  0  0  0  0
   10.1907  -18.8504   18.5576 O   0  0  0  0  0  0  0  0  0  0  0  0
   11.7033  -16.7308   23.4914 N   0  0  0  0  0  0  0  0  0  0  0  0
   12.9154  -16.1045   24.0555 C   0  0  0  0  0  0  0  0  0  0  0  0
   13.9461  -17.1033   24.3377 C   0  0  0  0  0  0  0  0  0  0  0  0
   14.8698  -17.2889   23.5081 O   0  0  0  0  0  0  0  0  0  0  0  0
   13.9507  -17.8653   25.4946 O   0  0  0  0  0  0  0  0  0  0  0  0
  2  1  1  0
  3  2  1  0
  4  3  1  0
  4  5  1  0
  5  6  1  1
  7  5  1  0
  8  7  2  0
  9  7  1  0
 10  9  1  0
 10 11  1  6
 11 12  1  0
 12 13  1  0
 13 17  1  0
 14 13  2  0
 15 10  1  0
 16 15  2  0
 18 15  1  0
 19 18  1  0
 20 22  1  0
 20 19  1  0
 21 20  2  0
M  END
$$$$
