MEG.pdb
     RDKit          3D

 22 21  0  0  1  0  0  0  0  0999 V2000
    7.2487  -10.9587   25.3788 C   0  0  0  0  0  0  0  0  0  0  0  0
    7.0152  -12.0406   26.8286 S   0  0  0  0  0  0  0  0  0  0  0  0
    5.5360  -13.0564   26.5674 C   0  0  0  0  0  0  0  0  0  0  0  0
    5.8455  -14.2302   25.6638 C   0  0  0  0  0  0  0  0  0  0  0  0
    7.0014  -15.0468   26.1717 C   0  0  2  0  0  0  0  0  0  0  0  0
    8.0996  -14.1925   26.5076 N   0  0  0  0  0  0  0  0  0  0  0  0
    7.4201  -16.1064   25.2223 C   0  0  0  0  0  0  0  0  0  0  0  0
    6.6809  -17.0514   24.8694 O   0  0  0  0  0  0  0  0  0  0  0  0
    8.7209  -16.0483   24.6869 N   0  0  0  0  0  0  0  0  0  0  0  0
    9.2857  -17.0809   23.7957 C   0  0  1  0  0  0  0  0  0  0  0  0
    9.7590  -16.4415   22.5325 C   0  0  0  0  0  0  0  0  0  0  0  0
   10.3841  -17.4184   21.5894 C   0  0  0  0  0  0  0  0  0  0  0  0
   10.8531  -16.7111   20.3317 C   0  0  0  0  0  0  0  0  0  0  0  0
   10.1481  -15.7703   19.8975 O   0  0  0  0  0  0  0  0  0  0  0  0
   10.2727  -17.8499   24.5506 C   0  0  0  0  0  0  0  0  0  0  0  0
   10.7500  -18.9056   24.0439 O   0  0  0  0  0  0  0  0  0  0  0  0
   12.0078  -17.0818   19.6850 O   0  0  0  0  0  0  0  0  0  0  0  0
   10.7390  -17.4836   25.8252 N   0  0  0  0  0  0  0  0  0  0  0  0
   11.7584  -18.2794   26.5375 C   0  0  0  0  0  0  0  0  0  0  0  0
   11.1390  -19.2967   27.3866 C   0  0  0  0  0  0  0  0  0  0  0  0
   10.4390  -20.1968   26.8615 O   0  0  0  0  0  0  0  0  0  0  0  0
   11.2909  -19.3136   28.7635 O   0  0  0  0  0  0  0  0  0  0  0  0
  2  1  1  0
  3  2  1  0
  4  3  1  0
  4  5  1  0
  5  6  1  6
  7  5  1  0
  8  7  2  0
  9  7  1  0
 10  9  1  0
 10 11  1  6
 11 12  1  0
 12 13  1  0
 13 17  1  0
 14 13  2  0
 15 10  1  0
 16 15  2  0
 18 15  1  0
 19 18  1  0
 20 22  1  0
 20 19  1  0
 21 20  2  0
M  END
$$$$
