MEG.pdb
     RDKit          3D

 22 21  0  0  1  0  0  0  0  0999 V2000
    8.1837  -12.3260   21.7732 C   0  0  0  0  0  0  0  0  0  0  0  0
    7.3367  -12.4164   20.1603 S   0  0  0  0  0  0  0  0  0  0  0  0
    7.4699  -14.1094   19.5245 C   0  0  0  0  0  0  0  0  0  0  0  0
    8.2515  -14.9812   20.4832 C   0  0  0  0  0  0  0  0  0  0  0  0
    8.2789  -16.4199   20.0468 C   0  0  2  0  0  0  0  0  0  0  0  0
    6.9456  -16.9310   19.9470 N   0  0  0  0  0  0  0  0  0  0  0  0
    9.1136  -17.2735   20.9265 C   0  0  0  0  0  0  0  0  0  0  0  0
    8.6494  -17.9814   21.8472 O   0  0  0  0  0  0  0  0  0  0  0  0
   10.5055  -17.2902   20.7166 N   0  0  0  0  0  0  0  0  0  0  0  0
   11.4451  -18.0934   21.5236 C   0  0  1  0  0  0  0  0  0  0  0  0
   12.8033  -18.0368   20.9068 C   0  0  0  0  0  0  0  0  0  0  0  0
   13.8132  -18.8433   21.6578 C   0  0  0  0  0  0  0  0  0  0  0  0
   15.1235  -18.8911   20.8942 C   0  0  0  0  0  0  0  0  0  0  0  0
   15.0657  -19.0260   19.6496 O   0  0  0  0  0  0  0  0  0  0  0  0
   11.3395  -17.6631   22.9161 C   0  0  0  0  0  0  0  0  0  0  0  0
   11.2862  -16.4268   23.1766 O   0  0  0  0  0  0  0  0  0  0  0  0
   16.3349  -18.7912   21.5358 O   0  0  0  0  0  0  0  0  0  0  0  0
   11.2874  -18.5501   24.0055 N   0  0  0  0  0  0  0  0  0  0  0  0
   11.1809  -18.0664   25.3964 C   0  0  0  0  0  0  0  0  0  0  0  0
   11.1779  -19.1789   26.3460 C   0  0  0  0  0  0  0  0  0  0  0  0
   11.2509  -20.3567   25.9176 O   0  0  0  0  0  0  0  0  0  0  0  0
   11.0971  -18.9910   27.7162 O   0  0  0  0  0  0  0  0  0  0  0  0
  2  1  1  0
  3  2  1  0
  4  3  1  0
  4  5  1  0
  5  6  1  1
  7  5  1  0
  8  7  2  0
  9  7  1  0
 10  9  1  0
 10 11  1  6
 11 12  1  0
 12 13  1  0
 13 17  1  0
 14 13  2  0
 15 10  1  0
 16 15  2  0
 18 15  1  0
 19 18  1  0
 20 22  1  0
 20 19  1  0
 21 20  2  0
M  END
$$$$
