MEG.pdb
     RDKit          3D

 22 21  0  0  1  0  0  0  0  0999 V2000
    5.0543  -11.0361   26.5063 C   0  0  0  0  0  0  0  0  0  0  0  0
    6.5714  -12.0361   26.3471 S   0  0  0  0  0  0  0  0  0  0  0  0
    6.1318  -13.6620   25.6753 C   0  0  0  0  0  0  0  0  0  0  0  0
    7.3750  -14.4699   25.3725 C   0  0  0  0  0  0  0  0  0  0  0  0
    7.0489  -15.8007   24.7531 C   0  0  2  0  0  0  0  0  0  0  0  0
    6.3093  -16.6069   25.6760 N   0  0  0  0  0  0  0  0  0  0  0  0
    8.2503  -16.5177   24.2613 C   0  0  0  0  0  0  0  0  0  0  0  0
    8.8350  -17.4139   24.9085 O   0  0  0  0  0  0  0  0  0  0  0  0
    8.7636  -16.1730   22.9965 N   0  0  0  0  0  0  0  0  0  0  0  0
    9.9157  -16.8498   22.3688 C   0  0  1  0  0  0  0  0  0  0  0  0
    9.9757  -16.4882   20.9217 C   0  0  0  0  0  0  0  0  0  0  0  0
    9.3446  -17.5189   20.0419 C   0  0  0  0  0  0  0  0  0  0  0  0
    9.5848  -17.1843   18.5816 C   0  0  0  0  0  0  0  0  0  0  0  0
   10.7702  -17.1771   18.1750 O   0  0  0  0  0  0  0  0  0  0  0  0
   11.1069  -16.5639   23.1655 C   0  0  0  0  0  0  0  0  0  0  0  0
   11.3609  -15.3676   23.4867 O   0  0  0  0  0  0  0  0  0  0  0  0
    8.5462  -16.8981   17.7281 O   0  0  0  0  0  0  0  0  0  0  0  0
   12.0034  -17.5509   23.6110 N   0  0  0  0  0  0  0  0  0  0  0  0
   13.1738  -17.2167   24.4466 C   0  0  0  0  0  0  0  0  0  0  0  0
   14.4096  -17.7340   23.8594 C   0  0  0  0  0  0  0  0  0  0  0  0
   15.5008  -17.5441   24.4504 O   0  0  0  0  0  0  0  0  0  0  0  0
   14.4326  -18.4339   22.6641 O   0  0  0  0  0  0  0  0  0  0  0  0
  2  1  1  0
  3  2  1  0
  4  3  1  0
  4  5  1  0
  5  6  1  1
  7  5  1  0
  8  7  2  0
  9  7  1  0
 10  9  1  0
 10 11  1  6
 11 12  1  0
 12 13  1  0
 13 17  1  0
 14 13  2  0
 15 10  1  0
 16 15  2  0
 18 15  1  0
 19 18  1  0
 20 22  1  0
 20 19  1  0
 21 20  2  0
M  END
$$$$
