MEG.pdb
     RDKit          3D

 22 21  0  0  1  0  0  0  0  0999 V2000
    5.2889  -11.2682   27.2545 C   0  0  0  0  0  0  0  0  0  0  0  0
    6.7932  -12.2470   26.9292 S   0  0  0  0  0  0  0  0  0  0  0  0
    6.3640  -13.6351   25.8442 C   0  0  0  0  0  0  0  0  0  0  0  0
    7.5928  -14.4522   25.5090 C   0  0  0  0  0  0  0  0  0  0  0  0
    7.2591  -15.6657   24.6862 C   0  0  2  0  0  0  0  0  0  0  0  0
    6.3815  -16.5303   25.4150 N   0  0  0  0  0  0  0  0  0  0  0  0
    8.4631  -16.3959   24.2209 C   0  0  0  0  0  0  0  0  0  0  0  0
    8.8488  -17.4793   24.7124 O   0  0  0  0  0  0  0  0  0  0  0  0
    9.2158  -15.8417   23.1682 N   0  0  0  0  0  0  0  0  0  0  0  0
   10.3678  -16.5192   22.5411 C   0  0  1  0  0  0  0  0  0  0  0  0
   10.5315  -16.0268   21.1413 C   0  0  0  0  0  0  0  0  0  0  0  0
    9.4913  -16.5668   20.2135 C   0  0  0  0  0  0  0  0  0  0  0  0
   10.1444  -17.1844   18.9911 C   0  0  0  0  0  0  0  0  0  0  0  0
   10.9393  -18.1356   19.1757 O   0  0  0  0  0  0  0  0  0  0  0  0
   11.5225  -16.3762   23.4252 C   0  0  0  0  0  0  0  0  0  0  0  0
   11.6252  -15.3395   24.1419 O   0  0  0  0  0  0  0  0  0  0  0  0
    9.8800  -16.7240   17.7234 O   0  0  0  0  0  0  0  0  0  0  0  0
   12.5437  -17.3359   23.5370 N   0  0  0  0  0  0  0  0  0  0  0  0
   13.4656  -17.3582   24.6899 C   0  0  0  0  0  0  0  0  0  0  0  0
   14.6743  -16.5807   24.4176 C   0  0  0  0  0  0  0  0  0  0  0  0
   14.7883  -15.9802   23.3211 O   0  0  0  0  0  0  0  0  0  0  0  0
   15.7145  -16.4745   25.3264 O   0  0  0  0  0  0  0  0  0  0  0  0
  2  1  1  0
  3  2  1  0
  4  3  1  0
  4  5  1  0
  5  6  1  1
  7  5  1  0
  8  7  2  0
  9  7  1  0
 10  9  1  0
 10 11  1  6
 11 12  1  0
 12 13  1  0
 13 17  1  0
 14 13  2  0
 15 10  1  0
 16 15  2  0
 18 15  1  0
 19 18  1  0
 20 22  1  0
 20 19  1  0
 21 20  2  0
M  END
$$$$
