MEG.pdb
     RDKit          3D

 22 21  0  0  1  0  0  0  0  0999 V2000
    7.7360  -11.4120   19.7897 C   0  0  0  0  0  0  0  0  0  0  0  0
    7.7743  -12.8180   18.6284 S   0  0  0  0  0  0  0  0  0  0  0  0
    9.2254  -13.8410   18.9971 C   0  0  0  0  0  0  0  0  0  0  0  0
    9.8201  -13.4633   20.3364 C   0  0  0  0  0  0  0  0  0  0  0  0
   11.0747  -14.2356   20.6372 C   0  0  2  0  0  0  0  0  0  0  0  0
   11.7969  -14.4943   19.4287 N   0  0  0  0  0  0  0  0  0  0  0  0
   10.8144  -15.4908   21.3828 C   0  0  0  0  0  0  0  0  0  0  0  0
    9.9822  -15.5845   22.3116 O   0  0  0  0  0  0  0  0  0  0  0  0
   11.5424  -16.6424   21.0281 N   0  0  0  0  0  0  0  0  0  0  0  0
   11.3468  -17.9615   21.6614 C   0  0  1  0  0  0  0  0  0  0  0  0
   11.8980  -19.0259   20.7717 C   0  0  0  0  0  0  0  0  0  0  0  0
   10.8590  -19.6331   19.8850 C   0  0  0  0  0  0  0  0  0  0  0  0
   11.4673  -20.7353   19.0380 C   0  0  0  0  0  0  0  0  0  0  0  0
   11.5778  -21.8713   19.5555 O   0  0  0  0  0  0  0  0  0  0  0  0
   11.8800  -17.9026   23.0207 C   0  0  0  0  0  0  0  0  0  0  0  0
   12.9877  -17.3275   23.2237 O   0  0  0  0  0  0  0  0  0  0  0  0
   11.8850  -20.5056   17.7489 O   0  0  0  0  0  0  0  0  0  0  0  0
   11.2277  -18.4496   24.1394 N   0  0  0  0  0  0  0  0  0  0  0  0
   11.6747  -18.1615   25.5167 C   0  0  0  0  0  0  0  0  0  0  0  0
   12.5623  -19.2112   26.0167 C   0  0  0  0  0  0  0  0  0  0  0  0
   12.9254  -20.1323   25.2450 O   0  0  0  0  0  0  0  0  0  0  0  0
   13.0277  -19.2369   27.3213 O   0  0  0  0  0  0  0  0  0  0  0  0
  2  1  1  0
  3  2  1  0
  4  3  1  0
  4  5  1  0
  5  6  1  6
  7  5  1  0
  8  7  2  0
  9  7  1  0
 10  9  1  0
 10 11  1  6
 11 12  1  0
 12 13  1  0
 13 17  1  0
 14 13  2  0
 15 10  1  0
 16 15  2  0
 18 15  1  0
 19 18  1  0
 20 22  1  0
 20 19  1  0
 21 20  2  0
M  END
$$$$
