MEG.pdb
     RDKit          3D

 22 21  0  0  1  0  0  0  0  0999 V2000
    5.1811  -10.9953   26.9341 C   0  0  0  0  0  0  0  0  0  0  0  0
    6.6975  -11.8986   26.4745 S   0  0  0  0  0  0  0  0  0  0  0  0
    6.2480  -13.5882   25.9935 C   0  0  0  0  0  0  0  0  0  0  0  0
    7.4786  -14.3805   25.6086 C   0  0  0  0  0  0  0  0  0  0  0  0
    7.1331  -15.7542   25.1042 C   0  0  2  0  0  0  0  0  0  0  0  0
    6.4788  -16.5071   26.1308 N   0  0  0  0  0  0  0  0  0  0  0  0
    8.3084  -16.4857   24.5724 C   0  0  0  0  0  0  0  0  0  0  0  0
    9.0632  -17.1899   25.2784 O   0  0  0  0  0  0  0  0  0  0  0  0
    8.5932  -16.3839   23.1974 N   0  0  0  0  0  0  0  0  0  0  0  0
    9.7336  -17.0578   22.5459 C   0  0  1  0  0  0  0  0  0  0  0  0
    9.4020  -17.3229   21.1147 C   0  0  0  0  0  0  0  0  0  0  0  0
   10.5162  -17.9939   20.3781 C   0  0  0  0  0  0  0  0  0  0  0  0
   10.1207  -18.2401   18.9341 C   0  0  0  0  0  0  0  0  0  0  0  0
    8.9030  -18.4004   18.6848 O   0  0  0  0  0  0  0  0  0  0  0  0
   10.9398  -16.2745   22.8048 C   0  0  0  0  0  0  0  0  0  0  0  0
   10.9268  -15.0304   22.5787 O   0  0  0  0  0  0  0  0  0  0  0  0
   11.0571  -18.2876   17.9290 O   0  0  0  0  0  0  0  0  0  0  0  0
   12.1347  -16.8226   23.3026 N   0  0  0  0  0  0  0  0  0  0  0  0
   13.3192  -15.9846   23.5751 C   0  0  0  0  0  0  0  0  0  0  0  0
   14.5120  -16.5240   22.9224 C   0  0  0  0  0  0  0  0  0  0  0  0
   14.5821  -17.7544   22.6835 O   0  0  0  0  0  0  0  0  0  0  0  0
   15.5836  -15.7289   22.5500 O   0  0  0  0  0  0  0  0  0  0  0  0
  2  1  1  0
  3  2  1  0
  4  3  1  0
  4  5  1  0
  5  6  1  1
  7  5  1  0
  8  7  2  0
  9  7  1  0
 10  9  1  0
 10 11  1  6
 11 12  1  0
 12 13  1  0
 13 17  1  0
 14 13  2  0
 15 10  1  0
 16 15  2  0
 18 15  1  0
 19 18  1  0
 20 22  1  0
 20 19  1  0
 21 20  2  0
M  END
$$$$
