MEG.pdb
     RDKit          3D

 22 21  0  0  1  0  0  0  0  0999 V2000
    9.3949  -11.6895   19.3867 C   0  0  0  0  0  0  0  0  0  0  0  0
    7.8188  -12.5022   18.9598 S   0  0  0  0  0  0  0  0  0  0  0  0
    7.4756  -13.7924   20.1868 C   0  0  0  0  0  0  0  0  0  0  0  0
    8.7166  -14.6142   20.4608 C   0  0  0  0  0  0  0  0  0  0  0  0
    8.4494  -15.7413   21.4196 C   0  0  2  0  0  0  0  0  0  0  0  0
    7.8309  -15.2411   22.6096 N   0  0  0  0  0  0  0  0  0  0  0  0
    9.6660  -16.5266   21.7397 C   0  0  0  0  0  0  0  0  0  0  0  0
   10.0335  -17.5297   21.0895 O   0  0  0  0  0  0  0  0  0  0  0  0
   10.4529  -16.1235   22.8352 N   0  0  0  0  0  0  0  0  0  0  0  0
   11.6836  -16.8199   23.2590 C   0  0  1  0  0  0  0  0  0  0  0  0
   12.8638  -15.9423   23.0031 C   0  0  0  0  0  0  0  0  0  0  0  0
   13.1836  -15.8135   21.5487 C   0  0  0  0  0  0  0  0  0  0  0  0
   14.4831  -15.0534   21.3597 C   0  0  0  0  0  0  0  0  0  0  0  0
   15.1402  -14.7626   22.3865 O   0  0  0  0  0  0  0  0  0  0  0  0
   11.4989  -17.2860   24.6316 C   0  0  0  0  0  0  0  0  0  0  0  0
   11.3730  -16.4359   25.5592 O   0  0  0  0  0  0  0  0  0  0  0  0
   14.9314  -14.6924   20.1116 O   0  0  0  0  0  0  0  0  0  0  0  0
   11.4461  -18.6430   24.9949 N   0  0  0  0  0  0  0  0  0  0  0  0
   11.1012  -19.0669   26.3664 C   0  0  0  0  0  0  0  0  0  0  0  0
   12.2933  -19.1574   27.2091 C   0  0  0  0  0  0  0  0  0  0  0  0
   13.4235  -18.9465   26.7050 O   0  0  0  0  0  0  0  0  0  0  0  0
   12.2327  -19.4696   28.5575 O   0  0  0  0  0  0  0  0  0  0  0  0
  2  1  1  0
  3  2  1  0
  4  3  1  0
  4  5  1  0
  5  6  1  1
  7  5  1  0
  8  7  2  0
  9  7  1  0
 10  9  1  0
 10 11  1  1
 11 12  1  0
 12 13  1  0
 13 17  1  0
 14 13  2  0
 15 10  1  0
 16 15  2  0
 18 15  1  0
 19 18  1  0
 20 22  1  0
 20 19  1  0
 21 20  2  0
M  END
$$$$
