MEG.pdb
     RDKit          3D

 22 21  0  0  1  0  0  0  0  0999 V2000
    7.1886  -12.1481   27.7896 C   0  0  0  0  0  0  0  0  0  0  0  0
    6.4953  -11.7435   26.1518 S   0  0  0  0  0  0  0  0  0  0  0  0
    5.9430  -13.2765   25.3561 C   0  0  0  0  0  0  0  0  0  0  0  0
    6.9087  -14.4059   25.6421 C   0  0  0  0  0  0  0  0  0  0  0  0
    7.0553  -15.3364   24.4701 C   0  0  2  0  0  0  0  0  0  0  0  0
    5.7944  -15.9362   24.1551 N   0  0  0  0  0  0  0  0  0  0  0  0
    8.0998  -16.3681   24.6801 C   0  0  0  0  0  0  0  0  0  0  0  0
    7.9220  -17.4061   25.3546 O   0  0  0  0  0  0  0  0  0  0  0  0
    9.3623  -16.1713   24.0889 N   0  0  0  0  0  0  0  0  0  0  0  0
   10.5105  -17.0768   24.2911 C   0  0  1  0  0  0  0  0  0  0  0  0
   11.6492  -16.6336   23.4336 C   0  0  0  0  0  0  0  0  0  0  0  0
   12.8531  -17.5085   23.5739 C   0  0  0  0  0  0  0  0  0  0  0  0
   13.3828  -17.9000   22.2071 C   0  0  0  0  0  0  0  0  0  0  0  0
   14.2615  -17.1686   21.6937 O   0  0  0  0  0  0  0  0  0  0  0  0
   10.7706  -17.1764   25.7256 C   0  0  0  0  0  0  0  0  0  0  0  0
   10.9765  -16.1199   26.3893 O   0  0  0  0  0  0  0  0  0  0  0  0
   12.9216  -19.0145   21.5481 O   0  0  0  0  0  0  0  0  0  0  0  0
   10.8028  -18.3922   26.4306 N   0  0  0  0  0  0  0  0  0  0  0  0
   11.1186  -18.4461   27.8718 C   0  0  0  0  0  0  0  0  0  0  0  0
   12.3615  -19.1778   28.1154 C   0  0  0  0  0  0  0  0  0  0  0  0
   13.0837  -19.5093   27.1435 O   0  0  0  0  0  0  0  0  0  0  0  0
   12.7852  -19.5275   29.3872 O   0  0  0  0  0  0  0  0  0  0  0  0
  2  1  1  0
  3  2  1  0
  4  3  1  0
  4  5  1  0
  5  6  1  1
  7  5  1  0
  8  7  2  0
  9  7  1  0
 10  9  1  0
 10 11  1  6
 11 12  1  0
 12 13  1  0
 13 17  1  0
 14 13  2  0
 15 10  1  0
 16 15  2  0
 18 15  1  0
 19 18  1  0
 20 22  1  0
 20 19  1  0
 21 20  2  0
M  END
$$$$
