NIQ.pdb
     RDKit          3D

 26 25  0  0  1  0  0  0  0  0999 V2000
   27.7638  -21.6341  -19.1476 N   0  0  0  0  0  0  0  0  0  0  0  0
   26.3729  -21.4936  -18.9814 C   0  0  0  0  0  0  0  0  0  0  0  0
   25.6789  -21.0625  -19.9199 O   0  0  0  0  0  0  0  0  0  0  0  0
   25.7431  -21.8546  -17.7051 C   0  0  0  0  0  0  0  0  0  0  0  0
   26.7181  -22.2924  -16.6566 C   0  0  2  0  0  0  0  0  0  0  0  0
   27.2630  -23.5939  -16.8764 N   0  0  0  0  0  0  0  0  0  0  0  0
   25.9899  -22.2236  -15.3370 C   0  0  0  0  0  0  0  0  0  0  0  0
   25.1980  -23.1541  -15.0619 O   0  0  0  0  0  0  0  0  0  0  0  0
   25.2725  -21.3092   -9.9736 C   0  0  0  0  0  0  0  0  0  0  0  0
   25.7791  -20.1965  -10.8201 C   0  0  0  0  0  0  0  0  0  0  0  0
   26.2668  -20.5187  -12.1677 C   0  0  2  0  0  0  0  0  0  0  0  0
   27.1513  -19.3978  -12.6977 C   0  0  0  0  0  0  0  0  0  0  0  0
   25.3984  -21.1704  -13.1645 C   0  0  2  0  0  0  0  0  0  0  0  0
   26.1664  -21.1822  -14.4360 N   0  0  0  0  0  0  0  0  0  0  0  0
   24.0584  -20.6529  -13.4038 C   0  0  0  0  0  0  0  0  0  0  0  0
   23.8684  -19.4701  -13.8789 O   0  0  0  0  0  0  0  0  0  0  0  0
   19.3951  -22.7398  -16.6147 N   0  0  0  0  0  0  0  0  0  0  0  0
   19.6511  -21.3433  -16.6863 C   0  0  0  0  0  0  0  0  0  0  0  0
   19.2382  -20.7400  -17.7376 O   0  0  0  0  0  0  0  0  0  0  0  0
   20.3491  -20.6087  -15.6106 C   0  0  0  0  0  0  0  0  0  0  0  0
   20.8711  -21.4357  -14.4927 C   0  0  0  0  0  0  0  0  0  0  0  0
   21.5475  -20.7560  -13.3524 C   0  0  2  0  0  0  0  0  0  0  0  0
   22.8752  -21.3826  -13.1537 N   0  0  0  0  0  0  0  0  0  0  0  0
   20.7822  -20.7375  -12.1291 C   0  0  0  0  0  0  0  0  0  0  0  0
   19.5998  -20.0105  -11.9206 O   0  0  0  0  0  0  0  0  0  0  0  0
   21.1625  -21.4186  -11.1148 O   0  0  0  0  0  0  0  0  0  0  0  0
  2  1  1  0
  2  3  2  0
  4  2  1  0
  5  7  1  0
  5  4  1  0
  5  6  1  6
  7  8  2  0
  9 10  1  0
 11 10  1  0
 11 12  1  6
 13 14  1  6
 13 11  1  0
 14  7  1  0
 15 13  1  0
 16 15  2  0
 18 20  1  0
 18 17  1  0
 19 18  2  0
 21 20  1  0
 22 23  1  0
 22 21  1  6
 23 15  1  0
 24 22  1  0
 25 24  1  0
 26 24  2  0
M  END
$$$$
