NIQ.pdb
     RDKit          3D

 26 25  0  0  1  0  0  0  0  0999 V2000
   28.4594  -20.3643  -17.3969 N   0  0  0  0  0  0  0  0  0  0  0  0
   27.0988  -20.0160  -17.4942 C   0  0  0  0  0  0  0  0  0  0  0  0
   26.7198  -19.2523  -18.4005 O   0  0  0  0  0  0  0  0  0  0  0  0
   26.1301  -20.5520  -16.5298 C   0  0  0  0  0  0  0  0  0  0  0  0
   26.7533  -21.3818  -15.4504 C   0  0  2  0  0  0  0  0  0  0  0  0
   27.3129  -22.6116  -15.9123 N   0  0  0  0  0  0  0  0  0  0  0  0
   25.6775  -21.6264  -14.4212 C   0  0  0  0  0  0  0  0  0  0  0  0
   24.9581  -22.6417  -14.5636 O   0  0  0  0  0  0  0  0  0  0  0  0
   26.6979  -20.6562   -9.2596 C   0  0  0  0  0  0  0  0  0  0  0  0
   26.1769  -21.2082  -10.5383 C   0  0  0  0  0  0  0  0  0  0  0  0
   24.9004  -20.6891  -11.0472 C   0  0  2  0  0  0  0  0  0  0  0  0
   23.8677  -20.6224   -9.9298 C   0  0  0  0  0  0  0  0  0  0  0  0
   24.3830  -21.0819  -12.3702 C   0  0  2  0  0  0  0  0  0  0  0  0
   25.4641  -20.7786  -13.3428 N   0  0  0  0  0  0  0  0  0  0  0  0
   23.1230  -20.5286  -12.8466 C   0  0  0  0  0  0  0  0  0  0  0  0
   22.9531  -19.2580  -12.9793 O   0  0  0  0  0  0  0  0  0  0  0  0
   20.4221  -18.8971  -16.3233 N   0  0  0  0  0  0  0  0  0  0  0  0
   21.1206  -20.0500  -16.7749 C   0  0  0  0  0  0  0  0  0  0  0  0
   21.8330  -19.9097  -17.8297 O   0  0  0  0  0  0  0  0  0  0  0  0
   21.0459  -21.3484  -16.0728 C   0  0  0  0  0  0  0  0  0  0  0  0
   20.2263  -21.3704  -14.8344 C   0  0  0  0  0  0  0  0  0  0  0  0
   20.7367  -20.6679  -13.6236 C   0  0  2  0  0  0  0  0  0  0  0  0
   22.0042  -21.3118  -13.2072 N   0  0  0  0  0  0  0  0  0  0  0  0
   19.7949  -20.5976  -12.5325 C   0  0  0  0  0  0  0  0  0  0  0  0
   18.7223  -19.6969  -12.4409 O   0  0  0  0  0  0  0  0  0  0  0  0
   19.8942  -21.3948  -11.5365 O   0  0  0  0  0  0  0  0  0  0  0  0
  2  1  1  0
  2  3  2  0
  4  2  1  0
  5  7  1  0
  5  4  1  0
  5  6  1  6
  7  8  2  0
  9 10  1  0
 11 10  1  0
 11 12  1  1
 13 14  1  6
 13 11  1  0
 14  7  1  0
 15 13  1  0
 16 15  2  0
 18 20  1  0
 18 17  1  0
 19 18  2  0
 21 20  1  0
 22 23  1  0
 22 21  1  6
 23 15  1  0
 24 22  1  0
 25 24  1  0
 26 24  2  0
M  END
$$$$
