NIQ.pdb
     RDKit          3D

 26 25  0  0  1  0  0  0  0  0999 V2000
   20.5510  -22.7596   -8.3372 N   0  0  0  0  0  0  0  0  0  0  0  0
   20.1050  -22.3244   -9.5996 C   0  0  0  0  0  0  0  0  0  0  0  0
   18.9833  -22.6710  -10.0119 O   0  0  0  0  0  0  0  0  0  0  0  0
   20.9602  -21.4644  -10.4271 C   0  0  0  0  0  0  0  0  0  0  0  0
   22.3045  -21.1960   -9.8249 C   0  0  2  0  0  0  0  0  0  0  0  0
   22.2572  -20.4633   -8.6001 N   0  0  0  0  0  0  0  0  0  0  0  0
   23.1040  -20.4575  -10.8698 C   0  0  0  0  0  0  0  0  0  0  0  0
   22.9626  -19.2150  -10.9378 O   0  0  0  0  0  0  0  0  0  0  0  0
   28.2695  -19.8461  -13.2832 C   0  0  0  0  0  0  0  0  0  0  0  0
   27.0453  -20.4809  -13.8399 C   0  0  0  0  0  0  0  0  0  0  0  0
   26.0338  -20.9776  -12.8977 C   0  0  2  0  0  0  0  0  0  0  0  0
   25.9910  -22.4999  -12.9137 C   0  0  0  0  0  0  0  0  0  0  0  0
   24.7313  -20.3053  -12.7426 C   0  0  2  0  0  0  0  0  0  0  0  0
   23.9739  -21.0990  -11.7410 N   0  0  0  0  0  0  0  0  0  0  0  0
   23.8980  -20.0657  -13.9127 C   0  0  0  0  0  0  0  0  0  0  0  0
   23.1657  -20.9970  -14.4197 O   0  0  0  0  0  0  0  0  0  0  0  0
   19.9024  -17.1688  -15.8440 N   0  0  0  0  0  0  0  0  0  0  0  0
   20.5251  -16.8280  -17.0758 C   0  0  0  0  0  0  0  0  0  0  0  0
   19.7453  -16.5319  -18.0474 O   0  0  0  0  0  0  0  0  0  0  0  0
   21.9933  -16.8047  -17.2426 C   0  0  0  0  0  0  0  0  0  0  0  0
   22.7879  -17.2178  -16.0578 C   0  0  0  0  0  0  0  0  0  0  0  0
   22.9678  -18.6717  -15.7859 C   0  0  2  0  0  0  0  0  0  0  0  0
   23.8097  -18.8219  -14.5762 N   0  0  0  0  0  0  0  0  0  0  0  0
   23.4971  -19.4259  -16.8966 C   0  0  0  0  0  0  0  0  0  0  0  0
   22.7340  -20.1566  -17.8206 O   0  0  0  0  0  0  0  0  0  0  0  0
   24.7583  -19.4720  -17.1081 O   0  0  0  0  0  0  0  0  0  0  0  0
  2  1  1  0
  2  3  2  0
  4  2  1  0
  5  7  1  0
  5  4  1  0
  5  6  1  1
  7  8  2  0
  9 10  1  0
 11 10  1  0
 11 12  1  6
 13 14  1  1
 13 11  1  0
 14  7  1  0
 15 13  1  0
 16 15  2  0
 18 20  1  0
 18 17  1  0
 19 18  2  0
 21 20  1  0
 22 23  1  0
 22 21  1  6
 23 15  1  0
 24 22  1  0
 25 24  1  0
 26 24  2  0
M  END
$$$$
