NIQ.pdb
     RDKit          3D

 26 25  0  0  1  0  0  0  0  0999 V2000
   17.8447  -11.6649  -13.7265 N   0  0  0  0  0  0  0  0  0  0  0  0
   18.0883  -10.3182  -14.0570 C   0  0  0  0  0  0  0  0  0  0  0  0
   19.0606  -10.0246  -14.7759 O   0  0  0  0  0  0  0  0  0  0  0  0
   17.1983   -9.2637  -13.5553 C   0  0  0  0  0  0  0  0  0  0  0  0
   16.1424   -9.7638  -12.6190 C   0  0  2  0  0  0  0  0  0  0  0  0
   15.1655  -10.6013  -13.2381 N   0  0  0  0  0  0  0  0  0  0  0  0
   15.5016   -8.5446  -12.0031 C   0  0  0  0  0  0  0  0  0  0  0  0
   14.5641   -8.0017  -12.6314 O   0  0  0  0  0  0  0  0  0  0  0  0
   13.0192   -5.5815   -8.4757 C   0  0  0  0  0  0  0  0  0  0  0  0
   14.2928   -6.1381   -7.9471 C   0  0  0  0  0  0  0  0  0  0  0  0
   15.0488   -7.0661   -8.7985 C   0  0  2  0  0  0  0  0  0  0  0  0
   16.2760   -7.5871   -8.0622 C   0  0  0  0  0  0  0  0  0  0  0  0
   15.2296   -6.8143  -10.2394 C   0  0  2  0  0  0  0  0  0  0  0  0
   15.9104   -8.0160  -10.7862 N   0  0  0  0  0  0  0  0  0  0  0  0
   15.9228   -5.6122  -10.6814 C   0  0  0  0  0  0  0  0  0  0  0  0
   17.2096   -5.5427  -10.6921 O   0  0  0  0  0  0  0  0  0  0  0  0
   16.1077   -3.0332  -15.9066 N   0  0  0  0  0  0  0  0  0  0  0  0
   16.6256   -1.9547  -15.1388 C   0  0  0  0  0  0  0  0  0  0  0  0
   17.0224   -0.9272  -15.7920 O   0  0  0  0  0  0  0  0  0  0  0  0
   16.7033   -1.9967  -13.6636 C   0  0  0  0  0  0  0  0  0  0  0  0
   16.1110   -3.1951  -13.0163 C   0  0  0  0  0  0  0  0  0  0  0  0
   16.0467   -3.2491  -11.5287 C   0  0  2  0  0  0  0  0  0  0  0  0
   15.2676   -4.4465  -11.1362 N   0  0  0  0  0  0  0  0  0  0  0  0
   15.5278   -2.0533  -10.9096 C   0  0  0  0  0  0  0  0  0  0  0  0
   16.2697   -0.8952  -10.6294 O   0  0  0  0  0  0  0  0  0  0  0  0
   14.2980   -1.9825  -10.5633 O   0  0  0  0  0  0  0  0  0  0  0  0
  2  1  1  0
  2  3  2  0
  4  2  1  0
  5  7  1  0
  5  4  1  0
  5  6  1  6
  7  8  2  0
  9 10  1  0
 11 10  1  0
 11 12  1  1
 13 14  1  1
 13 11  1  0
 14  7  1  0
 15 13  1  0
 16 15  2  0
 18 20  1  0
 18 17  1  0
 19 18  2  0
 21 20  1  0
 22 23  1  0
 22 21  1  6
 23 15  1  0
 24 22  1  0
 25 24  1  0
 26 24  2  0
M  END
$$$$
