NIQ.pdb
     RDKit          3D

 26 25  0  0  1  0  0  0  0  0999 V2000
   18.9854  -24.8696   -6.5186 N   0  0  0  0  0  0  0  0  0  0  0  0
   18.6083  -24.5016   -7.8241 C   0  0  0  0  0  0  0  0  0  0  0  0
   17.7257  -25.1474   -8.4175 O   0  0  0  0  0  0  0  0  0  0  0  0
   19.2540  -23.3595   -8.4833 C   0  0  0  0  0  0  0  0  0  0  0  0
   20.3330  -22.7235   -7.6628 C   0  0  2  0  0  0  0  0  0  0  0  0
   19.8649  -22.1117   -6.4604 N   0  0  0  0  0  0  0  0  0  0  0  0
   21.0148  -21.7164   -8.5557 C   0  0  0  0  0  0  0  0  0  0  0  0
   20.3995  -20.6555   -8.8095 O   0  0  0  0  0  0  0  0  0  0  0  0
   26.2115  -20.5233   -8.0247 C   0  0  0  0  0  0  0  0  0  0  0  0
   24.7486  -20.5563   -8.2900 C   0  0  0  0  0  0  0  0  0  0  0  0
   24.2999  -20.8362   -9.6604 C   0  0  2  0  0  0  0  0  0  0  0  0
   25.1817  -20.1122  -10.6694 C   0  0  0  0  0  0  0  0  0  0  0  0
   22.8677  -20.9071  -10.0014 C   0  0  2  0  0  0  0  0  0  0  0  0
   22.2774  -21.9244   -9.0940 N   0  0  0  0  0  0  0  0  0  0  0  0
   22.4645  -21.1789  -11.3741 C   0  0  0  0  0  0  0  0  0  0  0  0
   22.6054  -22.3477  -11.8982 O   0  0  0  0  0  0  0  0  0  0  0  0
   17.4914  -22.5615  -12.9802 N   0  0  0  0  0  0  0  0  0  0  0  0
   18.0048  -22.3974  -14.2957 C   0  0  0  0  0  0  0  0  0  0  0  0
   17.2724  -22.8300  -15.2529 O   0  0  0  0  0  0  0  0  0  0  0  0
   19.3097  -21.7574  -14.5637 C   0  0  0  0  0  0  0  0  0  0  0  0
   20.0957  -21.3602  -13.3678 C   0  0  0  0  0  0  0  0  0  0  0  0
   21.3671  -20.6079  -13.5621 C   0  0  2  0  0  0  0  0  0  0  0  0
   21.8880  -20.2160  -12.2318 N   0  0  0  0  0  0  0  0  0  0  0  0
   21.2595  -19.4713  -14.4446 C   0  0  0  0  0  0  0  0  0  0  0  0
   21.6089  -19.4613  -15.8040 O   0  0  0  0  0  0  0  0  0  0  0  0
   20.8174  -18.3517  -14.0106 O   0  0  0  0  0  0  0  0  0  0  0  0
  2  1  1  0
  2  3  2  0
  4  2  1  0
  5  7  1  0
  5  4  1  0
  5  6  1  1
  7  8  2  0
  9 10  1  0
 11 10  1  0
 11 12  1  6
 13 14  1  1
 13 11  1  0
 14  7  1  0
 15 13  1  0
 16 15  2  0
 18 20  1  0
 18 17  1  0
 19 18  2  0
 21 20  1  0
 22 23  1  0
 22 21  1  1
 23 15  1  0
 24 22  1  0
 25 24  1  0
 26 24  2  0
M  END
$$$$
