NIQ.pdb
     RDKit          3D

 26 25  0  0  1  0  0  0  0  0999 V2000
   23.0538  -18.7064  -20.8822 N   0  0  0  0  0  0  0  0  0  0  0  0
   22.2794  -17.5319  -20.9354 C   0  0  0  0  0  0  0  0  0  0  0  0
   21.5837  -17.2954  -21.9396 O   0  0  0  0  0  0  0  0  0  0  0  0
   22.2926  -16.5889  -19.8100 C   0  0  0  0  0  0  0  0  0  0  0  0
   23.1603  -17.0254  -18.6706 C   0  0  2  0  0  0  0  0  0  0  0  0
   22.6915  -18.1941  -17.9972 N   0  0  0  0  0  0  0  0  0  0  0  0
   23.2508  -15.8528  -17.7255 C   0  0  0  0  0  0  0  0  0  0  0  0
   22.2487  -15.5982  -17.0188 O   0  0  0  0  0  0  0  0  0  0  0  0
   28.2371  -13.2785  -16.5536 C   0  0  0  0  0  0  0  0  0  0  0  0
   26.8647  -13.3727  -17.1183 C   0  0  0  0  0  0  0  0  0  0  0  0
   25.7692  -13.7504  -16.2155 C   0  0  2  0  0  0  0  0  0  0  0  0
   26.2324  -14.8152  -15.2301 C   0  0  0  0  0  0  0  0  0  0  0  0
   24.3853  -13.8919  -16.7026 C   0  0  2  0  0  0  0  0  0  0  0  0
   24.3872  -15.0628  -17.6167 N   0  0  0  0  0  0  0  0  0  0  0  0
   23.7279  -12.7643  -17.3486 C   0  0  0  0  0  0  0  0  0  0  0  0
   23.8763  -12.5293  -18.6070 O   0  0  0  0  0  0  0  0  0  0  0  0
   21.0715  -11.4942  -21.1056 N   0  0  0  0  0  0  0  0  0  0  0  0
   20.1947  -10.5960  -20.4382 C   0  0  0  0  0  0  0  0  0  0  0  0
   19.3711   -9.9486  -21.1746 O   0  0  0  0  0  0  0  0  0  0  0  0
   20.2139  -10.4113  -18.9720 C   0  0  0  0  0  0  0  0  0  0  0  0
   21.0993  -11.3315  -18.2135 C   0  0  0  0  0  0  0  0  0  0  0  0
   22.2188  -10.7555  -17.4165 C   0  0  2  0  0  0  0  0  0  0  0  0
   22.8818  -11.8545  -16.6768 N   0  0  0  0  0  0  0  0  0  0  0  0
   21.8326   -9.6807  -16.5344 C   0  0  0  0  0  0  0  0  0  0  0  0
   21.6044   -8.3516  -16.9234 O   0  0  0  0  0  0  0  0  0  0  0  0
   21.6707   -9.8940  -15.2831 O   0  0  0  0  0  0  0  0  0  0  0  0
  2  1  1  0
  2  3  2  0
  4  2  1  0
  5  7  1  0
  5  4  1  0
  5  6  1  1
  7  8  2  0
  9 10  1  0
 11 10  1  0
 11 12  1  6
 13 14  1  6
 13 11  1  0
 14  7  1  0
 15 13  1  0
 16 15  2  0
 18 20  1  0
 18 17  1  0
 19 18  2  0
 21 20  1  0
 22 23  1  0
 22 21  1  1
 23 15  1  0
 24 22  1  0
 25 24  1  0
 26 24  2  0
M  END
$$$$
