NIQ.pdb
     RDKit          3D

 26 25  0  0  1  0  0  0  0  0999 V2000
   26.4548  -19.3268  -19.0351 N   0  0  0  0  0  0  0  0  0  0  0  0
   26.8236  -19.2903  -17.6769 C   0  0  0  0  0  0  0  0  0  0  0  0
   27.8411  -18.6639  -17.3296 O   0  0  0  0  0  0  0  0  0  0  0  0
   26.0106  -19.9890  -16.6735 C   0  0  0  0  0  0  0  0  0  0  0  0
   26.7525  -21.0643  -15.9420 C   0  0  2  0  0  0  0  0  0  0  0  0
   27.1454  -22.1629  -16.7652 N   0  0  0  0  0  0  0  0  0  0  0  0
   25.8528  -21.5201  -14.8198 C   0  0  0  0  0  0  0  0  0  0  0  0
   25.0452  -22.4459  -15.0631 O   0  0  0  0  0  0  0  0  0  0  0  0
   25.3879  -21.1323   -8.7007 C   0  0  0  0  0  0  0  0  0  0  0  0
   24.7031  -21.3762   -9.9979 C   0  0  0  0  0  0  0  0  0  0  0  0
   25.4715  -21.1788  -11.2341 C   0  0  2  0  0  0  0  0  0  0  0  0
   26.4493  -20.0219  -11.0760 C   0  0  0  0  0  0  0  0  0  0  0  0
   24.8402  -21.3027  -12.5602 C   0  0  2  0  0  0  0  0  0  0  0  0
   25.8911  -20.9570  -13.5515 N   0  0  0  0  0  0  0  0  0  0  0  0
   23.6232  -20.5585  -12.8534 C   0  0  0  0  0  0  0  0  0  0  0  0
   23.6157  -19.2705  -12.8968 O   0  0  0  0  0  0  0  0  0  0  0  0
   19.5406  -21.5248  -17.2826 N   0  0  0  0  0  0  0  0  0  0  0  0
   18.9184  -20.4796  -16.5467 C   0  0  0  0  0  0  0  0  0  0  0  0
   17.8804  -19.9480  -17.0757 O   0  0  0  0  0  0  0  0  0  0  0  0
   19.4246  -20.0224  -15.2357 C   0  0  0  0  0  0  0  0  0  0  0  0
   20.6348  -20.7184  -14.7287 C   0  0  0  0  0  0  0  0  0  0  0  0
   21.1797  -20.3318  -13.3969 C   0  0  2  0  0  0  0  0  0  0  0  0
   22.3746  -21.1626  -13.1200 N   0  0  0  0  0  0  0  0  0  0  0  0
   20.2244  -20.4018  -12.3176 C   0  0  0  0  0  0  0  0  0  0  0  0
   19.3455  -19.3740  -11.9416 O   0  0  0  0  0  0  0  0  0  0  0  0
   20.1237  -21.4612  -11.6070 O   0  0  0  0  0  0  0  0  0  0  0  0
  2  1  1  0
  2  3  2  0
  4  2  1  0
  5  7  1  0
  5  4  1  0
  5  6  1  6
  7  8  2  0
  9 10  1  0
 11 10  1  0
 11 12  1  1
 13 14  1  6
 13 11  1  0
 14  7  1  0
 15 13  1  0
 16 15  2  0
 18 20  1  0
 18 17  1  0
 19 18  2  0
 21 20  1  0
 22 23  1  0
 22 21  1  6
 23 15  1  0
 24 22  1  0
 25 24  1  0
 26 24  2  0
M  END
$$$$
