NIQ.pdb
     RDKit          3D

 26 25  0  0  1  0  0  0  0  0999 V2000
   28.0513  -19.2262  -18.4195 N   0  0  0  0  0  0  0  0  0  0  0  0
   27.9346  -18.9128  -17.0520 C   0  0  0  0  0  0  0  0  0  0  0  0
   28.6368  -18.0095  -16.5630 O   0  0  0  0  0  0  0  0  0  0  0  0
   26.9875  -19.6492  -16.2055 C   0  0  0  0  0  0  0  0  0  0  0  0
   27.6476  -20.5549  -15.2126 C   0  0  2  0  0  0  0  0  0  0  0  0
   28.3447  -21.6534  -15.8013 N   0  0  0  0  0  0  0  0  0  0  0  0
   26.5622  -21.0358  -14.2814 C   0  0  0  0  0  0  0  0  0  0  0  0
   25.8670  -22.0086  -14.6538 O   0  0  0  0  0  0  0  0  0  0  0  0
   27.2783  -20.5975   -8.9327 C   0  0  0  0  0  0  0  0  0  0  0  0
   26.8804  -21.0873  -10.2792 C   0  0  0  0  0  0  0  0  0  0  0  0
   25.5783  -20.6654  -10.8123 C   0  0  2  0  0  0  0  0  0  0  0  0
   24.4833  -20.8752   -9.7748 C   0  0  0  0  0  0  0  0  0  0  0  0
   25.1938  -20.9387  -12.2086 C   0  0  2  0  0  0  0  0  0  0  0  0
   26.3148  -20.4456  -13.0494 N   0  0  0  0  0  0  0  0  0  0  0  0
   23.9309  -20.4279  -12.7234 C   0  0  0  0  0  0  0  0  0  0  0  0
   23.7733  -19.1797  -13.0027 O   0  0  0  0  0  0  0  0  0  0  0  0
   21.6036  -17.8111  -15.9276 N   0  0  0  0  0  0  0  0  0  0  0  0
   20.5545  -18.7108  -16.2607 C   0  0  0  0  0  0  0  0  0  0  0  0
   19.5942  -18.2344  -16.9612 O   0  0  0  0  0  0  0  0  0  0  0  0
   20.5587  -20.1263  -15.8357 C   0  0  0  0  0  0  0  0  0  0  0  0
   21.7208  -20.5545  -15.0159 C   0  0  0  0  0  0  0  0  0  0  0  0
   21.5624  -20.6417  -13.5370 C   0  0  2  0  0  0  0  0  0  0  0  0
   22.7958  -21.2323  -12.9673 N   0  0  0  0  0  0  0  0  0  0  0  0
   20.3848  -21.3544  -13.1035 C   0  0  0  0  0  0  0  0  0  0  0  0
   19.1184  -20.7845  -12.8998 O   0  0  0  0  0  0  0  0  0  0  0  0
   20.4363  -22.6110  -12.8678 O   0  0  0  0  0  0  0  0  0  0  0  0
  2  1  1  0
  2  3  2  0
  4  2  1  0
  5  7  1  0
  5  4  1  0
  5  6  1  6
  7  8  2  0
  9 10  1  0
 11 10  1  0
 11 12  1  1
 13 14  1  6
 13 11  1  0
 14  7  1  0
 15 13  1  0
 16 15  2  0
 18 20  1  0
 18 17  1  0
 19 18  2  0
 21 20  1  0
 22 23  1  0
 22 21  1  6
 23 15  1  0
 24 22  1  0
 25 24  1  0
 26 24  2  0
M  END
$$$$
