NIQ.pdb
     RDKit          3D

 26 25  0  0  1  0  0  0  0  0999 V2000
   29.1256  -19.8902  -17.4201 N   0  0  0  0  0  0  0  0  0  0  0  0
   27.7491  -19.6025  -17.4875 C   0  0  0  0  0  0  0  0  0  0  0  0
   27.3239  -18.8154  -18.3523 O   0  0  0  0  0  0  0  0  0  0  0  0
   26.8181  -20.2292  -16.5407 C   0  0  0  0  0  0  0  0  0  0  0  0
   27.4826  -21.1510  -15.5657 C   0  0  2  0  0  0  0  0  0  0  0  0
   28.0037  -22.3429  -16.1547 N   0  0  0  0  0  0  0  0  0  0  0  0
   26.4552  -21.4713  -14.5082 C   0  0  0  0  0  0  0  0  0  0  0  0
   25.6361  -22.3865  -14.7532 O   0  0  0  0  0  0  0  0  0  0  0  0
   28.2569  -20.7616   -9.8009 C   0  0  0  0  0  0  0  0  0  0  0  0
   27.3146  -21.5655  -10.6237 C   0  0  0  0  0  0  0  0  0  0  0  0
   26.0158  -20.9716  -10.9673 C   0  0  2  0  0  0  0  0  0  0  0  0
   25.0756  -21.0143   -9.7699 C   0  0  0  0  0  0  0  0  0  0  0  0
   25.3868  -21.2044  -12.2798 C   0  0  2  0  0  0  0  0  0  0  0  0
   26.3904  -20.7970  -13.2965 N   0  0  0  0  0  0  0  0  0  0  0  0
   24.1014  -20.5911  -12.5839 C   0  0  0  0  0  0  0  0  0  0  0  0
   23.9783  -19.3149  -12.7136 O   0  0  0  0  0  0  0  0  0  0  0  0
   19.9118  -22.4726  -16.6694 N   0  0  0  0  0  0  0  0  0  0  0  0
   19.2069  -21.4321  -16.0049 C   0  0  0  0  0  0  0  0  0  0  0  0
   18.0801  -21.0925  -16.5097 O   0  0  0  0  0  0  0  0  0  0  0  0
   19.7284  -20.7706  -14.7906 C   0  0  0  0  0  0  0  0  0  0  0  0
   21.0378  -21.2649  -14.2936 C   0  0  0  0  0  0  0  0  0  0  0  0
   21.6404  -20.6186  -13.0940 C   0  0  2  0  0  0  0  0  0  0  0  0
   22.9051  -21.3187  -12.7696 N   0  0  0  0  0  0  0  0  0  0  0  0
   20.7644  -20.5499  -11.9493 C   0  0  0  0  0  0  0  0  0  0  0  0
   19.8035  -19.5530  -11.7193 O   0  0  0  0  0  0  0  0  0  0  0  0
   20.8217  -21.4415  -11.0332 O   0  0  0  0  0  0  0  0  0  0  0  0
  2  1  1  0
  2  3  2  0
  4  2  1  0
  5  7  1  0
  5  4  1  0
  5  6  1  6
  7  8  2  0
  9 10  1  0
 11 10  1  0
 11 12  1  1
 13 14  1  6
 13 11  1  0
 14  7  1  0
 15 13  1  0
 16 15  2  0
 18 20  1  0
 18 17  1  0
 19 18  2  0
 21 20  1  0
 22 23  1  0
 22 21  1  6
 23 15  1  0
 24 22  1  0
 25 24  1  0
 26 24  2  0
M  END
$$$$
