NIQ.pdb
     RDKit          3D

 26 25  0  0  1  0  0  0  0  0999 V2000
   29.2880  -18.5738  -16.6730 N   0  0  0  0  0  0  0  0  0  0  0  0
   27.9041  -18.3552  -16.8114 C   0  0  0  0  0  0  0  0  0  0  0  0
   27.4925  -17.4724  -17.5857 O   0  0  0  0  0  0  0  0  0  0  0  0
   26.9497  -19.1658  -16.0448 C   0  0  0  0  0  0  0  0  0  0  0  0
   27.5967  -20.2309  -15.2148 C   0  0  2  0  0  0  0  0  0  0  0  0
   28.3100  -21.2071  -15.9746 N   0  0  0  0  0  0  0  0  0  0  0  0
   26.4973  -20.8705  -14.4032 C   0  0  0  0  0  0  0  0  0  0  0  0
   25.8944  -21.8448  -14.9088 O   0  0  0  0  0  0  0  0  0  0  0  0
   25.3139  -20.0091   -8.6930 C   0  0  0  0  0  0  0  0  0  0  0  0
   25.4560  -19.8817  -10.1678 C   0  0  0  0  0  0  0  0  0  0  0  0
   25.5062  -21.1131  -10.9671 C   0  0  2  0  0  0  0  0  0  0  0  0
   26.7681  -21.9045  -10.6499 C   0  0  0  0  0  0  0  0  0  0  0  0
   25.0801  -21.1320  -12.3780 C   0  0  2  0  0  0  0  0  0  0  0  0
   26.1401  -20.4221  -13.1388 N   0  0  0  0  0  0  0  0  0  0  0  0
   23.7734  -20.6042  -12.7452 C   0  0  0  0  0  0  0  0  0  0  0  0
   23.5793  -19.3406  -12.9077 O   0  0  0  0  0  0  0  0  0  0  0  0
   19.3569  -20.3799  -16.8211 N   0  0  0  0  0  0  0  0  0  0  0  0
   20.7573  -20.6112  -16.9012 C   0  0  0  0  0  0  0  0  0  0  0  0
   21.3259  -20.2977  -18.0049 O   0  0  0  0  0  0  0  0  0  0  0  0
   21.5334  -21.1764  -15.7777 C   0  0  0  0  0  0  0  0  0  0  0  0
   20.7852  -21.3843  -14.5116 C   0  0  0  0  0  0  0  0  0  0  0  0
   21.3191  -20.7854  -13.2561 C   0  0  2  0  0  0  0  0  0  0  0  0
   22.6313  -21.4066  -12.9613 N   0  0  0  0  0  0  0  0  0  0  0  0
   20.4260  -20.8727  -12.1259 C   0  0  0  0  0  0  0  0  0  0  0  0
   19.2980  -20.0641  -11.9166 O   0  0  0  0  0  0  0  0  0  0  0  0
   20.6271  -21.7376  -11.2046 O   0  0  0  0  0  0  0  0  0  0  0  0
  2  1  1  0
  2  3  2  0
  4  2  1  0
  5  7  1  0
  5  4  1  0
  5  6  1  6
  7  8  2  0
  9 10  1  0
 11 10  1  0
 11 12  1  6
 13 14  1  6
 13 11  1  0
 14  7  1  0
 15 13  1  0
 16 15  2  0
 18 20  1  0
 18 17  1  0
 19 18  2  0
 21 20  1  0
 22 23  1  0
 22 21  1  6
 23 15  1  0
 24 22  1  0
 25 24  1  0
 26 24  2  0
M  END
$$$$
