NIQ.pdb
     RDKit          3D

 26 25  0  0  1  0  0  0  0  0999 V2000
   14.7997  -14.4610  -11.1823 N   0  0  0  0  0  0  0  0  0  0  0  0
   15.8657  -13.8372  -11.8578 C   0  0  0  0  0  0  0  0  0  0  0  0
   16.7864  -14.5280  -12.3305 O   0  0  0  0  0  0  0  0  0  0  0  0
   15.8913  -12.3765  -12.0042 C   0  0  0  0  0  0  0  0  0  0  0  0
   14.7541  -11.6840  -11.3193 C   0  0  2  0  0  0  0  0  0  0  0  0
   13.4792  -11.9343  -11.9118 N   0  0  0  0  0  0  0  0  0  0  0  0
   15.0789  -10.2106  -11.3301 C   0  0  0  0  0  0  0  0  0  0  0  0
   14.9538   -9.5966  -12.4145 O   0  0  0  0  0  0  0  0  0  0  0  0
   13.1197   -8.6836   -8.0884 C   0  0  0  0  0  0  0  0  0  0  0  0
   13.7831   -7.4637   -8.6204 C   0  0  0  0  0  0  0  0  0  0  0  0
   15.2129   -7.5406   -8.9484 C   0  0  2  0  0  0  0  0  0  0  0  0
   15.9477   -6.3139   -8.4242 C   0  0  0  0  0  0  0  0  0  0  0  0
   15.6768   -8.0532  -10.2501 C   0  0  2  0  0  0  0  0  0  0  0  0
   15.5036   -9.5276  -10.1986 N   0  0  0  0  0  0  0  0  0  0  0  0
   17.0183   -7.7313  -10.7168 C   0  0  0  0  0  0  0  0  0  0  0  0
   18.0637   -8.0576  -10.0375 O   0  0  0  0  0  0  0  0  0  0  0  0
   19.9635   -9.7957  -15.2275 N   0  0  0  0  0  0  0  0  0  0  0  0
   20.8570   -8.7544  -14.8558 C   0  0  0  0  0  0  0  0  0  0  0  0
   22.0254   -8.7904  -15.3787 O   0  0  0  0  0  0  0  0  0  0  0  0
   20.4729   -7.6753  -13.9220 C   0  0  0  0  0  0  0  0  0  0  0  0
   19.1173   -7.7852  -13.3253 C   0  0  0  0  0  0  0  0  0  0  0  0
   18.6869   -6.7645  -12.3288 C   0  0  2  0  0  0  0  0  0  0  0  0
   17.2913   -7.0590  -11.9286 N   0  0  0  0  0  0  0  0  0  0  0  0
   18.8341   -5.3989  -12.7712 C   0  0  0  0  0  0  0  0  0  0  0  0
   20.0216   -4.6522  -12.7237 O   0  0  0  0  0  0  0  0  0  0  0  0
   17.8353   -4.7617  -13.2548 O   0  0  0  0  0  0  0  0  0  0  0  0
  2  1  1  0
  2  3  2  0
  4  2  1  0
  5  7  1  0
  5  4  1  0
  5  6  1  6
  7  8  2  0
  9 10  1  0
 11 10  1  0
 11 12  1  6
 13 14  1  1
 13 11  1  0
 14  7  1  0
 15 13  1  0
 16 15  2  0
 18 20  1  0
 18 17  1  0
 19 18  2  0
 21 20  1  0
 22 23  1  0
 22 21  1  6
 23 15  1  0
 24 22  1  0
 25 24  1  0
 26 24  2  0
M  END
$$$$
