HDV.pdb
     RDKit          3D

 26 26  0  0  1  0  0  0  0  0999 V2000
    9.2479  -15.2669   19.7979 N   0  0  0  0  0  0  0  0  0  0  0  0
    8.1098  -14.5864   20.4362 C   0  0  1  0  0  0  0  0  0  0  0  0
    6.9470  -14.7472   19.5158 C   0  0  0  0  0  0  0  0  0  0  0  0
    7.3701  -14.3330   18.1453 C   0  0  0  0  0  0  0  0  0  0  0  0
    8.0139  -13.1873   17.7315 C   0  0  0  0  0  0  0  0  0  0  0  0
    8.2117  -13.2000   16.4021 N   0  0  0  0  0  0  0  0  0  0  0  0
    7.6934  -14.3572   15.9617 C   0  0  0  0  0  0  0  0  0  0  0  0
    7.1842  -15.0489   16.9956 N   0  0  0  0  0  0  0  0  0  0  0  0
    7.8703  -15.1657   21.7781 C   0  0  0  0  0  0  0  0  0  0  0  0
    6.8533  -14.8241   22.4244 O   0  0  0  0  0  0  0  0  0  0  0  0
    8.7575  -16.1018   22.3648 N   0  0  0  0  0  0  0  0  0  0  0  0
    8.6293  -16.5591   23.7339 C   0  0  1  0  0  0  0  0  0  0  0  0
    9.3017  -17.8847   23.9495 C   0  0  0  0  0  0  0  0  0  0  0  0
    9.1421  -18.2375   25.3842 C   0  0  0  0  0  0  0  0  0  0  0  0
    7.9774  -18.4596   25.8011 O   0  0  0  0  0  0  0  0  0  0  0  0
    9.0340  -15.5136   24.6690 C   0  0  0  0  0  0  0  0  0  0  0  0
   10.2088  -15.0661   24.6144 O   0  0  0  0  0  0  0  0  0  0  0  0
   10.1949  -18.3348   26.2813 O   0  0  0  0  0  0  0  0  0  0  0  0
    7.2024  -12.1969   25.3066 C   0  0  0  0  0  0  0  0  0  0  0  0
    7.4865  -12.8680   26.6225 C   0  0  1  0  0  0  0  0  0  0  0  0
    6.2583  -13.4851   27.2369 C   0  0  0  0  0  0  0  0  0  0  0  0
    8.6220  -13.8734   26.5026 C   0  0  2  0  0  0  0  0  0  0  0  0
    8.1746  -14.9539   25.6585 N   0  0  0  0  0  0  0  0  0  0  0  0
    9.0845  -14.3474   27.8256 C   0  0  0  0  0  0  0  0  0  0  0  0
    9.6031  -13.5305   28.6307 O   0  0  0  0  0  0  0  0  0  0  0  0
    8.9877  -15.6611   28.2606 O   0  0  0  0  0  0  0  0  0  0  0  0
  2  1  1  6
  2  3  1  0
  4  8  1  0
  4  3  1  0
  5  4  2  0
  6  5  1  0
  6  7  1  0
  7  8  2  0
  9  2  1  0
  9 11  1  0
 10  9  2  0
 12 11  1  0
 12 13  1  6
 14 13  1  0
 14 15  2  0
 16 12  1  0
 16 17  2  0
 18 14  1  0
 20 19  1  6
 20 21  1  0
 20 22  1  0
 22 23  1  6
 22 24  1  0
 23 16  1  0
 24 25  2  0
 24 26  1  0
M  END
$$$$
