HDV.pdb
     RDKit          3D

 26 26  0  0  1  0  0  0  0  0999 V2000
    7.4095  -16.6752   19.7334 N   0  0  0  0  0  0  0  0  0  0  0  0
    7.9935  -15.6025   20.5544 C   0  0  1  0  0  0  0  0  0  0  0  0
    7.1931  -14.3737   20.2813 C   0  0  0  0  0  0  0  0  0  0  0  0
    7.5807  -13.8477   18.9389 C   0  0  0  0  0  0  0  0  0  0  0  0
    8.3441  -12.7486   18.6111 C   0  0  0  0  0  0  0  0  0  0  0  0
    8.4546  -12.6199   17.2777 N   0  0  0  0  0  0  0  0  0  0  0  0
    7.7599  -13.6392   16.7486 C   0  0  0  0  0  0  0  0  0  0  0  0
    7.2291  -14.3856   17.7323 N   0  0  0  0  0  0  0  0  0  0  0  0
    7.9756  -15.9997   21.9812 C   0  0  0  0  0  0  0  0  0  0  0  0
    6.8952  -15.9758   22.6141 O   0  0  0  0  0  0  0  0  0  0  0  0
    9.1471  -16.4100   22.6646 N   0  0  0  0  0  0  0  0  0  0  0  0
    9.1606  -16.7485   24.0736 C   0  0  1  0  0  0  0  0  0  0  0  0
   10.1879  -17.7973   24.3904 C   0  0  0  0  0  0  0  0  0  0  0  0
    9.6741  -18.5933   25.5352 C   0  0  0  0  0  0  0  0  0  0  0  0
    8.6108  -18.2049   26.0814 O   0  0  0  0  0  0  0  0  0  0  0  0
    9.2487  -15.5444   24.8944 C   0  0  0  0  0  0  0  0  0  0  0  0
   10.1740  -14.7208   24.6738 O   0  0  0  0  0  0  0  0  0  0  0  0
   10.2949  -19.7297   26.0311 O   0  0  0  0  0  0  0  0  0  0  0  0
    7.2258  -12.1127   27.6872 C   0  0  0  0  0  0  0  0  0  0  0  0
    7.1930  -13.2795   26.7385 C   0  0  1  0  0  0  0  0  0  0  0  0
    6.7800  -12.8842   25.3457 C   0  0  0  0  0  0  0  0  0  0  0  0
    8.5118  -14.0381   26.7410 C   0  0  2  0  0  0  0  0  0  0  0  0
    8.3423  -15.2312   25.9486 N   0  0  0  0  0  0  0  0  0  0  0  0
    8.9773  -14.3356   28.1135 C   0  0  0  0  0  0  0  0  0  0  0  0
    8.8045  -15.4874   28.5910 O   0  0  0  0  0  0  0  0  0  0  0  0
    9.6082  -13.4166   28.9392 O   0  0  0  0  0  0  0  0  0  0  0  0
  2  1  1  6
  2  3  1  0
  4  8  1  0
  4  3  1  0
  5  4  2  0
  6  5  1  0
  6  7  1  0
  7  8  2  0
  9  2  1  0
  9 11  1  0
 10  9  2  0
 12 11  1  0
 12 13  1  6
 14 13  1  0
 14 15  2  0
 16 12  1  0
 16 17  2  0
 18 14  1  0
 20 19  1  1
 20 21  1  0
 20 22  1  0
 22 23  1  6
 22 24  1  0
 23 16  1  0
 24 25  2  0
 24 26  1  0
M  END
$$$$
