HDV.pdb
     RDKit          3D

 26 26  0  0  1  0  0  0  0  0999 V2000
    9.4393  -15.4691   19.7700 N   0  0  0  0  0  0  0  0  0  0  0  0
    8.3902  -14.7132   20.4728 C   0  0  1  0  0  0  0  0  0  0  0  0
    7.1479  -14.8520   19.6588 C   0  0  0  0  0  0  0  0  0  0  0  0
    7.4615  -14.4666   18.2510 C   0  0  0  0  0  0  0  0  0  0  0  0
    8.0693  -13.3300   17.7642 C   0  0  0  0  0  0  0  0  0  0  0  0
    8.1620  -13.3704   16.4239 N   0  0  0  0  0  0  0  0  0  0  0  0
    7.6121  -14.5363   16.0498 C   0  0  0  0  0  0  0  0  0  0  0  0
    7.1866  -15.2061   17.1346 N   0  0  0  0  0  0  0  0  0  0  0  0
    8.2397  -15.2321   21.8518 C   0  0  0  0  0  0  0  0  0  0  0  0
    7.2853  -14.8352   22.5590 O   0  0  0  0  0  0  0  0  0  0  0  0
    9.1441  -16.1708   22.4074 N   0  0  0  0  0  0  0  0  0  0  0  0
    9.0104  -16.6945   23.7519 C   0  0  1  0  0  0  0  0  0  0  0  0
    9.8728  -17.9041   23.9729 C   0  0  0  0  0  0  0  0  0  0  0  0
    9.6227  -18.3832   25.3571 C   0  0  0  0  0  0  0  0  0  0  0  0
    8.6194  -17.9230   25.9582 O   0  0  0  0  0  0  0  0  0  0  0  0
    9.1861  -15.6345   24.7403 C   0  0  0  0  0  0  0  0  0  0  0  0
   10.3261  -15.1239   24.8927 O   0  0  0  0  0  0  0  0  0  0  0  0
   10.4256  -19.3005   26.0178 O   0  0  0  0  0  0  0  0  0  0  0  0
    7.3283  -12.1581   27.6929 C   0  0  0  0  0  0  0  0  0  0  0  0
    7.1672  -13.2152   26.6349 C   0  0  1  0  0  0  0  0  0  0  0  0
    6.8008  -12.6417   25.2920 C   0  0  0  0  0  0  0  0  0  0  0  0
    8.3943  -14.1105   26.5492 C   0  0  2  0  0  0  0  0  0  0  0  0
    8.1363  -15.1282   25.5603 N   0  0  0  0  0  0  0  0  0  0  0  0
    8.7555  -14.6830   27.8648 C   0  0  0  0  0  0  0  0  0  0  0  0
    8.3170  -15.8174   28.1891 O   0  0  0  0  0  0  0  0  0  0  0  0
    9.5640  -14.0477   28.7960 O   0  0  0  0  0  0  0  0  0  0  0  0
  2  1  1  6
  2  3  1  0
  4  8  1  0
  4  3  1  0
  5  4  2  0
  6  5  1  0
  6  7  1  0
  7  8  2  0
  9  2  1  0
  9 11  1  0
 10  9  2  0
 12 11  1  0
 12 13  1  1
 14 13  1  0
 14 15  2  0
 16 12  1  0
 16 17  2  0
 18 14  1  0
 20 19  1  1
 20 21  1  0
 20 22  1  0
 22 23  1  6
 22 24  1  0
 23 16  1  0
 24 25  2  0
 24 26  1  0
M  END
$$$$
