HDV.pdb
     RDKit          3D

 26 26  0  0  1  0  0  0  0  0999 V2000
    8.5801  -16.7220   20.0501 N   0  0  0  0  0  0  0  0  0  0  0  0
    8.8868  -15.7734   21.1326 C   0  0  1  0  0  0  0  0  0  0  0  0
    7.7505  -14.8085   21.1877 C   0  0  0  0  0  0  0  0  0  0  0  0
    7.7049  -14.0601   19.8967 C   0  0  0  0  0  0  0  0  0  0  0  0
    8.1055  -12.7732   19.6107 C   0  0  0  0  0  0  0  0  0  0  0  0
    7.8900  -12.4785   18.3171 N   0  0  0  0  0  0  0  0  0  0  0  0
    7.3497  -13.5794   17.7716 C   0  0  0  0  0  0  0  0  0  0  0  0
    7.2318  -14.5380   18.7065 N   0  0  0  0  0  0  0  0  0  0  0  0
    9.0822  -16.5106   22.4023 C   0  0  0  0  0  0  0  0  0  0  0  0
    8.2047  -17.3165   22.7883 O   0  0  0  0  0  0  0  0  0  0  0  0
   10.2366  -16.3369   23.2053 N   0  0  0  0  0  0  0  0  0  0  0  0
   10.5236  -17.1606   24.3625 C   0  0  1  0  0  0  0  0  0  0  0  0
   11.4606  -18.2870   24.0328 C   0  0  0  0  0  0  0  0  0  0  0  0
   11.7219  -19.0326   25.2914 C   0  0  0  0  0  0  0  0  0  0  0  0
   10.7415  -19.5803   25.8557 O   0  0  0  0  0  0  0  0  0  0  0  0
   10.9385  -16.3368   25.4942 C   0  0  0  0  0  0  0  0  0  0  0  0
   11.9211  -15.5625   25.3587 O   0  0  0  0  0  0  0  0  0  0  0  0
   12.9741  -19.1573   25.8738 O   0  0  0  0  0  0  0  0  0  0  0  0
    9.4978  -13.5580   27.2018 C   0  0  0  0  0  0  0  0  0  0  0  0
    9.7528  -14.5722   28.2831 C   0  0  1  0  0  0  0  0  0  0  0  0
    8.4939  -15.2548   28.7477 C   0  0  0  0  0  0  0  0  0  0  0  0
   10.8172  -15.5763   27.8667 C   0  0  2  0  0  0  0  0  0  0  0  0
   10.2960  -16.3491   26.7661 N   0  0  0  0  0  0  0  0  0  0  0  0
   11.2486  -16.4275   28.9974 C   0  0  0  0  0  0  0  0  0  0  0  0
   10.9051  -17.6380   29.0288 O   0  0  0  0  0  0  0  0  0  0  0  0
   12.0254  -15.9816   30.0567 O   0  0  0  0  0  0  0  0  0  0  0  0
  2  1  1  6
  2  3  1  0
  4  8  1  0
  4  3  1  0
  5  4  2  0
  6  5  1  0
  6  7  1  0
  7  8  2  0
  9  2  1  0
  9 11  1  0
 10  9  2  0
 12 11  1  0
 12 13  1  6
 14 13  1  0
 14 15  2  0
 16 12  1  0
 16 17  2  0
 18 14  1  0
 20 19  1  6
 20 21  1  0
 20 22  1  0
 22 23  1  6
 22 24  1  0
 23 16  1  0
 24 25  2  0
 24 26  1  0
M  END
$$$$
