HDV.pdb
     RDKit          3D

 26 26  0  0  1  0  0  0  0  0999 V2000
    9.5865  -15.5214   19.7125 N   0  0  0  0  0  0  0  0  0  0  0  0
    8.3679  -14.8496   20.1916 C   0  0  1  0  0  0  0  0  0  0  0  0
    7.3022  -15.1342   19.1873 C   0  0  0  0  0  0  0  0  0  0  0  0
    7.6527  -14.4330   17.9168 C   0  0  0  0  0  0  0  0  0  0  0  0
    8.7626  -13.6784   17.6052 C   0  0  0  0  0  0  0  0  0  0  0  0
    8.6924  -13.2172   16.3446 N   0  0  0  0  0  0  0  0  0  0  0  0
    7.5342  -13.6772   15.8461 C   0  0  0  0  0  0  0  0  0  0  0  0
    6.8981  -14.4087   16.7771 N   0  0  0  0  0  0  0  0  0  0  0  0
    8.0295  -15.3371   21.5486 C   0  0  0  0  0  0  0  0  0  0  0  0
    6.9876  -14.9263   22.1091 O   0  0  0  0  0  0  0  0  0  0  0  0
    8.8486  -16.2605   22.2443 N   0  0  0  0  0  0  0  0  0  0  0  0
    8.6076  -16.6485   23.6195 C   0  0  1  0  0  0  0  0  0  0  0  0
    9.3367  -17.9099   23.9842 C   0  0  0  0  0  0  0  0  0  0  0  0
    8.5657  -19.0490   23.4219 C   0  0  0  0  0  0  0  0  0  0  0  0
    7.3116  -18.9772   23.4622 O   0  0  0  0  0  0  0  0  0  0  0  0
    8.8451  -15.5267   24.5232 C   0  0  0  0  0  0  0  0  0  0  0  0
    9.9237  -14.8852   24.4307 O   0  0  0  0  0  0  0  0  0  0  0  0
    9.1455  -20.1765   22.8603 O   0  0  0  0  0  0  0  0  0  0  0  0
    7.1064  -11.9922   27.4451 C   0  0  0  0  0  0  0  0  0  0  0  0
    6.9162  -13.1673   26.5253 C   0  0  1  0  0  0  0  0  0  0  0  0
    6.3183  -12.7766   25.2000 C   0  0  0  0  0  0  0  0  0  0  0  0
    8.2066  -13.9541   26.3510 C   0  0  2  0  0  0  0  0  0  0  0  0
    7.9227  -15.0996   25.5220 N   0  0  0  0  0  0  0  0  0  0  0  0
    8.8039  -14.3339   27.6503 C   0  0  0  0  0  0  0  0  0  0  0  0
    8.6391  -15.5014   28.0910 O   0  0  0  0  0  0  0  0  0  0  0  0
    9.5537  -13.4779   28.4436 O   0  0  0  0  0  0  0  0  0  0  0  0
  2  1  1  6
  2  3  1  0
  4  8  1  0
  4  3  1  0
  5  4  2  0
  6  5  1  0
  6  7  1  0
  7  8  2  0
  9  2  1  0
  9 11  1  0
 10  9  2  0
 12 11  1  0
 12 13  1  1
 14 13  1  0
 14 15  2  0
 16 12  1  0
 16 17  2  0
 18 14  1  0
 20 19  1  1
 20 21  1  0
 20 22  1  0
 22 23  1  6
 22 24  1  0
 23 16  1  0
 24 25  2  0
 24 26  1  0
M  END
$$$$
