HDV.pdb
     RDKit          3D

 26 26  0  0  1  0  0  0  0  0999 V2000
    8.4687  -16.5747   19.2611 N   0  0  0  0  0  0  0  0  0  0  0  0
    8.4001  -15.4340   20.1885 C   0  0  1  0  0  0  0  0  0  0  0  0
    7.2051  -14.6342   19.7919 C   0  0  0  0  0  0  0  0  0  0  0  0
    7.4487  -14.0653   18.4332 C   0  0  0  0  0  0  0  0  0  0  0  0
    8.0414  -12.8756   18.0705 C   0  0  0  0  0  0  0  0  0  0  0  0
    8.0638  -12.7371   16.7337 N   0  0  0  0  0  0  0  0  0  0  0  0
    7.4838  -13.8412   16.2374 C   0  0  0  0  0  0  0  0  0  0  0  0
    7.1089  -14.6486   17.2445 N   0  0  0  0  0  0  0  0  0  0  0  0
    8.3293  -15.9278   21.5831 C   0  0  0  0  0  0  0  0  0  0  0  0
    7.2402  -16.3532   22.0318 O   0  0  0  0  0  0  0  0  0  0  0  0
    9.4591  -15.9374   22.4381 N   0  0  0  0  0  0  0  0  0  0  0  0
    9.3994  -16.3719   23.8193 C   0  0  1  0  0  0  0  0  0  0  0  0
   10.3784  -17.4744   24.1050 C   0  0  0  0  0  0  0  0  0  0  0  0
   10.1069  -18.5725   23.1413 C   0  0  0  0  0  0  0  0  0  0  0  0
    9.0173  -19.1885   23.2552 O   0  0  0  0  0  0  0  0  0  0  0  0
    9.4885  -15.2306   24.7253 C   0  0  0  0  0  0  0  0  0  0  0  0
   10.4605  -14.4388   24.6171 O   0  0  0  0  0  0  0  0  0  0  0  0
   10.9789  -18.9532   22.1326 O   0  0  0  0  0  0  0  0  0  0  0  0
    7.4924  -12.2635   25.3394 C   0  0  0  0  0  0  0  0  0  0  0  0
    7.6025  -12.9417   26.6775 C   0  0  1  0  0  0  0  0  0  0  0  0
    6.3183  -13.6040   27.1004 C   0  0  0  0  0  0  0  0  0  0  0  0
    8.7753  -13.9100   26.7176 C   0  0  2  0  0  0  0  0  0  0  0  0
    8.5330  -14.9456   25.7435 N   0  0  0  0  0  0  0  0  0  0  0  0
    8.9976  -14.4552   28.0750 C   0  0  0  0  0  0  0  0  0  0  0  0
    8.6930  -15.6516   28.3204 O   0  0  0  0  0  0  0  0  0  0  0  0
    9.5317  -13.7286   29.1291 O   0  0  0  0  0  0  0  0  0  0  0  0
  2  1  1  6
  2  3  1  0
  4  8  1  0
  4  3  1  0
  5  4  2  0
  6  5  1  0
  6  7  1  0
  7  8  2  0
  9  2  1  0
  9 11  1  0
 10  9  2  0
 12 11  1  0
 12 13  1  1
 14 13  1  0
 14 15  2  0
 16 12  1  0
 16 17  2  0
 18 14  1  0
 20 19  1  6
 20 21  1  0
 20 22  1  0
 22 23  1  6
 22 24  1  0
 23 16  1  0
 24 25  2  0
 24 26  1  0
M  END
$$$$
