HDV.pdb
     RDKit          3D

 26 26  0  0  1  0  0  0  0  0999 V2000
    9.3945  -14.8846   19.5530 N   0  0  0  0  0  0  0  0  0  0  0  0
    8.0979  -14.4955   20.1303 C   0  0  1  0  0  0  0  0  0  0  0  0
    7.0512  -14.9426   19.1660 C   0  0  0  0  0  0  0  0  0  0  0  0
    7.4477  -14.4933   17.7985 C   0  0  0  0  0  0  0  0  0  0  0  0
    8.5481  -13.7693   17.3946 C   0  0  0  0  0  0  0  0  0  0  0  0
    8.5319  -13.5709   16.0652 N   0  0  0  0  0  0  0  0  0  0  0  0
    7.4180  -14.1694   15.6152 C   0  0  0  0  0  0  0  0  0  0  0  0
    6.7560  -14.7278   16.6430 N   0  0  0  0  0  0  0  0  0  0  0  0
    7.9461  -15.1036   21.4723 C   0  0  0  0  0  0  0  0  0  0  0  0
    6.8732  -14.9517   22.1001 O   0  0  0  0  0  0  0  0  0  0  0  0
    8.9800  -15.8588   22.0794 N   0  0  0  0  0  0  0  0  0  0  0  0
    8.8615  -16.4370   23.4029 C   0  0  1  0  0  0  0  0  0  0  0  0
    9.7029  -17.6717   23.5548 C   0  0  0  0  0  0  0  0  0  0  0  0
    9.6658  -18.0630   24.9879 C   0  0  0  0  0  0  0  0  0  0  0  0
    8.5369  -18.2197   25.5176 O   0  0  0  0  0  0  0  0  0  0  0  0
    9.0781  -15.4240   24.4316 C   0  0  0  0  0  0  0  0  0  0  0  0
   10.2055  -14.8718   24.5179 O   0  0  0  0  0  0  0  0  0  0  0  0
   10.7951  -18.2634   25.7671 O   0  0  0  0  0  0  0  0  0  0  0  0
    5.9008  -13.5092   26.4221 C   0  0  0  0  0  0  0  0  0  0  0  0
    7.2676  -12.9180   26.2094 C   0  0  1  0  0  0  0  0  0  0  0  0
    7.5354  -11.7373   27.1045 C   0  0  0  0  0  0  0  0  0  0  0  0
    8.3568  -13.9734   26.3283 C   0  0  2  0  0  0  0  0  0  0  0  0
    8.0823  -15.0092   25.3630 N   0  0  0  0  0  0  0  0  0  0  0  0
    8.4674  -14.5028   27.7055 C   0  0  0  0  0  0  0  0  0  0  0  0
    8.0403  -15.6588   27.9618 O   0  0  0  0  0  0  0  0  0  0  0  0
    9.0220  -13.8033   28.7674 O   0  0  0  0  0  0  0  0  0  0  0  0
  2  1  1  6
  2  3  1  0
  4  8  1  0
  4  3  1  0
  5  4  2  0
  6  5  1  0
  6  7  1  0
  7  8  2  0
  9  2  1  0
  9 11  1  0
 10  9  2  0
 12 11  1  0
 12 13  1  6
 14 13  1  0
 14 15  2  0
 16 12  1  0
 16 17  2  0
 18 14  1  0
 20 19  1  1
 20 21  1  0
 20 22  1  0
 22 23  1  6
 22 24  1  0
 23 16  1  0
 24 25  2  0
 24 26  1  0
M  END
$$$$
