HDV.pdb
     RDKit          3D

 26 26  0  0  1  0  0  0  0  0999 V2000
    7.3537  -16.6924   19.5847 N   0  0  0  0  0  0  0  0  0  0  0  0
    7.9726  -15.6465   20.4147 C   0  0  1  0  0  0  0  0  0  0  0  0
    7.2386  -14.3812   20.1223 C   0  0  0  0  0  0  0  0  0  0  0  0
    7.6211  -13.9198   18.7549 C   0  0  0  0  0  0  0  0  0  0  0  0
    8.3490  -12.8151   18.3703 C   0  0  0  0  0  0  0  0  0  0  0  0
    8.4682  -12.7593   17.0326 N   0  0  0  0  0  0  0  0  0  0  0  0
    7.8149  -13.8313   16.5577 C   0  0  0  0  0  0  0  0  0  0  0  0
    7.3006  -14.5383   17.5786 N   0  0  0  0  0  0  0  0  0  0  0  0
    7.9068  -16.0374   21.8418 C   0  0  0  0  0  0  0  0  0  0  0  0
    6.7975  -16.0671   22.4222 O   0  0  0  0  0  0  0  0  0  0  0  0
    9.0638  -16.3826   22.5833 N   0  0  0  0  0  0  0  0  0  0  0  0
    9.0200  -16.7668   23.9799 C   0  0  1  0  0  0  0  0  0  0  0  0
    9.9832  -17.8771   24.2884 C   0  0  0  0  0  0  0  0  0  0  0  0
    9.8575  -18.1870   25.7363 C   0  0  0  0  0  0  0  0  0  0  0  0
   10.6648  -17.6290   26.5214 O   0  0  0  0  0  0  0  0  0  0  0  0
    9.1460  -15.5961   24.8430 C   0  0  0  0  0  0  0  0  0  0  0  0
   10.0992  -14.7969   24.6536 O   0  0  0  0  0  0  0  0  0  0  0  0
    8.9092  -19.0488   26.2660 O   0  0  0  0  0  0  0  0  0  0  0  0
    7.2578  -12.2958   27.9205 C   0  0  0  0  0  0  0  0  0  0  0  0
    7.1495  -13.4134   26.9195 C   0  0  1  0  0  0  0  0  0  0  0  0
    6.6034  -12.9546   25.5936 C   0  0  0  0  0  0  0  0  0  0  0  0
    8.4714  -14.1495   26.7598 C   0  0  2  0  0  0  0  0  0  0  0  0
    8.2472  -15.2898   25.9057 N   0  0  0  0  0  0  0  0  0  0  0  0
    9.0548  -14.5302   28.0651 C   0  0  0  0  0  0  0  0  0  0  0  0
    8.9847  -15.7264   28.4506 O   0  0  0  0  0  0  0  0  0  0  0  0
    9.6920  -13.6449   28.9222 O   0  0  0  0  0  0  0  0  0  0  0  0
  2  1  1  6
  2  3  1  0
  4  8  1  0
  4  3  1  0
  5  4  2  0
  6  5  1  0
  6  7  1  0
  7  8  2  0
  9  2  1  0
  9 11  1  0
 10  9  2  0
 12 11  1  0
 12 13  1  1
 14 13  1  0
 14 15  2  0
 16 12  1  0
 16 17  2  0
 18 14  1  0
 20 19  1  1
 20 21  1  0
 20 22  1  0
 22 23  1  6
 22 24  1  0
 23 16  1  0
 24 25  2  0
 24 26  1  0
M  END
$$$$
