HDV.pdb
     RDKit          3D

 26 26  0  0  1  0  0  0  0  0999 V2000
    9.3373  -15.4803   19.6064 N   0  0  0  0  0  0  0  0  0  0  0  0
    8.2936  -14.6252   20.1939 C   0  0  1  0  0  0  0  0  0  0  0  0
    7.1152  -14.7049   19.2827 C   0  0  0  0  0  0  0  0  0  0  0  0
    7.5685  -14.3834   17.8970 C   0  0  0  0  0  0  0  0  0  0  0  0
    8.1910  -13.2530   17.4147 C   0  0  0  0  0  0  0  0  0  0  0  0
    8.4304  -13.3609   16.0964 N   0  0  0  0  0  0  0  0  0  0  0  0
    7.9601  -14.5641   15.7321 C   0  0  0  0  0  0  0  0  0  0  0  0
    7.4394  -15.1905   16.8013 N   0  0  0  0  0  0  0  0  0  0  0  0
    7.9922  -15.0797   21.5710 C   0  0  0  0  0  0  0  0  0  0  0  0
    7.0054  -14.6013   22.1758 O   0  0  0  0  0  0  0  0  0  0  0  0
    8.7865  -16.0455   22.2372 N   0  0  0  0  0  0  0  0  0  0  0  0
    8.5011  -16.5115   23.5794 C   0  0  1  0  0  0  0  0  0  0  0  0
    9.0795  -17.8734   23.8369 C   0  0  0  0  0  0  0  0  0  0  0  0
   10.5522  -17.7719   23.6661 C   0  0  0  0  0  0  0  0  0  0  0  0
   11.2588  -17.7786   24.7055 O   0  0  0  0  0  0  0  0  0  0  0  0
    8.8657  -15.5000   24.5671 C   0  0  0  0  0  0  0  0  0  0  0  0
    9.9773  -14.9191   24.4652 O   0  0  0  0  0  0  0  0  0  0  0  0
   11.1858  -17.6712   22.4369 O   0  0  0  0  0  0  0  0  0  0  0  0
    7.6360  -12.0259   27.7339 C   0  0  0  0  0  0  0  0  0  0  0  0
    7.3125  -13.0931   26.7243 C   0  0  1  0  0  0  0  0  0  0  0  0
    6.9008  -12.5263   25.3917 C   0  0  0  0  0  0  0  0  0  0  0  0
    8.4514  -14.0920   26.5839 C   0  0  2  0  0  0  0  0  0  0  0  0
    8.0344  -15.1176   25.6595 N   0  0  0  0  0  0  0  0  0  0  0  0
    8.8656  -14.6474   27.8912 C   0  0  0  0  0  0  0  0  0  0  0  0
    8.4870  -15.8011   28.2230 O   0  0  0  0  0  0  0  0  0  0  0  0
    9.6626  -13.9755   28.8064 O   0  0  0  0  0  0  0  0  0  0  0  0
  2  1  1  6
  2  3  1  0
  4  8  1  0
  4  3  1  0
  5  4  2  0
  6  5  1  0
  6  7  1  0
  7  8  2  0
  9  2  1  0
  9 11  1  0
 10  9  2  0
 12 11  1  0
 12 13  1  1
 14 13  1  0
 14 15  2  0
 16 12  1  0
 16 17  2  0
 18 14  1  0
 20 19  1  1
 20 21  1  0
 20 22  1  0
 22 23  1  6
 22 24  1  0
 23 16  1  0
 24 25  2  0
 24 26  1  0
M  END
$$$$
