HDV.pdb
     RDKit          3D

 26 26  0  0  1  0  0  0  0  0999 V2000
    6.4234  -16.0689   20.0311 N   0  0  0  0  0  0  0  0  0  0  0  0
    7.5875  -15.5197   20.7446 C   0  0  1  0  0  0  0  0  0  0  0  0
    7.5068  -14.0360   20.6121 C   0  0  0  0  0  0  0  0  0  0  0  0
    7.8856  -13.6663   19.2162 C   0  0  0  0  0  0  0  0  0  0  0  0
    7.1168  -13.1230   18.2101 C   0  0  0  0  0  0  0  0  0  0  0  0
    7.8431  -12.9428   17.0936 N   0  0  0  0  0  0  0  0  0  0  0  0
    9.0813  -13.3717   17.3841 C   0  0  0  0  0  0  0  0  0  0  0  0
    9.1236  -13.8092   18.6544 N   0  0  0  0  0  0  0  0  0  0  0  0
    7.5711  -15.9767   22.1533 C   0  0  0  0  0  0  0  0  0  0  0  0
    6.5155  -15.8804   22.8204 O   0  0  0  0  0  0  0  0  0  0  0  0
    8.7166  -16.5249   22.7818 N   0  0  0  0  0  0  0  0  0  0  0  0
    8.7399  -16.9154   24.1771 C   0  0  1  0  0  0  0  0  0  0  0  0
    9.5087  -18.1875   24.3925 C   0  0  0  0  0  0  0  0  0  0  0  0
    8.7703  -19.2770   23.7026 C   0  0  0  0  0  0  0  0  0  0  0  0
    9.2827  -19.7554   22.6595 O   0  0  0  0  0  0  0  0  0  0  0  0
    9.1620  -15.8005   25.0198 C   0  0  0  0  0  0  0  0  0  0  0  0
   10.2716  -15.2508   24.7955 O   0  0  0  0  0  0  0  0  0  0  0  0
    7.5591  -19.7914   24.1397 O   0  0  0  0  0  0  0  0  0  0  0  0
    8.1737  -12.0988   28.0616 C   0  0  0  0  0  0  0  0  0  0  0  0
    7.7349  -13.2599   27.2118 C   0  0  1  0  0  0  0  0  0  0  0  0
    7.0348  -12.8255   25.9517 C   0  0  0  0  0  0  0  0  0  0  0  0
    8.8909  -14.2040   26.9170 C   0  0  2  0  0  0  0  0  0  0  0  0
    8.3902  -15.2815   26.0995 N   0  0  0  0  0  0  0  0  0  0  0  0
    9.5382  -14.6910   28.1552 C   0  0  0  0  0  0  0  0  0  0  0  0
   10.1845  -13.8859   28.8752 O   0  0  0  0  0  0  0  0  0  0  0  0
    9.4861  -16.0049   28.5971 O   0  0  0  0  0  0  0  0  0  0  0  0
  2  1  1  6
  2  3  1  0
  4  8  1  0
  4  3  1  0
  5  4  2  0
  6  5  1  0
  6  7  1  0
  7  8  2  0
  9  2  1  0
  9 11  1  0
 10  9  2  0
 12 11  1  0
 12 13  1  6
 14 13  1  0
 14 15  2  0
 16 12  1  0
 16 17  2  0
 18 14  1  0
 20 19  1  6
 20 21  1  0
 20 22  1  0
 22 23  1  1
 22 24  1  0
 23 16  1  0
 24 25  2  0
 24 26  1  0
M  END
$$$$
