HDV.pdb
     RDKit          3D

 26 26  0  0  1  0  0  0  0  0999 V2000
    6.8562  -17.3455   20.5637 N   0  0  0  0  0  0  0  0  0  0  0  0
    7.7531  -16.2482   20.9602 C   0  0  1  0  0  0  0  0  0  0  0  0
    6.8843  -15.0685   21.2404 C   0  0  0  0  0  0  0  0  0  0  0  0
    7.0799  -14.0693   20.1485 C   0  0  0  0  0  0  0  0  0  0  0  0
    7.8257  -14.1621   18.9938 C   0  0  0  0  0  0  0  0  0  0  0  0
    7.7379  -13.0315   18.2722 N   0  0  0  0  0  0  0  0  0  0  0  0
    6.9335  -12.2110   18.9660 C   0  0  0  0  0  0  0  0  0  0  0  0
    6.5300  -12.8189   20.0948 N   0  0  0  0  0  0  0  0  0  0  0  0
    8.5620  -16.6622   22.1298 C   0  0  0  0  0  0  0  0  0  0  0  0
    8.1661  -17.6077   22.8494 O   0  0  0  0  0  0  0  0  0  0  0  0
    9.7798  -16.0224   22.4691 N   0  0  0  0  0  0  0  0  0  0  0  0
   10.6943  -16.5444   23.4647 C   0  0  1  0  0  0  0  0  0  0  0  0
   12.1296  -16.3384   23.0731 C   0  0  0  0  0  0  0  0  0  0  0  0
   12.9732  -16.9238   24.1473 C   0  0  0  0  0  0  0  0  0  0  0  0
   12.7804  -18.1297   24.4444 O   0  0  0  0  0  0  0  0  0  0  0  0
   10.3504  -16.0487   24.7942 C   0  0  0  0  0  0  0  0  0  0  0  0
   11.1569  -16.2324   25.7424 O   0  0  0  0  0  0  0  0  0  0  0  0
   13.9521  -16.2222   24.8344 O   0  0  0  0  0  0  0  0  0  0  0  0
    8.0168  -12.7422   25.3685 C   0  0  0  0  0  0  0  0  0  0  0  0
    7.7345  -13.8598   26.3350 C   0  0  1  0  0  0  0  0  0  0  0  0
    6.4389  -14.5682   26.0413 C   0  0  0  0  0  0  0  0  0  0  0  0
    8.9014  -14.8323   26.4198 C   0  0  2  0  0  0  0  0  0  0  0  0
    9.1414  -15.3583   25.0985 N   0  0  0  0  0  0  0  0  0  0  0  0
    8.6616  -15.9001   27.4154 C   0  0  0  0  0  0  0  0  0  0  0  0
    8.2855  -17.0369   27.0273 O   0  0  0  0  0  0  0  0  0  0  0  0
    8.8240  -15.7408   28.7839 O   0  0  0  0  0  0  0  0  0  0  0  0
  2  1  1  1
  2  3  1  0
  4  8  1  0
  4  3  1  0
  5  4  2  0
  6  5  1  0
  6  7  1  0
  7  8  2  0
  9  2  1  0
  9 11  1  0
 10  9  2  0
 12 11  1  0
 12 13  1  6
 14 13  1  0
 14 15  2  0
 16 12  1  0
 16 17  2  0
 18 14  1  0
 20 19  1  6
 20 21  1  0
 20 22  1  0
 22 23  1  6
 22 24  1  0
 23 16  1  0
 24 25  2  0
 24 26  1  0
M  END
$$$$
