HDV.pdb
     RDKit          3D

 26 26  0  0  1  0  0  0  0  0999 V2000
    8.0664  -16.7468   19.5138 N   0  0  0  0  0  0  0  0  0  0  0  0
    8.4131  -15.6255   20.4016 C   0  0  1  0  0  0  0  0  0  0  0  0
    7.4378  -14.5349   20.1104 C   0  0  0  0  0  0  0  0  0  0  0  0
    7.7186  -14.0044   18.7434 C   0  0  0  0  0  0  0  0  0  0  0  0
    8.3724  -12.8527   18.3634 C   0  0  0  0  0  0  0  0  0  0  0  0
    8.4106  -12.7406   17.0245 N   0  0  0  0  0  0  0  0  0  0  0  0
    7.7794  -13.8235   16.5442 C   0  0  0  0  0  0  0  0  0  0  0  0
    7.3579  -14.5921   17.5631 N   0  0  0  0  0  0  0  0  0  0  0  0
    8.3745  -16.0751   21.8123 C   0  0  0  0  0  0  0  0  0  0  0  0
    7.2810  -16.4103   22.3227 O   0  0  0  0  0  0  0  0  0  0  0  0
    9.5402  -16.1411   22.6150 N   0  0  0  0  0  0  0  0  0  0  0  0
    9.5239  -16.5841   23.9946 C   0  0  1  0  0  0  0  0  0  0  0  0
   10.6072  -17.5853   24.2768 C   0  0  0  0  0  0  0  0  0  0  0  0
   10.3223  -18.7930   23.4592 C   0  0  0  0  0  0  0  0  0  0  0  0
    9.2258  -19.3770   23.6492 O   0  0  0  0  0  0  0  0  0  0  0  0
    9.4995  -15.4428   24.9046 C   0  0  0  0  0  0  0  0  0  0  0  0
   10.4823  -14.6572   24.9261 O   0  0  0  0  0  0  0  0  0  0  0  0
   11.1890  -19.3078   22.5071 O   0  0  0  0  0  0  0  0  0  0  0  0
    7.1035  -12.2757   27.7939 C   0  0  0  0  0  0  0  0  0  0  0  0
    7.1188  -13.4159   26.8128 C   0  0  1  0  0  0  0  0  0  0  0  0
    6.5887  -13.0245   25.4591 C   0  0  0  0  0  0  0  0  0  0  0  0
    8.4984  -14.0499   26.7156 C   0  0  2  0  0  0  0  0  0  0  0  0
    8.4195  -15.1510   25.7874 N   0  0  0  0  0  0  0  0  0  0  0  0
    9.0117  -14.4657   28.0395 C   0  0  0  0  0  0  0  0  0  0  0  0
    8.9009  -15.6671   28.3983 O   0  0  0  0  0  0  0  0  0  0  0  0
    9.6238  -13.6088   28.9425 O   0  0  0  0  0  0  0  0  0  0  0  0
  2  1  1  6
  2  3  1  0
  4  8  1  0
  4  3  1  0
  5  4  2  0
  6  5  1  0
  6  7  1  0
  7  8  2  0
  9  2  1  0
  9 11  1  0
 10  9  2  0
 12 11  1  0
 12 13  1  1
 14 13  1  0
 14 15  2  0
 16 12  1  0
 16 17  2  0
 18 14  1  0
 20 19  1  1
 20 21  1  0
 20 22  1  0
 22 23  1  6
 22 24  1  0
 23 16  1  0
 24 25  2  0
 24 26  1  0
M  END
$$$$
