DIH.pdb
     RDKit          3D

 27 27  0  0  1  0  0  0  0  0999 V2000
    8.4925  -17.3014   16.1746 N   0  0  0  0  0  0  0  0  0  0  0  0
    9.9635  -17.3801   16.4273 C   0  0  1  0  0  0  0  0  0  0  0  0
   10.6422  -16.9527   15.1877 C   0  0  0  0  0  0  0  0  0  0  0  0
   10.5196  -17.8537   14.0372 C   0  0  0  0  0  0  0  0  0  0  0  0
   11.3864  -17.9926   13.1412 O   0  0  0  0  0  0  0  0  0  0  0  0
   10.1380  -16.5125   17.6126 C   0  0  0  0  0  0  0  0  0  0  0  0
   11.3450  -16.1957   17.9423 O   0  0  0  0  0  0  0  0  0  0  0  0
    9.3453  -18.6110   13.9395 O   0  0  0  0  0  0  0  0  0  0  0  0
    7.3925  -12.0214   20.4963 C   0  0  0  0  0  0  0  0  0  0  0  0
    8.5838  -12.9501   20.5917 C   0  0  0  0  0  0  0  0  0  0  0  0
    8.3894  -14.1056   19.6726 C   0  0  2  0  0  0  0  0  0  0  0  0
    7.0338  -14.7638   19.8440 C   0  0  0  0  0  0  0  0  0  0  0  0
    9.5032  -15.0986   19.6089 C   0  0  2  0  0  0  0  0  0  0  0  0
    9.1592  -15.9748   18.4523 N   0  0  0  0  0  0  0  0  0  0  0  0
    9.7219  -15.9236   20.7939 C   0  0  0  0  0  0  0  0  0  0  0  0
    8.9217  -16.9081   21.0021 O   0  0  0  0  0  0  0  0  0  0  0  0
   10.7268  -15.7761   21.7590 N   0  0  0  0  0  0  0  0  0  0  0  0
   10.8548  -16.7212   22.9004 C   0  0  1  0  0  0  0  0  0  0  0  0
   12.0889  -17.5308   22.7420 C   0  0  0  0  0  0  0  0  0  0  0  0
   12.0625  -18.5536   21.6848 C   0  0  0  0  0  0  0  0  0  0  0  0
   11.1509  -19.5150   21.3451 C   0  0  0  0  0  0  0  0  0  0  0  0
   11.5261  -20.1923   20.2394 N   0  0  0  0  0  0  0  0  0  0  0  0
   12.6869  -19.6481   19.8800 C   0  0  0  0  0  0  0  0  0  0  0  0
   13.0322  -18.6734   20.7171 N   0  0  0  0  0  0  0  0  0  0  0  0
   10.8729  -15.8830   24.1488 C   0  0  0  0  0  0  0  0  0  0  0  0
   10.8048  -14.6520   24.2077 O   0  0  0  0  0  0  0  0  0  0  0  0
   10.9776  -16.5169   25.4102 O   0  0  0  0  0  0  0  0  0  0  0  0
  2  1  1  6
  2  3  1  0
  3  4  1  0
  4  5  2  0
  4  8  1  0
  6  2  1  0
  6  7  2  0
  9 10  1  0
 11 13  1  0
 11 10  1  0
 11 12  1  1
 13 14  1  6
 14  6  1  0
 15 13  1  0
 16 15  2  0
 17 15  1  0
 18 25  1  0
 18 17  1  0
 19 20  1  0
 18 19  1  6
 20 21  2  0
 21 22  1  0
 23 22  1  0
 24 20  1  0
 24 23  2  0
 25 27  1  0
 26 25  2  0
M  END
$$$$
