DIH.pdb
     RDKit          3D

 27 27  0  0  1  0  0  0  0  0999 V2000
    6.9308  -16.3529   21.9123 N   0  0  0  0  0  0  0  0  0  0  0  0
    8.3744  -16.0447   21.6779 C   0  0  1  0  0  0  0  0  0  0  0  0
    8.4499  -15.2069   20.4646 C   0  0  0  0  0  0  0  0  0  0  0  0
    8.1503  -15.8761   19.1946 C   0  0  0  0  0  0  0  0  0  0  0  0
    7.8647  -17.0918   19.0759 O   0  0  0  0  0  0  0  0  0  0  0  0
    8.7832  -15.4095   22.9497 C   0  0  0  0  0  0  0  0  0  0  0  0
    9.9635  -14.8895   22.9996 O   0  0  0  0  0  0  0  0  0  0  0  0
    8.1881  -15.0930   18.0338 O   0  0  0  0  0  0  0  0  0  0  0  0
    5.9070  -12.3429   26.1925 C   0  0  0  0  0  0  0  0  0  0  0  0
    7.0410  -12.9359   25.3843 C   0  0  0  0  0  0  0  0  0  0  0  0
    7.6316  -14.0858   26.1237 C   0  0  2  0  0  0  0  0  0  0  0  0
    8.0241  -13.7247   27.5434 C   0  0  0  0  0  0  0  0  0  0  0  0
    8.6967  -14.8555   25.4141 C   0  0  2  0  0  0  0  0  0  0  0  0
    8.0587  -15.2910   24.1385 N   0  0  0  0  0  0  0  0  0  0  0  0
    9.2425  -16.0203   26.1055 C   0  0  0  0  0  0  0  0  0  0  0  0
    8.4274  -16.9464   26.4671 O   0  0  0  0  0  0  0  0  0  0  0  0
   10.5832  -16.2655   26.4302 N   0  0  0  0  0  0  0  0  0  0  0  0
   10.9873  -17.4599   27.2191 C   0  0  1  0  0  0  0  0  0  0  0  0
   12.2028  -18.0659   26.6200 C   0  0  0  0  0  0  0  0  0  0  0  0
   12.0575  -18.5977   25.2559 C   0  0  0  0  0  0  0  0  0  0  0  0
   10.9743  -19.0120   24.5310 C   0  0  0  0  0  0  0  0  0  0  0  0
   11.3179  -19.3630   23.2737 N   0  0  0  0  0  0  0  0  0  0  0  0
   12.6329  -19.1649   23.2085 C   0  0  0  0  0  0  0  0  0  0  0  0
   13.1015  -18.7112   24.3680 N   0  0  0  0  0  0  0  0  0  0  0  0
   11.2159  -16.9840   28.6272 C   0  0  0  0  0  0  0  0  0  0  0  0
   11.2060  -15.8131   29.0173 O   0  0  0  0  0  0  0  0  0  0  0  0
   11.4736  -17.9308   29.6476 O   0  0  0  0  0  0  0  0  0  0  0  0
  2  1  1  1
  2  3  1  0
  3  4  1  0
  4  5  2  0
  4  8  1  0
  6  2  1  0
  6  7  2  0
  9 10  1  0
 11 13  1  0
 11 10  1  0
 11 12  1  1
 13 14  1  6
 14  6  1  0
 15 13  1  0
 16 15  2  0
 17 15  1  0
 18 25  1  0
 18 17  1  0
 19 20  1  0
 18 19  1  6
 20 21  2  0
 21 22  1  0
 23 22  1  0
 24 20  1  0
 24 23  2  0
 25 27  1  0
 26 25  2  0
M  END
$$$$
