DIH.pdb
     RDKit          3D

 27 27  0  0  1  0  0  0  0  0999 V2000
    9.9788  -18.1290   17.4694 N   0  0  0  0  0  0  0  0  0  0  0  0
    8.8343  -18.2200   18.4264 C   0  0  1  0  0  0  0  0  0  0  0  0
    8.7932  -19.6088   18.9260 C   0  0  0  0  0  0  0  0  0  0  0  0
    8.4896  -20.6460   17.9348 C   0  0  0  0  0  0  0  0  0  0  0  0
    9.1585  -21.6939   17.7674 O   0  0  0  0  0  0  0  0  0  0  0  0
    9.1521  -17.1677   19.4163 C   0  0  0  0  0  0  0  0  0  0  0  0
   10.3885  -17.0325   19.7610 O   0  0  0  0  0  0  0  0  0  0  0  0
    7.3690  -20.4437   17.1192 O   0  0  0  0  0  0  0  0  0  0  0  0
    6.8482  -12.3403   19.4938 C   0  0  0  0  0  0  0  0  0  0  0  0
    7.9491  -13.3758   19.5749 C   0  0  0  0  0  0  0  0  0  0  0  0
    7.8534  -14.1041   20.8704 C   0  0  2  0  0  0  0  0  0  0  0  0
    7.8716  -13.1705   22.0655 C   0  0  0  0  0  0  0  0  0  0  0  0
    8.7661  -15.2734   21.0443 C   0  0  2  0  0  0  0  0  0  0  0  0
    8.2835  -16.2771   20.0525 N   0  0  0  0  0  0  0  0  0  0  0  0
    8.8120  -15.8849   22.3697 C   0  0  0  0  0  0  0  0  0  0  0  0
    7.7934  -16.5667   22.7572 O   0  0  0  0  0  0  0  0  0  0  0  0
    9.8594  -15.8242   23.2983 N   0  0  0  0  0  0  0  0  0  0  0  0
   10.1291  -16.9421   24.2417 C   0  0  1  0  0  0  0  0  0  0  0  0
   10.3351  -18.1993   23.4799 C   0  0  0  0  0  0  0  0  0  0  0  0
   10.6520  -19.3955   24.2758 C   0  0  0  0  0  0  0  0  0  0  0  0
   10.7171  -19.6247   25.6225 C   0  0  0  0  0  0  0  0  0  0  0  0
   10.9841  -20.9189   25.8979 N   0  0  0  0  0  0  0  0  0  0  0  0
   11.0862  -21.5095   24.7089 C   0  0  0  0  0  0  0  0  0  0  0  0
   10.8943  -20.6329   23.7267 N   0  0  0  0  0  0  0  0  0  0  0  0
   11.3423  -16.5459   25.0372 C   0  0  0  0  0  0  0  0  0  0  0  0
   11.6454  -16.9490   26.1637 O   0  0  0  0  0  0  0  0  0  0  0  0
   12.2620  -15.6207   24.4877 O   0  0  0  0  0  0  0  0  0  0  0  0
  2  1  1  6
  2  3  1  0
  3  4  1  0
  4  5  2  0
  4  8  1  0
  6  2  1  0
  6  7  2  0
  9 10  1  0
 11 13  1  0
 11 10  1  0
 11 12  1  1
 13 14  1  6
 14  6  1  0
 15 13  1  0
 16 15  2  0
 17 15  1  0
 18 25  1  0
 18 17  1  0
 19 20  1  0
 18 19  1  6
 20 21  2  0
 21 22  1  0
 23 22  1  0
 24 20  1  0
 24 23  2  0
 25 27  1  0
 26 25  2  0
M  END
$$$$
