DIH.pdb
     RDKit          3D

 27 27  0  0  1  0  0  0  0  0999 V2000
    8.3114  -14.8252   20.6829 N   0  0  0  0  0  0  0  0  0  0  0  0
    7.5830  -15.5906   21.7400 C   0  0  1  0  0  0  0  0  0  0  0  0
    7.8085  -17.0251   21.4730 C   0  0  0  0  0  0  0  0  0  0  0  0
    7.0184  -17.6149   20.3875 C   0  0  0  0  0  0  0  0  0  0  0  0
    6.3480  -16.9608   19.5529 O   0  0  0  0  0  0  0  0  0  0  0  0
    8.1591  -15.0495   22.9903 C   0  0  0  0  0  0  0  0  0  0  0  0
    9.4123  -14.7407   22.9801 O   0  0  0  0  0  0  0  0  0  0  0  0
    7.0177  -19.0116   20.2820 O   0  0  0  0  0  0  0  0  0  0  0  0
    7.6918  -11.1600   25.6201 C   0  0  0  0  0  0  0  0  0  0  0  0
    6.7956  -12.3641   25.4256 C   0  0  0  0  0  0  0  0  0  0  0  0
    7.3483  -13.5233   26.1796 C   0  0  2  0  0  0  0  0  0  0  0  0
    7.8835  -13.1289   27.5427 C   0  0  0  0  0  0  0  0  0  0  0  0
    8.2853  -14.4155   25.4336 C   0  0  2  0  0  0  0  0  0  0  0  0
    7.5271  -14.8217   24.2155 N   0  0  0  0  0  0  0  0  0  0  0  0
    8.7582  -15.6085   26.1307 C   0  0  0  0  0  0  0  0  0  0  0  0
    7.8962  -16.5114   26.4379 O   0  0  0  0  0  0  0  0  0  0  0  0
   10.0729  -15.9041   26.5143 N   0  0  0  0  0  0  0  0  0  0  0  0
   10.4257  -17.2030   27.1475 C   0  0  1  0  0  0  0  0  0  0  0  0
   11.7759  -17.6264   26.6990 C   0  0  0  0  0  0  0  0  0  0  0  0
   11.9311  -17.8788   25.2579 C   0  0  0  0  0  0  0  0  0  0  0  0
   11.0308  -18.0532   24.2432 C   0  0  0  0  0  0  0  0  0  0  0  0
   11.6436  -18.1916   23.0484 N   0  0  0  0  0  0  0  0  0  0  0  0
   12.9447  -18.1015   23.3167 C   0  0  0  0  0  0  0  0  0  0  0  0
   13.1480  -17.9157   24.6183 N   0  0  0  0  0  0  0  0  0  0  0  0
   10.3548  -16.9863   28.6340 C   0  0  0  0  0  0  0  0  0  0  0  0
   10.1461  -15.9152   29.2108 O   0  0  0  0  0  0  0  0  0  0  0  0
   10.5395  -18.0859   29.5062 O   0  0  0  0  0  0  0  0  0  0  0  0
  2  1  1  6
  2  3  1  0
  3  4  1  0
  4  5  2  0
  4  8  1  0
  6  2  1  0
  6  7  2  0
  9 10  1  0
 11 13  1  0
 11 10  1  0
 11 12  1  1
 13 14  1  6
 14  6  1  0
 15 13  1  0
 16 15  2  0
 17 15  1  0
 18 25  1  0
 18 17  1  0
 19 20  1  0
 18 19  1  1
 20 21  2  0
 21 22  1  0
 23 22  1  0
 24 20  1  0
 24 23  2  0
 25 27  1  0
 26 25  2  0
M  END
$$$$
