DIH.pdb
     RDKit          3D

 27 27  0  0  1  0  0  0  0  0999 V2000
   10.8974  -17.8862   17.6460 N   0  0  0  0  0  0  0  0  0  0  0  0
    9.6430  -18.1154   18.4257 C   0  0  1  0  0  0  0  0  0  0  0  0
    9.5806  -19.5573   18.7371 C   0  0  0  0  0  0  0  0  0  0  0  0
    9.1611  -20.4396   17.6435 C   0  0  0  0  0  0  0  0  0  0  0  0
    9.9319  -20.9312   16.7845 O   0  0  0  0  0  0  0  0  0  0  0  0
    9.7987  -17.1947   19.5729 C   0  0  0  0  0  0  0  0  0  0  0  0
   10.9993  -16.9570   19.9830 O   0  0  0  0  0  0  0  0  0  0  0  0
    7.7981  -20.7511   17.5593 O   0  0  0  0  0  0  0  0  0  0  0  0
    7.0733  -12.6285   20.1322 C   0  0  0  0  0  0  0  0  0  0  0  0
    8.2350  -13.5988   20.1395 C   0  0  0  0  0  0  0  0  0  0  0  0
    8.1143  -14.5116   21.3100 C   0  0  2  0  0  0  0  0  0  0  0  0
    7.9269  -13.7623   22.6152 C   0  0  0  0  0  0  0  0  0  0  0  0
    9.1356  -15.5962   21.4148 C   0  0  2  0  0  0  0  0  0  0  0  0
    8.8074  -16.5299   20.2993 N   0  0  0  0  0  0  0  0  0  0  0  0
    9.1840  -16.3396   22.6709 C   0  0  0  0  0  0  0  0  0  0  0  0
    8.1665  -17.0585   22.9883 O   0  0  0  0  0  0  0  0  0  0  0  0
   10.2326  -16.3728   23.5994 N   0  0  0  0  0  0  0  0  0  0  0  0
   10.1622  -17.2148   24.8236 C   0  0  1  0  0  0  0  0  0  0  0  0
   11.5076  -17.7613   25.1314 C   0  0  0  0  0  0  0  0  0  0  0  0
   11.6511  -18.4389   26.4295 C   0  0  0  0  0  0  0  0  0  0  0  0
   10.7447  -18.8536   27.3659 C   0  0  0  0  0  0  0  0  0  0  0  0
   11.3419  -19.5028   28.3877 N   0  0  0  0  0  0  0  0  0  0  0  0
   12.6392  -19.4965   28.0877 C   0  0  0  0  0  0  0  0  0  0  0  0
   12.8550  -18.8732   26.9324 N   0  0  0  0  0  0  0  0  0  0  0  0
    9.6355  -16.3306   25.9201 C   0  0  0  0  0  0  0  0  0  0  0  0
    9.5855  -15.0975   25.9087 O   0  0  0  0  0  0  0  0  0  0  0  0
    9.1355  -16.9183   27.1070 O   0  0  0  0  0  0  0  0  0  0  0  0
  2  1  1  6
  2  3  1  0
  3  4  1  0
  4  5  2  0
  4  8  1  0
  6  2  1  0
  6  7  2  0
  9 10  1  0
 11 13  1  0
 11 10  1  0
 11 12  1  1
 13 14  1  6
 14  6  1  0
 15 13  1  0
 16 15  2  0
 17 15  1  0
 18 25  1  0
 18 17  1  0
 19 20  1  0
 18 19  1  1
 20 21  2  0
 21 22  1  0
 23 22  1  0
 24 20  1  0
 24 23  2  0
 25 27  1  0
 26 25  2  0
M  END
$$$$
