DIH.pdb
     RDKit          3D

 27 27  0  0  1  0  0  0  0  0999 V2000
    9.9136  -17.8508   16.1509 N   0  0  0  0  0  0  0  0  0  0  0  0
    8.8374  -17.9788   17.1801 C   0  0  1  0  0  0  0  0  0  0  0  0
    8.7253  -19.4117   17.5177 C   0  0  0  0  0  0  0  0  0  0  0  0
    7.9558  -20.2399   16.5836 C   0  0  0  0  0  0  0  0  0  0  0  0
    7.5311  -19.8546   15.4679 O   0  0  0  0  0  0  0  0  0  0  0  0
    9.3058  -17.0780   18.2559 C   0  0  0  0  0  0  0  0  0  0  0  0
   10.5754  -16.8597   18.3350 O   0  0  0  0  0  0  0  0  0  0  0  0
    7.6791  -21.5565   16.9738 O   0  0  0  0  0  0  0  0  0  0  0  0
    6.5757  -12.7529   20.0349 C   0  0  0  0  0  0  0  0  0  0  0  0
    7.7590  -13.5737   19.5691 C   0  0  0  0  0  0  0  0  0  0  0  0
    8.1289  -14.5576   20.6239 C   0  0  2  0  0  0  0  0  0  0  0  0
    8.3795  -13.9025   21.9686 C   0  0  0  0  0  0  0  0  0  0  0  0
    9.1858  -15.5502   20.2656 C   0  0  2  0  0  0  0  0  0  0  0  0
    8.5529  -16.4144   19.2280 N   0  0  0  0  0  0  0  0  0  0  0  0
    9.7001  -16.3874   21.3460 C   0  0  0  0  0  0  0  0  0  0  0  0
    8.9046  -17.2464   21.8770 O   0  0  0  0  0  0  0  0  0  0  0  0
   10.9911  -16.3753   21.8900 N   0  0  0  0  0  0  0  0  0  0  0  0
   11.3732  -17.2786   23.0084 C   0  0  1  0  0  0  0  0  0  0  0  0
   12.8319  -17.5484   22.9559 C   0  0  0  0  0  0  0  0  0  0  0  0
   13.3907  -18.3152   24.0803 C   0  0  0  0  0  0  0  0  0  0  0  0
   12.8149  -19.0301   25.0942 C   0  0  0  0  0  0  0  0  0  0  0  0
   13.7405  -19.6337   25.8696 N   0  0  0  0  0  0  0  0  0  0  0  0
   14.9116  -19.2944   25.3345 C   0  0  0  0  0  0  0  0  0  0  0  0
   14.7381  -18.5129   24.2719 N   0  0  0  0  0  0  0  0  0  0  0  0
   10.9617  -16.5844   24.2774 C   0  0  0  0  0  0  0  0  0  0  0  0
   10.9498  -15.3666   24.4774 O   0  0  0  0  0  0  0  0  0  0  0  0
   10.5375  -17.3563   25.3856 O   0  0  0  0  0  0  0  0  0  0  0  0
  2  1  1  6
  2  3  1  0
  3  4  1  0
  4  5  2  0
  4  8  1  0
  6  2  1  0
  6  7  2  0
  9 10  1  0
 11 13  1  0
 11 10  1  0
 11 12  1  1
 13 14  1  6
 14  6  1  0
 15 13  1  0
 16 15  2  0
 17 15  1  0
 18 25  1  0
 18 17  1  0
 19 20  1  0
 18 19  1  1
 20 21  2  0
 21 22  1  0
 23 22  1  0
 24 20  1  0
 24 23  2  0
 25 27  1  0
 26 25  2  0
M  END
$$$$
