DIH.pdb
     RDKit          3D

 27 27  0  0  1  0  0  0  0  0999 V2000
    8.6670  -15.5550   20.9961 N   0  0  0  0  0  0  0  0  0  0  0  0
    7.9600  -16.2289   22.1274 C   0  0  1  0  0  0  0  0  0  0  0  0
    8.2521  -17.6726   22.0259 C   0  0  0  0  0  0  0  0  0  0  0  0
    7.6658  -18.3740   20.8792 C   0  0  0  0  0  0  0  0  0  0  0  0
    6.4943  -18.8205   20.8358 O   0  0  0  0  0  0  0  0  0  0  0  0
    8.4959  -15.5250   23.3130 C   0  0  0  0  0  0  0  0  0  0  0  0
    9.7463  -15.2055   23.2972 O   0  0  0  0  0  0  0  0  0  0  0  0
    8.4805  -18.5543   19.7542 O   0  0  0  0  0  0  0  0  0  0  0  0
    5.7812  -11.8611   26.0146 C   0  0  0  0  0  0  0  0  0  0  0  0
    6.9060  -12.5810   25.3023 C   0  0  0  0  0  0  0  0  0  0  0  0
    7.5164  -13.5825   26.2200 C   0  0  2  0  0  0  0  0  0  0  0  0
    7.9851  -12.9668   27.5244 C   0  0  0  0  0  0  0  0  0  0  0  0
    8.5332  -14.4986   25.6222 C   0  0  2  0  0  0  0  0  0  0  0  0
    7.8275  -15.1493   24.4810 N   0  0  0  0  0  0  0  0  0  0  0  0
    9.0920  -15.5265   26.4962 C   0  0  0  0  0  0  0  0  0  0  0  0
    8.2959  -16.4204   26.9652 O   0  0  0  0  0  0  0  0  0  0  0  0
   10.4271  -15.6685   26.8964 N   0  0  0  0  0  0  0  0  0  0  0  0
   10.8495  -16.7462   27.8306 C   0  0  1  0  0  0  0  0  0  0  0  0
   12.1734  -17.2748   27.4167 C   0  0  0  0  0  0  0  0  0  0  0  0
   12.2075  -18.0165   26.1465 C   0  0  0  0  0  0  0  0  0  0  0  0
   11.2254  -18.5049   25.3295 C   0  0  0  0  0  0  0  0  0  0  0  0
   11.7361  -19.0682   24.2142 N   0  0  0  0  0  0  0  0  0  0  0  0
   13.0552  -18.9300   24.3322 C   0  0  0  0  0  0  0  0  0  0  0  0
   13.3667  -18.3101   25.4673 N   0  0  0  0  0  0  0  0  0  0  0  0
   10.8782  -16.1338   29.2038 C   0  0  0  0  0  0  0  0  0  0  0  0
   11.0369  -16.7323   30.2715 O   0  0  0  0  0  0  0  0  0  0  0  0
   10.7106  -14.7352   29.3447 O   0  0  0  0  0  0  0  0  0  0  0  0
  2  1  1  6
  2  3  1  0
  3  4  1  0
  4  5  2  0
  4  8  1  0
  6  2  1  0
  6  7  2  0
  9 10  1  0
 11 13  1  0
 11 10  1  0
 11 12  1  1
 13 14  1  6
 14  6  1  0
 15 13  1  0
 16 15  2  0
 17 15  1  0
 18 25  1  0
 18 17  1  0
 19 20  1  0
 18 19  1  6
 20 21  2  0
 21 22  1  0
 23 22  1  0
 24 20  1  0
 24 23  2  0
 25 27  1  0
 26 25  2  0
M  END
$$$$
