DIH.pdb
     RDKit          3D

 27 27  0  0  1  0  0  0  0  0999 V2000
   11.8306  -17.0734   16.9242 N   0  0  0  0  0  0  0  0  0  0  0  0
   10.5518  -17.4930   17.5743 C   0  0  1  0  0  0  0  0  0  0  0  0
   10.6583  -18.9391   17.8524 C   0  0  0  0  0  0  0  0  0  0  0  0
   10.6579  -19.8260   16.6846 C   0  0  0  0  0  0  0  0  0  0  0  0
   11.1170  -20.9934   16.6722 O   0  0  0  0  0  0  0  0  0  0  0  0
   10.4721  -16.5955   18.7474 C   0  0  0  0  0  0  0  0  0  0  0  0
   11.5648  -16.3704   19.3965 O   0  0  0  0  0  0  0  0  0  0  0  0
   10.1024  -19.3250   15.5004 O   0  0  0  0  0  0  0  0  0  0  0  0
    7.0357  -12.3720   19.2674 C   0  0  0  0  0  0  0  0  0  0  0  0
    8.3007  -13.2030   19.2574 C   0  0  0  0  0  0  0  0  0  0  0  0
    8.2725  -14.1667   20.3924 C   0  0  2  0  0  0  0  0  0  0  0  0
    7.9384  -13.5005   21.7132 C   0  0  0  0  0  0  0  0  0  0  0  0
    9.4333  -15.1003   20.5003 C   0  0  2  0  0  0  0  0  0  0  0  0
    9.3542  -15.9414   19.2715 N   0  0  0  0  0  0  0  0  0  0  0  0
    9.4797  -15.9642   21.6769 C   0  0  0  0  0  0  0  0  0  0  0  0
    8.5665  -16.8597   21.8066 O   0  0  0  0  0  0  0  0  0  0  0  0
   10.4249  -15.9426   22.7109 N   0  0  0  0  0  0  0  0  0  0  0  0
   10.3798  -16.9242   23.8275 C   0  0  1  0  0  0  0  0  0  0  0  0
   11.6543  -17.6837   23.8760 C   0  0  0  0  0  0  0  0  0  0  0  0
   11.8546  -18.6830   22.8149 C   0  0  0  0  0  0  0  0  0  0  0  0
   11.1072  -19.0474   21.7291 C   0  0  0  0  0  0  0  0  0  0  0  0
   11.7323  -19.9816   20.9817 N   0  0  0  0  0  0  0  0  0  0  0  0
   12.8871  -20.2051   21.6057 C   0  0  0  0  0  0  0  0  0  0  0  0
   12.9898  -19.4502   22.6964 N   0  0  0  0  0  0  0  0  0  0  0  0
   10.1337  -16.1325   25.0822 C   0  0  0  0  0  0  0  0  0  0  0  0
    9.9702  -16.5880   26.2176 O   0  0  0  0  0  0  0  0  0  0  0  0
   10.0729  -14.7199   25.0120 O   0  0  0  0  0  0  0  0  0  0  0  0
  2  1  1  1
  2  3  1  0
  3  4  1  0
  4  5  2  0
  4  8  1  0
  6  2  1  0
  6  7  2  0
  9 10  1  0
 11 13  1  0
 11 10  1  0
 11 12  1  1
 13 14  1  6
 14  6  1  0
 15 13  1  0
 16 15  2  0
 17 15  1  0
 18 25  1  0
 18 17  1  0
 19 20  1  0
 18 19  1  1
 20 21  2  0
 21 22  1  0
 23 22  1  0
 24 20  1  0
 24 23  2  0
 25 27  1  0
 26 25  2  0
M  END
$$$$
