DIH.pdb
     RDKit          3D

 27 27  0  0  1  0  0  0  0  0999 V2000
    9.4354  -17.2980   16.2935 N   0  0  0  0  0  0  0  0  0  0  0  0
    9.3739  -18.1172   17.5420 C   0  0  1  0  0  0  0  0  0  0  0  0
   10.3301  -19.2305   17.3804 C   0  0  0  0  0  0  0  0  0  0  0  0
    9.9277  -20.3037   16.4656 C   0  0  0  0  0  0  0  0  0  0  0  0
    9.5433  -20.1305   15.2841 O   0  0  0  0  0  0  0  0  0  0  0  0
    9.6801  -17.1271   18.5975 C   0  0  0  0  0  0  0  0  0  0  0  0
   10.9230  -16.8481   18.8055 O   0  0  0  0  0  0  0  0  0  0  0  0
    9.9791  -21.6151   16.9551 O   0  0  0  0  0  0  0  0  0  0  0  0
    6.6318  -12.8312   19.8458 C   0  0  0  0  0  0  0  0  0  0  0  0
    7.8713  -13.6477   19.5498 C   0  0  0  0  0  0  0  0  0  0  0  0
    8.1606  -14.5488   20.6996 C   0  0  2  0  0  0  0  0  0  0  0  0
    8.2623  -13.7999   22.0145 C   0  0  0  0  0  0  0  0  0  0  0  0
    9.2718  -15.5290   20.5124 C   0  0  2  0  0  0  0  0  0  0  0  0
    8.7950  -16.4342   19.4274 N   0  0  0  0  0  0  0  0  0  0  0  0
    9.6538  -16.3254   21.6754 C   0  0  0  0  0  0  0  0  0  0  0  0
    8.8006  -17.1684   22.1383 O   0  0  0  0  0  0  0  0  0  0  0  0
   10.8709  -16.2888   22.3684 N   0  0  0  0  0  0  0  0  0  0  0  0
   11.1503  -17.2124   23.5004 C   0  0  1  0  0  0  0  0  0  0  0  0
   12.4548  -17.8868   23.2839 C   0  0  0  0  0  0  0  0  0  0  0  0
   12.4921  -18.9004   22.2182 C   0  0  0  0  0  0  0  0  0  0  0  0
   11.5224  -19.4535   21.4280 C   0  0  0  0  0  0  0  0  0  0  0  0
   12.0418  -20.3111   20.5243 N   0  0  0  0  0  0  0  0  0  0  0  0
   13.3541  -20.2947   20.7493 C   0  0  0  0  0  0  0  0  0  0  0  0
   13.6531  -19.4678   21.7476 N   0  0  0  0  0  0  0  0  0  0  0  0
   11.1361  -16.3741   24.7488 C   0  0  0  0  0  0  0  0  0  0  0  0
   11.2149  -16.7848   25.9100 O   0  0  0  0  0  0  0  0  0  0  0  0
   11.0219  -14.9672   24.6400 O   0  0  0  0  0  0  0  0  0  0  0  0
  2  1  1  6
  2  3  1  0
  3  4  1  0
  4  5  2  0
  4  8  1  0
  6  2  1  0
  6  7  2  0
  9 10  1  0
 11 13  1  0
 11 10  1  0
 11 12  1  1
 13 14  1  6
 14  6  1  0
 15 13  1  0
 16 15  2  0
 17 15  1  0
 18 25  1  0
 18 17  1  0
 19 20  1  0
 18 19  1  6
 20 21  2  0
 21 22  1  0
 23 22  1  0
 24 20  1  0
 24 23  2  0
 25 27  1  0
 26 25  2  0
M  END
$$$$
