DIH.pdb
     RDKit          3D

 27 27  0  0  1  0  0  0  0  0999 V2000
   10.0133  -17.7796   16.9637 N   0  0  0  0  0  0  0  0  0  0  0  0
    8.9900  -18.0410   18.0212 C   0  0  1  0  0  0  0  0  0  0  0  0
    9.1112  -19.4620   18.4033 C   0  0  0  0  0  0  0  0  0  0  0  0
    8.6121  -20.4400   17.4312 C   0  0  0  0  0  0  0  0  0  0  0  0
    8.0753  -20.1499   16.3351 O   0  0  0  0  0  0  0  0  0  0  0  0
    9.3305  -17.0433   19.0589 C   0  0  0  0  0  0  0  0  0  0  0  0
   10.5821  -16.7972   19.2560 O   0  0  0  0  0  0  0  0  0  0  0  0
    8.7487  -21.7950   17.7585 O   0  0  0  0  0  0  0  0  0  0  0  0
    6.7622  -12.4143   19.8556 C   0  0  0  0  0  0  0  0  0  0  0  0
    7.8582  -13.4445   19.6873 C   0  0  0  0  0  0  0  0  0  0  0  0
    7.9753  -14.2550   20.9311 C   0  0  2  0  0  0  0  0  0  0  0  0
    8.0808  -13.3968   22.1770 C   0  0  0  0  0  0  0  0  0  0  0  0
    8.9791  -15.3607   20.9117 C   0  0  2  0  0  0  0  0  0  0  0  0
    8.4704  -16.3116   19.8817 N   0  0  0  0  0  0  0  0  0  0  0  0
    9.1989  -16.0762   22.1656 C   0  0  0  0  0  0  0  0  0  0  0  0
    8.2222  -16.7541   22.6548 O   0  0  0  0  0  0  0  0  0  0  0  0
   10.3765  -16.1223   22.9232 N   0  0  0  0  0  0  0  0  0  0  0  0
   10.4728  -16.9373   24.1638 C   0  0  1  0  0  0  0  0  0  0  0  0
   11.7871  -17.6259   24.2077 C   0  0  0  0  0  0  0  0  0  0  0  0
   12.0037  -18.6751   23.1993 C   0  0  0  0  0  0  0  0  0  0  0  0
   11.1776  -19.2709   22.2866 C   0  0  0  0  0  0  0  0  0  0  0  0
   11.8429  -20.1507   21.5085 N   0  0  0  0  0  0  0  0  0  0  0  0
   13.1026  -20.1053   21.9375 C   0  0  0  0  0  0  0  0  0  0  0  0
   13.2306  -19.2395   22.9395 N   0  0  0  0  0  0  0  0  0  0  0  0
   10.2820  -15.9878   25.3142 C   0  0  0  0  0  0  0  0  0  0  0  0
   10.1734  -14.7604   25.2429 O   0  0  0  0  0  0  0  0  0  0  0  0
   10.2139  -16.4983   26.6328 O   0  0  0  0  0  0  0  0  0  0  0  0
  2  1  1  6
  2  3  1  0
  3  4  1  0
  4  5  2  0
  4  8  1  0
  6  2  1  0
  6  7  2  0
  9 10  1  0
 11 13  1  0
 11 10  1  0
 11 12  1  1
 13 14  1  6
 14  6  1  0
 15 13  1  0
 16 15  2  0
 17 15  1  0
 18 25  1  0
 18 17  1  0
 19 20  1  0
 18 19  1  1
 20 21  2  0
 21 22  1  0
 23 22  1  0
 24 20  1  0
 24 23  2  0
 25 27  1  0
 26 25  2  0
M  END
$$$$
