DIH.pdb
     RDKit          3D

 27 27  0  0  1  0  0  0  0  0999 V2000
    9.4097  -15.6642   20.5444 N   0  0  0  0  0  0  0  0  0  0  0  0
    8.5392  -16.2832   21.5899 C   0  0  1  0  0  0  0  0  0  0  0  0
    8.7813  -17.7392   21.5525 C   0  0  0  0  0  0  0  0  0  0  0  0
    8.4692  -18.4164   20.2898 C   0  0  0  0  0  0  0  0  0  0  0  0
    7.3126  -18.5814   19.8329 O   0  0  0  0  0  0  0  0  0  0  0  0
    8.9516  -15.5731   22.8203 C   0  0  0  0  0  0  0  0  0  0  0  0
   10.2163  -15.3924   23.0044 O   0  0  0  0  0  0  0  0  0  0  0  0
    9.5474  -18.9124   19.5459 O   0  0  0  0  0  0  0  0  0  0  0  0
    6.9965  -11.5011   26.8454 C   0  0  0  0  0  0  0  0  0  0  0  0
    8.0999  -12.5074   26.5989 C   0  0  0  0  0  0  0  0  0  0  0  0
    7.7407  -13.3657   25.4362 C   0  0  2  0  0  0  0  0  0  0  0  0
    6.3247  -13.9017   25.5241 C   0  0  0  0  0  0  0  0  0  0  0  0
    8.7287  -14.4200   25.0582 C   0  0  2  0  0  0  0  0  0  0  0  0
    8.1490  -15.0592   23.8420 N   0  0  0  0  0  0  0  0  0  0  0  0
    9.0139  -15.4472   26.0564 C   0  0  0  0  0  0  0  0  0  0  0  0
    8.1017  -16.3179   26.3065 O   0  0  0  0  0  0  0  0  0  0  0  0
   10.1932  -15.6111   26.7949 N   0  0  0  0  0  0  0  0  0  0  0  0
   10.3799  -16.7620   27.7185 C   0  0  1  0  0  0  0  0  0  0  0  0
   11.6493  -17.4603   27.3953 C   0  0  0  0  0  0  0  0  0  0  0  0
   11.7428  -18.0463   26.0490 C   0  0  0  0  0  0  0  0  0  0  0  0
   10.8106  -18.5750   25.1993 C   0  0  0  0  0  0  0  0  0  0  0  0
   11.3566  -18.9355   24.0187 N   0  0  0  0  0  0  0  0  0  0  0  0
   12.6474  -18.6277   24.1285 C   0  0  0  0  0  0  0  0  0  0  0  0
   12.9082  -18.0984   25.3208 N   0  0  0  0  0  0  0  0  0  0  0  0
   10.3728  -16.1966   29.1119 C   0  0  0  0  0  0  0  0  0  0  0  0
   10.2765  -15.0054   29.4205 O   0  0  0  0  0  0  0  0  0  0  0  0
   10.4858  -17.0727   30.2181 O   0  0  0  0  0  0  0  0  0  0  0  0
  2  1  1  6
  2  3  1  0
  3  4  1  0
  4  5  2  0
  4  8  1  0
  6  2  1  0
  6  7  2  0
  9 10  1  0
 11 13  1  0
 11 10  1  0
 11 12  1  1
 13 14  1  6
 14  6  1  0
 15 13  1  0
 16 15  2  0
 17 15  1  0
 18 25  1  0
 18 17  1  0
 19 20  1  0
 18 19  1  6
 20 21  2  0
 21 22  1  0
 23 22  1  0
 24 20  1  0
 24 23  2  0
 25 27  1  0
 26 25  2  0
M  END
$$$$
