DIH.pdb
     RDKit          3D

 27 27  0  0  1  0  0  0  0  0999 V2000
    8.9865  -15.3337   20.4798 N   0  0  0  0  0  0  0  0  0  0  0  0
    8.3774  -16.1305   21.5880 C   0  0  1  0  0  0  0  0  0  0  0  0
    8.8901  -17.5097   21.4660 C   0  0  0  0  0  0  0  0  0  0  0  0
    8.4160  -18.2782   20.3106 C   0  0  0  0  0  0  0  0  0  0  0  0
    7.2668  -18.1905   19.8152 O   0  0  0  0  0  0  0  0  0  0  0  0
    8.7829  -15.3758   22.7938 C   0  0  0  0  0  0  0  0  0  0  0  0
   10.0260  -15.0436   22.8947 O   0  0  0  0  0  0  0  0  0  0  0  0
    9.3189  -19.1736   19.7231 O   0  0  0  0  0  0  0  0  0  0  0  0
    6.7068  -11.5374   26.9728 C   0  0  0  0  0  0  0  0  0  0  0  0
    7.8630  -12.4689   26.6786 C   0  0  0  0  0  0  0  0  0  0  0  0
    7.5370  -13.3083   25.4925 C   0  0  2  0  0  0  0  0  0  0  0  0
    6.1557  -13.9282   25.5804 C   0  0  0  0  0  0  0  0  0  0  0  0
    8.5786  -14.2905   25.0671 C   0  0  2  0  0  0  0  0  0  0  0  0
    7.9945  -14.9625   23.8708 N   0  0  0  0  0  0  0  0  0  0  0  0
    8.9742  -15.2999   26.0454 C   0  0  0  0  0  0  0  0  0  0  0  0
    8.1232  -16.2143   26.3495 O   0  0  0  0  0  0  0  0  0  0  0  0
   10.2027  -15.4034   26.7111 N   0  0  0  0  0  0  0  0  0  0  0  0
   10.4997  -16.5388   27.6250 C   0  0  1  0  0  0  0  0  0  0  0  0
   11.8712  -17.0435   27.3644 C   0  0  0  0  0  0  0  0  0  0  0  0
   12.0900  -17.6818   26.0570 C   0  0  0  0  0  0  0  0  0  0  0  0
   11.2354  -18.1572   25.1008 C   0  0  0  0  0  0  0  0  0  0  0  0
   11.8991  -18.6045   24.0139 N   0  0  0  0  0  0  0  0  0  0  0  0
   13.1863  -18.4058   24.2909 C   0  0  0  0  0  0  0  0  0  0  0  0
   13.3326  -17.8598   25.4952 N   0  0  0  0  0  0  0  0  0  0  0  0
   10.3360  -16.0142   29.0248 C   0  0  0  0  0  0  0  0  0  0  0  0
   10.1560  -14.8378   29.3516 O   0  0  0  0  0  0  0  0  0  0  0  0
   10.3856  -16.9158   30.1151 O   0  0  0  0  0  0  0  0  0  0  0  0
  2  1  1  6
  2  3  1  0
  3  4  1  0
  4  5  2  0
  4  8  1  0
  6  2  1  0
  6  7  2  0
  9 10  1  0
 11 13  1  0
 11 10  1  0
 11 12  1  1
 13 14  1  6
 14  6  1  0
 15 13  1  0
 16 15  2  0
 17 15  1  0
 18 25  1  0
 18 17  1  0
 19 20  1  0
 18 19  1  1
 20 21  2  0
 21 22  1  0
 23 22  1  0
 24 20  1  0
 24 23  2  0
 25 27  1  0
 26 25  2  0
M  END
$$$$
