DIH.pdb
     RDKit          3D

 27 27  0  0  1  0  0  0  0  0999 V2000
    9.4318  -15.6894   20.7519 N   0  0  0  0  0  0  0  0  0  0  0  0
    8.4205  -16.2678   21.6882 C   0  0  1  0  0  0  0  0  0  0  0  0
    8.4866  -17.7362   21.5483 C   0  0  0  0  0  0  0  0  0  0  0  0
    7.6754  -18.3228   20.4767 C   0  0  0  0  0  0  0  0  0  0  0  0
    7.3640  -17.7370   19.4120 O   0  0  0  0  0  0  0  0  0  0  0  0
    8.8269  -15.7067   22.9951 C   0  0  0  0  0  0  0  0  0  0  0  0
   10.0922  -15.5933   23.2235 O   0  0  0  0  0  0  0  0  0  0  0  0
    7.2188  -19.6337   20.6639 O   0  0  0  0  0  0  0  0  0  0  0  0
    6.0338  -12.0571   25.7962 C   0  0  0  0  0  0  0  0  0  0  0  0
    7.1776  -12.7919   25.1309 C   0  0  0  0  0  0  0  0  0  0  0  0
    7.5665  -13.9650   25.9617 C   0  0  2  0  0  0  0  0  0  0  0  0
    7.8889  -13.5827   27.3935 C   0  0  0  0  0  0  0  0  0  0  0  0
    8.5827  -14.8881   25.3737 C   0  0  2  0  0  0  0  0  0  0  0  0
    8.0177  -15.2734   24.0485 N   0  0  0  0  0  0  0  0  0  0  0  0
    8.8996  -16.0936   26.1347 C   0  0  0  0  0  0  0  0  0  0  0  0
    8.0013  -17.0094   26.2193 O   0  0  0  0  0  0  0  0  0  0  0  0
   10.0966  -16.3890   26.8002 N   0  0  0  0  0  0  0  0  0  0  0  0
   10.2857  -17.6712   27.5300 C   0  0  1  0  0  0  0  0  0  0  0  0
   11.3164  -18.4892   26.8428 C   0  0  0  0  0  0  0  0  0  0  0  0
   11.6822  -19.7551   27.4971 C   0  0  0  0  0  0  0  0  0  0  0  0
   10.9555  -20.6927   28.1779 C   0  0  0  0  0  0  0  0  0  0  0  0
   11.7167  -21.7442   28.5480 N   0  0  0  0  0  0  0  0  0  0  0  0
   12.9359  -21.4636   28.0924 C   0  0  0  0  0  0  0  0  0  0  0  0
   12.9484  -20.2908   27.4645 N   0  0  0  0  0  0  0  0  0  0  0  0
   10.6813  -17.3086   28.9348 C   0  0  0  0  0  0  0  0  0  0  0  0
   10.8964  -16.1726   29.3669 O   0  0  0  0  0  0  0  0  0  0  0  0
   10.8379  -18.3330   29.8992 O   0  0  0  0  0  0  0  0  0  0  0  0
  2  1  1  6
  2  3  1  0
  3  4  1  0
  4  5  2  0
  4  8  1  0
  6  2  1  0
  6  7  2  0
  9 10  1  0
 11 13  1  0
 11 10  1  0
 11 12  1  1
 13 14  1  6
 14  6  1  0
 15 13  1  0
 16 15  2  0
 17 15  1  0
 18 25  1  0
 18 17  1  0
 19 20  1  0
 18 19  1  6
 20 21  2  0
 21 22  1  0
 23 22  1  0
 24 20  1  0
 24 23  2  0
 25 27  1  0
 26 25  2  0
M  END
$$$$
