DIH.pdb
     RDKit          3D

 27 27  0  0  1  0  0  0  0  0999 V2000
    9.1048  -18.3947   19.5493 N   0  0  0  0  0  0  0  0  0  0  0  0
   10.4940  -17.8737   19.7300 C   0  0  1  0  0  0  0  0  0  0  0  0
   11.0589  -17.6622   18.3823 C   0  0  0  0  0  0  0  0  0  0  0  0
   11.2955  -18.8678   17.5816 C   0  0  0  0  0  0  0  0  0  0  0  0
   10.9082  -20.0201   17.8912 O   0  0  0  0  0  0  0  0  0  0  0  0
   10.2847  -16.6665   20.5589 C   0  0  0  0  0  0  0  0  0  0  0  0
   11.3313  -15.9902   20.8955 O   0  0  0  0  0  0  0  0  0  0  0  0
   12.0069  -18.7122   16.3851 O   0  0  0  0  0  0  0  0  0  0  0  0
    7.1618  -12.7256   19.4677 C   0  0  0  0  0  0  0  0  0  0  0  0
    8.3478  -13.5077   19.9898 C   0  0  0  0  0  0  0  0  0  0  0  0
    8.0325  -14.0475   21.3414 C   0  0  2  0  0  0  0  0  0  0  0  0
    7.5644  -12.9719   22.3028 C   0  0  0  0  0  0  0  0  0  0  0  0
    9.0523  -14.9535   21.9496 C   0  0  2  0  0  0  0  0  0  0  0  0
    9.0860  -16.1401   21.0470 N   0  0  0  0  0  0  0  0  0  0  0  0
    8.8113  -15.3941   23.3209 C   0  0  0  0  0  0  0  0  0  0  0  0
    7.8109  -16.1713   23.5399 O   0  0  0  0  0  0  0  0  0  0  0  0
    9.5578  -15.0706   24.4615 N   0  0  0  0  0  0  0  0  0  0  0  0
    9.2034  -15.6084   25.8023 C   0  0  1  0  0  0  0  0  0  0  0  0
    7.7466  -15.4452   26.0362 C   0  0  0  0  0  0  0  0  0  0  0  0
    7.2738  -14.0681   26.2474 C   0  0  0  0  0  0  0  0  0  0  0  0
    7.9236  -12.8700   26.3607 C   0  0  0  0  0  0  0  0  0  0  0  0
    7.0587  -11.8406   26.4805 N   0  0  0  0  0  0  0  0  0  0  0  0
    5.8510  -12.3998   26.4404 C   0  0  0  0  0  0  0  0  0  0  0  0
    5.9446  -13.7197   26.3027 N   0  0  0  0  0  0  0  0  0  0  0  0
    9.6294  -17.0506   25.8101 C   0  0  0  0  0  0  0  0  0  0  0  0
    9.9747  -17.7195   24.8320 O   0  0  0  0  0  0  0  0  0  0  0  0
    9.6548  -17.7612   27.0342 O   0  0  0  0  0  0  0  0  0  0  0  0
  2  1  1  6
  2  3  1  0
  3  4  1  0
  4  5  2  0
  4  8  1  0
  6  2  1  0
  6  7  2  0
  9 10  1  0
 11 13  1  0
 11 10  1  0
 11 12  1  1
 13 14  1  6
 14  6  1  0
 15 13  1  0
 16 15  2  0
 17 15  1  0
 18 25  1  0
 18 17  1  0
 19 20  1  0
 18 19  1  6
 20 21  2  0
 21 22  1  0
 23 22  1  0
 24 20  1  0
 24 23  2  0
 25 27  1  0
 26 25  2  0
M  END
$$$$
