LTC.pdb
     RDKit          3D

 22 21  0  0  1  0  0  0  0  0999 V2000
   17.7193  -15.2100  -14.9391 C   0  0  0  0  0  0  0  0  0  0  0  0
   17.0511  -14.4927  -16.0548 C   0  0  2  0  0  0  0  0  0  0  0  0
   16.9871  -15.3817  -17.2756 C   0  0  0  0  0  0  0  0  0  0  0  0
   17.6230  -13.1553  -16.3835 C   0  0  0  0  0  0  0  0  0  0  0  0
   17.7021  -12.1969  -15.2538 C   0  0  2  0  0  0  0  0  0  0  0  0
   16.4346  -11.9603  -14.6285 N   0  0  0  0  0  0  0  0  0  0  0  0
   18.3166  -10.9349  -15.7693 C   0  0  0  0  0  0  0  0  0  0  0  0
   19.3988  -11.0180  -16.4044 O   0  0  0  0  0  0  0  0  0  0  0  0
   16.6236   -8.2142  -17.9032 C   0  0  0  0  0  0  0  0  0  0  0  0
   17.1620   -7.5960  -16.6344 C   0  0  1  0  0  0  0  0  0  0  0  0
   16.1791   -7.4758  -15.6563 O   0  0  0  0  0  0  0  0  0  0  0  0
   18.3238   -8.4249  -16.0734 C   0  0  2  0  0  0  0  0  0  0  0  0
   17.7579   -9.6584  -15.5873 N   0  0  0  0  0  0  0  0  0  0  0  0
   18.9983   -7.6492  -15.0080 C   0  0  0  0  0  0  0  0  0  0  0  0
   18.6241   -7.8374  -13.8253 O   0  0  0  0  0  0  0  0  0  0  0  0
   20.0374   -6.7078  -15.2236 N   0  0  0  0  0  0  0  0  0  0  0  0
   20.5603   -5.8546  -14.1558 C   0  0  1  0  0  0  0  0  0  0  0  0
   22.0764   -6.0371  -14.0905 C   0  0  0  0  0  0  0  0  0  0  0  0
   22.7452   -4.8128  -12.9315 S   0  0  0  0  0  0  0  0  0  0  0  0
   20.2739   -4.4446  -14.5314 C   0  0  0  0  0  0  0  0  0  0  0  0
   20.0114   -3.4531  -13.5886 O   0  0  0  0  0  0  0  0  0  0  0  0
   20.2557   -4.0777  -15.7395 O   0  0  0  0  0  0  0  0  0  0  0  0
  2  1  1  1
  2  3  1  0
  4  2  1  0
  5  4  1  0
  5  7  1  0
  5  6  1  6
  7 13  1  0
  7  8  2  0
 10  9  1  6
 10 12  1  0
 11 10  1  0
 12 14  1  0
 12 13  1  1
 14 16  1  0
 14 15  2  0
 16 17  1  0
 17 20  1  0
 17 18  1  6
 19 18  1  0
 20 21  1  0
 22 20  2  0
M  END
$$$$
