LTC.pdb
     RDKit          3D

 22 21  0  0  1  0  0  0  0  0999 V2000
   26.8421  -18.5202   -6.2370 C   0  0  0  0  0  0  0  0  0  0  0  0
   27.1751  -19.9645   -6.3315 C   0  0  2  0  0  0  0  0  0  0  0  0
   28.4126  -20.2636   -5.5167 C   0  0  0  0  0  0  0  0  0  0  0  0
   27.2927  -20.5002   -7.7183 C   0  0  0  0  0  0  0  0  0  0  0  0
   26.1163  -20.2757   -8.5938 C   0  0  2  0  0  0  0  0  0  0  0  0
   24.9512  -20.9902   -8.1630 N   0  0  0  0  0  0  0  0  0  0  0  0
   26.5115  -20.6385   -9.9897 C   0  0  0  0  0  0  0  0  0  0  0  0
   27.5617  -21.3107  -10.1535 O   0  0  0  0  0  0  0  0  0  0  0  0
   24.8407  -22.8731  -12.2592 C   0  0  0  0  0  0  0  0  0  0  0  0
   24.8700  -21.5296  -12.9492 C   0  0  1  0  0  0  0  0  0  0  0  0
   23.7038  -20.8037  -12.7248 O   0  0  0  0  0  0  0  0  0  0  0  0
   26.0710  -20.7001  -12.4786 C   0  0  2  0  0  0  0  0  0  0  0  0
   25.7799  -20.2738  -11.1326 N   0  0  0  0  0  0  0  0  0  0  0  0
   26.2642  -19.5631  -13.4068 C   0  0  0  0  0  0  0  0  0  0  0  0
   25.6765  -18.4872  -13.1395 O   0  0  0  0  0  0  0  0  0  0  0  0
   27.0649  -19.5980  -14.5772 N   0  0  0  0  0  0  0  0  0  0  0  0
   27.2491  -18.4303  -15.4398 C   0  0  1  0  0  0  0  0  0  0  0  0
   28.6939  -18.4214  -15.9387 C   0  0  0  0  0  0  0  0  0  0  0  0
   28.8806  -17.0492  -17.1098 S   0  0  0  0  0  0  0  0  0  0  0  0
   26.3496  -18.5960  -16.6123 C   0  0  0  0  0  0  0  0  0  0  0  0
   26.1052  -19.8330  -17.2046 O   0  0  0  0  0  0  0  0  0  0  0  0
   25.7586  -17.6080  -17.1310 O   0  0  0  0  0  0  0  0  0  0  0  0
  2  1  1  6
  2  3  1  0
  4  2  1  0
  5  4  1  0
  5  7  1  0
  5  6  1  1
  7 13  1  0
  7  8  2  0
 10  9  1  1
 10 12  1  0
 11 10  1  0
 12 14  1  0
 12 13  1  1
 14 16  1  0
 14 15  2  0
 16 17  1  0
 17 20  1  0
 17 18  1  6
 19 18  1  0
 20 21  1  0
 22 20  2  0
M  END
$$$$
