LTC.pdb
     RDKit          3D

 22 21  0  0  1  0  0  0  0  0999 V2000
   26.6446  -21.0376   -6.6998 C   0  0  0  0  0  0  0  0  0  0  0  0
   27.6505  -20.2122   -7.4159 C   0  0  2  0  0  0  0  0  0  0  0  0
   28.0128  -19.0030   -6.5845 C   0  0  0  0  0  0  0  0  0  0  0  0
   27.2808  -19.8259   -8.8081 C   0  0  0  0  0  0  0  0  0  0  0  0
   27.0138  -20.9521   -9.7361 C   0  0  2  0  0  0  0  0  0  0  0  0
   28.1962  -21.6794  -10.0914 N   0  0  0  0  0  0  0  0  0  0  0  0
   26.3156  -20.3974  -10.9365 C   0  0  0  0  0  0  0  0  0  0  0  0
   26.7214  -19.3038  -11.4065 O   0  0  0  0  0  0  0  0  0  0  0  0
   26.4580  -21.4618  -14.1426 C   0  0  0  0  0  0  0  0  0  0  0  0
   24.9677  -21.4997  -13.8993 C   0  0  1  0  0  0  0  0  0  0  0  0
   24.5238  -22.7811  -13.5861 O   0  0  0  0  0  0  0  0  0  0  0  0
   24.5752  -20.5457  -12.7645 C   0  0  2  0  0  0  0  0  0  0  0  0
   25.2312  -21.0244  -11.5735 N   0  0  0  0  0  0  0  0  0  0  0  0
   23.1004  -20.5316  -12.6357 C   0  0  0  0  0  0  0  0  0  0  0  0
   22.6161  -20.6227  -11.4818 O   0  0  0  0  0  0  0  0  0  0  0  0
   22.1921  -20.4227  -13.7198 N   0  0  0  0  0  0  0  0  0  0  0  0
   20.7753  -20.1091  -13.5310 C   0  0  1  0  0  0  0  0  0  0  0  0
   20.6620  -18.6706  -13.0268 C   0  0  0  0  0  0  0  0  0  0  0  0
   18.9040  -18.2858  -12.8016 S   0  0  0  0  0  0  0  0  0  0  0  0
   20.1191  -20.1917  -14.8628 C   0  0  0  0  0  0  0  0  0  0  0  0
   18.8019  -20.6141  -15.0279 O   0  0  0  0  0  0  0  0  0  0  0  0
   20.7358  -19.8778  -15.9191 O   0  0  0  0  0  0  0  0  0  0  0  0
  2  1  1  1
  2  3  1  0
  4  2  1  0
  5  4  1  0
  5  7  1  0
  5  6  1  6
  7 13  1  0
  7  8  2  0
 10  9  1  1
 10 12  1  0
 11 10  1  0
 12 14  1  0
 12 13  1  1
 14 16  1  0
 14 15  2  0
 16 17  1  0
 17 20  1  0
 17 18  1  6
 19 18  1  0
 20 21  1  0
 22 20  2  0
M  END
$$$$
