LTC.pdb
     RDKit          3D

 22 21  0  0  1  0  0  0  0  0999 V2000
   12.8527  -12.5177  -10.2073 C   0  0  0  0  0  0  0  0  0  0  0  0
   13.5556  -11.8098  -11.3076 C   0  0  2  0  0  0  0  0  0  0  0  0
   12.5675  -11.4122  -12.3802 C   0  0  0  0  0  0  0  0  0  0  0  0
   14.7247  -12.5338  -11.8845 C   0  0  0  0  0  0  0  0  0  0  0  0
   15.4027  -11.8564  -13.0169 C   0  0  2  0  0  0  0  0  0  0  0  0
   16.2486  -12.7336  -13.7709 N   0  0  0  0  0  0  0  0  0  0  0  0
   16.1569  -10.6895  -12.4640 C   0  0  0  0  0  0  0  0  0  0  0  0
   17.0497  -10.9121  -11.6069 O   0  0  0  0  0  0  0  0  0  0  0  0
   18.1772   -8.2777  -14.4590 C   0  0  0  0  0  0  0  0  0  0  0  0
   17.1427   -7.4839  -13.6966 C   0  0  1  0  0  0  0  0  0  0  0  0
   16.0137   -7.2240  -14.4680 O   0  0  0  0  0  0  0  0  0  0  0  0
   16.7159   -8.2240  -12.4231 C   0  0  2  0  0  0  0  0  0  0  0  0
   15.9288   -9.3560  -12.8442 N   0  0  0  0  0  0  0  0  0  0  0  0
   15.9571   -7.2936  -11.5568 C   0  0  0  0  0  0  0  0  0  0  0  0
   14.7278   -7.1677  -11.7742 O   0  0  0  0  0  0  0  0  0  0  0  0
   16.5157   -6.5326  -10.4980 N   0  0  0  0  0  0  0  0  0  0  0  0
   15.7661   -5.4885   -9.7987 C   0  0  1  0  0  0  0  0  0  0  0  0
   16.0764   -5.5889   -8.3054 C   0  0  0  0  0  0  0  0  0  0  0  0
   15.1783   -4.2657   -7.4497 S   0  0  0  0  0  0  0  0  0  0  0  0
   16.2620   -4.1766  -10.2930 C   0  0  0  0  0  0  0  0  0  0  0  0
   17.5104   -4.0208  -10.8913 O   0  0  0  0  0  0  0  0  0  0  0  0
   15.5632   -3.1298  -10.1908 O   0  0  0  0  0  0  0  0  0  0  0  0
  2  1  1  1
  2  3  1  0
  4  2  1  0
  5  4  1  0
  5  7  1  0
  5  6  1  1
  7 13  1  0
  7  8  2  0
 10  9  1  6
 10 12  1  0
 11 10  1  0
 12 14  1  0
 12 13  1  6
 14 16  1  0
 14 15  2  0
 16 17  1  0
 17 20  1  0
 17 18  1  1
 19 18  1  0
 20 21  1  0
 22 20  2  0
M  END
$$$$
