LTC.pdb
     RDKit          3D

 22 21  0  0  1  0  0  0  0  0999 V2000
   19.2455  -10.6828  -17.2056 C   0  0  0  0  0  0  0  0  0  0  0  0
   19.4974  -10.9569  -15.7678 C   0  0  2  0  0  0  0  0  0  0  0  0
   18.1952  -11.2657  -15.0650 C   0  0  0  0  0  0  0  0  0  0  0  0
   20.2704   -9.9054  -15.0461 C   0  0  0  0  0  0  0  0  0  0  0  0
   21.5459   -9.4966  -15.6840 C   0  0  2  0  0  0  0  0  0  0  0  0
   22.6134  -10.4234  -15.4492 N   0  0  0  0  0  0  0  0  0  0  0  0
   21.8794   -8.1230  -15.1961 C   0  0  0  0  0  0  0  0  0  0  0  0
   22.2730   -7.9941  -14.0088 O   0  0  0  0  0  0  0  0  0  0  0  0
   24.4189   -5.7272  -16.4356 C   0  0  0  0  0  0  0  0  0  0  0  0
   23.0784   -5.0395  -16.5454 C   0  0  1  0  0  0  0  0  0  0  0  0
   22.5437   -5.1431  -17.8262 O   0  0  0  0  0  0  0  0  0  0  0  0
   22.0798   -5.6261  -15.5401 C   0  0  2  0  0  0  0  0  0  0  0  0
   21.7798   -6.9642  -15.9848 N   0  0  0  0  0  0  0  0  0  0  0  0
   20.8803   -4.7598  -15.4916 C   0  0  0  0  0  0  0  0  0  0  0  0
   19.8264   -5.1952  -16.0151 O   0  0  0  0  0  0  0  0  0  0  0  0
   20.8323   -3.4728  -14.8971 N   0  0  0  0  0  0  0  0  0  0  0  0
   19.6422   -2.6232  -14.9548 C   0  0  1  0  0  0  0  0  0  0  0  0
   18.5764   -3.2219  -14.0373 C   0  0  0  0  0  0  0  0  0  0  0  0
   17.1950   -2.0512  -13.9340 S   0  0  0  0  0  0  0  0  0  0  0  0
   20.0218   -1.2875  -14.4226 C   0  0  0  0  0  0  0  0  0  0  0  0
   19.4005   -0.1098  -14.8323 O   0  0  0  0  0  0  0  0  0  0  0  0
   20.9378   -1.1595  -13.5630 O   0  0  0  0  0  0  0  0  0  0  0  0
  2  1  1  6
  2  3  1  0
  4  2  1  0
  5  4  1  0
  5  7  1  0
  5  6  1  1
  7 13  1  0
  7  8  2  0
 10  9  1  6
 10 12  1  0
 11 10  1  0
 12 14  1  0
 12 13  1  6
 14 16  1  0
 14 15  2  0
 16 17  1  0
 17 20  1  0
 17 18  1  1
 19 18  1  0
 20 21  1  0
 22 20  2  0
M  END
$$$$
