LTC.pdb
     RDKit          3D

 22 21  0  0  1  0  0  0  0  0999 V2000
   24.0435  -20.8696   -8.1276 C   0  0  0  0  0  0  0  0  0  0  0  0
   25.4340  -21.1858   -8.5428 C   0  0  2  0  0  0  0  0  0  0  0  0
   26.3742  -21.0148   -7.3716 C   0  0  0  0  0  0  0  0  0  0  0  0
   25.9212  -20.4500   -9.7450 C   0  0  0  0  0  0  0  0  0  0  0  0
   25.0591  -20.5468  -10.9484 C   0  0  2  0  0  0  0  0  0  0  0  0
   24.6177  -21.8834  -11.2169 N   0  0  0  0  0  0  0  0  0  0  0  0
   25.8165  -19.9654  -12.0992 C   0  0  0  0  0  0  0  0  0  0  0  0
   26.7602  -19.1728  -11.8489 O   0  0  0  0  0  0  0  0  0  0  0  0
   27.8802  -21.5667  -14.5536 C   0  0  0  0  0  0  0  0  0  0  0  0
   26.8249  -20.8540  -15.3663 C   0  0  1  0  0  0  0  0  0  0  0  0
   25.7973  -21.7105  -15.7506 O   0  0  0  0  0  0  0  0  0  0  0  0
   26.2275  -19.6821  -14.5778 C   0  0  2  0  0  0  0  0  0  0  0  0
   25.5379  -20.2507  -13.4467 N   0  0  0  0  0  0  0  0  0  0  0  0
   25.3266  -18.9135  -15.4663 C   0  0  0  0  0  0  0  0  0  0  0  0
   24.1088  -18.8737  -15.1669 O   0  0  0  0  0  0  0  0  0  0  0  0
   25.7368  -18.2175  -16.6323 N   0  0  0  0  0  0  0  0  0  0  0  0
   24.7936  -17.5107  -17.4996 C   0  0  1  0  0  0  0  0  0  0  0  0
   24.5490  -16.1197  -16.9151 C   0  0  0  0  0  0  0  0  0  0  0  0
   25.7134  -14.9661  -17.6914 S   0  0  0  0  0  0  0  0  0  0  0  0
   25.4420  -17.3531  -18.8285 C   0  0  0  0  0  0  0  0  0  0  0  0
   24.7352  -16.9888  -19.9724 O   0  0  0  0  0  0  0  0  0  0  0  0
   26.6806  -17.5453  -18.9814 O   0  0  0  0  0  0  0  0  0  0  0  0
  2  1  1  1
  2  3  1  0
  4  2  1  0
  5  4  1  0
  5  7  1  0
  5  6  1  6
  7 13  1  0
  7  8  2  0
 10  9  1  1
 10 12  1  0
 11 10  1  0
 12 14  1  0
 12 13  1  1
 14 16  1  0
 14 15  2  0
 16 17  1  0
 17 20  1  0
 17 18  1  1
 19 18  1  0
 20 21  1  0
 22 20  2  0
M  END
$$$$
