LTC.pdb
     RDKit          3D

 22 21  0  0  1  0  0  0  0  0999 V2000
   16.7927  -13.6961  -14.7744 C   0  0  0  0  0  0  0  0  0  0  0  0
   18.0004  -13.7596  -15.6365 C   0  0  2  0  0  0  0  0  0  0  0  0
   19.0580  -14.6183  -14.9814 C   0  0  0  0  0  0  0  0  0  0  0  0
   18.5525  -12.4391  -16.0553 C   0  0  0  0  0  0  0  0  0  0  0  0
   17.5892  -11.5203  -16.7098 C   0  0  2  0  0  0  0  0  0  0  0  0
   17.0930  -12.0223  -17.9570 N   0  0  0  0  0  0  0  0  0  0  0  0
   18.2604  -10.1934  -16.8675 C   0  0  0  0  0  0  0  0  0  0  0  0
   19.2733  -10.1251  -17.6096 O   0  0  0  0  0  0  0  0  0  0  0  0
   16.5625   -7.2148  -18.2226 C   0  0  0  0  0  0  0  0  0  0  0  0
   17.1170   -6.8254  -16.8724 C   0  0  1  0  0  0  0  0  0  0  0  0
   16.1629   -6.9394  -15.8655 O   0  0  0  0  0  0  0  0  0  0  0  0
   18.3295   -7.6914  -16.5097 C   0  0  2  0  0  0  0  0  0  0  0  0
   17.8280   -9.0149  -16.2358 N   0  0  0  0  0  0  0  0  0  0  0  0
   19.0186   -7.0913  -15.3449 C   0  0  0  0  0  0  0  0  0  0  0  0
   18.5648   -7.3492  -14.2038 O   0  0  0  0  0  0  0  0  0  0  0  0
   20.1548   -6.2455  -15.4214 N   0  0  0  0  0  0  0  0  0  0  0  0
   20.7686   -5.6433  -14.2374 C   0  0  1  0  0  0  0  0  0  0  0  0
   22.2855   -5.7933  -14.3505 C   0  0  0  0  0  0  0  0  0  0  0  0
   23.0508   -4.8389  -13.0116 S   0  0  0  0  0  0  0  0  0  0  0  0
   20.4389   -4.1933  -14.2530 C   0  0  0  0  0  0  0  0  0  0  0  0
   20.2168   -3.4847  -15.4317 O   0  0  0  0  0  0  0  0  0  0  0  0
   20.3442   -3.5301  -13.1827 O   0  0  0  0  0  0  0  0  0  0  0  0
  2  1  1  1
  2  3  1  0
  4  2  1  0
  5  4  1  0
  5  7  1  0
  5  6  1  6
  7 13  1  0
  7  8  2  0
 10  9  1  6
 10 12  1  0
 11 10  1  0
 12 14  1  0
 12 13  1  1
 14 16  1  0
 14 15  2  0
 16 17  1  0
 17 20  1  0
 17 18  1  6
 19 18  1  0
 20 21  1  0
 22 20  2  0
M  END
$$$$
