LTC.pdb
     RDKit          3D

 22 21  0  0  1  0  0  0  0  0999 V2000
   12.3709  -11.5304  -12.0580 C   0  0  0  0  0  0  0  0  0  0  0  0
   13.2701  -12.1997  -11.0837 C   0  0  2  0  0  0  0  0  0  0  0  0
   12.4525  -12.8916  -10.0171 C   0  0  0  0  0  0  0  0  0  0  0  0
   14.3207  -11.3269  -10.4849 C   0  0  0  0  0  0  0  0  0  0  0  0
   15.2233  -10.6552  -11.4518 C   0  0  2  0  0  0  0  0  0  0  0  0
   16.1506  -11.5544  -12.0724 N   0  0  0  0  0  0  0  0  0  0  0  0
   15.9176   -9.5443  -10.7308 C   0  0  0  0  0  0  0  0  0  0  0  0
   16.8527   -9.8405   -9.9439 O   0  0  0  0  0  0  0  0  0  0  0  0
   18.2094   -6.9951  -11.5944 C   0  0  0  0  0  0  0  0  0  0  0  0
   16.9744   -6.2574  -11.1336 C   0  0  1  0  0  0  0  0  0  0  0  0
   16.1456   -5.9145  -12.1979 O   0  0  0  0  0  0  0  0  0  0  0  0
   16.1759   -7.1013  -10.1326 C   0  0  2  0  0  0  0  0  0  0  0  0
   15.5887   -8.1861  -10.8787 N   0  0  0  0  0  0  0  0  0  0  0  0
   15.1605   -6.2430   -9.4814 C   0  0  0  0  0  0  0  0  0  0  0  0
   14.0430   -6.1359  -10.0417 O   0  0  0  0  0  0  0  0  0  0  0  0
   15.3558   -5.5315   -8.2698 N   0  0  0  0  0  0  0  0  0  0  0  0
   14.3615   -4.6007   -7.7348 C   0  0  1  0  0  0  0  0  0  0  0  0
   14.4077   -4.6693   -6.2085 C   0  0  0  0  0  0  0  0  0  0  0  0
   13.2329   -3.4541   -5.5508 S   0  0  0  0  0  0  0  0  0  0  0  0
   14.7616   -3.2314   -8.1544 C   0  0  0  0  0  0  0  0  0  0  0  0
   16.0618   -2.9117   -8.5390 O   0  0  0  0  0  0  0  0  0  0  0  0
   13.9280   -2.2832   -8.1812 O   0  0  0  0  0  0  0  0  0  0  0  0
  2  1  1  1
  2  3  1  0
  4  2  1  0
  5  4  1  0
  5  7  1  0
  5  6  1  1
  7 13  1  0
  7  8  2  0
 10  9  1  6
 10 12  1  0
 11 10  1  0
 12 14  1  0
 12 13  1  6
 14 16  1  0
 14 15  2  0
 16 17  1  0
 17 20  1  0
 17 18  1  1
 19 18  1  0
 20 21  1  0
 22 20  2  0
M  END
$$$$
