LTC.pdb
     RDKit          3D

 22 21  0  0  1  0  0  0  0  0999 V2000
   14.0168  -14.0832  -16.7042 C   0  0  0  0  0  0  0  0  0  0  0  0
   14.6458  -14.4443  -15.4081 C   0  0  2  0  0  0  0  0  0  0  0  0
   13.5781  -14.7680  -14.3883 C   0  0  0  0  0  0  0  0  0  0  0  0
   15.6234  -13.4509  -14.8775 C   0  0  0  0  0  0  0  0  0  0  0  0
   16.7567  -13.1236  -15.7772 C   0  0  2  0  0  0  0  0  0  0  0  0
   17.7446  -14.1601  -15.8357 N   0  0  0  0  0  0  0  0  0  0  0  0
   17.3368  -11.8220  -15.3241 C   0  0  0  0  0  0  0  0  0  0  0  0
   17.8888  -11.7792  -14.1951 O   0  0  0  0  0  0  0  0  0  0  0  0
   20.0558   -9.8287  -16.8196 C   0  0  0  0  0  0  0  0  0  0  0  0
   18.8289   -8.9478  -16.7989 C   0  0  1  0  0  0  0  0  0  0  0  0
   18.1503   -8.9718  -18.0138 O   0  0  0  0  0  0  0  0  0  0  0  0
   17.8678   -9.3763  -15.6833 C   0  0  2  0  0  0  0  0  0  0  0  0
   17.3029  -10.6405  -16.0842 N   0  0  0  0  0  0  0  0  0  0  0  0
   16.8407   -8.3254  -15.5027 C   0  0  0  0  0  0  0  0  0  0  0  0
   15.6695   -8.5873  -15.8686 O   0  0  0  0  0  0  0  0  0  0  0  0
   17.0811   -7.0429  -14.9463 N   0  0  0  0  0  0  0  0  0  0  0  0
   16.0524   -6.0036  -14.8914 C   0  0  1  0  0  0  0  0  0  0  0  0
   15.1693   -6.2620  -13.6708 C   0  0  0  0  0  0  0  0  0  0  0  0
   14.1465   -4.7909  -13.3897 S   0  0  0  0  0  0  0  0  0  0  0  0
   16.7443   -4.7011  -14.7015 C   0  0  0  0  0  0  0  0  0  0  0  0
   16.1629   -3.4828  -15.0455 O   0  0  0  0  0  0  0  0  0  0  0  0
   17.9071   -4.6406  -14.2129 O   0  0  0  0  0  0  0  0  0  0  0  0
  2  1  1  6
  2  3  1  0
  4  2  1  0
  5  4  1  0
  5  7  1  0
  5  6  1  1
  7 13  1  0
  7  8  2  0
 10  9  1  6
 10 12  1  0
 11 10  1  0
 12 14  1  0
 12 13  1  6
 14 16  1  0
 14 15  2  0
 16 17  1  0
 17 20  1  0
 17 18  1  1
 19 18  1  0
 20 21  1  0
 22 20  2  0
M  END
$$$$
