LTC.pdb
     RDKit          3D

 22 21  0  0  1  0  0  0  0  0999 V2000
   26.8385  -15.3709  -14.8795 C   0  0  0  0  0  0  0  0  0  0  0  0
   25.5061  -15.7533  -15.4128 C   0  0  2  0  0  0  0  0  0  0  0  0
   25.6604  -16.8224  -16.4702 C   0  0  0  0  0  0  0  0  0  0  0  0
   24.6679  -14.6206  -15.9008 C   0  0  0  0  0  0  0  0  0  0  0  0
   23.2153  -14.9005  -16.0134 C   0  0  2  0  0  0  0  0  0  0  0  0
   22.9300  -16.1075  -16.7312 N   0  0  0  0  0  0  0  0  0  0  0  0
   22.5692  -13.7082  -16.6435 C   0  0  0  0  0  0  0  0  0  0  0  0
   22.7024  -13.5470  -17.8836 O   0  0  0  0  0  0  0  0  0  0  0  0
   19.0716  -12.9687  -17.0155 C   0  0  0  0  0  0  0  0  0  0  0  0
   19.6411  -11.8191  -16.2181 C   0  0  1  0  0  0  0  0  0  0  0  0
   19.4772  -12.0040  -14.8484 O   0  0  0  0  0  0  0  0  0  0  0  0
   21.1328  -11.6311  -16.5201 C   0  0  2  0  0  0  0  0  0  0  0  0
   21.8204  -12.7542  -15.9336 N   0  0  0  0  0  0  0  0  0  0  0  0
   21.5780  -10.3351  -15.9597 C   0  0  0  0  0  0  0  0  0  0  0  0
   22.0543  -10.3358  -14.7990 O   0  0  0  0  0  0  0  0  0  0  0  0
   21.5066   -9.0907  -16.6370 N   0  0  0  0  0  0  0  0  0  0  0  0
   21.9080   -7.8302  -16.0115 C   0  0  1  0  0  0  0  0  0  0  0  0
   22.0061   -6.7609  -17.0993 C   0  0  0  0  0  0  0  0  0  0  0  0
   23.4188   -7.1628  -18.1633 S   0  0  0  0  0  0  0  0  0  0  0  0
   20.8294   -7.4386  -15.0656 C   0  0  0  0  0  0  0  0  0  0  0  0
   21.0543   -6.6087  -13.9695 O   0  0  0  0  0  0  0  0  0  0  0  0
   19.6441   -7.8470  -15.2162 O   0  0  0  0  0  0  0  0  0  0  0  0
  2  1  1  6
  2  3  1  0
  4  2  1  0
  5  4  1  0
  5  7  1  0
  5  6  1  6
  7 13  1  0
  7  8  2  0
 10  9  1  6
 10 12  1  0
 11 10  1  0
 12 14  1  0
 12 13  1  1
 14 16  1  0
 14 15  2  0
 16 17  1  0
 17 20  1  0
 17 18  1  6
 19 18  1  0
 20 21  1  0
 22 20  2  0
M  END
$$$$
