LTC.pdb
     RDKit          3D

 22 21  0  0  1  0  0  0  0  0999 V2000
   27.3077  -18.5224   -6.1615 C   0  0  0  0  0  0  0  0  0  0  0  0
   27.5740  -19.9835   -6.1460 C   0  0  2  0  0  0  0  0  0  0  0  0
   28.8395  -20.2695   -5.3702 C   0  0  0  0  0  0  0  0  0  0  0  0
   27.5950  -20.6400   -7.4848 C   0  0  0  0  0  0  0  0  0  0  0  0
   26.3894  -20.4258   -8.3224 C   0  0  2  0  0  0  0  0  0  0  0  0
   25.2606  -21.1946   -7.8887 N   0  0  0  0  0  0  0  0  0  0  0  0
   26.7603  -20.7260   -9.7396 C   0  0  0  0  0  0  0  0  0  0  0  0
   27.7281  -21.5013   -9.9484 O   0  0  0  0  0  0  0  0  0  0  0  0
   25.3037  -22.8552  -11.9860 C   0  0  0  0  0  0  0  0  0  0  0  0
   25.1630  -21.4958  -12.6293 C   0  0  1  0  0  0  0  0  0  0  0  0
   23.9614  -20.8810  -12.2896 O   0  0  0  0  0  0  0  0  0  0  0  0
   26.3233  -20.5779  -12.2256 C   0  0  2  0  0  0  0  0  0  0  0  0
   26.0921  -20.1938  -10.8555 N   0  0  0  0  0  0  0  0  0  0  0  0
   26.3610  -19.4171  -13.1437 C   0  0  0  0  0  0  0  0  0  0  0  0
   25.6545  -18.4219  -12.8528 O   0  0  0  0  0  0  0  0  0  0  0  0
   27.1367  -19.3450  -14.3292 N   0  0  0  0  0  0  0  0  0  0  0  0
   27.2062  -18.1367  -15.1517 C   0  0  1  0  0  0  0  0  0  0  0  0
   28.4415  -18.2323  -16.0469 C   0  0  0  0  0  0  0  0  0  0  0  0
   28.4684  -16.7796  -17.1325 S   0  0  0  0  0  0  0  0  0  0  0  0
   25.9990  -18.1183  -16.0198 C   0  0  0  0  0  0  0  0  0  0  0  0
   25.4398  -19.2761  -16.5560 O   0  0  0  0  0  0  0  0  0  0  0  0
   25.4184  -17.0362  -16.3138 O   0  0  0  0  0  0  0  0  0  0  0  0
  2  1  1  6
  2  3  1  0
  4  2  1  0
  5  4  1  0
  5  7  1  0
  5  6  1  1
  7 13  1  0
  7  8  2  0
 10  9  1  1
 10 12  1  0
 11 10  1  0
 12 14  1  0
 12 13  1  1
 14 16  1  0
 14 15  2  0
 16 17  1  0
 17 20  1  0
 17 18  1  6
 19 18  1  0
 20 21  1  0
 22 20  2  0
M  END
$$$$
