LTC.pdb
     RDKit          3D

 22 21  0  0  1  0  0  0  0  0999 V2000
   13.9631  -11.5733  -14.6333 C   0  0  0  0  0  0  0  0  0  0  0  0
   15.0479  -12.4212  -15.1901 C   0  0  2  0  0  0  0  0  0  0  0  0
   15.3680  -13.5457  -14.2320 C   0  0  0  0  0  0  0  0  0  0  0  0
   16.2797  -11.6883  -15.6017 C   0  0  0  0  0  0  0  0  0  0  0  0
   16.0731  -10.5764  -16.5618 C   0  0  2  0  0  0  0  0  0  0  0  0
   15.4530  -10.9972  -17.7833 N   0  0  0  0  0  0  0  0  0  0  0  0
   17.3995   -9.9288  -16.8012 C   0  0  0  0  0  0  0  0  0  0  0  0
   18.3450  -10.6477  -17.2142 O   0  0  0  0  0  0  0  0  0  0  0  0
   18.1604   -7.3413  -19.2344 C   0  0  0  0  0  0  0  0  0  0  0  0
   18.5530   -6.7709  -17.8918 C   0  0  1  0  0  0  0  0  0  0  0  0
   17.5465   -5.9776  -17.3489 O   0  0  0  0  0  0  0  0  0  0  0  0
   18.8929   -7.8910  -16.9011 C   0  0  2  0  0  0  0  0  0  0  0  0
   17.6553   -8.5629  -16.5926 N   0  0  0  0  0  0  0  0  0  0  0  0
   19.5323   -7.2980  -15.7047 C   0  0  0  0  0  0  0  0  0  0  0  0
   18.7831   -6.7897  -14.8360 O   0  0  0  0  0  0  0  0  0  0  0  0
   20.9301   -7.2609  -15.4660 N   0  0  0  0  0  0  0  0  0  0  0  0
   21.5058   -6.6845  -14.2504 C   0  0  1  0  0  0  0  0  0  0  0  0
   22.8425   -7.3729  -13.9755 C   0  0  0  0  0  0  0  0  0  0  0  0
   22.5035   -9.0546  -13.3871 S   0  0  0  0  0  0  0  0  0  0  0  0
   21.7667   -5.2455  -14.5198 C   0  0  0  0  0  0  0  0  0  0  0  0
   21.9488   -4.3104  -13.5033 O   0  0  0  0  0  0  0  0  0  0  0  0
   21.8357   -4.8005  -15.6995 O   0  0  0  0  0  0  0  0  0  0  0  0
  2  1  1  1
  2  3  1  0
  4  2  1  0
  5  4  1  0
  5  7  1  0
  5  6  1  6
  7 13  1  0
  7  8  2  0
 10  9  1  6
 10 12  1  0
 11 10  1  0
 12 14  1  0
 12 13  1  1
 14 16  1  0
 14 15  2  0
 16 17  1  0
 17 20  1  0
 17 18  1  6
 19 18  1  0
 20 21  1  0
 22 20  2  0
M  END
$$$$
