LTC.pdb
     RDKit          3D

 22 21  0  0  1  0  0  0  0  0999 V2000
   15.3918  -12.5618  -16.3542 C   0  0  0  0  0  0  0  0  0  0  0  0
   16.2609  -12.8410  -15.1826 C   0  0  2  0  0  0  0  0  0  0  0  0
   15.4426  -13.4463  -14.0651 C   0  0  0  0  0  0  0  0  0  0  0  0
   17.0698  -11.6843  -14.7013 C   0  0  0  0  0  0  0  0  0  0  0  0
   17.8874  -11.0006  -15.7332 C   0  0  2  0  0  0  0  0  0  0  0  0
   18.9451  -11.8205  -16.2456 N   0  0  0  0  0  0  0  0  0  0  0  0
   18.4027   -9.7294  -15.1376 C   0  0  0  0  0  0  0  0  0  0  0  0
   17.9855   -9.3955  -13.9992 O   0  0  0  0  0  0  0  0  0  0  0  0
   22.0422   -8.8049  -14.5942 C   0  0  0  0  0  0  0  0  0  0  0  0
   21.3979   -7.7384  -15.4482 C   0  0  1  0  0  0  0  0  0  0  0  0
   21.6281   -7.9484  -16.8047 O   0  0  0  0  0  0  0  0  0  0  0  0
   19.8852   -7.6823  -15.2028 C   0  0  2  0  0  0  0  0  0  0  0  0
   19.3268   -8.8827  -15.7732 N   0  0  0  0  0  0  0  0  0  0  0  0
   19.3422   -6.4519  -15.8218 C   0  0  0  0  0  0  0  0  0  0  0  0
   19.0994   -6.4779  -17.0524 O   0  0  0  0  0  0  0  0  0  0  0  0
   19.0754   -5.2440  -15.1275 N   0  0  0  0  0  0  0  0  0  0  0  0
   18.5289   -4.0595  -15.7906 C   0  0  1  0  0  0  0  0  0  0  0  0
   17.4473   -3.4592  -14.8927 C   0  0  0  0  0  0  0  0  0  0  0  0
   16.0475   -4.6112  -14.8439 S   0  0  0  0  0  0  0  0  0  0  0  0
   19.6327   -3.0714  -15.9190 C   0  0  0  0  0  0  0  0  0  0  0  0
   19.4796   -1.8531  -16.5771 O   0  0  0  0  0  0  0  0  0  0  0  0
   20.7750   -3.2960  -15.4299 O   0  0  0  0  0  0  0  0  0  0  0  0
  2  1  1  6
  2  3  1  0
  4  2  1  0
  5  4  1  0
  5  7  1  0
  5  6  1  1
  7 13  1  0
  7  8  2  0
 10  9  1  1
 10 12  1  0
 11 10  1  0
 12 14  1  0
 12 13  1  6
 14 16  1  0
 14 15  2  0
 16 17  1  0
 17 20  1  0
 17 18  1  1
 19 18  1  0
 20 21  1  0
 22 20  2  0
M  END
$$$$
