LTC.pdb
     RDKit          3D

 22 21  0  0  1  0  0  0  0  0999 V2000
   16.4168  -14.4092  -16.8147 C   0  0  0  0  0  0  0  0  0  0  0  0
   17.5952  -13.5869  -17.1904 C   0  0  2  0  0  0  0  0  0  0  0  0
   17.8394  -13.6839  -18.6790 C   0  0  0  0  0  0  0  0  0  0  0  0
   18.8380  -13.8656  -16.4147 C   0  0  0  0  0  0  0  0  0  0  0  0
   20.0149  -13.0353  -16.7701 C   0  0  2  0  0  0  0  0  0  0  0  0
   21.2441  -13.7719  -16.7647 N   0  0  0  0  0  0  0  0  0  0  0  0
   20.0539  -11.8739  -15.8290 C   0  0  0  0  0  0  0  0  0  0  0  0
   19.9350  -12.1030  -14.5983 O   0  0  0  0  0  0  0  0  0  0  0  0
   22.6283   -9.7845  -14.6760 C   0  0  0  0  0  0  0  0  0  0  0  0
   21.6792   -8.8513  -15.3901 C   0  0  1  0  0  0  0  0  0  0  0  0
   22.0517   -8.6439  -16.7150 O   0  0  0  0  0  0  0  0  0  0  0  0
   20.2467   -9.3977  -15.3555 C   0  0  2  0  0  0  0  0  0  0  0  0
   20.2156  -10.5386  -16.2361 N   0  0  0  0  0  0  0  0  0  0  0  0
   19.3131   -8.3284  -15.7760 C   0  0  0  0  0  0  0  0  0  0  0  0
   19.1264   -8.1695  -17.0065 O   0  0  0  0  0  0  0  0  0  0  0  0
   18.6127   -7.4686  -14.8915 N   0  0  0  0  0  0  0  0  0  0  0  0
   17.6752   -6.4488  -15.3631 C   0  0  1  0  0  0  0  0  0  0  0  0
   16.8429   -5.9706  -14.1736 C   0  0  0  0  0  0  0  0  0  0  0  0
   15.7094   -7.3055  -13.7017 S   0  0  0  0  0  0  0  0  0  0  0  0
   18.4788   -5.3021  -15.8638 C   0  0  0  0  0  0  0  0  0  0  0  0
   17.9758   -4.3677  -16.7664 O   0  0  0  0  0  0  0  0  0  0  0  0
   19.6705   -5.1216  -15.4874 O   0  0  0  0  0  0  0  0  0  0  0  0
  2  1  1  1
  2  3  1  0
  4  2  1  0
  5  4  1  0
  5  7  1  0
  5  6  1  1
  7 13  1  0
  7  8  2  0
 10  9  1  6
 10 12  1  0
 11 10  1  0
 12 14  1  0
 12 13  1  6
 14 16  1  0
 14 15  2  0
 16 17  1  0
 17 20  1  0
 17 18  1  1
 19 18  1  0
 20 21  1  0
 22 20  2  0
M  END
$$$$
