LTC.pdb
     RDKit          3D

 22 21  0  0  1  0  0  0  0  0999 V2000
   26.5207  -13.1064  -15.5237 C   0  0  0  0  0  0  0  0  0  0  0  0
   26.5216  -12.1683  -16.6751 C   0  0  2  0  0  0  0  0  0  0  0  0
   27.9185  -11.6410  -16.9107 C   0  0  0  0  0  0  0  0  0  0  0  0
   25.5272  -11.0600  -16.5926 C   0  0  0  0  0  0  0  0  0  0  0  0
   24.1112  -11.4789  -16.4494 C   0  0  2  0  0  0  0  0  0  0  0  0
   23.7238  -12.4816  -17.3970 N   0  0  0  0  0  0  0  0  0  0  0  0
   23.2609  -10.2531  -16.5520 C   0  0  0  0  0  0  0  0  0  0  0  0
   23.1621   -9.6914  -17.6728 O   0  0  0  0  0  0  0  0  0  0  0  0
   19.6481  -10.0416  -15.5811 C   0  0  0  0  0  0  0  0  0  0  0  0
   20.3827   -8.9610  -14.8230 C   0  0  1  0  0  0  0  0  0  0  0  0
   20.7032   -9.3595  -13.5285 O   0  0  0  0  0  0  0  0  0  0  0  0
   21.6701   -8.5604  -15.5536 C   0  0  2  0  0  0  0  0  0  0  0  0
   22.5636   -9.6886  -15.4704 N   0  0  0  0  0  0  0  0  0  0  0  0
   22.2268   -7.3452  -14.9171 C   0  0  0  0  0  0  0  0  0  0  0  0
   23.4423   -7.3556  -14.6065 O   0  0  0  0  0  0  0  0  0  0  0  0
   21.4885   -6.1680  -14.6314 N   0  0  0  0  0  0  0  0  0  0  0  0
   22.1323   -4.8965  -14.2999 C   0  0  1  0  0  0  0  0  0  0  0  0
   22.9807   -4.4589  -15.4936 C   0  0  0  0  0  0  0  0  0  0  0  0
   23.6671   -2.8198  -15.1306 S   0  0  0  0  0  0  0  0  0  0  0  0
   21.0554   -3.8912  -14.0970 C   0  0  0  0  0  0  0  0  0  0  0  0
   21.1233   -2.9028  -13.1177 O   0  0  0  0  0  0  0  0  0  0  0  0
   20.0161   -3.8888  -14.8141 O   0  0  0  0  0  0  0  0  0  0  0  0
  2  1  1  1
  2  3  1  0
  4  2  1  0
  5  4  1  0
  5  7  1  0
  5  6  1  6
  7 13  1  0
  7  8  2  0
 10  9  1  6
 10 12  1  0
 11 10  1  0
 12 14  1  0
 12 13  1  1
 14 16  1  0
 14 15  2  0
 16 17  1  0
 17 20  1  0
 17 18  1  6
 19 18  1  0
 20 21  1  0
 22 20  2  0
M  END
$$$$
