CGH.pdb
     RDKit          3D

 21 21  0  0  1  0  0  0  0  0999 V2000
    6.5900  -16.4252   21.3846 N   0  0  0  0  0  0  0  0  0  0  0  0
    7.6027  -15.6583   20.7239 C   0  0  1  0  0  0  0  0  0  0  0  0
    6.9744  -14.3962   20.1547 C   0  0  0  0  0  0  0  0  0  0  0  0
    8.0675  -13.5709   18.9794 S   0  0  0  0  0  0  0  0  0  0  0  0
    8.7188  -15.3249   21.6427 C   0  0  0  0  0  0  0  0  0  0  0  0
    8.7467  -14.1937   22.1685 O   0  0  0  0  0  0  0  0  0  0  0  0
    9.7286  -16.2891   21.9074 N   0  0  0  0  0  0  0  0  0  0  0  0
   10.9507  -15.9207   22.5809 C   0  0  0  0  0  0  0  0  0  0  0  0
   10.8336  -16.0838   24.0565 C   0  0  0  0  0  0  0  0  0  0  0  0
   11.8131  -15.8817   24.8115 O   0  0  0  0  0  0  0  0  0  0  0  0
    9.6067  -16.4742   24.6562 N   0  0  0  0  0  0  0  0  0  0  0  0
    9.3751  -16.6457   26.0604 C   0  0  1  0  0  0  0  0  0  0  0  0
    7.9534  -16.3258   26.4109 C   0  0  0  0  0  0  0  0  0  0  0  0
    7.5665  -14.9229   26.2556 C   0  0  0  0  0  0  0  0  0  0  0  0
    8.2793  -13.7794   26.4485 C   0  0  0  0  0  0  0  0  0  0  0  0
    7.4859  -12.6942   26.1950 N   0  0  0  0  0  0  0  0  0  0  0  0
    6.2936  -13.1909   25.8494 C   0  0  0  0  0  0  0  0  0  0  0  0
    6.3160  -14.5292   25.8781 N   0  0  0  0  0  0  0  0  0  0  0  0
    9.6256  -18.0808   26.4613 C   0  0  0  0  0  0  0  0  0  0  0  0
    9.6391  -18.4201   27.7772 O   0  0  0  0  0  0  0  0  0  0  0  0
    9.8131  -18.9130   25.5631 O   0  0  0  0  0  0  0  0  0  0  0  0
  2  1  1  1
  3  2  1  0
  4  3  1  0
  5  2  1  0
  6  5  2  0
  7  5  1  0
  8  7  1  0
  9  8  1  0
  9 11  1  0
 10  9  2  0
 12 11  1  0
 13 14  1  0
 12 13  1  6
 14 18  1  0
 15 14  2  0
 15 16  1  0
 16 17  1  0
 18 17  2  0
 19 12  1  0
 20 19  1  0
 21 19  2  0
M  END
$$$$
