CGH.pdb
     RDKit          3D

 21 21  0  0  1  0  0  0  0  0999 V2000
    8.5856  -15.7327   19.9710 N   0  0  0  0  0  0  0  0  0  0  0  0
    8.3622  -15.6047   21.3795 C   0  0  1  0  0  0  0  0  0  0  0  0
    6.9533  -16.0772   21.7014 C   0  0  0  0  0  0  0  0  0  0  0  0
    5.6998  -15.0190   20.9488 S   0  0  0  0  0  0  0  0  0  0  0  0
    9.3667  -16.3670   22.1610 C   0  0  0  0  0  0  0  0  0  0  0  0
    9.8279  -17.4218   21.6799 O   0  0  0  0  0  0  0  0  0  0  0  0
    9.7841  -15.8891   23.4326 N   0  0  0  0  0  0  0  0  0  0  0  0
   10.7311  -16.6295   24.2314 C   0  0  0  0  0  0  0  0  0  0  0  0
   11.0265  -15.9346   25.5149 C   0  0  0  0  0  0  0  0  0  0  0  0
   12.1738  -15.4985   25.7677 O   0  0  0  0  0  0  0  0  0  0  0  0
   10.0165  -15.7436   26.4950 N   0  0  0  0  0  0  0  0  0  0  0  0
   10.1667  -15.0278   27.7279 C   0  0  1  0  0  0  0  0  0  0  0  0
    8.8413  -14.5362   28.2258 C   0  0  0  0  0  0  0  0  0  0  0  0
    8.0571  -13.7576   27.2663 C   0  0  0  0  0  0  0  0  0  0  0  0
    8.1744  -12.4608   26.8694 C   0  0  0  0  0  0  0  0  0  0  0  0
    7.1966  -12.1680   25.9587 N   0  0  0  0  0  0  0  0  0  0  0  0
    6.4914  -13.2943   25.8106 C   0  0  0  0  0  0  0  0  0  0  0  0
    6.9888  -14.2654   26.5864 N   0  0  0  0  0  0  0  0  0  0  0  0
   10.7401  -15.9332   28.7930 C   0  0  0  0  0  0  0  0  0  0  0  0
   10.9196  -17.2542   28.5290 O   0  0  0  0  0  0  0  0  0  0  0  0
   11.0320  -15.4333   29.8881 O   0  0  0  0  0  0  0  0  0  0  0  0
  2  1  1  6
  3  2  1  0
  4  3  1  0
  5  2  1  0
  6  5  2  0
  7  5  1  0
  8  7  1  0
  9  8  1  0
  9 11  1  0
 10  9  2  0
 12 11  1  0
 13 14  1  0
 12 13  1  1
 14 18  1  0
 15 14  2  0
 15 16  1  0
 16 17  1  0
 18 17  2  0
 19 12  1  0
 20 19  1  0
 21 19  2  0
M  END
$$$$
