CGH.pdb
     RDKit          3D

 21 21  0  0  1  0  0  0  0  0999 V2000
    7.6276  -15.9187   19.3978 N   0  0  0  0  0  0  0  0  0  0  0  0
    7.7237  -16.0780   20.8175 C   0  0  1  0  0  0  0  0  0  0  0  0
    7.0080  -17.3574   21.2209 C   0  0  0  0  0  0  0  0  0  0  0  0
    6.0804  -17.1547   22.7558 S   0  0  0  0  0  0  0  0  0  0  0  0
    9.1371  -16.0985   21.2681 C   0  0  0  0  0  0  0  0  0  0  0  0
   10.0380  -16.2250   20.4143 O   0  0  0  0  0  0  0  0  0  0  0  0
    9.4401  -15.9750   22.6510 N   0  0  0  0  0  0  0  0  0  0  0  0
   10.8061  -15.9806   23.1166 C   0  0  0  0  0  0  0  0  0  0  0  0
   10.8802  -15.8534   24.5985 C   0  0  0  0  0  0  0  0  0  0  0  0
   11.9831  -15.7937   25.1904 O   0  0  0  0  0  0  0  0  0  0  0  0
    9.7020  -15.7955   25.3896 N   0  0  0  0  0  0  0  0  0  0  0  0
    9.6522  -15.7683   26.8219 C   0  0  1  0  0  0  0  0  0  0  0  0
    8.2741  -15.4277   27.3028 C   0  0  0  0  0  0  0  0  0  0  0  0
    7.7330  -14.1579   26.8165 C   0  0  0  0  0  0  0  0  0  0  0  0
    8.3641  -13.0309   26.3871 C   0  0  0  0  0  0  0  0  0  0  0  0
    7.4361  -12.0858   26.0448 N   0  0  0  0  0  0  0  0  0  0  0  0
    6.2452  -12.6500   26.2709 C   0  0  0  0  0  0  0  0  0  0  0  0
    6.3964  -13.8964   26.7355 N   0  0  0  0  0  0  0  0  0  0  0  0
   10.0025  -17.1263   27.3843 C   0  0  0  0  0  0  0  0  0  0  0  0
   10.1486  -17.2824   28.7264 O   0  0  0  0  0  0  0  0  0  0  0  0
   10.1469  -18.0665   26.5908 O   0  0  0  0  0  0  0  0  0  0  0  0
  2  1  1  6
  3  2  1  0
  4  3  1  0
  5  2  1  0
  6  5  2  0
  7  5  1  0
  8  7  1  0
  9  8  1  0
  9 11  1  0
 10  9  2  0
 12 11  1  0
 13 14  1  0
 12 13  1  6
 14 18  1  0
 15 14  2  0
 15 16  1  0
 16 17  1  0
 18 17  2  0
 19 12  1  0
 20 19  1  0
 21 19  2  0
M  END
$$$$
