CGH.pdb
     RDKit          3D

 21 21  0  0  1  0  0  0  0  0999 V2000
    8.9046  -17.0914   16.3651 N   0  0  0  0  0  0  0  0  0  0  0  0
    9.8525  -18.0903   16.7576 C   0  0  1  0  0  0  0  0  0  0  0  0
    9.9279  -19.1533   15.6731 C   0  0  0  0  0  0  0  0  0  0  0  0
    9.6619  -20.8110   16.3354 S   0  0  0  0  0  0  0  0  0  0  0  0
   11.1896  -17.5006   17.0135 C   0  0  0  0  0  0  0  0  0  0  0  0
   12.0722  -18.2149   17.5306 O   0  0  0  0  0  0  0  0  0  0  0  0
   11.4420  -16.1451   16.6694 N   0  0  0  0  0  0  0  0  0  0  0  0
   12.6960  -15.5139   17.0039 C   0  0  0  0  0  0  0  0  0  0  0  0
   12.7055  -15.0257   18.4107 C   0  0  0  0  0  0  0  0  0  0  0  0
   13.5670  -14.2069   18.8077 O   0  0  0  0  0  0  0  0  0  0  0  0
   11.7373  -15.4728   19.3488 N   0  0  0  0  0  0  0  0  0  0  0  0
   11.5749  -14.9836   20.6864 C   0  0  1  0  0  0  0  0  0  0  0  0
   10.1238  -14.8955   21.0511 C   0  0  0  0  0  0  0  0  0  0  0  0
    9.3139  -14.0168   20.2062 C   0  0  0  0  0  0  0  0  0  0  0  0
    9.6783  -13.1480   19.2236 C   0  0  0  0  0  0  0  0  0  0  0  0
    8.5669  -12.5270   18.7230 N   0  0  0  0  0  0  0  0  0  0  0  0
    7.5338  -13.0263   19.4093 C   0  0  0  0  0  0  0  0  0  0  0  0
    7.9565  -13.9244   20.3076 N   0  0  0  0  0  0  0  0  0  0  0  0
   12.2304  -15.9234   21.6713 C   0  0  0  0  0  0  0  0  0  0  0  0
   12.3940  -15.5375   22.9641 O   0  0  0  0  0  0  0  0  0  0  0  0
   12.6025  -17.0314   21.2610 O   0  0  0  0  0  0  0  0  0  0  0  0
  2  1  1  6
  3  2  1  0
  4  3  1  0
  5  2  1  0
  6  5  2  0
  7  5  1  0
  8  7  1  0
  9  8  1  0
  9 11  1  0
 10  9  2  0
 12 11  1  0
 13 14  1  0
 12 13  1  1
 14 18  1  0
 15 14  2  0
 15 16  1  0
 16 17  1  0
 18 17  2  0
 19 12  1  0
 20 19  1  0
 21 19  2  0
M  END
$$$$
