CGH.pdb
     RDKit          3D

 21 21  0  0  1  0  0  0  0  0999 V2000
    7.7830  -15.0570   17.3386 N   0  0  0  0  0  0  0  0  0  0  0  0
    8.5003  -14.5372   18.4636 C   0  0  1  0  0  0  0  0  0  0  0  0
    7.8023  -13.2796   18.9567 C   0  0  0  0  0  0  0  0  0  0  0  0
    8.6994  -12.5003   20.3150 S   0  0  0  0  0  0  0  0  0  0  0  0
    8.6099  -15.5415   19.5500 C   0  0  0  0  0  0  0  0  0  0  0  0
    7.6708  -16.3446   19.7226 O   0  0  0  0  0  0  0  0  0  0  0  0
    9.7707  -15.5730   20.3692 N   0  0  0  0  0  0  0  0  0  0  0  0
    9.9130  -16.5515   21.4204 C   0  0  0  0  0  0  0  0  0  0  0  0
    9.2717  -16.0947   22.6844 C   0  0  0  0  0  0  0  0  0  0  0  0
    8.1736  -16.5658   23.0621 O   0  0  0  0  0  0  0  0  0  0  0  0
    9.8846  -15.1094   23.5035 N   0  0  0  0  0  0  0  0  0  0  0  0
    9.2959  -14.4881   24.6534 C   0  0  1  0  0  0  0  0  0  0  0  0
    7.8806  -14.0805   24.3753 C   0  0  0  0  0  0  0  0  0  0  0  0
    7.1986  -13.3861   25.4682 C   0  0  0  0  0  0  0  0  0  0  0  0
    7.6272  -12.3896   26.2906 C   0  0  0  0  0  0  0  0  0  0  0  0
    6.6387  -12.0703   27.1807 N   0  0  0  0  0  0  0  0  0  0  0  0
    5.6148  -12.8794   26.8895 C   0  0  0  0  0  0  0  0  0  0  0  0
    5.9264  -13.6806   25.8632 N   0  0  0  0  0  0  0  0  0  0  0  0
    9.2661  -15.4553   25.8139 C   0  0  0  0  0  0  0  0  0  0  0  0
    8.6763  -16.6703   25.6632 O   0  0  0  0  0  0  0  0  0  0  0  0
    9.7884  -15.1027   26.8804 O   0  0  0  0  0  0  0  0  0  0  0  0
  2  1  1  6
  3  2  1  0
  4  3  1  0
  5  2  1  0
  6  5  2  0
  7  5  1  0
  8  7  1  0
  9  8  1  0
  9 11  1  0
 10  9  2  0
 12 11  1  0
 13 14  1  0
 12 13  1  6
 14 18  1  0
 15 14  2  0
 15 16  1  0
 16 17  1  0
 18 17  2  0
 19 12  1  0
 20 19  1  0
 21 19  2  0
M  END
$$$$
