CGH.pdb
     RDKit          3D

 21 21  0  0  1  0  0  0  0  0999 V2000
    8.9338  -15.5682   18.5963 N   0  0  0  0  0  0  0  0  0  0  0  0
    9.6744  -14.3429   18.6170 C   0  0  1  0  0  0  0  0  0  0  0  0
    8.7043  -13.1771   18.5082 C   0  0  0  0  0  0  0  0  0  0  0  0
    7.7939  -13.2019   16.9501 S   0  0  0  0  0  0  0  0  0  0  0  0
   10.5027  -14.2286   19.8425 C   0  0  0  0  0  0  0  0  0  0  0  0
   11.3791  -13.3422   19.8948 O   0  0  0  0  0  0  0  0  0  0  0  0
   10.2873  -15.1213   20.9271 N   0  0  0  0  0  0  0  0  0  0  0  0
   11.0998  -15.0547   22.1180 C   0  0  0  0  0  0  0  0  0  0  0  0
   12.3476  -15.8549   21.9753 C   0  0  0  0  0  0  0  0  0  0  0  0
   12.3161  -17.1075   21.9518 O   0  0  0  0  0  0  0  0  0  0  0  0
   13.6148  -15.2238   21.8610 N   0  0  0  0  0  0  0  0  0  0  0  0
   14.8713  -15.8890   21.6781 C   0  0  1  0  0  0  0  0  0  0  0  0
   15.8823  -14.9645   21.0701 C   0  0  0  0  0  0  0  0  0  0  0  0
   15.5750  -14.4960   19.7181 C   0  0  0  0  0  0  0  0  0  0  0  0
   14.7787  -15.0320   18.7529 C   0  0  0  0  0  0  0  0  0  0  0  0
   14.8154  -14.2434   17.6357 N   0  0  0  0  0  0  0  0  0  0  0  0
   15.6373  -13.2319   17.9339 C   0  0  0  0  0  0  0  0  0  0  0  0
   16.1075  -13.3606   19.1808 N   0  0  0  0  0  0  0  0  0  0  0  0
   15.4215  -16.3451   23.0093 C   0  0  0  0  0  0  0  0  0  0  0  0
   16.6032  -17.0147   23.0560 O   0  0  0  0  0  0  0  0  0  0  0  0
   14.7668  -16.0894   24.0294 O   0  0  0  0  0  0  0  0  0  0  0  0
  2  1  1  1
  3  2  1  0
  4  3  1  0
  5  2  1  0
  6  5  2  0
  7  5  1  0
  8  7  1  0
  9  8  1  0
  9 11  1  0
 10  9  2  0
 12 11  1  0
 13 14  1  0
 12 13  1  1
 14 18  1  0
 15 14  2  0
 15 16  1  0
 16 17  1  0
 18 17  2  0
 19 12  1  0
 20 19  1  0
 21 19  2  0
M  END
$$$$
