CGH.pdb
     RDKit          3D

 21 21  0  0  1  0  0  0  0  0999 V2000
    8.1216  -15.5188   16.4095 N   0  0  0  0  0  0  0  0  0  0  0  0
    9.4220  -15.0874   16.8256 C   0  0  1  0  0  0  0  0  0  0  0  0
    9.3995  -13.5818   17.0359 C   0  0  0  0  0  0  0  0  0  0  0  0
    8.3279  -13.1096   18.4092 S   0  0  0  0  0  0  0  0  0  0  0  0
    9.8582  -15.7869   18.0591 C   0  0  0  0  0  0  0  0  0  0  0  0
    8.9908  -16.2735   18.8125 O   0  0  0  0  0  0  0  0  0  0  0  0
   11.2430  -15.8910   18.3607 N   0  0  0  0  0  0  0  0  0  0  0  0
   11.7025  -16.6635   19.4898 C   0  0  0  0  0  0  0  0  0  0  0  0
   11.4454  -15.9591   20.7764 C   0  0  0  0  0  0  0  0  0  0  0  0
   11.8269  -14.7793   20.9578 O   0  0  0  0  0  0  0  0  0  0  0  0
   10.7590  -16.6023   21.8405 N   0  0  0  0  0  0  0  0  0  0  0  0
   10.5323  -16.0557   23.1461 C   0  0  1  0  0  0  0  0  0  0  0  0
    9.0677  -16.0158   23.4622 C   0  0  0  0  0  0  0  0  0  0  0  0
    8.2526  -15.1910   22.5694 C   0  0  0  0  0  0  0  0  0  0  0  0
    8.4248  -13.9105   22.1408 C   0  0  0  0  0  0  0  0  0  0  0  0
    7.3870  -13.5552   21.3235 N   0  0  0  0  0  0  0  0  0  0  0  0
    6.5907  -14.6276   21.2633 C   0  0  0  0  0  0  0  0  0  0  0  0
    7.0892  -15.6250   22.0043 N   0  0  0  0  0  0  0  0  0  0  0  0
   11.1963  -16.9151   24.1966 C   0  0  0  0  0  0  0  0  0  0  0  0
   11.2847  -16.4668   25.4765 O   0  0  0  0  0  0  0  0  0  0  0  0
   11.6449  -18.0168   23.8506 O   0  0  0  0  0  0  0  0  0  0  0  0
  2  1  1  1
  3  2  1  0
  4  3  1  0
  5  2  1  0
  6  5  2  0
  7  5  1  0
  8  7  1  0
  9  8  1  0
  9 11  1  0
 10  9  2  0
 12 11  1  0
 13 14  1  0
 12 13  1  1
 14 18  1  0
 15 14  2  0
 15 16  1  0
 16 17  1  0
 18 17  2  0
 19 12  1  0
 20 19  1  0
 21 19  2  0
M  END
$$$$
