CGH.pdb
     RDKit          3D

 21 21  0  0  1  0  0  0  0  0999 V2000
    6.7950  -15.5158   20.7371 N   0  0  0  0  0  0  0  0  0  0  0  0
    7.3003  -15.3930   22.0713 C   0  0  1  0  0  0  0  0  0  0  0  0
    6.9831  -14.0008   22.5937 C   0  0  0  0  0  0  0  0  0  0  0  0
    8.0161  -12.7395   21.8197 S   0  0  0  0  0  0  0  0  0  0  0  0
    6.7357  -16.4341   22.9647 C   0  0  0  0  0  0  0  0  0  0  0  0
    5.5397  -16.3463   23.3089 O   0  0  0  0  0  0  0  0  0  0  0  0
    7.5574  -17.5046   23.4103 N   0  0  0  0  0  0  0  0  0  0  0  0
    7.0424  -18.5165   24.3013 C   0  0  0  0  0  0  0  0  0  0  0  0
    7.9578  -18.7498   25.4526 C   0  0  0  0  0  0  0  0  0  0  0  0
    7.7246  -19.6471   26.2956 O   0  0  0  0  0  0  0  0  0  0  0  0
    9.1259  -17.9620   25.6323 N   0  0  0  0  0  0  0  0  0  0  0  0
   10.2418  -18.2928   26.4690 C   0  0  1  0  0  0  0  0  0  0  0  0
   11.4523  -17.4964   26.0857 C   0  0  0  0  0  0  0  0  0  0  0  0
   11.7316  -17.4258   24.6508 C   0  0  0  0  0  0  0  0  0  0  0  0
   11.2074  -18.1280   23.6092 C   0  0  0  0  0  0  0  0  0  0  0  0
   11.7945  -17.7257   22.4410 N   0  0  0  0  0  0  0  0  0  0  0  0
   12.6738  -16.7792   22.7855 C   0  0  0  0  0  0  0  0  0  0  0  0
   12.6553  -16.5802   24.1093 N   0  0  0  0  0  0  0  0  0  0  0  0
    9.9290  -17.9702   27.9116 C   0  0  0  0  0  0  0  0  0  0  0  0
    8.7908  -17.2943   28.2192 O   0  0  0  0  0  0  0  0  0  0  0  0
   10.7330  -18.3385   28.7791 O   0  0  0  0  0  0  0  0  0  0  0  0
  2  1  1  6
  3  2  1  0
  4  3  1  0
  5  2  1  0
  6  5  2  0
  7  5  1  0
  8  7  1  0
  9  8  1  0
  9 11  1  0
 10  9  2  0
 12 11  1  0
 13 14  1  0
 12 13  1  6
 14 18  1  0
 15 14  2  0
 15 16  1  0
 16 17  1  0
 18 17  2  0
 19 12  1  0
 20 19  1  0
 21 19  2  0
M  END
$$$$
