CGH.pdb
     RDKit          3D

 21 21  0  0  1  0  0  0  0  0999 V2000
    9.0492  -12.3199   19.5284 N   0  0  0  0  0  0  0  0  0  0  0  0
    8.6359  -13.3924   18.6744 C   0  0  1  0  0  0  0  0  0  0  0  0
    9.8686  -14.0482   18.0727 C   0  0  0  0  0  0  0  0  0  0  0  0
   11.3936  -13.3942   18.7825 S   0  0  0  0  0  0  0  0  0  0  0  0
    7.8136  -14.3857   19.4080 C   0  0  0  0  0  0  0  0  0  0  0  0
    7.1684  -15.2309   18.7552 O   0  0  0  0  0  0  0  0  0  0  0  0
    7.7738  -14.3596   20.8283 N   0  0  0  0  0  0  0  0  0  0  0  0
    7.0335  -15.3520   21.5700 C   0  0  0  0  0  0  0  0  0  0  0  0
    7.1990  -15.1739   23.0392 C   0  0  0  0  0  0  0  0  0  0  0  0
    6.3048  -14.6351   23.7324 O   0  0  0  0  0  0  0  0  0  0  0  0
    8.3767  -15.6094   23.7029 N   0  0  0  0  0  0  0  0  0  0  0  0
    8.4358  -16.2036   25.0060 C   0  0  1  0  0  0  0  0  0  0  0  0
    7.6086  -17.4522   25.0625 C   0  0  0  0  0  0  0  0  0  0  0  0
    7.6138  -18.1540   26.3467 C   0  0  0  0  0  0  0  0  0  0  0  0
    8.2531  -17.8649   27.5132 C   0  0  0  0  0  0  0  0  0  0  0  0
    7.9706  -18.8271   28.4436 N   0  0  0  0  0  0  0  0  0  0  0  0
    7.1592  -19.6954   27.8308 C   0  0  0  0  0  0  0  0  0  0  0  0
    6.9294  -19.3132   26.5685 N   0  0  0  0  0  0  0  0  0  0  0  0
    9.8575  -16.5899   25.3419 C   0  0  0  0  0  0  0  0  0  0  0  0
   10.8225  -16.5015   24.3891 O   0  0  0  0  0  0  0  0  0  0  0  0
   10.0994  -16.9802   26.4923 O   0  0  0  0  0  0  0  0  0  0  0  0
  2  1  1  1
  3  2  1  0
  4  3  1  0
  5  2  1  0
  6  5  2  0
  7  5  1  0
  8  7  1  0
  9  8  1  0
  9 11  1  0
 10  9  2  0
 12 11  1  0
 13 14  1  0
 12 13  1  6
 14 18  1  0
 15 14  2  0
 15 16  1  0
 16 17  1  0
 18 17  2  0
 19 12  1  0
 20 19  1  0
 21 19  2  0
M  END
$$$$
