CGH.pdb
     RDKit          3D

 21 21  0  0  1  0  0  0  0  0999 V2000
    9.4723  -15.3033   16.9009 N   0  0  0  0  0  0  0  0  0  0  0  0
    9.0730  -14.4469   17.9768 C   0  0  1  0  0  0  0  0  0  0  0  0
    7.9066  -13.5867   17.5170 C   0  0  0  0  0  0  0  0  0  0  0  0
    7.1526  -12.6864   18.8874 S   0  0  0  0  0  0  0  0  0  0  0  0
    8.7106  -15.2259   19.1862 C   0  0  0  0  0  0  0  0  0  0  0  0
    8.3205  -16.4030   19.0481 O   0  0  0  0  0  0  0  0  0  0  0  0
    8.8122  -14.6258   20.4704 N   0  0  0  0  0  0  0  0  0  0  0  0
    8.0117  -15.0945   21.5760 C   0  0  0  0  0  0  0  0  0  0  0  0
    8.8297  -15.2729   22.8076 C   0  0  0  0  0  0  0  0  0  0  0  0
   10.0529  -15.0012   22.8192 O   0  0  0  0  0  0  0  0  0  0  0  0
    8.2492  -15.7573   24.0100 N   0  0  0  0  0  0  0  0  0  0  0  0
    8.8424  -15.6960   25.3135 C   0  0  1  0  0  0  0  0  0  0  0  0
    7.8206  -15.3373   26.3497 C   0  0  0  0  0  0  0  0  0  0  0  0
    7.2484  -13.9955   26.2323 C   0  0  0  0  0  0  0  0  0  0  0  0
    7.8094  -12.8242   25.8244 C   0  0  0  0  0  0  0  0  0  0  0  0
    6.8839  -11.8196   25.9002 N   0  0  0  0  0  0  0  0  0  0  0  0
    5.7650  -12.3925   26.3556 C   0  0  0  0  0  0  0  0  0  0  0  0
    5.9580  -13.7009   26.5633 N   0  0  0  0  0  0  0  0  0  0  0  0
    9.4146  -17.0421   25.6925 C   0  0  0  0  0  0  0  0  0  0  0  0
   10.1745  -17.1596   26.8131 O   0  0  0  0  0  0  0  0  0  0  0  0
    9.1681  -18.0084   24.9577 O   0  0  0  0  0  0  0  0  0  0  0  0
  2  1  1  6
  3  2  1  0
  4  3  1  0
  5  2  1  0
  6  5  2  0
  7  5  1  0
  8  7  1  0
  9  8  1  0
  9 11  1  0
 10  9  2  0
 12 11  1  0
 13 14  1  0
 12 13  1  1
 14 18  1  0
 15 14  2  0
 15 16  1  0
 16 17  1  0
 18 17  2  0
 19 12  1  0
 20 19  1  0
 21 19  2  0
M  END
$$$$
