CGH.pdb
     RDKit          3D

 21 21  0  0  1  0  0  0  0  0999 V2000
    8.1372  -16.8005   26.0713 N   0  0  0  0  0  0  0  0  0  0  0  0
    7.2008  -15.7895   25.6825 C   0  0  1  0  0  0  0  0  0  0  0  0
    7.9444  -14.4790   25.4790 C   0  0  0  0  0  0  0  0  0  0  0  0
    8.8549  -13.9849   26.9569 S   0  0  0  0  0  0  0  0  0  0  0  0
    6.4631  -16.1748   24.4543 C   0  0  0  0  0  0  0  0  0  0  0  0
    5.7933  -15.3069   23.8586 O   0  0  0  0  0  0  0  0  0  0  0  0
    6.5300  -17.5128   23.9800 N   0  0  0  0  0  0  0  0  0  0  0  0
    7.7630  -18.0589   23.4658 C   0  0  0  0  0  0  0  0  0  0  0  0
    8.1008  -17.4883   22.1324 C   0  0  0  0  0  0  0  0  0  0  0  0
    7.9404  -18.1532   21.0824 O   0  0  0  0  0  0  0  0  0  0  0  0
    8.6164  -16.1708   22.0076 N   0  0  0  0  0  0  0  0  0  0  0  0
    9.8695  -15.8119   21.4112 C   0  0  1  0  0  0  0  0  0  0  0  0
    9.8612  -14.3794   20.9704 C   0  0  0  0  0  0  0  0  0  0  0  0
    8.9227  -14.0566   19.8949 C   0  0  0  0  0  0  0  0  0  0  0  0
    7.8008  -13.2857   19.8980 C   0  0  0  0  0  0  0  0  0  0  0  0
    7.2340  -13.2927   18.6530 N   0  0  0  0  0  0  0  0  0  0  0  0
    8.0201  -14.0714   17.9023 C   0  0  0  0  0  0  0  0  0  0  0  0
    9.0428  -14.5433   18.6260 N   0  0  0  0  0  0  0  0  0  0  0  0
   10.9903  -15.9684   22.4124 C   0  0  0  0  0  0  0  0  0  0  0  0
   12.2746  -15.7500   22.0255 O   0  0  0  0  0  0  0  0  0  0  0  0
   10.6963  -16.2955   23.5705 O   0  0  0  0  0  0  0  0  0  0  0  0
  2  1  1  6
  3  2  1  0
  4  3  1  0
  5  2  1  0
  6  5  2  0
  7  5  1  0
  8  7  1  0
  9  8  1  0
  9 11  1  0
 10  9  2  0
 12 11  1  0
 13 14  1  0
 12 13  1  1
 14 18  1  0
 15 14  2  0
 15 16  1  0
 16 17  1  0
 18 17  2  0
 19 12  1  0
 20 19  1  0
 21 19  2  0
M  END
$$$$
