CGH.pdb
     RDKit          3D

 21 21  0  0  1  0  0  0  0  0999 V2000
    6.5050  -18.0050   19.3611 N   0  0  0  0  0  0  0  0  0  0  0  0
    7.0670  -17.8271   20.6660 C   0  0  1  0  0  0  0  0  0  0  0  0
    8.0225  -18.9744   20.9533 C   0  0  0  0  0  0  0  0  0  0  0  0
    9.7100  -18.5895   20.4420 S   0  0  0  0  0  0  0  0  0  0  0  0
    7.7590  -16.5203   20.7866 C   0  0  0  0  0  0  0  0  0  0  0  0
    8.6390  -16.2272   19.9521 O   0  0  0  0  0  0  0  0  0  0  0  0
    7.4125  -15.6315   21.8399 N   0  0  0  0  0  0  0  0  0  0  0  0
    8.0864  -14.3649   21.9964 C   0  0  0  0  0  0  0  0  0  0  0  0
    8.7284  -14.2477   23.3350 C   0  0  0  0  0  0  0  0  0  0  0  0
    9.3640  -13.2185   23.6620 O   0  0  0  0  0  0  0  0  0  0  0  0
    8.6408  -15.2998   24.2851 N   0  0  0  0  0  0  0  0  0  0  0  0
    9.1953  -15.2864   25.6069 C   0  0  1  0  0  0  0  0  0  0  0  0
    8.1215  -15.0984   26.6355 C   0  0  0  0  0  0  0  0  0  0  0  0
    7.4650  -13.7905   26.6292 C   0  0  0  0  0  0  0  0  0  0  0  0
    7.9826  -12.5373   26.7496 C   0  0  0  0  0  0  0  0  0  0  0  0
    6.9726  -11.6158   26.7043 N   0  0  0  0  0  0  0  0  0  0  0  0
    5.8462  -12.3210   26.5566 C   0  0  0  0  0  0  0  0  0  0  0  0
    6.1153  -13.6315   26.5088 N   0  0  0  0  0  0  0  0  0  0  0  0
    9.8767  -16.6022   25.9027 C   0  0  0  0  0  0  0  0  0  0  0  0
   10.4765  -16.7945   27.1069 O   0  0  0  0  0  0  0  0  0  0  0  0
    9.8654  -17.4752   25.0238 O   0  0  0  0  0  0  0  0  0  0  0  0
  2  1  1  6
  3  2  1  0
  4  3  1  0
  5  2  1  0
  6  5  2  0
  7  5  1  0
  8  7  1  0
  9  8  1  0
  9 11  1  0
 10  9  2  0
 12 11  1  0
 13 14  1  0
 12 13  1  1
 14 18  1  0
 15 14  2  0
 15 16  1  0
 16 17  1  0
 18 17  2  0
 19 12  1  0
 20 19  1  0
 21 19  2  0
M  END
$$$$
