CGH.pdb
     RDKit          3D

 21 21  0  0  1  0  0  0  0  0999 V2000
    8.1338  -14.0009   16.4041 N   0  0  0  0  0  0  0  0  0  0  0  0
    8.2387  -14.1332   17.8260 C   0  0  1  0  0  0  0  0  0  0  0  0
    7.3379  -15.2690   18.2846 C   0  0  0  0  0  0  0  0  0  0  0  0
    7.3383  -15.4455   20.0807 S   0  0  0  0  0  0  0  0  0  0  0  0
    9.6415  -14.3677   18.2484 C   0  0  0  0  0  0  0  0  0  0  0  0
   10.3429  -15.1609   17.5885 O   0  0  0  0  0  0  0  0  0  0  0  0
   10.1594  -13.6922   19.3864 N   0  0  0  0  0  0  0  0  0  0  0  0
   11.5382  -13.8511   19.7820 C   0  0  0  0  0  0  0  0  0  0  0  0
   11.6598  -14.6377   21.0406 C   0  0  0  0  0  0  0  0  0  0  0  0
   12.7604  -14.7567   21.6278 O   0  0  0  0  0  0  0  0  0  0  0  0
   10.5310  -15.2791   21.6167 N   0  0  0  0  0  0  0  0  0  0  0  0
   10.5290  -16.0514   22.8243 C   0  0  1  0  0  0  0  0  0  0  0  0
    9.1304  -16.2712   23.3162 C   0  0  0  0  0  0  0  0  0  0  0  0
    8.4088  -15.0648   23.7232 C   0  0  0  0  0  0  0  0  0  0  0  0
    8.8289  -13.7748   23.8349 C   0  0  0  0  0  0  0  0  0  0  0  0
    7.7968  -12.9909   24.2726 N   0  0  0  0  0  0  0  0  0  0  0  0
    6.7553  -13.8155   24.4236 C   0  0  0  0  0  0  0  0  0  0  0  0
    7.0974  -15.0687   24.0997 N   0  0  0  0  0  0  0  0  0  0  0  0
   11.1383  -17.4119   22.5773 C   0  0  0  0  0  0  0  0  0  0  0  0
   11.4045  -17.8099   21.3055 O   0  0  0  0  0  0  0  0  0  0  0  0
   11.3785  -18.1300   23.5577 O   0  0  0  0  0  0  0  0  0  0  0  0
  2  1  1  6
  3  2  1  0
  4  3  1  0
  5  2  1  0
  6  5  2  0
  7  5  1  0
  8  7  1  0
  9  8  1  0
  9 11  1  0
 10  9  2  0
 12 11  1  0
 13 14  1  0
 12 13  1  6
 14 18  1  0
 15 14  2  0
 15 16  1  0
 16 17  1  0
 18 17  2  0
 19 12  1  0
 20 19  1  0
 21 19  2  0
M  END
$$$$
