LYA.pdb
     RDKit          3D

 26 26  0  0  1  0  0  0  0  0999 V2000
    2.7776  -18.1941   19.6039 C   0  0  0  0  0  0  0  0  0  0  0  0
    3.6008  -18.5727   20.8090 C   0  0  1  0  0  0  0  0  0  0  0  0
    3.4851  -20.0459   21.0309 C   0  0  0  0  0  0  0  0  0  0  0  0
    5.0398  -18.1023   20.6880 C   0  0  0  0  0  0  0  0  0  0  0  0
    5.6941  -18.3150   22.0335 C   0  0  2  0  0  0  0  0  0  0  0  0
    4.7479  -17.9573   23.0492 N   0  0  0  0  0  0  0  0  0  0  0  0
    6.9754  -17.5952   22.1542 C   0  0  0  0  0  0  0  0  0  0  0  0
    7.9621  -18.0015   21.4980 O   0  0  0  0  0  0  0  0  0  0  0  0
    7.9003  -13.1302   17.2709 O   0  0  0  0  0  0  0  0  0  0  0  0
    7.9520  -13.4234   18.6419 C   0  0  0  0  0  0  0  0  0  0  0  0
    6.8842  -13.1014   19.4537 C   0  0  0  0  0  0  0  0  0  0  0  0
    6.9982  -13.4193   20.8075 C   0  0  0  0  0  0  0  0  0  0  0  0
    8.1216  -14.0278   21.3250 C   0  0  0  0  0  0  0  0  0  0  0  0
    8.2145  -14.3521   22.7717 C   0  0  0  0  0  0  0  0  0  0  0  0
    8.4198  -15.7982   23.0661 C   0  0  2  0  0  0  0  0  0  0  0  0
    7.1367  -16.4617   22.9826 N   0  0  0  0  0  0  0  0  0  0  0  0
    9.0043  -16.0959   24.3850 C   0  0  0  0  0  0  0  0  0  0  0  0
   10.0888  -15.5145   24.6627 O   0  0  0  0  0  0  0  0  0  0  0  0
    9.1545  -14.3219   20.4511 C   0  0  0  0  0  0  0  0  0  0  0  0
    9.1002  -14.0331   19.1081 C   0  0  0  0  0  0  0  0  0  0  0  0
    8.1434  -16.9774   27.7657 C   0  0  0  0  0  0  0  0  0  0  0  0
    9.1238  -17.1215   26.6145 C   0  0  2  0  0  0  0  0  0  0  0  0
    8.4583  -16.9601   25.3388 N   0  0  0  0  0  0  0  0  0  0  0  0
    9.8278  -18.4315   26.7001 C   0  0  0  0  0  0  0  0  0  0  0  0
    9.7775  -19.3291   25.6474 O   0  0  0  0  0  0  0  0  0  0  0  0
   10.4868  -18.7696   27.7179 O   0  0  0  0  0  0  0  0  0  0  0  0
  2  1  1  6
  2  3  1  0
  4  2  1  0
  4  5  1  0
  5  6  1  1
  7  5  1  0
  7  8  2  0
  9 10  1  0
 10 11  2  0
 11 12  1  0
 13 12  2  0
 13 14  1  0
 15 14  1  1
 15 16  1  0
 16  7  1  0
 17 15  1  0
 18 17  2  0
 19 13  1  0
 20 10  1  0
 20 19  2  0
 22 21  1  1
 22 23  1  0
 23 17  1  0
 24 22  1  0
 25 24  1  0
 26 24  2  0
M  END
$$$$
