LYA.pdb
     RDKit          3D

 26 26  0  0  1  0  0  0  0  0999 V2000
    6.4373  -14.0581   18.6420 C   0  0  0  0  0  0  0  0  0  0  0  0
    7.8109  -13.5096   18.9348 C   0  0  1  0  0  0  0  0  0  0  0  0
    7.9476  -12.1725   18.2819 C   0  0  0  0  0  0  0  0  0  0  0  0
    8.1064  -13.4756   20.4241 C   0  0  0  0  0  0  0  0  0  0  0  0
    8.5862  -14.8539   20.8160 C   0  0  2  0  0  0  0  0  0  0  0  0
    7.4549  -15.7343   20.8181 N   0  0  0  0  0  0  0  0  0  0  0  0
    9.3208  -14.8496   22.0946 C   0  0  0  0  0  0  0  0  0  0  0  0
   10.4932  -14.4087   22.1177 O   0  0  0  0  0  0  0  0  0  0  0  0
   11.0247  -15.2453   30.7461 O   0  0  0  0  0  0  0  0  0  0  0  0
   10.4232  -15.1965   29.4797 C   0  0  0  0  0  0  0  0  0  0  0  0
    9.8507  -16.3330   28.9470 C   0  0  0  0  0  0  0  0  0  0  0  0
    9.2691  -16.2179   27.6840 C   0  0  0  0  0  0  0  0  0  0  0  0
    9.2594  -15.0284   26.9876 C   0  0  0  0  0  0  0  0  0  0  0  0
    8.6341  -14.9376   25.6432 C   0  0  0  0  0  0  0  0  0  0  0  0
    9.5332  -15.3226   24.5192 C   0  0  2  0  0  0  0  0  0  0  0  0
    8.7547  -15.3239   23.2995 N   0  0  0  0  0  0  0  0  0  0  0  0
   10.1789  -16.6400   24.6516 C   0  0  0  0  0  0  0  0  0  0  0  0
    9.4297  -17.6474   24.5277 O   0  0  0  0  0  0  0  0  0  0  0  0
    9.8526  -13.9286   27.5839 C   0  0  0  0  0  0  0  0  0  0  0  0
   10.4412  -13.9804   28.8253 C   0  0  0  0  0  0  0  0  0  0  0  0
   13.1195  -18.4526   23.9303 C   0  0  0  0  0  0  0  0  0  0  0  0
   12.0386  -18.2137   24.9704 C   0  0  2  0  0  0  0  0  0  0  0  0
   11.5375  -16.8571   24.9002 N   0  0  0  0  0  0  0  0  0  0  0  0
   12.5544  -18.5345   26.3305 C   0  0  0  0  0  0  0  0  0  0  0  0
   12.5365  -17.5813   27.3344 O   0  0  0  0  0  0  0  0  0  0  0  0
   13.0203  -19.6682   26.6173 O   0  0  0  0  0  0  0  0  0  0  0  0
  2  1  1  1
  2  3  1  0
  4  2  1  0
  4  5  1  0
  5  6  1  1
  7  5  1  0
  7  8  2  0
  9 10  1  0
 10 11  2  0
 11 12  1  0
 13 12  2  0
 13 14  1  0
 15 14  1  1
 15 16  1  0
 16  7  1  0
 17 15  1  0
 18 17  2  0
 19 13  1  0
 20 10  1  0
 20 19  2  0
 22 21  1  6
 22 23  1  0
 23 17  1  0
 24 22  1  0
 25 24  1  0
 26 24  2  0
M  END
$$$$
