LYA.pdb
     RDKit          3D

 26 26  0  0  1  0  0  0  0  0999 V2000
    7.4751  -13.1972   17.6499 C   0  0  0  0  0  0  0  0  0  0  0  0
    8.0657  -14.4669   18.2088 C   0  0  1  0  0  0  0  0  0  0  0  0
    8.2332  -15.4527   17.0984 C   0  0  0  0  0  0  0  0  0  0  0  0
    9.3527  -14.2097   18.9729 C   0  0  0  0  0  0  0  0  0  0  0  0
    9.5191  -15.3405   19.9614 C   0  0  2  0  0  0  0  0  0  0  0  0
    8.5265  -16.3334   19.6719 N   0  0  0  0  0  0  0  0  0  0  0  0
    9.4822  -14.8733   21.3595 C   0  0  0  0  0  0  0  0  0  0  0  0
   10.3501  -14.0577   21.7483 O   0  0  0  0  0  0  0  0  0  0  0  0
    6.3452  -11.5380   28.7346 O   0  0  0  0  0  0  0  0  0  0  0  0
    6.5017  -12.2687   27.5473 C   0  0  0  0  0  0  0  0  0  0  0  0
    5.9311  -13.5192   27.4302 C   0  0  0  0  0  0  0  0  0  0  0  0
    6.1237  -14.1938   26.2241 C   0  0  0  0  0  0  0  0  0  0  0  0
    6.8494  -13.6479   25.1872 C   0  0  0  0  0  0  0  0  0  0  0  0
    7.0390  -14.3917   23.9154 C   0  0  0  0  0  0  0  0  0  0  0  0
    8.4553  -14.7413   23.6124 C   0  0  2  0  0  0  0  0  0  0  0  0
    8.5047  -15.3091   22.2824 N   0  0  0  0  0  0  0  0  0  0  0  0
    9.0811  -15.6974   24.5420 C   0  0  0  0  0  0  0  0  0  0  0  0
    8.7445  -15.6040   25.7542 O   0  0  0  0  0  0  0  0  0  0  0  0
    7.3932  -12.3885   25.3753 C   0  0  0  0  0  0  0  0  0  0  0  0
    7.2376  -11.6755   26.5404 C   0  0  0  0  0  0  0  0  0  0  0  0
    9.2700  -18.4803   25.6826 C   0  0  0  0  0  0  0  0  0  0  0  0
   10.4363  -17.6424   25.1877 C   0  0  2  0  0  0  0  0  0  0  0  0
   10.0053  -16.6856   24.1901 N   0  0  0  0  0  0  0  0  0  0  0  0
   11.5175  -18.5243   24.6659 C   0  0  0  0  0  0  0  0  0  0  0  0
   12.1760  -19.4054   25.5065 O   0  0  0  0  0  0  0  0  0  0  0  0
   11.8705  -18.5039   23.4578 O   0  0  0  0  0  0  0  0  0  0  0  0
  2  1  1  6
  2  3  1  0
  4  2  1  0
  4  5  1  0
  5  6  1  1
  7  5  1  0
  7  8  2  0
  9 10  1  0
 10 11  2  0
 11 12  1  0
 13 12  2  0
 13 14  1  0
 15 14  1  1
 15 16  1  0
 16  7  1  0
 17 15  1  0
 18 17  2  0
 19 13  1  0
 20 10  1  0
 20 19  2  0
 22 21  1  6
 22 23  1  0
 23 17  1  0
 24 22  1  0
 25 24  1  0
 26 24  2  0
M  END
$$$$
