LYA.pdb
     RDKit          3D

 26 26  0  0  1  0  0  0  0  0999 V2000
   10.2924  -14.3822   29.0808 C   0  0  0  0  0  0  0  0  0  0  0  0
    9.0179  -14.9106   28.4727 C   0  0  1  0  0  0  0  0  0  0  0  0
    8.2699  -13.7752   27.8532 C   0  0  0  0  0  0  0  0  0  0  0  0
    9.2780  -16.0495   27.5022 C   0  0  0  0  0  0  0  0  0  0  0  0
    7.9502  -16.4218   26.8841 C   0  0  2  0  0  0  0  0  0  0  0  0
    7.5380  -17.6774   27.4395 N   0  0  0  0  0  0  0  0  0  0  0  0
    7.9994  -16.4271   25.4103 C   0  0  0  0  0  0  0  0  0  0  0  0
    7.9881  -17.5256   24.8082 O   0  0  0  0  0  0  0  0  0  0  0  0
    7.3775  -13.6252   17.0596 O   0  0  0  0  0  0  0  0  0  0  0  0
    7.4530  -13.6914   18.4588 C   0  0  0  0  0  0  0  0  0  0  0  0
    8.3712  -12.9145   19.1345 C   0  0  0  0  0  0  0  0  0  0  0  0
    8.3957  -13.0266   20.5250 C   0  0  0  0  0  0  0  0  0  0  0  0
    7.5467  -13.8716   21.2069 C   0  0  0  0  0  0  0  0  0  0  0  0
    7.5980  -13.9709   22.6882 C   0  0  0  0  0  0  0  0  0  0  0  0
    8.0281  -15.3020   23.2010 C   0  0  2  0  0  0  0  0  0  0  0  0
    8.0590  -15.2397   24.6463 N   0  0  0  0  0  0  0  0  0  0  0  0
    9.3478  -15.7608   22.7342 C   0  0  0  0  0  0  0  0  0  0  0  0
    9.4017  -16.2102   21.5567 O   0  0  0  0  0  0  0  0  0  0  0  0
    6.6509  -14.6213   20.4634 C   0  0  0  0  0  0  0  0  0  0  0  0
    6.5798  -14.5537   19.0922 C   0  0  0  0  0  0  0  0  0  0  0  0
   12.9215  -15.2824   23.2554 C   0  0  0  0  0  0  0  0  0  0  0  0
   11.7628  -16.1894   22.8787 C   0  0  2  0  0  0  0  0  0  0  0  0
   10.5277  -15.7370   23.4839 N   0  0  0  0  0  0  0  0  0  0  0  0
   12.0698  -17.5979   23.2542 C   0  0  0  0  0  0  0  0  0  0  0  0
   13.2404  -18.2019   22.8286 O   0  0  0  0  0  0  0  0  0  0  0  0
   11.2887  -18.2849   23.9630 O   0  0  0  0  0  0  0  0  0  0  0  0
  2  1  1  6
  2  3  1  0
  4  2  1  0
  4  5  1  0
  5  6  1  1
  7  5  1  0
  7  8  2  0
  9 10  1  0
 10 11  2  0
 11 12  1  0
 13 12  2  0
 13 14  1  0
 15 14  1  6
 15 16  1  0
 16  7  1  0
 17 15  1  0
 18 17  2  0
 19 13  1  0
 20 10  1  0
 20 19  2  0
 22 21  1  1
 22 23  1  0
 23 17  1  0
 24 22  1  0
 25 24  1  0
 26 24  2  0
M  END
$$$$
