LYA.pdb
     RDKit          3D

 26 26  0  0  1  0  0  0  0  0999 V2000
    7.2741  -12.0795   18.5919 C   0  0  0  0  0  0  0  0  0  0  0  0
    7.5941  -13.4562   19.1169 C   0  0  1  0  0  0  0  0  0  0  0  0
    8.1961  -14.2666   18.0152 C   0  0  0  0  0  0  0  0  0  0  0  0
    8.4654  -13.4048   20.3598 C   0  0  0  0  0  0  0  0  0  0  0  0
    8.5962  -14.8203   20.8725 C   0  0  2  0  0  0  0  0  0  0  0  0
    7.2834  -15.3923   20.9381 N   0  0  0  0  0  0  0  0  0  0  0  0
    9.3235  -14.8879   22.1535 C   0  0  0  0  0  0  0  0  0  0  0  0
   10.5393  -14.5865   22.1760 O   0  0  0  0  0  0  0  0  0  0  0  0
   10.8958  -15.2407   30.8334 O   0  0  0  0  0  0  0  0  0  0  0  0
   10.3044  -15.1950   29.5621 C   0  0  0  0  0  0  0  0  0  0  0  0
    9.7345  -16.3323   29.0285 C   0  0  0  0  0  0  0  0  0  0  0  0
    9.1631  -16.2203   27.7605 C   0  0  0  0  0  0  0  0  0  0  0  0
    9.1607  -15.0330   27.0604 C   0  0  0  0  0  0  0  0  0  0  0  0
    8.5463  -14.9454   25.7107 C   0  0  0  0  0  0  0  0  0  0  0  0
    9.4621  -15.3084   24.5930 C   0  0  2  0  0  0  0  0  0  0  0  0
    8.7034  -15.2800   23.3613 N   0  0  0  0  0  0  0  0  0  0  0  0
   10.1017  -16.6306   24.7065 C   0  0  0  0  0  0  0  0  0  0  0  0
    9.3444  -17.6325   24.5881 O   0  0  0  0  0  0  0  0  0  0  0  0
    9.7509  -13.9322   27.6580 C   0  0  0  0  0  0  0  0  0  0  0  0
   10.3294  -13.9810   28.9042 C   0  0  0  0  0  0  0  0  0  0  0  0
   13.0643  -18.4275   23.9522 C   0  0  0  0  0  0  0  0  0  0  0  0
   11.9586  -18.2174   24.9722 C   0  0  2  0  0  0  0  0  0  0  0  0
   11.4627  -16.8577   24.9318 N   0  0  0  0  0  0  0  0  0  0  0  0
   12.4399  -18.5817   26.3341 C   0  0  0  0  0  0  0  0  0  0  0  0
   12.8304  -19.8786   26.6203 O   0  0  0  0  0  0  0  0  0  0  0  0
   12.5098  -17.7375   27.2652 O   0  0  0  0  0  0  0  0  0  0  0  0
  2  1  1  6
  2  3  1  0
  4  2  1  0
  4  5  1  0
  5  6  1  1
  7  5  1  0
  7  8  2  0
  9 10  1  0
 10 11  2  0
 11 12  1  0
 13 12  2  0
 13 14  1  0
 15 14  1  1
 15 16  1  0
 16  7  1  0
 17 15  1  0
 18 17  2  0
 19 13  1  0
 20 10  1  0
 20 19  2  0
 22 21  1  6
 22 23  1  0
 23 17  1  0
 24 22  1  0
 25 24  1  0
 26 24  2  0
M  END
$$$$
