LYA.pdb
     RDKit          3D

 26 26  0  0  1  0  0  0  0  0999 V2000
    7.1325  -13.3790   17.0028 C   0  0  0  0  0  0  0  0  0  0  0  0
    7.9174  -14.4746   17.6789 C   0  0  1  0  0  0  0  0  0  0  0  0
    8.9197  -15.0185   16.7135 C   0  0  0  0  0  0  0  0  0  0  0  0
    8.5416  -14.0084   18.9826 C   0  0  0  0  0  0  0  0  0  0  0  0
    9.0610  -15.2365   19.6936 C   0  0  2  0  0  0  0  0  0  0  0  0
    8.1345  -16.3065   19.4666 N   0  0  0  0  0  0  0  0  0  0  0  0
    9.3224  -14.9884   21.1234 C   0  0  0  0  0  0  0  0  0  0  0  0
   10.3317  -14.3207   21.4473 O   0  0  0  0  0  0  0  0  0  0  0  0
    6.9763  -12.0286   28.9716 O   0  0  0  0  0  0  0  0  0  0  0  0
    7.0445  -12.6230   27.7027 C   0  0  0  0  0  0  0  0  0  0  0  0
    7.5582  -11.9118   26.6380 C   0  0  0  0  0  0  0  0  0  0  0  0
    7.5984  -12.5598   25.4029 C   0  0  0  0  0  0  0  0  0  0  0  0
    7.1486  -13.8523   25.2387 C   0  0  0  0  0  0  0  0  0  0  0  0
    7.2024  -14.5149   23.9103 C   0  0  0  0  0  0  0  0  0  0  0  0
    8.5687  -14.9299   23.4848 C   0  0  2  0  0  0  0  0  0  0  0  0
    8.4781  -15.4744   22.1472 N   0  0  0  0  0  0  0  0  0  0  0  0
    9.2188  -15.9338   24.3447 C   0  0  0  0  0  0  0  0  0  0  0  0
    9.4541  -15.5862   25.5343 O   0  0  0  0  0  0  0  0  0  0  0  0
    6.6459  -14.5051   26.3516 C   0  0  0  0  0  0  0  0  0  0  0  0
    6.5807  -13.9192   27.5936 C   0  0  0  0  0  0  0  0  0  0  0  0
   11.5969  -18.5174   24.4843 C   0  0  0  0  0  0  0  0  0  0  0  0
   10.1978  -18.1135   24.9166 C   0  0  2  0  0  0  0  0  0  0  0  0
    9.5898  -17.2228   23.9505 N   0  0  0  0  0  0  0  0  0  0  0  0
   10.2363  -17.5009   26.2739 C   0  0  0  0  0  0  0  0  0  0  0  0
   11.3868  -16.8863   26.7378 O   0  0  0  0  0  0  0  0  0  0  0  0
    9.2391  -17.5173   27.0420 O   0  0  0  0  0  0  0  0  0  0  0  0
  2  1  1  6
  2  3  1  0
  4  2  1  0
  4  5  1  0
  5  6  1  1
  7  5  1  0
  7  8  2  0
  9 10  1  0
 10 11  2  0
 11 12  1  0
 13 12  2  0
 13 14  1  0
 15 14  1  1
 15 16  1  0
 16  7  1  0
 17 15  1  0
 18 17  2  0
 19 13  1  0
 20 10  1  0
 20 19  2  0
 22 21  1  6
 22 23  1  0
 23 17  1  0
 24 22  1  0
 25 24  1  0
 26 24  2  0
M  END
$$$$
