LYA.pdb
     RDKit          3D

 26 26  0  0  1  0  0  0  0  0999 V2000
    6.6622  -12.9581   19.7561 C   0  0  0  0  0  0  0  0  0  0  0  0
    7.7964  -13.4563   18.8966 C   0  0  1  0  0  0  0  0  0  0  0  0
    8.7670  -12.3407   18.6815 C   0  0  0  0  0  0  0  0  0  0  0  0
    8.4440  -14.7033   19.4727 C   0  0  0  0  0  0  0  0  0  0  0  0
    9.6739  -14.9918   18.6434 C   0  0  2  0  0  0  0  0  0  0  0  0
    9.2622  -15.7088   17.4724 N   0  0  0  0  0  0  0  0  0  0  0  0
   10.7190  -15.6905   19.4143 C   0  0  0  0  0  0  0  0  0  0  0  0
   10.8684  -16.9237   19.2521 O   0  0  0  0  0  0  0  0  0  0  0  0
   17.3348  -14.6625   16.8656 O   0  0  0  0  0  0  0  0  0  0  0  0
   16.4617  -14.7271   17.9618 C   0  0  0  0  0  0  0  0  0  0  0  0
   16.7015  -15.6281   18.9786 C   0  0  0  0  0  0  0  0  0  0  0  0
   15.7959  -15.6424   20.0400 C   0  0  0  0  0  0  0  0  0  0  0  0
   14.7059  -14.7999   20.0843 C   0  0  0  0  0  0  0  0  0  0  0  0
   13.7578  -14.8401   21.2272 C   0  0  0  0  0  0  0  0  0  0  0  0
   12.5970  -15.7536   21.0318 C   0  0  2  0  0  0  0  0  0  0  0  0
   11.5620  -15.0238   20.3320 N   0  0  0  0  0  0  0  0  0  0  0  0
   12.0136  -16.3042   22.2673 C   0  0  0  0  0  0  0  0  0  0  0  0
   11.5247  -15.4701   23.0775 O   0  0  0  0  0  0  0  0  0  0  0  0
   14.5280  -13.9215   19.0289 C   0  0  0  0  0  0  0  0  0  0  0  0
   15.3859  -13.8612   17.9563 C   0  0  0  0  0  0  0  0  0  0  0  0
   10.3595  -19.2360   23.5762 C   0  0  0  0  0  0  0  0  0  0  0  0
   11.2893  -18.0609   23.8248 C   0  0  2  0  0  0  0  0  0  0  0  0
   11.9604  -17.6595   22.6063 N   0  0  0  0  0  0  0  0  0  0  0  0
   12.2649  -18.3961   24.8994 C   0  0  0  0  0  0  0  0  0  0  0  0
   11.8401  -18.5865   26.2032 O   0  0  0  0  0  0  0  0  0  0  0  0
   13.4963  -18.5179   24.6685 O   0  0  0  0  0  0  0  0  0  0  0  0
  2  1  1  1
  2  3  1  0
  4  2  1  0
  4  5  1  0
  5  6  1  6
  7  5  1  0
  7  8  2  0
  9 10  1  0
 10 11  2  0
 11 12  1  0
 13 12  2  0
 13 14  1  0
 15 14  1  1
 15 16  1  0
 16  7  1  0
 17 15  1  0
 18 17  2  0
 19 13  1  0
 20 10  1  0
 20 19  2  0
 22 21  1  6
 22 23  1  0
 23 17  1  0
 24 22  1  0
 25 24  1  0
 26 24  2  0
M  END
$$$$
