LYA.pdb
     RDKit          3D

 26 26  0  0  1  0  0  0  0  0999 V2000
    8.4872  -12.8142   19.9691 C   0  0  0  0  0  0  0  0  0  0  0  0
    8.1226  -13.9979   19.1094 C   0  0  1  0  0  0  0  0  0  0  0  0
    7.4391  -13.5073   17.8746 C   0  0  0  0  0  0  0  0  0  0  0  0
    9.3233  -14.8791   18.8124 C   0  0  0  0  0  0  0  0  0  0  0  0
    9.3052  -16.0112   19.8133 C   0  0  2  0  0  0  0  0  0  0  0  0
    8.1468  -16.8149   19.5541 N   0  0  0  0  0  0  0  0  0  0  0  0
    9.3786  -15.5304   21.2053 C   0  0  0  0  0  0  0  0  0  0  0  0
   10.4148  -14.9391   21.5877 O   0  0  0  0  0  0  0  0  0  0  0  0
    6.8529  -11.9740   28.8081 O   0  0  0  0  0  0  0  0  0  0  0  0
    6.9287  -12.5870   27.5485 C   0  0  0  0  0  0  0  0  0  0  0  0
    7.6717  -12.0026   26.5438 C   0  0  0  0  0  0  0  0  0  0  0  0
    7.7065  -12.6624   25.3149 C   0  0  0  0  0  0  0  0  0  0  0  0
    7.0334  -13.8458   25.0995 C   0  0  0  0  0  0  0  0  0  0  0  0
    7.0877  -14.5238   23.7789 C   0  0  0  0  0  0  0  0  0  0  0  0
    8.4094  -15.1289   23.4518 C   0  0  2  0  0  0  0  0  0  0  0  0
    8.3244  -15.7096   22.1293 N   0  0  0  0  0  0  0  0  0  0  0  0
    8.8717  -16.1736   24.3818 C   0  0  0  0  0  0  0  0  0  0  0  0
    8.1818  -17.2287   24.4286 O   0  0  0  0  0  0  0  0  0  0  0  0
    6.3076  -14.3744   26.1535 C   0  0  0  0  0  0  0  0  0  0  0  0
    6.2358  -13.7707   27.3865 C   0  0  0  0  0  0  0  0  0  0  0  0
   11.7539  -17.6868   25.7974 C   0  0  0  0  0  0  0  0  0  0  0  0
   10.3386  -17.2033   26.0624 C   0  0  2  0  0  0  0  0  0  0  0  0
    9.9989  -16.0876   25.2043 N   0  0  0  0  0  0  0  0  0  0  0  0
   10.1760  -16.8536   27.5012 C   0  0  0  0  0  0  0  0  0  0  0  0
   10.3224  -17.8191   28.4825 O   0  0  0  0  0  0  0  0  0  0  0  0
    9.9032  -15.6836   27.8769 O   0  0  0  0  0  0  0  0  0  0  0  0
  2  1  1  6
  2  3  1  0
  4  2  1  0
  4  5  1  0
  5  6  1  1
  7  5  1  0
  7  8  2  0
  9 10  1  0
 10 11  2  0
 11 12  1  0
 13 12  2  0
 13 14  1  0
 15 14  1  1
 15 16  1  0
 16  7  1  0
 17 15  1  0
 18 17  2  0
 19 13  1  0
 20 10  1  0
 20 19  2  0
 22 21  1  1
 22 23  1  0
 23 17  1  0
 24 22  1  0
 25 24  1  0
 26 24  2  0
M  END
$$$$
