LYA.pdb
     RDKit          3D

 26 26  0  0  1  0  0  0  0  0999 V2000
    7.9031  -13.1801   17.2719 C   0  0  0  0  0  0  0  0  0  0  0  0
    8.3881  -14.3906   18.0286 C   0  0  1  0  0  0  0  0  0  0  0  0
    9.1775  -15.2568   17.1017 C   0  0  0  0  0  0  0  0  0  0  0  0
    9.1554  -14.0101   19.2829 C   0  0  0  0  0  0  0  0  0  0  0  0
    9.3112  -15.2655   20.1094 C   0  0  2  0  0  0  0  0  0  0  0  0
    8.2350  -16.1524   19.7778 N   0  0  0  0  0  0  0  0  0  0  0  0
    9.4034  -14.9788   21.5529 C   0  0  0  0  0  0  0  0  0  0  0  0
   10.4412  -14.4357   21.9972 O   0  0  0  0  0  0  0  0  0  0  0  0
    6.8594  -11.0867   28.8191 O   0  0  0  0  0  0  0  0  0  0  0  0
    6.8873  -11.8586   27.6481 C   0  0  0  0  0  0  0  0  0  0  0  0
    6.0120  -12.9147   27.5007 C   0  0  0  0  0  0  0  0  0  0  0  0
    6.0907  -13.6426   26.3129 C   0  0  0  0  0  0  0  0  0  0  0  0
    6.9973  -13.3322   25.3222 C   0  0  0  0  0  0  0  0  0  0  0  0
    7.0586  -14.1274   24.0690 C   0  0  0  0  0  0  0  0  0  0  0  0
    8.3840  -14.7535   23.8018 C   0  0  2  0  0  0  0  0  0  0  0  0
    8.3654  -15.2926   22.4592 N   0  0  0  0  0  0  0  0  0  0  0  0
    8.7671  -15.8359   24.7246 C   0  0  0  0  0  0  0  0  0  0  0  0
    8.5970  -15.6118   25.9543 O   0  0  0  0  0  0  0  0  0  0  0  0
    7.8449  -12.2589   25.5387 C   0  0  0  0  0  0  0  0  0  0  0  0
    7.8145  -11.5047   26.6878 C   0  0  0  0  0  0  0  0  0  0  0  0
    9.3485  -19.4532   24.9195 C   0  0  0  0  0  0  0  0  0  0  0  0
    9.6507  -18.0351   25.3721 C   0  0  2  0  0  0  0  0  0  0  0  0
    9.2968  -17.0739   24.3487 N   0  0  0  0  0  0  0  0  0  0  0  0
   11.0837  -17.9144   25.7610 C   0  0  0  0  0  0  0  0  0  0  0  0
   11.5865  -18.6330   26.8322 O   0  0  0  0  0  0  0  0  0  0  0  0
   11.8827  -17.1654   25.1405 O   0  0  0  0  0  0  0  0  0  0  0  0
  2  1  1  6
  2  3  1  0
  4  2  1  0
  4  5  1  0
  5  6  1  1
  7  5  1  0
  7  8  2  0
  9 10  1  0
 10 11  2  0
 11 12  1  0
 13 12  2  0
 13 14  1  0
 15 14  1  1
 15 16  1  0
 16  7  1  0
 17 15  1  0
 18 17  2  0
 19 13  1  0
 20 10  1  0
 20 19  2  0
 22 21  1  6
 22 23  1  0
 23 17  1  0
 24 22  1  0
 25 24  1  0
 26 24  2  0
M  END
$$$$
