LYA.pdb
     RDKit          3D

 26 26  0  0  1  0  0  0  0  0999 V2000
    8.0163  -12.7414   18.4851 C   0  0  0  0  0  0  0  0  0  0  0  0
    8.2850  -14.1957   18.7789 C   0  0  1  0  0  0  0  0  0  0  0  0
    8.0466  -14.9925   17.5375 C   0  0  0  0  0  0  0  0  0  0  0  0
    9.6683  -14.4132   19.3669 C   0  0  0  0  0  0  0  0  0  0  0  0
    9.5765  -15.6002   20.2976 C   0  0  2  0  0  0  0  0  0  0  0  0
    8.4511  -16.3927   19.8974 N   0  0  0  0  0  0  0  0  0  0  0  0
    9.5289  -15.1986   21.7157 C   0  0  0  0  0  0  0  0  0  0  0  0
   10.4867  -14.5472   22.1929 O   0  0  0  0  0  0  0  0  0  0  0  0
    6.6139  -11.2243   28.7894 O   0  0  0  0  0  0  0  0  0  0  0  0
    6.7557  -11.9513   27.5980 C   0  0  0  0  0  0  0  0  0  0  0  0
    7.6911  -11.5607   26.6623 C   0  0  0  0  0  0  0  0  0  0  0  0
    7.7822  -12.3258   25.4991 C   0  0  0  0  0  0  0  0  0  0  0  0
    6.9800  -13.4251   25.2806 C   0  0  0  0  0  0  0  0  0  0  0  0
    7.0990  -14.2189   24.0306 C   0  0  0  0  0  0  0  0  0  0  0  0
    8.3774  -14.9728   23.8998 C   0  0  2  0  0  0  0  0  0  0  0  0
    8.4434  -15.5195   22.5618 N   0  0  0  0  0  0  0  0  0  0  0  0
    8.5573  -16.0790   24.8558 C   0  0  0  0  0  0  0  0  0  0  0  0
    8.3080  -15.8217   26.0654 O   0  0  0  0  0  0  0  0  0  0  0  0
    6.0634  -13.7585   26.2633 C   0  0  0  0  0  0  0  0  0  0  0  0
    5.9275  -13.0436   27.4297 C   0  0  0  0  0  0  0  0  0  0  0  0
    8.9625  -19.7644   25.0497 C   0  0  0  0  0  0  0  0  0  0  0  0
    9.1343  -18.3532   25.5849 C   0  0  2  0  0  0  0  0  0  0  0  0
    8.9765  -17.3726   24.5313 N   0  0  0  0  0  0  0  0  0  0  0  0
   10.4541  -18.2178   26.2623 C   0  0  0  0  0  0  0  0  0  0  0  0
   11.3807  -17.2883   25.8217 O   0  0  0  0  0  0  0  0  0  0  0  0
   10.7748  -18.9323   27.2477 O   0  0  0  0  0  0  0  0  0  0  0  0
  2  1  1  6
  2  3  1  0
  4  2  1  0
  4  5  1  0
  5  6  1  6
  7  5  1  0
  7  8  2  0
  9 10  1  0
 10 11  2  0
 11 12  1  0
 13 12  2  0
 13 14  1  0
 15 14  1  1
 15 16  1  0
 16  7  1  0
 17 15  1  0
 18 17  2  0
 19 13  1  0
 20 10  1  0
 20 19  2  0
 22 21  1  6
 22 23  1  0
 23 17  1  0
 24 22  1  0
 25 24  1  0
 26 24  2  0
M  END
$$$$
