LYA.pdb
     RDKit          3D

 26 26  0  0  1  0  0  0  0  0999 V2000
    7.5798  -13.1761   17.5123 C   0  0  0  0  0  0  0  0  0  0  0  0
    8.2290  -14.4129   18.0800 C   0  0  1  0  0  0  0  0  0  0  0  0
    8.8097  -15.2127   16.9593 C   0  0  0  0  0  0  0  0  0  0  0  0
    9.2440  -14.0803   19.1596 C   0  0  0  0  0  0  0  0  0  0  0  0
    9.3377  -15.2825   20.0704 C   0  0  2  0  0  0  0  0  0  0  0  0
    8.2741  -16.1814   19.7306 N   0  0  0  0  0  0  0  0  0  0  0  0
    9.3468  -14.9066   21.4963 C   0  0  0  0  0  0  0  0  0  0  0  0
   10.2804  -14.1913   21.9278 O   0  0  0  0  0  0  0  0  0  0  0  0
    6.3312  -11.8227   29.0591 O   0  0  0  0  0  0  0  0  0  0  0  0
    6.4709  -12.4444   27.8093 C   0  0  0  0  0  0  0  0  0  0  0  0
    5.9319  -13.6971   27.6013 C   0  0  0  0  0  0  0  0  0  0  0  0
    6.1055  -14.2602   26.3366 C   0  0  0  0  0  0  0  0  0  0  0  0
    6.7830  -13.6061   25.3301 C   0  0  0  0  0  0  0  0  0  0  0  0
    6.9534  -14.2326   23.9940 C   0  0  0  0  0  0  0  0  0  0  0  0
    8.3113  -14.7935   23.7463 C   0  0  2  0  0  0  0  0  0  0  0  0
    8.3420  -15.3214   22.3994 N   0  0  0  0  0  0  0  0  0  0  0  0
    8.7284  -15.8647   24.6675 C   0  0  0  0  0  0  0  0  0  0  0  0
    8.6288  -15.6155   25.9001 O   0  0  0  0  0  0  0  0  0  0  0  0
    7.2972  -12.3514   25.6103 C   0  0  0  0  0  0  0  0  0  0  0  0
    7.1582  -11.7454   26.8365 C   0  0  0  0  0  0  0  0  0  0  0  0
    9.3116  -19.4710   24.9514 C   0  0  0  0  0  0  0  0  0  0  0  0
    9.6768  -18.0397   25.3051 C   0  0  2  0  0  0  0  0  0  0  0  0
    9.2188  -17.1175   24.2871 N   0  0  0  0  0  0  0  0  0  0  0  0
   11.1455  -17.9234   25.5249 C   0  0  0  0  0  0  0  0  0  0  0  0
   11.7641  -18.6286   26.5431 O   0  0  0  0  0  0  0  0  0  0  0  0
   11.8721  -17.1904   24.8044 O   0  0  0  0  0  0  0  0  0  0  0  0
  2  1  1  6
  2  3  1  0
  4  2  1  0
  4  5  1  0
  5  6  1  1
  7  5  1  0
  7  8  2  0
  9 10  1  0
 10 11  2  0
 11 12  1  0
 13 12  2  0
 13 14  1  0
 15 14  1  1
 15 16  1  0
 16  7  1  0
 17 15  1  0
 18 17  2  0
 19 13  1  0
 20 10  1  0
 20 19  2  0
 22 21  1  6
 22 23  1  0
 23 17  1  0
 24 22  1  0
 25 24  1  0
 26 24  2  0
M  END
$$$$
