LYA.pdb
     RDKit          3D

 26 26  0  0  1  0  0  0  0  0999 V2000
    7.1344  -12.2922   19.2586 C   0  0  0  0  0  0  0  0  0  0  0  0
    7.6477  -13.6971   19.4486 C   0  0  1  0  0  0  0  0  0  0  0  0
    7.6448  -14.3963   18.1281 C   0  0  0  0  0  0  0  0  0  0  0  0
    9.0048  -13.7217   20.1300 C   0  0  0  0  0  0  0  0  0  0  0  0
    9.1671  -15.0887   20.7534 C   0  0  2  0  0  0  0  0  0  0  0  0
    7.8833  -15.7264   20.7663 N   0  0  0  0  0  0  0  0  0  0  0  0
    9.7978  -15.0266   22.0848 C   0  0  0  0  0  0  0  0  0  0  0  0
   10.9243  -14.4899   22.1966 O   0  0  0  0  0  0  0  0  0  0  0  0
   11.0092  -15.1319   30.8036 O   0  0  0  0  0  0  0  0  0  0  0  0
   10.4684  -15.2255   29.5125 C   0  0  0  0  0  0  0  0  0  0  0  0
   10.0276  -16.4441   29.0394 C   0  0  0  0  0  0  0  0  0  0  0  0
    9.5005  -16.4699   27.7477 C   0  0  0  0  0  0  0  0  0  0  0  0
    9.4177  -15.3366   26.9676 C   0  0  0  0  0  0  0  0  0  0  0  0
    8.8533  -15.3961   25.5948 C   0  0  0  0  0  0  0  0  0  0  0  0
    9.8731  -15.5131   24.5148 C   0  0  2  0  0  0  0  0  0  0  0  0
    9.1818  -15.5496   23.2442 N   0  0  0  0  0  0  0  0  0  0  0  0
   10.7442  -16.6982   24.5965 C   0  0  0  0  0  0  0  0  0  0  0  0
   11.6806  -16.6496   25.4403 O   0  0  0  0  0  0  0  0  0  0  0  0
    9.8793  -14.1482   27.5078 C   0  0  0  0  0  0  0  0  0  0  0  0
   10.4086  -14.0604   28.7735 C   0  0  0  0  0  0  0  0  0  0  0  0
   12.7903  -18.7745   23.1791 C   0  0  0  0  0  0  0  0  0  0  0  0
   11.5404  -18.9510   24.0240 C   0  0  2  0  0  0  0  0  0  0  0  0
   10.6153  -17.8555   23.8226 N   0  0  0  0  0  0  0  0  0  0  0  0
   11.9076  -19.0972   25.4603 C   0  0  0  0  0  0  0  0  0  0  0  0
   11.3367  -18.2799   26.4208 O   0  0  0  0  0  0  0  0  0  0  0  0
   12.7391  -19.9571   25.8523 O   0  0  0  0  0  0  0  0  0  0  0  0
  2  1  1  6
  2  3  1  0
  4  2  1  0
  4  5  1  0
  5  6  1  1
  7  5  1  0
  7  8  2  0
  9 10  1  0
 10 11  2  0
 11 12  1  0
 13 12  2  0
 13 14  1  0
 15 14  1  1
 15 16  1  0
 16  7  1  0
 17 15  1  0
 18 17  2  0
 19 13  1  0
 20 10  1  0
 20 19  2  0
 22 21  1  6
 22 23  1  0
 23 17  1  0
 24 22  1  0
 25 24  1  0
 26 24  2  0
M  END
$$$$
