NEM.pdb
     RDKit          3D

 26 25  0  0  1  0  0  0  0  0999 V2000
   16.8696  -14.2417  -16.6920 N   0  0  0  0  0  0  0  0  0  0  0  0
   17.9756  -14.0018  -15.8264 C   0  0  0  0  0  0  0  0  0  0  0  0
   18.2399  -14.8413  -14.9434 O   0  0  0  0  0  0  0  0  0  0  0  0
   18.7691  -12.7682  -16.0092 C   0  0  0  0  0  0  0  0  0  0  0  0
   18.1774  -11.8798  -17.0724 C   0  0  2  0  0  0  0  0  0  0  0  0
   18.2666  -12.3979  -18.4077 N   0  0  0  0  0  0  0  0  0  0  0  0
   18.6737  -10.4953  -17.0344 C   0  0  0  0  0  0  0  0  0  0  0  0
   19.6641  -10.1927  -17.7502 O   0  0  0  0  0  0  0  0  0  0  0  0
   18.0838   -9.4868  -16.2283 N   0  0  0  0  0  0  0  0  0  0  0  0
   18.6008   -8.0899  -16.1976 C   0  0  1  0  0  0  0  0  0  0  0  0
   17.4893   -7.1995  -15.7173 C   0  0  0  0  0  0  0  0  0  0  0  0
   17.7828   -5.7607  -15.5709 C   0  0  0  0  0  0  0  0  0  0  0  0
   16.6260   -4.9247  -15.1598 C   0  0  0  0  0  0  0  0  0  0  0  0
   15.9878   -4.1916  -15.9433 O   0  0  0  0  0  0  0  0  0  0  0  0
   19.7896   -8.1341  -15.3412 C   0  0  0  0  0  0  0  0  0  0  0  0
   19.7878   -8.9284  -14.3358 O   0  0  0  0  0  0  0  0  0  0  0  0
   16.1990   -4.9349  -13.8311 O   0  0  0  0  0  0  0  0  0  0  0  0
   27.1572  -10.0203  -15.0886 C   0  0  0  0  0  0  0  0  0  0  0  0
   25.5503   -9.7025  -15.7691 S   0  0  0  0  0  0  0  0  0  0  0  0
   24.4706   -8.6377  -14.8357 C   0  0  0  0  0  0  0  0  0  0  0  0
   23.1204   -8.4660  -15.4442 C   0  0  0  0  0  0  0  0  0  0  0  0
   22.1717   -7.5637  -14.7510 C   0  0  2  0  0  0  0  0  0  0  0  0
   20.9383   -7.3779  -15.5276 N   0  0  0  0  0  0  0  0  0  0  0  0
   22.7623   -6.1844  -14.6843 C   0  0  0  0  0  0  0  0  0  0  0  0
   23.6188   -5.7733  -13.6915 O   0  0  0  0  0  0  0  0  0  0  0  0
   22.4574   -5.3677  -15.5815 O   0  0  0  0  0  0  0  0  0  0  0  0
  2  1  1  0
  3  2  2  0
  4  2  1  0
  4  5  1  0
  5  7  1  0
  5  6  1  6
  7  8  2  0
  9  7  1  0
  9 10  1  0
 10 11  1  1
 11 12  1  0
 13 17  1  0
 13 12  1  0
 14 13  2  0
 15 10  1  0
 15 16  2  0
 18 19  1  0
 19 20  1  0
 20 21  1  0
 22 21  1  6
 22 23  1  0
 22 24  1  0
 23 15  1  0
 24 25  1  0
 26 24  2  0
M  END
$$$$
