NEM.pdb
     RDKit          3D

 26 25  0  0  1  0  0  0  0  0999 V2000
   14.5749  -12.7108  -12.4625 N   0  0  0  0  0  0  0  0  0  0  0  0
   14.0017  -12.3058  -11.2226 C   0  0  0  0  0  0  0  0  0  0  0  0
   12.9063  -12.7928  -10.8802 O   0  0  0  0  0  0  0  0  0  0  0  0
   14.7282  -11.3255  -10.3882 C   0  0  0  0  0  0  0  0  0  0  0  0
   16.0822  -11.0016  -10.9637 C   0  0  2  0  0  0  0  0  0  0  0  0
   17.0107  -12.0958  -10.9704 N   0  0  0  0  0  0  0  0  0  0  0  0
   16.7107   -9.8105  -10.3715 C   0  0  0  0  0  0  0  0  0  0  0  0
   17.1761   -9.8946   -9.2048 O   0  0  0  0  0  0  0  0  0  0  0  0
   16.8167   -8.5728  -11.0584 N   0  0  0  0  0  0  0  0  0  0  0  0
   17.5307   -7.4006  -10.4790 C   0  0  1  0  0  0  0  0  0  0  0  0
   18.6789   -7.0665  -11.3895 C   0  0  0  0  0  0  0  0  0  0  0  0
   19.4873   -5.8769  -11.0593 C   0  0  0  0  0  0  0  0  0  0  0  0
   20.6182   -5.6121  -11.9852 C   0  0  0  0  0  0  0  0  0  0  0  0
   21.2189   -6.5048  -12.6183 O   0  0  0  0  0  0  0  0  0  0  0  0
   16.5121   -6.3561  -10.3374 C   0  0  0  0  0  0  0  0  0  0  0  0
   15.7815   -6.0752  -11.3519 O   0  0  0  0  0  0  0  0  0  0  0  0
   21.0606   -4.3035  -12.1849 O   0  0  0  0  0  0  0  0  0  0  0  0
   12.3999   -1.8770   -5.1075 C   0  0  0  0  0  0  0  0  0  0  0  0
   13.3796   -3.2684   -5.6075 S   0  0  0  0  0  0  0  0  0  0  0  0
   13.8225   -3.3715   -7.3291 C   0  0  0  0  0  0  0  0  0  0  0  0
   14.7287   -4.5110   -7.6508 C   0  0  0  0  0  0  0  0  0  0  0  0
   15.1883   -4.6394   -9.0532 C   0  0  2  0  0  0  0  0  0  0  0  0
   16.2645   -5.6318   -9.1797 N   0  0  0  0  0  0  0  0  0  0  0  0
   15.8371   -3.3537   -9.4793 C   0  0  0  0  0  0  0  0  0  0  0  0
   15.1605   -2.3329  -10.1027 O   0  0  0  0  0  0  0  0  0  0  0  0
   17.0586   -3.2056   -9.2535 O   0  0  0  0  0  0  0  0  0  0  0  0
  2  1  1  0
  3  2  2  0
  4  2  1  0
  4  5  1  0
  5  7  1  0
  5  6  1  1
  7  8  2  0
  9  7  1  0
  9 10  1  0
 10 11  1  6
 11 12  1  0
 13 17  1  0
 13 12  1  0
 14 13  2  0
 15 10  1  0
 15 16  2  0
 18 19  1  0
 19 20  1  0
 20 21  1  0
 22 21  1  1
 22 23  1  0
 22 24  1  0
 23 15  1  0
 24 25  1  0
 26 24  2  0
M  END
$$$$
