NEM.pdb
     RDKit          3D

 26 25  0  0  1  0  0  0  0  0999 V2000
   14.8039  -11.4213  -14.9384 N   0  0  0  0  0  0  0  0  0  0  0  0
   14.9129  -10.4313  -15.9572 C   0  0  0  0  0  0  0  0  0  0  0  0
   14.7299  -10.7681  -17.1436 O   0  0  0  0  0  0  0  0  0  0  0  0
   15.2365   -9.0422  -15.5692 C   0  0  0  0  0  0  0  0  0  0  0  0
   15.2990   -8.8839  -14.0724 C   0  0  2  0  0  0  0  0  0  0  0  0
   14.0294   -8.9499  -13.4066 N   0  0  0  0  0  0  0  0  0  0  0  0
   16.0385   -7.6911  -13.6308 C   0  0  0  0  0  0  0  0  0  0  0  0
   15.7735   -6.5859  -14.1722 O   0  0  0  0  0  0  0  0  0  0  0  0
   17.0350   -7.7320  -12.6207 N   0  0  0  0  0  0  0  0  0  0  0  0
   17.7722   -6.5142  -12.1814 C   0  0  1  0  0  0  0  0  0  0  0  0
   17.6120   -6.3930  -10.6919 C   0  0  0  0  0  0  0  0  0  0  0  0
   16.5232   -5.5322  -10.1908 C   0  0  0  0  0  0  0  0  0  0  0  0
   16.3159   -5.5773   -8.7207 C   0  0  0  0  0  0  0  0  0  0  0  0
   16.9344   -6.3473   -7.9571 O   0  0  0  0  0  0  0  0  0  0  0  0
   19.1466   -6.6994  -12.6559 C   0  0  0  0  0  0  0  0  0  0  0  0
   19.5648   -7.8928  -12.8626 O   0  0  0  0  0  0  0  0  0  0  0  0
   15.3863   -4.7243   -8.1238 O   0  0  0  0  0  0  0  0  0  0  0  0
   23.8235   -8.1368  -17.9647 C   0  0  0  0  0  0  0  0  0  0  0  0
   22.3871   -7.9040  -16.9504 S   0  0  0  0  0  0  0  0  0  0  0  0
   22.5663   -6.8610  -15.5184 C   0  0  0  0  0  0  0  0  0  0  0  0
   21.3003   -6.6613  -14.7564 C   0  0  0  0  0  0  0  0  0  0  0  0
   21.3808   -5.8904  -13.4939 C   0  0  2  0  0  0  0  0  0  0  0  0
   20.0512   -5.6771  -12.9062 N   0  0  0  0  0  0  0  0  0  0  0  0
   21.8649   -4.5009  -13.7945 C   0  0  0  0  0  0  0  0  0  0  0  0
   23.1923   -4.1454  -13.8030 O   0  0  0  0  0  0  0  0  0  0  0  0
   21.0130   -3.6215  -14.0511 O   0  0  0  0  0  0  0  0  0  0  0  0
  2  1  1  0
  3  2  2  0
  4  2  1  0
  4  5  1  0
  5  7  1  0
  5  6  1  6
  7  8  2  0
  9  7  1  0
  9 10  1  0
 10 11  1  1
 11 12  1  0
 13 17  1  0
 13 12  1  0
 14 13  2  0
 15 10  1  0
 15 16  2  0
 18 19  1  0
 19 20  1  0
 20 21  1  0
 22 21  1  6
 22 23  1  0
 22 24  1  0
 23 15  1  0
 24 25  1  0
 26 24  2  0
M  END
$$$$
