NEM.pdb
     RDKit          3D

 26 25  0  0  1  0  0  0  0  0999 V2000
   17.3523  -10.3197  -17.6750 N   0  0  0  0  0  0  0  0  0  0  0  0
   16.2145   -9.8726  -16.9432 C   0  0  0  0  0  0  0  0  0  0  0  0
   15.1714   -9.5939  -17.5665 O   0  0  0  0  0  0  0  0  0  0  0  0
   16.3130   -9.7582  -15.4728 C   0  0  0  0  0  0  0  0  0  0  0  0
   17.6809  -10.1474  -14.9758 C   0  0  2  0  0  0  0  0  0  0  0  0
   18.0141  -11.5321  -15.1529 N   0  0  0  0  0  0  0  0  0  0  0  0
   17.9483   -9.7380  -13.5882 C   0  0  0  0  0  0  0  0  0  0  0  0
   17.5730  -10.4958  -12.6557 O   0  0  0  0  0  0  0  0  0  0  0  0
   18.6120   -8.5280  -13.2559 N   0  0  0  0  0  0  0  0  0  0  0  0
   18.8857   -8.1327  -11.8458 C   0  0  1  0  0  0  0  0  0  0  0  0
   20.1349   -7.2970  -11.8376 C   0  0  0  0  0  0  0  0  0  0  0  0
   20.0655   -5.9606  -12.4594 C   0  0  0  0  0  0  0  0  0  0  0  0
   21.3215   -5.1708  -12.3873 C   0  0  0  0  0  0  0  0  0  0  0  0
   22.3463   -5.5524  -11.7850 O   0  0  0  0  0  0  0  0  0  0  0  0
   17.6691   -7.4547  -11.3890 C   0  0  0  0  0  0  0  0  0  0  0  0
   16.9683   -6.8141  -12.2494 O   0  0  0  0  0  0  0  0  0  0  0  0
   21.3976   -3.9279  -13.0178 O   0  0  0  0  0  0  0  0  0  0  0  0
   11.4941   -7.4581   -6.4365 C   0  0  0  0  0  0  0  0  0  0  0  0
   12.9305   -8.1191   -7.2402 S   0  0  0  0  0  0  0  0  0  0  0  0
   13.9111   -6.9894   -8.2060 C   0  0  0  0  0  0  0  0  0  0  0  0
   15.1337   -7.6058   -8.7963 C   0  0  0  0  0  0  0  0  0  0  0  0
   15.9789   -6.7481   -9.6592 C   0  0  2  0  0  0  0  0  0  0  0  0
   17.2006   -7.4459  -10.0827 N   0  0  0  0  0  0  0  0  0  0  0  0
   16.4915   -5.5896   -8.8524 C   0  0  0  0  0  0  0  0  0  0  0  0
   17.8134   -5.4266   -8.5143 O   0  0  0  0  0  0  0  0  0  0  0  0
   15.6698   -4.7278   -8.4689 O   0  0  0  0  0  0  0  0  0  0  0  0
  2  1  1  0
  3  2  2  0
  4  2  1  0
  4  5  1  0
  5  7  1  0
  5  6  1  1
  7  8  2  0
  9  7  1  0
  9 10  1  0
 10 11  1  6
 11 12  1  0
 13 17  1  0
 13 12  1  0
 14 13  2  0
 15 10  1  0
 15 16  2  0
 18 19  1  0
 19 20  1  0
 20 21  1  0
 22 21  1  1
 22 23  1  0
 22 24  1  0
 23 15  1  0
 24 25  1  0
 26 24  2  0
M  END
$$$$
