NEM.pdb
     RDKit          3D

 26 25  0  0  1  0  0  0  0  0999 V2000
   11.6739   -9.7201   -9.7667 N   0  0  0  0  0  0  0  0  0  0  0  0
   12.8833   -9.1866   -9.2350 C   0  0  0  0  0  0  0  0  0  0  0  0
   12.9571   -8.9730   -8.0089 O   0  0  0  0  0  0  0  0  0  0  0  0
   14.0052   -8.9088  -10.1564 C   0  0  0  0  0  0  0  0  0  0  0  0
   13.6492   -9.2427  -11.5816 C   0  0  2  0  0  0  0  0  0  0  0  0
   13.3466  -10.6255  -11.8181 N   0  0  0  0  0  0  0  0  0  0  0  0
   14.6317   -8.7659  -12.5674 C   0  0  0  0  0  0  0  0  0  0  0  0
   15.2990   -9.6178  -13.2105 O   0  0  0  0  0  0  0  0  0  0  0  0
   14.8580   -7.3885  -12.8259 N   0  0  0  0  0  0  0  0  0  0  0  0
   15.7412   -6.9218  -13.9312 C   0  0  1  0  0  0  0  0  0  0  0  0
   15.3519   -5.5087  -14.2641 C   0  0  0  0  0  0  0  0  0  0  0  0
   14.0943   -5.3052  -15.0088 C   0  0  0  0  0  0  0  0  0  0  0  0
   13.7477   -3.8857  -15.2755 C   0  0  0  0  0  0  0  0  0  0  0  0
   12.5780   -3.4497  -15.2939 O   0  0  0  0  0  0  0  0  0  0  0  0
   17.1096   -7.1003  -13.4371 C   0  0  0  0  0  0  0  0  0  0  0  0
   17.3063   -7.0963  -12.1710 O   0  0  0  0  0  0  0  0  0  0  0  0
   14.7609   -2.9580  -15.5223 O   0  0  0  0  0  0  0  0  0  0  0  0
   23.4092  -10.1372  -11.6031 C   0  0  0  0  0  0  0  0  0  0  0  0
   21.7370   -9.8782  -12.1349 S   0  0  0  0  0  0  0  0  0  0  0  0
   21.5007   -9.1773  -13.7547 C   0  0  0  0  0  0  0  0  0  0  0  0
   20.0785   -8.8630  -14.0733 C   0  0  0  0  0  0  0  0  0  0  0  0
   19.5801   -7.5178  -13.7036 C   0  0  2  0  0  0  0  0  0  0  0  0
   18.2314   -7.2772  -14.2349 N   0  0  0  0  0  0  0  0  0  0  0  0
   20.4220   -6.4760  -14.3828 C   0  0  0  0  0  0  0  0  0  0  0  0
   21.5775   -5.9644  -13.8430 O   0  0  0  0  0  0  0  0  0  0  0  0
   20.0502   -6.0528  -15.4998 O   0  0  0  0  0  0  0  0  0  0  0  0
  2  1  1  0
  3  2  2  0
  4  2  1  0
  4  5  1  0
  5  7  1  0
  5  6  1  1
  7  8  2  0
  9  7  1  0
  9 10  1  0
 10 11  1  1
 11 12  1  0
 13 17  1  0
 13 12  1  0
 14 13  2  0
 15 10  1  0
 15 16  2  0
 18 19  1  0
 19 20  1  0
 20 21  1  0
 22 21  1  6
 22 23  1  0
 22 24  1  0
 23 15  1  0
 24 25  1  0
 26 24  2  0
M  END
$$$$
