NEM.pdb
     RDKit          3D

 26 25  0  0  1  0  0  0  0  0999 V2000
   25.3004  -27.5714  -16.7931 N   0  0  0  0  0  0  0  0  0  0  0  0
   25.7170  -26.2090  -16.7830 C   0  0  0  0  0  0  0  0  0  0  0  0
   26.9316  -25.9536  -16.6659 O   0  0  0  0  0  0  0  0  0  0  0  0
   24.6940  -25.1501  -16.9139 C   0  0  0  0  0  0  0  0  0  0  0  0
   24.7211  -24.2037  -15.7421 C   0  0  2  0  0  0  0  0  0  0  0  0
   24.8601  -24.8358  -14.4612 N   0  0  0  0  0  0  0  0  0  0  0  0
   23.5963  -23.2557  -15.7171 C   0  0  0  0  0  0  0  0  0  0  0  0
   23.2820  -22.6687  -16.7854 O   0  0  0  0  0  0  0  0  0  0  0  0
   22.8499  -22.9760  -14.5425 N   0  0  0  0  0  0  0  0  0  0  0  0
   21.7239  -22.0006  -14.5295 C   0  0  1  0  0  0  0  0  0  0  0  0
   20.6254  -22.5790  -13.6823 C   0  0  0  0  0  0  0  0  0  0  0  0
   19.4360  -21.7394  -13.4412 C   0  0  0  0  0  0  0  0  0  0  0  0
   18.3485  -22.4000  -12.6750 C   0  0  0  0  0  0  0  0  0  0  0  0
   17.3053  -21.8187  -12.3113 O   0  0  0  0  0  0  0  0  0  0  0  0
   22.3027  -20.7451  -14.0425 C   0  0  0  0  0  0  0  0  0  0  0  0
   23.0924  -20.7881  -13.0344 O   0  0  0  0  0  0  0  0  0  0  0  0
   18.4640  -23.7464  -12.3255 O   0  0  0  0  0  0  0  0  0  0  0  0
   28.2545  -17.6023  -16.5525 C   0  0  0  0  0  0  0  0  0  0  0  0
   26.9433  -18.7056  -16.0944 S   0  0  0  0  0  0  0  0  0  0  0  0
   25.4419  -17.9702  -15.4815 C   0  0  0  0  0  0  0  0  0  0  0  0
   24.3868  -18.9620  -15.1261 C   0  0  0  0  0  0  0  0  0  0  0  0
   23.0821  -18.4318  -14.6665 C   0  0  2  0  0  0  0  0  0  0  0  0
   22.0667  -19.4908  -14.5878 N   0  0  0  0  0  0  0  0  0  0  0  0
   22.5381  -17.4927  -15.7047 C   0  0  0  0  0  0  0  0  0  0  0  0
   21.4633  -17.7900  -16.5077 O   0  0  0  0  0  0  0  0  0  0  0  0
   23.0941  -16.3807  -15.8442 O   0  0  0  0  0  0  0  0  0  0  0  0
  2  1  1  0
  3  2  2  0
  4  2  1  0
  4  5  1  0
  5  7  1  0
  5  6  1  1
  7  8  2  0
  9  7  1  0
  9 10  1  0
 10 11  1  1
 11 12  1  0
 13 17  1  0
 13 12  1  0
 14 13  2  0
 15 10  1  0
 15 16  2  0
 18 19  1  0
 19 20  1  0
 20 21  1  0
 22 21  1  6
 22 23  1  0
 22 24  1  0
 23 15  1  0
 24 25  1  0
 26 24  2  0
M  END
$$$$
