NEM.pdb
     RDKit          3D

 26 25  0  0  1  0  0  0  0  0999 V2000
   19.6036  -14.6258  -16.0596 N   0  0  0  0  0  0  0  0  0  0  0  0
   19.4834  -14.2160  -17.4189 C   0  0  0  0  0  0  0  0  0  0  0  0
   19.5028  -15.0856  -18.3119 O   0  0  0  0  0  0  0  0  0  0  0  0
   19.3379  -12.7759  -17.7187 C   0  0  0  0  0  0  0  0  0  0  0  0
   19.3788  -11.9408  -16.4655 C   0  0  2  0  0  0  0  0  0  0  0  0
   18.2584  -12.1192  -15.5866 N   0  0  0  0  0  0  0  0  0  0  0  0
   19.6026  -10.5078  -16.7127 C   0  0  0  0  0  0  0  0  0  0  0  0
   18.9326   -9.9426  -17.6162 O   0  0  0  0  0  0  0  0  0  0  0  0
   20.5386   -9.7356  -15.9762 N   0  0  0  0  0  0  0  0  0  0  0  0
   20.7330   -8.2786  -16.2188 C   0  0  1  0  0  0  0  0  0  0  0  0
   21.2402   -7.6646  -14.9441 C   0  0  0  0  0  0  0  0  0  0  0  0
   21.6033   -6.2346  -14.9732 C   0  0  0  0  0  0  0  0  0  0  0  0
   22.0779   -5.6831  -13.6782 C   0  0  0  0  0  0  0  0  0  0  0  0
   21.6492   -6.0573  -12.5670 O   0  0  0  0  0  0  0  0  0  0  0  0
   21.6413   -8.1933  -17.3661 C   0  0  0  0  0  0  0  0  0  0  0  0
   22.6037   -9.0354  -17.4459 O   0  0  0  0  0  0  0  0  0  0  0  0
   23.0587   -4.6901  -13.6639 O   0  0  0  0  0  0  0  0  0  0  0  0
   21.2164  -10.9308  -23.2811 C   0  0  0  0  0  0  0  0  0  0  0  0
   21.7110   -9.2951  -22.8056 S   0  0  0  0  0  0  0  0  0  0  0  0
   21.3394   -8.7878  -21.1397 C   0  0  0  0  0  0  0  0  0  0  0  0
   21.7922   -7.4046  -20.8161 C   0  0  0  0  0  0  0  0  0  0  0  0
   22.4853   -7.2009  -19.5228 C   0  0  2  0  0  0  0  0  0  0  0  0
   21.5484   -7.2640  -18.3927 N   0  0  0  0  0  0  0  0  0  0  0  0
   23.0198   -5.7986  -19.4650 C   0  0  0  0  0  0  0  0  0  0  0  0
   24.3490   -5.4865  -19.6202 O   0  0  0  0  0  0  0  0  0  0  0  0
   22.2102   -4.8660  -19.2654 O   0  0  0  0  0  0  0  0  0  0  0  0
  2  1  1  0
  3  2  2  0
  4  2  1  0
  4  5  1  0
  5  7  1  0
  5  6  1  6
  7  8  2  0
  9  7  1  0
  9 10  1  0
 10 11  1  1
 11 12  1  0
 13 17  1  0
 13 12  1  0
 14 13  2  0
 15 10  1  0
 15 16  2  0
 18 19  1  0
 19 20  1  0
 20 21  1  0
 22 21  1  6
 22 23  1  0
 22 24  1  0
 23 15  1  0
 24 25  1  0
 26 24  2  0
M  END
$$$$
