NEM.pdb
     RDKit          3D

 26 25  0  0  1  0  0  0  0  0999 V2000
   14.3286  -12.0150  -16.2655 N   0  0  0  0  0  0  0  0  0  0  0  0
   15.2799  -10.9791  -16.0373 C   0  0  0  0  0  0  0  0  0  0  0  0
   15.6503  -10.2812  -17.0016 O   0  0  0  0  0  0  0  0  0  0  0  0
   15.7898  -10.7695  -14.6658 C   0  0  0  0  0  0  0  0  0  0  0  0
   17.2857  -10.5917  -14.6506 C   0  0  2  0  0  0  0  0  0  0  0  0
   18.0368  -11.7924  -14.8819 N   0  0  0  0  0  0  0  0  0  0  0  0
   17.7907   -9.9040  -13.4520 C   0  0  0  0  0  0  0  0  0  0  0  0
   17.7524  -10.5118  -12.3502 O   0  0  0  0  0  0  0  0  0  0  0  0
   18.3203   -8.5874  -13.4844 N   0  0  0  0  0  0  0  0  0  0  0  0
   18.7647   -7.8787  -12.2516 C   0  0  1  0  0  0  0  0  0  0  0  0
   19.8940   -6.9623  -12.6307 C   0  0  0  0  0  0  0  0  0  0  0  0
   20.3923   -6.0313  -11.5999 C   0  0  0  0  0  0  0  0  0  0  0  0
   21.5308   -5.1776  -12.0255 C   0  0  0  0  0  0  0  0  0  0  0  0
   22.7280   -5.4663  -11.8204 O   0  0  0  0  0  0  0  0  0  0  0  0
   17.5646   -7.2194  -11.7283 C   0  0  0  0  0  0  0  0  0  0  0  0
   16.7845   -6.6275  -12.5546 O   0  0  0  0  0  0  0  0  0  0  0  0
   21.2868   -3.9782  -12.6965 O   0  0  0  0  0  0  0  0  0  0  0  0
   12.0878   -7.0921   -5.9404 C   0  0  0  0  0  0  0  0  0  0  0  0
   13.4979   -7.7253   -6.8105 S   0  0  0  0  0  0  0  0  0  0  0  0
   14.1884   -6.6990   -8.0912 C   0  0  0  0  0  0  0  0  0  0  0  0
   15.3779   -7.2947   -8.7646 C   0  0  0  0  0  0  0  0  0  0  0  0
   15.9548   -6.5513   -9.9088 C   0  0  2  0  0  0  0  0  0  0  0  0
   17.1920   -7.1797  -10.3920 N   0  0  0  0  0  0  0  0  0  0  0  0
   16.4024   -5.1960   -9.4412 C   0  0  0  0  0  0  0  0  0  0  0  0
   17.7221   -4.8416   -9.2954 O   0  0  0  0  0  0  0  0  0  0  0  0
   15.5257   -4.3456   -9.1708 O   0  0  0  0  0  0  0  0  0  0  0  0
  2  1  1  0
  3  2  2  0
  4  2  1  0
  4  5  1  0
  5  7  1  0
  5  6  1  1
  7  8  2  0
  9  7  1  0
  9 10  1  0
 10 11  1  6
 11 12  1  0
 13 17  1  0
 13 12  1  0
 14 13  2  0
 15 10  1  0
 15 16  2  0
 18 19  1  0
 19 20  1  0
 20 21  1  0
 22 21  1  1
 22 23  1  0
 22 24  1  0
 23 15  1  0
 24 25  1  0
 26 24  2  0
M  END
$$$$
