NEM.pdb
     RDKit          3D

 26 25  0  0  1  0  0  0  0  0999 V2000
   17.1869  -11.0876  -17.8289 N   0  0  0  0  0  0  0  0  0  0  0  0
   16.1103  -11.1036  -16.8957 C   0  0  0  0  0  0  0  0  0  0  0  0
   14.9459  -11.2233  -17.3248 O   0  0  0  0  0  0  0  0  0  0  0  0
   16.4146  -10.9798  -15.4546 C   0  0  0  0  0  0  0  0  0  0  0  0
   17.8890  -10.7863  -15.2129 C   0  0  2  0  0  0  0  0  0  0  0  0
   18.6611  -11.9960  -15.2037 N   0  0  0  0  0  0  0  0  0  0  0  0
   18.1956   -9.9834  -14.0188 C   0  0  0  0  0  0  0  0  0  0  0  0
   17.9950  -10.4925  -12.8852 O   0  0  0  0  0  0  0  0  0  0  0  0
   18.7090   -8.6618  -14.0896 N   0  0  0  0  0  0  0  0  0  0  0  0
   19.1330   -7.9077  -12.8768 C   0  0  1  0  0  0  0  0  0  0  0  0
   20.1996   -6.9333  -13.2916 C   0  0  0  0  0  0  0  0  0  0  0  0
   20.6728   -5.9687  -12.2802 C   0  0  0  0  0  0  0  0  0  0  0  0
   21.7303   -5.0375  -12.7501 C   0  0  0  0  0  0  0  0  0  0  0  0
   22.7697   -5.4074  -13.3344 O   0  0  0  0  0  0  0  0  0  0  0  0
   17.9059   -7.3108  -12.3414 C   0  0  0  0  0  0  0  0  0  0  0  0
   17.0159   -6.9018  -13.1675 O   0  0  0  0  0  0  0  0  0  0  0  0
   21.5874   -3.6642  -12.5458 O   0  0  0  0  0  0  0  0  0  0  0  0
   12.5738   -7.3139   -6.4805 C   0  0  0  0  0  0  0  0  0  0  0  0
   14.1353   -7.7274   -7.2132 S   0  0  0  0  0  0  0  0  0  0  0  0
   14.6323   -6.7922   -8.6446 C   0  0  0  0  0  0  0  0  0  0  0  0
   15.8643   -7.3109   -9.3051 C   0  0  0  0  0  0  0  0  0  0  0  0
   16.3604   -6.5762  -10.4920 C   0  0  2  0  0  0  0  0  0  0  0  0
   17.6178   -7.1474  -10.9937 N   0  0  0  0  0  0  0  0  0  0  0  0
   16.7397   -5.1811  -10.0855 C   0  0  0  0  0  0  0  0  0  0  0  0
   15.8245   -4.1801   -9.8644 O   0  0  0  0  0  0  0  0  0  0  0  0
   17.9541   -4.9180   -9.9404 O   0  0  0  0  0  0  0  0  0  0  0  0
  2  1  1  0
  3  2  2  0
  4  2  1  0
  4  5  1  0
  5  7  1  0
  5  6  1  1
  7  8  2  0
  9  7  1  0
  9 10  1  0
 10 11  1  6
 11 12  1  0
 13 17  1  0
 13 12  1  0
 14 13  2  0
 15 10  1  0
 15 16  2  0
 18 19  1  0
 19 20  1  0
 20 21  1  0
 22 21  1  1
 22 23  1  0
 22 24  1  0
 23 15  1  0
 24 25  1  0
 26 24  2  0
M  END
$$$$
