NEM.pdb
     RDKit          3D

 26 25  0  0  1  0  0  0  0  0999 V2000
   14.0600   -8.9474  -18.2646 N   0  0  0  0  0  0  0  0  0  0  0  0
   14.1227   -7.8086  -17.4106 C   0  0  0  0  0  0  0  0  0  0  0  0
   13.2264   -6.9461  -17.4935 O   0  0  0  0  0  0  0  0  0  0  0  0
   15.2465   -7.6939  -16.4573 C   0  0  0  0  0  0  0  0  0  0  0  0
   16.1760   -8.8758  -16.5497 C   0  0  2  0  0  0  0  0  0  0  0  0
   15.6893  -10.0743  -15.9282 N   0  0  0  0  0  0  0  0  0  0  0  0
   17.5459   -8.5922  -16.0942 C   0  0  0  0  0  0  0  0  0  0  0  0
   17.7496   -8.4426  -14.8609 O   0  0  0  0  0  0  0  0  0  0  0  0
   18.6467   -8.4819  -16.9836 N   0  0  0  0  0  0  0  0  0  0  0  0
   20.0406   -8.2722  -16.5013 C   0  0  1  0  0  0  0  0  0  0  0  0
   20.9480   -9.1381  -17.3293 C   0  0  0  0  0  0  0  0  0  0  0  0
   22.4025   -8.9877  -17.1305 C   0  0  0  0  0  0  0  0  0  0  0  0
   23.2451   -9.8508  -17.9973 C   0  0  0  0  0  0  0  0  0  0  0  0
   22.7830  -10.6799  -18.8084 O   0  0  0  0  0  0  0  0  0  0  0  0
   20.2753   -6.8291  -16.6065 C   0  0  0  0  0  0  0  0  0  0  0  0
   19.8913   -6.2246  -17.6691 O   0  0  0  0  0  0  0  0  0  0  0  0
   24.6360   -9.7562  -17.9297 O   0  0  0  0  0  0  0  0  0  0  0  0
   18.7321    0.3704  -15.6494 C   0  0  0  0  0  0  0  0  0  0  0  0
   18.6186   -1.3989  -15.7065 S   0  0  0  0  0  0  0  0  0  0  0  0
   20.1479   -2.3106  -15.6843 C   0  0  0  0  0  0  0  0  0  0  0  0
   19.9694   -3.7886  -15.7655 C   0  0  0  0  0  0  0  0  0  0  0  0
   21.1945   -4.6198  -15.8176 C   0  0  2  0  0  0  0  0  0  0  0  0
   20.8874   -6.0454  -15.6384 N   0  0  0  0  0  0  0  0  0  0  0  0
   22.0640   -4.2913  -14.6379 C   0  0  0  0  0  0  0  0  0  0  0  0
   22.7346   -3.1000  -14.4983 O   0  0  0  0  0  0  0  0  0  0  0  0
   22.1825   -5.1489  -13.7349 O   0  0  0  0  0  0  0  0  0  0  0  0
  2  1  1  0
  3  2  2  0
  4  2  1  0
  4  5  1  0
  5  7  1  0
  5  6  1  1
  7  8  2  0
  9  7  1  0
  9 10  1  0
 10 11  1  6
 11 12  1  0
 13 17  1  0
 13 12  1  0
 14 13  2  0
 15 10  1  0
 15 16  2  0
 18 19  1  0
 19 20  1  0
 20 21  1  0
 22 21  1  1
 22 23  1  0
 22 24  1  0
 23 15  1  0
 24 25  1  0
 26 24  2  0
M  END
$$$$
