NEM.pdb
     RDKit          3D

 26 25  0  0  1  0  0  0  0  0999 V2000
   14.5223  -12.1398  -14.9032 N   0  0  0  0  0  0  0  0  0  0  0  0
   15.8220  -12.7050  -15.0497 C   0  0  0  0  0  0  0  0  0  0  0  0
   15.9611  -13.9355  -14.9058 O   0  0  0  0  0  0  0  0  0  0  0  0
   16.9556  -11.8117  -15.3688 C   0  0  0  0  0  0  0  0  0  0  0  0
   16.6952  -11.0078  -16.6160 C   0  0  2  0  0  0  0  0  0  0  0  0
   16.5920  -11.7816  -17.8202 N   0  0  0  0  0  0  0  0  0  0  0  0
   17.6350   -9.8929  -16.8120 C   0  0  0  0  0  0  0  0  0  0  0  0
   18.8629  -10.1040  -16.6319 O   0  0  0  0  0  0  0  0  0  0  0  0
   17.2179   -8.5918  -17.1968 N   0  0  0  0  0  0  0  0  0  0  0  0
   18.1825   -7.4737  -17.3942 C   0  0  1  0  0  0  0  0  0  0  0  0
   17.4509   -6.3513  -18.0755 C   0  0  0  0  0  0  0  0  0  0  0  0
   17.2066   -6.4772  -19.5253 C   0  0  0  0  0  0  0  0  0  0  0  0
   16.4351   -5.3608  -20.1292 C   0  0  0  0  0  0  0  0  0  0  0  0
   16.8855   -4.2053  -20.2729 O   0  0  0  0  0  0  0  0  0  0  0  0
   18.7034   -7.1692  -16.0584 C   0  0  0  0  0  0  0  0  0  0  0  0
   17.9548   -7.4004  -15.0445 O   0  0  0  0  0  0  0  0  0  0  0  0
   15.1302   -5.5790  -20.5739 O   0  0  0  0  0  0  0  0  0  0  0  0
   23.4076   -9.2956  -10.5997 C   0  0  0  0  0  0  0  0  0  0  0  0
   22.5879   -9.2440  -12.1718 S   0  0  0  0  0  0  0  0  0  0  0  0
   21.9024   -7.6804  -12.6778 C   0  0  0  0  0  0  0  0  0  0  0  0
   21.1639   -7.7370  -13.9718 C   0  0  0  0  0  0  0  0  0  0  0  0
   20.5080   -6.4922  -14.4355 C   0  0  2  0  0  0  0  0  0  0  0  0
   19.9596   -6.6436  -15.7902 N   0  0  0  0  0  0  0  0  0  0  0  0
   21.5444   -5.4161  -14.5885 C   0  0  0  0  0  0  0  0  0  0  0  0
   22.0989   -4.7408  -13.5279 O   0  0  0  0  0  0  0  0  0  0  0  0
   21.9222   -5.1204  -15.7438 O   0  0  0  0  0  0  0  0  0  0  0  0
  2  1  1  0
  3  2  2  0
  4  2  1  0
  4  5  1  0
  5  7  1  0
  5  6  1  6
  7  8  2  0
  9  7  1  0
  9 10  1  0
 10 11  1  1
 11 12  1  0
 13 17  1  0
 13 12  1  0
 14 13  2  0
 15 10  1  0
 15 16  2  0
 18 19  1  0
 19 20  1  0
 20 21  1  0
 22 21  1  6
 22 23  1  0
 22 24  1  0
 23 15  1  0
 24 25  1  0
 26 24  2  0
M  END
$$$$
