NEM.pdb
     RDKit          3D

 26 25  0  0  1  0  0  0  0  0999 V2000
   16.1035  -10.8334  -16.9270 N   0  0  0  0  0  0  0  0  0  0  0  0
   15.5237  -11.3778  -15.7448 C   0  0  0  0  0  0  0  0  0  0  0  0
   14.4201  -11.9518  -15.8270 O   0  0  0  0  0  0  0  0  0  0  0  0
   16.2533  -11.2433  -14.4663 C   0  0  0  0  0  0  0  0  0  0  0  0
   17.5752  -10.5450  -14.6520 C   0  0  2  0  0  0  0  0  0  0  0  0
   18.6431  -11.3890  -15.1066 N   0  0  0  0  0  0  0  0  0  0  0  0
   18.0089   -9.7710  -13.4784 C   0  0  0  0  0  0  0  0  0  0  0  0
   18.2189  -10.3839  -12.3991 O   0  0  0  0  0  0  0  0  0  0  0  0
   18.2025   -8.3651  -13.5109 N   0  0  0  0  0  0  0  0  0  0  0  0
   18.7467   -7.6105  -12.3474 C   0  0  1  0  0  0  0  0  0  0  0  0
   19.8187   -6.6892  -12.8585 C   0  0  0  0  0  0  0  0  0  0  0  0
   20.4504   -5.7736  -11.8888 C   0  0  0  0  0  0  0  0  0  0  0  0
   21.4963   -4.8851  -12.4570 C   0  0  0  0  0  0  0  0  0  0  0  0
   21.2912   -3.7006  -12.7938 O   0  0  0  0  0  0  0  0  0  0  0  0
   17.5888   -6.9534  -11.7342 C   0  0  0  0  0  0  0  0  0  0  0  0
   16.6835   -6.4714  -12.5022 O   0  0  0  0  0  0  0  0  0  0  0  0
   22.7939   -5.3668  -12.6374 O   0  0  0  0  0  0  0  0  0  0  0  0
   11.6953   -8.5727   -7.7753 C   0  0  0  0  0  0  0  0  0  0  0  0
   13.4268   -8.2054   -7.6601 S   0  0  0  0  0  0  0  0  0  0  0  0
   14.1135   -7.1363   -8.9074 C   0  0  0  0  0  0  0  0  0  0  0  0
   15.5707   -6.8705   -8.7371 C   0  0  0  0  0  0  0  0  0  0  0  0
   16.2451   -6.0774   -9.7911 C   0  0  2  0  0  0  0  0  0  0  0  0
   17.3826   -6.8055  -10.3697 N   0  0  0  0  0  0  0  0  0  0  0  0
   16.8769   -4.8656   -9.1683 C   0  0  0  0  0  0  0  0  0  0  0  0
   16.1577   -3.8001   -8.6826 O   0  0  0  0  0  0  0  0  0  0  0  0
   18.1247   -4.8259   -9.0877 O   0  0  0  0  0  0  0  0  0  0  0  0
  2  1  1  0
  3  2  2  0
  4  2  1  0
  4  5  1  0
  5  7  1  0
  5  6  1  1
  7  8  2  0
  9  7  1  0
  9 10  1  0
 10 11  1  6
 11 12  1  0
 13 17  1  0
 13 12  1  0
 14 13  2  0
 15 10  1  0
 15 16  2  0
 18 19  1  0
 19 20  1  0
 20 21  1  0
 22 21  1  1
 22 23  1  0
 22 24  1  0
 23 15  1  0
 24 25  1  0
 26 24  2  0
M  END
$$$$
