QHG.pdb
     RDKit          3D

 24 24  0  0  1  0  0  0  0  0999 V2000
   17.9956  -13.6221  -15.1799 N   0  0  0  0  0  0  0  0  0  0  0  0
   18.5814  -14.5769  -16.0369 C   0  0  0  0  0  0  0  0  0  0  0  0
   17.9370  -15.6386  -16.2322 O   0  0  0  0  0  0  0  0  0  0  0  0
   19.8960  -14.3758  -16.6972 C   0  0  0  0  0  0  0  0  0  0  0  0
   20.5007  -13.0929  -16.2367 C   0  0  0  0  0  0  0  0  0  0  0  0
   21.8515  -12.8279  -16.8451 C   0  0  2  0  0  0  0  0  0  0  0  0
   22.7962  -13.8703  -16.6204 N   0  0  0  0  0  0  0  0  0  0  0  0
   22.3822  -11.5726  -16.2620 C   0  0  0  0  0  0  0  0  0  0  0  0
   22.4923  -11.4493  -15.0168 O   0  0  0  0  0  0  0  0  0  0  0  0
   22.7875  -10.4637  -17.0499 N   0  0  0  0  0  0  0  0  0  0  0  0
   23.2857   -9.2213  -16.5114 C   0  0  1  0  0  0  0  0  0  0  0  0
   24.6661   -9.0033  -17.0914 C   0  0  0  0  0  0  0  0  0  0  0  0
   25.6630   -9.9237  -16.4867 C   0  0  0  0  0  0  0  0  0  0  0  0
   25.4222  -10.8640  -15.4871 C   0  0  0  0  0  0  0  0  0  0  0  0
   26.5734  -11.5094  -15.2002 N   0  0  0  0  0  0  0  0  0  0  0  0
   27.5072  -10.9850  -16.0004 C   0  0  0  0  0  0  0  0  0  0  0  0
   26.9741  -10.0285  -16.7813 N   0  0  0  0  0  0  0  0  0  0  0  0
   22.3743   -8.1073  -16.7719 C   0  0  0  0  0  0  0  0  0  0  0  0
   22.0679   -7.8598  -17.9874 O   0  0  0  0  0  0  0  0  0  0  0  0
   21.8294   -7.3074  -15.7412 N   0  0  0  0  0  0  0  0  0  0  0  0
   20.8560   -6.3072  -16.0719 C   0  0  0  0  0  0  0  0  0  0  0  0
   20.4579   -5.5620  -14.8354 C   0  0  0  0  0  0  0  0  0  0  0  0
   19.6773   -4.4388  -14.9261 O   0  0  0  0  0  0  0  0  0  0  0  0
   20.8200   -5.9350  -13.6919 O   0  0  0  0  0  0  0  0  0  0  0  0
  2  4  1  0
  2  1  1  0
  3  2  2  0
  5  6  1  0
  5  4  1  0
  6  7  1  1
  6  8  1  0
  8  9  2  0
 10  8  1  0
 10 11  1  0
 11 18  1  0
 12 13  1  0
 11 12  1  6
 13 17  1  0
 13 14  2  0
 14 15  1  0
 16 15  1  0
 17 16  2  0
 18 19  2  0
 20 18  1  0
 20 21  1  0
 22 23  1  0
 22 21  1  0
 24 22  2  0
M  END
$$$$
