QHG.pdb
     RDKit          3D

 24 24  0  0  1  0  0  0  0  0999 V2000
   18.0030  -10.7512  -15.1872 N   0  0  0  0  0  0  0  0  0  0  0  0
   18.2910  -11.9746  -15.8272 C   0  0  0  0  0  0  0  0  0  0  0  0
   17.3146  -12.7169  -16.1032 O   0  0  0  0  0  0  0  0  0  0  0  0
   19.6693  -12.4028  -16.1758 C   0  0  0  0  0  0  0  0  0  0  0  0
   20.6445  -11.3569  -15.7533 C   0  0  0  0  0  0  0  0  0  0  0  0
   22.0568  -11.6667  -16.1711 C   0  0  2  0  0  0  0  0  0  0  0  0
   22.5141  -12.9460  -15.7424 N   0  0  0  0  0  0  0  0  0  0  0  0
   22.9460  -10.6283  -15.5982 C   0  0  0  0  0  0  0  0  0  0  0  0
   23.4776  -10.7998  -14.4730 O   0  0  0  0  0  0  0  0  0  0  0  0
   23.2444   -9.4110  -16.2644 N   0  0  0  0  0  0  0  0  0  0  0  0
   24.1107   -8.3852  -15.7363 C   0  0  1  0  0  0  0  0  0  0  0  0
   25.3255   -8.3179  -16.6359 C   0  0  0  0  0  0  0  0  0  0  0  0
   26.2599   -9.4428  -16.3751 C   0  0  0  0  0  0  0  0  0  0  0  0
   26.2119  -10.3264  -15.2987 C   0  0  0  0  0  0  0  0  0  0  0  0
   27.2272  -11.2106  -15.4066 N   0  0  0  0  0  0  0  0  0  0  0  0
   27.8905  -10.8863  -16.5212 C   0  0  0  0  0  0  0  0  0  0  0  0
   27.3198   -9.8234  -17.1156 N   0  0  0  0  0  0  0  0  0  0  0  0
   23.4232   -7.1006  -15.6081 C   0  0  0  0  0  0  0  0  0  0  0  0
   23.2352   -6.4167  -16.6709 O   0  0  0  0  0  0  0  0  0  0  0  0
   22.9665   -6.5974  -14.3682 N   0  0  0  0  0  0  0  0  0  0  0  0
   22.3563   -5.3002  -14.3212 C   0  0  0  0  0  0  0  0  0  0  0  0
   20.9042   -5.4124  -14.6696 C   0  0  0  0  0  0  0  0  0  0  0  0
   20.0051   -5.8773  -13.7451 O   0  0  0  0  0  0  0  0  0  0  0  0
   20.4681   -5.0897  -15.8025 O   0  0  0  0  0  0  0  0  0  0  0  0
  2  4  1  0
  2  1  1  0
  3  2  2  0
  5  6  1  0
  5  4  1  0
  6  7  1  1
  6  8  1  0
  8  9  2  0
 10  8  1  0
 10 11  1  0
 11 18  1  0
 12 13  1  0
 11 12  1  6
 13 17  1  0
 13 14  2  0
 14 15  1  0
 16 15  1  0
 17 16  2  0
 18 19  2  0
 20 18  1  0
 20 21  1  0
 22 23  1  0
 22 21  1  0
 24 22  2  0
M  END
$$$$
