QHG.pdb
     RDKit          3D

 24 24  0  0  1  0  0  0  0  0999 V2000
   15.5753  -11.1907  -14.1994 N   0  0  0  0  0  0  0  0  0  0  0  0
   15.5704  -12.2117  -15.1725 C   0  0  0  0  0  0  0  0  0  0  0  0
   14.5224  -12.8990  -15.2719 O   0  0  0  0  0  0  0  0  0  0  0  0
   16.7285  -12.4938  -16.0579 C   0  0  0  0  0  0  0  0  0  0  0  0
   17.8316  -11.5338  -15.7667 C   0  0  0  0  0  0  0  0  0  0  0  0
   19.0566  -11.7732  -16.6077 C   0  0  2  0  0  0  0  0  0  0  0  0
   19.7498  -12.9745  -16.2824 N   0  0  0  0  0  0  0  0  0  0  0  0
   19.9778  -10.6274  -16.4183 C   0  0  0  0  0  0  0  0  0  0  0  0
   20.8883  -10.6825  -15.5547 O   0  0  0  0  0  0  0  0  0  0  0  0
   19.8921   -9.4312  -17.1777 N   0  0  0  0  0  0  0  0  0  0  0  0
   20.8092   -8.3238  -17.0583 C   0  0  1  0  0  0  0  0  0  0  0  0
   21.2526   -7.9566  -18.4576 C   0  0  0  0  0  0  0  0  0  0  0  0
   22.1053   -9.0161  -19.0550 C   0  0  0  0  0  0  0  0  0  0  0  0
   23.0787   -9.7646  -18.3965 C   0  0  0  0  0  0  0  0  0  0  0  0
   23.6399  -10.6276  -19.2710 N   0  0  0  0  0  0  0  0  0  0  0  0
   23.0319  -10.4220  -20.4437 C   0  0  0  0  0  0  0  0  0  0  0  0
   22.1049   -9.4543  -20.3296 N   0  0  0  0  0  0  0  0  0  0  0  0
   20.2184   -7.1995  -16.3329 C   0  0  0  0  0  0  0  0  0  0  0  0
   18.9885   -6.9303  -16.5506 O   0  0  0  0  0  0  0  0  0  0  0  0
   20.9498   -6.4128  -15.4135 N   0  0  0  0  0  0  0  0  0  0  0  0
   20.2798   -5.3624  -14.7029 C   0  0  0  0  0  0  0  0  0  0  0  0
   21.2802   -4.5540  -13.9358 C   0  0  0  0  0  0  0  0  0  0  0  0
   20.9012   -3.3912  -13.3167 O   0  0  0  0  0  0  0  0  0  0  0  0
   22.4811   -4.9085  -13.8354 O   0  0  0  0  0  0  0  0  0  0  0  0
  2  4  1  0
  2  1  1  0
  3  2  2  0
  5  6  1  0
  5  4  1  0
  6  7  1  1
  6  8  1  0
  8  9  2  0
 10  8  1  0
 10 11  1  0
 11 18  1  0
 12 13  1  0
 11 12  1  6
 13 17  1  0
 13 14  2  0
 14 15  1  0
 16 15  1  0
 17 16  2  0
 18 19  2  0
 20 18  1  0
 20 21  1  0
 22 23  1  0
 22 21  1  0
 24 22  2  0
M  END
$$$$
