QHG.pdb
     RDKit          3D

 24 24  0  0  1  0  0  0  0  0999 V2000
   27.6314  -11.3486  -15.3402 N   0  0  0  0  0  0  0  0  0  0  0  0
   27.5503  -12.1651  -16.4875 C   0  0  0  0  0  0  0  0  0  0  0  0
   28.5688  -12.2171  -17.2228 O   0  0  0  0  0  0  0  0  0  0  0  0
   26.3373  -12.9428  -16.8456 C   0  0  0  0  0  0  0  0  0  0  0  0
   25.2893  -12.7514  -15.8023 C   0  0  0  0  0  0  0  0  0  0  0  0
   23.9909  -13.4328  -16.1413 C   0  0  2  0  0  0  0  0  0  0  0  0
   24.0177  -14.1336  -17.3814 N   0  0  0  0  0  0  0  0  0  0  0  0
   22.9296  -12.3997  -16.2028 C   0  0  0  0  0  0  0  0  0  0  0  0
   22.4853  -12.0129  -17.3122 O   0  0  0  0  0  0  0  0  0  0  0  0
   22.3651  -11.7999  -15.0467 N   0  0  0  0  0  0  0  0  0  0  0  0
   21.3392  -10.7857  -15.0745 C   0  0  1  0  0  0  0  0  0  0  0  0
   20.2175  -11.2585  -14.1758 C   0  0  0  0  0  0  0  0  0  0  0  0
   19.5072  -12.4257  -14.7587 C   0  0  0  0  0  0  0  0  0  0  0  0
   19.8037  -13.0576  -15.9646 C   0  0  0  0  0  0  0  0  0  0  0  0
   18.9386  -14.0773  -16.1542 N   0  0  0  0  0  0  0  0  0  0  0  0
   18.1242  -14.0805  -15.0940 C   0  0  0  0  0  0  0  0  0  0  0  0
   18.4541  -13.0915  -14.2445 N   0  0  0  0  0  0  0  0  0  0  0  0
   21.8584   -9.4715  -14.6966 C   0  0  0  0  0  0  0  0  0  0  0  0
   22.7444   -9.4227  -13.7773 O   0  0  0  0  0  0  0  0  0  0  0  0
   21.4205   -8.2722  -15.3040 N   0  0  0  0  0  0  0  0  0  0  0  0
   22.0137   -7.0286  -14.9055 C   0  0  0  0  0  0  0  0  0  0  0  0
   21.3811   -5.9020  -15.6627 C   0  0  0  0  0  0  0  0  0  0  0  0
   20.4367   -6.1582  -16.6227 O   0  0  0  0  0  0  0  0  0  0  0  0
   21.6897   -4.7036  -15.4473 O   0  0  0  0  0  0  0  0  0  0  0  0
  2  4  1  0
  2  1  1  0
  3  2  2  0
  5  6  1  0
  5  4  1  0
  6  7  1  6
  6  8  1  0
  8  9  2  0
 10  8  1  0
 10 11  1  0
 11 18  1  0
 12 13  1  0
 11 12  1  1
 13 17  1  0
 13 14  2  0
 14 15  1  0
 16 15  1  0
 17 16  2  0
 18 19  2  0
 20 18  1  0
 20 21  1  0
 22 23  1  0
 22 21  1  0
 24 22  2  0
M  END
$$$$
