QHG.pdb
     RDKit          3D

 24 24  0  0  1  0  0  0  0  0999 V2000
   15.1356  -19.3283    2.7650 N   0  0  0  0  0  0  0  0  0  0  0  0
   16.4873  -18.9302    2.7041 C   0  0  0  0  0  0  0  0  0  0  0  0
   16.8603  -18.3381    1.6596 O   0  0  0  0  0  0  0  0  0  0  0  0
   17.4566  -19.1798    3.8008 C   0  0  0  0  0  0  0  0  0  0  0  0
   16.7578  -19.8088    4.9581 C   0  0  0  0  0  0  0  0  0  0  0  0
   16.9618  -19.0583    6.2466 C   0  0  2  0  0  0  0  0  0  0  0  0
   18.3001  -18.6117    6.4445 N   0  0  0  0  0  0  0  0  0  0  0  0
   16.5901  -19.9550    7.3669 C   0  0  0  0  0  0  0  0  0  0  0  0
   15.4418  -20.4614    7.4191 O   0  0  0  0  0  0  0  0  0  0  0  0
   17.4814  -20.2883    8.4203 N   0  0  0  0  0  0  0  0  0  0  0  0
   17.1743  -21.2131    9.4843 C   0  0  1  0  0  0  0  0  0  0  0  0
   16.7462  -22.5128    8.8384 C   0  0  0  0  0  0  0  0  0  0  0  0
   17.9159  -23.3583    8.4872 C   0  0  0  0  0  0  0  0  0  0  0  0
   19.1932  -23.2745    9.0378 C   0  0  0  0  0  0  0  0  0  0  0  0
   19.9839  -24.2076    8.4650 N   0  0  0  0  0  0  0  0  0  0  0  0
   19.2193  -24.8559    7.5805 C   0  0  0  0  0  0  0  0  0  0  0  0
   17.9709  -24.3557    7.5824 N   0  0  0  0  0  0  0  0  0  0  0  0
   18.2966  -21.3770   10.4080 C   0  0  0  0  0  0  0  0  0  0  0  0
   18.1750  -22.2350   11.3469 O   0  0  0  0  0  0  0  0  0  0  0  0
   19.4923  -20.6304   10.2994 N   0  0  0  0  0  0  0  0  0  0  0  0
   20.3858  -20.5729   11.4199 C   0  0  0  0  0  0  0  0  0  0  0  0
   21.5834  -19.7453   11.0686 C   0  0  0  0  0  0  0  0  0  0  0  0
   22.5761  -19.5387   11.9912 O   0  0  0  0  0  0  0  0  0  0  0  0
   21.7166  -19.2208    9.9350 O   0  0  0  0  0  0  0  0  0  0  0  0
  2  4  1  0
  2  1  1  0
  3  2  2  0
  5  6  1  0
  5  4  1  0
  6  7  1  1
  6  8  1  0
  8  9  2  0
 10  8  1  0
 10 11  1  0
 11 18  1  0
 12 13  1  0
 11 12  1  6
 13 17  1  0
 13 14  2  0
 14 15  1  0
 16 15  1  0
 17 16  2  0
 18 19  2  0
 20 18  1  0
 20 21  1  0
 22 23  1  0
 22 21  1  0
 24 22  2  0
M  END
$$$$
