QHG.pdb
     RDKit          3D

 24 24  0  0  1  0  0  0  0  0999 V2000
   22.5460  -22.0348  -13.0610 N   0  0  0  0  0  0  0  0  0  0  0  0
   21.7758  -21.6310  -11.9506 C   0  0  0  0  0  0  0  0  0  0  0  0
   20.6724  -22.2095  -11.7820 O   0  0  0  0  0  0  0  0  0  0  0  0
   22.2120  -20.5759  -11.0014 C   0  0  0  0  0  0  0  0  0  0  0  0
   23.5334  -20.0307  -11.4259 C   0  0  0  0  0  0  0  0  0  0  0  0
   24.6960  -20.8133  -10.8770 C   0  0  2  0  0  0  0  0  0  0  0  0
   24.8171  -20.7419   -9.4593 N   0  0  0  0  0  0  0  0  0  0  0  0
   25.9386  -20.2829  -11.4868 C   0  0  0  0  0  0  0  0  0  0  0  0
   26.3804  -19.1570  -11.1477 O   0  0  0  0  0  0  0  0  0  0  0  0
   26.6856  -20.9922  -12.4634 N   0  0  0  0  0  0  0  0  0  0  0  0
   27.8354  -20.4599  -13.1536 C   0  0  1  0  0  0  0  0  0  0  0  0
   28.9236  -21.5091  -13.0863 C   0  0  0  0  0  0  0  0  0  0  0  0
   29.5554  -21.5537  -11.7427 C   0  0  0  0  0  0  0  0  0  0  0  0
   29.1919  -20.7961  -10.6312 C   0  0  0  0  0  0  0  0  0  0  0  0
   29.9972  -21.1159   -9.5952 N   0  0  0  0  0  0  0  0  0  0  0  0
   30.8407  -22.0485  -10.0494 C   0  0  0  0  0  0  0  0  0  0  0  0
   30.5870  -22.3228  -11.3414 N   0  0  0  0  0  0  0  0  0  0  0  0
   27.5142  -20.0572  -14.5225 C   0  0  0  0  0  0  0  0  0  0  0  0
   26.8127  -20.8574  -15.2298 O   0  0  0  0  0  0  0  0  0  0  0  0
   27.9462  -18.8324  -15.0813 N   0  0  0  0  0  0  0  0  0  0  0  0
   27.7346  -18.5872  -16.4786 C   0  0  0  0  0  0  0  0  0  0  0  0
   26.6565  -17.5627  -16.6536 C   0  0  0  0  0  0  0  0  0  0  0  0
   26.9248  -16.3781  -17.2891 O   0  0  0  0  0  0  0  0  0  0  0  0
   25.4888  -17.7512  -16.2308 O   0  0  0  0  0  0  0  0  0  0  0  0
  2  4  1  0
  2  1  1  0
  3  2  2  0
  5  6  1  0
  5  4  1  0
  6  7  1  1
  6  8  1  0
  8  9  2  0
 10  8  1  0
 10 11  1  0
 11 18  1  0
 12 13  1  0
 11 12  1  6
 13 17  1  0
 13 14  2  0
 14 15  1  0
 16 15  1  0
 17 16  2  0
 18 19  2  0
 20 18  1  0
 20 21  1  0
 22 23  1  0
 22 21  1  0
 24 22  2  0
M  END
$$$$
