QHG.pdb
     RDKit          3D

 24 24  0  0  1  0  0  0  0  0999 V2000
   19.1578   -8.5479  -15.4077 N   0  0  0  0  0  0  0  0  0  0  0  0
   17.8632   -9.0198  -15.1066 C   0  0  0  0  0  0  0  0  0  0  0  0
   17.3226   -8.5737  -14.0628 O   0  0  0  0  0  0  0  0  0  0  0  0
   17.1382   -9.9976  -15.9569 C   0  0  0  0  0  0  0  0  0  0  0  0
   16.3280  -10.9089  -15.0986 C   0  0  0  0  0  0  0  0  0  0  0  0
   17.0533  -12.1779  -14.7400 C   0  0  2  0  0  0  0  0  0  0  0  0
   17.4310  -12.9611  -15.8685 N   0  0  0  0  0  0  0  0  0  0  0  0
   16.1638  -12.9895  -13.8754 C   0  0  0  0  0  0  0  0  0  0  0  0
   15.4871  -12.4410  -12.9703 O   0  0  0  0  0  0  0  0  0  0  0  0
   16.0243  -14.3955  -14.0112 N   0  0  0  0  0  0  0  0  0  0  0  0
   15.0882  -15.1968  -13.2607 C   0  0  1  0  0  0  0  0  0  0  0  0
   13.7025  -14.6723  -13.5680 C   0  0  0  0  0  0  0  0  0  0  0  0
   12.7026  -15.1667  -12.5870 C   0  0  0  0  0  0  0  0  0  0  0  0
   12.9572  -15.9762  -11.4818 C   0  0  0  0  0  0  0  0  0  0  0  0
   11.7978  -16.2136  -10.8309 N   0  0  0  0  0  0  0  0  0  0  0  0
   10.8457  -15.5688  -11.5129 C   0  0  0  0  0  0  0  0  0  0  0  0
   11.3752  -14.9335  -12.5734 N   0  0  0  0  0  0  0  0  0  0  0  0
   15.2354  -16.6235  -13.5479 C   0  0  0  0  0  0  0  0  0  0  0  0
   15.1311  -17.0002  -14.7644 O   0  0  0  0  0  0  0  0  0  0  0  0
   15.4853  -17.5848  -12.5417 N   0  0  0  0  0  0  0  0  0  0  0  0
   15.5991  -18.9671  -12.9071 C   0  0  0  0  0  0  0  0  0  0  0  0
   14.2467  -19.5118  -13.2490 C   0  0  0  0  0  0  0  0  0  0  0  0
   14.1208  -20.7733  -13.7704 O   0  0  0  0  0  0  0  0  0  0  0  0
   13.1988  -18.8419  -13.0725 O   0  0  0  0  0  0  0  0  0  0  0  0
  2  4  1  0
  2  1  1  0
  3  2  2  0
  5  6  1  0
  5  4  1  0
  6  7  1  6
  6  8  1  0
  8  9  2  0
 10  8  1  0
 10 11  1  0
 11 18  1  0
 12 13  1  0
 11 12  1  6
 13 17  1  0
 13 14  2  0
 14 15  1  0
 16 15  1  0
 17 16  2  0
 18 19  2  0
 20 18  1  0
 20 21  1  0
 22 23  1  0
 22 21  1  0
 24 22  2  0
M  END
$$$$
