QHG.pdb
     RDKit          3D

 24 24  0  0  1  0  0  0  0  0999 V2000
   27.6917  -30.1528  -17.9861 N   0  0  0  0  0  0  0  0  0  0  0  0
   27.7683  -28.7841  -17.6543 C   0  0  0  0  0  0  0  0  0  0  0  0
   28.3852  -28.0372  -18.4557 O   0  0  0  0  0  0  0  0  0  0  0  0
   27.1621  -28.2123  -16.4254 C   0  0  0  0  0  0  0  0  0  0  0  0
   27.5393  -26.7753  -16.2986 C   0  0  0  0  0  0  0  0  0  0  0  0
   26.3991  -25.8395  -16.5973 C   0  0  2  0  0  0  0  0  0  0  0  0
   26.0138  -25.8245  -17.9688 N   0  0  0  0  0  0  0  0  0  0  0  0
   26.8104  -24.4706  -16.2049 C   0  0  0  0  0  0  0  0  0  0  0  0
   27.0923  -24.2122  -15.0084 O   0  0  0  0  0  0  0  0  0  0  0  0
   26.9088  -23.3971  -17.1283 N   0  0  0  0  0  0  0  0  0  0  0  0
   27.4254  -22.0894  -16.8042 C   0  0  1  0  0  0  0  0  0  0  0  0
   28.4993  -21.7677  -17.8205 C   0  0  0  0  0  0  0  0  0  0  0  0
   29.6140  -22.7479  -17.7645 C   0  0  0  0  0  0  0  0  0  0  0  0
   30.3248  -23.2564  -18.8498 C   0  0  0  0  0  0  0  0  0  0  0  0
   31.2602  -24.1207  -18.4002 N   0  0  0  0  0  0  0  0  0  0  0  0
   31.1355  -24.1500  -17.0694 C   0  0  0  0  0  0  0  0  0  0  0  0
   30.1480  -23.3282  -16.6714 N   0  0  0  0  0  0  0  0  0  0  0  0
   26.3678  -21.0805  -16.7521 C   0  0  0  0  0  0  0  0  0  0  0  0
   26.7165  -19.8577  -16.6266 O   0  0  0  0  0  0  0  0  0  0  0  0
   24.9945  -21.4065  -16.8344 N   0  0  0  0  0  0  0  0  0  0  0  0
   24.0203  -20.3560  -16.7655 C   0  0  0  0  0  0  0  0  0  0  0  0
   23.0964  -20.5993  -15.6123 C   0  0  0  0  0  0  0  0  0  0  0  0
   23.3175  -21.6486  -14.7584 O   0  0  0  0  0  0  0  0  0  0  0  0
   22.1035  -19.8620  -15.3922 O   0  0  0  0  0  0  0  0  0  0  0  0
  2  4  1  0
  2  1  1  0
  3  2  2  0
  5  6  1  0
  5  4  1  0
  6  7  1  6
  6  8  1  0
  8  9  2  0
 10  8  1  0
 10 11  1  0
 11 18  1  0
 12 13  1  0
 11 12  1  6
 13 17  1  0
 13 14  2  0
 14 15  1  0
 16 15  1  0
 17 16  2  0
 18 19  2  0
 20 18  1  0
 20 21  1  0
 22 23  1  0
 22 21  1  0
 24 22  2  0
M  END
$$$$
