QHG.pdb
     RDKit          3D

 24 24  0  0  1  0  0  0  0  0999 V2000
   13.6168  -22.5787    3.6943 N   0  0  0  0  0  0  0  0  0  0  0  0
   13.6765  -21.1964    3.9681 C   0  0  0  0  0  0  0  0  0  0  0  0
   13.1583  -20.8061    5.0450 O   0  0  0  0  0  0  0  0  0  0  0  0
   14.3125  -20.2150    3.0533 C   0  0  0  0  0  0  0  0  0  0  0  0
   15.3913  -19.4797    3.7736 C   0  0  0  0  0  0  0  0  0  0  0  0
   16.1184  -18.4956    2.8972 C   0  0  2  0  0  0  0  0  0  0  0  0
   16.7813  -19.0959    1.7882 N   0  0  0  0  0  0  0  0  0  0  0  0
   17.1248  -17.7930    3.7282 C   0  0  0  0  0  0  0  0  0  0  0  0
   18.2894  -18.2514    3.8356 O   0  0  0  0  0  0  0  0  0  0  0  0
   16.8451  -16.5937    4.4342 N   0  0  0  0  0  0  0  0  0  0  0  0
   17.8198  -15.8515    5.1962 C   0  0  1  0  0  0  0  0  0  0  0  0
   17.6677  -14.3940    4.8192 C   0  0  0  0  0  0  0  0  0  0  0  0
   18.7078  -13.5526    5.4648 C   0  0  0  0  0  0  0  0  0  0  0  0
   19.6642  -13.9786    6.3842 C   0  0  0  0  0  0  0  0  0  0  0  0
   20.4316  -12.9269    6.7436 N   0  0  0  0  0  0  0  0  0  0  0  0
   19.9655  -11.8731    6.0657 C   0  0  0  0  0  0  0  0  0  0  0  0
   18.9271  -12.2341    5.2911 N   0  0  0  0  0  0  0  0  0  0  0  0
   17.6855  -16.0866    6.6336 C   0  0  0  0  0  0  0  0  0  0  0  0
   16.5364  -15.9050    7.1622 O   0  0  0  0  0  0  0  0  0  0  0  0
   18.7661  -16.5015    7.4455 N   0  0  0  0  0  0  0  0  0  0  0  0
   18.5404  -16.7441    8.8409 C   0  0  0  0  0  0  0  0  0  0  0  0
   19.2201  -15.6858    9.6538 C   0  0  0  0  0  0  0  0  0  0  0  0
   19.1102  -15.6860   11.0201 O   0  0  0  0  0  0  0  0  0  0  0  0
   19.9029  -14.7769    9.1194 O   0  0  0  0  0  0  0  0  0  0  0  0
  2  4  1  0
  2  1  1  0
  3  2  2  0
  5  6  1  0
  5  4  1  0
  6  7  1  6
  6  8  1  0
  8  9  2  0
 10  8  1  0
 10 11  1  0
 11 18  1  0
 12 13  1  0
 11 12  1  1
 13 17  1  0
 13 14  2  0
 14 15  1  0
 16 15  1  0
 17 16  2  0
 18 19  2  0
 20 18  1  0
 20 21  1  0
 22 23  1  0
 22 21  1  0
 24 22  2  0
M  END
$$$$
