QHG.pdb
     RDKit          3D

 24 24  0  0  1  0  0  0  0  0999 V2000
   17.9590  -12.8485  -15.1914 N   0  0  0  0  0  0  0  0  0  0  0  0
   19.2771  -12.5282  -15.5777 C   0  0  0  0  0  0  0  0  0  0  0  0
   20.1959  -13.2601  -15.1297 O   0  0  0  0  0  0  0  0  0  0  0  0
   19.6064  -11.3882  -16.4702 C   0  0  0  0  0  0  0  0  0  0  0  0
   18.4364  -10.4688  -16.5666 C   0  0  0  0  0  0  0  0  0  0  0  0
   18.6976   -9.2749  -17.4450 C   0  0  2  0  0  0  0  0  0  0  0  0
   19.3517   -9.5958  -18.6693 N   0  0  0  0  0  0  0  0  0  0  0  0
   19.5456   -8.3225  -16.6893 C   0  0  0  0  0  0  0  0  0  0  0  0
   19.1776   -7.9009  -15.5648 O   0  0  0  0  0  0  0  0  0  0  0  0
   20.7899   -7.8410  -17.1738 N   0  0  0  0  0  0  0  0  0  0  0  0
   21.6406   -6.9206  -16.4590 C   0  0  1  0  0  0  0  0  0  0  0  0
   23.0668   -7.3894  -16.6485 C   0  0  0  0  0  0  0  0  0  0  0  0
   23.3302   -8.6479  -15.9045 C   0  0  0  0  0  0  0  0  0  0  0  0
   22.4384   -9.3186  -15.0701 C   0  0  0  0  0  0  0  0  0  0  0  0
   23.0400  -10.4219  -14.5752 N   0  0  0  0  0  0  0  0  0  0  0  0
   24.2746  -10.4381  -15.0878 C   0  0  0  0  0  0  0  0  0  0  0  0
   24.4645   -9.3759  -15.8906 N   0  0  0  0  0  0  0  0  0  0  0  0
   21.4325   -5.5376  -16.8871 C   0  0  0  0  0  0  0  0  0  0  0  0
   21.6777   -5.2482  -18.1072 O   0  0  0  0  0  0  0  0  0  0  0  0
   20.9765   -4.5257  -16.0111 N   0  0  0  0  0  0  0  0  0  0  0  0
   20.8435   -3.1840  -16.5003 C   0  0  0  0  0  0  0  0  0  0  0  0
   20.3225   -2.2987  -15.4106 C   0  0  0  0  0  0  0  0  0  0  0  0
   20.3113   -0.9374  -15.5714 O   0  0  0  0  0  0  0  0  0  0  0  0
   19.8852   -2.7662  -14.3298 O   0  0  0  0  0  0  0  0  0  0  0  0
  2  4  1  0
  2  1  1  0
  3  2  2  0
  5  6  1  0
  5  4  1  0
  6  7  1  6
  6  8  1  0
  8  9  2  0
 10  8  1  0
 10 11  1  0
 11 18  1  0
 12 13  1  0
 11 12  1  6
 13 17  1  0
 13 14  2  0
 14 15  1  0
 16 15  1  0
 17 16  2  0
 18 19  2  0
 20 18  1  0
 20 21  1  0
 22 23  1  0
 22 21  1  0
 24 22  2  0
M  END
$$$$
