QHG.pdb
     RDKit          3D

 24 24  0  0  1  0  0  0  0  0999 V2000
   19.7637  -20.3743  -15.3100 N   0  0  0  0  0  0  0  0  0  0  0  0
   19.6481  -21.3572  -14.3052 C   0  0  0  0  0  0  0  0  0  0  0  0
   18.7006  -22.1762  -14.4156 O   0  0  0  0  0  0  0  0  0  0  0  0
   20.5812  -21.4542  -13.1543 C   0  0  0  0  0  0  0  0  0  0  0  0
   21.5867  -20.3556  -13.2263 C   0  0  0  0  0  0  0  0  0  0  0  0
   22.5826  -20.5422  -14.3392 C   0  0  2  0  0  0  0  0  0  0  0  0
   22.8131  -21.9062  -14.6799 N   0  0  0  0  0  0  0  0  0  0  0  0
   23.8670  -19.9352  -13.9161 C   0  0  0  0  0  0  0  0  0  0  0  0
   23.9028  -18.7472  -13.5093 O   0  0  0  0  0  0  0  0  0  0  0  0
   25.1008  -20.6364  -13.9427 N   0  0  0  0  0  0  0  0  0  0  0  0
   26.3825  -20.0399  -13.6544 C   0  0  1  0  0  0  0  0  0  0  0  0
   27.0420  -20.8884  -12.5891 C   0  0  0  0  0  0  0  0  0  0  0  0
   26.3128  -20.8057  -11.2976 C   0  0  0  0  0  0  0  0  0  0  0  0
   25.2168  -19.9927  -11.0162 C   0  0  0  0  0  0  0  0  0  0  0  0
   24.8316  -20.1963   -9.7378 N   0  0  0  0  0  0  0  0  0  0  0  0
   25.6659  -21.1123   -9.2357 C   0  0  0  0  0  0  0  0  0  0  0  0
   26.5639  -21.4892  -10.1633 N   0  0  0  0  0  0  0  0  0  0  0  0
   27.2019  -19.8948  -14.8573 C   0  0  0  0  0  0  0  0  0  0  0  0
   27.4453  -20.9454  -15.5426 O   0  0  0  0  0  0  0  0  0  0  0  0
   27.7256  -18.6518  -15.2812 N   0  0  0  0  0  0  0  0  0  0  0  0
   28.6262  -18.6156  -16.3969 C   0  0  0  0  0  0  0  0  0  0  0  0
   27.9091  -18.1039  -17.6080 C   0  0  0  0  0  0  0  0  0  0  0  0
   28.6127  -17.5480  -18.6448 O   0  0  0  0  0  0  0  0  0  0  0  0
   26.6589  -18.1658  -17.7128 O   0  0  0  0  0  0  0  0  0  0  0  0
  2  4  1  0
  2  1  1  0
  3  2  2  0
  5  6  1  0
  5  4  1  0
  6  7  1  1
  6  8  1  0
  8  9  2  0
 10  8  1  0
 10 11  1  0
 11 18  1  0
 12 13  1  0
 11 12  1  1
 13 17  1  0
 13 14  2  0
 14 15  1  0
 16 15  1  0
 17 16  2  0
 18 19  2  0
 20 18  1  0
 20 21  1  0
 22 23  1  0
 22 21  1  0
 24 22  2  0
M  END
$$$$
