QHG.pdb
     RDKit          3D

 24 24  0  0  1  0  0  0  0  0999 V2000
   26.4530  -34.3051   -2.8033 N   0  0  0  0  0  0  0  0  0  0  0  0
   25.9435  -33.3167   -3.6708 C   0  0  0  0  0  0  0  0  0  0  0  0
   25.4476  -32.2916   -3.1379 O   0  0  0  0  0  0  0  0  0  0  0  0
   25.9722  -33.4426   -5.1500 C   0  0  0  0  0  0  0  0  0  0  0  0
   26.5930  -34.7430   -5.5334 C   0  0  0  0  0  0  0  0  0  0  0  0
   27.8315  -34.5785   -6.3726 C   0  0  2  0  0  0  0  0  0  0  0  0
   27.8015  -35.3175   -7.5902 N   0  0  0  0  0  0  0  0  0  0  0  0
   28.9947  -35.0296   -5.5722 C   0  0  0  0  0  0  0  0  0  0  0  0
   29.4062  -36.2129   -5.6635 O   0  0  0  0  0  0  0  0  0  0  0  0
   29.6964  -34.1787   -4.6786 N   0  0  0  0  0  0  0  0  0  0  0  0
   30.7634  -34.6131   -3.8099 C   0  0  1  0  0  0  0  0  0  0  0  0
   31.8541  -33.5667   -3.8824 C   0  0  0  0  0  0  0  0  0  0  0  0
   32.5956  -33.6404   -5.1674 C   0  0  0  0  0  0  0  0  0  0  0  0
   32.4938  -34.6470   -6.1255 C   0  0  0  0  0  0  0  0  0  0  0  0
   33.3224  -34.3642   -7.1539 N   0  0  0  0  0  0  0  0  0  0  0  0
   33.9246  -33.2114   -6.8447 C   0  0  0  0  0  0  0  0  0  0  0  0
   33.4972  -32.7630   -5.6510 N   0  0  0  0  0  0  0  0  0  0  0  0
   30.2944  -34.8556   -2.4459 C   0  0  0  0  0  0  0  0  0  0  0  0
   29.5893  -33.9477   -1.8880 O   0  0  0  0  0  0  0  0  0  0  0  0
   30.5897  -36.0413   -1.7345 N   0  0  0  0  0  0  0  0  0  0  0  0
   30.1365  -36.1765   -0.3804 C   0  0  0  0  0  0  0  0  0  0  0  0
   31.0387  -35.4057    0.5332 C   0  0  0  0  0  0  0  0  0  0  0  0
   30.8177  -35.4069    1.8861 O   0  0  0  0  0  0  0  0  0  0  0  0
   32.0127  -34.7427    0.0976 O   0  0  0  0  0  0  0  0  0  0  0  0
  2  4  1  0
  2  1  1  0
  3  2  2  0
  5  6  1  0
  5  4  1  0
  6  7  1  6
  6  8  1  0
  8  9  2  0
 10  8  1  0
 10 11  1  0
 11 18  1  0
 12 13  1  0
 11 12  1  1
 13 17  1  0
 13 14  2  0
 14 15  1  0
 16 15  1  0
 17 16  2  0
 18 19  2  0
 20 18  1  0
 20 21  1  0
 22 23  1  0
 22 21  1  0
 24 22  2  0
M  END
$$$$
