QHG.pdb
     RDKit          3D

 24 24  0  0  1  0  0  0  0  0999 V2000
   21.7993  -21.0255  -12.2958 N   0  0  0  0  0  0  0  0  0  0  0  0
   22.5220  -20.5694  -13.4179 C   0  0  0  0  0  0  0  0  0  0  0  0
   21.8609  -20.3161  -14.4568 O   0  0  0  0  0  0  0  0  0  0  0  0
   23.9951  -20.3838  -13.4132 C   0  0  0  0  0  0  0  0  0  0  0  0
   24.5353  -20.6713  -12.0534 C   0  0  0  0  0  0  0  0  0  0  0  0
   26.0195  -20.4438  -11.9503 C   0  0  2  0  0  0  0  0  0  0  0  0
   26.7827  -21.2083  -12.8790 N   0  0  0  0  0  0  0  0  0  0  0  0
   26.4469  -20.8013  -10.5767 C   0  0  0  0  0  0  0  0  0  0  0  0
   26.7695  -21.9836  -10.3010 O   0  0  0  0  0  0  0  0  0  0  0  0
   26.5168  -19.8588   -9.5176 N   0  0  0  0  0  0  0  0  0  0  0  0
   26.9140  -20.1790   -8.1680 C   0  0  1  0  0  0  0  0  0  0  0  0
   27.3617  -18.8895   -7.5150 C   0  0  0  0  0  0  0  0  0  0  0  0
   27.9260  -19.1308   -6.1623 C   0  0  0  0  0  0  0  0  0  0  0  0
   28.6572  -20.2455   -5.7570 C   0  0  0  0  0  0  0  0  0  0  0  0
   28.9974  -20.1030   -4.4577 N   0  0  0  0  0  0  0  0  0  0  0  0
   28.4913  -18.9299   -4.0637 C   0  0  0  0  0  0  0  0  0  0  0  0
   27.8431  -18.3325   -5.0794 N   0  0  0  0  0  0  0  0  0  0  0  0
   25.8470  -20.8531   -7.4287 C   0  0  0  0  0  0  0  0  0  0  0  0
   26.1088  -21.2653   -6.2480 O   0  0  0  0  0  0  0  0  0  0  0  0
   24.5564  -21.0611   -7.9671 N   0  0  0  0  0  0  0  0  0  0  0  0
   23.5620  -21.7169   -7.1682 C   0  0  0  0  0  0  0  0  0  0  0  0
   22.2313  -21.6341   -7.8502 C   0  0  0  0  0  0  0  0  0  0  0  0
   21.0993  -22.0722   -7.2133 O   0  0  0  0  0  0  0  0  0  0  0  0
   22.1096  -21.1679   -9.0103 O   0  0  0  0  0  0  0  0  0  0  0  0
  2  4  1  0
  2  1  1  0
  3  2  2  0
  5  6  1  0
  5  4  1  0
  6  7  1  6
  6  8  1  0
  8  9  2  0
 10  8  1  0
 10 11  1  0
 11 18  1  0
 12 13  1  0
 11 12  1  1
 13 17  1  0
 13 14  2  0
 14 15  1  0
 16 15  1  0
 17 16  2  0
 18 19  2  0
 20 18  1  0
 20 21  1  0
 22 23  1  0
 22 21  1  0
 24 22  2  0
M  END
$$$$
