QHG.pdb
     RDKit          3D

 24 24  0  0  1  0  0  0  0  0999 V2000
   21.8040  -14.8551  -18.1077 N   0  0  0  0  0  0  0  0  0  0  0  0
   22.6796  -14.4373  -19.1315 C   0  0  0  0  0  0  0  0  0  0  0  0
   23.1554  -15.3327  -19.8748 O   0  0  0  0  0  0  0  0  0  0  0  0
   23.0475  -13.0162  -19.3544 C   0  0  0  0  0  0  0  0  0  0  0  0
   22.2934  -12.1455  -18.4075 C   0  0  0  0  0  0  0  0  0  0  0  0
   23.1243  -11.0179  -17.8568 C   0  0  2  0  0  0  0  0  0  0  0  0
   24.0101  -11.4146  -16.8139 N   0  0  0  0  0  0  0  0  0  0  0  0
   22.2049   -9.9814  -17.3300 C   0  0  0  0  0  0  0  0  0  0  0  0
   21.4145   -9.3839  -18.1022 O   0  0  0  0  0  0  0  0  0  0  0  0
   22.1604   -9.6094  -15.9609 N   0  0  0  0  0  0  0  0  0  0  0  0
   21.2291   -8.6573  -15.4060 C   0  0  1  0  0  0  0  0  0  0  0  0
   20.3423   -9.4101  -14.4382 C   0  0  0  0  0  0  0  0  0  0  0  0
   19.2066  -10.0654  -15.1363 C   0  0  0  0  0  0  0  0  0  0  0  0
   18.9335  -10.0142  -16.5017 C   0  0  0  0  0  0  0  0  0  0  0  0
   17.8185  -10.7325  -16.7570 N   0  0  0  0  0  0  0  0  0  0  0  0
   17.4078  -11.2186  -15.5813 C   0  0  0  0  0  0  0  0  0  0  0  0
   18.2338  -10.8255  -14.5954 N   0  0  0  0  0  0  0  0  0  0  0  0
   21.9112   -7.5200  -14.7891 C   0  0  0  0  0  0  0  0  0  0  0  0
   22.7161   -7.7589  -13.8260 O   0  0  0  0  0  0  0  0  0  0  0  0
   21.7138   -6.1864  -15.2152 N   0  0  0  0  0  0  0  0  0  0  0  0
   22.4937   -5.1392  -14.6217 C   0  0  0  0  0  0  0  0  0  0  0  0
   21.5994   -4.2203  -13.8480 C   0  0  0  0  0  0  0  0  0  0  0  0
   22.1131   -3.1024  -13.2433 O   0  0  0  0  0  0  0  0  0  0  0  0
   20.3683   -4.4394  -13.7288 O   0  0  0  0  0  0  0  0  0  0  0  0
  2  4  1  0
  2  1  1  0
  3  2  2  0
  5  6  1  0
  5  4  1  0
  6  7  1  1
  6  8  1  0
  8  9  2  0
 10  8  1  0
 10 11  1  0
 11 18  1  0
 12 13  1  0
 11 12  1  1
 13 17  1  0
 13 14  2  0
 14 15  1  0
 16 15  1  0
 17 16  2  0
 18 19  2  0
 20 18  1  0
 20 21  1  0
 22 23  1  0
 22 21  1  0
 24 22  2  0
M  END
$$$$
