EDL.pdb
     RDKit          3D

 26 25  0  0  1  0  0  0  0  0999 V2000
   10.7991  -13.7226   19.5016 N   0  0  0  0  0  0  0  0  0  0  0  0
    9.4324  -13.2997   19.7809 C   0  0  1  0  0  0  0  0  0  0  0  0
    8.6895  -13.3376   18.4669 C   0  0  0  0  0  0  0  0  0  0  0  0
    8.6487  -14.7034   17.8410 C   0  0  0  0  0  0  0  0  0  0  0  0
    7.9478  -14.5794   16.5222 C   0  0  0  0  0  0  0  0  0  0  0  0
    7.6561  -13.4610   16.0316 O   0  0  0  0  0  0  0  0  0  0  0  0
    8.8410  -14.1417   20.8290 C   0  0  0  0  0  0  0  0  0  0  0  0
    7.6756  -14.0018   21.2696 O   0  0  0  0  0  0  0  0  0  0  0  0
    7.6137  -15.7160   15.8273 O   0  0  0  0  0  0  0  0  0  0  0  0
    9.6188  -15.1899   21.3974 N   0  0  0  0  0  0  0  0  0  0  0  0
    9.1559  -16.0548   22.4319 C   0  0  1  0  0  0  0  0  0  0  0  0
    9.9834  -17.3131   22.4284 C   0  0  0  0  0  0  0  0  0  0  0  0
    9.6675  -18.1524   21.2608 C   0  0  0  0  0  0  0  0  0  0  0  0
   10.6264  -18.7986   20.7363 O   0  0  0  0  0  0  0  0  0  0  0  0
    9.3163  -15.4439   23.7952 C   0  0  0  0  0  0  0  0  0  0  0  0
   10.4336  -14.9644   24.1189 O   0  0  0  0  0  0  0  0  0  0  0  0
    8.4367  -18.3109   20.6730 O   0  0  0  0  0  0  0  0  0  0  0  0
    7.4847  -11.7197   25.5422 C   0  0  0  0  0  0  0  0  0  0  0  0
    6.6970  -12.9922   25.4728 C   0  0  2  0  0  0  0  0  0  0  0  0
    5.2744  -12.6257   25.9673 C   0  0  0  0  0  0  0  0  0  0  0  0
    7.1348  -14.1119   26.3071 C   0  0  0  0  0  0  0  0  0  0  0  0
    8.4170  -14.8210   26.0860 C   0  0  2  0  0  0  0  0  0  0  0  0
    8.2681  -15.3874   24.7199 N   0  0  0  0  0  0  0  0  0  0  0  0
    8.6917  -15.8766   27.0422 C   0  0  0  0  0  0  0  0  0  0  0  0
    9.2227  -15.7796   28.3061 O   0  0  0  0  0  0  0  0  0  0  0  0
    8.4163  -17.0795   26.6797 O   0  0  0  0  0  0  0  0  0  0  0  0
  2  1  1  6
  2  7  1  0
  3  2  1  0
  3  4  1  0
  4  5  1  0
  5  6  2  0
  7  8  2  0
  9  5  1  0
 10 11  1  0
 10  7  1  0
 12 13  1  0
 11 12  1  1
 13 17  1  0
 14 13  2  0
 15 11  1  0
 15 16  2  0
 19 18  1  1
 19 21  1  0
 19 20  1  0
 22 21  1  1
 22 23  1  0
 22 24  1  0
 23 15  1  0
 24 26  2  0
 24 25  1  0
M  END
$$$$
