EDL.pdb
     RDKit          3D

 26 25  0  0  1  0  0  0  0  0999 V2000
   10.6197  -19.1456   21.9557 N   0  0  0  0  0  0  0  0  0  0  0  0
   11.3443  -17.8856   21.8451 C   0  0  1  0  0  0  0  0  0  0  0  0
   12.0467  -17.9050   20.5087 C   0  0  0  0  0  0  0  0  0  0  0  0
   11.7999  -19.1606   19.7204 C   0  0  0  0  0  0  0  0  0  0  0  0
   12.4652  -18.9996   18.3871 C   0  0  0  0  0  0  0  0  0  0  0  0
   13.6885  -19.2325   18.2268 O   0  0  0  0  0  0  0  0  0  0  0  0
   10.4282  -16.7517   22.0250 C   0  0  0  0  0  0  0  0  0  0  0  0
   10.7525  -15.5522   21.8590 O   0  0  0  0  0  0  0  0  0  0  0  0
   11.7216  -18.5869   17.3086 O   0  0  0  0  0  0  0  0  0  0  0  0
    9.0814  -17.0031   22.4120 N   0  0  0  0  0  0  0  0  0  0  0  0
    8.0997  -15.9846   22.5889 C   0  0  1  0  0  0  0  0  0  0  0  0
    6.7466  -16.6270   22.7455 C   0  0  0  0  0  0  0  0  0  0  0  0
    6.7198  -17.5304   23.9077 C   0  0  0  0  0  0  0  0  0  0  0  0
    7.7041  -18.3198   24.0497 O   0  0  0  0  0  0  0  0  0  0  0  0
    8.3358  -15.1808   23.8363 C   0  0  0  0  0  0  0  0  0  0  0  0
    8.1903  -13.9318   23.7913 O   0  0  0  0  0  0  0  0  0  0  0  0
    5.7351  -17.6119   24.8612 O   0  0  0  0  0  0  0  0  0  0  0  0
    8.2684  -11.7847   26.1462 C   0  0  0  0  0  0  0  0  0  0  0  0
    7.4458  -13.0089   25.8836 C   0  0  2  0  0  0  0  0  0  0  0  0
    6.0198  -12.6644   26.3841 C   0  0  0  0  0  0  0  0  0  0  0  0
    7.8233  -14.2449   26.5703 C   0  0  0  0  0  0  0  0  0  0  0  0
    9.0689  -14.9848   26.2587 C   0  0  2  0  0  0  0  0  0  0  0  0
    8.7115  -15.7697   25.0482 N   0  0  0  0  0  0  0  0  0  0  0  0
    9.5228  -15.8678   27.3163 C   0  0  0  0  0  0  0  0  0  0  0  0
   10.2409  -15.5618   28.4474 O   0  0  0  0  0  0  0  0  0  0  0  0
    9.2327  -17.1155   27.2004 O   0  0  0  0  0  0  0  0  0  0  0  0
  2  1  1  6
  2  7  1  0
  3  2  1  0
  3  4  1  0
  4  5  1  0
  5  6  2  0
  7  8  2  0
  9  5  1  0
 10 11  1  0
 10  7  1  0
 12 13  1  0
 11 12  1  1
 13 17  1  0
 14 13  2  0
 15 11  1  0
 15 16  2  0
 19 18  1  1
 19 21  1  0
 19 20  1  0
 22 21  1  1
 22 23  1  0
 22 24  1  0
 23 15  1  0
 24 26  2  0
 24 25  1  0
M  END
$$$$
