EDL.pdb
     RDKit          3D

 26 25  0  0  1  0  0  0  0  0999 V2000
    7.7917  -17.8790   19.5924 N   0  0  0  0  0  0  0  0  0  0  0  0
    8.7360  -17.3271   20.5561 C   0  0  1  0  0  0  0  0  0  0  0  0
    9.2847  -16.0586   19.9481 C   0  0  0  0  0  0  0  0  0  0  0  0
   10.2965  -15.3665   20.8175 C   0  0  0  0  0  0  0  0  0  0  0  0
   11.6516  -15.8830   20.4393 C   0  0  0  0  0  0  0  0  0  0  0  0
   12.4913  -16.2313   21.3053 O   0  0  0  0  0  0  0  0  0  0  0  0
    8.0840  -17.1352   21.8582 C   0  0  0  0  0  0  0  0  0  0  0  0
    6.9930  -16.5387   22.0174 O   0  0  0  0  0  0  0  0  0  0  0  0
   11.9890  -15.9802   19.1115 O   0  0  0  0  0  0  0  0  0  0  0  0
    8.7095  -17.6493   23.0292 N   0  0  0  0  0  0  0  0  0  0  0  0
    8.1672  -17.5258   24.3419 C   0  0  1  0  0  0  0  0  0  0  0  0
    8.3383  -18.8329   25.0701 C   0  0  0  0  0  0  0  0  0  0  0  0
    7.7745  -18.7611   26.4282 C   0  0  0  0  0  0  0  0  0  0  0  0
    8.5474  -19.0548   27.3918 O   0  0  0  0  0  0  0  0  0  0  0  0
    8.8860  -16.4878   25.1565 C   0  0  0  0  0  0  0  0  0  0  0  0
   10.1441  -16.4736   25.1497 O   0  0  0  0  0  0  0  0  0  0  0  0
    6.4911  -18.4090   26.7664 O   0  0  0  0  0  0  0  0  0  0  0  0
    7.6633  -11.9301   25.2825 C   0  0  0  0  0  0  0  0  0  0  0  0
    6.9964  -12.9251   26.1823 C   0  0  2  0  0  0  0  0  0  0  0  0
    5.9468  -12.1168   26.9870 C   0  0  0  0  0  0  0  0  0  0  0  0
    7.8246  -13.6077   27.1771 C   0  0  0  0  0  0  0  0  0  0  0  0
    8.8988  -14.5591   26.8070 C   0  0  2  0  0  0  0  0  0  0  0  0
    8.2079  -15.5343   25.9232 N   0  0  0  0  0  0  0  0  0  0  0  0
    9.5091  -15.2422   27.9317 C   0  0  0  0  0  0  0  0  0  0  0  0
    9.4368  -16.5704   28.2773 O   0  0  0  0  0  0  0  0  0  0  0  0
   10.2147  -14.5283   28.7359 O   0  0  0  0  0  0  0  0  0  0  0  0
  2  1  1  6
  2  7  1  0
  3  2  1  0
  3  4  1  0
  4  5  1  0
  5  6  2  0
  7  8  2  0
  9  5  1  0
 10 11  1  0
 10  7  1  0
 12 13  1  0
 11 12  1  1
 13 17  1  0
 14 13  2  0
 15 11  1  0
 15 16  2  0
 19 18  1  1
 19 21  1  0
 19 20  1  0
 22 21  1  1
 22 23  1  0
 22 24  1  0
 23 15  1  0
 24 26  2  0
 24 25  1  0
M  END
$$$$
