EDL.pdb
     RDKit          3D

 26 25  0  0  1  0  0  0  0  0999 V2000
   10.0982  -13.2570   19.6127 N   0  0  0  0  0  0  0  0  0  0  0  0
    8.6427  -13.3302   19.6469 C   0  0  1  0  0  0  0  0  0  0  0  0
    8.1948  -13.7119   18.2564 C   0  0  0  0  0  0  0  0  0  0  0  0
    8.6328  -15.0888   17.8428 C   0  0  0  0  0  0  0  0  0  0  0  0
    8.1620  -15.3138   16.4379 C   0  0  0  0  0  0  0  0  0  0  0  0
    7.6466  -14.3924   15.7583 O   0  0  0  0  0  0  0  0  0  0  0  0
    8.2023  -14.2596   20.6954 C   0  0  0  0  0  0  0  0  0  0  0  0
    7.0248  -14.3355   21.1189 O   0  0  0  0  0  0  0  0  0  0  0  0
    8.2958  -16.5589   15.8738 O   0  0  0  0  0  0  0  0  0  0  0  0
    9.1526  -15.1409   21.2846 N   0  0  0  0  0  0  0  0  0  0  0  0
    8.8586  -16.0226   22.3657 C   0  0  1  0  0  0  0  0  0  0  0  0
    9.7348  -17.2428   22.2579 C   0  0  0  0  0  0  0  0  0  0  0  0
   11.1553  -16.8685   22.1597 C   0  0  0  0  0  0  0  0  0  0  0  0
   11.8352  -16.8918   23.2318 O   0  0  0  0  0  0  0  0  0  0  0  0
    9.1570  -15.4012   23.7008 C   0  0  0  0  0  0  0  0  0  0  0  0
   10.2021  -14.7128   23.8310 O   0  0  0  0  0  0  0  0  0  0  0  0
   11.8283  -16.4925   21.0233 O   0  0  0  0  0  0  0  0  0  0  0  0
    8.3707  -11.7743   26.1890 C   0  0  0  0  0  0  0  0  0  0  0  0
    7.3566  -12.8256   25.8561 C   0  0  2  0  0  0  0  0  0  0  0  0
    6.0031  -12.2726   26.3707 C   0  0  0  0  0  0  0  0  0  0  0  0
    7.5116  -14.1430   26.4740 C   0  0  0  0  0  0  0  0  0  0  0  0
    8.6451  -15.0450   26.1615 C   0  0  2  0  0  0  0  0  0  0  0  0
    8.3149  -15.5590   24.8065 N   0  0  0  0  0  0  0  0  0  0  0  0
    8.8105  -16.1456   27.0918 C   0  0  0  0  0  0  0  0  0  0  0  0
    9.4356  -16.1547   28.3157 O   0  0  0  0  0  0  0  0  0  0  0  0
    8.3199  -17.2827   26.7446 O   0  0  0  0  0  0  0  0  0  0  0  0
  2  1  1  6
  2  7  1  0
  3  2  1  0
  3  4  1  0
  4  5  1  0
  5  6  2  0
  7  8  2  0
  9  5  1  0
 10 11  1  0
 10  7  1  0
 12 13  1  0
 11 12  1  6
 13 17  1  0
 14 13  2  0
 15 11  1  0
 15 16  2  0
 19 18  1  1
 19 21  1  0
 19 20  1  0
 22 21  1  1
 22 23  1  0
 22 24  1  0
 23 15  1  0
 24 26  2  0
 24 25  1  0
M  END
$$$$
