EDL.pdb
     RDKit          3D

 26 25  0  0  1  0  0  0  0  0999 V2000
   12.7978  -17.7886   20.8303 N   0  0  0  0  0  0  0  0  0  0  0  0
   11.5267  -17.2708   20.3394 C   0  0  1  0  0  0  0  0  0  0  0  0
   11.1471  -18.1135   19.1454 C   0  0  0  0  0  0  0  0  0  0  0  0
   12.2936  -18.3789   18.2107 C   0  0  0  0  0  0  0  0  0  0  0  0
   11.7643  -19.1711   17.0538 C   0  0  0  0  0  0  0  0  0  0  0  0
   11.3157  -20.3347   17.2000 O   0  0  0  0  0  0  0  0  0  0  0  0
   10.5262  -17.2686   21.4147 C   0  0  0  0  0  0  0  0  0  0  0  0
    9.3374  -16.8985   21.2686 O   0  0  0  0  0  0  0  0  0  0  0  0
   11.7673  -18.6143   15.7983 O   0  0  0  0  0  0  0  0  0  0  0  0
   10.9043  -17.7099   22.7144 N   0  0  0  0  0  0  0  0  0  0  0  0
   10.0271  -17.7229   23.8381 C   0  0  1  0  0  0  0  0  0  0  0  0
   10.4345  -18.8356   24.7677 C   0  0  0  0  0  0  0  0  0  0  0  0
   10.0158  -20.1456   24.2423 C   0  0  0  0  0  0  0  0  0  0  0  0
    8.8656  -20.2143   23.7089 O   0  0  0  0  0  0  0  0  0  0  0  0
   10.1083  -16.4517   24.6350 C   0  0  0  0  0  0  0  0  0  0  0  0
   11.2398  -15.9589   24.8800 O   0  0  0  0  0  0  0  0  0  0  0  0
   10.7420  -21.3107   24.2690 O   0  0  0  0  0  0  0  0  0  0  0  0
    5.7505  -12.6967   26.9095 C   0  0  0  0  0  0  0  0  0  0  0  0
    7.2241  -12.9303   26.7747 C   0  0  2  0  0  0  0  0  0  0  0  0
    7.7853  -11.6534   26.0985 C   0  0  0  0  0  0  0  0  0  0  0  0
    7.6640  -14.0505   25.9422 C   0  0  0  0  0  0  0  0  0  0  0  0
    9.0332  -14.6124   26.0154 C   0  0  2  0  0  0  0  0  0  0  0  0
    8.9712  -15.7936   25.1153 N   0  0  0  0  0  0  0  0  0  0  0  0
    9.4467  -15.0141   27.3465 C   0  0  0  0  0  0  0  0  0  0  0  0
    9.2946  -16.2308   27.9672 O   0  0  0  0  0  0  0  0  0  0  0  0
   10.0322  -14.1259   28.0693 O   0  0  0  0  0  0  0  0  0  0  0  0
  2  1  1  1
  2  7  1  0
  3  2  1  0
  3  4  1  0
  4  5  1  0
  5  6  2  0
  7  8  2  0
  9  5  1  0
 10 11  1  0
 10  7  1  0
 12 13  1  0
 11 12  1  1
 13 17  1  0
 14 13  2  0
 15 11  1  0
 15 16  2  0
 19 18  1  6
 19 21  1  0
 19 20  1  0
 22 21  1  1
 22 23  1  0
 22 24  1  0
 23 15  1  0
 24 26  2  0
 24 25  1  0
M  END
$$$$
