EDL.pdb
     RDKit          3D

 26 25  0  0  1  0  0  0  0  0999 V2000
    8.5984  -15.9675   18.7520 N   0  0  0  0  0  0  0  0  0  0  0  0
    8.5553  -14.9008   19.7446 C   0  0  1  0  0  0  0  0  0  0  0  0
    7.4849  -13.9346   19.2968 C   0  0  0  0  0  0  0  0  0  0  0  0
    7.9774  -12.9066   18.3174 C   0  0  0  0  0  0  0  0  0  0  0  0
    8.2563  -13.6077   17.0226 C   0  0  0  0  0  0  0  0  0  0  0  0
    9.4079  -13.6396   16.5232 O   0  0  0  0  0  0  0  0  0  0  0  0
    8.3369  -15.4590   21.0855 C   0  0  0  0  0  0  0  0  0  0  0  0
    7.2115  -15.7646   21.5454 O   0  0  0  0  0  0  0  0  0  0  0  0
    7.2287  -14.2337   16.3605 O   0  0  0  0  0  0  0  0  0  0  0  0
    9.4571  -15.6766   21.9368 N   0  0  0  0  0  0  0  0  0  0  0  0
    9.4006  -16.4144   23.1554 C   0  0  1  0  0  0  0  0  0  0  0  0
   10.4519  -17.4924   23.1273 C   0  0  0  0  0  0  0  0  0  0  0  0
   10.4116  -18.3045   24.3547 C   0  0  0  0  0  0  0  0  0  0  0  0
    9.2669  -18.5677   24.8369 O   0  0  0  0  0  0  0  0  0  0  0  0
    9.7026  -15.5567   24.3515 C   0  0  0  0  0  0  0  0  0  0  0  0
   10.8067  -14.9556   24.4054 O   0  0  0  0  0  0  0  0  0  0  0  0
   11.4887  -18.8104   25.0397 O   0  0  0  0  0  0  0  0  0  0  0  0
    7.9079  -11.6792   25.7643 C   0  0  0  0  0  0  0  0  0  0  0  0
    7.2183  -12.9872   26.0054 C   0  0  2  0  0  0  0  0  0  0  0  0
    5.8452  -12.6229   26.6255 C   0  0  0  0  0  0  0  0  0  0  0  0
    7.8426  -13.9258   26.9385 C   0  0  0  0  0  0  0  0  0  0  0  0
    9.1139  -14.6258   26.6386 C   0  0  2  0  0  0  0  0  0  0  0  0
    8.8007  -15.4004   25.4093 N   0  0  0  0  0  0  0  0  0  0  0  0
    9.5730  -15.5131   27.6904 C   0  0  0  0  0  0  0  0  0  0  0  0
    9.6107  -16.8868   27.7054 O   0  0  0  0  0  0  0  0  0  0  0  0
   10.0023  -14.9645   28.7715 O   0  0  0  0  0  0  0  0  0  0  0  0
  2  1  1  6
  2  7  1  0
  3  2  1  0
  3  4  1  0
  4  5  1  0
  5  6  2  0
  7  8  2  0
  9  5  1  0
 10 11  1  0
 10  7  1  0
 12 13  1  0
 11 12  1  6
 13 17  1  0
 14 13  2  0
 15 11  1  0
 15 16  2  0
 19 18  1  1
 19 21  1  0
 19 20  1  0
 22 21  1  1
 22 23  1  0
 22 24  1  0
 23 15  1  0
 24 26  2  0
 24 25  1  0
M  END
$$$$
