EDL.pdb
     RDKit          3D

 26 25  0  0  1  0  0  0  0  0999 V2000
    9.5727  -15.6812   19.6934 N   0  0  0  0  0  0  0  0  0  0  0  0
    8.2607  -15.4226   20.2737 C   0  0  1  0  0  0  0  0  0  0  0  0
    7.2558  -16.1566   19.4186 C   0  0  0  0  0  0  0  0  0  0  0  0
    7.8115  -16.6116   18.0984 C   0  0  0  0  0  0  0  0  0  0  0  0
    6.7549  -17.4261   17.4157 C   0  0  0  0  0  0  0  0  0  0  0  0
    5.6843  -17.7371   17.9933 O   0  0  0  0  0  0  0  0  0  0  0  0
    8.2423  -15.8128   21.6896 C   0  0  0  0  0  0  0  0  0  0  0  0
    7.2292  -15.7445   22.4249 O   0  0  0  0  0  0  0  0  0  0  0  0
    6.9577  -17.8460   16.1238 O   0  0  0  0  0  0  0  0  0  0  0  0
    9.4369  -16.3027   22.2894 N   0  0  0  0  0  0  0  0  0  0  0  0
    9.5151  -16.7908   23.6266 C   0  0  1  0  0  0  0  0  0  0  0  0
   10.6460  -17.7805   23.7239 C   0  0  0  0  0  0  0  0  0  0  0  0
   10.1914  -19.1399   23.3881 C   0  0  0  0  0  0  0  0  0  0  0  0
    8.9436  -19.3088   23.2248 O   0  0  0  0  0  0  0  0  0  0  0  0
    9.8202  -15.6980   24.6117 C   0  0  0  0  0  0  0  0  0  0  0  0
   10.8717  -15.0229   24.4644 O   0  0  0  0  0  0  0  0  0  0  0  0
   10.9792  -20.2538   23.2327 O   0  0  0  0  0  0  0  0  0  0  0  0
    8.0597  -11.7017   25.3967 C   0  0  0  0  0  0  0  0  0  0  0  0
    7.3884  -12.9374   25.9133 C   0  0  2  0  0  0  0  0  0  0  0  0
    6.0464  -12.4559   26.5213 C   0  0  0  0  0  0  0  0  0  0  0  0
    8.0623  -13.6872   26.9740 C   0  0  0  0  0  0  0  0  0  0  0  0
    9.3282  -14.4249   26.7521 C   0  0  2  0  0  0  0  0  0  0  0  0
    8.9774  -15.4018   25.6882 N   0  0  0  0  0  0  0  0  0  0  0  0
    9.8338  -15.1152   27.9235 C   0  0  0  0  0  0  0  0  0  0  0  0
   10.4980  -14.5985   29.0100 O   0  0  0  0  0  0  0  0  0  0  0  0
    9.6555  -16.3879   27.9740 O   0  0  0  0  0  0  0  0  0  0  0  0
  2  1  1  6
  2  7  1  0
  3  2  1  0
  3  4  1  0
  4  5  1  0
  5  6  2  0
  7  8  2  0
  9  5  1  0
 10 11  1  0
 10  7  1  0
 12 13  1  0
 11 12  1  6
 13 17  1  0
 14 13  2  0
 15 11  1  0
 15 16  2  0
 19 18  1  1
 19 21  1  0
 19 20  1  0
 22 21  1  1
 22 23  1  0
 22 24  1  0
 23 15  1  0
 24 26  2  0
 24 25  1  0
M  END
$$$$
