EDL.pdb
     RDKit          3D

 26 25  0  0  1  0  0  0  0  0999 V2000
   10.1953  -19.3823   21.4087 N   0  0  0  0  0  0  0  0  0  0  0  0
   10.1865  -18.1402   20.6458 C   0  0  1  0  0  0  0  0  0  0  0  0
    9.8226  -18.5054   19.2266 C   0  0  0  0  0  0  0  0  0  0  0  0
    9.8853  -17.3443   18.2744 C   0  0  0  0  0  0  0  0  0  0  0  0
    9.4349  -17.8321   16.9309 C   0  0  0  0  0  0  0  0  0  0  0  0
    8.6039  -17.1926   16.2403 O   0  0  0  0  0  0  0  0  0  0  0  0
    9.2793  -17.1658   21.2661 C   0  0  0  0  0  0  0  0  0  0  0  0
    9.0940  -16.0034   20.8346 O   0  0  0  0  0  0  0  0  0  0  0  0
    9.9414  -19.0093   16.4370 O   0  0  0  0  0  0  0  0  0  0  0  0
    8.5526  -17.5394   22.4319 N   0  0  0  0  0  0  0  0  0  0  0  0
    7.6643  -16.6699   23.1300 C   0  0  1  0  0  0  0  0  0  0  0  0
    6.6537  -17.4973   23.8798 C   0  0  0  0  0  0  0  0  0  0  0  0
    7.3054  -18.5985   24.6080 C   0  0  0  0  0  0  0  0  0  0  0  0
    8.5692  -18.6825   24.5196 O   0  0  0  0  0  0  0  0  0  0  0  0
    8.3777  -15.8366   24.1568 C   0  0  0  0  0  0  0  0  0  0  0  0
    9.0901  -14.8742   23.7704 O   0  0  0  0  0  0  0  0  0  0  0  0
    6.6869  -19.5527   25.3777 O   0  0  0  0  0  0  0  0  0  0  0  0
    8.3841  -12.0016   25.7474 C   0  0  0  0  0  0  0  0  0  0  0  0
    7.4006  -13.1273   25.8478 C   0  0  2  0  0  0  0  0  0  0  0  0
    6.0846  -12.4831   26.3536 C   0  0  0  0  0  0  0  0  0  0  0  0
    7.6996  -14.2132   26.7820 C   0  0  0  0  0  0  0  0  0  0  0  0
    8.8109  -15.1699   26.5676 C   0  0  2  0  0  0  0  0  0  0  0  0
    8.2793  -16.0906   25.5289 N   0  0  0  0  0  0  0  0  0  0  0  0
    9.1984  -15.9144   27.7507 C   0  0  0  0  0  0  0  0  0  0  0  0
   10.0367  -15.5366   28.7721 O   0  0  0  0  0  0  0  0  0  0  0  0
    8.7100  -17.0969   27.8828 O   0  0  0  0  0  0  0  0  0  0  0  0
  2  1  1  1
  2  7  1  0
  3  2  1  0
  3  4  1  0
  4  5  1  0
  5  6  2  0
  7  8  2  0
  9  5  1  0
 10 11  1  0
 10  7  1  0
 12 13  1  0
 11 12  1  1
 13 17  1  0
 14 13  2  0
 15 11  1  0
 15 16  2  0
 19 18  1  1
 19 21  1  0
 19 20  1  0
 22 21  1  1
 22 23  1  0
 22 24  1  0
 23 15  1  0
 24 26  2  0
 24 25  1  0
M  END
$$$$
