EDL.pdb
     RDKit          3D

 26 25  0  0  1  0  0  0  0  0999 V2000
    6.9584  -17.0506   19.5473 N   0  0  0  0  0  0  0  0  0  0  0  0
    8.2273  -16.7602   20.2034 C   0  0  1  0  0  0  0  0  0  0  0  0
    8.7765  -15.5132   19.5530 C   0  0  0  0  0  0  0  0  0  0  0  0
    7.8547  -14.3302   19.6517 C   0  0  0  0  0  0  0  0  0  0  0  0
    8.5802  -13.1401   19.1009 C   0  0  0  0  0  0  0  0  0  0  0  0
    8.0504  -12.3755   18.2576 O   0  0  0  0  0  0  0  0  0  0  0  0
    8.0374  -16.6457   21.6554 C   0  0  0  0  0  0  0  0  0  0  0  0
    6.9731  -16.2652   22.1977 O   0  0  0  0  0  0  0  0  0  0  0  0
    9.8586  -12.8740   19.5266 O   0  0  0  0  0  0  0  0  0  0  0  0
    9.1141  -16.9818   22.5241 N   0  0  0  0  0  0  0  0  0  0  0  0
    8.9864  -17.1117   23.9380 C   0  0  1  0  0  0  0  0  0  0  0  0
    9.9040  -18.2058   24.4166 C   0  0  0  0  0  0  0  0  0  0  0  0
    9.4864  -19.5160   23.8906 C   0  0  0  0  0  0  0  0  0  0  0  0
    8.3175  -19.9130   24.1880 O   0  0  0  0  0  0  0  0  0  0  0  0
    9.4013  -15.8618   24.6615 C   0  0  0  0  0  0  0  0  0  0  0  0
   10.5329  -15.3671   24.4206 O   0  0  0  0  0  0  0  0  0  0  0  0
   10.2327  -20.3617   23.1075 O   0  0  0  0  0  0  0  0  0  0  0  0
    7.2643  -11.8864   25.0896 C   0  0  0  0  0  0  0  0  0  0  0  0
    6.8505  -12.9999   26.0025 C   0  0  2  0  0  0  0  0  0  0  0  0
    5.6806  -12.4309   26.8453 C   0  0  0  0  0  0  0  0  0  0  0  0
    7.8349  -13.4936   26.9662 C   0  0  0  0  0  0  0  0  0  0  0  0
    9.0682  -14.2058   26.5564 C   0  0  2  0  0  0  0  0  0  0  0  0
    8.5753  -15.2257   25.5941 N   0  0  0  0  0  0  0  0  0  0  0  0
    9.7826  -14.8441   27.6457 C   0  0  0  0  0  0  0  0  0  0  0  0
    9.9171  -16.1836   27.9219 O   0  0  0  0  0  0  0  0  0  0  0  0
   10.3746  -14.0726   28.4874 O   0  0  0  0  0  0  0  0  0  0  0  0
  2  1  1  6
  2  7  1  0
  3  2  1  0
  3  4  1  0
  4  5  1  0
  5  6  2  0
  7  8  2  0
  9  5  1  0
 10 11  1  0
 10  7  1  0
 12 13  1  0
 11 12  1  1
 13 17  1  0
 14 13  2  0
 15 11  1  0
 15 16  2  0
 19 18  1  1
 19 21  1  0
 19 20  1  0
 22 21  1  1
 22 23  1  0
 22 24  1  0
 23 15  1  0
 24 26  2  0
 24 25  1  0
M  END
$$$$
