EDL.pdb
     RDKit          3D

 26 25  0  0  1  0  0  0  0  0999 V2000
   10.5303  -13.1374   19.8513 N   0  0  0  0  0  0  0  0  0  0  0  0
    9.0896  -13.2455   20.0451 C   0  0  1  0  0  0  0  0  0  0  0  0
    8.4832  -13.4624   18.6795 C   0  0  0  0  0  0  0  0  0  0  0  0
    9.0223  -14.6727   17.9700 C   0  0  0  0  0  0  0  0  0  0  0  0
    8.1732  -14.9059   16.7574 C   0  0  0  0  0  0  0  0  0  0  0  0
    7.1247  -15.5949   16.8076 O   0  0  0  0  0  0  0  0  0  0  0  0
    8.7824  -14.3063   21.0134 C   0  0  0  0  0  0  0  0  0  0  0  0
    7.6228  -14.6074   21.3826 O   0  0  0  0  0  0  0  0  0  0  0  0
    8.5469  -14.3534   15.5568 O   0  0  0  0  0  0  0  0  0  0  0  0
    9.8506  -15.0550   21.5838 N   0  0  0  0  0  0  0  0  0  0  0  0
    9.6746  -16.0732   22.5661 C   0  0  1  0  0  0  0  0  0  0  0  0
   10.7742  -17.0920   22.4215 C   0  0  0  0  0  0  0  0  0  0  0  0
   10.5785  -17.9160   21.2172 C   0  0  0  0  0  0  0  0  0  0  0  0
    9.4328  -18.4383   21.0534 O   0  0  0  0  0  0  0  0  0  0  0  0
    9.7754  -15.5341   23.9650 C   0  0  0  0  0  0  0  0  0  0  0  0
   10.8872  -15.1110   24.3749 O   0  0  0  0  0  0  0  0  0  0  0  0
   11.5109  -18.1833   20.2453 O   0  0  0  0  0  0  0  0  0  0  0  0
    8.1261  -11.9247   26.2730 C   0  0  0  0  0  0  0  0  0  0  0  0
    7.2186  -13.0670   25.9325 C   0  0  2  0  0  0  0  0  0  0  0  0
    5.8248  -12.6654   26.4792 C   0  0  0  0  0  0  0  0  0  0  0  0
    7.5173  -14.3739   26.5192 C   0  0  0  0  0  0  0  0  0  0  0  0
    8.7855  -15.0958   26.2611 C   0  0  2  0  0  0  0  0  0  0  0  0
    8.6775  -15.4844   24.8305 N   0  0  0  0  0  0  0  0  0  0  0  0
    8.9867  -16.2700   27.0887 C   0  0  0  0  0  0  0  0  0  0  0  0
    9.5208  -16.3542   28.3522 O   0  0  0  0  0  0  0  0  0  0  0  0
    8.6317  -17.4023   26.5926 O   0  0  0  0  0  0  0  0  0  0  0  0
  2  1  1  6
  2  7  1  0
  3  2  1  0
  3  4  1  0
  4  5  1  0
  5  6  2  0
  7  8  2  0
  9  5  1  0
 10 11  1  0
 10  7  1  0
 12 13  1  0
 11 12  1  6
 13 17  1  0
 14 13  2  0
 15 11  1  0
 15 16  2  0
 19 18  1  1
 19 21  1  0
 19 20  1  0
 22 21  1  1
 22 23  1  0
 22 24  1  0
 23 15  1  0
 24 26  2  0
 24 25  1  0
M  END
$$$$
