EDL.pdb
     RDKit          3D

 26 25  0  0  1  0  0  0  0  0999 V2000
    8.4047  -13.0865   18.9808 N   0  0  0  0  0  0  0  0  0  0  0  0
    8.7796  -14.4424   19.3630 C   0  0  1  0  0  0  0  0  0  0  0  0
   10.2707  -14.5552   19.1547 C   0  0  0  0  0  0  0  0  0  0  0  0
   11.0435  -13.3949   19.7161 C   0  0  0  0  0  0  0  0  0  0  0  0
   12.5003  -13.6673   19.4935 C   0  0  0  0  0  0  0  0  0  0  0  0
   13.3476  -13.5182   20.4080 O   0  0  0  0  0  0  0  0  0  0  0  0
    8.3424  -14.7256   20.7363 C   0  0  0  0  0  0  0  0  0  0  0  0
    7.7404  -13.9034   21.4665 O   0  0  0  0  0  0  0  0  0  0  0  0
   12.9253  -14.0916   18.2583 O   0  0  0  0  0  0  0  0  0  0  0  0
    8.6067  -16.0069   21.2978 N   0  0  0  0  0  0  0  0  0  0  0  0
    8.0989  -16.4460   22.5555 C   0  0  1  0  0  0  0  0  0  0  0  0
    8.2823  -17.9366   22.6670 C   0  0  0  0  0  0  0  0  0  0  0  0
    7.4707  -18.6472   21.6650 C   0  0  0  0  0  0  0  0  0  0  0  0
    6.2088  -18.5618   21.7765 O   0  0  0  0  0  0  0  0  0  0  0  0
    8.8434  -15.8382   23.7104 C   0  0  0  0  0  0  0  0  0  0  0  0
   10.1014  -15.8645   23.7043 O   0  0  0  0  0  0  0  0  0  0  0  0
    7.9368  -19.3995   20.6151 O   0  0  0  0  0  0  0  0  0  0  0  0
    8.0908  -11.7364   24.9809 C   0  0  0  0  0  0  0  0  0  0  0  0
    7.2914  -12.7874   25.6886 C   0  0  2  0  0  0  0  0  0  0  0  0
    6.3203  -12.0137   26.6166 C   0  0  0  0  0  0  0  0  0  0  0  0
    8.0099  -13.7243   26.5531 C   0  0  0  0  0  0  0  0  0  0  0  0
    8.8954  -14.7865   26.0203 C   0  0  2  0  0  0  0  0  0  0  0  0
    8.1896  -15.2426   24.7942 N   0  0  0  0  0  0  0  0  0  0  0  0
    9.1069  -15.9010   26.9244 C   0  0  0  0  0  0  0  0  0  0  0  0
    8.7050  -17.2085   26.7915 O   0  0  0  0  0  0  0  0  0  0  0  0
    9.7502  -15.6576   28.0112 O   0  0  0  0  0  0  0  0  0  0  0  0
  2  1  1  1
  2  7  1  0
  3  2  1  0
  3  4  1  0
  4  5  1  0
  5  6  2  0
  7  8  2  0
  9  5  1  0
 10 11  1  0
 10  7  1  0
 12 13  1  0
 11 12  1  6
 13 17  1  0
 14 13  2  0
 15 11  1  0
 15 16  2  0
 19 18  1  1
 19 21  1  0
 19 20  1  0
 22 21  1  1
 22 23  1  0
 22 24  1  0
 23 15  1  0
 24 26  2  0
 24 25  1  0
M  END
$$$$
