EDL.pdb
     RDKit          3D

 26 25  0  0  1  0  0  0  0  0999 V2000
   10.3723  -15.7931   19.7611 N   0  0  0  0  0  0  0  0  0  0  0  0
    9.0246  -15.4400   20.1899 C   0  0  1  0  0  0  0  0  0  0  0  0
    8.0768  -16.0370   19.1775 C   0  0  0  0  0  0  0  0  0  0  0  0
    8.3263  -17.4948   18.9102 C   0  0  0  0  0  0  0  0  0  0  0  0
    7.2269  -17.9894   18.0198 C   0  0  0  0  0  0  0  0  0  0  0  0
    6.3496  -17.2167   17.5619 O   0  0  0  0  0  0  0  0  0  0  0  0
    8.7922  -15.8910   21.5683 C   0  0  0  0  0  0  0  0  0  0  0  0
    7.7142  -15.7321   22.1881 O   0  0  0  0  0  0  0  0  0  0  0  0
    7.1730  -19.3222   17.6928 O   0  0  0  0  0  0  0  0  0  0  0  0
    9.8410  -16.5533   22.2672 N   0  0  0  0  0  0  0  0  0  0  0  0
    9.7283  -17.0333   23.6049 C   0  0  1  0  0  0  0  0  0  0  0  0
   10.7637  -18.1028   23.8329 C   0  0  0  0  0  0  0  0  0  0  0  0
   10.6237  -18.6996   25.1715 C   0  0  0  0  0  0  0  0  0  0  0  0
    9.4681  -19.1057   25.5059 O   0  0  0  0  0  0  0  0  0  0  0  0
    9.9985  -15.9567   24.6176 C   0  0  0  0  0  0  0  0  0  0  0  0
   11.0942  -15.3398   24.5715 O   0  0  0  0  0  0  0  0  0  0  0  0
   11.6174  -18.8638   26.1048 O   0  0  0  0  0  0  0  0  0  0  0  0
    7.8984  -11.9058   25.3436 C   0  0  0  0  0  0  0  0  0  0  0  0
    7.3434  -13.2275   25.7789 C   0  0  2  0  0  0  0  0  0  0  0  0
    5.9232  -12.9220   26.3196 C   0  0  0  0  0  0  0  0  0  0  0  0
    8.0368  -13.9379   26.8540 C   0  0  0  0  0  0  0  0  0  0  0  0
    9.3500  -14.5968   26.6607 C   0  0  2  0  0  0  0  0  0  0  0  0
    9.0760  -15.6134   25.6116 N   0  0  0  0  0  0  0  0  0  0  0  0
    9.8839  -15.2316   27.8507 C   0  0  0  0  0  0  0  0  0  0  0  0
    9.9955  -16.5709   28.1383 O   0  0  0  0  0  0  0  0  0  0  0  0
   10.3120  -14.4571   28.7840 O   0  0  0  0  0  0  0  0  0  0  0  0
  2  1  1  6
  2  7  1  0
  3  2  1  0
  3  4  1  0
  4  5  1  0
  5  6  2  0
  7  8  2  0
  9  5  1  0
 10 11  1  0
 10  7  1  0
 12 13  1  0
 11 12  1  6
 13 17  1  0
 14 13  2  0
 15 11  1  0
 15 16  2  0
 19 18  1  1
 19 21  1  0
 19 20  1  0
 22 21  1  1
 22 23  1  0
 22 24  1  0
 23 15  1  0
 24 26  2  0
 24 25  1  0
M  END
$$$$
