EDL.pdb
     RDKit          3D

 26 25  0  0  1  0  0  0  0  0999 V2000
    9.4687  -14.8251   19.9022 N   0  0  0  0  0  0  0  0  0  0  0  0
    8.1836  -15.3300   20.3694 C   0  0  1  0  0  0  0  0  0  0  0  0
    7.7166  -16.3391   19.3479 C   0  0  0  0  0  0  0  0  0  0  0  0
    6.4154  -16.9989   19.7089 C   0  0  0  0  0  0  0  0  0  0  0  0
    6.1545  -18.0748   18.6989 C   0  0  0  0  0  0  0  0  0  0  0  0
    5.7417  -19.2116   19.0362 O   0  0  0  0  0  0  0  0  0  0  0  0
    8.3101  -15.8683   21.7301 C   0  0  0  0  0  0  0  0  0  0  0  0
    7.3376  -16.1949   22.4506 O   0  0  0  0  0  0  0  0  0  0  0  0
    6.3709  -17.8159   17.3675 O   0  0  0  0  0  0  0  0  0  0  0  0
    9.6078  -16.0400   22.2899 N   0  0  0  0  0  0  0  0  0  0  0  0
    9.8509  -16.5735   23.5895 C   0  0  1  0  0  0  0  0  0  0  0  0
   11.1652  -17.3089   23.5816 C   0  0  0  0  0  0  0  0  0  0  0  0
   11.0430  -18.6059   22.8958 C   0  0  0  0  0  0  0  0  0  0  0  0
   10.0068  -19.2964   23.1443 O   0  0  0  0  0  0  0  0  0  0  0  0
    9.9722  -15.4967   24.6304 C   0  0  0  0  0  0  0  0  0  0  0  0
   10.9208  -14.6743   24.5468 O   0  0  0  0  0  0  0  0  0  0  0  0
   11.9380  -19.1534   22.0100 O   0  0  0  0  0  0  0  0  0  0  0  0
    8.0165  -11.6642   25.5291 C   0  0  0  0  0  0  0  0  0  0  0  0
    7.3473  -12.9596   25.8736 C   0  0  2  0  0  0  0  0  0  0  0  0
    5.9281  -12.5746   26.3638 C   0  0  0  0  0  0  0  0  0  0  0  0
    7.9347  -13.7677   26.9429 C   0  0  0  0  0  0  0  0  0  0  0  0
    9.2585  -14.4216   26.8164 C   0  0  2  0  0  0  0  0  0  0  0  0
    9.0682  -15.3734   25.6908 N   0  0  0  0  0  0  0  0  0  0  0  0
    9.6948  -15.1282   28.0058 C   0  0  0  0  0  0  0  0  0  0  0  0
   10.2763  -14.6243   29.1445 O   0  0  0  0  0  0  0  0  0  0  0  0
    9.5334  -16.4041   28.0195 O   0  0  0  0  0  0  0  0  0  0  0  0
  2  1  1  6
  2  7  1  0
  3  2  1  0
  3  4  1  0
  4  5  1  0
  5  6  2  0
  7  8  2  0
  9  5  1  0
 10 11  1  0
 10  7  1  0
 12 13  1  0
 11 12  1  6
 13 17  1  0
 14 13  2  0
 15 11  1  0
 15 16  2  0
 19 18  1  1
 19 21  1  0
 19 20  1  0
 22 21  1  1
 22 23  1  0
 22 24  1  0
 23 15  1  0
 24 26  2  0
 24 25  1  0
M  END
$$$$
