KVD.pdb
     RDKit          3D

 25 24  0  0  1  0  0  0  0  0999 V2000
   22.2413  -17.6000  -15.4746 N   0  0  0  0  0  0  0  0  0  0  0  0
   22.1364  -16.3830  -16.2415 C   0  0  1  0  0  0  0  0  0  0  0  0
   20.6867  -16.1231  -16.6506 C   0  0  0  0  0  0  0  0  0  0  0  0
   20.0319  -17.4224  -17.0660 C   0  0  0  0  0  0  0  0  0  0  0  0
   18.6001  -17.1240  -17.4293 C   0  0  0  0  0  0  0  0  0  0  0  0
   17.8710  -18.4001  -17.8506 C   0  0  0  0  0  0  0  0  0  0  0  0
   16.4920  -18.0584  -18.1366 N   0  0  0  0  0  0  0  0  0  0  0  0
   22.6557  -15.2411  -15.4452 C   0  0  0  0  0  0  0  0  0  0  0  0
   22.2840  -15.1511  -14.2398 O   0  0  0  0  0  0  0  0  0  0  0  0
   26.1902  -14.2120  -14.9138 C   0  0  0  0  0  0  0  0  0  0  0  0
   25.5115  -13.0088  -15.4804 C   0  0  2  0  0  0  0  0  0  0  0  0
   25.9001  -11.7277  -14.7783 C   0  0  0  0  0  0  0  0  0  0  0  0
   24.0126  -13.1664  -15.3257 C   0  0  2  0  0  0  0  0  0  0  0  0
   23.5329  -14.3038  -16.0403 N   0  0  0  0  0  0  0  0  0  0  0  0
   23.2902  -11.9590  -15.8310 C   0  0  0  0  0  0  0  0  0  0  0  0
   22.8511  -11.8655  -17.0040 O   0  0  0  0  0  0  0  0  0  0  0  0
   23.0580  -10.8165  -14.9727 N   0  0  0  0  0  0  0  0  0  0  0  0
   22.1590   -9.7670  -15.4011 C   0  0  1  0  0  0  0  0  0  0  0  0
   20.7818  -10.3544  -15.5681 C   0  0  0  0  0  0  0  0  0  0  0  0
   19.8499   -9.2942  -15.9892 C   0  0  0  0  0  0  0  0  0  0  0  0
   20.1183   -8.4113  -16.8372 O   0  0  0  0  0  0  0  0  0  0  0  0
   22.1026   -8.6541  -14.4307 C   0  0  0  0  0  0  0  0  0  0  0  0
   21.5612   -7.5755  -14.7599 O   0  0  0  0  0  0  0  0  0  0  0  0
   18.5515   -9.1984  -15.4490 O   0  0  0  0  0  0  0  0  0  0  0  0
   22.6325   -8.7648  -13.1598 O   0  0  0  0  0  0  0  0  0  0  0  0
  2  1  1  1
  3  4  1  0
  3  2  1  0
  5  6  1  0
  5  4  1  0
  6  7  1  0
  8  9  2  0
  8  2  1  0
 11 10  1  1
 11 13  1  0
 11 12  1  0
 13 14  1  6
 14  8  1  0
 15 13  1  0
 16 15  2  0
 17 15  1  0
 18 22  1  0
 18 17  1  0
 18 19  1  1
 20 21  2  0
 20 19  1  0
 22 25  1  0
 23 22  2  0
 24 20  1  0
M  END
$$$$
