KVD.pdb
     RDKit          3D

 25 24  0  0  1  0  0  0  0  0999 V2000
   17.4930  -12.6822  -18.7742 N   0  0  0  0  0  0  0  0  0  0  0  0
   17.7348  -11.9921  -17.5310 C   0  0  1  0  0  0  0  0  0  0  0  0
   18.8625  -12.6642  -16.7481 C   0  0  0  0  0  0  0  0  0  0  0  0
   19.1492  -14.0292  -17.3345 C   0  0  0  0  0  0  0  0  0  0  0  0
   20.2501  -14.6606  -16.5218 C   0  0  0  0  0  0  0  0  0  0  0  0
   20.5600  -16.0685  -17.0309 C   0  0  0  0  0  0  0  0  0  0  0  0
   21.6065  -16.6288  -16.1997 N   0  0  0  0  0  0  0  0  0  0  0  0
   18.0767  -10.5719  -17.8030 C   0  0  0  0  0  0  0  0  0  0  0  0
   18.8590  -10.3327  -18.7674 O   0  0  0  0  0  0  0  0  0  0  0  0
   15.9455   -7.9626  -18.9398 C   0  0  0  0  0  0  0  0  0  0  0  0
   16.4455   -7.4644  -17.6240 C   0  0  2  0  0  0  0  0  0  0  0  0
   16.7274   -5.9793  -17.6246 C   0  0  0  0  0  0  0  0  0  0  0  0
   17.7460   -8.1663  -17.2900 C   0  0  2  0  0  0  0  0  0  0  0  0
   17.5319   -9.5454  -16.9958 N   0  0  0  0  0  0  0  0  0  0  0  0
   18.4097   -7.5346  -16.1087 C   0  0  0  0  0  0  0  0  0  0  0  0
   17.9824   -7.6624  -14.9345 O   0  0  0  0  0  0  0  0  0  0  0  0
   19.6019   -6.7287  -16.2668 N   0  0  0  0  0  0  0  0  0  0  0  0
   20.1899   -6.0818  -15.1140 C   0  0  1  0  0  0  0  0  0  0  0  0
   21.6882   -6.2104  -15.2047 C   0  0  0  0  0  0  0  0  0  0  0  0
   22.3020   -5.5757  -14.0256 C   0  0  0  0  0  0  0  0  0  0  0  0
   22.7306   -4.3985  -13.9979 O   0  0  0  0  0  0  0  0  0  0  0  0
   19.8248   -4.6523  -15.0334 C   0  0  0  0  0  0  0  0  0  0  0  0
   19.6618   -3.9970  -16.0864 O   0  0  0  0  0  0  0  0  0  0  0  0
   22.4532   -6.2727  -12.8098 O   0  0  0  0  0  0  0  0  0  0  0  0
   19.6555   -4.0082  -13.8231 O   0  0  0  0  0  0  0  0  0  0  0  0
  2  1  1  6
  3  4  1  0
  3  2  1  0
  5  6  1  0
  5  4  1  0
  6  7  1  0
  8  9  2  0
  8  2  1  0
 11 10  1  6
 11 13  1  0
 11 12  1  0
 13 14  1  1
 14  8  1  0
 15 13  1  0
 16 15  2  0
 17 15  1  0
 18 22  1  0
 18 17  1  0
 18 19  1  6
 20 21  2  0
 20 19  1  0
 22 25  1  0
 23 22  2  0
 24 20  1  0
M  END
$$$$
