KVD.pdb
     RDKit          3D

 25 24  0  0  1  0  0  0  0  0999 V2000
   23.0707  -15.9048  -17.5019 N   0  0  0  0  0  0  0  0  0  0  0  0
   23.2856  -14.6349  -18.1509 C   0  0  1  0  0  0  0  0  0  0  0  0
   22.1020  -14.2780  -19.0499 C   0  0  0  0  0  0  0  0  0  0  0  0
   21.9522  -15.3207  -20.1361 C   0  0  0  0  0  0  0  0  0  0  0  0
   22.9595  -15.0145  -21.2143 C   0  0  0  0  0  0  0  0  0  0  0  0
   22.8458  -16.0174  -22.3626 C   0  0  0  0  0  0  0  0  0  0  0  0
   23.8761  -15.7098  -23.3342 N   0  0  0  0  0  0  0  0  0  0  0  0
   23.4888  -13.5761  -17.1284 C   0  0  0  0  0  0  0  0  0  0  0  0
   22.7257  -13.5824  -16.1200 O   0  0  0  0  0  0  0  0  0  0  0  0
   27.0151  -12.2783  -15.8517 C   0  0  0  0  0  0  0  0  0  0  0  0
   26.1764  -11.1379  -16.3266 C   0  0  2  0  0  0  0  0  0  0  0  0
   26.2666   -9.9257  -15.4280 C   0  0  0  0  0  0  0  0  0  0  0  0
   24.7238  -11.5681  -16.3526 C   0  0  2  0  0  0  0  0  0  0  0  0
   24.5068  -12.6091  -17.3031 N   0  0  0  0  0  0  0  0  0  0  0  0
   23.8301  -10.4221  -16.7033 C   0  0  0  0  0  0  0  0  0  0  0  0
   23.8259   -9.8795  -17.8360 O   0  0  0  0  0  0  0  0  0  0  0  0
   22.9077   -9.8726  -15.7322 N   0  0  0  0  0  0  0  0  0  0  0  0
   21.9881   -8.8274  -16.1260 C   0  0  1  0  0  0  0  0  0  0  0  0
   20.5812   -9.3180  -15.9031 C   0  0  0  0  0  0  0  0  0  0  0  0
   19.6316   -8.2595  -16.2876 C   0  0  0  0  0  0  0  0  0  0  0  0
   19.7822   -7.4959  -17.2698 O   0  0  0  0  0  0  0  0  0  0  0  0
   22.2005   -7.5829  -15.3582 C   0  0  0  0  0  0  0  0  0  0  0  0
   22.7639   -7.6351  -14.2426 O   0  0  0  0  0  0  0  0  0  0  0  0
   18.4516   -8.0270  -15.5526 O   0  0  0  0  0  0  0  0  0  0  0  0
   21.7942   -6.3517  -15.8347 O   0  0  0  0  0  0  0  0  0  0  0  0
  2  1  1  1
  3  4  1  0
  3  2  1  0
  5  6  1  0
  5  4  1  0
  6  7  1  0
  8  9  2  0
  8  2  1  0
 11 10  1  1
 11 13  1  0
 11 12  1  0
 13 14  1  6
 14  8  1  0
 15 13  1  0
 16 15  2  0
 17 15  1  0
 18 22  1  0
 18 17  1  0
 18 19  1  1
 20 21  2  0
 20 19  1  0
 22 25  1  0
 23 22  2  0
 24 20  1  0
M  END
$$$$
