KVD.pdb
     RDKit          3D

 25 24  0  0  1  0  0  0  0  0999 V2000
   23.7306  -20.4113  -14.2401 N   0  0  0  0  0  0  0  0  0  0  0  0
   22.7248  -19.9510  -13.3145 C   0  0  1  0  0  0  0  0  0  0  0  0
   21.3510  -19.9090  -13.9832 C   0  0  0  0  0  0  0  0  0  0  0  0
   21.3822  -18.9538  -15.1563 C   0  0  0  0  0  0  0  0  0  0  0  0
   20.0160  -18.9565  -15.7924 C   0  0  0  0  0  0  0  0  0  0  0  0
   19.5737  -17.5329  -16.1317 C   0  0  0  0  0  0  0  0  0  0  0  0
   20.1177  -17.1887  -17.4301 N   0  0  0  0  0  0  0  0  0  0  0  0
   22.6887  -20.8435  -12.1271 C   0  0  0  0  0  0  0  0  0  0  0  0
   22.6806  -22.0912  -12.3330 O   0  0  0  0  0  0  0  0  0  0  0  0
   24.9704  -20.3400   -9.0440 C   0  0  0  0  0  0  0  0  0  0  0  0
   23.5589  -20.4609   -8.5722 C   0  0  2  0  0  0  0  0  0  0  0  0
   23.4225  -21.3188   -7.3351 C   0  0  0  0  0  0  0  0  0  0  0  0
   22.7267  -21.1091   -9.6598 C   0  0  2  0  0  0  0  0  0  0  0  0
   22.6648  -20.2894  -10.8254 N   0  0  0  0  0  0  0  0  0  0  0  0
   21.3295  -21.3592   -9.1904 C   0  0  0  0  0  0  0  0  0  0  0  0
   20.5175  -20.4353   -8.9363 O   0  0  0  0  0  0  0  0  0  0  0  0
   20.8369  -22.7076   -9.0028 N   0  0  0  0  0  0  0  0  0  0  0  0
   19.5116  -22.9196   -8.4626 C   0  0  1  0  0  0  0  0  0  0  0  0
   18.8825  -24.0853   -9.1803 C   0  0  0  0  0  0  0  0  0  0  0  0
   17.4871  -24.2350   -8.7325 C   0  0  0  0  0  0  0  0  0  0  0  0
   16.8309  -23.3406   -8.1494 O   0  0  0  0  0  0  0  0  0  0  0  0
   19.5415  -23.1959   -7.0113 C   0  0  0  0  0  0  0  0  0  0  0  0
   20.5573  -23.7211   -6.5042 O   0  0  0  0  0  0  0  0  0  0  0  0
   16.7733  -25.4331   -8.9364 O   0  0  0  0  0  0  0  0  0  0  0  0
   18.4756  -22.8913   -6.1871 O   0  0  0  0  0  0  0  0  0  0  0  0
  2  1  1  6
  3  4  1  0
  3  2  1  0
  5  6  1  0
  5  4  1  0
  6  7  1  0
  8  9  2  0
  8  2  1  0
 11 10  1  6
 11 13  1  0
 11 12  1  0
 13 14  1  6
 14  8  1  0
 15 13  1  0
 16 15  2  0
 17 15  1  0
 18 22  1  0
 18 17  1  0
 18 19  1  6
 20 21  2  0
 20 19  1  0
 22 25  1  0
 23 22  2  0
 24 20  1  0
M  END
$$$$
