KVD.pdb
     RDKit          3D

 25 24  0  0  1  0  0  0  0  0999 V2000
   27.9592  -22.0716  -15.9467 N   0  0  0  0  0  0  0  0  0  0  0  0
   27.6411  -20.9846  -15.0537 C   0  0  1  0  0  0  0  0  0  0  0  0
   27.2563  -19.7317  -15.8402 C   0  0  0  0  0  0  0  0  0  0  0  0
   27.6901  -19.8797  -17.2822 C   0  0  0  0  0  0  0  0  0  0  0  0
   28.7821  -18.8745  -17.5431 C   0  0  0  0  0  0  0  0  0  0  0  0
   29.1358  -18.8324  -19.0298 C   0  0  0  0  0  0  0  0  0  0  0  0
   30.1115  -19.8716  -19.2911 N   0  0  0  0  0  0  0  0  0  0  0  0
   26.5296  -21.3840  -14.1521 C   0  0  0  0  0  0  0  0  0  0  0  0
   25.9541  -22.4856  -14.3852 O   0  0  0  0  0  0  0  0  0  0  0  0
   26.6870  -21.0745  -10.2443 C   0  0  0  0  0  0  0  0  0  0  0  0
   25.4547  -20.4038  -10.7554 C   0  0  2  0  0  0  0  0  0  0  0  0
   24.2393  -20.6707   -9.8973 C   0  0  0  0  0  0  0  0  0  0  0  0
   25.1455  -20.9264  -12.1436 C   0  0  2  0  0  0  0  0  0  0  0  0
   26.1508  -20.5423  -13.0797 N   0  0  0  0  0  0  0  0  0  0  0  0
   23.8307  -20.4091  -12.6321 C   0  0  0  0  0  0  0  0  0  0  0  0
   23.6267  -19.1978  -12.8939 O   0  0  0  0  0  0  0  0  0  0  0  0
   22.7070  -21.3001  -12.8304 N   0  0  0  0  0  0  0  0  0  0  0  0
   21.4479  -20.7726  -13.3097 C   0  0  1  0  0  0  0  0  0  0  0  0
   21.1025  -21.4599  -14.6051 C   0  0  0  0  0  0  0  0  0  0  0  0
   19.8428  -20.9038  -15.1286 C   0  0  0  0  0  0  0  0  0  0  0  0
   19.2081  -19.9641  -14.5952 O   0  0  0  0  0  0  0  0  0  0  0  0
   20.3537  -20.9795  -12.3384 C   0  0  0  0  0  0  0  0  0  0  0  0
   20.4100  -21.9423  -11.5418 O   0  0  0  0  0  0  0  0  0  0  0  0
   19.2476  -21.4078  -16.3026 O   0  0  0  0  0  0  0  0  0  0  0  0
   19.2599  -20.1379  -12.2792 O   0  0  0  0  0  0  0  0  0  0  0  0
  2  1  1  6
  3  4  1  0
  3  2  1  0
  5  6  1  0
  5  4  1  0
  6  7  1  0
  8  9  2  0
  8  2  1  0
 11 10  1  1
 11 13  1  0
 11 12  1  0
 13 14  1  6
 14  8  1  0
 15 13  1  0
 16 15  2  0
 17 15  1  0
 18 22  1  0
 18 17  1  0
 18 19  1  6
 20 21  2  0
 20 19  1  0
 22 25  1  0
 23 22  2  0
 24 20  1  0
M  END
$$$$
