KVD.pdb
     RDKit          3D

 25 24  0  0  1  0  0  0  0  0999 V2000
   23.2708  -14.9775  -19.0631 N   0  0  0  0  0  0  0  0  0  0  0  0
   23.7976  -13.6364  -19.1255 C   0  0  1  0  0  0  0  0  0  0  0  0
   23.1767  -12.8635  -20.2890 C   0  0  0  0  0  0  0  0  0  0  0  0
   22.6112  -13.8333  -21.3034 C   0  0  0  0  0  0  0  0  0  0  0  0
   22.0799  -13.0324  -22.4641 C   0  0  0  0  0  0  0  0  0  0  0  0
   21.4745  -13.9519  -23.5248 C   0  0  0  0  0  0  0  0  0  0  0  0
   21.0969  -13.1395  -24.6640 N   0  0  0  0  0  0  0  0  0  0  0  0
   23.5324  -12.9323  -17.8443 C   0  0  0  0  0  0  0  0  0  0  0  0
   22.5034  -13.2718  -17.1921 O   0  0  0  0  0  0  0  0  0  0  0  0
   25.1059  -10.5758  -13.9921 C   0  0  0  0  0  0  0  0  0  0  0  0
   25.4087  -11.2863  -15.2700 C   0  0  2  0  0  0  0  0  0  0  0  0
   26.5624  -10.6702  -16.0278 C   0  0  0  0  0  0  0  0  0  0  0  0
   24.1942  -11.2205  -16.1736 C   0  0  2  0  0  0  0  0  0  0  0  0
   24.4162  -11.9228  -17.3950 N   0  0  0  0  0  0  0  0  0  0  0  0
   23.8475   -9.8047  -16.5056 C   0  0  0  0  0  0  0  0  0  0  0  0
   24.2849   -9.2140  -17.5240 O   0  0  0  0  0  0  0  0  0  0  0  0
   22.9719   -9.0320  -15.6498 N   0  0  0  0  0  0  0  0  0  0  0  0
   22.4687   -7.7537  -16.1036 C   0  0  1  0  0  0  0  0  0  0  0  0
   21.7036   -7.9670  -17.3838 C   0  0  0  0  0  0  0  0  0  0  0  0
   21.1792   -6.6743  -17.8568 C   0  0  0  0  0  0  0  0  0  0  0  0
   20.0091   -6.2706  -17.6612 O   0  0  0  0  0  0  0  0  0  0  0  0
   21.5845   -7.1189  -15.1043 C   0  0  0  0  0  0  0  0  0  0  0  0
   21.2999   -5.9058  -15.2147 O   0  0  0  0  0  0  0  0  0  0  0  0
   21.9846   -5.7755  -18.5849 O   0  0  0  0  0  0  0  0  0  0  0  0
   21.0562   -7.8260  -14.0417 O   0  0  0  0  0  0  0  0  0  0  0  0
  2  1  1  1
  3  4  1  0
  3  2  1  0
  5  6  1  0
  5  4  1  0
  6  7  1  0
  8  9  2  0
  8  2  1  0
 11 10  1  1
 11 13  1  0
 11 12  1  0
 13 14  1  6
 14  8  1  0
 15 13  1  0
 16 15  2  0
 17 15  1  0
 18 22  1  0
 18 17  1  0
 18 19  1  6
 20 21  2  0
 20 19  1  0
 22 25  1  0
 23 22  2  0
 24 20  1  0
M  END
$$$$
