KVD.pdb
     RDKit          3D

 25 24  0  0  1  0  0  0  0  0999 V2000
   22.8870  -19.9553  -14.3707 N   0  0  0  0  0  0  0  0  0  0  0  0
   22.5219  -19.0063  -15.3936 C   0  0  1  0  0  0  0  0  0  0  0  0
   21.0146  -19.0345  -15.6463 C   0  0  0  0  0  0  0  0  0  0  0  0
   20.5937  -20.4235  -16.0739 C   0  0  0  0  0  0  0  0  0  0  0  0
   19.2925  -20.7458  -15.3853 C   0  0  0  0  0  0  0  0  0  0  0  0
   18.8079  -22.1438  -15.7698 C   0  0  0  0  0  0  0  0  0  0  0  0
   17.4695  -22.3185  -15.2423 N   0  0  0  0  0  0  0  0  0  0  0  0
   22.9471  -17.6417  -14.9876 C   0  0  0  0  0  0  0  0  0  0  0  0
   22.8327  -17.3321  -13.7669 O   0  0  0  0  0  0  0  0  0  0  0  0
   26.2322  -16.1614  -15.0775 C   0  0  0  0  0  0  0  0  0  0  0  0
   25.4047  -15.2885  -15.9622 C   0  0  2  0  0  0  0  0  0  0  0  0
   25.7394  -13.8210  -15.8221 C   0  0  0  0  0  0  0  0  0  0  0  0
   23.9442  -15.4511  -15.5932 C   0  0  2  0  0  0  0  0  0  0  0  0
   23.4576  -16.7426  -15.9535 N   0  0  0  0  0  0  0  0  0  0  0  0
   23.0992  -14.4260  -16.2788 C   0  0  0  0  0  0  0  0  0  0  0  0
   22.8964  -14.4244  -17.5183 O   0  0  0  0  0  0  0  0  0  0  0  0
   22.4615  -13.3642  -15.5292 N   0  0  0  0  0  0  0  0  0  0  0  0
   21.6549  -12.3815  -16.2199 C   0  0  1  0  0  0  0  0  0  0  0  0
   20.6611  -11.8063  -15.2446 C   0  0  0  0  0  0  0  0  0  0  0  0
   19.8033  -10.8335  -15.9430 C   0  0  0  0  0  0  0  0  0  0  0  0
   19.0637  -11.1118  -16.9157 O   0  0  0  0  0  0  0  0  0  0  0  0
   22.4742  -11.2897  -16.7859 C   0  0  0  0  0  0  0  0  0  0  0  0
   23.5281  -10.9455  -16.2066 O   0  0  0  0  0  0  0  0  0  0  0  0
   19.7552   -9.4804  -15.5514 O   0  0  0  0  0  0  0  0  0  0  0  0
   22.1127  -10.6297  -17.9442 O   0  0  0  0  0  0  0  0  0  0  0  0
  2  1  1  1
  3  4  1  0
  3  2  1  0
  5  6  1  0
  5  4  1  0
  6  7  1  0
  8  9  2  0
  8  2  1  0
 11 10  1  1
 11 13  1  0
 11 12  1  0
 13 14  1  6
 14  8  1  0
 15 13  1  0
 16 15  2  0
 17 15  1  0
 18 22  1  0
 18 17  1  0
 18 19  1  1
 20 21  2  0
 20 19  1  0
 22 25  1  0
 23 22  2  0
 24 20  1  0
M  END
$$$$
