KVD.pdb
     RDKit          3D

 25 24  0  0  1  0  0  0  0  0999 V2000
   26.9884  -14.2689  -20.2767 N   0  0  0  0  0  0  0  0  0  0  0  0
   26.7909  -12.8431  -20.1863 C   0  0  1  0  0  0  0  0  0  0  0  0
   25.9736  -12.3324  -21.3727 C   0  0  0  0  0  0  0  0  0  0  0  0
   26.7621  -12.5112  -22.6517 C   0  0  0  0  0  0  0  0  0  0  0  0
   25.9893  -11.8569  -23.7677 C   0  0  0  0  0  0  0  0  0  0  0  0
   26.6855  -12.0777  -25.1108 C   0  0  0  0  0  0  0  0  0  0  0  0
   25.9748  -11.3159  -26.1182 N   0  0  0  0  0  0  0  0  0  0  0  0
   26.1041  -12.5109  -18.9112 C   0  0  0  0  0  0  0  0  0  0  0  0
   25.3415  -13.3874  -18.4118 O   0  0  0  0  0  0  0  0  0  0  0  0
   27.5776  -11.9681  -15.8079 C   0  0  0  0  0  0  0  0  0  0  0  0
   26.7980  -10.7066  -15.9824 C   0  0  2  0  0  0  0  0  0  0  0  0
   26.0894  -10.2722  -14.7197 C   0  0  0  0  0  0  0  0  0  0  0  0
   25.7347  -10.9232  -17.0398 C   0  0  2  0  0  0  0  0  0  0  0  0
   26.3147  -11.2520  -18.3007 N   0  0  0  0  0  0  0  0  0  0  0  0
   24.8956   -9.6987  -17.2170 C   0  0  0  0  0  0  0  0  0  0  0  0
   25.3482   -8.6192  -17.6721 O   0  0  0  0  0  0  0  0  0  0  0  0
   23.4914   -9.7007  -16.8647 N   0  0  0  0  0  0  0  0  0  0  0  0
   22.6754   -8.5425  -17.1583 C   0  0  1  0  0  0  0  0  0  0  0  0
   21.2522   -8.9962  -17.3541 C   0  0  0  0  0  0  0  0  0  0  0  0
   21.1999   -9.9648  -18.4628 C   0  0  0  0  0  0  0  0  0  0  0  0
   21.6377   -9.7449  -19.6162 O   0  0  0  0  0  0  0  0  0  0  0  0
   22.7252   -7.5393  -16.0745 C   0  0  0  0  0  0  0  0  0  0  0  0
   23.1177   -7.8797  -14.9366 O   0  0  0  0  0  0  0  0  0  0  0  0
   20.6355  -11.2454  -18.2952 O   0  0  0  0  0  0  0  0  0  0  0  0
   22.3495   -6.2255  -16.2768 O   0  0  0  0  0  0  0  0  0  0  0  0
  2  1  1  6
  3  4  1  0
  3  2  1  0
  5  6  1  0
  5  4  1  0
  6  7  1  0
  8  9  2  0
  8  2  1  0
 11 10  1  1
 11 13  1  0
 11 12  1  0
 13 14  1  6
 14  8  1  0
 15 13  1  0
 16 15  2  0
 17 15  1  0
 18 22  1  0
 18 17  1  0
 18 19  1  1
 20 21  2  0
 20 19  1  0
 22 25  1  0
 23 22  2  0
 24 20  1  0
M  END
$$$$
