KVD.pdb
     RDKit          3D

 25 24  0  0  1  0  0  0  0  0999 V2000
   32.6979  -25.1277  -19.1403 N   0  0  0  0  0  0  0  0  0  0  0  0
   31.6304  -24.2954  -18.6427 C   0  0  1  0  0  0  0  0  0  0  0  0
   31.6073  -22.9508  -19.3693 C   0  0  0  0  0  0  0  0  0  0  0  0
   32.8664  -22.1750  -19.0494 C   0  0  0  0  0  0  0  0  0  0  0  0
   32.7329  -20.8034  -19.6592 C   0  0  0  0  0  0  0  0  0  0  0  0
   33.9678  -19.9540  -19.3577 C   0  0  0  0  0  0  0  0  0  0  0  0
   33.7848  -18.6562  -19.9761 N   0  0  0  0  0  0  0  0  0  0  0  0
   30.3290  -24.9917  -18.8139 C   0  0  0  0  0  0  0  0  0  0  0  0
   30.1691  -25.6844  -19.8598 O   0  0  0  0  0  0  0  0  0  0  0  0
   28.3710  -26.7199  -15.8657 C   0  0  0  0  0  0  0  0  0  0  0  0
   28.0404  -26.8655  -17.3145 C   0  0  2  0  0  0  0  0  0  0  0  0
   29.0347  -27.7240  -18.0624 C   0  0  0  0  0  0  0  0  0  0  0  0
   28.0522  -25.4974  -17.9655 C   0  0  2  0  0  0  0  0  0  0  0  0
   29.3236  -24.8662  -17.8262 N   0  0  0  0  0  0  0  0  0  0  0  0
   27.0186  -24.6043  -17.3581 C   0  0  0  0  0  0  0  0  0  0  0  0
   27.2457  -23.8739  -16.3619 O   0  0  0  0  0  0  0  0  0  0  0  0
   25.6785  -24.5384  -17.9020 N   0  0  0  0  0  0  0  0  0  0  0  0
   24.6750  -23.7303  -17.2440 C   0  0  1  0  0  0  0  0  0  0  0  0
   24.0318  -22.8350  -18.2708 C   0  0  0  0  0  0  0  0  0  0  0  0
   23.0140  -21.9967  -17.6142 C   0  0  0  0  0  0  0  0  0  0  0  0
   22.8032  -21.9758  -16.3790 O   0  0  0  0  0  0  0  0  0  0  0  0
   23.6361  -24.5560  -16.5941 C   0  0  0  0  0  0  0  0  0  0  0  0
   23.3969  -25.7032  -17.0317 O   0  0  0  0  0  0  0  0  0  0  0  0
   22.1817  -21.1336  -18.3552 O   0  0  0  0  0  0  0  0  0  0  0  0
   22.9126  -24.1000  -15.5093 O   0  0  0  0  0  0  0  0  0  0  0  0
  2  1  1  6
  3  4  1  0
  3  2  1  0
  5  6  1  0
  5  4  1  0
  6  7  1  0
  8  9  2  0
  8  2  1  0
 11 10  1  1
 11 13  1  0
 11 12  1  0
 13 14  1  1
 14  8  1  0
 15 13  1  0
 16 15  2  0
 17 15  1  0
 18 22  1  0
 18 17  1  0
 18 19  1  6
 20 21  2  0
 20 19  1  0
 22 25  1  0
 23 22  2  0
 24 20  1  0
M  END
$$$$
