KVD.pdb
     RDKit          3D

 25 24  0  0  1  0  0  0  0  0999 V2000
   23.7850  -20.7942   -9.1548 N   0  0  0  0  0  0  0  0  0  0  0  0
   23.4443  -20.9207  -10.5505 C   0  0  1  0  0  0  0  0  0  0  0  0
   22.0834  -20.2858  -10.8362 C   0  0  0  0  0  0  0  0  0  0  0  0
   21.1312  -21.3348  -11.3675 C   0  0  0  0  0  0  0  0  0  0  0  0
   20.2141  -21.7403  -10.2424 C   0  0  0  0  0  0  0  0  0  0  0  0
   19.2921  -22.8791  -10.6788 C   0  0  0  0  0  0  0  0  0  0  0  0
   18.4573  -23.2412   -9.5510 N   0  0  0  0  0  0  0  0  0  0  0  0
   24.4934  -20.2784  -11.3840 C   0  0  0  0  0  0  0  0  0  0  0  0
   25.0064  -19.2054  -10.9544 O   0  0  0  0  0  0  0  0  0  0  0  0
   27.7608  -21.2651  -12.0931 C   0  0  0  0  0  0  0  0  0  0  0  0
   27.1365  -21.2248  -13.4488 C   0  0  2  0  0  0  0  0  0  0  0  0
   28.0673  -20.6846  -14.5104 C   0  0  0  0  0  0  0  0  0  0  0  0
   25.9260  -20.3145  -13.4103 C   0  0  2  0  0  0  0  0  0  0  0  0
   24.8840  -20.8686  -12.6092 N   0  0  0  0  0  0  0  0  0  0  0  0
   25.3847  -20.0816  -14.7842 C   0  0  0  0  0  0  0  0  0  0  0  0
   24.8353  -20.9828  -15.4650 O   0  0  0  0  0  0  0  0  0  0  0  0
   25.4705  -18.7776  -15.4074 N   0  0  0  0  0  0  0  0  0  0  0  0
   25.0003  -18.5972  -16.7637 C   0  0  1  0  0  0  0  0  0  0  0  0
   24.9363  -17.1208  -17.0563 C   0  0  0  0  0  0  0  0  0  0  0  0
   24.3904  -16.9175  -18.4093 C   0  0  0  0  0  0  0  0  0  0  0  0
   25.0605  -16.5197  -19.3907 O   0  0  0  0  0  0  0  0  0  0  0  0
   25.8836  -19.2543  -17.7493 C   0  0  0  0  0  0  0  0  0  0  0  0
   27.1240  -19.2048  -17.5954 O   0  0  0  0  0  0  0  0  0  0  0  0
   23.0337  -17.1647  -18.7003 O   0  0  0  0  0  0  0  0  0  0  0  0
   25.3817  -19.9279  -18.8459 O   0  0  0  0  0  0  0  0  0  0  0  0
  2  1  1  1
  3  4  1  0
  3  2  1  0
  5  6  1  0
  5  4  1  0
  6  7  1  0
  8  9  2  0
  8  2  1  0
 11 10  1  1
 11 13  1  0
 11 12  1  0
 13 14  1  1
 14  8  1  0
 15 13  1  0
 16 15  2  0
 17 15  1  0
 18 22  1  0
 18 17  1  0
 18 19  1  6
 20 21  2  0
 20 19  1  0
 22 25  1  0
 23 22  2  0
 24 20  1  0
M  END
$$$$
