KVD.pdb
     RDKit          3D

 25 24  0  0  1  0  0  0  0  0999 V2000
   19.3386  -23.6330   -6.4249 N   0  0  0  0  0  0  0  0  0  0  0  0
   19.5159  -23.8185   -7.8442 C   0  0  1  0  0  0  0  0  0  0  0  0
   18.2350  -24.3516   -8.4857 C   0  0  0  0  0  0  0  0  0  0  0  0
   18.0250  -25.7955   -8.0850 C   0  0  0  0  0  0  0  0  0  0  0  0
   16.7882  -26.2956   -8.7860 C   0  0  0  0  0  0  0  0  0  0  0  0
   16.4859  -27.7401   -8.3865 C   0  0  0  0  0  0  0  0  0  0  0  0
   15.2231  -28.1197   -8.9878 N   0  0  0  0  0  0  0  0  0  0  0  0
   19.9059  -22.5307   -8.4743 C   0  0  0  0  0  0  0  0  0  0  0  0
   19.3421  -21.4795   -8.0545 O   0  0  0  0  0  0  0  0  0  0  0  0
   23.4004  -21.1887   -8.7684 C   0  0  0  0  0  0  0  0  0  0  0  0
   22.8464  -21.2465  -10.1538 C   0  0  2  0  0  0  0  0  0  0  0  0
   23.2185  -20.0421  -10.9880 C   0  0  0  0  0  0  0  0  0  0  0  0
   21.3336  -21.2900  -10.0812 C   0  0  2  0  0  0  0  0  0  0  0  0
   20.8757  -22.5115   -9.5044 N   0  0  0  0  0  0  0  0  0  0  0  0
   20.7263  -21.1593  -11.4409 C   0  0  0  0  0  0  0  0  0  0  0  0
   20.4861  -22.1456  -12.1806 O   0  0  0  0  0  0  0  0  0  0  0  0
   20.3791  -19.8613  -11.9800 N   0  0  0  0  0  0  0  0  0  0  0  0
   19.8044  -19.7636  -13.3041 C   0  0  1  0  0  0  0  0  0  0  0  0
   18.9963  -18.4947  -13.3833 C   0  0  0  0  0  0  0  0  0  0  0  0
   18.3892  -18.3887  -14.7213 C   0  0  0  0  0  0  0  0  0  0  0  0
   18.0832  -19.3690  -15.4396 O   0  0  0  0  0  0  0  0  0  0  0  0
   20.8392  -19.7522  -14.3589 C   0  0  0  0  0  0  0  0  0  0  0  0
   21.8715  -19.0631  -14.2028 O   0  0  0  0  0  0  0  0  0  0  0  0
   18.1026  -17.1370  -15.3024 O   0  0  0  0  0  0  0  0  0  0  0  0
   20.7046  -20.4836  -15.5230 O   0  0  0  0  0  0  0  0  0  0  0  0
  2  1  1  1
  3  4  1  0
  3  2  1  0
  5  6  1  0
  5  4  1  0
  6  7  1  0
  8  9  2  0
  8  2  1  0
 11 10  1  1
 11 13  1  0
 11 12  1  0
 13 14  1  6
 14  8  1  0
 15 13  1  0
 16 15  2  0
 17 15  1  0
 18 22  1  0
 18 17  1  0
 18 19  1  1
 20 21  2  0
 20 19  1  0
 22 25  1  0
 23 22  2  0
 24 20  1  0
M  END
$$$$
