KVD.pdb
     RDKit          3D

 25 24  0  0  1  0  0  0  0  0999 V2000
   16.3034  -13.6173  -15.5726 N   0  0  0  0  0  0  0  0  0  0  0  0
   17.6812  -13.1921  -15.5394 C   0  0  1  0  0  0  0  0  0  0  0  0
   18.5817  -14.2167  -16.2291 C   0  0  0  0  0  0  0  0  0  0  0  0
   18.1011  -15.6158  -15.9115 C   0  0  0  0  0  0  0  0  0  0  0  0
   19.0731  -16.5901  -16.5255 C   0  0  0  0  0  0  0  0  0  0  0  0
   18.7034  -18.0276  -16.1592 C   0  0  0  0  0  0  0  0  0  0  0  0
   19.6140  -18.9180  -16.8508 N   0  0  0  0  0  0  0  0  0  0  0  0
   17.8142  -11.8676  -16.1996 C   0  0  0  0  0  0  0  0  0  0  0  0
   17.9144  -11.8496  -17.4601 O   0  0  0  0  0  0  0  0  0  0  0  0
   15.7081   -8.8459  -15.1310 C   0  0  0  0  0  0  0  0  0  0  0  0
   16.5587   -8.8362  -16.3581 C   0  0  2  0  0  0  0  0  0  0  0  0
   15.9941   -9.6862  -17.4733 C   0  0  0  0  0  0  0  0  0  0  0  0
   17.9255   -9.3949  -16.0181 C   0  0  2  0  0  0  0  0  0  0  0  0
   17.8254  -10.6863  -15.4209 N   0  0  0  0  0  0  0  0  0  0  0  0
   18.6524   -8.4970  -15.0694 C   0  0  0  0  0  0  0  0  0  0  0  0
   18.6070   -8.6388  -13.8223 O   0  0  0  0  0  0  0  0  0  0  0  0
   19.4604   -7.3982  -15.5550 N   0  0  0  0  0  0  0  0  0  0  0  0
   20.0387   -6.4619  -14.6157 C   0  0  1  0  0  0  0  0  0  0  0  0
   21.4839   -6.2461  -14.9826 C   0  0  0  0  0  0  0  0  0  0  0  0
   22.1082   -5.3536  -13.9908 C   0  0  0  0  0  0  0  0  0  0  0  0
   21.9104   -5.4197  -12.7551 O   0  0  0  0  0  0  0  0  0  0  0  0
   19.3329   -5.1637  -14.6204 C   0  0  0  0  0  0  0  0  0  0  0  0
   18.7588   -4.7775  -15.6625 O   0  0  0  0  0  0  0  0  0  0  0  0
   22.9988   -4.3320  -14.3778 O   0  0  0  0  0  0  0  0  0  0  0  0
   19.2849   -4.3538  -13.5023 O   0  0  0  0  0  0  0  0  0  0  0  0
  2  1  1  6
  3  4  1  0
  3  2  1  0
  5  6  1  0
  5  4  1  0
  6  7  1  0
  8  9  2  0
  8  2  1  0
 11 10  1  1
 11 13  1  0
 11 12  1  0
 13 14  1  1
 14  8  1  0
 15 13  1  0
 16 15  2  0
 17 15  1  0
 18 22  1  0
 18 17  1  0
 18 19  1  6
 20 21  2  0
 20 19  1  0
 22 25  1  0
 23 22  2  0
 24 20  1  0
M  END
$$$$
