KVD.pdb
     RDKit          3D

 25 24  0  0  1  0  0  0  0  0999 V2000
   28.5856  -22.1225  -15.5796 N   0  0  0  0  0  0  0  0  0  0  0  0
   27.5095  -21.1665  -15.4896 C   0  0  1  0  0  0  0  0  0  0  0  0
   26.8198  -20.9974  -16.8432 C   0  0  0  0  0  0  0  0  0  0  0  0
   27.6075  -20.0317  -17.7013 C   0  0  0  0  0  0  0  0  0  0  0  0
   26.8657  -18.7201  -17.7231 C   0  0  0  0  0  0  0  0  0  0  0  0
   27.5934  -17.7007  -18.5998 C   0  0  0  0  0  0  0  0  0  0  0  0
   26.8156  -16.4780  -18.6107 N   0  0  0  0  0  0  0  0  0  0  0  0
   26.5273  -21.6106  -14.4669 C   0  0  0  0  0  0  0  0  0  0  0  0
   26.1262  -22.8087  -14.5222 O   0  0  0  0  0  0  0  0  0  0  0  0
   27.0219  -21.0574  -10.7440 C   0  0  0  0  0  0  0  0  0  0  0  0
   25.6700  -20.5259  -11.0897 C   0  0  2  0  0  0  0  0  0  0  0  0
   24.6173  -20.8814  -10.0648 C   0  0  0  0  0  0  0  0  0  0  0  0
   25.2266  -21.1206  -12.4108 C   0  0  2  0  0  0  0  0  0  0  0  0
   26.0747  -20.7041  -13.4792 N   0  0  0  0  0  0  0  0  0  0  0  0
   23.8264  -20.7134  -12.7405 C   0  0  0  0  0  0  0  0  0  0  0  0
   23.4581  -19.5140  -12.7975 O   0  0  0  0  0  0  0  0  0  0  0  0
   22.8077  -21.7047  -13.0156 N   0  0  0  0  0  0  0  0  0  0  0  0
   21.4433  -21.2859  -13.2526 C   0  0  1  0  0  0  0  0  0  0  0  0
   20.6666  -22.4622  -13.7845 C   0  0  0  0  0  0  0  0  0  0  0  0
   19.3126  -22.0198  -14.1597 C   0  0  0  0  0  0  0  0  0  0  0  0
   18.9056  -20.8375  -14.0769 O   0  0  0  0  0  0  0  0  0  0  0  0
   20.7945  -20.7860  -12.0227 C   0  0  0  0  0  0  0  0  0  0  0  0
   20.8845  -21.4480  -10.9652 O   0  0  0  0  0  0  0  0  0  0  0  0
   18.3526  -22.9262  -14.6533 O   0  0  0  0  0  0  0  0  0  0  0  0
   20.0851  -19.6009  -12.0004 O   0  0  0  0  0  0  0  0  0  0  0  0
  2  1  1  6
  3  4  1  0
  3  2  1  0
  5  6  1  0
  5  4  1  0
  6  7  1  0
  8  9  2  0
  8  2  1  0
 11 10  1  1
 11 13  1  0
 11 12  1  0
 13 14  1  6
 14  8  1  0
 15 13  1  0
 16 15  2  0
 17 15  1  0
 18 22  1  0
 18 17  1  0
 18 19  1  1
 20 21  2  0
 20 19  1  0
 22 25  1  0
 23 22  2  0
 24 20  1  0
M  END
$$$$
