AKV.pdb
     RDKit          3D

 22 21  0  0  1  0  0  0  0  0999 V2000
    8.5025  -12.3966   19.5044 C   0  0  0  0  0  0  0  0  0  0  0  0
    8.2661  -13.8951   19.4471 C   0  0  2  0  0  0  0  0  0  0  0  0
    7.4004  -14.2503   18.3561 N   0  0  0  0  0  0  0  0  0  0  0  0
    7.7025  -14.4043   20.7116 C   0  0  0  0  0  0  0  0  0  0  0  0
    6.4663  -14.2948   20.9733 O   0  0  0  0  0  0  0  0  0  0  0  0
    8.5414  -15.0243   21.6520 N   0  0  0  0  0  0  0  0  0  0  0  0
    8.0223  -15.6062   22.8843 C   0  0  1  0  0  0  0  0  0  0  0  0
    8.4682  -17.0342   22.9182 C   0  0  0  0  0  0  0  0  0  0  0  0
    7.8729  -17.9236   21.8832 C   0  0  0  0  0  0  0  0  0  0  0  0
    8.5152  -19.2970   21.9091 C   0  0  0  0  0  0  0  0  0  0  0  0
    7.8842  -20.2496   20.9299 C   0  0  0  0  0  0  0  0  0  0  0  0
    8.6229  -21.5040   20.8693 N   0  0  0  0  0  0  0  0  0  0  0  0
    8.5506  -14.8550   24.0672 C   0  0  0  0  0  0  0  0  0  0  0  0
    9.7823  -14.7054   24.2544 O   0  0  0  0  0  0  0  0  0  0  0  0
    5.9115  -13.0262   26.9578 C   0  0  0  0  0  0  0  0  0  0  0  0
    7.2871  -12.4799   26.6334 C   0  0  2  0  0  0  0  0  0  0  0  0
    7.1337  -11.4611   25.5269 C   0  0  0  0  0  0  0  0  0  0  0  0
    8.2131  -13.5628   26.1336 C   0  0  2  0  0  0  0  0  0  0  0  0
    7.6455  -14.2861   25.0189 N   0  0  0  0  0  0  0  0  0  0  0  0
    8.4604  -14.4942   27.2612 C   0  0  0  0  0  0  0  0  0  0  0  0
    9.2520  -14.2164   28.3474 O   0  0  0  0  0  0  0  0  0  0  0  0
    7.9100  -15.6220   27.2294 O   0  0  0  0  0  0  0  0  0  0  0  0
  2  1  1  1
  2  4  1  0
  3  2  1  0
  4  6  1  0
  4  5  2  0
  6  7  1  0
  7 13  1  0
  7  8  1  1
  8  9  1  0
  9 10  1  0
 10 11  1  0
 11 12  1  0
 13 14  2  0
 16 15  1  6
 16 18  1  0
 16 17  1  0
 19 13  1  0
 18 19  1  6
 20 18  1  0
 20 21  1  0
 22 20  2  0
M  END
$$$$
