AKV.pdb
     RDKit          3D

 22 21  0  0  1  0  0  0  0  0999 V2000
    8.0102  -12.1650   19.4668 C   0  0  0  0  0  0  0  0  0  0  0  0
    7.9943  -13.6670   19.2464 C   0  0  2  0  0  0  0  0  0  0  0  0
    7.0727  -14.0371   18.2075 N   0  0  0  0  0  0  0  0  0  0  0  0
    7.6604  -14.3938   20.4858 C   0  0  0  0  0  0  0  0  0  0  0  0
    6.4591  -14.5179   20.8735 O   0  0  0  0  0  0  0  0  0  0  0  0
    8.6840  -14.9638   21.2601 N   0  0  0  0  0  0  0  0  0  0  0  0
    8.4083  -15.6645   22.5090 C   0  0  1  0  0  0  0  0  0  0  0  0
    9.3372  -16.8359   22.5706 C   0  0  0  0  0  0  0  0  0  0  0  0
    8.9922  -17.9835   21.6870 C   0  0  0  0  0  0  0  0  0  0  0  0
   10.2347  -18.5735   21.0487 C   0  0  0  0  0  0  0  0  0  0  0  0
    9.9157  -19.6566   20.0538 C   0  0  0  0  0  0  0  0  0  0  0  0
   11.1286  -20.1671   19.4285 N   0  0  0  0  0  0  0  0  0  0  0  0
    8.6313  -14.7462   23.6709 C   0  0  0  0  0  0  0  0  0  0  0  0
    8.8925  -13.5299   23.5069 O   0  0  0  0  0  0  0  0  0  0  0  0
    7.3945  -12.5095   24.6992 C   0  0  0  0  0  0  0  0  0  0  0  0
    7.3017  -13.3618   25.9484 C   0  0  2  0  0  0  0  0  0  0  0  0
    7.3019  -12.4362   27.1439 C   0  0  0  0  0  0  0  0  0  0  0  0
    8.4896  -14.2841   26.0833 C   0  0  2  0  0  0  0  0  0  0  0  0
    8.5490  -15.2482   25.0087 N   0  0  0  0  0  0  0  0  0  0  0  0
    8.3620  -14.9891   27.3822 C   0  0  0  0  0  0  0  0  0  0  0  0
    8.9274  -14.5692   28.5602 O   0  0  0  0  0  0  0  0  0  0  0  0
    7.6897  -16.0487   27.4174 O   0  0  0  0  0  0  0  0  0  0  0  0
  2  1  1  1
  2  4  1  0
  3  2  1  0
  4  6  1  0
  4  5  2  0
  6  7  1  0
  7 13  1  0
  7  8  1  1
  8  9  1  0
  9 10  1  0
 10 11  1  0
 11 12  1  0
 13 14  2  0
 16 15  1  6
 16 18  1  0
 16 17  1  0
 19 13  1  0
 18 19  1  6
 20 18  1  0
 20 21  1  0
 22 20  2  0
M  END
$$$$
