AKV.pdb
     RDKit          3D

 22 21  0  0  1  0  0  0  0  0999 V2000
    8.4404  -12.2464   19.3209 C   0  0  0  0  0  0  0  0  0  0  0  0
    8.3353  -13.7537   19.1736 C   0  0  2  0  0  0  0  0  0  0  0  0
    7.4579  -14.1175   18.0948 N   0  0  0  0  0  0  0  0  0  0  0  0
    7.8744  -14.3901   20.4220 C   0  0  0  0  0  0  0  0  0  0  0  0
    6.6393  -14.5443   20.6659 O   0  0  0  0  0  0  0  0  0  0  0  0
    8.8123  -14.8382   21.3665 N   0  0  0  0  0  0  0  0  0  0  0  0
    8.4161  -15.5933   22.5495 C   0  0  1  0  0  0  0  0  0  0  0  0
    9.2190  -16.8560   22.5546 C   0  0  0  0  0  0  0  0  0  0  0  0
    8.8795  -17.8439   21.4938 C   0  0  0  0  0  0  0  0  0  0  0  0
    9.7833  -19.0591   21.5704 C   0  0  0  0  0  0  0  0  0  0  0  0
    9.4625  -20.0863   20.5186 C   0  0  0  0  0  0  0  0  0  0  0  0
   10.3729  -21.2210   20.5997 N   0  0  0  0  0  0  0  0  0  0  0  0
    8.6823  -14.7878   23.7836 C   0  0  0  0  0  0  0  0  0  0  0  0
    9.7918  -14.2361   23.9820 O   0  0  0  0  0  0  0  0  0  0  0  0
    6.0377  -12.2693   25.3625 C   0  0  0  0  0  0  0  0  0  0  0  0
    6.7128  -13.1011   26.4340 C   0  0  2  0  0  0  0  0  0  0  0  0
    7.1410  -12.1693   27.5450 C   0  0  0  0  0  0  0  0  0  0  0  0
    7.9512  -13.7873   25.9092 C   0  0  2  0  0  0  0  0  0  0  0  0
    7.6600  -14.6312   24.7730 N   0  0  0  0  0  0  0  0  0  0  0  0
    8.5085  -14.6073   27.0124 C   0  0  0  0  0  0  0  0  0  0  0  0
    9.3829  -14.1478   27.9653 O   0  0  0  0  0  0  0  0  0  0  0  0
    8.1615  -15.8113   27.0891 O   0  0  0  0  0  0  0  0  0  0  0  0
  2  1  1  1
  2  4  1  0
  3  2  1  0
  4  6  1  0
  4  5  2  0
  6  7  1  0
  7 13  1  0
  7  8  1  1
  8  9  1  0
  9 10  1  0
 10 11  1  0
 11 12  1  0
 13 14  2  0
 16 15  1  6
 16 18  1  0
 16 17  1  0
 19 13  1  0
 18 19  1  6
 20 18  1  0
 20 21  1  0
 22 20  2  0
M  END
$$$$
