AKV.pdb
     RDKit          3D

 22 21  0  0  1  0  0  0  0  0999 V2000
   11.4740  -18.8602   23.3678 C   0  0  0  0  0  0  0  0  0  0  0  0
   11.1043  -18.0765   22.1213 C   0  0  2  0  0  0  0  0  0  0  0  0
   12.2309  -17.9236   21.2419 N   0  0  0  0  0  0  0  0  0  0  0  0
   10.5557  -16.7491   22.4576 C   0  0  0  0  0  0  0  0  0  0  0  0
   11.3102  -15.7984   22.8258 O   0  0  0  0  0  0  0  0  0  0  0  0
    9.1725  -16.5216   22.3722 N   0  0  0  0  0  0  0  0  0  0  0  0
    8.5962  -15.1937   22.5486 C   0  0  1  0  0  0  0  0  0  0  0  0
    7.2887  -15.1814   21.8212 C   0  0  0  0  0  0  0  0  0  0  0  0
    7.0579  -14.0166   20.9231 C   0  0  0  0  0  0  0  0  0  0  0  0
    7.7215  -14.2264   19.5758 C   0  0  0  0  0  0  0  0  0  0  0  0
    7.5784  -13.0347   18.6683 C   0  0  0  0  0  0  0  0  0  0  0  0
    8.3862  -13.1919   17.4659 N   0  0  0  0  0  0  0  0  0  0  0  0
    8.3976  -14.9116   24.0059 C   0  0  0  0  0  0  0  0  0  0  0  0
    8.3028  -15.8372   24.8479 O   0  0  0  0  0  0  0  0  0  0  0  0
    6.8341  -11.2222   25.2570 C   0  0  0  0  0  0  0  0  0  0  0  0
    6.7596  -12.5120   26.0485 C   0  0  2  0  0  0  0  0  0  0  0  0
    6.6598  -12.1532   27.5138 C   0  0  0  0  0  0  0  0  0  0  0  0
    8.0021  -13.3504   25.8661 C   0  0  2  0  0  0  0  0  0  0  0  0
    8.3112  -13.5604   24.4703 N   0  0  0  0  0  0  0  0  0  0  0  0
    7.7606  -14.6559   26.5275 C   0  0  0  0  0  0  0  0  0  0  0  0
    7.0082  -15.6746   25.9987 O   0  0  0  0  0  0  0  0  0  0  0  0
    8.2778  -14.8536   27.6542 O   0  0  0  0  0  0  0  0  0  0  0  0
  2  1  1  1
  2  4  1  0
  3  2  1  0
  4  6  1  0
  4  5  2  0
  6  7  1  0
  7 13  1  0
  7  8  1  6
  8  9  1  0
  9 10  1  0
 10 11  1  0
 11 12  1  0
 13 14  2  0
 16 15  1  6
 16 18  1  0
 16 17  1  0
 19 13  1  0
 18 19  1  6
 20 18  1  0
 20 21  1  0
 22 20  2  0
M  END
$$$$
