AKV.pdb
     RDKit          3D

 22 21  0  0  1  0  0  0  0  0999 V2000
    8.6690  -12.6581   19.4830 C   0  0  0  0  0  0  0  0  0  0  0  0
    8.3217  -14.1342   19.4109 C   0  0  2  0  0  0  0  0  0  0  0  0
    7.4231  -14.4113   18.3240 N   0  0  0  0  0  0  0  0  0  0  0  0
    7.7324  -14.6153   20.6747 C   0  0  0  0  0  0  0  0  0  0  0  0
    6.5145  -14.4017   20.9571 O   0  0  0  0  0  0  0  0  0  0  0  0
    8.5256  -15.3249   21.5911 N   0  0  0  0  0  0  0  0  0  0  0  0
    7.9800  -15.8569   22.8345 C   0  0  1  0  0  0  0  0  0  0  0  0
    8.5145  -17.2458   22.9906 C   0  0  0  0  0  0  0  0  0  0  0  0
    8.2046  -17.9177   24.2826 C   0  0  0  0  0  0  0  0  0  0  0  0
    7.5722  -19.2767   24.0529 C   0  0  0  0  0  0  0  0  0  0  0  0
    7.2309  -19.9810   25.3382 C   0  0  0  0  0  0  0  0  0  0  0  0
    6.7345  -21.3267   25.0822 N   0  0  0  0  0  0  0  0  0  0  0  0
    8.3949  -14.9939   23.9860 C   0  0  0  0  0  0  0  0  0  0  0  0
    9.5825  -14.6150   24.1292 O   0  0  0  0  0  0  0  0  0  0  0  0
    6.3264  -11.8540   25.2637 C   0  0  0  0  0  0  0  0  0  0  0  0
    6.7789  -12.7250   26.4180 C   0  0  2  0  0  0  0  0  0  0  0  0
    7.3478  -11.8205   27.4877 C   0  0  0  0  0  0  0  0  0  0  0  0
    7.8696  -13.6819   26.0000 C   0  0  2  0  0  0  0  0  0  0  0  0
    7.4288  -14.5803   24.9577 N   0  0  0  0  0  0  0  0  0  0  0  0
    8.2635  -14.4609   27.1992 C   0  0  0  0  0  0  0  0  0  0  0  0
    9.1916  -14.0565   28.1259 O   0  0  0  0  0  0  0  0  0  0  0  0
    7.7137  -15.5733   27.3898 O   0  0  0  0  0  0  0  0  0  0  0  0
  2  1  1  1
  2  4  1  0
  3  2  1  0
  4  6  1  0
  4  5  2  0
  6  7  1  0
  7 13  1  0
  7  8  1  1
  8  9  1  0
  9 10  1  0
 10 11  1  0
 11 12  1  0
 13 14  2  0
 16 15  1  6
 16 18  1  0
 16 17  1  0
 19 13  1  0
 18 19  1  6
 20 18  1  0
 20 21  1  0
 22 20  2  0
M  END
$$$$
