AKV.pdb
     RDKit          3D

 22 21  0  0  1  0  0  0  0  0999 V2000
    8.9255  -12.6057   19.4526 C   0  0  0  0  0  0  0  0  0  0  0  0
    8.4075  -14.0220   19.2784 C   0  0  2  0  0  0  0  0  0  0  0  0
    7.4985  -14.1176   18.1691 N   0  0  0  0  0  0  0  0  0  0  0  0
    7.7472  -14.5127   20.5027 C   0  0  0  0  0  0  0  0  0  0  0  0
    6.4992  -14.3715   20.6799 O   0  0  0  0  0  0  0  0  0  0  0  0
    8.5046  -15.1504   21.4987 N   0  0  0  0  0  0  0  0  0  0  0  0
    7.8860  -15.7395   22.6806 C   0  0  1  0  0  0  0  0  0  0  0  0
    8.3161  -17.1717   22.7346 C   0  0  0  0  0  0  0  0  0  0  0  0
    7.8170  -17.9545   23.8985 C   0  0  0  0  0  0  0  0  0  0  0  0
    8.2881  -19.3943   23.8302 C   0  0  0  0  0  0  0  0  0  0  0  0
    7.7018  -20.2476   24.9222 C   0  0  0  0  0  0  0  0  0  0  0  0
    8.1886  -21.6181   24.8343 N   0  0  0  0  0  0  0  0  0  0  0  0
    8.3263  -15.0045   23.9088 C   0  0  0  0  0  0  0  0  0  0  0  0
    9.5360  -14.7501   24.1245 O   0  0  0  0  0  0  0  0  0  0  0  0
    6.1812  -11.9267   25.4255 C   0  0  0  0  0  0  0  0  0  0  0  0
    6.7253  -12.8519   26.4948 C   0  0  2  0  0  0  0  0  0  0  0  0
    7.3216  -11.9970   27.5899 C   0  0  0  0  0  0  0  0  0  0  0  0
    7.8226  -13.7396   25.9582 C   0  0  2  0  0  0  0  0  0  0  0  0
    7.3598  -14.5730   24.8724 N   0  0  0  0  0  0  0  0  0  0  0  0
    8.2950  -14.5912   27.0770 C   0  0  0  0  0  0  0  0  0  0  0  0
    7.9896  -15.9201   27.2329 O   0  0  0  0  0  0  0  0  0  0  0  0
    9.0283  -14.0676   27.9512 O   0  0  0  0  0  0  0  0  0  0  0  0
  2  1  1  1
  2  4  1  0
  3  2  1  0
  4  6  1  0
  4  5  2  0
  6  7  1  0
  7 13  1  0
  7  8  1  1
  8  9  1  0
  9 10  1  0
 10 11  1  0
 11 12  1  0
 13 14  2  0
 16 15  1  6
 16 18  1  0
 16 17  1  0
 19 13  1  0
 18 19  1  6
 20 18  1  0
 20 21  1  0
 22 20  2  0
M  END
$$$$
