AKV.pdb
     RDKit          3D

 22 21  0  0  1  0  0  0  0  0999 V2000
    8.5780  -12.1475   19.5525 C   0  0  0  0  0  0  0  0  0  0  0  0
    8.4807  -13.6189   19.1916 C   0  0  2  0  0  0  0  0  0  0  0  0
    7.6894  -13.8198   18.0087 N   0  0  0  0  0  0  0  0  0  0  0  0
    7.9220  -14.4140   20.3013 C   0  0  0  0  0  0  0  0  0  0  0  0
    6.6817  -14.6704   20.3689 O   0  0  0  0  0  0  0  0  0  0  0  0
    8.7702  -14.9022   21.3086 N   0  0  0  0  0  0  0  0  0  0  0  0
    8.2624  -15.6660   22.4424 C   0  0  1  0  0  0  0  0  0  0  0  0
    8.8840  -17.0253   22.3707 C   0  0  0  0  0  0  0  0  0  0  0  0
    8.5653  -17.9436   23.4985 C   0  0  0  0  0  0  0  0  0  0  0  0
    9.1417  -19.3252   23.2567 C   0  0  0  0  0  0  0  0  0  0  0  0
    8.8245  -20.2876   24.3692 C   0  0  0  0  0  0  0  0  0  0  0  0
    9.5242  -21.5520   24.1834 N   0  0  0  0  0  0  0  0  0  0  0  0
    8.6248  -14.9815   23.7241 C   0  0  0  0  0  0  0  0  0  0  0  0
    9.8142  -14.6953   24.0032 O   0  0  0  0  0  0  0  0  0  0  0  0
    6.3923  -12.0223   25.2602 C   0  0  0  0  0  0  0  0  0  0  0  0
    6.8674  -12.9910   26.3240 C   0  0  2  0  0  0  0  0  0  0  0  0
    7.3954  -12.1821   27.4870 C   0  0  0  0  0  0  0  0  0  0  0  0
    7.9949  -13.8610   25.8220 C   0  0  2  0  0  0  0  0  0  0  0  0
    7.6048  -14.6368   24.6671 N   0  0  0  0  0  0  0  0  0  0  0  0
    8.3835  -14.7700   26.9279 C   0  0  0  0  0  0  0  0  0  0  0  0
    9.3931  -14.5254   27.8248 O   0  0  0  0  0  0  0  0  0  0  0  0
    7.7486  -15.8447   27.0621 O   0  0  0  0  0  0  0  0  0  0  0  0
  2  1  1  1
  2  4  1  0
  3  2  1  0
  4  6  1  0
  4  5  2  0
  6  7  1  0
  7 13  1  0
  7  8  1  1
  8  9  1  0
  9 10  1  0
 10 11  1  0
 11 12  1  0
 13 14  2  0
 16 15  1  6
 16 18  1  0
 16 17  1  0
 19 13  1  0
 18 19  1  6
 20 18  1  0
 20 21  1  0
 22 20  2  0
M  END
$$$$
