AKV.pdb
     RDKit          3D

 22 21  0  0  1  0  0  0  0  0999 V2000
    8.8748  -12.5861   19.3590 C   0  0  0  0  0  0  0  0  0  0  0  0
    8.5082  -14.0571   19.2787 C   0  0  2  0  0  0  0  0  0  0  0  0
    7.7099  -14.3383   18.1170 N   0  0  0  0  0  0  0  0  0  0  0  0
    7.7947  -14.5054   20.4895 C   0  0  0  0  0  0  0  0  0  0  0  0
    6.5516  -14.3000   20.6356 O   0  0  0  0  0  0  0  0  0  0  0  0
    8.4948  -15.1737   21.5071 N   0  0  0  0  0  0  0  0  0  0  0  0
    7.8230  -15.6973   22.6908 C   0  0  1  0  0  0  0  0  0  0  0  0
    8.2176  -17.1348   22.8209 C   0  0  0  0  0  0  0  0  0  0  0  0
    7.6854  -17.8472   24.0150 C   0  0  0  0  0  0  0  0  0  0  0  0
    8.1739  -19.2821   24.0569 C   0  0  0  0  0  0  0  0  0  0  0  0
    7.5265  -20.0821   25.1548 C   0  0  0  0  0  0  0  0  0  0  0  0
    7.9754  -21.4680   25.1276 N   0  0  0  0  0  0  0  0  0  0  0  0
    8.2384  -14.9192   23.9011 C   0  0  0  0  0  0  0  0  0  0  0  0
    9.4296  -14.5673   24.0795 O   0  0  0  0  0  0  0  0  0  0  0  0
    5.8876  -12.0659   25.7413 C   0  0  0  0  0  0  0  0  0  0  0  0
    6.5704  -13.0397   26.6800 C   0  0  2  0  0  0  0  0  0  0  0  0
    7.1408  -12.2492   27.8357 C   0  0  0  0  0  0  0  0  0  0  0  0
    7.7161  -13.7547   26.0046 C   0  0  2  0  0  0  0  0  0  0  0  0
    7.2688  -14.5582   24.8901 N   0  0  0  0  0  0  0  0  0  0  0  0
    8.3617  -14.6219   27.0201 C   0  0  0  0  0  0  0  0  0  0  0  0
    9.3975  -14.2372   27.8342 O   0  0  0  0  0  0  0  0  0  0  0  0
    7.9371  -15.7959   27.1526 O   0  0  0  0  0  0  0  0  0  0  0  0
  2  1  1  1
  2  4  1  0
  3  2  1  0
  4  6  1  0
  4  5  2  0
  6  7  1  0
  7 13  1  0
  7  8  1  1
  8  9  1  0
  9 10  1  0
 10 11  1  0
 11 12  1  0
 13 14  2  0
 16 15  1  6
 16 18  1  0
 16 17  1  0
 19 13  1  0
 18 19  1  6
 20 18  1  0
 20 21  1  0
 22 20  2  0
M  END
$$$$
