AKV.pdb
     RDKit          3D

 22 21  0  0  1  0  0  0  0  0999 V2000
    8.2665  -12.1892   19.6020 C   0  0  0  0  0  0  0  0  0  0  0  0
    8.1095  -13.6888   19.4252 C   0  0  2  0  0  0  0  0  0  0  0  0
    7.1430  -14.0008   18.4081 N   0  0  0  0  0  0  0  0  0  0  0  0
    7.7277  -14.3472   20.6888 C   0  0  0  0  0  0  0  0  0  0  0  0
    6.5271  -14.3421   21.0978 O   0  0  0  0  0  0  0  0  0  0  0  0
    8.7040  -14.9956   21.4627 N   0  0  0  0  0  0  0  0  0  0  0  0
    8.3699  -15.6991   22.6956 C   0  0  1  0  0  0  0  0  0  0  0  0
    9.0841  -17.0135   22.6594 C   0  0  0  0  0  0  0  0  0  0  0  0
    8.6060  -17.9826   21.6353 C   0  0  0  0  0  0  0  0  0  0  0  0
    9.3400  -19.3045   21.7503 C   0  0  0  0  0  0  0  0  0  0  0  0
    8.9831  -20.2627   20.6462 C   0  0  0  0  0  0  0  0  0  0  0  0
    9.6048  -21.5630   20.8599 N   0  0  0  0  0  0  0  0  0  0  0  0
    8.8024  -14.8903   23.8795 C   0  0  0  0  0  0  0  0  0  0  0  0
    9.2012  -13.7069   23.7570 O   0  0  0  0  0  0  0  0  0  0  0  0
    7.2737  -12.8843   25.1779 C   0  0  0  0  0  0  0  0  0  0  0  0
    7.4571  -13.7757   26.3893 C   0  0  2  0  0  0  0  0  0  0  0  0
    7.5256  -12.8898   27.6124 C   0  0  0  0  0  0  0  0  0  0  0  0
    8.7476  -14.5563   26.3165 C   0  0  2  0  0  0  0  0  0  0  0  0
    8.7675  -15.4623   25.1911 N   0  0  0  0  0  0  0  0  0  0  0  0
    8.8769  -15.3235   27.5794 C   0  0  0  0  0  0  0  0  0  0  0  0
    9.6305  -14.9347   28.6585 O   0  0  0  0  0  0  0  0  0  0  0  0
    8.2554  -16.4098   27.6787 O   0  0  0  0  0  0  0  0  0  0  0  0
  2  1  1  1
  2  4  1  0
  3  2  1  0
  4  6  1  0
  4  5  2  0
  6  7  1  0
  7 13  1  0
  7  8  1  6
  8  9  1  0
  9 10  1  0
 10 11  1  0
 11 12  1  0
 13 14  2  0
 16 15  1  6
 16 18  1  0
 16 17  1  0
 19 13  1  0
 18 19  1  6
 20 18  1  0
 20 21  1  0
 22 20  2  0
M  END
$$$$
