AKV.pdb
     RDKit          3D

 22 21  0  0  1  0  0  0  0  0999 V2000
    8.5017  -12.2638   19.3671 C   0  0  0  0  0  0  0  0  0  0  0  0
    8.4690  -13.7750   19.2265 C   0  0  2  0  0  0  0  0  0  0  0  0
    7.6594  -14.1828   18.1111 N   0  0  0  0  0  0  0  0  0  0  0  0
    7.9787  -14.4240   20.4571 C   0  0  0  0  0  0  0  0  0  0  0  0
    6.7375  -14.5514   20.6850 O   0  0  0  0  0  0  0  0  0  0  0  0
    8.8945  -14.9143   21.4022 N   0  0  0  0  0  0  0  0  0  0  0  0
    8.4645  -15.6626   22.5777 C   0  0  1  0  0  0  0  0  0  0  0  0
    9.2657  -16.9259   22.6122 C   0  0  0  0  0  0  0  0  0  0  0  0
    8.9210  -17.9400   21.5781 C   0  0  0  0  0  0  0  0  0  0  0  0
    9.7301  -19.2086   21.7670 C   0  0  0  0  0  0  0  0  0  0  0  0
    9.3748  -20.2759   20.7674 C   0  0  0  0  0  0  0  0  0  0  0  0
   10.2388  -21.4398   20.9147 N   0  0  0  0  0  0  0  0  0  0  0  0
    8.6969  -14.8505   23.8144 C   0  0  0  0  0  0  0  0  0  0  0  0
    9.7642  -14.2152   23.9929 O   0  0  0  0  0  0  0  0  0  0  0  0
    6.1391  -12.3254   25.4771 C   0  0  0  0  0  0  0  0  0  0  0  0
    6.7134  -13.2838   26.5005 C   0  0  2  0  0  0  0  0  0  0  0  0
    7.0983  -12.4824   27.7234 C   0  0  0  0  0  0  0  0  0  0  0  0
    7.9602  -13.9646   25.9883 C   0  0  2  0  0  0  0  0  0  0  0  0
    7.6900  -14.7842   24.8294 N   0  0  0  0  0  0  0  0  0  0  0  0
    8.4906  -14.8091   27.0864 C   0  0  0  0  0  0  0  0  0  0  0  0
    9.3089  -14.3617   28.0932 O   0  0  0  0  0  0  0  0  0  0  0  0
    8.1739  -16.0237   27.1053 O   0  0  0  0  0  0  0  0  0  0  0  0
  2  1  1  1
  2  4  1  0
  3  2  1  0
  4  6  1  0
  4  5  2  0
  6  7  1  0
  7 13  1  0
  7  8  1  1
  8  9  1  0
  9 10  1  0
 10 11  1  0
 11 12  1  0
 13 14  2  0
 16 15  1  6
 16 18  1  0
 16 17  1  0
 19 13  1  0
 18 19  1  6
 20 18  1  0
 20 21  1  0
 22 20  2  0
M  END
$$$$
