LMM.pdb
     RDKit          3D

 25 24  0  0  1  0  0  0  0  0999 V2000
   17.0242  -13.4155  -12.4769 C   0  0  0  0  0  0  0  0  0  0  0  0
   16.6999  -12.6732  -13.7298 C   0  0  2  0  0  0  0  0  0  0  0  0
   17.6936  -12.9935  -14.7946 C   0  0  0  0  0  0  0  0  0  0  0  0
   16.5046  -11.1919  -13.5267 C   0  0  0  0  0  0  0  0  0  0  0  0
   15.4618  -10.8780  -12.4806 C   0  0  2  0  0  0  0  0  0  0  0  0
   14.1412  -11.2510  -12.9025 N   0  0  0  0  0  0  0  0  0  0  0  0
   15.5763   -9.4257  -12.1825 C   0  0  0  0  0  0  0  0  0  0  0  0
   15.1592   -8.6173  -13.0543 O   0  0  0  0  0  0  0  0  0  0  0  0
   14.8813   -3.9438   -6.7130 C   0  0  0  0  0  0  0  0  0  0  0  0
   14.8568   -5.6677   -7.3076 S   0  0  0  0  0  0  0  0  0  0  0  0
   15.6824   -5.8039   -8.9189 C   0  0  0  0  0  0  0  0  0  0  0  0
   15.6124   -7.2532   -9.3349 C   0  0  0  0  0  0  0  0  0  0  0  0
   16.1911   -7.4602  -10.7334 C   0  0  2  0  0  0  0  0  0  0  0  0
   16.1148   -8.8836  -11.0010 N   0  0  0  0  0  0  0  0  0  0  0  0
   17.5956   -6.9679  -10.7911 C   0  0  0  0  0  0  0  0  0  0  0  0
   18.5181   -7.5877  -10.1893 O   0  0  0  0  0  0  0  0  0  0  0  0
   21.8565   -9.3973  -13.1024 C   0  0  0  0  0  0  0  0  0  0  0  0
   22.0127   -7.8848  -14.0826 S   0  0  0  0  0  0  0  0  0  0  0  0
   21.2408   -6.4621  -13.3285 C   0  0  0  0  0  0  0  0  0  0  0  0
   19.8941   -6.6829  -12.7389 C   0  0  0  0  0  0  0  0  0  0  0  0
   19.3367   -5.5344  -11.9545 C   0  0  2  0  0  0  0  0  0  0  0  0
   17.9708   -5.8057  -11.5054 N   0  0  0  0  0  0  0  0  0  0  0  0
   19.2951   -4.2848  -12.7421 C   0  0  0  0  0  0  0  0  0  0  0  0
   20.4089   -3.4662  -12.8951 O   0  0  0  0  0  0  0  0  0  0  0  0
   18.2461   -3.8940  -13.3179 O   0  0  0  0  0  0  0  0  0  0  0  0
  2  1  1  1
  3  2  1  0
  4  2  1  0
  4  5  1  0
  5  6  1  6
  7  5  1  0
  7  8  2  0
  9 10  1  0
 11 10  1  0
 11 12  1  0
 13 12  1  1
 13 14  1  0
 14  7  1  0
 15 13  1  0
 16 15  2  0
 18 17  1  0
 19 18  1  0
 20 19  1  0
 21 20  1  6
 21 22  1  0
 22 15  1  0
 23 21  1  0
 24 23  1  0
 25 23  2  0
M  END
$$$$
