LMM.pdb
     RDKit          3D

 25 24  0  0  1  0  0  0  0  0999 V2000
   27.7276  -18.1469  -15.1765 C   0  0  0  0  0  0  0  0  0  0  0  0
   26.9200  -19.3402  -14.7893 C   0  0  2  0  0  0  0  0  0  0  0  0
   27.0145  -20.3937  -15.8404 C   0  0  0  0  0  0  0  0  0  0  0  0
   25.4998  -19.0145  -14.4016 C   0  0  0  0  0  0  0  0  0  0  0  0
   24.5298  -19.1741  -15.5480 C   0  0  2  0  0  0  0  0  0  0  0  0
   24.5854  -18.0693  -16.4631 N   0  0  0  0  0  0  0  0  0  0  0  0
   23.1809  -19.3502  -14.9477 C   0  0  0  0  0  0  0  0  0  0  0  0
   22.7551  -18.4355  -14.1931 O   0  0  0  0  0  0  0  0  0  0  0  0
   18.5860  -21.9609  -18.0572 C   0  0  0  0  0  0  0  0  0  0  0  0
   17.7673  -22.1849  -16.4430 S   0  0  0  0  0  0  0  0  0  0  0  0
   18.7109  -21.3677  -15.1246 C   0  0  0  0  0  0  0  0  0  0  0  0
   20.1191  -21.1798  -15.6346 C   0  0  0  0  0  0  0  0  0  0  0  0
   21.0304  -20.5998  -14.5544 C   0  0  2  0  0  0  0  0  0  0  0  0
   22.3420  -20.4602  -15.1574 N   0  0  0  0  0  0  0  0  0  0  0  0
   21.0671  -21.5007  -13.3689 C   0  0  0  0  0  0  0  0  0  0  0  0
   21.6632  -22.6136  -13.4269 O   0  0  0  0  0  0  0  0  0  0  0  0
   23.5283  -20.4764   -7.5365 C   0  0  0  0  0  0  0  0  0  0  0  0
   21.9212  -21.1998   -7.1280 S   0  0  0  0  0  0  0  0  0  0  0  0
   21.1415  -22.0304   -8.5030 C   0  0  0  0  0  0  0  0  0  0  0  0
   21.1881  -21.3212   -9.8087 C   0  0  0  0  0  0  0  0  0  0  0  0
   20.5120  -22.0212  -10.9480 C   0  0  2  0  0  0  0  0  0  0  0  0
   20.4519  -21.1720  -12.1380 N   0  0  0  0  0  0  0  0  0  0  0  0
   19.1246  -22.4119  -10.6223 C   0  0  0  0  0  0  0  0  0  0  0  0
   18.8242  -23.5891   -9.9455 O   0  0  0  0  0  0  0  0  0  0  0  0
   18.1383  -21.6977  -10.9412 O   0  0  0  0  0  0  0  0  0  0  0  0
  2  1  1  6
  3  2  1  0
  4  2  1  0
  4  5  1  0
  5  6  1  6
  7  5  1  0
  7  8  2  0
  9 10  1  0
 11 10  1  0
 11 12  1  0
 13 12  1  6
 13 14  1  0
 14  7  1  0
 15 13  1  0
 16 15  2  0
 18 17  1  0
 19 18  1  0
 20 19  1  0
 21 20  1  1
 21 22  1  0
 22 15  1  0
 23 21  1  0
 24 23  1  0
 25 23  2  0
M  END
$$$$
