LMM.pdb
     RDKit          3D

 25 24  0  0  1  0  0  0  0  0999 V2000
   28.1428  -19.1604  -17.9906 C   0  0  0  0  0  0  0  0  0  0  0  0
   28.0582  -18.6567  -16.5887 C   0  0  2  0  0  0  0  0  0  0  0  0
   29.4128  -18.2844  -16.0885 C   0  0  0  0  0  0  0  0  0  0  0  0
   27.3132  -19.5769  -15.6551 C   0  0  0  0  0  0  0  0  0  0  0  0
   26.6534  -18.8416  -14.5129 C   0  0  2  0  0  0  0  0  0  0  0  0
   27.5427  -17.9058  -13.8848 N   0  0  0  0  0  0  0  0  0  0  0  0
   26.1536  -19.8755  -13.5683 C   0  0  0  0  0  0  0  0  0  0  0  0
   26.0845  -21.0620  -13.9864 O   0  0  0  0  0  0  0  0  0  0  0  0
   26.2068  -21.0919   -7.0460 C   0  0  0  0  0  0  0  0  0  0  0  0
   27.5126  -20.5929   -8.2173 S   0  0  0  0  0  0  0  0  0  0  0  0
   26.9786  -20.8673   -9.9307 C   0  0  0  0  0  0  0  0  0  0  0  0
   25.5281  -20.4586  -10.0168 C   0  0  0  0  0  0  0  0  0  0  0  0
   24.9985  -20.5802  -11.4446 C   0  0  2  0  0  0  0  0  0  0  0  0
   25.7514  -19.6313  -12.2422 N   0  0  0  0  0  0  0  0  0  0  0  0
   23.5384  -20.2884  -11.4822 C   0  0  0  0  0  0  0  0  0  0  0  0
   23.1197  -19.0983  -11.4083 O   0  0  0  0  0  0  0  0  0  0  0  0
   21.7249  -18.5144  -16.3138 C   0  0  0  0  0  0  0  0  0  0  0  0
   20.6015  -19.9308  -16.2468 S   0  0  0  0  0  0  0  0  0  0  0  0
   20.3375  -20.5556  -14.5950 C   0  0  0  0  0  0  0  0  0  0  0  0
   21.5517  -20.7118  -13.7517 C   0  0  0  0  0  0  0  0  0  0  0  0
   21.3043  -21.1364  -12.3363 C   0  0  2  0  0  0  0  0  0  0  0  0
   22.5580  -21.3016  -11.6001 N   0  0  0  0  0  0  0  0  0  0  0  0
   20.5798  -22.4218  -12.2547 C   0  0  0  0  0  0  0  0  0  0  0  0
   19.2762  -22.5104  -11.7786 O   0  0  0  0  0  0  0  0  0  0  0  0
   21.1061  -23.5079  -12.6129 O   0  0  0  0  0  0  0  0  0  0  0  0
  2  1  1  6
  3  2  1  0
  4  2  1  0
  4  5  1  0
  5  6  1  1
  7  5  1  0
  7  8  2  0
  9 10  1  0
 11 10  1  0
 11 12  1  0
 13 12  1  1
 13 14  1  0
 14  7  1  0
 15 13  1  0
 16 15  2  0
 18 17  1  0
 19 18  1  0
 20 19  1  0
 21 20  1  6
 21 22  1  0
 22 15  1  0
 23 21  1  0
 24 23  1  0
 25 23  2  0
M  END
$$$$
