LMM.pdb
     RDKit          3D

 25 24  0  0  1  0  0  0  0  0999 V2000
   21.3565  -18.9421  -15.8006 C   0  0  0  0  0  0  0  0  0  0  0  0
   22.3304  -20.0676  -15.6968 C   0  0  2  0  0  0  0  0  0  0  0  0
   22.1423  -21.0222  -16.8270 C   0  0  0  0  0  0  0  0  0  0  0  0
   22.3418  -20.7405  -14.3475 C   0  0  0  0  0  0  0  0  0  0  0  0
   22.4801  -19.7605  -13.2069 C   0  0  2  0  0  0  0  0  0  0  0  0
   23.6578  -18.9487  -13.3294 N   0  0  0  0  0  0  0  0  0  0  0  0
   22.4648  -20.5576  -11.9517 C   0  0  0  0  0  0  0  0  0  0  0  0
   21.6860  -21.5467  -11.8991 O   0  0  0  0  0  0  0  0  0  0  0  0
   26.1025  -19.6339   -6.5701 C   0  0  0  0  0  0  0  0  0  0  0  0
   26.8883  -20.3031   -8.0736 S   0  0  0  0  0  0  0  0  0  0  0  0
   25.6375  -20.9526   -9.2181 C   0  0  0  0  0  0  0  0  0  0  0  0
   24.2871  -20.5427   -8.6826 C   0  0  0  0  0  0  0  0  0  0  0  0
   23.1564  -21.0431   -9.5797 C   0  0  2  0  0  0  0  0  0  0  0  0
   23.2534  -20.2927  -10.8170 N   0  0  0  0  0  0  0  0  0  0  0  0
   21.8388  -20.8359   -8.9168 C   0  0  0  0  0  0  0  0  0  0  0  0
   21.1560  -19.7996   -9.1560 O   0  0  0  0  0  0  0  0  0  0  0  0
   17.8211  -22.6210  -12.2295 C   0  0  0  0  0  0  0  0  0  0  0  0
   17.3182  -23.6485  -10.8281 S   0  0  0  0  0  0  0  0  0  0  0  0
   17.9496  -23.0753   -9.2592 C   0  0  0  0  0  0  0  0  0  0  0  0
   19.3520  -22.5820   -9.2580 C   0  0  0  0  0  0  0  0  0  0  0  0
   19.8625  -22.0910   -7.9377 C   0  0  2  0  0  0  0  0  0  0  0  0
   21.2872  -21.7642   -8.0027 N   0  0  0  0  0  0  0  0  0  0  0  0
   19.6947  -23.0923   -6.8639 C   0  0  0  0  0  0  0  0  0  0  0  0
   18.5102  -23.2201   -6.1464 O   0  0  0  0  0  0  0  0  0  0  0  0
   20.6179  -23.8848   -6.5409 O   0  0  0  0  0  0  0  0  0  0  0  0
  2  1  1  1
  3  2  1  0
  4  2  1  0
  4  5  1  0
  5  6  1  6
  7  5  1  0
  7  8  2  0
  9 10  1  0
 11 10  1  0
 11 12  1  0
 13 12  1  1
 13 14  1  0
 14  7  1  0
 15 13  1  0
 16 15  2  0
 18 17  1  0
 19 18  1  0
 20 19  1  0
 21 20  1  6
 21 22  1  0
 22 15  1  0
 23 21  1  0
 24 23  1  0
 25 23  2  0
M  END
$$$$
