LMM.pdb
     RDKit          3D

 25 24  0  0  1  0  0  0  0  0999 V2000
   26.0740  -21.7171  -16.3585 C   0  0  0  0  0  0  0  0  0  0  0  0
   27.2133  -21.1524  -15.5780 C   0  0  2  0  0  0  0  0  0  0  0  0
   28.5070  -21.4572  -16.2542 C   0  0  0  0  0  0  0  0  0  0  0  0
   27.2014  -21.5353  -14.1197 C   0  0  0  0  0  0  0  0  0  0  0  0
   25.8764  -21.2535  -13.4522 C   0  0  2  0  0  0  0  0  0  0  0  0
   25.3107  -20.0039  -13.8760 N   0  0  0  0  0  0  0  0  0  0  0  0
   26.1153  -21.3030  -11.9854 C   0  0  0  0  0  0  0  0  0  0  0  0
   26.5471  -22.3833  -11.5016 O   0  0  0  0  0  0  0  0  0  0  0  0
   29.2749  -19.9084   -7.9827 C   0  0  0  0  0  0  0  0  0  0  0  0
   28.2082  -18.6056   -7.2820 S   0  0  0  0  0  0  0  0  0  0  0  0
   26.4593  -18.9536   -7.6239 C   0  0  0  0  0  0  0  0  0  0  0  0
   26.2892  -18.9525   -9.1237 C   0  0  0  0  0  0  0  0  0  0  0  0
   26.0094  -20.3575   -9.6540 C   0  0  2  0  0  0  0  0  0  0  0  0
   25.8965  -20.2359  -11.0948 N   0  0  0  0  0  0  0  0  0  0  0  0
   24.7595  -20.8992   -9.0518 C   0  0  0  0  0  0  0  0  0  0  0  0
   23.6398  -20.6883   -9.5987 O   0  0  0  0  0  0  0  0  0  0  0  0
   24.2373  -20.6876   -2.6337 C   0  0  0  0  0  0  0  0  0  0  0  0
   22.7589  -21.6515   -3.0309 S   0  0  0  0  0  0  0  0  0  0  0  0
   22.5406  -21.9364   -4.7801 C   0  0  0  0  0  0  0  0  0  0  0  0
   23.7304  -21.6924   -5.6372 C   0  0  0  0  0  0  0  0  0  0  0  0
   23.5406  -21.9657   -7.0981 C   0  0  2  0  0  0  0  0  0  0  0  0
   24.7520  -21.6633   -7.8611 N   0  0  0  0  0  0  0  0  0  0  0  0
   22.4472  -21.1611   -7.6819 C   0  0  0  0  0  0  0  0  0  0  0  0
   21.2392  -21.7257   -8.0769 O   0  0  0  0  0  0  0  0  0  0  0  0
   22.5517  -19.9183   -7.8530 O   0  0  0  0  0  0  0  0  0  0  0  0
  2  1  1  6
  3  2  1  0
  4  2  1  0
  4  5  1  0
  5  6  1  6
  7  5  1  0
  7  8  2  0
  9 10  1  0
 11 10  1  0
 11 12  1  0
 13 12  1  1
 13 14  1  0
 14  7  1  0
 15 13  1  0
 16 15  2  0
 18 17  1  0
 19 18  1  0
 20 19  1  0
 21 20  1  1
 21 22  1  0
 22 15  1  0
 23 21  1  0
 24 23  1  0
 25 23  2  0
M  END
$$$$
