LMM.pdb
     RDKit          3D

 25 24  0  0  1  0  0  0  0  0999 V2000
   22.2657  -19.8649  -13.2026 C   0  0  0  0  0  0  0  0  0  0  0  0
   22.7476  -21.2641  -13.0128 C   0  0  2  0  0  0  0  0  0  0  0  0
   21.6082  -22.2219  -13.1027 C   0  0  0  0  0  0  0  0  0  0  0  0
   23.5878  -21.4561  -11.7756 C   0  0  0  0  0  0  0  0  0  0  0  0
   24.7040  -20.4451  -11.6645 C   0  0  2  0  0  0  0  0  0  0  0  0
   25.4336  -20.3057  -12.8931 N   0  0  0  0  0  0  0  0  0  0  0  0
   25.5673  -20.8809  -10.5349 C   0  0  0  0  0  0  0  0  0  0  0  0
   24.9960  -21.2659   -9.4800 O   0  0  0  0  0  0  0  0  0  0  0  0
   31.7360  -22.7772  -11.0731 C   0  0  0  0  0  0  0  0  0  0  0  0
   31.8288  -21.8484   -9.5064 S   0  0  0  0  0  0  0  0  0  0  0  0
   30.1786  -21.6558   -8.7744 C   0  0  0  0  0  0  0  0  0  0  0  0
   29.2213  -21.3611   -9.9036 C   0  0  0  0  0  0  0  0  0  0  0  0
   27.7875  -21.2184   -9.3959 C   0  0  2  0  0  0  0  0  0  0  0  0
   26.9742  -20.8968  -10.5528 N   0  0  0  0  0  0  0  0  0  0  0  0
   27.7088  -20.1520   -8.3591 C   0  0  0  0  0  0  0  0  0  0  0  0
   27.5743  -18.9406   -8.6934 O   0  0  0  0  0  0  0  0  0  0  0  0
   26.5422  -21.2655   -1.8647 C   0  0  0  0  0  0  0  0  0  0  0  0
   27.3063  -19.6261   -1.8327 S   0  0  0  0  0  0  0  0  0  0  0  0
   27.7147  -18.9966   -3.4531 C   0  0  0  0  0  0  0  0  0  0  0  0
   27.5155  -19.9341   -4.5895 C   0  0  0  0  0  0  0  0  0  0  0  0
   27.8531  -19.3882   -5.9434 C   0  0  2  0  0  0  0  0  0  0  0  0
   27.7780  -20.4255   -6.9727 N   0  0  0  0  0  0  0  0  0  0  0  0
   29.2170  -18.8219   -5.9957 C   0  0  0  0  0  0  0  0  0  0  0  0
   29.4931  -17.5139   -5.6122 O   0  0  0  0  0  0  0  0  0  0  0  0
   30.2041  -19.4955   -6.3916 O   0  0  0  0  0  0  0  0  0  0  0  0
  2  1  1  1
  3  2  1  0
  4  2  1  0
  4  5  1  0
  5  6  1  6
  7  5  1  0
  7  8  2  0
  9 10  1  0
 11 10  1  0
 11 12  1  0
 13 12  1  6
 13 14  1  0
 14  7  1  0
 15 13  1  0
 16 15  2  0
 18 17  1  0
 19 18  1  0
 20 19  1  0
 21 20  1  1
 21 22  1  0
 22 15  1  0
 23 21  1  0
 24 23  1  0
 25 23  2  0
M  END
$$$$
