LMM.pdb
     RDKit          3D

 25 24  0  0  1  0  0  0  0  0999 V2000
   27.8897  -17.6742  -15.4047 C   0  0  0  0  0  0  0  0  0  0  0  0
   27.0270  -18.5961  -16.1996 C   0  0  2  0  0  0  0  0  0  0  0  0
   26.1822  -17.8221  -17.1541 C   0  0  0  0  0  0  0  0  0  0  0  0
   26.2359  -19.5660  -15.3589 C   0  0  0  0  0  0  0  0  0  0  0  0
   27.0956  -20.3225  -14.3745 C   0  0  2  0  0  0  0  0  0  0  0  0
   27.9722  -21.2550  -15.0250 N   0  0  0  0  0  0  0  0  0  0  0  0
   26.1708  -20.9828  -13.4155 C   0  0  0  0  0  0  0  0  0  0  0  0
   25.6857  -22.0973  -13.7473 O   0  0  0  0  0  0  0  0  0  0  0  0
   25.6579  -19.6310   -7.1200 C   0  0  0  0  0  0  0  0  0  0  0  0
   26.9929  -20.7126   -7.7313 S   0  0  0  0  0  0  0  0  0  0  0  0
   26.5651  -21.4085   -9.3527 C   0  0  0  0  0  0  0  0  0  0  0  0
   25.3313  -20.6861   -9.8367 C   0  0  0  0  0  0  0  0  0  0  0  0
   24.9248  -21.1516  -11.2338 C   0  0  2  0  0  0  0  0  0  0  0  0
   25.7950  -20.4591  -12.1648 N   0  0  0  0  0  0  0  0  0  0  0  0
   23.4914  -20.8369  -11.4882 C   0  0  0  0  0  0  0  0  0  0  0  0
   23.1328  -19.6570  -11.7649 O   0  0  0  0  0  0  0  0  0  0  0  0
   18.6752  -25.2167  -13.5904 C   0  0  0  0  0  0  0  0  0  0  0  0
   17.8619  -24.0446  -12.4779 S   0  0  0  0  0  0  0  0  0  0  0  0
   18.8183  -22.5678  -12.1732 C   0  0  0  0  0  0  0  0  0  0  0  0
   20.2651  -22.7694  -11.8971 C   0  0  0  0  0  0  0  0  0  0  0  0
   21.0524  -21.5216  -11.6359 C   0  0  2  0  0  0  0  0  0  0  0  0
   22.4717  -21.8162  -11.4364 N   0  0  0  0  0  0  0  0  0  0  0  0
   20.5839  -20.8044  -10.4319 C   0  0  0  0  0  0  0  0  0  0  0  0
   19.4958  -19.9387  -10.4597 O   0  0  0  0  0  0  0  0  0  0  0  0
   21.1467  -20.9395   -9.3140 O   0  0  0  0  0  0  0  0  0  0  0  0
  2  1  1  1
  3  2  1  0
  4  2  1  0
  4  5  1  0
  5  6  1  6
  7  5  1  0
  7  8  2  0
  9 10  1  0
 11 10  1  0
 11 12  1  0
 13 12  1  1
 13 14  1  0
 14  7  1  0
 15 13  1  0
 16 15  2  0
 18 17  1  0
 19 18  1  0
 20 19  1  0
 21 20  1  1
 21 22  1  0
 22 15  1  0
 23 21  1  0
 24 23  1  0
 25 23  2  0
M  END
$$$$
