LMM.pdb
     RDKit          3D

 25 24  0  0  1  0  0  0  0  0999 V2000
   27.3351  -17.0673  -17.3706 C   0  0  0  0  0  0  0  0  0  0  0  0
   27.7742  -18.4927  -17.3301 C   0  0  2  0  0  0  0  0  0  0  0  0
   27.9390  -19.0243  -18.7136 C   0  0  0  0  0  0  0  0  0  0  0  0
   26.9144  -19.3701  -16.4559 C   0  0  0  0  0  0  0  0  0  0  0  0
   26.6568  -18.7667  -15.0957 C   0  0  2  0  0  0  0  0  0  0  0  0
   27.8738  -18.4317  -14.4119 N   0  0  0  0  0  0  0  0  0  0  0  0
   25.8297  -19.7455  -14.3415 C   0  0  0  0  0  0  0  0  0  0  0  0
   25.1774  -20.5929  -15.0078 O   0  0  0  0  0  0  0  0  0  0  0  0
   28.4979  -21.0451   -8.2179 C   0  0  0  0  0  0  0  0  0  0  0  0
   26.7735  -20.6609   -8.6703 S   0  0  0  0  0  0  0  0  0  0  0  0
   26.4777  -21.0058  -10.4282 C   0  0  0  0  0  0  0  0  0  0  0  0
   25.0893  -20.5104  -10.7525 C   0  0  0  0  0  0  0  0  0  0  0  0
   24.7795  -20.6552  -12.2414 C   0  0  2  0  0  0  0  0  0  0  0  0
   25.7189  -19.7989  -12.9398 N   0  0  0  0  0  0  0  0  0  0  0  0
   23.3702  -20.2604  -12.5181 C   0  0  0  0  0  0  0  0  0  0  0  0
   23.0766  -19.0544  -12.7558 O   0  0  0  0  0  0  0  0  0  0  0  0
   21.1222  -18.5776  -17.3972 C   0  0  0  0  0  0  0  0  0  0  0  0
   20.1183  -20.0606  -17.1414 S   0  0  0  0  0  0  0  0  0  0  0  0
   19.9319  -20.5093  -15.4231 C   0  0  0  0  0  0  0  0  0  0  0  0
   21.1904  -20.6856  -14.6517 C   0  0  0  0  0  0  0  0  0  0  0  0
   21.0184  -20.9410  -13.1854 C   0  0  2  0  0  0  0  0  0  0  0  0
   22.3033  -21.1894  -12.5309 N   0  0  0  0  0  0  0  0  0  0  0  0
   20.1602  -22.1137  -12.9171 C   0  0  0  0  0  0  0  0  0  0  0  0
   18.7743  -22.0196  -12.8495 O   0  0  0  0  0  0  0  0  0  0  0  0
   20.6396  -23.2634  -12.7351 O   0  0  0  0  0  0  0  0  0  0  0  0
  2  1  1  6
  3  2  1  0
  4  2  1  0
  4  5  1  0
  5  6  1  1
  7  5  1  0
  7  8  2  0
  9 10  1  0
 11 10  1  0
 11 12  1  0
 13 12  1  1
 13 14  1  0
 14  7  1  0
 15 13  1  0
 16 15  2  0
 18 17  1  0
 19 18  1  0
 20 19  1  0
 21 20  1  6
 21 22  1  0
 22 15  1  0
 23 21  1  0
 24 23  1  0
 25 23  2  0
M  END
$$$$
