LMM.pdb
     RDKit          3D

 25 24  0  0  1  0  0  0  0  0999 V2000
   23.5628  -17.3288  -16.6966 C   0  0  0  0  0  0  0  0  0  0  0  0
   24.8223  -17.9849  -17.1540 C   0  0  2  0  0  0  0  0  0  0  0  0
   24.8402  -18.0936  -18.6411 C   0  0  0  0  0  0  0  0  0  0  0  0
   25.1151  -19.2912  -16.4601 C   0  0  0  0  0  0  0  0  0  0  0  0
   25.0440  -19.1825  -14.9555 C   0  0  2  0  0  0  0  0  0  0  0  0
   25.6209  -17.9599  -14.4724 N   0  0  0  0  0  0  0  0  0  0  0  0
   25.7188  -20.3879  -14.4056 C   0  0  0  0  0  0  0  0  0  0  0  0
   25.3420  -21.5121  -14.8319 O   0  0  0  0  0  0  0  0  0  0  0  0
   31.2550  -19.8874  -11.6102 C   0  0  0  0  0  0  0  0  0  0  0  0
   31.3139  -20.5776  -13.2972 S   0  0  0  0  0  0  0  0  0  0  0  0
   29.6776  -21.1803  -13.8029 C   0  0  0  0  0  0  0  0  0  0  0  0
   28.8067  -21.1940  -12.5701 C   0  0  0  0  0  0  0  0  0  0  0  0
   27.3652  -21.5685  -12.9102 C   0  0  2  0  0  0  0  0  0  0  0  0
   26.7467  -20.3706  -13.4449 N   0  0  0  0  0  0  0  0  0  0  0  0
   26.6554  -22.0538  -11.6940 C   0  0  0  0  0  0  0  0  0  0  0  0
   27.1930  -22.9105  -10.9362 O   0  0  0  0  0  0  0  0  0  0  0  0
   28.3109  -19.6663   -6.7214 C   0  0  0  0  0  0  0  0  0  0  0  0
   26.6961  -18.9160   -7.0416 S   0  0  0  0  0  0  0  0  0  0  0  0
   25.5551  -20.0062   -7.8772 C   0  0  0  0  0  0  0  0  0  0  0  0
   25.9414  -20.4331   -9.2478 C   0  0  0  0  0  0  0  0  0  0  0  0
   24.9664  -21.3346   -9.9419 C   0  0  2  0  0  0  0  0  0  0  0  0
   25.3690  -21.5954  -11.3242 N   0  0  0  0  0  0  0  0  0  0  0  0
   23.6054  -20.7606   -9.9865 C   0  0  0  0  0  0  0  0  0  0  0  0
   22.7813  -20.7162   -8.8672 O   0  0  0  0  0  0  0  0  0  0  0  0
   23.1186  -20.2801  -11.0433 O   0  0  0  0  0  0  0  0  0  0  0  0
  2  1  1  1
  3  2  1  0
  4  2  1  0
  4  5  1  0
  5  6  1  1
  7  5  1  0
  7  8  2  0
  9 10  1  0
 11 10  1  0
 11 12  1  0
 13 12  1  1
 13 14  1  0
 14  7  1  0
 15 13  1  0
 16 15  2  0
 18 17  1  0
 19 18  1  0
 20 19  1  0
 21 20  1  6
 21 22  1  0
 22 15  1  0
 23 21  1  0
 24 23  1  0
 25 23  2  0
M  END
$$$$
