LMM.pdb
     RDKit          3D

 25 24  0  0  1  0  0  0  0  0999 V2000
   27.5303  -17.2953  -17.2835 C   0  0  0  0  0  0  0  0  0  0  0  0
   28.6437  -17.6177  -16.3440 C   0  0  2  0  0  0  0  0  0  0  0  0
   29.9061  -17.8607  -17.0997 C   0  0  0  0  0  0  0  0  0  0  0  0
   28.3162  -18.7181  -15.3666 C   0  0  0  0  0  0  0  0  0  0  0  0
   26.9917  -18.5078  -14.6722 C   0  0  2  0  0  0  0  0  0  0  0  0
   26.8864  -17.1998  -14.0899 N   0  0  0  0  0  0  0  0  0  0  0  0
   26.8581  -19.5931  -13.6646 C   0  0  0  0  0  0  0  0  0  0  0  0
   26.9390  -20.7818  -14.0744 O   0  0  0  0  0  0  0  0  0  0  0  0
   28.1844  -19.7472   -7.4928 C   0  0  0  0  0  0  0  0  0  0  0  0
   26.5119  -20.4593   -7.3467 S   0  0  0  0  0  0  0  0  0  0  0  0
   25.8811  -20.9586   -8.9743 C   0  0  0  0  0  0  0  0  0  0  0  0
   26.4536  -19.9982   -9.9883 C   0  0  0  0  0  0  0  0  0  0  0  0
   26.0693  -20.3965  -11.4122 C   0  0  2  0  0  0  0  0  0  0  0  0
   26.6483  -19.3954  -12.2873 N   0  0  0  0  0  0  0  0  0  0  0  0
   24.5876  -20.4536  -11.5522 C   0  0  0  0  0  0  0  0  0  0  0  0
   23.8937  -19.4009  -11.4648 O   0  0  0  0  0  0  0  0  0  0  0  0
   20.9982  -20.6219   -7.2410 C   0  0  0  0  0  0  0  0  0  0  0  0
   19.8944  -20.4276   -8.6611 S   0  0  0  0  0  0  0  0  0  0  0  0
   20.4872  -21.2308  -10.1417 C   0  0  0  0  0  0  0  0  0  0  0  0
   21.9616  -21.2507  -10.3308 C   0  0  0  0  0  0  0  0  0  0  0  0
   22.4369  -21.7975  -11.6423 C   0  0  2  0  0  0  0  0  0  0  0  0
   23.8865  -21.6601  -11.7858 N   0  0  0  0  0  0  0  0  0  0  0  0
   21.8189  -21.1086  -12.7943 C   0  0  0  0  0  0  0  0  0  0  0  0
   20.5492  -21.4333  -13.2597 O   0  0  0  0  0  0  0  0  0  0  0  0
   22.4109  -20.1887  -13.4173 O   0  0  0  0  0  0  0  0  0  0  0  0
  2  1  1  6
  3  2  1  0
  4  2  1  0
  4  5  1  0
  5  6  1  1
  7  5  1  0
  7  8  2  0
  9 10  1  0
 11 10  1  0
 11 12  1  0
 13 12  1  1
 13 14  1  0
 14  7  1  0
 15 13  1  0
 16 15  2  0
 18 17  1  0
 19 18  1  0
 20 19  1  0
 21 20  1  1
 21 22  1  0
 22 15  1  0
 23 21  1  0
 24 23  1  0
 25 23  2  0
M  END
$$$$
