LMM.pdb
     RDKit          3D

 25 24  0  0  1  0  0  0  0  0999 V2000
   25.9432  -31.1849  -15.3868 C   0  0  0  0  0  0  0  0  0  0  0  0
   25.6819  -31.8490  -16.6971 C   0  0  2  0  0  0  0  0  0  0  0  0
   24.8558  -33.0750  -16.5016 C   0  0  0  0  0  0  0  0  0  0  0  0
   26.9253  -32.0953  -17.5136 C   0  0  0  0  0  0  0  0  0  0  0  0
   27.7792  -30.8590  -17.6654 C   0  0  2  0  0  0  0  0  0  0  0  0
   27.2696  -29.9680  -18.6691 N   0  0  0  0  0  0  0  0  0  0  0  0
   29.1595  -31.3245  -17.9637 C   0  0  0  0  0  0  0  0  0  0  0  0
   29.3680  -31.8438  -19.0926 O   0  0  0  0  0  0  0  0  0  0  0  0
   35.4559  -29.1443  -18.8753 C   0  0  0  0  0  0  0  0  0  0  0  0
   33.7584  -28.5129  -18.6621 S   0  0  0  0  0  0  0  0  0  0  0  0
   32.5521  -29.8666  -18.7566 C   0  0  0  0  0  0  0  0  0  0  0  0
   32.5068  -30.5193  -17.3963 C   0  0  0  0  0  0  0  0  0  0  0  0
   31.5775  -31.7318  -17.3906 C   0  0  2  0  0  0  0  0  0  0  0  0
   30.2522  -31.2299  -17.0822 N   0  0  0  0  0  0  0  0  0  0  0  0
   32.0327  -32.7286  -16.3819 C   0  0  0  0  0  0  0  0  0  0  0  0
   31.9808  -32.4621  -15.1476 O   0  0  0  0  0  0  0  0  0  0  0  0
   34.1989  -40.3545  -15.0620 C   0  0  0  0  0  0  0  0  0  0  0  0
   33.5211  -39.1029  -16.1786 S   0  0  0  0  0  0  0  0  0  0  0  0
   33.5191  -37.4560  -15.4886 C   0  0  0  0  0  0  0  0  0  0  0  0
   33.0453  -36.3700  -16.3864 C   0  0  0  0  0  0  0  0  0  0  0  0
   32.9541  -35.0106  -15.7629 C   0  0  2  0  0  0  0  0  0  0  0  0
   32.5375  -34.0016  -16.7372 N   0  0  0  0  0  0  0  0  0  0  0  0
   34.2453  -34.5640  -15.1998 C   0  0  0  0  0  0  0  0  0  0  0  0
   35.2627  -34.0469  -15.9944 O   0  0  0  0  0  0  0  0  0  0  0  0
   34.4932  -34.6282  -13.9672 O   0  0  0  0  0  0  0  0  0  0  0  0
  2  1  1  1
  3  2  1  0
  4  2  1  0
  4  5  1  0
  5  6  1  6
  7  5  1  0
  7  8  2  0
  9 10  1  0
 11 10  1  0
 11 12  1  0
 13 12  1  1
 13 14  1  0
 14  7  1  0
 15 13  1  0
 16 15  2  0
 18 17  1  0
 19 18  1  0
 20 19  1  0
 21 20  1  6
 21 22  1  0
 22 15  1  0
 23 21  1  0
 24 23  1  0
 25 23  2  0
M  END
$$$$
