LMM.pdb
     RDKit          3D

 25 24  0  0  1  0  0  0  0  0999 V2000
   28.7833  -21.2490  -18.4511 C   0  0  0  0  0  0  0  0  0  0  0  0
   27.5034  -20.4836  -18.4063 C   0  0  2  0  0  0  0  0  0  0  0  0
   27.4796  -19.4493  -19.4803 C   0  0  0  0  0  0  0  0  0  0  0  0
   27.1716  -19.9312  -17.0431 C   0  0  0  0  0  0  0  0  0  0  0  0
   27.3629  -20.9443  -15.9397 C   0  0  2  0  0  0  0  0  0  0  0  0
   26.8755  -22.2439  -16.3063 N   0  0  0  0  0  0  0  0  0  0  0  0
   26.6836  -20.3996  -14.7343 C   0  0  0  0  0  0  0  0  0  0  0  0
   26.9750  -19.2256  -14.3818 O   0  0  0  0  0  0  0  0  0  0  0  0
   20.8316  -21.3291  -14.1001 C   0  0  0  0  0  0  0  0  0  0  0  0
   20.9441  -20.6136  -12.4263 S   0  0  0  0  0  0  0  0  0  0  0  0
   22.6647  -20.2041  -12.0163 C   0  0  0  0  0  0  0  0  0  0  0  0
   23.5325  -20.7773  -13.1103 C   0  0  0  0  0  0  0  0  0  0  0  0
   25.0118  -20.4952  -12.8537 C   0  0  2  0  0  0  0  0  0  0  0  0
   25.7396  -21.0943  -13.9558 N   0  0  0  0  0  0  0  0  0  0  0  0
   25.4298  -21.0714  -11.5454 C   0  0  0  0  0  0  0  0  0  0  0  0
   25.3925  -22.3200  -11.3528 O   0  0  0  0  0  0  0  0  0  0  0  0
   29.2897  -18.3616   -6.5198 C   0  0  0  0  0  0  0  0  0  0  0  0
   27.7789  -19.0109   -5.7656 S   0  0  0  0  0  0  0  0  0  0  0  0
   26.9008  -20.1663   -6.8061 C   0  0  0  0  0  0  0  0  0  0  0  0
   26.7560  -19.7821   -8.2349 C   0  0  0  0  0  0  0  0  0  0  0  0
   26.0344  -20.7707   -9.0992 C   0  0  2  0  0  0  0  0  0  0  0  0
   25.8822  -20.2747  -10.4674 N   0  0  0  0  0  0  0  0  0  0  0  0
   24.6794  -21.0739   -8.5936 C   0  0  0  0  0  0  0  0  0  0  0  0
   23.5889  -20.2506   -8.8525 O   0  0  0  0  0  0  0  0  0  0  0  0
   24.4399  -22.0965   -7.8996 O   0  0  0  0  0  0  0  0  0  0  0  0
  2  1  1  1
  3  2  1  0
  4  2  1  0
  4  5  1  0
  5  6  1  6
  7  5  1  0
  7  8  2  0
  9 10  1  0
 11 10  1  0
 11 12  1  0
 13 12  1  6
 13 14  1  0
 14  7  1  0
 15 13  1  0
 16 15  2  0
 18 17  1  0
 19 18  1  0
 20 19  1  0
 21 20  1  1
 21 22  1  0
 22 15  1  0
 23 21  1  0
 24 23  1  0
 25 23  2  0
M  END
$$$$
