TDT.pdb
     RDKit          3D

 23 22  0  0  1  0  0  0  0  0999 V2000
   16.7828   -3.1933  -17.6132 C   0  0  0  0  0  0  0  0  0  0  0  0
   15.5313   -2.9959  -16.8206 C   0  0  1  0  0  0  0  0  0  0  0  0
   14.5575   -2.5297  -17.7490 O   0  0  0  0  0  0  0  0  0  0  0  0
   14.9416   -4.2990  -16.2979 C   0  0  2  0  0  0  0  0  0  0  0  0
   13.7483   -3.9556  -15.4956 N   0  0  0  0  0  0  0  0  0  0  0  0
   15.8961   -4.8993  -15.3512 C   0  0  0  0  0  0  0  0  0  0  0  0
   16.0129   -4.4208  -14.1902 O   0  0  0  0  0  0  0  0  0  0  0  0
   16.6970   -5.9995  -15.6776 N   0  0  0  0  0  0  0  0  0  0  0  0
   17.7120   -6.5313  -14.7551 C   0  0  1  0  0  0  0  0  0  0  0  0
   17.5246   -8.0205  -14.6382 C   0  0  0  0  0  0  0  0  0  0  0  0
   18.5926   -8.6320  -13.8237 C   0  0  0  0  0  0  0  0  0  0  0  0
   19.7875   -8.3754  -14.0651 O   0  0  0  0  0  0  0  0  0  0  0  0
   19.0374   -6.1736  -15.2920 C   0  0  0  0  0  0  0  0  0  0  0  0
   19.3336   -6.4984  -16.4577 O   0  0  0  0  0  0  0  0  0  0  0  0
   18.2776   -9.4939  -12.7870 O   0  0  0  0  0  0  0  0  0  0  0  0
   20.9305   -2.6137  -14.4397 C   0  0  0  0  0  0  0  0  0  0  0  0
   21.7927   -3.8153  -14.2732 C   0  0  1  0  0  0  0  0  0  0  0  0
   21.9040   -4.1145  -12.9283 O   0  0  0  0  0  0  0  0  0  0  0  0
   21.2743   -5.0415  -14.9850 C   0  0  2  0  0  0  0  0  0  0  0  0
   19.9884   -5.4603  -14.4976 N   0  0  0  0  0  0  0  0  0  0  0  0
   22.2566   -6.1341  -15.0331 C   0  0  0  0  0  0  0  0  0  0  0  0
   22.0045   -7.3621  -14.4667 O   0  0  0  0  0  0  0  0  0  0  0  0
   23.3514   -5.9507  -15.6014 O   0  0  0  0  0  0  0  0  0  0  0  0
  2  1  1  6
  2  4  1  0
  3  2  1  0
  4  6  1  0
  4  5  1  1
  6  8  1  0
  6  7  2  0
  8  9  1  0
  9 13  1  0
  9 10  1  6
 10 11  1  0
 11 15  1  0
 12 11  2  0
 13 14  2  0
 17 16  1  1
 17 19  1  0
 17 18  1  0
 19 21  1  0
 20 13  1  0
 19 20  1  1
 21 22  1  0
 23 21  2  0
M  END
$$$$
