TDT.pdb
     RDKit          3D

 23 22  0  0  1  0  0  0  0  0999 V2000
   23.0268  -13.1627  -19.5587 C   0  0  0  0  0  0  0  0  0  0  0  0
   22.1052  -12.0416  -19.2020 C   0  0  1  0  0  0  0  0  0  0  0  0
   21.0976  -12.0368  -20.2082 O   0  0  0  0  0  0  0  0  0  0  0  0
   21.3319  -12.2890  -17.9136 C   0  0  2  0  0  0  0  0  0  0  0  0
   20.1920  -13.1710  -18.2428 N   0  0  0  0  0  0  0  0  0  0  0  0
   20.7345  -11.0173  -17.4735 C   0  0  0  0  0  0  0  0  0  0  0  0
   20.0672  -10.3230  -18.2878 O   0  0  0  0  0  0  0  0  0  0  0  0
   20.8686  -10.5282  -16.1692 N   0  0  0  0  0  0  0  0  0  0  0  0
   20.2100   -9.2901  -15.7248 C   0  0  1  0  0  0  0  0  0  0  0  0
   19.1856   -9.6378  -14.6778 C   0  0  0  0  0  0  0  0  0  0  0  0
   18.0540  -10.3829  -15.2628 C   0  0  0  0  0  0  0  0  0  0  0  0
   17.3029   -9.8314  -16.0896 O   0  0  0  0  0  0  0  0  0  0  0  0
   21.2544   -8.3868  -15.2092 C   0  0  0  0  0  0  0  0  0  0  0  0
   22.1999   -8.8581  -14.5488 O   0  0  0  0  0  0  0  0  0  0  0  0
   17.8174  -11.6977  -14.8994 O   0  0  0  0  0  0  0  0  0  0  0  0
   23.0948   -5.7657  -17.4227 C   0  0  0  0  0  0  0  0  0  0  0  0
   22.6017   -5.1040  -16.1841 C   0  0  1  0  0  0  0  0  0  0  0  0
   21.4764   -4.3586  -16.4818 O   0  0  0  0  0  0  0  0  0  0  0  0
   22.2467   -6.0678  -15.0777 C   0  0  2  0  0  0  0  0  0  0  0  0
   21.2006   -6.9792  -15.4541 N   0  0  0  0  0  0  0  0  0  0  0  0
   21.9935   -5.3979  -13.7939 C   0  0  0  0  0  0  0  0  0  0  0  0
   22.9796   -4.7063  -13.1292 O   0  0  0  0  0  0  0  0  0  0  0  0
   20.8557   -5.4534  -13.2864 O   0  0  0  0  0  0  0  0  0  0  0  0
  2  1  1  6
  2  4  1  0
  3  2  1  0
  4  6  1  0
  4  5  1  6
  6  8  1  0
  6  7  2  0
  8  9  1  0
  9 13  1  0
  9 10  1  1
 10 11  1  0
 11 15  1  0
 12 11  2  0
 13 14  2  0
 17 16  1  6
 17 19  1  0
 17 18  1  0
 19 21  1  0
 20 13  1  0
 19 20  1  6
 21 22  1  0
 23 21  2  0
M  END
$$$$
