TDT.pdb
     RDKit          3D

 23 22  0  0  1  0  0  0  0  0999 V2000
   23.3867  -10.4311  -19.4453 C   0  0  0  0  0  0  0  0  0  0  0  0
   22.4936  -11.6291  -19.4682 C   0  0  1  0  0  0  0  0  0  0  0  0
   23.3096  -12.7089  -19.9108 O   0  0  0  0  0  0  0  0  0  0  0  0
   22.0370  -12.0623  -18.0815 C   0  0  2  0  0  0  0  0  0  0  0  0
   21.1810  -13.2559  -18.2491 N   0  0  0  0  0  0  0  0  0  0  0  0
   21.1574  -11.0183  -17.5299 C   0  0  0  0  0  0  0  0  0  0  0  0
   20.1119  -10.6861  -18.1521 O   0  0  0  0  0  0  0  0  0  0  0  0
   21.4244  -10.3621  -16.3231 N   0  0  0  0  0  0  0  0  0  0  0  0
   20.6027   -9.2407  -15.8422 C   0  0  1  0  0  0  0  0  0  0  0  0
   19.6494   -9.7548  -14.7965 C   0  0  0  0  0  0  0  0  0  0  0  0
   18.8810   -8.6533  -14.1850 C   0  0  0  0  0  0  0  0  0  0  0  0
   18.5190   -7.6835  -14.8781 O   0  0  0  0  0  0  0  0  0  0  0  0
   21.5148   -8.2115  -15.3118 C   0  0  0  0  0  0  0  0  0  0  0  0
   22.4959   -8.5576  -14.6263 O   0  0  0  0  0  0  0  0  0  0  0  0
   18.5562   -8.6872  -12.8396 O   0  0  0  0  0  0  0  0  0  0  0  0
   23.2853   -5.4371  -17.3378 C   0  0  0  0  0  0  0  0  0  0  0  0
   22.5412   -4.8121  -16.2105 C   0  0  1  0  0  0  0  0  0  0  0  0
   21.3776   -4.2422  -16.6919 O   0  0  0  0  0  0  0  0  0  0  0  0
   22.1703   -5.7803  -15.1133 C   0  0  2  0  0  0  0  0  0  0  0  0
   21.2928   -6.8230  -15.5707 N   0  0  0  0  0  0  0  0  0  0  0  0
   21.6855   -5.1103  -13.8980 C   0  0  0  0  0  0  0  0  0  0  0  0
   22.4676   -4.2206  -13.1986 O   0  0  0  0  0  0  0  0  0  0  0  0
   20.5342   -5.3497  -13.4827 O   0  0  0  0  0  0  0  0  0  0  0  0
  2  1  1  1
  2  4  1  0
  3  2  1  0
  4  6  1  0
  4  5  1  6
  6  8  1  0
  6  7  2  0
  8  9  1  0
  9 13  1  0
  9 10  1  1
 10 11  1  0
 11 15  1  0
 12 11  2  0
 13 14  2  0
 17 16  1  6
 17 19  1  0
 17 18  1  0
 19 21  1  0
 20 13  1  0
 19 20  1  6
 21 22  1  0
 23 21  2  0
M  END
$$$$
