TDT.pdb
     RDKit          3D

 23 22  0  0  1  0  0  0  0  0999 V2000
   21.4321   -8.0593  -22.2770 C   0  0  0  0  0  0  0  0  0  0  0  0
   21.0904   -7.8062  -20.8443 C   0  0  1  0  0  0  0  0  0  0  0  0
   19.9827   -8.6536  -20.5574 O   0  0  0  0  0  0  0  0  0  0  0  0
   22.1695   -8.2782  -19.8790 C   0  0  2  0  0  0  0  0  0  0  0  0
   22.2518   -9.7501  -19.9908 N   0  0  0  0  0  0  0  0  0  0  0  0
   21.7181   -8.0102  -18.5034 C   0  0  0  0  0  0  0  0  0  0  0  0
   21.2877   -8.9562  -17.7890 O   0  0  0  0  0  0  0  0  0  0  0  0
   21.7445   -6.7328  -17.9325 N   0  0  0  0  0  0  0  0  0  0  0  0
   21.2861   -6.4791  -16.5578 C   0  0  1  0  0  0  0  0  0  0  0  0
   22.3622   -5.7262  -15.8217 C   0  0  0  0  0  0  0  0  0  0  0  0
   21.9418   -5.4012  -14.4450 C   0  0  0  0  0  0  0  0  0  0  0  0
   20.8567   -5.8273  -14.0056 O   0  0  0  0  0  0  0  0  0  0  0  0
   20.0255   -5.7194  -16.6385 C   0  0  0  0  0  0  0  0  0  0  0  0
   19.9975   -4.6451  -17.2690 O   0  0  0  0  0  0  0  0  0  0  0  0
   22.7467   -4.6222  -13.6314 O   0  0  0  0  0  0  0  0  0  0  0  0
   16.2739   -7.3050  -14.8843 C   0  0  0  0  0  0  0  0  0  0  0  0
   16.4035   -6.4897  -16.1227 C   0  0  1  0  0  0  0  0  0  0  0  0
   15.2447   -5.7604  -16.3124 O   0  0  0  0  0  0  0  0  0  0  0  0
   17.5655   -5.5262  -16.0997 C   0  0  2  0  0  0  0  0  0  0  0  0
   18.8348   -6.1944  -16.0055 N   0  0  0  0  0  0  0  0  0  0  0  0
   17.4022   -4.4556  -15.1056 C   0  0  0  0  0  0  0  0  0  0  0  0
   16.4202   -3.4994  -15.2233 O   0  0  0  0  0  0  0  0  0  0  0  0
   18.1713   -4.4058  -14.1252 O   0  0  0  0  0  0  0  0  0  0  0  0
  2  1  1  6
  2  4  1  0
  3  2  1  0
  4  6  1  0
  4  5  1  1
  6  8  1  0
  6  7  2  0
  8  9  1  0
  9 13  1  0
  9 10  1  1
 10 11  1  0
 11 15  1  0
 12 11  2  0
 13 14  2  0
 17 16  1  1
 17 19  1  0
 17 18  1  0
 19 21  1  0
 20 13  1  0
 19 20  1  1
 21 22  1  0
 23 21  2  0
M  END
$$$$
