TDT.pdb
     RDKit          3D

 23 22  0  0  1  0  0  0  0  0999 V2000
   28.7018  -10.1057  -16.7701 C   0  0  0  0  0  0  0  0  0  0  0  0
   27.2169   -9.9381  -16.7601 C   0  0  1  0  0  0  0  0  0  0  0  0
   26.7774  -10.3239  -18.0585 O   0  0  0  0  0  0  0  0  0  0  0  0
   26.5101  -10.9160  -15.8310 C   0  0  2  0  0  0  0  0  0  0  0  0
   26.7988  -12.2808  -16.3207 N   0  0  0  0  0  0  0  0  0  0  0  0
   25.0562  -10.7400  -15.9829 C   0  0  0  0  0  0  0  0  0  0  0  0
   24.3300  -11.7329  -16.2609 O   0  0  0  0  0  0  0  0  0  0  0  0
   24.4225   -9.5018  -15.8291 N   0  0  0  0  0  0  0  0  0  0  0  0
   22.9576   -9.3682  -15.8089 C   0  0  1  0  0  0  0  0  0  0  0  0
   22.4263  -10.0678  -14.5863 C   0  0  0  0  0  0  0  0  0  0  0  0
   20.9688   -9.8787  -14.4526 C   0  0  0  0  0  0  0  0  0  0  0  0
   20.2235  -10.0476  -15.4364 O   0  0  0  0  0  0  0  0  0  0  0  0
   22.6385   -7.9292  -15.8145 C   0  0  0  0  0  0  0  0  0  0  0  0
   23.0938   -7.1977  -14.9146 O   0  0  0  0  0  0  0  0  0  0  0  0
   20.4178   -9.5129  -13.2363 O   0  0  0  0  0  0  0  0  0  0  0  0
   22.6353   -5.6561  -19.1542 C   0  0  0  0  0  0  0  0  0  0  0  0
   21.3956   -5.4775  -18.3503 C   0  0  1  0  0  0  0  0  0  0  0  0
   20.3605   -6.1724  -18.9471 O   0  0  0  0  0  0  0  0  0  0  0  0
   21.5198   -5.9548  -16.9236 C   0  0  2  0  0  0  0  0  0  0  0  0
   21.8154   -7.3588  -16.8350 N   0  0  0  0  0  0  0  0  0  0  0  0
   20.3832   -5.5507  -16.0834 C   0  0  0  0  0  0  0  0  0  0  0  0
   20.0754   -4.2276  -15.8664 O   0  0  0  0  0  0  0  0  0  0  0  0
   19.6734   -6.4256  -15.5488 O   0  0  0  0  0  0  0  0  0  0  0  0
  2  1  1  6
  2  4  1  0
  3  2  1  0
  4  6  1  0
  4  5  1  6
  6  8  1  0
  6  7  2  0
  8  9  1  0
  9 13  1  0
  9 10  1  1
 10 11  1  0
 11 15  1  0
 12 11  2  0
 13 14  2  0
 17 16  1  6
 17 19  1  0
 17 18  1  0
 19 21  1  0
 20 13  1  0
 19 20  1  6
 21 22  1  0
 23 21  2  0
M  END
$$$$
