TDT.pdb
     RDKit          3D

 23 22  0  0  1  0  0  0  0  0999 V2000
   16.7898  -12.4581  -14.8031 C   0  0  0  0  0  0  0  0  0  0  0  0
   17.3601  -11.0779  -14.8595 C   0  0  1  0  0  0  0  0  0  0  0  0
   18.7732  -11.2471  -14.9049 O   0  0  0  0  0  0  0  0  0  0  0  0
   17.0387  -10.3498  -16.1579 C   0  0  2  0  0  0  0  0  0  0  0  0
   17.7549  -11.0475  -17.2468 N   0  0  0  0  0  0  0  0  0  0  0  0
   17.6268   -9.0013  -16.0974 C   0  0  0  0  0  0  0  0  0  0  0  0
   18.4965   -8.6580  -16.9438 O   0  0  0  0  0  0  0  0  0  0  0  0
   17.2618   -8.0580  -15.1304 N   0  0  0  0  0  0  0  0  0  0  0  0
   17.7197   -6.6610  -15.1860 C   0  0  1  0  0  0  0  0  0  0  0  0
   16.5810   -5.7637  -14.7801 C   0  0  0  0  0  0  0  0  0  0  0  0
   15.5595   -5.6817  -15.8420 C   0  0  0  0  0  0  0  0  0  0  0  0
   15.8618   -5.2424  -16.9678 O   0  0  0  0  0  0  0  0  0  0  0  0
   18.8814   -6.5338  -14.2878 C   0  0  0  0  0  0  0  0  0  0  0  0
   18.7481   -6.7864  -13.0751 O   0  0  0  0  0  0  0  0  0  0  0  0
   14.2597   -6.0910  -15.5978 O   0  0  0  0  0  0  0  0  0  0  0  0
   22.2128   -8.3410  -14.8177 C   0  0  0  0  0  0  0  0  0  0  0  0
   22.4847   -6.8878  -14.6473 C   0  0  1  0  0  0  0  0  0  0  0  0
   22.7214   -6.3194  -15.8849 O   0  0  0  0  0  0  0  0  0  0  0  0
   21.3568   -6.1290  -13.9908 C   0  0  2  0  0  0  0  0  0  0  0  0
   20.1584   -6.1255  -14.7846 N   0  0  0  0  0  0  0  0  0  0  0  0
   21.7546   -4.7872  -13.5411 C   0  0  0  0  0  0  0  0  0  0  0  0
   21.1459   -3.6508  -14.0213 O   0  0  0  0  0  0  0  0  0  0  0  0
   22.6684   -4.6671  -12.7010 O   0  0  0  0  0  0  0  0  0  0  0  0
  2  1  1  6
  2  4  1  0
  3  2  1  0
  4  6  1  0
  4  5  1  6
  6  8  1  0
  6  7  2  0
  8  9  1  0
  9 13  1  0
  9 10  1  1
 10 11  1  0
 11 15  1  0
 12 11  2  0
 13 14  2  0
 17 16  1  6
 17 19  1  0
 17 18  1  0
 19 21  1  0
 20 13  1  0
 19 20  1  6
 21 22  1  0
 23 21  2  0
M  END
$$$$
