TDT.pdb
     RDKit          3D

 23 22  0  0  1  0  0  0  0  0999 V2000
   21.2270  -10.1264  -20.6481 C   0  0  0  0  0  0  0  0  0  0  0  0
   20.8979   -9.2199  -19.5064 C   0  0  1  0  0  0  0  0  0  0  0  0
   19.4770   -9.1301  -19.4837 O   0  0  0  0  0  0  0  0  0  0  0  0
   21.2468   -9.8157  -18.1490 C   0  0  2  0  0  0  0  0  0  0  0  0
   20.3733  -10.9904  -17.9424 N   0  0  0  0  0  0  0  0  0  0  0  0
   20.8683   -8.8516  -17.1025 C   0  0  0  0  0  0  0  0  0  0  0  0
   19.8164   -9.0353  -16.4315 O   0  0  0  0  0  0  0  0  0  0  0  0
   21.6326   -7.7180  -16.8041 N   0  0  0  0  0  0  0  0  0  0  0  0
   21.2237   -6.7443  -15.7799 C   0  0  1  0  0  0  0  0  0  0  0  0
   22.3652   -6.5478  -14.8182 C   0  0  0  0  0  0  0  0  0  0  0  0
   21.9996   -5.6111  -13.7380 C   0  0  0  0  0  0  0  0  0  0  0  0
   21.1253   -5.9246  -12.9078 O   0  0  0  0  0  0  0  0  0  0  0  0
   20.8514   -5.4966  -16.4707 C   0  0  0  0  0  0  0  0  0  0  0  0
   21.6201   -5.0179  -17.3264 O   0  0  0  0  0  0  0  0  0  0  0  0
   22.6229   -4.3789  -13.6374 O   0  0  0  0  0  0  0  0  0  0  0  0
   17.0851   -2.6655  -17.8353 C   0  0  0  0  0  0  0  0  0  0  0  0
   17.7029   -3.3929  -16.6933 C   0  0  1  0  0  0  0  0  0  0  0  0
   17.0781   -4.6163  -16.5396 O   0  0  0  0  0  0  0  0  0  0  0  0
   19.1833   -3.6397  -16.8565 C   0  0  2  0  0  0  0  0  0  0  0  0
   19.6234   -4.8266  -16.1753 N   0  0  0  0  0  0  0  0  0  0  0  0
   19.9990   -2.4580  -16.5416 C   0  0  0  0  0  0  0  0  0  0  0  0
   20.2651   -1.4886  -17.4808 O   0  0  0  0  0  0  0  0  0  0  0  0
   20.4667   -2.3231  -15.3935 O   0  0  0  0  0  0  0  0  0  0  0  0
  2  1  1  6
  2  4  1  0
  3  2  1  0
  4  6  1  0
  4  5  1  1
  6  8  1  0
  6  7  2  0
  8  9  1  0
  9 13  1  0
  9 10  1  1
 10 11  1  0
 11 15  1  0
 12 11  2  0
 13 14  2  0
 17 16  1  6
 17 19  1  0
 17 18  1  0
 19 21  1  0
 20 13  1  0
 19 20  1  1
 21 22  1  0
 23 21  2  0
M  END
$$$$
