TDT.pdb
     RDKit          3D

 23 22  0  0  1  0  0  0  0  0999 V2000
   18.3048  -12.8998  -17.6547 C   0  0  0  0  0  0  0  0  0  0  0  0
   17.8607  -13.2732  -16.2775 C   0  0  1  0  0  0  0  0  0  0  0  0
   18.9070  -12.8520  -15.4083 O   0  0  0  0  0  0  0  0  0  0  0  0
   16.6510  -12.4792  -15.8025 C   0  0  2  0  0  0  0  0  0  0  0  0
   15.5083  -12.8555  -16.6617 N   0  0  0  0  0  0  0  0  0  0  0  0
   16.8932  -11.0515  -16.0685 C   0  0  0  0  0  0  0  0  0  0  0  0
   16.9838  -10.6417  -17.2578 O   0  0  0  0  0  0  0  0  0  0  0  0
   17.0287  -10.1029  -15.0486 N   0  0  0  0  0  0  0  0  0  0  0  0
   17.4382   -8.7158  -15.3176 C   0  0  1  0  0  0  0  0  0  0  0  0
   16.3759   -7.7884  -14.7903 C   0  0  0  0  0  0  0  0  0  0  0  0
   15.1510   -7.8563  -15.6105 C   0  0  0  0  0  0  0  0  0  0  0  0
   14.1121   -8.3595  -15.1422 O   0  0  0  0  0  0  0  0  0  0  0  0
   18.7437   -8.4997  -14.6684 C   0  0  0  0  0  0  0  0  0  0  0  0
   18.9132   -8.8781  -13.4935 O   0  0  0  0  0  0  0  0  0  0  0  0
   15.1450   -7.3629  -16.9041 O   0  0  0  0  0  0  0  0  0  0  0  0
   22.2110   -9.7108  -15.6330 C   0  0  0  0  0  0  0  0  0  0  0  0
   22.2337   -8.2234  -15.5865 C   0  0  1  0  0  0  0  0  0  0  0  0
   22.1531   -7.7251  -16.8733 O   0  0  0  0  0  0  0  0  0  0  0  0
   21.1092   -7.6212  -14.7791 C   0  0  2  0  0  0  0  0  0  0  0  0
   19.8186   -7.8633  -15.3640 N   0  0  0  0  0  0  0  0  0  0  0  0
   21.3359   -6.2071  -14.4472 C   0  0  0  0  0  0  0  0  0  0  0  0
   22.3847   -5.8074  -13.6518 O   0  0  0  0  0  0  0  0  0  0  0  0
   20.5602   -5.3395  -14.8952 O   0  0  0  0  0  0  0  0  0  0  0  0
  2  1  1  6
  2  4  1  0
  3  2  1  0
  4  6  1  0
  4  5  1  6
  6  8  1  0
  6  7  2  0
  8  9  1  0
  9 13  1  0
  9 10  1  1
 10 11  1  0
 11 15  1  0
 12 11  2  0
 13 14  2  0
 17 16  1  6
 17 19  1  0
 17 18  1  0
 19 21  1  0
 20 13  1  0
 19 20  1  6
 21 22  1  0
 23 21  2  0
M  END
$$$$
