TDT.pdb
     RDKit          3D

 23 22  0  0  1  0  0  0  0  0999 V2000
   13.2663   -7.1614  -11.1920 C   0  0  0  0  0  0  0  0  0  0  0  0
   13.3631   -7.7237   -9.8108 C   0  0  1  0  0  0  0  0  0  0  0  0
   12.0711   -7.5565   -9.2359 O   0  0  0  0  0  0  0  0  0  0  0  0
   13.5779   -9.2313   -9.7916 C   0  0  2  0  0  0  0  0  0  0  0  0
   13.7442   -9.6378   -8.3800 N   0  0  0  0  0  0  0  0  0  0  0  0
   14.8636   -9.5301  -10.4439 C   0  0  0  0  0  0  0  0  0  0  0  0
   15.9298   -9.5014   -9.7710 O   0  0  0  0  0  0  0  0  0  0  0  0
   14.9674   -9.8544  -11.8013 N   0  0  0  0  0  0  0  0  0  0  0  0
   16.2552  -10.1821  -12.4325 C   0  0  1  0  0  0  0  0  0  0  0  0
   16.2471  -11.6375  -12.8178 C   0  0  0  0  0  0  0  0  0  0  0  0
   17.4844  -12.0092  -13.5310 C   0  0  0  0  0  0  0  0  0  0  0  0
   18.4216  -11.1937  -13.6237 O   0  0  0  0  0  0  0  0  0  0  0  0
   16.4221   -9.2947  -13.5976 C   0  0  0  0  0  0  0  0  0  0  0  0
   15.6145   -9.3679  -14.5435 O   0  0  0  0  0  0  0  0  0  0  0  0
   17.6149  -13.2637  -14.1019 O   0  0  0  0  0  0  0  0  0  0  0  0
   16.0242   -5.7404  -13.8811 C   0  0  0  0  0  0  0  0  0  0  0  0
   17.4187   -5.9954  -14.3343 C   0  0  1  0  0  0  0  0  0  0  0  0
   18.2955   -5.6782  -13.3139 O   0  0  0  0  0  0  0  0  0  0  0  0
   17.6746   -7.4254  -14.7450 C   0  0  2  0  0  0  0  0  0  0  0  0
   17.4950   -8.3517  -13.6605 N   0  0  0  0  0  0  0  0  0  0  0  0
   18.9550   -7.5995  -15.4460 C   0  0  0  0  0  0  0  0  0  0  0  0
   19.2270   -6.9559  -16.6310 O   0  0  0  0  0  0  0  0  0  0  0  0
   19.8241   -8.3500  -14.9596 O   0  0  0  0  0  0  0  0  0  0  0  0
  2  1  1  6
  2  4  1  0
  3  2  1  0
  4  6  1  0
  4  5  1  1
  6  8  1  0
  6  7  2  0
  8  9  1  0
  9 13  1  0
  9 10  1  6
 10 11  1  0
 11 15  1  0
 12 11  2  0
 13 14  2  0
 17 16  1  1
 17 19  1  0
 17 18  1  0
 19 21  1  0
 20 13  1  0
 19 20  1  1
 21 22  1  0
 23 21  2  0
M  END
$$$$
