TDT.pdb
     RDKit          3D

 23 22  0  0  1  0  0  0  0  0999 V2000
   27.5977  -17.3194  -14.8036 C   0  0  0  0  0  0  0  0  0  0  0  0
   26.2363  -17.8195  -15.1640 C   0  0  1  0  0  0  0  0  0  0  0  0
   25.6849  -16.8388  -16.0369 O   0  0  0  0  0  0  0  0  0  0  0  0
   26.2679  -19.0845  -16.0112 C   0  0  2  0  0  0  0  0  0  0  0  0
   26.8458  -18.7251  -17.3237 N   0  0  0  0  0  0  0  0  0  0  0  0
   24.8823  -19.4981  -16.2885 C   0  0  0  0  0  0  0  0  0  0  0  0
   24.3632  -19.2405  -17.4086 O   0  0  0  0  0  0  0  0  0  0  0  0
   24.0936  -20.1798  -15.3549 N   0  0  0  0  0  0  0  0  0  0  0  0
   22.7271  -20.6292  -15.6626 C   0  0  1  0  0  0  0  0  0  0  0  0
   22.5294  -22.0042  -15.0822 C   0  0  0  0  0  0  0  0  0  0  0  0
   21.1746  -22.5155  -15.3668 C   0  0  0  0  0  0  0  0  0  0  0  0
   20.6037  -22.2143  -16.4323 O   0  0  0  0  0  0  0  0  0  0  0  0
   21.7917  -19.6414  -15.0951 C   0  0  0  0  0  0  0  0  0  0  0  0
   21.8838  -19.3321  -13.8917 O   0  0  0  0  0  0  0  0  0  0  0  0
   20.5274  -23.3321  -14.4553 O   0  0  0  0  0  0  0  0  0  0  0  0
   18.7208  -17.4961  -17.5780 C   0  0  0  0  0  0  0  0  0  0  0  0
   19.5217  -16.9952  -16.4279 C   0  0  1  0  0  0  0  0  0  0  0  0
   18.8242  -15.9860  -15.7910 O   0  0  0  0  0  0  0  0  0  0  0  0
   19.8501  -18.0561  -15.4053 C   0  0  2  0  0  0  0  0  0  0  0  0
   20.7808  -19.0324  -15.9022 N   0  0  0  0  0  0  0  0  0  0  0  0
   18.6533  -18.6566  -14.7986 C   0  0  0  0  0  0  0  0  0  0  0  0
   18.4712  -20.0193  -14.7483 O   0  0  0  0  0  0  0  0  0  0  0  0
   17.7740  -17.9172  -14.3137 O   0  0  0  0  0  0  0  0  0  0  0  0
  2  1  1  6
  2  4  1  0
  3  2  1  0
  4  6  1  0
  4  5  1  6
  6  8  1  0
  6  7  2  0
  8  9  1  0
  9 13  1  0
  9 10  1  1
 10 11  1  0
 11 15  1  0
 12 11  2  0
 13 14  2  0
 17 16  1  6
 17 19  1  0
 17 18  1  0
 19 21  1  0
 20 13  1  0
 19 20  1  6
 21 22  1  0
 23 21  2  0
M  END
$$$$
