TDT.pdb
     RDKit          3D

 23 22  0  0  1  0  0  0  0  0999 V2000
   26.0714  -20.4742  -17.5624 C   0  0  0  0  0  0  0  0  0  0  0  0
   27.3754  -20.0392  -16.9762 C   0  0  1  0  0  0  0  0  0  0  0  0
   27.0978  -18.8323  -16.2734 O   0  0  0  0  0  0  0  0  0  0  0  0
   27.8895  -20.9803  -15.8949 C   0  0  2  0  0  0  0  0  0  0  0  0
   28.2208  -22.2655  -16.5462 N   0  0  0  0  0  0  0  0  0  0  0  0
   26.7845  -21.2789  -14.9689 C   0  0  0  0  0  0  0  0  0  0  0  0
   25.8690  -22.0721  -15.3199 O   0  0  0  0  0  0  0  0  0  0  0  0
   26.6954  -20.7186  -13.6896 N   0  0  0  0  0  0  0  0  0  0  0  0
   25.6117  -21.0638  -12.7565 C   0  0  1  0  0  0  0  0  0  0  0  0
   26.0874  -20.8118  -11.3505 C   0  0  0  0  0  0  0  0  0  0  0  0
   25.1520  -21.3783  -10.3595 C   0  0  0  0  0  0  0  0  0  0  0  0
   24.1251  -21.9735  -10.7379 O   0  0  0  0  0  0  0  0  0  0  0  0
   24.4392  -20.2424  -13.1073 C   0  0  0  0  0  0  0  0  0  0  0  0
   24.5138  -19.0016  -13.0234 O   0  0  0  0  0  0  0  0  0  0  0  0
   25.4061  -21.2540   -9.0042 O   0  0  0  0  0  0  0  0  0  0  0  0
   22.9860  -19.6151  -16.2360 C   0  0  0  0  0  0  0  0  0  0  0  0
   21.8399  -20.1357  -15.4420 C   0  0  1  0  0  0  0  0  0  0  0  0
   21.5932  -21.4472  -15.8024 O   0  0  0  0  0  0  0  0  0  0  0  0
   22.0626  -20.0934  -13.9495 C   0  0  2  0  0  0  0  0  0  0  0  0
   23.2180  -20.8455  -13.5423 N   0  0  0  0  0  0  0  0  0  0  0  0
   20.8555  -20.4292  -13.1806 C   0  0  0  0  0  0  0  0  0  0  0  0
   19.6749  -19.7429  -13.3466 O   0  0  0  0  0  0  0  0  0  0  0  0
   20.8946  -21.3609  -12.3526 O   0  0  0  0  0  0  0  0  0  0  0  0
  2  1  1  1
  2  4  1  0
  3  2  1  0
  4  6  1  0
  4  5  1  6
  6  8  1  0
  6  7  2  0
  8  9  1  0
  9 13  1  0
  9 10  1  1
 10 11  1  0
 11 15  1  0
 12 11  2  0
 13 14  2  0
 17 16  1  6
 17 19  1  0
 17 18  1  0
 19 21  1  0
 20 13  1  0
 19 20  1  6
 21 22  1  0
 23 21  2  0
M  END
$$$$
