TDT.pdb
     RDKit          3D

 23 22  0  0  1  0  0  0  0  0999 V2000
   14.8515   -8.7343  -17.7616 C   0  0  0  0  0  0  0  0  0  0  0  0
   16.1087   -8.4381  -17.0100 C   0  0  1  0  0  0  0  0  0  0  0  0
   15.7765   -7.3939  -16.1007 O   0  0  0  0  0  0  0  0  0  0  0  0
   16.5495   -9.5816  -16.1060 C   0  0  2  0  0  0  0  0  0  0  0  0
   15.5456   -9.7071  -15.0280 N   0  0  0  0  0  0  0  0  0  0  0  0
   17.8027   -9.1943  -15.4370 C   0  0  0  0  0  0  0  0  0  0  0  0
   17.7970   -8.9166  -14.2068 O   0  0  0  0  0  0  0  0  0  0  0  0
   19.0282   -9.1189  -16.1084 N   0  0  0  0  0  0  0  0  0  0  0  0
   20.2864   -8.8115  -15.4108 C   0  0  1  0  0  0  0  0  0  0  0  0
   21.3596   -9.7354  -15.9221 C   0  0  0  0  0  0  0  0  0  0  0  0
   22.6710   -9.4135  -15.3269 C   0  0  0  0  0  0  0  0  0  0  0  0
   22.9229   -8.2496  -14.9611 O   0  0  0  0  0  0  0  0  0  0  0  0
   20.6023   -7.3934  -15.6596 C   0  0  0  0  0  0  0  0  0  0  0  0
   20.8610   -7.0183  -16.8192 O   0  0  0  0  0  0  0  0  0  0  0  0
   23.6308  -10.3989  -15.1700 O   0  0  0  0  0  0  0  0  0  0  0  0
   18.4990   -4.4332  -15.2848 C   0  0  0  0  0  0  0  0  0  0  0  0
   19.6968   -4.1738  -14.4403 C   0  0  1  0  0  0  0  0  0  0  0  0
   19.3752   -4.3895  -13.1134 O   0  0  0  0  0  0  0  0  0  0  0  0
   20.8837   -5.0417  -14.7823 C   0  0  2  0  0  0  0  0  0  0  0  0
   20.6167   -6.4415  -14.5930 N   0  0  0  0  0  0  0  0  0  0  0  0
   22.1244   -4.5979  -14.1306 C   0  0  0  0  0  0  0  0  0  0  0  0
   22.6618   -3.3533  -14.3641 O   0  0  0  0  0  0  0  0  0  0  0  0
   22.7124   -5.3653  -13.3428 O   0  0  0  0  0  0  0  0  0  0  0  0
  2  1  1  1
  2  4  1  0
  3  2  1  0
  4  6  1  0
  4  5  1  1
  6  8  1  0
  6  7  2  0
  8  9  1  0
  9 13  1  0
  9 10  1  6
 10 11  1  0
 11 15  1  0
 12 11  2  0
 13 14  2  0
 17 16  1  6
 17 19  1  0
 17 18  1  0
 19 21  1  0
 20 13  1  0
 19 20  1  1
 21 22  1  0
 23 21  2  0
M  END
$$$$
