TDT.pdb
     RDKit          3D

 23 22  0  0  1  0  0  0  0  0999 V2000
   23.0121  -20.8167   -8.8228 C   0  0  0  0  0  0  0  0  0  0  0  0
   23.6157  -20.5412  -10.1619 C   0  0  1  0  0  0  0  0  0  0  0  0
   23.4148  -19.1511  -10.3958 O   0  0  0  0  0  0  0  0  0  0  0  0
   25.1303  -20.6983  -10.1798 C   0  0  2  0  0  0  0  0  0  0  0  0
   25.6933  -19.6738   -9.2748 N   0  0  0  0  0  0  0  0  0  0  0  0
   25.6219  -20.3526  -11.5239 C   0  0  0  0  0  0  0  0  0  0  0  0
   26.3628  -19.3441  -11.6805 O   0  0  0  0  0  0  0  0  0  0  0  0
   25.3058  -21.1023  -12.6625 N   0  0  0  0  0  0  0  0  0  0  0  0
   25.8585  -20.7848  -13.9883 C   0  0  1  0  0  0  0  0  0  0  0  0
   26.3151  -22.0632  -14.6393 C   0  0  0  0  0  0  0  0  0  0  0  0
   26.8439  -21.8145  -15.9944 C   0  0  0  0  0  0  0  0  0  0  0  0
   27.6810  -20.9113  -16.1829 O   0  0  0  0  0  0  0  0  0  0  0  0
   24.8037  -20.1068  -14.7632 C   0  0  0  0  0  0  0  0  0  0  0  0
   23.6094  -20.3902  -14.5499 O   0  0  0  0  0  0  0  0  0  0  0  0
   26.4161  -22.5802  -17.0656 O   0  0  0  0  0  0  0  0  0  0  0  0
   24.9177  -16.1071  -15.5797 C   0  0  0  0  0  0  0  0  0  0  0  0
   24.6446  -16.9523  -16.7738 C   0  0  1  0  0  0  0  0  0  0  0  0
   25.8037  -17.0826  -17.5156 O   0  0  0  0  0  0  0  0  0  0  0  0
   24.1436  -18.3366  -16.4396 C   0  0  2  0  0  0  0  0  0  0  0  0
   25.1281  -19.1296  -15.7553 N   0  0  0  0  0  0  0  0  0  0  0  0
   23.5498  -19.0252  -17.5947 C   0  0  0  0  0  0  0  0  0  0  0  0
   22.4864  -18.4949  -18.2878 O   0  0  0  0  0  0  0  0  0  0  0  0
   24.0173  -20.1211  -17.9629 O   0  0  0  0  0  0  0  0  0  0  0  0
  2  1  1  1
  2  4  1  0
  3  2  1  0
  4  6  1  0
  4  5  1  1
  6  8  1  0
  6  7  2  0
  8  9  1  0
  9 13  1  0
  9 10  1  6
 10 11  1  0
 11 15  1  0
 12 11  2  0
 13 14  2  0
 17 16  1  1
 17 19  1  0
 17 18  1  0
 19 21  1  0
 20 13  1  0
 19 20  1  6
 21 22  1  0
 23 21  2  0
M  END
$$$$
