TDT.pdb
     RDKit          3D

 23 22  0  0  1  0  0  0  0  0999 V2000
   12.6282  -13.3239  -12.3428 C   0  0  0  0  0  0  0  0  0  0  0  0
   13.6558  -12.2875  -12.0214 C   0  0  1  0  0  0  0  0  0  0  0  0
   13.8970  -12.4055  -10.6231 O   0  0  0  0  0  0  0  0  0  0  0  0
   15.0127  -12.5744  -12.6505 C   0  0  2  0  0  0  0  0  0  0  0  0
   15.5961  -13.7312  -11.9384 N   0  0  0  0  0  0  0  0  0  0  0  0
   15.9097  -11.4417  -12.3675 C   0  0  0  0  0  0  0  0  0  0  0  0
   16.7859  -11.5456  -11.4663 O   0  0  0  0  0  0  0  0  0  0  0  0
   15.8421  -10.2293  -13.0630 N   0  0  0  0  0  0  0  0  0  0  0  0
   16.7233   -9.0944  -12.7473 C   0  0  1  0  0  0  0  0  0  0  0  0
   17.3108   -8.5686  -14.0299 C   0  0  0  0  0  0  0  0  0  0  0  0
   18.1854   -7.4062  -13.7809 C   0  0  0  0  0  0  0  0  0  0  0  0
   18.3447   -6.5430  -14.6648 O   0  0  0  0  0  0  0  0  0  0  0  0
   15.9156   -8.0816  -12.0441 C   0  0  0  0  0  0  0  0  0  0  0  0
   14.7681   -7.8215  -12.4537 O   0  0  0  0  0  0  0  0  0  0  0  0
   18.8349   -7.2646  -12.5665 O   0  0  0  0  0  0  0  0  0  0  0  0
   15.1610   -7.7163   -8.1317 C   0  0  0  0  0  0  0  0  0  0  0  0
   15.8275   -6.5096   -8.6927 C   0  0  1  0  0  0  0  0  0  0  0  0
   17.1742   -6.5466   -8.3833 O   0  0  0  0  0  0  0  0  0  0  0  0
   15.6938   -6.3799  -10.1908 C   0  0  2  0  0  0  0  0  0  0  0  0
   16.4267   -7.3930  -10.9001 N   0  0  0  0  0  0  0  0  0  0  0  0
   15.9731   -5.0204  -10.6752 C   0  0  0  0  0  0  0  0  0  0  0  0
   15.2604   -3.9309  -10.2308 O   0  0  0  0  0  0  0  0  0  0  0  0
   16.8799   -4.8412  -11.5123 O   0  0  0  0  0  0  0  0  0  0  0  0
  2  1  1  6
  2  4  1  0
  3  2  1  0
  4  6  1  0
  4  5  1  1
  6  8  1  0
  6  7  2  0
  8  9  1  0
  9 13  1  0
  9 10  1  6
 10 11  1  0
 11 15  1  0
 12 11  2  0
 13 14  2  0
 17 16  1  6
 17 19  1  0
 17 18  1  0
 19 21  1  0
 20 13  1  0
 19 20  1  6
 21 22  1  0
 23 21  2  0
M  END
$$$$
