TDT.pdb
     RDKit          3D

 23 22  0  0  1  0  0  0  0  0999 V2000
   16.8578  -12.6329  -17.0987 C   0  0  0  0  0  0  0  0  0  0  0  0
   18.1591  -12.0305  -16.6778 C   0  0  1  0  0  0  0  0  0  0  0  0
   18.6486  -11.3354  -17.8200 O   0  0  0  0  0  0  0  0  0  0  0  0
   18.0018  -10.9393  -15.6272 C   0  0  2  0  0  0  0  0  0  0  0  0
   17.2602   -9.8242  -16.2534 N   0  0  0  0  0  0  0  0  0  0  0  0
   19.3341  -10.3995  -15.3086 C   0  0  0  0  0  0  0  0  0  0  0  0
   20.2367  -11.1692  -14.8805 O   0  0  0  0  0  0  0  0  0  0  0  0
   19.6603   -9.0472  -15.4618 N   0  0  0  0  0  0  0  0  0  0  0  0
   21.0296   -8.5448  -15.2702 C   0  0  1  0  0  0  0  0  0  0  0  0
   21.9318   -9.2077  -16.2768 C   0  0  0  0  0  0  0  0  0  0  0  0
   23.2709   -8.5874  -16.2855 C   0  0  0  0  0  0  0  0  0  0  0  0
   23.7569   -8.1344  -15.2317 O   0  0  0  0  0  0  0  0  0  0  0  0
   20.9957   -7.0796  -15.4271 C   0  0  0  0  0  0  0  0  0  0  0  0
   20.9081   -6.5880  -16.5685 O   0  0  0  0  0  0  0  0  0  0  0  0
   23.9973   -8.5034  -17.4611 O   0  0  0  0  0  0  0  0  0  0  0  0
   18.5586   -4.6626  -14.7386 C   0  0  0  0  0  0  0  0  0  0  0  0
   19.7255   -4.1865  -13.9470 C   0  0  1  0  0  0  0  0  0  0  0  0
   19.5340   -4.5042  -12.6154 O   0  0  0  0  0  0  0  0  0  0  0  0
   21.0428   -4.7789  -14.3858 C   0  0  2  0  0  0  0  0  0  0  0  0
   21.0617   -6.2132  -14.2916 N   0  0  0  0  0  0  0  0  0  0  0  0
   22.2002   -4.1433  -13.7397 C   0  0  0  0  0  0  0  0  0  0  0  0
   22.4968   -2.8132  -13.9282 O   0  0  0  0  0  0  0  0  0  0  0  0
   22.9388   -4.8218  -12.9985 O   0  0  0  0  0  0  0  0  0  0  0  0
  2  1  1  6
  2  4  1  0
  3  2  1  0
  4  6  1  0
  4  5  1  6
  6  8  1  0
  6  7  2  0
  8  9  1  0
  9 13  1  0
  9 10  1  6
 10 11  1  0
 11 15  1  0
 12 11  2  0
 13 14  2  0
 17 16  1  6
 17 19  1  0
 17 18  1  0
 19 21  1  0
 20 13  1  0
 19 20  1  1
 21 22  1  0
 23 21  2  0
M  END
$$$$
