SNG.pdb
     RDKit          3D

 19 18  0  0  1  0  0  0  0  0999 V2000
   18.7734  -13.9311  -18.0873 O   0  0  0  0  0  0  0  0  0  0  0  0
   19.1094  -12.5891  -18.1946 C   0  0  0  0  0  0  0  0  0  0  0  0
   19.8624  -12.0897  -16.9710 C   0  0  2  0  0  0  0  0  0  0  0  0
   19.4681  -12.7933  -15.7674 N   0  0  0  0  0  0  0  0  0  0  0  0
   19.7342  -10.6256  -16.8207 C   0  0  0  0  0  0  0  0  0  0  0  0
   20.0958   -9.8505  -17.7352 O   0  0  0  0  0  0  0  0  0  0  0  0
   16.7891   -9.2740  -16.7643 N   0  0  0  0  0  0  0  0  0  0  0  0
   16.6398   -8.6614  -15.5043 C   0  0  0  0  0  0  0  0  0  0  0  0
   15.4789   -8.4894  -15.0695 O   0  0  0  0  0  0  0  0  0  0  0  0
   17.8268   -8.2419  -14.7353 C   0  0  0  0  0  0  0  0  0  0  0  0
   19.0665   -8.5753  -15.5282 C   0  0  2  0  0  0  0  0  0  0  0  0
   19.1948  -10.0151  -15.6330 N   0  0  0  0  0  0  0  0  0  0  0  0
   20.2419   -7.9618  -14.8590 C   0  0  0  0  0  0  0  0  0  0  0  0
   20.7625   -8.4197  -13.8099 O   0  0  0  0  0  0  0  0  0  0  0  0
   20.7887   -6.7872  -15.4650 N   0  0  0  0  0  0  0  0  0  0  0  0
   21.9054   -6.0799  -14.8996 C   0  0  0  0  0  0  0  0  0  0  0  0
   21.4616   -5.1910  -13.7971 C   0  0  0  0  0  0  0  0  0  0  0  0
   22.2695   -4.4353  -13.1902 O   0  0  0  0  0  0  0  0  0  0  0  0
   20.1370   -5.1435  -13.3756 O   0  0  0  0  0  0  0  0  0  0  0  0
  2  1  1  0
  3  2  1  0
  3  4  1  1
  5  6  2  0
  5  3  1  0
  7  8  1  0
  8  9  2  0
 10  8  1  0
 11 10  1  1
 11 13  1  0
 11 12  1  0
 12  5  1  0
 13 15  1  0
 14 13  2  0
 16 15  1  0
 16 17  1  0
 17 18  2  0
 17 19  1  0
M  END
$$$$
