SNG.pdb
     RDKit          3D

 19 18  0  0  1  0  0  0  0  0999 V2000
   16.2390  -12.2982  -11.3778 O   0  0  0  0  0  0  0  0  0  0  0  0
   16.4393  -10.9272  -11.4552 C   0  0  0  0  0  0  0  0  0  0  0  0
   15.4404  -10.1557  -10.6064 C   0  0  2  0  0  0  0  0  0  0  0  0
   14.0735  -10.4058  -11.0163 N   0  0  0  0  0  0  0  0  0  0  0  0
   15.7541   -8.7123  -10.5848 C   0  0  0  0  0  0  0  0  0  0  0  0
   15.4357   -7.9699  -11.5416 O   0  0  0  0  0  0  0  0  0  0  0  0
   13.9220   -6.1137   -7.3291 N   0  0  0  0  0  0  0  0  0  0  0  0
   14.7697   -5.8542   -8.4241 C   0  0  0  0  0  0  0  0  0  0  0  0
   14.2428   -5.5011   -9.5031 O   0  0  0  0  0  0  0  0  0  0  0  0
   16.2312   -5.9994   -8.2849 C   0  0  0  0  0  0  0  0  0  0  0  0
   16.7752   -6.6777   -9.5181 C   0  0  2  0  0  0  0  0  0  0  0  0
   16.4333   -8.0856   -9.4802 N   0  0  0  0  0  0  0  0  0  0  0  0
   18.2442   -6.4659   -9.5719 C   0  0  0  0  0  0  0  0  0  0  0  0
   18.9919   -6.5172   -8.5622 O   0  0  0  0  0  0  0  0  0  0  0  0
   18.8094   -6.1903  -10.8568 N   0  0  0  0  0  0  0  0  0  0  0  0
   20.2285   -6.0985  -11.0681 C   0  0  0  0  0  0  0  0  0  0  0  0
   20.5309   -5.8154  -12.4932 C   0  0  0  0  0  0  0  0  0  0  0  0
   19.6181   -5.7382  -13.3609 O   0  0  0  0  0  0  0  0  0  0  0  0
   21.8312   -5.6208  -12.9468 O   0  0  0  0  0  0  0  0  0  0  0  0
  2  1  1  0
  3  2  1  0
  3  4  1  6
  5  6  2  0
  5  3  1  0
  7  8  1  0
  8  9  2  0
 10  8  1  0
 11 10  1  1
 11 13  1  0
 11 12  1  0
 12  5  1  0
 13 15  1  0
 14 13  2  0
 16 15  1  0
 16 17  1  0
 17 18  2  0
 17 19  1  0
M  END
$$$$
