SNG.pdb
     RDKit          3D

 19 18  0  0  1  0  0  0  0  0999 V2000
   14.8558   -7.5841  -16.9970 O   0  0  0  0  0  0  0  0  0  0  0  0
   15.9463   -7.4581  -16.1481 C   0  0  0  0  0  0  0  0  0  0  0  0
   16.7150   -8.7631  -16.0091 C   0  0  2  0  0  0  0  0  0  0  0  0
   15.8767   -9.8359  -15.5137 N   0  0  0  0  0  0  0  0  0  0  0  0
   17.9292   -8.5874  -15.1860 C   0  0  0  0  0  0  0  0  0  0  0  0
   17.9016   -8.7791  -13.9489 O   0  0  0  0  0  0  0  0  0  0  0  0
   22.5120   -8.0215  -13.2957 N   0  0  0  0  0  0  0  0  0  0  0  0
   22.5150   -8.9908  -14.3183 C   0  0  0  0  0  0  0  0  0  0  0  0
   23.5265   -9.7187  -14.4336 O   0  0  0  0  0  0  0  0  0  0  0  0
   21.3526   -9.1290  -15.2162 C   0  0  0  0  0  0  0  0  0  0  0  0
   20.3651   -8.0298  -14.9111 C   0  0  2  0  0  0  0  0  0  0  0  0
   19.1942   -8.1920  -15.7496 N   0  0  0  0  0  0  0  0  0  0  0  0
   21.0263   -6.7181  -15.1309 C   0  0  0  0  0  0  0  0  0  0  0  0
   22.1130   -6.3879  -14.5915 O   0  0  0  0  0  0  0  0  0  0  0  0
   20.3660   -5.8024  -16.0092 N   0  0  0  0  0  0  0  0  0  0  0  0
   20.9179   -4.5149  -16.3329 C   0  0  0  0  0  0  0  0  0  0  0  0
   20.5880   -3.5215  -15.2808 C   0  0  0  0  0  0  0  0  0  0  0  0
   19.9072   -3.8340  -14.2655 O   0  0  0  0  0  0  0  0  0  0  0  0
   21.0100   -2.1984  -15.3573 O   0  0  0  0  0  0  0  0  0  0  0  0
  2  1  1  0
  3  2  1  0
  3  4  1  1
  5  6  2  0
  5  3  1  0
  7  8  1  0
  8  9  2  0
 10  8  1  0
 11 10  1  6
 11 13  1  0
 11 12  1  0
 12  5  1  0
 13 15  1  0
 14 13  2  0
 16 15  1  0
 16 17  1  0
 17 18  2  0
 17 19  1  0
M  END
$$$$
