SNG.pdb
     RDKit          3D

 19 18  0  0  1  0  0  0  0  0999 V2000
   17.7235  -12.6968  -16.9154 O   0  0  0  0  0  0  0  0  0  0  0  0
   18.8791  -12.1754  -16.3512 C   0  0  0  0  0  0  0  0  0  0  0  0
   18.6170  -10.8678  -15.6195 C   0  0  2  0  0  0  0  0  0  0  0  0
   17.4986  -10.1433  -16.1879 N   0  0  0  0  0  0  0  0  0  0  0  0
   19.8357  -10.0356  -15.5517 C   0  0  0  0  0  0  0  0  0  0  0  0
   20.8944  -10.4836  -15.0553 O   0  0  0  0  0  0  0  0  0  0  0  0
   23.0132   -5.7435  -18.2850 N   0  0  0  0  0  0  0  0  0  0  0  0
   22.7699   -6.8453  -17.4413 C   0  0  0  0  0  0  0  0  0  0  0  0
   23.7011   -7.2342  -16.7011 O   0  0  0  0  0  0  0  0  0  0  0  0
   21.4518   -7.5079  -17.4438 C   0  0  0  0  0  0  0  0  0  0  0  0
   21.1100   -7.9228  -16.0339 C   0  0  2  0  0  0  0  0  0  0  0  0
   19.8760   -8.6828  -16.0444 N   0  0  0  0  0  0  0  0  0  0  0  0
   21.0034   -6.7056  -15.1895 C   0  0  0  0  0  0  0  0  0  0  0  0
   20.0562   -5.8827  -15.2717 O   0  0  0  0  0  0  0  0  0  0  0  0
   22.0509   -6.4852  -14.2407 N   0  0  0  0  0  0  0  0  0  0  0  0
   22.0512   -5.3615  -13.3439 C   0  0  0  0  0  0  0  0  0  0  0  0
   22.0250   -4.0848  -14.1001 C   0  0  0  0  0  0  0  0  0  0  0  0
   22.7832   -3.8855  -15.0888 O   0  0  0  0  0  0  0  0  0  0  0  0
   21.1670   -3.0441  -13.7610 O   0  0  0  0  0  0  0  0  0  0  0  0
  2  1  1  0
  3  2  1  0
  3  4  1  6
  5  6  2  0
  5  3  1  0
  7  8  1  0
  8  9  2  0
 10  8  1  0
 11 10  1  6
 11 13  1  0
 11 12  1  0
 12  5  1  0
 13 15  1  0
 14 13  2  0
 16 15  1  0
 16 17  1  0
 17 18  2  0
 17 19  1  0
M  END
$$$$
