SNG.pdb
     RDKit          3D

 19 18  0  0  1  0  0  0  0  0999 V2000
   16.9638  -10.5177  -18.0016 O   0  0  0  0  0  0  0  0  0  0  0  0
   17.7512  -10.2543  -16.8898 C   0  0  0  0  0  0  0  0  0  0  0  0
   19.1088  -10.9346  -16.9778 C   0  0  2  0  0  0  0  0  0  0  0  0
   18.9948  -12.3784  -16.9426 N   0  0  0  0  0  0  0  0  0  0  0  0
   20.0322  -10.4291  -15.9413 C   0  0  0  0  0  0  0  0  0  0  0  0
   19.8707  -10.7251  -14.7354 O   0  0  0  0  0  0  0  0  0  0  0  0
   24.4288  -11.1478  -16.8335 N   0  0  0  0  0  0  0  0  0  0  0  0
   23.8918  -10.5647  -15.6687 C   0  0  0  0  0  0  0  0  0  0  0  0
   23.7994  -11.2782  -14.6447 O   0  0  0  0  0  0  0  0  0  0  0  0
   23.4569   -9.1550  -15.6746 C   0  0  0  0  0  0  0  0  0  0  0  0
   22.0243   -9.0830  -15.2065 C   0  0  2  0  0  0  0  0  0  0  0  0
   21.1533   -9.5803  -16.2528 N   0  0  0  0  0  0  0  0  0  0  0  0
   21.7091   -7.6773  -14.8453 C   0  0  0  0  0  0  0  0  0  0  0  0
   22.3328   -7.0280  -13.9675 O   0  0  0  0  0  0  0  0  0  0  0  0
   20.6319   -7.0559  -15.5522 N   0  0  0  0  0  0  0  0  0  0  0  0
   20.1032   -5.7736  -15.1738 C   0  0  0  0  0  0  0  0  0  0  0  0
   20.8816   -4.6773  -15.8020 C   0  0  0  0  0  0  0  0  0  0  0  0
   20.5329   -3.4698  -15.6905 O   0  0  0  0  0  0  0  0  0  0  0  0
   22.0325   -4.9210  -16.5439 O   0  0  0  0  0  0  0  0  0  0  0  0
  2  1  1  0
  3  2  1  0
  3  4  1  1
  5  6  2  0
  5  3  1  0
  7  8  1  0
  8  9  2  0
 10  8  1  0
 11 10  1  6
 11 13  1  0
 11 12  1  0
 12  5  1  0
 13 15  1  0
 14 13  2  0
 16 15  1  0
 16 17  1  0
 17 18  2  0
 17 19  1  0
M  END
$$$$
