SNG.pdb
     RDKit          3D

 19 18  0  0  1  0  0  0  0  0999 V2000
   16.5050   -8.9728  -17.8516 O   0  0  0  0  0  0  0  0  0  0  0  0
   17.3706   -8.3036  -16.9981 C   0  0  0  0  0  0  0  0  0  0  0  0
   18.4117   -9.2349  -16.3960 C   0  0  2  0  0  0  0  0  0  0  0  0
   17.8034  -10.3221  -15.6565 N   0  0  0  0  0  0  0  0  0  0  0  0
   19.3900   -8.4905  -15.5767 C   0  0  0  0  0  0  0  0  0  0  0  0
   19.1131   -8.1347  -14.4085 O   0  0  0  0  0  0  0  0  0  0  0  0
   23.4457  -10.5917  -15.4337 N   0  0  0  0  0  0  0  0  0  0  0  0
   22.9868   -9.4562  -14.7373 C   0  0  0  0  0  0  0  0  0  0  0  0
   22.5644   -9.6151  -13.5699 O   0  0  0  0  0  0  0  0  0  0  0  0
   23.0107   -8.1286  -15.3802 C   0  0  0  0  0  0  0  0  0  0  0  0
   21.6608   -7.4769  -15.2075 C   0  0  2  0  0  0  0  0  0  0  0  0
   20.6974   -8.1366  -16.0662 N   0  0  0  0  0  0  0  0  0  0  0  0
   21.7840   -6.0307  -15.5222 C   0  0  0  0  0  0  0  0  0  0  0  0
   22.1033   -5.5901  -16.6558 O   0  0  0  0  0  0  0  0  0  0  0  0
   21.5187   -5.1141  -14.4566 N   0  0  0  0  0  0  0  0  0  0  0  0
   21.5558   -3.6889  -14.6421 C   0  0  0  0  0  0  0  0  0  0  0  0
   20.2159   -3.1719  -15.0161 C   0  0  0  0  0  0  0  0  0  0  0  0
   19.8892   -2.9906  -16.2213 O   0  0  0  0  0  0  0  0  0  0  0  0
   19.2526   -2.8609  -14.0624 O   0  0  0  0  0  0  0  0  0  0  0  0
  2  1  1  0
  3  2  1  0
  3  4  1  1
  5  6  2  0
  5  3  1  0
  7  8  1  0
  8  9  2  0
 10  8  1  0
 11 10  1  6
 11 13  1  0
 11 12  1  0
 12  5  1  0
 13 15  1  0
 14 13  2  0
 16 15  1  0
 16 17  1  0
 17 18  2  0
 17 19  1  0
M  END
$$$$
