SNG.pdb
     RDKit          3D

 19 18  0  0  1  0  0  0  0  0999 V2000
   13.2993   -8.3088  -11.0122 O   0  0  0  0  0  0  0  0  0  0  0  0
   14.4944   -8.0879  -11.6817 C   0  0  0  0  0  0  0  0  0  0  0  0
   15.3965   -9.3124  -11.6581 C   0  0  2  0  0  0  0  0  0  0  0  0
   15.6624   -9.7637  -10.3073 N   0  0  0  0  0  0  0  0  0  0  0  0
   16.6426   -9.0775  -12.4162 C   0  0  0  0  0  0  0  0  0  0  0  0
   17.7070   -8.7786  -11.8284 O   0  0  0  0  0  0  0  0  0  0  0  0
   17.2908  -12.3522  -15.8026 N   0  0  0  0  0  0  0  0  0  0  0  0
   18.0645  -11.3386  -15.2032 C   0  0  0  0  0  0  0  0  0  0  0  0
   18.7856  -11.6499  -14.2289 O   0  0  0  0  0  0  0  0  0  0  0  0
   18.0134   -9.9584  -15.7216 C   0  0  0  0  0  0  0  0  0  0  0  0
   17.9575   -9.0002  -14.5574 C   0  0  2  0  0  0  0  0  0  0  0  0
   16.7041   -9.1772  -13.8516 N   0  0  0  0  0  0  0  0  0  0  0  0
   18.1136   -7.6150  -15.0700 C   0  0  0  0  0  0  0  0  0  0  0  0
   19.1181   -7.2212  -15.7157 O   0  0  0  0  0  0  0  0  0  0  0  0
   17.0460   -6.7027  -14.7979 N   0  0  0  0  0  0  0  0  0  0  0  0
   17.0297   -5.3623  -15.3176 C   0  0  0  0  0  0  0  0  0  0  0  0
   17.6701   -4.4211  -14.3656 C   0  0  0  0  0  0  0  0  0  0  0  0
   18.4853   -4.8192  -13.4886 O   0  0  0  0  0  0  0  0  0  0  0  0
   17.4074   -3.0555  -14.3890 O   0  0  0  0  0  0  0  0  0  0  0  0
  2  1  1  0
  3  2  1  0
  3  4  1  1
  5  6  2  0
  5  3  1  0
  7  8  1  0
  8  9  2  0
 10  8  1  0
 11 10  1  6
 11 13  1  0
 11 12  1  0
 12  5  1  0
 13 15  1  0
 14 13  2  0
 16 15  1  0
 16 17  1  0
 17 18  2  0
 17 19  1  0
M  END
$$$$
