SNG.pdb
     RDKit          3D

 19 18  0  0  1  0  0  0  0  0999 V2000
   21.0315  -10.9979  -19.7144 O   0  0  0  0  0  0  0  0  0  0  0  0
   20.4907  -10.1624  -18.7474 C   0  0  0  0  0  0  0  0  0  0  0  0
   21.5650   -9.5141  -17.8877 C   0  0  2  0  0  0  0  0  0  0  0  0
   22.4166  -10.4981  -17.2509 N   0  0  0  0  0  0  0  0  0  0  0  0
   20.9777   -8.5770  -16.9082 C   0  0  0  0  0  0  0  0  0  0  0  0
   20.2142   -7.6555  -17.2768 O   0  0  0  0  0  0  0  0  0  0  0  0
   18.2628   -8.7779  -14.8054 N   0  0  0  0  0  0  0  0  0  0  0  0
   18.8820   -8.9244  -13.5484 C   0  0  0  0  0  0  0  0  0  0  0  0
   18.2460   -9.5148  -12.6465 O   0  0  0  0  0  0  0  0  0  0  0  0
   20.2387   -8.3919  -13.3203 C   0  0  0  0  0  0  0  0  0  0  0  0
   20.7056   -7.6899  -14.5717 C   0  0  2  0  0  0  0  0  0  0  0  0
   21.2449   -8.6675  -15.4959 N   0  0  0  0  0  0  0  0  0  0  0  0
   21.7143   -6.6659  -14.1979 C   0  0  0  0  0  0  0  0  0  0  0  0
   22.9293   -6.9249  -14.0031 O   0  0  0  0  0  0  0  0  0  0  0  0
   21.2472   -5.3210  -14.0595 N   0  0  0  0  0  0  0  0  0  0  0  0
   22.1359   -4.2226  -13.7941 C   0  0  0  0  0  0  0  0  0  0  0  0
   21.3787   -2.9530  -13.6629 C   0  0  0  0  0  0  0  0  0  0  0  0
   20.1421   -2.8917  -13.9062 O   0  0  0  0  0  0  0  0  0  0  0  0
   21.9889   -1.7677  -13.2664 O   0  0  0  0  0  0  0  0  0  0  0  0
  2  1  1  0
  3  2  1  0
  3  4  1  1
  5  6  2  0
  5  3  1  0
  7  8  1  0
  8  9  2  0
 10  8  1  0
 11 10  1  1
 11 13  1  0
 11 12  1  0
 12  5  1  0
 13 15  1  0
 14 13  2  0
 16 15  1  0
 16 17  1  0
 17 18  2  0
 17 19  1  0
M  END
$$$$
