SNG.pdb
     RDKit          3D

 19 18  0  0  1  0  0  0  0  0999 V2000
   11.1793  -19.9477   -2.7910 O   0  0  0  0  0  0  0  0  0  0  0  0
   10.4218  -20.5031   -1.7697 C   0  0  0  0  0  0  0  0  0  0  0  0
   10.1362  -19.5013   -0.6614 C   0  0  2  0  0  0  0  0  0  0  0  0
    9.7960  -18.1945   -1.1864 N   0  0  0  0  0  0  0  0  0  0  0  0
   11.2524  -19.4340    0.3040 C   0  0  0  0  0  0  0  0  0  0  0  0
   11.9242  -18.3860    0.4394 O   0  0  0  0  0  0  0  0  0  0  0  0
   13.9797  -21.7084    5.0611 N   0  0  0  0  0  0  0  0  0  0  0  0
   13.1641  -20.7124    4.4886 C   0  0  0  0  0  0  0  0  0  0  0  0
   13.2792  -19.5421    4.9170 O   0  0  0  0  0  0  0  0  0  0  0  0
   12.2093  -21.0567    3.4180 C   0  0  0  0  0  0  0  0  0  0  0  0
   12.6709  -20.4237    2.1285 C   0  0  2  0  0  0  0  0  0  0  0  0
   11.6265  -20.5516    1.1318 N   0  0  0  0  0  0  0  0  0  0  0  0
   13.9312  -21.0806    1.6973 C   0  0  0  0  0  0  0  0  0  0  0  0
   13.9674  -22.1382    1.0182 O   0  0  0  0  0  0  0  0  0  0  0  0
   15.1539  -20.4517    2.0919 N   0  0  0  0  0  0  0  0  0  0  0  0
   16.4412  -20.9903    1.7461 C   0  0  0  0  0  0  0  0  0  0  0  0
   17.1278  -21.5252    2.9482 C   0  0  0  0  0  0  0  0  0  0  0  0
   17.4239  -20.7845    3.9258 O   0  0  0  0  0  0  0  0  0  0  0  0
   17.4801  -22.8659    3.0611 O   0  0  0  0  0  0  0  0  0  0  0  0
  2  1  1  0
  3  2  1  0
  3  4  1  6
  5  6  2  0
  5  3  1  0
  7  8  1  0
  8  9  2  0
 10  8  1  0
 11 10  1  1
 11 13  1  0
 11 12  1  0
 12  5  1  0
 13 15  1  0
 14 13  2  0
 16 15  1  0
 16 17  1  0
 17 18  2  0
 17 19  1  0
M  END
$$$$
