SNG.pdb
     RDKit          3D

 19 18  0  0  1  0  0  0  0  0999 V2000
   16.1929   -9.2783  -16.4325 O   0  0  0  0  0  0  0  0  0  0  0  0
   16.1160   -8.2090  -15.5514 C   0  0  0  0  0  0  0  0  0  0  0  0
   16.0498   -8.6671  -14.1025 C   0  0  2  0  0  0  0  0  0  0  0  0
   14.8359   -9.4067  -13.8227 N   0  0  0  0  0  0  0  0  0  0  0  0
   16.2325   -7.5349  -13.1712 C   0  0  0  0  0  0  0  0  0  0  0  0
   15.3281   -6.6848  -13.0062 O   0  0  0  0  0  0  0  0  0  0  0  0
   17.8196   -4.1737   -9.7946 N   0  0  0  0  0  0  0  0  0  0  0  0
   17.8164   -5.4694   -9.2411 C   0  0  0  0  0  0  0  0  0  0  0  0
   17.9285   -5.5770   -7.9993 O   0  0  0  0  0  0  0  0  0  0  0  0
   17.6841   -6.6513  -10.1140 C   0  0  0  0  0  0  0  0  0  0  0  0
   17.6076   -6.1933  -11.5496 C   0  0  2  0  0  0  0  0  0  0  0  0
   17.4416   -7.3465  -12.4117 N   0  0  0  0  0  0  0  0  0  0  0  0
   18.8402   -5.4314  -11.8751 C   0  0  0  0  0  0  0  0  0  0  0  0
   19.1638   -4.3567  -11.3083 O   0  0  0  0  0  0  0  0  0  0  0  0
   19.6847   -5.9757  -12.8933 N   0  0  0  0  0  0  0  0  0  0  0  0
   20.9040   -5.3342  -13.3041 C   0  0  0  0  0  0  0  0  0  0  0  0
   21.5320   -6.0696  -14.4299 C   0  0  0  0  0  0  0  0  0  0  0  0
   22.6062   -6.7147  -14.2818 O   0  0  0  0  0  0  0  0  0  0  0  0
   20.9723   -6.0872  -15.7030 O   0  0  0  0  0  0  0  0  0  0  0  0
  2  1  1  0
  3  2  1  0
  3  4  1  1
  5  6  2  0
  5  3  1  0
  7  8  1  0
  8  9  2  0
 10  8  1  0
 11 10  1  1
 11 13  1  0
 11 12  1  0
 12  5  1  0
 13 15  1  0
 14 13  2  0
 16 15  1  0
 16 17  1  0
 17 18  2  0
 17 19  1  0
M  END
$$$$
