WKY.pdb
     RDKit          3D

 36 38  0  0  1  0  0  0  0  0999 V2000
    8.7229  -17.6424   20.7472 N   0  0  0  0  0  0  0  0  0  0  0  0
    8.8623  -16.7117   21.8967 C   0  0  1  0  0  0  0  0  0  0  0  0
    7.5104  -16.1910   22.2120 C   0  0  0  0  0  0  0  0  0  0  0  0
    6.9144  -15.3023   21.2038 C   0  0  0  0  0  0  0  0  0  0  0  0
    5.9592  -15.5383   20.2322 C   0  0  0  0  0  0  0  0  0  0  0  0
    5.7566  -14.4134   19.5256 N   0  0  0  0  0  0  0  0  0  0  0  0
    6.5578  -13.4199   20.0022 C   0  0  0  0  0  0  0  0  0  0  0  0
    6.7230  -12.1117   19.6247 C   0  0  0  0  0  0  0  0  0  0  0  0
    7.6414  -11.3121   20.3072 C   0  0  0  0  0  0  0  0  0  0  0  0
    8.3639  -11.8355   21.3423 C   0  0  0  0  0  0  0  0  0  0  0  0
    8.1869  -13.1423   21.7076 C   0  0  0  0  0  0  0  0  0  0  0  0
    7.2739  -13.9750   21.0435 C   0  0  0  0  0  0  0  0  0  0  0  0
    9.4422  -17.5115   23.0443 C   0  0  0  0  0  0  0  0  0  0  0  0
    8.9818  -17.3292   24.1951 O   0  0  0  0  0  0  0  0  0  0  0  0
   10.4624  -18.4326   22.8333 N   0  0  0  0  0  0  0  0  0  0  0  0
   11.3887  -18.9354   23.8986 C   0  0  1  0  0  0  0  0  0  0  0  0
   12.0331  -20.1655   23.3640 C   0  0  0  0  0  0  0  0  0  0  0  0
   13.0897  -20.8467   24.1559 C   0  0  0  0  0  0  0  0  0  0  0  0
   12.4564  -21.7753   25.2089 C   0  0  0  0  0  0  0  0  0  0  0  0
   13.5473  -22.3648   26.0581 C   0  0  0  0  0  0  0  0  0  0  0  0
   12.9877  -23.2437   27.0886 N   0  0  0  0  0  0  0  0  0  0  0  0
   12.2365  -17.7754   24.1814 C   0  0  0  0  0  0  0  0  0  0  0  0
   12.7303  -17.1367   23.1412 O   0  0  0  0  0  0  0  0  0  0  0  0
    9.7121  -16.9151   30.4482 O   0  0  0  0  0  0  0  0  0  0  0  0
   10.3886  -16.4112   29.3293 C   0  0  0  0  0  0  0  0  0  0  0  0
   11.7451  -16.1413   29.4608 C   0  0  0  0  0  0  0  0  0  0  0  0
   12.4912  -15.6479   28.4258 C   0  0  0  0  0  0  0  0  0  0  0  0
   11.8980  -15.4012   27.2008 C   0  0  0  0  0  0  0  0  0  0  0  0
   12.7311  -14.8586   26.1051 C   0  0  0  0  0  0  0  0  0  0  0  0
   13.4418  -15.9646   25.3963 C   0  0  2  0  0  0  0  0  0  0  0  0
   12.6328  -17.2043   25.3976 N   0  0  0  0  0  0  0  0  0  0  0  0
   14.7539  -16.3126   25.9740 C   0  0  0  0  0  0  0  0  0  0  0  0
   15.7425  -15.3118   26.0763 O   0  0  0  0  0  0  0  0  0  0  0  0
   10.5308  -15.6752   27.0790 C   0  0  0  0  0  0  0  0  0  0  0  0
    9.7764  -16.1731   28.1196 C   0  0  0  0  0  0  0  0  0  0  0  0
   15.0221  -17.4724   26.3810 O   0  0  0  0  0  0  0  0  0  0  0  0
  2  1  1  6
  3  2  1  0
  4  5  2  0
  4  3  1  0
  6  5  1  0
  7 12  2  0
  7  6  1  0
  8  7  1  0
  9 10  1  0
  9  8  2  0
 10 11  2  0
 11 12  1  0
 12  4  1  0
 13  2  1  0
 14 13  2  0
 15 13  1  0
 16 22  1  0
 16 15  1  0
 16 17  1  6
 18 17  1  0
 19 18  1  0
 20 19  1  0
 21 20  1  0
 22 23  2  0
 24 25  1  0
 25 35  2  0
 26 25  1  0
 26 27  2  0
 27 28  1  0
 28 34  2  0
 28 29  1  0
 30 32  1  0
 30 29  1  1
 31 30  1  0
 31 22  1  0
 32 33  1  0
 35 34  1  0
 36 32  2  0
M  END
$$$$
