WKY.pdb
     RDKit          3D

 36 38  0  0  1  0  0  0  0  0999 V2000
    6.2319  -17.9681   24.9152 N   0  0  0  0  0  0  0  0  0  0  0  0
    6.5448  -16.5652   24.5398 C   0  0  1  0  0  0  0  0  0  0  0  0
    7.2129  -15.9336   25.7029 C   0  0  0  0  0  0  0  0  0  0  0  0
    6.4444  -14.8880   26.3939 C   0  0  0  0  0  0  0  0  0  0  0  0
    5.2573  -14.9469   27.1006 C   0  0  0  0  0  0  0  0  0  0  0  0
    4.9330  -13.7149   27.5282 N   0  0  0  0  0  0  0  0  0  0  0  0
    5.8802  -12.8231   27.1235 C   0  0  0  0  0  0  0  0  0  0  0  0
    6.0022  -11.4685   27.3001 C   0  0  0  0  0  0  0  0  0  0  0  0
    7.1012  -10.8024   26.7549 C   0  0  0  0  0  0  0  0  0  0  0  0
    8.0434  -11.5018   26.0547 C   0  0  0  0  0  0  0  0  0  0  0  0
    7.9081  -12.8531   25.8881 C   0  0  0  0  0  0  0  0  0  0  0  0
    6.8163  -13.5547   26.4209 C   0  0  0  0  0  0  0  0  0  0  0  0
    7.4528  -16.6243   23.3294 C   0  0  0  0  0  0  0  0  0  0  0  0
    8.2614  -17.5763   23.2323 O   0  0  0  0  0  0  0  0  0  0  0  0
    7.3948  -15.6479   22.3409 N   0  0  0  0  0  0  0  0  0  0  0  0
    8.4127  -15.4750   21.2548 C   0  0  1  0  0  0  0  0  0  0  0  0
    8.0077  -14.2765   20.4714 C   0  0  0  0  0  0  0  0  0  0  0  0
    8.7823  -13.8901   19.2638 C   0  0  0  0  0  0  0  0  0  0  0  0
    8.0272  -14.3040   17.9868 C   0  0  0  0  0  0  0  0  0  0  0  0
    8.8895  -14.0061   16.7925 C   0  0  0  0  0  0  0  0  0  0  0  0
    8.2100  -14.3873   15.5514 N   0  0  0  0  0  0  0  0  0  0  0  0
    9.6803  -15.4292   21.9867 C   0  0  0  0  0  0  0  0  0  0  0  0
    9.6286  -15.0044   23.2319 O   0  0  0  0  0  0  0  0  0  0  0  0
    9.9040  -14.4136   28.4475 O   0  0  0  0  0  0  0  0  0  0  0  0
   10.3964  -14.9552   27.2527 C   0  0  0  0  0  0  0  0  0  0  0  0
    9.8700  -16.1685   26.8270 C   0  0  0  0  0  0  0  0  0  0  0  0
   10.2861  -16.7763   25.6742 C   0  0  0  0  0  0  0  0  0  0  0  0
   11.2610  -16.1837   24.8921 C   0  0  0  0  0  0  0  0  0  0  0  0
   11.6953  -16.8719   23.6565 C   0  0  0  0  0  0  0  0  0  0  0  0
   12.0526  -15.8740   22.6041 C   0  0  2  0  0  0  0  0  0  0  0  0
   10.9810  -15.7639   21.5889 N   0  0  0  0  0  0  0  0  0  0  0  0
   13.2988  -16.1786   21.8757 C   0  0  0  0  0  0  0  0  0  0  0  0
   13.2440  -16.3740   20.4800 O   0  0  0  0  0  0  0  0  0  0  0  0
   11.7857  -14.9623   25.3302 C   0  0  0  0  0  0  0  0  0  0  0  0
   11.3681  -14.3469   26.4908 C   0  0  0  0  0  0  0  0  0  0  0  0
   14.4112  -16.2688   22.4565 O   0  0  0  0  0  0  0  0  0  0  0  0
  2  1  1  1
  3  2  1  0
  4  5  2  0
  4  3  1  0
  6  5  1  0
  7 12  2  0
  7  6  1  0
  8  7  1  0
  9 10  1  0
  9  8  2  0
 10 11  2  0
 11 12  1  0
 12  4  1  0
 13  2  1  0
 14 13  2  0
 15 13  1  0
 16 22  1  0
 16 15  1  0
 16 17  1  1
 18 17  1  0
 19 18  1  0
 20 19  1  0
 21 20  1  0
 22 23  2  0
 24 25  1  0
 25 35  2  0
 26 25  1  0
 26 27  2  0
 27 28  1  0
 28 34  2  0
 28 29  1  0
 30 32  1  0
 30 29  1  1
 31 30  1  0
 31 22  1  0
 32 33  1  0
 35 34  1  0
 36 32  2  0
M  END
$$$$
