WKY.pdb
     RDKit          3D

 36 38  0  0  1  0  0  0  0  0999 V2000
    8.7984  -15.1985   23.9254 N   0  0  0  0  0  0  0  0  0  0  0  0
    9.0571  -16.4807   24.6297 C   0  0  1  0  0  0  0  0  0  0  0  0
    7.8678  -16.7758   25.4644 C   0  0  0  0  0  0  0  0  0  0  0  0
    6.9864  -15.6345   25.7508 C   0  0  0  0  0  0  0  0  0  0  0  0
    5.7166  -15.5785   26.2955 C   0  0  0  0  0  0  0  0  0  0  0  0
    5.3061  -14.2996   26.3352 N   0  0  0  0  0  0  0  0  0  0  0  0
    6.2760  -13.4888   25.8272 C   0  0  0  0  0  0  0  0  0  0  0  0
    6.3382  -12.1303   25.6494 C   0  0  0  0  0  0  0  0  0  0  0  0
    7.4833  -11.5645   25.0861 C   0  0  0  0  0  0  0  0  0  0  0  0
    8.5292  -12.3641   24.7199 C   0  0  0  0  0  0  0  0  0  0  0  0
    8.4523  -13.7177   24.9047 C   0  0  0  0  0  0  0  0  0  0  0  0
    7.3169  -14.3205   25.4665 C   0  0  0  0  0  0  0  0  0  0  0  0
    9.2751  -17.5337   23.5636 C   0  0  0  0  0  0  0  0  0  0  0  0
    8.8613  -18.6969   23.7761 O   0  0  0  0  0  0  0  0  0  0  0  0
    9.9180  -17.2236   22.3700 N   0  0  0  0  0  0  0  0  0  0  0  0
   11.1198  -17.9440   21.8386 C   0  0  1  0  0  0  0  0  0  0  0  0
   11.3697  -17.4145   20.4707 C   0  0  0  0  0  0  0  0  0  0  0  0
   12.4000  -18.0526   19.6112 C   0  0  0  0  0  0  0  0  0  0  0  0
   13.2672  -16.9795   18.9264 C   0  0  0  0  0  0  0  0  0  0  0  0
   14.2878  -17.6592   18.0574 C   0  0  0  0  0  0  0  0  0  0  0  0
   15.0728  -16.6743   17.3083 N   0  0  0  0  0  0  0  0  0  0  0  0
   12.1341  -17.7102   22.8687 C   0  0  0  0  0  0  0  0  0  0  0  0
   13.3321  -18.2074   22.6420 O   0  0  0  0  0  0  0  0  0  0  0  0
    9.3249  -15.8071   29.6892 O   0  0  0  0  0  0  0  0  0  0  0  0
   10.3037  -15.7440   28.6886 C   0  0  0  0  0  0  0  0  0  0  0  0
   10.1336  -14.8090   27.6750 C   0  0  0  0  0  0  0  0  0  0  0  0
   11.0345  -14.6715   26.6549 C   0  0  0  0  0  0  0  0  0  0  0  0
   12.1572  -15.4783   26.6093 C   0  0  0  0  0  0  0  0  0  0  0  0
   13.1069  -15.3105   25.4873 C   0  0  0  0  0  0  0  0  0  0  0  0
   13.3021  -16.6079   24.7734 C   0  0  2  0  0  0  0  0  0  0  0  0
   12.0584  -17.0336   24.0929 N   0  0  0  0  0  0  0  0  0  0  0  0
   13.7139  -17.7250   25.6445 C   0  0  0  0  0  0  0  0  0  0  0  0
   12.9416  -18.9052   25.6532 O   0  0  0  0  0  0  0  0  0  0  0  0
   12.3188  -16.4178   27.6342 C   0  0  0  0  0  0  0  0  0  0  0  0
   11.4133  -16.5583   28.6639 C   0  0  0  0  0  0  0  0  0  0  0  0
   14.7326  -17.6626   26.3802 O   0  0  0  0  0  0  0  0  0  0  0  0
  2  1  1  6
  3  2  1  0
  4  5  2  0
  4  3  1  0
  6  5  1  0
  7 12  2  0
  7  6  1  0
  8  7  1  0
  9 10  1  0
  9  8  2  0
 10 11  2  0
 11 12  1  0
 12  4  1  0
 13  2  1  0
 14 13  2  0
 15 13  1  0
 16 22  1  0
 16 15  1  0
 16 17  1  6
 18 17  1  0
 19 18  1  0
 20 19  1  0
 21 20  1  0
 22 23  2  0
 24 25  1  0
 25 35  2  0
 26 25  1  0
 26 27  2  0
 27 28  1  0
 28 34  2  0
 28 29  1  0
 30 32  1  0
 30 29  1  1
 31 30  1  0
 31 22  1  0
 32 33  1  0
 35 34  1  0
 36 32  2  0
M  END
$$$$
