WKY.pdb
     RDKit          3D

 36 38  0  0  1  0  0  0  0  0999 V2000
    6.9711  -19.3926   24.6268 N   0  0  0  0  0  0  0  0  0  0  0  0
    6.1232  -18.4477   23.8555 C   0  0  1  0  0  0  0  0  0  0  0  0
    5.6342  -17.4168   24.8022 C   0  0  0  0  0  0  0  0  0  0  0  0
    6.6151  -16.9308   25.7837 C   0  0  0  0  0  0  0  0  0  0  0  0
    7.5966  -17.5950   26.4961 C   0  0  0  0  0  0  0  0  0  0  0  0
    8.2296  -16.7233   27.2994 N   0  0  0  0  0  0  0  0  0  0  0  0
    7.6938  -15.4805   27.1429 C   0  0  0  0  0  0  0  0  0  0  0  0
    7.9831  -14.2746   27.7286 C   0  0  0  0  0  0  0  0  0  0  0  0
    7.2477  -13.1439   27.3689 C   0  0  0  0  0  0  0  0  0  0  0  0
    6.2514  -13.2462   26.4392 C   0  0  0  0  0  0  0  0  0  0  0  0
    5.9755  -14.4563   25.8632 C   0  0  0  0  0  0  0  0  0  0  0  0
    6.6932  -15.6132   26.2014 C   0  0  0  0  0  0  0  0  0  0  0  0
    6.9986  -17.8518   22.7731 C   0  0  0  0  0  0  0  0  0  0  0  0
    7.8921  -18.5668   22.2632 O   0  0  0  0  0  0  0  0  0  0  0  0
    6.8194  -16.5403   22.3467 N   0  0  0  0  0  0  0  0  0  0  0  0
    7.5376  -15.9162   21.1889 C   0  0  1  0  0  0  0  0  0  0  0  0
    6.9072  -14.5887   20.9556 C   0  0  0  0  0  0  0  0  0  0  0  0
    7.3425  -13.7596   19.8021 C   0  0  0  0  0  0  0  0  0  0  0  0
    7.1569  -14.5344   18.4839 C   0  0  0  0  0  0  0  0  0  0  0  0
    7.6508  -13.6859   17.3461 C   0  0  0  0  0  0  0  0  0  0  0  0
    7.5474  -14.4077   16.0750 N   0  0  0  0  0  0  0  0  0  0  0  0
    8.9413  -15.9538   21.6048 C   0  0  0  0  0  0  0  0  0  0  0  0
    9.8430  -15.8325   20.6531 O   0  0  0  0  0  0  0  0  0  0  0  0
    7.0581  -10.9268   24.4861 O   0  0  0  0  0  0  0  0  0  0  0  0
    8.0954  -11.8606   24.3626 C   0  0  0  0  0  0  0  0  0  0  0  0
    8.1102  -12.9321   25.2469 C   0  0  0  0  0  0  0  0  0  0  0  0
    9.0810  -13.8949   25.2052 C   0  0  0  0  0  0  0  0  0  0  0  0
   10.0905  -13.8199   24.2625 C   0  0  0  0  0  0  0  0  0  0  0  0
   11.1304  -14.8723   24.2506 C   0  0  0  0  0  0  0  0  0  0  0  0
   10.9468  -15.7708   23.0717 C   0  0  2  0  0  0  0  0  0  0  0  0
    9.5180  -16.1027   22.8727 N   0  0  0  0  0  0  0  0  0  0  0  0
   11.6718  -17.0522   23.1653 C   0  0  0  0  0  0  0  0  0  0  0  0
   10.9552  -18.2562   23.0038 O   0  0  0  0  0  0  0  0  0  0  0  0
   10.0673  -12.7361   23.3770 C   0  0  0  0  0  0  0  0  0  0  0  0
    9.0901  -11.7647   23.4158 C   0  0  0  0  0  0  0  0  0  0  0  0
   12.9097  -17.1089   23.3829 O   0  0  0  0  0  0  0  0  0  0  0  0
  2  1  1  1
  3  2  1  0
  4  5  2  0
  4  3  1  0
  6  5  1  0
  7 12  2  0
  7  6  1  0
  8  7  1  0
  9 10  1  0
  9  8  2  0
 10 11  2  0
 11 12  1  0
 12  4  1  0
 13  2  1  0
 14 13  2  0
 15 13  1  0
 16 22  1  0
 16 15  1  0
 16 17  1  1
 18 17  1  0
 19 18  1  0
 20 19  1  0
 21 20  1  0
 22 23  2  0
 24 25  1  0
 25 35  2  0
 26 25  1  0
 26 27  2  0
 27 28  1  0
 28 34  2  0
 28 29  1  0
 30 32  1  0
 30 29  1  1
 31 30  1  0
 31 22  1  0
 32 33  1  0
 35 34  1  0
 36 32  2  0
M  END
$$$$
