WKY.pdb
     RDKit          3D

 36 38  0  0  1  0  0  0  0  0999 V2000
    6.5888  -17.9431   24.5157 N   0  0  0  0  0  0  0  0  0  0  0  0
    7.2611  -16.8074   23.8337 C   0  0  1  0  0  0  0  0  0  0  0  0
    7.8057  -15.9174   24.8869 C   0  0  0  0  0  0  0  0  0  0  0  0
    6.8310  -15.0413   25.5531 C   0  0  0  0  0  0  0  0  0  0  0  0
    5.7313  -15.3337   26.3389 C   0  0  0  0  0  0  0  0  0  0  0  0
    5.1267  -14.1894   26.7007 N   0  0  0  0  0  0  0  0  0  0  0  0
    5.7982  -13.1275   26.1739 C   0  0  0  0  0  0  0  0  0  0  0  0
    5.5822  -11.7752   26.2480 C   0  0  0  0  0  0  0  0  0  0  0  0
    6.4509  -10.9051   25.5868 C   0  0  0  0  0  0  0  0  0  0  0  0
    7.5056  -11.4047   24.8761 C   0  0  0  0  0  0  0  0  0  0  0  0
    7.7083  -12.7564   24.8125 C   0  0  0  0  0  0  0  0  0  0  0  0
    6.8550  -13.6600   25.4633 C   0  0  0  0  0  0  0  0  0  0  0  0
    8.3560  -17.3971   22.9698 C   0  0  0  0  0  0  0  0  0  0  0  0
    8.9121  -18.4550   23.3457 O   0  0  0  0  0  0  0  0  0  0  0  0
    8.7402  -16.7851   21.7816 N   0  0  0  0  0  0  0  0  0  0  0  0
    9.9467  -17.1670   20.9790 C   0  0  1  0  0  0  0  0  0  0  0  0
    9.6791  -16.7530   19.5751 C   0  0  0  0  0  0  0  0  0  0  0  0
   10.6572  -17.0906   18.5088 C   0  0  0  0  0  0  0  0  0  0  0  0
   10.1457  -16.6070   17.1388 C   0  0  0  0  0  0  0  0  0  0  0  0
   11.1033  -17.0608   16.0731 C   0  0  0  0  0  0  0  0  0  0  0  0
   10.6638  -16.6076   14.7507 N   0  0  0  0  0  0  0  0  0  0  0  0
   11.0462  -16.5176   21.6958 C   0  0  0  0  0  0  0  0  0  0  0  0
   11.1533  -15.2126   21.5566 O   0  0  0  0  0  0  0  0  0  0  0  0
   10.8629  -15.0440   29.9966 O   0  0  0  0  0  0  0  0  0  0  0  0
   10.9497  -15.2931   28.6205 C   0  0  0  0  0  0  0  0  0  0  0  0
    9.8531  -14.9647   27.8331 C   0  0  0  0  0  0  0  0  0  0  0  0
    9.8426  -15.1698   26.4807 C   0  0  0  0  0  0  0  0  0  0  0  0
   10.9464  -15.7212   25.8554 C   0  0  0  0  0  0  0  0  0  0  0  0
   10.8988  -15.9388   24.3927 C   0  0  0  0  0  0  0  0  0  0  0  0
   12.1721  -16.5586   23.9180 C   0  0  2  0  0  0  0  0  0  0  0  0
   12.0391  -17.0503   22.5281 N   0  0  0  0  0  0  0  0  0  0  0  0
   12.6322  -17.7005   24.7307 C   0  0  0  0  0  0  0  0  0  0  0  0
   11.8089  -18.8410   24.8348 O   0  0  0  0  0  0  0  0  0  0  0  0
   12.0454  -16.0497   26.6576 C   0  0  0  0  0  0  0  0  0  0  0  0
   12.0595  -15.8435   28.0204 C   0  0  0  0  0  0  0  0  0  0  0  0
   13.7362  -17.6937   25.3341 O   0  0  0  0  0  0  0  0  0  0  0  0
  2  1  1  1
  3  2  1  0
  4  5  2  0
  4  3  1  0
  6  5  1  0
  7 12  2  0
  7  6  1  0
  8  7  1  0
  9 10  1  0
  9  8  2  0
 10 11  2  0
 11 12  1  0
 12  4  1  0
 13  2  1  0
 14 13  2  0
 15 13  1  0
 16 22  1  0
 16 15  1  0
 16 17  1  6
 18 17  1  0
 19 18  1  0
 20 19  1  0
 21 20  1  0
 22 23  2  0
 24 25  1  0
 25 35  2  0
 26 25  1  0
 26 27  2  0
 27 28  1  0
 28 34  2  0
 28 29  1  0
 30 32  1  0
 30 29  1  1
 31 30  1  0
 31 22  1  0
 32 33  1  0
 35 34  1  0
 36 32  2  0
M  END
$$$$
