WKY.pdb
     RDKit          3D

 36 38  0  0  1  0  0  0  0  0999 V2000
    6.6347  -18.2014   25.4047 N   0  0  0  0  0  0  0  0  0  0  0  0
    6.8172  -16.8056   24.9300 C   0  0  1  0  0  0  0  0  0  0  0  0
    7.4174  -16.0333   26.0442 C   0  0  0  0  0  0  0  0  0  0  0  0
    6.6634  -14.8500   26.4834 C   0  0  0  0  0  0  0  0  0  0  0  0
    5.3625  -14.7137   26.9319 C   0  0  0  0  0  0  0  0  0  0  0  0
    5.1156  -13.4187   27.1923 N   0  0  0  0  0  0  0  0  0  0  0  0
    6.2268  -12.6761   26.9282 C   0  0  0  0  0  0  0  0  0  0  0  0
    6.4785  -11.3315   27.0270 C   0  0  0  0  0  0  0  0  0  0  0  0
    7.7371  -10.8419   26.6737 C   0  0  0  0  0  0  0  0  0  0  0  0
    8.7048  -11.7020   26.2362 C   0  0  0  0  0  0  0  0  0  0  0  0
    8.4385  -13.0409   26.1441 C   0  0  0  0  0  0  0  0  0  0  0  0
    7.1849  -13.5676   26.4894 C   0  0  0  0  0  0  0  0  0  0  0  0
    7.7329  -16.8652   23.7255 C   0  0  0  0  0  0  0  0  0  0  0  0
    8.6029  -17.7654   23.6777 O   0  0  0  0  0  0  0  0  0  0  0  0
    7.6155  -15.9455   22.6890 N   0  0  0  0  0  0  0  0  0  0  0  0
    8.5348  -15.8727   21.5077 C   0  0  1  0  0  0  0  0  0  0  0  0
    8.0487  -14.7571   20.6514 C   0  0  0  0  0  0  0  0  0  0  0  0
    8.6461  -14.5465   19.3074 C   0  0  0  0  0  0  0  0  0  0  0  0
    7.9290  -13.3964   18.5758 C   0  0  0  0  0  0  0  0  0  0  0  0
    8.4806  -13.2863   17.1821 C   0  0  0  0  0  0  0  0  0  0  0  0
    8.4425  -14.5842   16.5029 N   0  0  0  0  0  0  0  0  0  0  0  0
    9.8594  -15.7505   22.1201 C   0  0  0  0  0  0  0  0  0  0  0  0
   10.0854  -14.6630   22.8273 O   0  0  0  0  0  0  0  0  0  0  0  0
    9.6806  -15.2202   28.4654 O   0  0  0  0  0  0  0  0  0  0  0  0
   10.4285  -15.7316   27.3966 C   0  0  0  0  0  0  0  0  0  0  0  0
   10.0565  -15.3605   26.1104 C   0  0  0  0  0  0  0  0  0  0  0  0
   10.7247  -15.8073   25.0036 C   0  0  0  0  0  0  0  0  0  0  0  0
   11.8073  -16.6567   25.1444 C   0  0  0  0  0  0  0  0  0  0  0  0
   12.5022  -17.1291   23.9266 C   0  0  0  0  0  0  0  0  0  0  0  0
   12.2165  -16.2172   22.7787 C   0  0  2  0  0  0  0  0  0  0  0  0
   10.9672  -16.6072   22.0870 N   0  0  0  0  0  0  0  0  0  0  0  0
   13.2764  -16.1804   21.7533 C   0  0  0  0  0  0  0  0  0  0  0  0
   14.5613  -15.7247   22.1148 O   0  0  0  0  0  0  0  0  0  0  0  0
   12.1734  -17.0255   26.4441 C   0  0  0  0  0  0  0  0  0  0  0  0
   11.5027  -16.5765   27.5614 C   0  0  0  0  0  0  0  0  0  0  0  0
   13.0748  -16.5435   20.5657 O   0  0  0  0  0  0  0  0  0  0  0  0
  2  1  1  1
  3  2  1  0
  4  5  2  0
  4  3  1  0
  6  5  1  0
  7 12  2  0
  7  6  1  0
  8  7  1  0
  9 10  1  0
  9  8  2  0
 10 11  2  0
 11 12  1  0
 12  4  1  0
 13  2  1  0
 14 13  2  0
 15 13  1  0
 16 22  1  0
 16 15  1  0
 16 17  1  6
 18 17  1  0
 19 18  1  0
 20 19  1  0
 21 20  1  0
 22 23  2  0
 24 25  1  0
 25 35  2  0
 26 25  1  0
 26 27  2  0
 27 28  1  0
 28 34  2  0
 28 29  1  0
 30 32  1  0
 30 29  1  1
 31 30  1  0
 31 22  1  0
 32 33  1  0
 35 34  1  0
 36 32  2  0
M  END
$$$$
