WKY.pdb
     RDKit          3D

 36 38  0  0  1  0  0  0  0  0999 V2000
    6.5801  -17.8780   25.3645 N   0  0  0  0  0  0  0  0  0  0  0  0
    6.7861  -16.5347   24.7644 C   0  0  1  0  0  0  0  0  0  0  0  0
    7.4432  -15.6877   25.7885 C   0  0  0  0  0  0  0  0  0  0  0  0
    6.6147  -14.6180   26.3636 C   0  0  0  0  0  0  0  0  0  0  0  0
    5.4272  -14.6659   27.0705 C   0  0  0  0  0  0  0  0  0  0  0  0
    5.0344  -13.4149   27.3647 N   0  0  0  0  0  0  0  0  0  0  0  0
    5.9354  -12.5210   26.8695 C   0  0  0  0  0  0  0  0  0  0  0  0
    5.9835  -11.1508   26.9018 C   0  0  0  0  0  0  0  0  0  0  0  0
    7.0493  -10.4876   26.2911 C   0  0  0  0  0  0  0  0  0  0  0  0
    8.0328  -11.2052   25.6705 C   0  0  0  0  0  0  0  0  0  0  0  0
    7.9712  -12.5719   25.6477 C   0  0  0  0  0  0  0  0  0  0  0  0
    6.9145  -13.2712   26.2499 C   0  0  0  0  0  0  0  0  0  0  0  0
    7.6605  -16.7263   23.5431 C   0  0  0  0  0  0  0  0  0  0  0  0
    8.3142  -17.7895   23.4345 O   0  0  0  0  0  0  0  0  0  0  0  0
    7.7397  -15.7487   22.5572 N   0  0  0  0  0  0  0  0  0  0  0  0
    8.6527  -15.8091   21.3703 C   0  0  1  0  0  0  0  0  0  0  0  0
    8.2498  -14.7032   20.4600 C   0  0  0  0  0  0  0  0  0  0  0  0
    8.8048  -14.6439   19.0831 C   0  0  0  0  0  0  0  0  0  0  0  0
    8.1413  -13.5055   18.2856 C   0  0  0  0  0  0  0  0  0  0  0  0
    8.7204  -13.4798   16.8990 C   0  0  0  0  0  0  0  0  0  0  0  0
    8.2075  -14.5956   16.0995 N   0  0  0  0  0  0  0  0  0  0  0  0
    9.9875  -15.7615   21.9707 C   0  0  0  0  0  0  0  0  0  0  0  0
   10.3580  -14.6130   22.4973 O   0  0  0  0  0  0  0  0  0  0  0  0
    9.4159  -15.7793   28.3352 O   0  0  0  0  0  0  0  0  0  0  0  0
   10.2421  -16.0772   27.2435 C   0  0  0  0  0  0  0  0  0  0  0  0
    9.9655  -17.2296   26.5182 C   0  0  0  0  0  0  0  0  0  0  0  0
   10.7145  -17.6044   25.4367 C   0  0  0  0  0  0  0  0  0  0  0  0
   11.7865  -16.8282   25.0344 C   0  0  0  0  0  0  0  0  0  0  0  0
   12.5820  -17.2668   23.8666 C   0  0  0  0  0  0  0  0  0  0  0  0
   12.2867  -16.4045   22.6833 C   0  0  2  0  0  0  0  0  0  0  0  0
   10.9754  -16.7477   22.0884 N   0  0  0  0  0  0  0  0  0  0  0  0
   13.2829  -16.4980   21.5993 C   0  0  0  0  0  0  0  0  0  0  0  0
   12.9218  -17.1321   20.3923 O   0  0  0  0  0  0  0  0  0  0  0  0
   12.0576  -15.6701   25.7723 C   0  0  0  0  0  0  0  0  0  0  0  0
   11.3043  -15.2892   26.8620 C   0  0  0  0  0  0  0  0  0  0  0  0
   14.4450  -16.0295   21.7130 O   0  0  0  0  0  0  0  0  0  0  0  0
  2  1  1  1
  3  2  1  0
  4  5  2  0
  4  3  1  0
  6  5  1  0
  7 12  2  0
  7  6  1  0
  8  7  1  0
  9 10  1  0
  9  8  2  0
 10 11  2  0
 11 12  1  0
 12  4  1  0
 13  2  1  0
 14 13  2  0
 15 13  1  0
 16 22  1  0
 16 15  1  0
 16 17  1  6
 18 17  1  0
 19 18  1  0
 20 19  1  0
 21 20  1  0
 22 23  2  0
 24 25  1  0
 25 35  2  0
 26 25  1  0
 26 27  2  0
 27 28  1  0
 28 34  2  0
 28 29  1  0
 30 32  1  0
 30 29  1  1
 31 30  1  0
 31 22  1  0
 32 33  1  0
 35 34  1  0
 36 32  2  0
M  END
$$$$
