WKY.pdb
     RDKit          3D

 36 38  0  0  1  0  0  0  0  0999 V2000
    5.7852  -17.6126   22.7945 N   0  0  0  0  0  0  0  0  0  0  0  0
    6.8007  -16.5337   22.6866 C   0  0  1  0  0  0  0  0  0  0  0  0
    7.2079  -16.1688   24.0647 C   0  0  0  0  0  0  0  0  0  0  0  0
    6.1579  -15.5803   24.9089 C   0  0  0  0  0  0  0  0  0  0  0  0
    5.2871  -16.1577   25.8147 C   0  0  0  0  0  0  0  0  0  0  0  0
    4.4835  -15.2093   26.3252 N   0  0  0  0  0  0  0  0  0  0  0  0
    4.7954  -13.9998   25.7810 C   0  0  0  0  0  0  0  0  0  0  0  0
    4.2729  -12.7457   25.9680 C   0  0  0  0  0  0  0  0  0  0  0  0
    4.8008  -11.6695   25.2526 C   0  0  0  0  0  0  0  0  0  0  0  0
    5.8304  -11.8723   24.3773 C   0  0  0  0  0  0  0  0  0  0  0  0
    6.3415  -13.1295   24.2025 C   0  0  0  0  0  0  0  0  0  0  0  0
    5.8349  -14.2340   24.9035 C   0  0  0  0  0  0  0  0  0  0  0  0
    7.9567  -17.0942   21.8850 C   0  0  0  0  0  0  0  0  0  0  0  0
    8.5910  -18.0698   22.3492 O   0  0  0  0  0  0  0  0  0  0  0  0
    8.3115  -16.5449   20.6577 N   0  0  0  0  0  0  0  0  0  0  0  0
    9.4801  -15.6324   20.4396 C   0  0  1  0  0  0  0  0  0  0  0  0
    8.9316  -14.2568   20.2952 C   0  0  0  0  0  0  0  0  0  0  0  0
    8.0542  -13.9314   19.1412 C   0  0  0  0  0  0  0  0  0  0  0  0
    8.8173  -14.1206   17.8168 C   0  0  0  0  0  0  0  0  0  0  0  0
    7.9140  -13.7452   16.6758 C   0  0  0  0  0  0  0  0  0  0  0  0
    7.8985  -12.2931   16.4798 N   0  0  0  0  0  0  0  0  0  0  0  0
   10.3465  -15.9167   21.5855 C   0  0  0  0  0  0  0  0  0  0  0  0
   11.6081  -15.5559   21.4763 O   0  0  0  0  0  0  0  0  0  0  0  0
   12.9724  -14.8594   29.8117 O   0  0  0  0  0  0  0  0  0  0  0  0
   12.1501  -15.0362   28.6910 C   0  0  0  0  0  0  0  0  0  0  0  0
   12.7652  -15.2802   27.4693 C   0  0  0  0  0  0  0  0  0  0  0  0
   12.0480  -15.4663   26.3194 C   0  0  0  0  0  0  0  0  0  0  0  0
   10.6661  -15.4132   26.3491 C   0  0  0  0  0  0  0  0  0  0  0  0
    9.9208  -15.6091   25.0860 C   0  0  0  0  0  0  0  0  0  0  0  0
   10.8311  -16.1256   24.0204 C   0  0  2  0  0  0  0  0  0  0  0  0
   10.0685  -16.5251   22.8163 N   0  0  0  0  0  0  0  0  0  0  0  0
   11.6349  -17.2956   24.4222 C   0  0  0  0  0  0  0  0  0  0  0  0
   11.6410  -18.4373   23.5942 O   0  0  0  0  0  0  0  0  0  0  0  0
   10.0562  -15.1656   27.5843 C   0  0  0  0  0  0  0  0  0  0  0  0
   10.7759  -14.9786   28.7450 C   0  0  0  0  0  0  0  0  0  0  0  0
   12.3179  -17.3102   25.4786 O   0  0  0  0  0  0  0  0  0  0  0  0
  2  1  1  1
  3  2  1  0
  4  5  2  0
  4  3  1  0
  6  5  1  0
  7 12  2  0
  7  6  1  0
  8  7  1  0
  9 10  1  0
  9  8  2  0
 10 11  2  0
 11 12  1  0
 12  4  1  0
 13  2  1  0
 14 13  2  0
 15 13  1  0
 16 22  1  0
 16 15  1  0
 16 17  1  1
 18 17  1  0
 19 18  1  0
 20 19  1  0
 21 20  1  0
 22 23  2  0
 24 25  1  0
 25 35  2  0
 26 25  1  0
 26 27  2  0
 27 28  1  0
 28 34  2  0
 28 29  1  0
 30 32  1  0
 30 29  1  1
 31 30  1  0
 31 22  1  0
 32 33  1  0
 35 34  1  0
 36 32  2  0
M  END
$$$$
