WKY.pdb
     RDKit          3D

 36 38  0  0  1  0  0  0  0  0999 V2000
    5.9595  -17.9725   24.1212 N   0  0  0  0  0  0  0  0  0  0  0  0
    6.4298  -16.5889   23.8543 C   0  0  1  0  0  0  0  0  0  0  0  0
    7.1684  -16.1322   25.0560 C   0  0  0  0  0  0  0  0  0  0  0  0
    6.4693  -15.1578   25.9064 C   0  0  0  0  0  0  0  0  0  0  0  0
    5.4136  -15.3092   26.7866 C   0  0  0  0  0  0  0  0  0  0  0  0
    5.1018  -14.1142   27.3163 N   0  0  0  0  0  0  0  0  0  0  0  0
    5.9282  -13.1566   26.8102 C   0  0  0  0  0  0  0  0  0  0  0  0
    6.0106  -11.8050   27.0281 C   0  0  0  0  0  0  0  0  0  0  0  0
    6.9755  -11.0589   26.3492 C   0  0  0  0  0  0  0  0  0  0  0  0
    7.8277  -11.6779   25.4785 C   0  0  0  0  0  0  0  0  0  0  0  0
    7.7334  -13.0273   25.2727 C   0  0  0  0  0  0  0  0  0  0  0  0
    6.7754  -13.8080   25.9366 C   0  0  0  0  0  0  0  0  0  0  0  0
    7.3223  -16.6541   22.6327 C   0  0  0  0  0  0  0  0  0  0  0  0
    8.2662  -17.4779   22.6231 O   0  0  0  0  0  0  0  0  0  0  0  0
    7.1041  -15.8225   21.5397 N   0  0  0  0  0  0  0  0  0  0  0  0
    8.1841  -15.2835   20.6515 C   0  0  1  0  0  0  0  0  0  0  0  0
    7.5761  -14.1864   19.8510 C   0  0  0  0  0  0  0  0  0  0  0  0
    8.3665  -13.5356   18.7743 C   0  0  0  0  0  0  0  0  0  0  0  0
    8.7090  -14.5533   17.6701 C   0  0  0  0  0  0  0  0  0  0  0  0
    9.4189  -13.8405   16.5535 C   0  0  0  0  0  0  0  0  0  0  0  0
    9.7662  -14.7732   15.4779 N   0  0  0  0  0  0  0  0  0  0  0  0
    9.2544  -14.9448   21.5918 C   0  0  0  0  0  0  0  0  0  0  0  0
    9.0158  -13.9555   22.4274 O   0  0  0  0  0  0  0  0  0  0  0  0
   12.0910  -16.2206   29.4023 O   0  0  0  0  0  0  0  0  0  0  0  0
   11.6382  -15.9863   28.0972 C   0  0  0  0  0  0  0  0  0  0  0  0
   10.5330  -16.7042   27.6570 C   0  0  0  0  0  0  0  0  0  0  0  0
   10.0170  -16.5450   26.4003 C   0  0  0  0  0  0  0  0  0  0  0  0
   10.5974  -15.6477   25.5220 C   0  0  0  0  0  0  0  0  0  0  0  0
   10.0206  -15.5065   24.1669 C   0  0  0  0  0  0  0  0  0  0  0  0
   11.0906  -15.6261   23.1317 C   0  0  2  0  0  0  0  0  0  0  0  0
   10.5289  -15.4986   21.7681 N   0  0  0  0  0  0  0  0  0  0  0  0
   11.8322  -16.9008   23.1686 C   0  0  0  0  0  0  0  0  0  0  0  0
   11.1158  -18.1113   23.0661 O   0  0  0  0  0  0  0  0  0  0  0  0
   11.7109  -14.9303   25.9745 C   0  0  0  0  0  0  0  0  0  0  0  0
   12.2328  -15.0877   27.2405 C   0  0  0  0  0  0  0  0  0  0  0  0
   13.0840  -16.9463   23.2867 O   0  0  0  0  0  0  0  0  0  0  0  0
  2  1  1  1
  3  2  1  0
  4  5  2  0
  4  3  1  0
  6  5  1  0
  7 12  2  0
  7  6  1  0
  8  7  1  0
  9 10  1  0
  9  8  2  0
 10 11  2  0
 11 12  1  0
 12  4  1  0
 13  2  1  0
 14 13  2  0
 15 13  1  0
 16 22  1  0
 16 15  1  0
 16 17  1  1
 18 17  1  0
 19 18  1  0
 20 19  1  0
 21 20  1  0
 22 23  2  0
 24 25  1  0
 25 35  2  0
 26 25  1  0
 26 27  2  0
 27 28  1  0
 28 34  2  0
 28 29  1  0
 30 32  1  0
 30 29  1  1
 31 30  1  0
 31 22  1  0
 32 33  1  0
 35 34  1  0
 36 32  2  0
M  END
$$$$
