WKY.pdb
     RDKit          3D

 36 38  0  0  1  0  0  0  0  0999 V2000
    6.6452  -17.6123   24.6687 N   0  0  0  0  0  0  0  0  0  0  0  0
    6.8517  -16.2374   24.1453 C   0  0  1  0  0  0  0  0  0  0  0  0
    7.3834  -15.4146   25.2582 C   0  0  0  0  0  0  0  0  0  0  0  0
    6.3946  -14.6081   25.9884 C   0  0  0  0  0  0  0  0  0  0  0  0
    5.3841  -14.9743   26.8585 C   0  0  0  0  0  0  0  0  0  0  0  0
    4.7189  -13.8759   27.2545 N   0  0  0  0  0  0  0  0  0  0  0  0
    5.2617  -12.7725   26.6679 C   0  0  0  0  0  0  0  0  0  0  0  0
    4.9444  -11.4405   26.7455 C   0  0  0  0  0  0  0  0  0  0  0  0
    5.6885  -10.5148   26.0118 C   0  0  0  0  0  0  0  0  0  0  0  0
    6.7234  -10.9405   25.2275 C   0  0  0  0  0  0  0  0  0  0  0  0
    7.0281  -12.2728   25.1615 C   0  0  0  0  0  0  0  0  0  0  0  0
    6.3012  -13.2308   25.8840 C   0  0  0  0  0  0  0  0  0  0  0  0
    7.8369  -16.3444   23.0003 C   0  0  0  0  0  0  0  0  0  0  0  0
    8.7822  -17.1608   23.0970 O   0  0  0  0  0  0  0  0  0  0  0  0
    7.7008  -15.5585   21.8612 N   0  0  0  0  0  0  0  0  0  0  0  0
    8.7208  -15.4611   20.7676 C   0  0  1  0  0  0  0  0  0  0  0  0
    8.1207  -14.6270   19.6914 C   0  0  0  0  0  0  0  0  0  0  0  0
    8.9199  -14.2977   18.4831 C   0  0  0  0  0  0  0  0  0  0  0  0
    8.1180  -14.6137   17.2067 C   0  0  0  0  0  0  0  0  0  0  0  0
    8.9727  -14.3144   16.0073 C   0  0  0  0  0  0  0  0  0  0  0  0
    8.3147  -14.7573   14.7751 N   0  0  0  0  0  0  0  0  0  0  0  0
    9.9071  -14.9522   21.4592 C   0  0  0  0  0  0  0  0  0  0  0  0
    9.8749  -13.6916   21.8381 O   0  0  0  0  0  0  0  0  0  0  0  0
   11.3179  -17.0855   29.4796 O   0  0  0  0  0  0  0  0  0  0  0  0
   11.0949  -16.8016   28.1258 C   0  0  0  0  0  0  0  0  0  0  0  0
   10.3921  -15.6441   27.8146 C   0  0  0  0  0  0  0  0  0  0  0  0
   10.1251  -15.2816   26.5229 C   0  0  0  0  0  0  0  0  0  0  0  0
   10.5571  -16.0773   25.4771 C   0  0  0  0  0  0  0  0  0  0  0  0
   10.2434  -15.6616   24.0923 C   0  0  0  0  0  0  0  0  0  0  0  0
   11.4534  -15.7867   23.2255 C   0  0  2  0  0  0  0  0  0  0  0  0
   11.1106  -15.5829   21.8000 N   0  0  0  0  0  0  0  0  0  0  0  0
   12.1339  -17.0925   23.3166 C   0  0  0  0  0  0  0  0  0  0  0  0
   13.2970  -17.2032   24.1067 O   0  0  0  0  0  0  0  0  0  0  0  0
   11.2631  -17.2417   25.8011 C   0  0  0  0  0  0  0  0  0  0  0  0
   11.5346  -17.6093   27.1015 C   0  0  0  0  0  0  0  0  0  0  0  0
   11.7115  -18.1132   22.7146 O   0  0  0  0  0  0  0  0  0  0  0  0
  2  1  1  1
  3  2  1  0
  4  5  2  0
  4  3  1  0
  6  5  1  0
  7 12  2  0
  7  6  1  0
  8  7  1  0
  9 10  1  0
  9  8  2  0
 10 11  2  0
 11 12  1  0
 12  4  1  0
 13  2  1  0
 14 13  2  0
 15 13  1  0
 16 22  1  0
 16 15  1  0
 16 17  1  6
 18 17  1  0
 19 18  1  0
 20 19  1  0
 21 20  1  0
 22 23  2  0
 24 25  1  0
 25 35  2  0
 26 25  1  0
 26 27  2  0
 27 28  1  0
 28 34  2  0
 28 29  1  0
 30 32  1  0
 30 29  1  1
 31 30  1  0
 31 22  1  0
 32 33  1  0
 35 34  1  0
 36 32  2  0
M  END
$$$$
