WKY.pdb
     RDKit          3D

 36 38  0  0  1  0  0  0  0  0999 V2000
    6.4435  -17.7013   24.9695 N   0  0  0  0  0  0  0  0  0  0  0  0
    7.1385  -16.5885   24.2728 C   0  0  1  0  0  0  0  0  0  0  0  0
    7.6957  -15.6926   25.3144 C   0  0  0  0  0  0  0  0  0  0  0  0
    6.7518  -14.7343   25.9078 C   0  0  0  0  0  0  0  0  0  0  0  0
    5.6684  -14.9231   26.7461 C   0  0  0  0  0  0  0  0  0  0  0  0
    5.0907  -13.7367   26.9998 N   0  0  0  0  0  0  0  0  0  0  0  0
    5.7643  -12.7479   26.3481 C   0  0  0  0  0  0  0  0  0  0  0  0
    5.5709  -11.3916   26.2846 C   0  0  0  0  0  0  0  0  0  0  0  0
    6.4353  -10.6112   25.5149 C   0  0  0  0  0  0  0  0  0  0  0  0
    7.4638  -11.2013   24.8357 C   0  0  0  0  0  0  0  0  0  0  0  0
    7.6443  -12.5556   24.9100 C   0  0  0  0  0  0  0  0  0  0  0  0
    6.7944  -13.3707   25.6725 C   0  0  0  0  0  0  0  0  0  0  0  0
    8.2253  -17.2109   23.4217 C   0  0  0  0  0  0  0  0  0  0  0  0
    8.8183  -18.2261   23.8546 O   0  0  0  0  0  0  0  0  0  0  0  0
    8.5623  -16.6747   22.1837 N   0  0  0  0  0  0  0  0  0  0  0  0
    9.7855  -17.0440   21.4007 C   0  0  1  0  0  0  0  0  0  0  0  0
    9.5765  -16.5461   20.0142 C   0  0  0  0  0  0  0  0  0  0  0  0
   10.5597  -16.8865   18.9536 C   0  0  0  0  0  0  0  0  0  0  0  0
   10.0846  -16.3516   17.5897 C   0  0  0  0  0  0  0  0  0  0  0  0
   10.9840  -16.8923   16.5139 C   0  0  0  0  0  0  0  0  0  0  0  0
   11.0033  -18.3573   16.5387 N   0  0  0  0  0  0  0  0  0  0  0  0
   10.8759  -16.4650   22.1884 C   0  0  0  0  0  0  0  0  0  0  0  0
   10.5969  -15.3746   22.8717 O   0  0  0  0  0  0  0  0  0  0  0  0
    9.7215  -15.1500   28.8661 O   0  0  0  0  0  0  0  0  0  0  0  0
   10.4960  -15.7823   27.8845 C   0  0  0  0  0  0  0  0  0  0  0  0
   10.1769  -15.5413   26.5539 C   0  0  0  0  0  0  0  0  0  0  0  0
   10.8745  -16.1121   25.5249 C   0  0  0  0  0  0  0  0  0  0  0  0
   11.9340  -16.9600   25.7930 C   0  0  0  0  0  0  0  0  0  0  0  0
   12.6614  -17.5683   24.6572 C   0  0  0  0  0  0  0  0  0  0  0  0
   12.9260  -16.5450   23.6018 C   0  0  2  0  0  0  0  0  0  0  0  0
   12.2063  -16.8724   22.3504 N   0  0  0  0  0  0  0  0  0  0  0  0
   14.3496  -16.3928   23.2462 C   0  0  0  0  0  0  0  0  0  0  0  0
   15.1947  -15.6622   24.1073 O   0  0  0  0  0  0  0  0  0  0  0  0
   12.2466  -17.1973   27.1365 C   0  0  0  0  0  0  0  0  0  0  0  0
   11.5463  -16.6231   28.1757 C   0  0  0  0  0  0  0  0  0  0  0  0
   14.8379  -16.8940   22.2006 O   0  0  0  0  0  0  0  0  0  0  0  0
  2  1  1  1
  3  2  1  0
  4  5  2  0
  4  3  1  0
  6  5  1  0
  7 12  2  0
  7  6  1  0
  8  7  1  0
  9 10  1  0
  9  8  2  0
 10 11  2  0
 11 12  1  0
 12  4  1  0
 13  2  1  0
 14 13  2  0
 15 13  1  0
 16 22  1  0
 16 15  1  0
 16 17  1  6
 18 17  1  0
 19 18  1  0
 20 19  1  0
 21 20  1  0
 22 23  2  0
 24 25  1  0
 25 35  2  0
 26 25  1  0
 26 27  2  0
 27 28  1  0
 28 34  2  0
 28 29  1  0
 30 32  1  0
 30 29  1  1
 31 30  1  0
 31 22  1  0
 32 33  1  0
 35 34  1  0
 36 32  2  0
M  END
$$$$
