WKY.pdb
     RDKit          3D

 36 38  0  0  1  0  0  0  0  0999 V2000
    6.5534  -18.0719   24.8686 N   0  0  0  0  0  0  0  0  0  0  0  0
    6.9081  -16.8003   24.1873 C   0  0  1  0  0  0  0  0  0  0  0  0
    7.6504  -15.9667   25.1632 C   0  0  0  0  0  0  0  0  0  0  0  0
    6.8275  -15.1286   26.0474 C   0  0  0  0  0  0  0  0  0  0  0  0
    5.7387  -15.4379   26.8417 C   0  0  0  0  0  0  0  0  0  0  0  0
    5.3018  -14.3226   27.4508 N   0  0  0  0  0  0  0  0  0  0  0  0
    6.0761  -13.2637   27.0829 C   0  0  0  0  0  0  0  0  0  0  0  0
    6.0367  -11.9351   27.4208 C   0  0  0  0  0  0  0  0  0  0  0  0
    6.9757  -11.0601   26.8718 C   0  0  0  0  0  0  0  0  0  0  0  0
    7.9235  -11.5320   26.0078 C   0  0  0  0  0  0  0  0  0  0  0  0
    7.9502  -12.8605   25.6813 C   0  0  0  0  0  0  0  0  0  0  0  0
    7.0217  -13.7679   26.2129 C   0  0  0  0  0  0  0  0  0  0  0  0
    7.7609  -17.1641   22.9901 C   0  0  0  0  0  0  0  0  0  0  0  0
    8.5375  -18.1429   23.0823 O   0  0  0  0  0  0  0  0  0  0  0  0
    7.6878  -16.4338   21.8089 N   0  0  0  0  0  0  0  0  0  0  0  0
    8.7357  -16.4410   20.7377 C   0  0  1  0  0  0  0  0  0  0  0  0
    8.2517  -15.5421   19.6552 C   0  0  0  0  0  0  0  0  0  0  0  0
    8.9531  -15.5229   18.3456 C   0  0  0  0  0  0  0  0  0  0  0  0
    8.2075  -14.6135   17.3508 C   0  0  0  0  0  0  0  0  0  0  0  0
    8.8630  -14.7250   16.0030 C   0  0  0  0  0  0  0  0  0  0  0  0
    8.0799  -14.0220   14.9833 N   0  0  0  0  0  0  0  0  0  0  0  0
    9.9544  -16.0654   21.4577 C   0  0  0  0  0  0  0  0  0  0  0  0
   10.3299  -14.8067   21.3675 O   0  0  0  0  0  0  0  0  0  0  0  0
   10.3018  -16.1112   28.9321 O   0  0  0  0  0  0  0  0  0  0  0  0
   10.7274  -15.8488   27.6232 C   0  0  0  0  0  0  0  0  0  0  0  0
    9.7934  -15.3410   26.7287 C   0  0  0  0  0  0  0  0  0  0  0  0
   10.1132  -15.0530   25.4302 C   0  0  0  0  0  0  0  0  0  0  0  0
   11.4001  -15.2667   24.9703 C   0  0  0  0  0  0  0  0  0  0  0  0
   11.7104  -14.9537   23.5580 C   0  0  0  0  0  0  0  0  0  0  0  0
   12.0425  -16.2031   22.8098 C   0  0  2  0  0  0  0  0  0  0  0  0
   10.8233  -16.8278   22.2489 N   0  0  0  0  0  0  0  0  0  0  0  0
   12.7153  -17.2361   23.6201 C   0  0  0  0  0  0  0  0  0  0  0  0
   13.9854  -16.9566   24.1658 O   0  0  0  0  0  0  0  0  0  0  0  0
   12.3332  -15.7796   25.8789 C   0  0  0  0  0  0  0  0  0  0  0  0
   12.0145  -16.0701   27.1881 C   0  0  0  0  0  0  0  0  0  0  0  0
   12.1942  -18.3593   23.8433 O   0  0  0  0  0  0  0  0  0  0  0  0
  2  1  1  1
  3  2  1  0
  4  5  2  0
  4  3  1  0
  6  5  1  0
  7 12  2  0
  7  6  1  0
  8  7  1  0
  9 10  1  0
  9  8  2  0
 10 11  2  0
 11 12  1  0
 12  4  1  0
 13  2  1  0
 14 13  2  0
 15 13  1  0
 16 22  1  0
 16 15  1  0
 16 17  1  6
 18 17  1  0
 19 18  1  0
 20 19  1  0
 21 20  1  0
 22 23  2  0
 24 25  1  0
 25 35  2  0
 26 25  1  0
 26 27  2  0
 27 28  1  0
 28 34  2  0
 28 29  1  0
 30 32  1  0
 30 29  1  1
 31 30  1  0
 31 22  1  0
 32 33  1  0
 35 34  1  0
 36 32  2  0
M  END
$$$$
