WKY.pdb
     RDKit          3D

 36 38  0  0  1  0  0  0  0  0999 V2000
    9.1649  -15.4713   23.9931 N   0  0  0  0  0  0  0  0  0  0  0  0
    8.9589  -16.8465   24.5161 C   0  0  1  0  0  0  0  0  0  0  0  0
    7.8094  -16.7975   25.4512 C   0  0  0  0  0  0  0  0  0  0  0  0
    7.4987  -15.4765   26.0167 C   0  0  0  0  0  0  0  0  0  0  0  0
    6.3762  -14.6772   25.9011 C   0  0  0  0  0  0  0  0  0  0  0  0
    6.5719  -13.5351   26.5816 N   0  0  0  0  0  0  0  0  0  0  0  0
    7.8071  -13.5475   27.1562 C   0  0  0  0  0  0  0  0  0  0  0  0
    8.4680  -12.6317   27.9344 C   0  0  0  0  0  0  0  0  0  0  0  0
    9.7572  -12.9192   28.3860 C   0  0  0  0  0  0  0  0  0  0  0  0
   10.3472  -14.1058   28.0528 C   0  0  0  0  0  0  0  0  0  0  0  0
    9.6745  -15.0097   27.2764 C   0  0  0  0  0  0  0  0  0  0  0  0
    8.3786  -14.7536   26.8040 C   0  0  0  0  0  0  0  0  0  0  0  0
    8.6794  -17.7353   23.3224 C   0  0  0  0  0  0  0  0  0  0  0  0
    8.5337  -18.9651   23.5116 O   0  0  0  0  0  0  0  0  0  0  0  0
    8.5826  -17.2052   22.0404 N   0  0  0  0  0  0  0  0  0  0  0  0
    9.1349  -17.8536   20.8074 C   0  0  1  0  0  0  0  0  0  0  0  0
    8.1211  -17.6713   19.7337 C   0  0  0  0  0  0  0  0  0  0  0  0
    8.3571  -18.2610   18.3905 C   0  0  0  0  0  0  0  0  0  0  0  0
    7.9078  -17.2831   17.2886 C   0  0  0  0  0  0  0  0  0  0  0  0
    8.1743  -17.9050   15.9466 C   0  0  0  0  0  0  0  0  0  0  0  0
    7.5675  -17.1109   14.8749 N   0  0  0  0  0  0  0  0  0  0  0  0
   10.4401  -17.2098   20.6453 C   0  0  0  0  0  0  0  0  0  0  0  0
   11.1906  -17.6373   19.6514 O   0  0  0  0  0  0  0  0  0  0  0  0
    7.5654  -12.8175   17.6372 O   0  0  0  0  0  0  0  0  0  0  0  0
    8.6477  -13.1013   18.4805 C   0  0  0  0  0  0  0  0  0  0  0  0
    9.8203  -13.5628   17.8954 C   0  0  0  0  0  0  0  0  0  0  0  0
   10.9304  -13.8664   18.6347 C   0  0  0  0  0  0  0  0  0  0  0  0
   10.9082  -13.7182   20.0098 C   0  0  0  0  0  0  0  0  0  0  0  0
   12.1226  -14.0645   20.7809 C   0  0  0  0  0  0  0  0  0  0  0  0
   12.2836  -15.5474   20.8582 C   0  0  2  0  0  0  0  0  0  0  0  0
   11.0568  -16.1897   21.3811 N   0  0  0  0  0  0  0  0  0  0  0  0
   13.3966  -15.9940   21.7174 C   0  0  0  0  0  0  0  0  0  0  0  0
   13.1229  -16.8647   22.7926 O   0  0  0  0  0  0  0  0  0  0  0  0
    9.7220  -13.2539   20.5898 C   0  0  0  0  0  0  0  0  0  0  0  0
    8.6019  -12.9463   19.8476 C   0  0  0  0  0  0  0  0  0  0  0  0
   14.5840  -15.6261   21.5234 O   0  0  0  0  0  0  0  0  0  0  0  0
  2  1  1  6
  3  2  1  0
  4  5  2  0
  4  3  1  0
  6  5  1  0
  7 12  2  0
  7  6  1  0
  8  7  1  0
  9 10  1  0
  9  8  2  0
 10 11  2  0
 11 12  1  0
 12  4  1  0
 13  2  1  0
 14 13  2  0
 15 13  1  0
 16 22  1  0
 16 15  1  0
 16 17  1  6
 18 17  1  0
 19 18  1  0
 20 19  1  0
 21 20  1  0
 22 23  2  0
 24 25  1  0
 25 35  2  0
 26 25  1  0
 26 27  2  0
 27 28  1  0
 28 34  2  0
 28 29  1  0
 30 32  1  0
 30 29  1  1
 31 30  1  0
 31 22  1  0
 32 33  1  0
 35 34  1  0
 36 32  2  0
M  END
$$$$
