WKY.pdb
     RDKit          3D

 36 38  0  0  1  0  0  0  0  0999 V2000
    6.4886  -17.0136   25.6970 N   0  0  0  0  0  0  0  0  0  0  0  0
    7.0078  -15.9136   24.8441 C   0  0  1  0  0  0  0  0  0  0  0  0
    8.2992  -15.4741   25.4249 C   0  0  0  0  0  0  0  0  0  0  0  0
    8.2097  -14.6719   26.6536 C   0  0  0  0  0  0  0  0  0  0  0  0
    8.6475  -14.9251   27.9406 C   0  0  0  0  0  0  0  0  0  0  0  0
    8.3088  -13.8961   28.7358 N   0  0  0  0  0  0  0  0  0  0  0  0
    7.6497  -12.9506   28.0094 C   0  0  0  0  0  0  0  0  0  0  0  0
    7.1059  -11.7399   28.3550 C   0  0  0  0  0  0  0  0  0  0  0  0
    6.4711  -10.9698   27.3789 C   0  0  0  0  0  0  0  0  0  0  0  0
    6.3984  -11.4250   26.0924 C   0  0  0  0  0  0  0  0  0  0  0  0
    6.9466  -12.6346   25.7632 C   0  0  0  0  0  0  0  0  0  0  0  0
    7.5908  -13.4352   26.7183 C   0  0  0  0  0  0  0  0  0  0  0  0
    7.1780  -16.4791   23.4497 C   0  0  0  0  0  0  0  0  0  0  0  0
    7.1356  -17.7219   23.2974 O   0  0  0  0  0  0  0  0  0  0  0  0
    7.3750  -15.6432   22.3559 N   0  0  0  0  0  0  0  0  0  0  0  0
    8.0775  -16.0440   21.0943 C   0  0  1  0  0  0  0  0  0  0  0  0
    7.8920  -14.9302   20.1252 C   0  0  0  0  0  0  0  0  0  0  0  0
    8.3025  -15.1107   18.7088 C   0  0  0  0  0  0  0  0  0  0  0  0
    7.9759  -13.8474   17.8903 C   0  0  0  0  0  0  0  0  0  0  0  0
    8.3043  -14.1038   16.4463 C   0  0  0  0  0  0  0  0  0  0  0  0
    8.2024  -12.8702   15.6620 N   0  0  0  0  0  0  0  0  0  0  0  0
    9.4358  -16.3490   21.5486 C   0  0  0  0  0  0  0  0  0  0  0  0
   10.1993  -15.3224   21.8597 O   0  0  0  0  0  0  0  0  0  0  0  0
   15.1587  -13.5544   18.2114 O   0  0  0  0  0  0  0  0  0  0  0  0
   14.1456  -14.4503   18.5777 C   0  0  0  0  0  0  0  0  0  0  0  0
   14.3212  -15.7912   18.2589 C   0  0  0  0  0  0  0  0  0  0  0  0
   13.3890  -16.7411   18.5749 C   0  0  0  0  0  0  0  0  0  0  0  0
   12.2266  -16.3789   19.2315 C   0  0  0  0  0  0  0  0  0  0  0  0
   11.2345  -17.4292   19.5501 C   0  0  0  0  0  0  0  0  0  0  0  0
   11.3518  -17.8375   20.9820 C   0  0  2  0  0  0  0  0  0  0  0  0
   10.0931  -17.5747   21.7154 N   0  0  0  0  0  0  0  0  0  0  0  0
   12.4269  -17.1515   21.7235 C   0  0  0  0  0  0  0  0  0  0  0  0
   13.7627  -17.3222   21.3040 O   0  0  0  0  0  0  0  0  0  0  0  0
   12.0586  -15.0256   19.5470 C   0  0  0  0  0  0  0  0  0  0  0  0
   12.9963  -14.0661   19.2308 C   0  0  0  0  0  0  0  0  0  0  0  0
   12.1938  -16.4168   22.7179 O   0  0  0  0  0  0  0  0  0  0  0  0
  2  1  1  1
  3  2  1  0
  4  5  2  0
  4  3  1  0
  6  5  1  0
  7 12  2  0
  7  6  1  0
  8  7  1  0
  9 10  1  0
  9  8  2  0
 10 11  2  0
 11 12  1  0
 12  4  1  0
 13  2  1  0
 14 13  2  0
 15 13  1  0
 16 22  1  0
 16 15  1  0
 16 17  1  6
 18 17  1  0
 19 18  1  0
 20 19  1  0
 21 20  1  0
 22 23  2  0
 24 25  1  0
 25 35  2  0
 26 25  1  0
 26 27  2  0
 27 28  1  0
 28 34  2  0
 28 29  1  0
 30 32  1  0
 30 29  1  6
 31 30  1  0
 31 22  1  0
 32 33  1  0
 35 34  1  0
 36 32  2  0
M  END
$$$$
