WKY.pdb
     RDKit          3D

 36 38  0  0  1  0  0  0  0  0999 V2000
    6.5997  -17.7189   24.6921 N   0  0  0  0  0  0  0  0  0  0  0  0
    7.5168  -16.7590   24.0254 C   0  0  1  0  0  0  0  0  0  0  0  0
    7.9448  -15.7728   25.0464 C   0  0  0  0  0  0  0  0  0  0  0  0
    6.9130  -14.8275   25.4969 C   0  0  0  0  0  0  0  0  0  0  0  0
    5.6853  -15.0372   26.0977 C   0  0  0  0  0  0  0  0  0  0  0  0
    5.0810  -13.8540   26.2989 N   0  0  0  0  0  0  0  0  0  0  0  0
    5.8784  -12.8468   25.8451 C   0  0  0  0  0  0  0  0  0  0  0  0
    5.7144  -11.4854   25.8194 C   0  0  0  0  0  0  0  0  0  0  0  0
    6.7199  -10.6841   25.2757 C   0  0  0  0  0  0  0  0  0  0  0  0
    7.8550  -11.2590   24.7776 C   0  0  0  0  0  0  0  0  0  0  0  0
    8.0042  -12.6188   24.8114 C   0  0  0  0  0  0  0  0  0  0  0  0
    7.0140  -13.4546   25.3491 C   0  0  0  0  0  0  0  0  0  0  0  0
    8.6838  -17.5623   23.4908 C   0  0  0  0  0  0  0  0  0  0  0  0
    9.1001  -18.5346   24.1621 O   0  0  0  0  0  0  0  0  0  0  0  0
    9.2845  -17.2356   22.2799 N   0  0  0  0  0  0  0  0  0  0  0  0
   10.6645  -17.6559   21.8738 C   0  0  1  0  0  0  0  0  0  0  0  0
   10.7831  -17.3928   20.4141 C   0  0  0  0  0  0  0  0  0  0  0  0
   12.0071  -17.8172   19.6866 C   0  0  0  0  0  0  0  0  0  0  0  0
   11.8419  -17.5791   18.1739 C   0  0  0  0  0  0  0  0  0  0  0  0
   13.0948  -18.0211   17.4713 C   0  0  0  0  0  0  0  0  0  0  0  0
   13.0817  -17.5987   16.0681 N   0  0  0  0  0  0  0  0  0  0  0  0
   11.5271  -16.9026   22.7865 C   0  0  0  0  0  0  0  0  0  0  0  0
   11.3804  -15.5941   22.7934 O   0  0  0  0  0  0  0  0  0  0  0  0
   10.4158  -17.2896   29.8390 O   0  0  0  0  0  0  0  0  0  0  0  0
   10.9142  -16.7144   28.6625 C   0  0  0  0  0  0  0  0  0  0  0  0
   11.5761  -17.5447   27.7664 C   0  0  0  0  0  0  0  0  0  0  0  0
   12.0973  -17.0765   26.5915 C   0  0  0  0  0  0  0  0  0  0  0  0
   11.9747  -15.7381   26.2643 C   0  0  0  0  0  0  0  0  0  0  0  0
   12.5579  -15.2624   24.9905 C   0  0  0  0  0  0  0  0  0  0  0  0
   13.3761  -16.3407   24.3590 C   0  0  2  0  0  0  0  0  0  0  0  0
   12.5143  -17.3352   23.6813 N   0  0  0  0  0  0  0  0  0  0  0  0
   14.2279  -17.0891   25.3027 C   0  0  0  0  0  0  0  0  0  0  0  0
   15.2175  -16.3941   26.0288 O   0  0  0  0  0  0  0  0  0  0  0  0
   11.3074  -14.9099   27.1741 C   0  0  0  0  0  0  0  0  0  0  0  0
   10.7803  -15.3786   28.3584 C   0  0  0  0  0  0  0  0  0  0  0  0
   14.1013  -18.3275   25.4845 O   0  0  0  0  0  0  0  0  0  0  0  0
  2  1  1  1
  3  2  1  0
  4  5  2  0
  4  3  1  0
  6  5  1  0
  7 12  2  0
  7  6  1  0
  8  7  1  0
  9 10  1  0
  9  8  2  0
 10 11  2  0
 11 12  1  0
 12  4  1  0
 13  2  1  0
 14 13  2  0
 15 13  1  0
 16 22  1  0
 16 15  1  0
 16 17  1  6
 18 17  1  0
 19 18  1  0
 20 19  1  0
 21 20  1  0
 22 23  2  0
 24 25  1  0
 25 35  2  0
 26 25  1  0
 26 27  2  0
 27 28  1  0
 28 34  2  0
 28 29  1  0
 30 32  1  0
 30 29  1  1
 31 30  1  0
 31 22  1  0
 32 33  1  0
 35 34  1  0
 36 32  2  0
M  END
$$$$
