WKY.pdb
     RDKit          3D

 36 38  0  0  1  0  0  0  0  0999 V2000
    6.1208  -17.4003   24.1171 N   0  0  0  0  0  0  0  0  0  0  0  0
    7.0048  -16.2201   23.9361 C   0  0  1  0  0  0  0  0  0  0  0  0
    7.5710  -15.8826   25.2641 C   0  0  0  0  0  0  0  0  0  0  0  0
    6.8041  -14.9135   26.0606 C   0  0  0  0  0  0  0  0  0  0  0  0
    5.6572  -15.0623   26.8186 C   0  0  0  0  0  0  0  0  0  0  0  0
    5.3142  -13.8737   27.3435 N   0  0  0  0  0  0  0  0  0  0  0  0
    6.2091  -12.9231   26.9543 C   0  0  0  0  0  0  0  0  0  0  0  0
    6.2946  -11.5794   27.2156 C   0  0  0  0  0  0  0  0  0  0  0  0
    7.3415  -10.8391   26.6637 C   0  0  0  0  0  0  0  0  0  0  0  0
    8.2697  -11.4559   25.8730 C   0  0  0  0  0  0  0  0  0  0  0  0
    8.1713  -12.7974   25.6224 C   0  0  0  0  0  0  0  0  0  0  0  0
    7.1321  -13.5721   26.1592 C   0  0  0  0  0  0  0  0  0  0  0  0
    8.0800  -16.6215   22.9483 C   0  0  0  0  0  0  0  0  0  0  0  0
    8.3799  -17.8337   22.8482 O   0  0  0  0  0  0  0  0  0  0  0  0
    8.7238  -15.6710   22.1634 N   0  0  0  0  0  0  0  0  0  0  0  0
    9.8816  -15.9590   21.2567 C   0  0  1  0  0  0  0  0  0  0  0  0
    9.8627  -14.9211   20.1906 C   0  0  0  0  0  0  0  0  0  0  0  0
    8.6820  -14.8057   19.2962 C   0  0  0  0  0  0  0  0  0  0  0  0
    9.1233  -14.4206   17.8718 C   0  0  0  0  0  0  0  0  0  0  0  0
    7.9062  -14.3130   16.9967 C   0  0  0  0  0  0  0  0  0  0  0  0
    8.2659  -13.8281   15.6615 N   0  0  0  0  0  0  0  0  0  0  0  0
   11.0245  -15.9926   22.1716 C   0  0  0  0  0  0  0  0  0  0  0  0
   11.7225  -14.8820   22.2863 O   0  0  0  0  0  0  0  0  0  0  0  0
    8.9573  -14.4184   28.1630 O   0  0  0  0  0  0  0  0  0  0  0  0
    9.8190  -15.2088   27.3910 C   0  0  0  0  0  0  0  0  0  0  0  0
   11.1406  -14.7974   27.2706 C   0  0  0  0  0  0  0  0  0  0  0  0
   12.0568  -15.5020   26.5390 C   0  0  0  0  0  0  0  0  0  0  0  0
   11.6787  -16.6629   25.8889 C   0  0  0  0  0  0  0  0  0  0  0  0
   12.6918  -17.3960   25.0981 C   0  0  0  0  0  0  0  0  0  0  0  0
   12.7887  -16.8253   23.7212 C   0  0  2  0  0  0  0  0  0  0  0  0
   11.5283  -17.0263   22.9716 N   0  0  0  0  0  0  0  0  0  0  0  0
   13.8691  -17.4023   22.8989 C   0  0  0  0  0  0  0  0  0  0  0  0
   15.1979  -17.3264   23.3655 O   0  0  0  0  0  0  0  0  0  0  0  0
   10.3449  -17.0681   26.0153 C   0  0  0  0  0  0  0  0  0  0  0  0
    9.4194  -16.3609   26.7524 C   0  0  0  0  0  0  0  0  0  0  0  0
   13.6463  -17.9622   21.7945 O   0  0  0  0  0  0  0  0  0  0  0  0
  2  1  1  1
  3  2  1  0
  4  5  2  0
  4  3  1  0
  6  5  1  0
  7 12  2  0
  7  6  1  0
  8  7  1  0
  9 10  1  0
  9  8  2  0
 10 11  2  0
 11 12  1  0
 12  4  1  0
 13  2  1  0
 14 13  2  0
 15 13  1  0
 16 22  1  0
 16 15  1  0
 16 17  1  6
 18 17  1  0
 19 18  1  0
 20 19  1  0
 21 20  1  0
 22 23  2  0
 24 25  1  0
 25 35  2  0
 26 25  1  0
 26 27  2  0
 27 28  1  0
 28 34  2  0
 28 29  1  0
 30 32  1  0
 30 29  1  1
 31 30  1  0
 31 22  1  0
 32 33  1  0
 35 34  1  0
 36 32  2  0
M  END
$$$$
