WKY.pdb
     RDKit          3D

 36 38  0  0  1  0  0  0  0  0999 V2000
    6.4958  -17.6384   24.3910 N   0  0  0  0  0  0  0  0  0  0  0  0
    7.1491  -16.3380   24.0923 C   0  0  1  0  0  0  0  0  0  0  0  0
    7.6886  -15.8095   25.3681 C   0  0  0  0  0  0  0  0  0  0  0  0
    6.7968  -14.9142   26.1194 C   0  0  0  0  0  0  0  0  0  0  0  0
    5.7141  -15.1826   26.9367 C   0  0  0  0  0  0  0  0  0  0  0  0
    5.1954  -14.0256   27.3816 N   0  0  0  0  0  0  0  0  0  0  0  0
    5.9083  -12.9785   26.8800 C   0  0  0  0  0  0  0  0  0  0  0  0
    5.7783  -11.6216   27.0314 C   0  0  0  0  0  0  0  0  0  0  0  0
    6.6707  -10.7703   26.3776 C   0  0  0  0  0  0  0  0  0  0  0  0
    7.6635  -11.2927   25.5973 C   0  0  0  0  0  0  0  0  0  0  0  0
    7.7808  -12.6488   25.4571 C   0  0  0  0  0  0  0  0  0  0  0  0
    6.9011  -13.5338   26.0982 C   0  0  0  0  0  0  0  0  0  0  0  0
    8.2462  -16.6160   23.0863 C   0  0  0  0  0  0  0  0  0  0  0  0
    8.8426  -17.7166   23.1383 O   0  0  0  0  0  0  0  0  0  0  0  0
    8.5888  -15.6760   22.1205 N   0  0  0  0  0  0  0  0  0  0  0  0
    9.7544  -15.8011   21.1870 C   0  0  1  0  0  0  0  0  0  0  0  0
    9.5580  -14.7889   20.1142 C   0  0  0  0  0  0  0  0  0  0  0  0
    8.4923  -14.9899   19.0986 C   0  0  0  0  0  0  0  0  0  0  0  0
    8.4084  -13.7713   18.1603 C   0  0  0  0  0  0  0  0  0  0  0  0
    7.2023  -13.9191   17.2760 C   0  0  0  0  0  0  0  0  0  0  0  0
    6.9742  -12.6985   16.4979 N   0  0  0  0  0  0  0  0  0  0  0  0
   10.9114  -15.6567   22.0731 C   0  0  0  0  0  0  0  0  0  0  0  0
   10.8119  -14.7617   23.0337 O   0  0  0  0  0  0  0  0  0  0  0  0
   10.8212  -14.4281   28.9455 O   0  0  0  0  0  0  0  0  0  0  0  0
   11.0760  -15.2375   27.8305 C   0  0  0  0  0  0  0  0  0  0  0  0
   10.9969  -14.6509   26.5735 C   0  0  0  0  0  0  0  0  0  0  0  0
   11.2288  -15.3585   25.4260 C   0  0  0  0  0  0  0  0  0  0  0  0
   11.5527  -16.7015   25.4942 C   0  0  0  0  0  0  0  0  0  0  0  0
   11.7879  -17.4400   24.2338 C   0  0  0  0  0  0  0  0  0  0  0  0
   12.7612  -16.7026   23.3736 C   0  0  2  0  0  0  0  0  0  0  0  0
   12.1463  -16.3178   22.0833 N   0  0  0  0  0  0  0  0  0  0  0  0
   13.9847  -17.4616   23.0520 C   0  0  0  0  0  0  0  0  0  0  0  0
   15.0330  -17.4993   23.9948 O   0  0  0  0  0  0  0  0  0  0  0  0
   11.6286  -17.2833   26.7650 C   0  0  0  0  0  0  0  0  0  0  0  0
   11.3964  -16.5731   27.9232 C   0  0  0  0  0  0  0  0  0  0  0  0
   14.1255  -18.0791   21.9649 O   0  0  0  0  0  0  0  0  0  0  0  0
  2  1  1  1
  3  2  1  0
  4  5  2  0
  4  3  1  0
  6  5  1  0
  7 12  2  0
  7  6  1  0
  8  7  1  0
  9 10  1  0
  9  8  2  0
 10 11  2  0
 11 12  1  0
 12  4  1  0
 13  2  1  0
 14 13  2  0
 15 13  1  0
 16 22  1  0
 16 15  1  0
 16 17  1  6
 18 17  1  0
 19 18  1  0
 20 19  1  0
 21 20  1  0
 22 23  2  0
 24 25  1  0
 25 35  2  0
 26 25  1  0
 26 27  2  0
 27 28  1  0
 28 34  2  0
 28 29  1  0
 30 32  1  0
 30 29  1  6
 31 30  1  0
 31 22  1  0
 32 33  1  0
 35 34  1  0
 36 32  2  0
M  END
$$$$
