YSS.pdb
     RDKit          3D

 25 25  0  0  1  0  0  0  0  0999 V2000
    5.6748  -10.9104   28.4476 O   0  0  0  0  0  0  0  0  0  0  0  0
    6.2084  -11.8018   27.5399 C   0  0  0  0  0  0  0  0  0  0  0  0
    5.5903  -12.1407   26.3559 C   0  0  0  0  0  0  0  0  0  0  0  0
    6.1427  -13.0332   25.4655 C   0  0  0  0  0  0  0  0  0  0  0  0
    7.3608  -13.6243   25.7469 C   0  0  0  0  0  0  0  0  0  0  0  0
    8.0029  -14.5802   24.8446 C   0  0  0  0  0  0  0  0  0  0  0  0
    7.1864  -15.7871   24.5252 C   0  0  2  0  0  0  0  0  0  0  0  0
    6.9444  -16.5926   25.7031 N   0  0  0  0  0  0  0  0  0  0  0  0
    7.9561  -16.5762   23.4977 C   0  0  0  0  0  0  0  0  0  0  0  0
    8.6599  -17.5606   23.8352 O   0  0  0  0  0  0  0  0  0  0  0  0
    8.0044  -13.3017   26.9305 C   0  0  0  0  0  0  0  0  0  0  0  0
    7.4181  -12.3956   27.8084 C   0  0  0  0  0  0  0  0  0  0  0  0
    8.4525  -14.8047   19.7909 O   0  0  0  0  0  0  0  0  0  0  0  0
    8.4637  -16.1748   19.7887 C   0  0  0  0  0  0  0  0  0  0  0  0
    8.8692  -16.7443   21.1540 C   0  0  2  0  0  0  0  0  0  0  0  0
    7.9208  -16.2458   22.1158 N   0  0  0  0  0  0  0  0  0  0  0  0
   10.2656  -16.3790   21.4855 C   0  0  0  0  0  0  0  0  0  0  0  0
   10.5178  -15.4951   22.3447 O   0  0  0  0  0  0  0  0  0  0  0  0
   13.3835  -18.5815   23.4844 O   0  0  0  0  0  0  0  0  0  0  0  0
   12.2427  -18.2042   22.7788 C   0  0  0  0  0  0  0  0  0  0  0  0
   12.5938  -17.3475   21.5804 C   0  0  2  0  0  0  0  0  0  0  0  0
   11.3945  -16.9944   20.8636 N   0  0  0  0  0  0  0  0  0  0  0  0
   13.6215  -17.9507   20.7336 C   0  0  0  0  0  0  0  0  0  0  0  0
   14.9320  -17.5275   20.7062 O   0  0  0  0  0  0  0  0  0  0  0  0
   13.3261  -18.9261   19.9632 O   0  0  0  0  0  0  0  0  0  0  0  0
  1  2  1  0
  2 12  2  0
  3  4  2  0
  3  2  1  0
  4  5  1  0
  5 11  2  0
  6  5  1  0
  7  8  1  1
  7  9  1  0
  7  6  1  0
  9 10  2  0
 12 11  1  0
 13 14  1  0
 15 14  1  6
 15 17  1  0
 16  9  1  0
 16 15  1  0
 17 18  2  0
 17 22  1  0
 19 20  1  0
 21 20  1  1
 22 21  1  0
 23 21  1  0
 23 24  1  0
 25 23  2  0
M  END
$$$$
