YSS.pdb
     RDKit          3D

 25 25  0  0  1  0  0  0  0  0999 V2000
   10.3873  -14.2293   30.2610 O   0  0  0  0  0  0  0  0  0  0  0  0
    9.9888  -14.4545   28.9595 C   0  0  0  0  0  0  0  0  0  0  0  0
    9.2424  -13.5562   28.2282 C   0  0  0  0  0  0  0  0  0  0  0  0
    8.8566  -13.8033   26.9303 C   0  0  0  0  0  0  0  0  0  0  0  0
    9.2187  -14.9883   26.3164 C   0  0  0  0  0  0  0  0  0  0  0  0
    8.8421  -15.3133   24.9406 C   0  0  0  0  0  0  0  0  0  0  0  0
    7.3808  -15.5193   24.7223 C   0  0  2  0  0  0  0  0  0  0  0  0
    6.8690  -16.6020   25.5351 N   0  0  0  0  0  0  0  0  0  0  0  0
    7.1967  -15.8280   23.2589 C   0  0  0  0  0  0  0  0  0  0  0  0
    7.0228  -17.0085   22.8659 O   0  0  0  0  0  0  0  0  0  0  0  0
    9.9693  -15.9096   27.0285 C   0  0  0  0  0  0  0  0  0  0  0  0
   10.3425  -15.6282   28.3388 C   0  0  0  0  0  0  0  0  0  0  0  0
    8.4593  -13.1541   20.0590 O   0  0  0  0  0  0  0  0  0  0  0  0
    7.2122  -13.7157   20.1424 C   0  0  0  0  0  0  0  0  0  0  0  0
    7.2446  -15.0742   20.8538 C   0  0  2  0  0  0  0  0  0  0  0  0
    7.2113  -14.8086   22.2685 N   0  0  0  0  0  0  0  0  0  0  0  0
    8.4347  -15.8559   20.4466 C   0  0  0  0  0  0  0  0  0  0  0  0
    9.5395  -15.7056   21.0297 O   0  0  0  0  0  0  0  0  0  0  0  0
    7.9098  -19.1801   18.2743 O   0  0  0  0  0  0  0  0  0  0  0  0
    9.1728  -19.0421   18.8465 C   0  0  0  0  0  0  0  0  0  0  0  0
    9.5568  -17.5843   18.9902 C   0  0  2  0  0  0  0  0  0  0  0  0
    8.4061  -16.8123   19.3863 N   0  0  0  0  0  0  0  0  0  0  0  0
   10.2320  -17.0564   17.8060 C   0  0  0  0  0  0  0  0  0  0  0  0
   11.3840  -17.5984   17.2800 O   0  0  0  0  0  0  0  0  0  0  0  0
    9.7579  -16.0375   17.1983 O   0  0  0  0  0  0  0  0  0  0  0  0
  1  2  1  0
  2 12  2  0
  3  4  2  0
  3  2  1  0
  4  5  1  0
  5 11  2  0
  6  5  1  0
  7  8  1  1
  7  9  1  0
  7  6  1  0
  9 10  2  0
 12 11  1  0
 13 14  1  0
 15 14  1  6
 15 17  1  0
 16  9  1  0
 16 15  1  0
 17 18  2  0
 17 22  1  0
 19 20  1  0
 21 20  1  6
 22 21  1  0
 23 21  1  0
 23 24  1  0
 25 23  2  0
M  END
$$$$
