YSS.pdb
     RDKit          3D

 25 25  0  0  1  0  0  0  0  0999 V2000
    5.8070  -10.7868   28.4815 O   0  0  0  0  0  0  0  0  0  0  0  0
    6.3337  -11.7408   27.6355 C   0  0  0  0  0  0  0  0  0  0  0  0
    7.3645  -12.5837   27.9901 C   0  0  0  0  0  0  0  0  0  0  0  0
    7.8735  -13.5283   27.1281 C   0  0  0  0  0  0  0  0  0  0  0  0
    7.3483  -13.6554   25.8552 C   0  0  0  0  0  0  0  0  0  0  0  0
    7.8424  -14.6380   24.8905 C   0  0  0  0  0  0  0  0  0  0  0  0
    6.7982  -15.5389   24.3220 C   0  0  2  0  0  0  0  0  0  0  0  0
    6.3879  -16.5465   25.2766 N   0  0  0  0  0  0  0  0  0  0  0  0
    7.3969  -16.1855   23.0997 C   0  0  0  0  0  0  0  0  0  0  0  0
    7.7787  -17.3821   23.1248 O   0  0  0  0  0  0  0  0  0  0  0  0
    6.3111  -12.8208   25.4721 C   0  0  0  0  0  0  0  0  0  0  0  0
    5.8201  -11.8766   26.3683 C   0  0  0  0  0  0  0  0  0  0  0  0
    8.8076  -13.9629   19.7479 O   0  0  0  0  0  0  0  0  0  0  0  0
    7.9622  -15.0256   19.5652 C   0  0  0  0  0  0  0  0  0  0  0  0
    8.1042  -16.0663   20.6830 C   0  0  2  0  0  0  0  0  0  0  0  0
    7.5550  -15.4783   21.8770 N   0  0  0  0  0  0  0  0  0  0  0  0
    9.5176  -16.4775   20.8460 C   0  0  0  0  0  0  0  0  0  0  0  0
   10.3127  -15.8005   21.5477 O   0  0  0  0  0  0  0  0  0  0  0  0
   10.8248  -20.0735   19.2404 O   0  0  0  0  0  0  0  0  0  0  0  0
   11.5516  -19.5483   20.3070 C   0  0  0  0  0  0  0  0  0  0  0  0
   11.4394  -18.0391   20.3608 C   0  0  2  0  0  0  0  0  0  0  0  0
   10.0591  -17.6464   20.2293 N   0  0  0  0  0  0  0  0  0  0  0  0
   12.3276  -17.3703   19.4116 C   0  0  0  0  0  0  0  0  0  0  0  0
   13.6999  -17.4857   19.4402 O   0  0  0  0  0  0  0  0  0  0  0  0
   11.8415  -16.6298   18.4909 O   0  0  0  0  0  0  0  0  0  0  0  0
  1  2  1  0
  2 12  2  0
  3  4  2  0
  3  2  1  0
  4  5  1  0
  5 11  2  0
  6  5  1  0
  7  8  1  1
  7  9  1  0
  7  6  1  0
  9 10  2  0
 12 11  1  0
 13 14  1  0
 15 14  1  6
 15 17  1  0
 16  9  1  0
 16 15  1  0
 17 18  2  0
 17 22  1  0
 19 20  1  0
 21 20  1  6
 22 21  1  0
 23 21  1  0
 23 24  1  0
 25 23  2  0
M  END
$$$$
