YSS.pdb
     RDKit          3D

 25 25  0  0  1  0  0  0  0  0999 V2000
    5.4345  -10.2599   27.1624 O   0  0  0  0  0  0  0  0  0  0  0  0
    6.0286  -11.3786   26.6158 C   0  0  0  0  0  0  0  0  0  0  0  0
    7.2877  -11.3721   26.0558 C   0  0  0  0  0  0  0  0  0  0  0  0
    7.8598  -12.5017   25.5163 C   0  0  0  0  0  0  0  0  0  0  0  0
    7.1661  -13.6980   25.5246 C   0  0  0  0  0  0  0  0  0  0  0  0
    7.7157  -14.9345   24.9684 C   0  0  0  0  0  0  0  0  0  0  0  0
    8.1494  -14.8431   23.5441 C   0  0  2  0  0  0  0  0  0  0  0  0
    7.0237  -14.6403   22.6572 N   0  0  0  0  0  0  0  0  0  0  0  0
    8.8503  -16.1363   23.2167 C   0  0  0  0  0  0  0  0  0  0  0  0
    8.6350  -17.1748   23.8901 O   0  0  0  0  0  0  0  0  0  0  0  0
    5.8981  -13.7332   26.0814 C   0  0  0  0  0  0  0  0  0  0  0  0
    5.3493  -12.5729   26.6182 C   0  0  0  0  0  0  0  0  0  0  0  0
   11.3476  -16.3218   19.8607 O   0  0  0  0  0  0  0  0  0  0  0  0
   10.6277  -17.4213   20.2484 C   0  0  0  0  0  0  0  0  0  0  0  0
   10.4284  -17.4659   21.7686 C   0  0  2  0  0  0  0  0  0  0  0  0
    9.7762  -16.2381   22.1431 N   0  0  0  0  0  0  0  0  0  0  0  0
   11.7202  -17.6628   22.4656 C   0  0  0  0  0  0  0  0  0  0  0  0
   12.4481  -16.6829   22.7705 O   0  0  0  0  0  0  0  0  0  0  0  0
   12.3592  -20.1575   25.3622 O   0  0  0  0  0  0  0  0  0  0  0  0
   13.3839  -20.3334   24.4345 C   0  0  0  0  0  0  0  0  0  0  0  0
   13.4795  -19.1548   23.4883 C   0  0  2  0  0  0  0  0  0  0  0  0
   12.2138  -18.9526   22.8297 N   0  0  0  0  0  0  0  0  0  0  0  0
   14.6066  -19.2603   22.5632 C   0  0  0  0  0  0  0  0  0  0  0  0
   15.9238  -19.1492   22.9505 O   0  0  0  0  0  0  0  0  0  0  0  0
   14.3983  -19.4665   21.3197 O   0  0  0  0  0  0  0  0  0  0  0  0
  1  2  1  0
  2 12  2  0
  3  4  2  0
  3  2  1  0
  4  5  1  0
  5 11  2  0
  6  5  1  0
  7  8  1  6
  7  9  1  0
  7  6  1  0
  9 10  2  0
 12 11  1  0
 13 14  1  0
 15 14  1  6
 15 17  1  0
 16  9  1  0
 16 15  1  0
 17 18  2  0
 17 22  1  0
 19 20  1  0
 21 20  1  6
 22 21  1  0
 23 21  1  0
 23 24  1  0
 25 23  2  0
M  END
$$$$
