YSS.pdb
     RDKit          3D

 25 25  0  0  1  0  0  0  0  0999 V2000
    6.5398  -10.7362   28.6254 O   0  0  0  0  0  0  0  0  0  0  0  0
    6.8547  -11.6637   27.6539 C   0  0  0  0  0  0  0  0  0  0  0  0
    5.9782  -12.0542   26.6649 C   0  0  0  0  0  0  0  0  0  0  0  0
    6.3155  -12.9820   25.7058 C   0  0  0  0  0  0  0  0  0  0  0  0
    7.5731  -13.5571   25.7139 C   0  0  0  0  0  0  0  0  0  0  0  0
    7.9955  -14.5484   24.7244 C   0  0  0  0  0  0  0  0  0  0  0  0
    6.9414  -15.5262   24.3266 C   0  0  2  0  0  0  0  0  0  0  0  0
    6.7201  -16.5184   25.3569 N   0  0  0  0  0  0  0  0  0  0  0  0
    7.4127  -16.1841   23.0556 C   0  0  0  0  0  0  0  0  0  0  0  0
    7.8545  -17.3601   23.0637 O   0  0  0  0  0  0  0  0  0  0  0  0
    8.4745  -13.1828   26.6970 C   0  0  0  0  0  0  0  0  0  0  0  0
    8.1012  -12.2420   27.6515 C   0  0  0  0  0  0  0  0  0  0  0  0
    8.4632  -14.0960   19.4074 O   0  0  0  0  0  0  0  0  0  0  0  0
    7.5250  -15.0935   19.4548 C   0  0  0  0  0  0  0  0  0  0  0  0
    7.8227  -16.1042   20.5694 C   0  0  2  0  0  0  0  0  0  0  0  0
    7.3790  -15.5111   21.8041 N   0  0  0  0  0  0  0  0  0  0  0  0
    9.2600  -16.4603   20.5902 C   0  0  0  0  0  0  0  0  0  0  0  0
   10.1072  -15.7045   21.1323 O   0  0  0  0  0  0  0  0  0  0  0  0
   10.5181  -20.3110   19.7648 O   0  0  0  0  0  0  0  0  0  0  0  0
   11.3351  -19.4410   20.4840 C   0  0  0  0  0  0  0  0  0  0  0  0
   11.1658  -18.0111   20.0151 C   0  0  2  0  0  0  0  0  0  0  0  0
    9.7678  -17.6614   20.0074 N   0  0  0  0  0  0  0  0  0  0  0  0
   11.8385  -17.7476   18.7442 C   0  0  0  0  0  0  0  0  0  0  0  0
   13.1893  -17.9289   18.5446 O   0  0  0  0  0  0  0  0  0  0  0  0
   11.1703  -17.3251   17.7406 O   0  0  0  0  0  0  0  0  0  0  0  0
  1  2  1  0
  2 12  2  0
  3  4  2  0
  3  2  1  0
  4  5  1  0
  5 11  2  0
  6  5  1  0
  7  8  1  1
  7  9  1  0
  7  6  1  0
  9 10  2  0
 12 11  1  0
 13 14  1  0
 15 14  1  6
 15 17  1  0
 16  9  1  0
 16 15  1  0
 17 18  2  0
 17 22  1  0
 19 20  1  0
 21 20  1  6
 22 21  1  0
 23 21  1  0
 23 24  1  0
 25 23  2  0
M  END
$$$$
