YSS.pdb
     RDKit          3D

 25 25  0  0  1  0  0  0  0  0999 V2000
   10.9932  -14.3517   29.7475 O   0  0  0  0  0  0  0  0  0  0  0  0
   10.2265  -14.3137   28.6012 C   0  0  0  0  0  0  0  0  0  0  0  0
    9.2391  -13.3786   28.3791 C   0  0  0  0  0  0  0  0  0  0  0  0
    8.4869  -13.3609   27.2266 C   0  0  0  0  0  0  0  0  0  0  0  0
    8.7112  -14.3050   26.2415 C   0  0  0  0  0  0  0  0  0  0  0  0
    7.9483  -14.3424   24.9938 C   0  0  0  0  0  0  0  0  0  0  0  0
    8.3262  -15.4428   24.0603 C   0  0  2  0  0  0  0  0  0  0  0  0
    9.7628  -15.5566   23.9258 N   0  0  0  0  0  0  0  0  0  0  0  0
    7.6974  -15.1220   22.7290 C   0  0  0  0  0  0  0  0  0  0  0  0
    6.4486  -15.0743   22.6004 O   0  0  0  0  0  0  0  0  0  0  0  0
    9.6980  -15.2572   26.4385 C   0  0  0  0  0  0  0  0  0  0  0  0
   10.4401  -15.2466   27.6152 C   0  0  0  0  0  0  0  0  0  0  0  0
    8.6599  -12.8329   19.5384 O   0  0  0  0  0  0  0  0  0  0  0  0
    7.5804  -13.6588   19.7120 C   0  0  0  0  0  0  0  0  0  0  0  0
    7.9974  -15.0420   20.2272 C   0  0  2  0  0  0  0  0  0  0  0  0
    8.4803  -14.8618   21.5716 N   0  0  0  0  0  0  0  0  0  0  0  0
    9.0068  -15.6564   19.3346 C   0  0  0  0  0  0  0  0  0  0  0  0
   10.1827  -15.8633   19.7314 O   0  0  0  0  0  0  0  0  0  0  0  0
    8.3291  -19.6778   17.9270 O   0  0  0  0  0  0  0  0  0  0  0  0
    8.1238  -18.3647   18.3455 C   0  0  0  0  0  0  0  0  0  0  0  0
    8.9131  -17.3868   17.5004 C   0  0  2  0  0  0  0  0  0  0  0  0
    8.7166  -16.0464   17.9916 N   0  0  0  0  0  0  0  0  0  0  0  0
    8.6443  -17.5277   16.0703 C   0  0  0  0  0  0  0  0  0  0  0  0
    9.6190  -17.4497   15.1001 O   0  0  0  0  0  0  0  0  0  0  0  0
    7.4526  -17.7354   15.6593 O   0  0  0  0  0  0  0  0  0  0  0  0
  1  2  1  0
  2 12  2  0
  3  4  2  0
  3  2  1  0
  4  5  1  0
  5 11  2  0
  6  5  1  0
  7  8  1  6
  7  9  1  0
  7  6  1  0
  9 10  2  0
 12 11  1  0
 13 14  1  0
 15 14  1  6
 15 17  1  0
 16  9  1  0
 16 15  1  0
 17 18  2  0
 17 22  1  0
 19 20  1  0
 21 20  1  1
 22 21  1  0
 23 21  1  0
 23 24  1  0
 25 23  2  0
M  END
$$$$
