YSS.pdb
     RDKit          3D

 25 25  0  0  1  0  0  0  0  0999 V2000
   10.9448  -15.7278   30.5177 O   0  0  0  0  0  0  0  0  0  0  0  0
   10.2922  -15.3664   29.3571 C   0  0  0  0  0  0  0  0  0  0  0  0
   10.2970  -14.0846   28.8515 C   0  0  0  0  0  0  0  0  0  0  0  0
    9.6380  -13.7480   27.6909 C   0  0  0  0  0  0  0  0  0  0  0  0
    8.9392  -14.7132   26.9893 C   0  0  0  0  0  0  0  0  0  0  0  0
    8.2180  -14.4228   25.7499 C   0  0  0  0  0  0  0  0  0  0  0  0
    8.8713  -14.9332   24.5098 C   0  0  2  0  0  0  0  0  0  0  0  0
   10.2254  -14.4388   24.3798 N   0  0  0  0  0  0  0  0  0  0  0  0
    8.0288  -14.4700   23.3495 C   0  0  0  0  0  0  0  0  0  0  0  0
    8.1516  -13.3086   22.8866 O   0  0  0  0  0  0  0  0  0  0  0  0
    8.9176  -16.0104   27.4749 C   0  0  0  0  0  0  0  0  0  0  0  0
    9.5945  -16.3166   28.6512 C   0  0  0  0  0  0  0  0  0  0  0  0
    7.5598  -14.2078   19.3258 O   0  0  0  0  0  0  0  0  0  0  0  0
    7.7273  -14.2780   20.6839 C   0  0  0  0  0  0  0  0  0  0  0  0
    6.7663  -15.2864   21.3260 C   0  0  2  0  0  0  0  0  0  0  0  0
    7.0680  -15.3170   22.7335 N   0  0  0  0  0  0  0  0  0  0  0  0
    6.8898  -16.6160   20.6856 C   0  0  0  0  0  0  0  0  0  0  0  0
    8.0081  -17.1827   20.5790 O   0  0  0  0  0  0  0  0  0  0  0  0
    5.5441  -19.6118   17.3168 O   0  0  0  0  0  0  0  0  0  0  0  0
    5.4981  -18.4028   18.0081 C   0  0  0  0  0  0  0  0  0  0  0  0
    5.8906  -18.5822   19.4597 C   0  0  2  0  0  0  0  0  0  0  0  0
    5.7694  -17.3273   20.1577 N   0  0  0  0  0  0  0  0  0  0  0  0
    7.1998  -19.2128   19.6193 C   0  0  0  0  0  0  0  0  0  0  0  0
    7.3747  -20.5048   20.0638 O   0  0  0  0  0  0  0  0  0  0  0  0
    8.2632  -18.5617   19.3413 O   0  0  0  0  0  0  0  0  0  0  0  0
  1  2  1  0
  2 12  2  0
  3  4  2  0
  3  2  1  0
  4  5  1  0
  5 11  2  0
  6  5  1  0
  7  8  1  6
  7  9  1  0
  7  6  1  0
  9 10  2  0
 12 11  1  0
 13 14  1  0
 15 14  1  6
 15 17  1  0
 16  9  1  0
 16 15  1  0
 17 18  2  0
 17 22  1  0
 19 20  1  0
 21 20  1  6
 22 21  1  0
 23 21  1  0
 23 24  1  0
 25 23  2  0
M  END
$$$$
