YSS.pdb
     RDKit          3D

 25 25  0  0  1  0  0  0  0  0999 V2000
    6.2887  -10.9748   28.7153 O   0  0  0  0  0  0  0  0  0  0  0  0
    6.6138  -11.8148   27.6702 C   0  0  0  0  0  0  0  0  0  0  0  0
    5.7854  -12.0411   26.5926 C   0  0  0  0  0  0  0  0  0  0  0  0
    6.1319  -12.8841   25.5612 C   0  0  0  0  0  0  0  0  0  0  0  0
    7.3497  -13.5388   25.5844 C   0  0  0  0  0  0  0  0  0  0  0  0
    7.7794  -14.4473   24.5213 C   0  0  0  0  0  0  0  0  0  0  0  0
    6.8865  -15.6218   24.3010 C   0  0  2  0  0  0  0  0  0  0  0  0
    6.8471  -16.4852   25.4620 N   0  0  0  0  0  0  0  0  0  0  0  0
    7.4305  -16.3672   23.1098 C   0  0  0  0  0  0  0  0  0  0  0  0
    7.9518  -17.5025   23.2425 O   0  0  0  0  0  0  0  0  0  0  0  0
    8.2024  -13.3295   26.6560 C   0  0  0  0  0  0  0  0  0  0  0  0
    7.8210  -12.4708   27.6820 C   0  0  0  0  0  0  0  0  0  0  0  0
    8.1477  -14.5741   19.2648 O   0  0  0  0  0  0  0  0  0  0  0  0
    7.3900  -15.7066   19.4092 C   0  0  0  0  0  0  0  0  0  0  0  0
    7.8256  -16.5333   20.6255 C   0  0  2  0  0  0  0  0  0  0  0  0
    7.3789  -15.8252   21.7968 N   0  0  0  0  0  0  0  0  0  0  0  0
    9.2896  -16.7567   20.6160 C   0  0  0  0  0  0  0  0  0  0  0  0
   10.0798  -15.8944   21.0797 O   0  0  0  0  0  0  0  0  0  0  0  0
   11.1621  -20.0939   21.4233 O   0  0  0  0  0  0  0  0  0  0  0  0
   11.7866  -18.8568   21.2769 C   0  0  0  0  0  0  0  0  0  0  0  0
   11.3131  -18.1445   20.0272 C   0  0  2  0  0  0  0  0  0  0  0  0
    9.8876  -17.9423   20.0901 N   0  0  0  0  0  0  0  0  0  0  0  0
   11.7538  -18.8022   18.7982 C   0  0  0  0  0  0  0  0  0  0  0  0
   13.0713  -19.0905   18.5180 O   0  0  0  0  0  0  0  0  0  0  0  0
   10.8995  -19.1434   17.9117 O   0  0  0  0  0  0  0  0  0  0  0  0
  1  2  1  0
  2 12  2  0
  3  4  2  0
  3  2  1  0
  4  5  1  0
  5 11  2  0
  6  5  1  0
  7  8  1  1
  7  9  1  0
  7  6  1  0
  9 10  2  0
 12 11  1  0
 13 14  1  0
 15 14  1  6
 15 17  1  0
 16  9  1  0
 16 15  1  0
 17 18  2  0
 17 22  1  0
 19 20  1  0
 21 20  1  1
 22 21  1  0
 23 21  1  0
 23 24  1  0
 25 23  2  0
M  END
$$$$
