YSS.pdb
     RDKit          3D

 25 25  0  0  1  0  0  0  0  0999 V2000
   10.2721  -14.3272   30.6266 O   0  0  0  0  0  0  0  0  0  0  0  0
    9.9543  -14.6258   29.3177 C   0  0  0  0  0  0  0  0  0  0  0  0
   10.1739  -15.8602   28.7461 C   0  0  0  0  0  0  0  0  0  0  0  0
    9.8482  -16.1344   27.4372 C   0  0  0  0  0  0  0  0  0  0  0  0
    9.2791  -15.1523   26.6473 C   0  0  0  0  0  0  0  0  0  0  0  0
    8.9092  -15.3774   25.2499 C   0  0  0  0  0  0  0  0  0  0  0  0
    7.4460  -15.5351   25.0060 C   0  0  2  0  0  0  0  0  0  0  0  0
    6.8738  -16.5627   25.8495 N   0  0  0  0  0  0  0  0  0  0  0  0
    7.2816  -15.8962   23.5523 C   0  0  0  0  0  0  0  0  0  0  0  0
    7.0842  -17.0864   23.2019 O   0  0  0  0  0  0  0  0  0  0  0  0
    9.0472  -13.9018   27.1965 C   0  0  0  0  0  0  0  0  0  0  0  0
    9.3885  -13.6582   28.5230 C   0  0  0  0  0  0  0  0  0  0  0  0
    8.6295  -13.2421   20.4969 O   0  0  0  0  0  0  0  0  0  0  0  0
    7.4413  -13.9103   20.3577 C   0  0  0  0  0  0  0  0  0  0  0  0
    7.4408  -15.2391   21.1237 C   0  0  2  0  0  0  0  0  0  0  0  0
    7.3417  -14.9173   22.5236 N   0  0  0  0  0  0  0  0  0  0  0  0
    8.6487  -16.0341   20.8039 C   0  0  0  0  0  0  0  0  0  0  0  0
    9.6897  -15.9417   21.5044 O   0  0  0  0  0  0  0  0  0  0  0  0
    8.6010  -18.7197   17.6098 O   0  0  0  0  0  0  0  0  0  0  0  0
    9.4340  -19.0129   18.6877 C   0  0  0  0  0  0  0  0  0  0  0  0
    9.8623  -17.7539   19.4121 C   0  0  2  0  0  0  0  0  0  0  0  0
    8.7089  -16.9396   19.7009 N   0  0  0  0  0  0  0  0  0  0  0  0
   10.9245  -17.0316   18.7142 C   0  0  0  0  0  0  0  0  0  0  0  0
   10.8134  -15.7214   18.3039 O   0  0  0  0  0  0  0  0  0  0  0  0
   12.0312  -17.6140   18.4527 O   0  0  0  0  0  0  0  0  0  0  0  0
  1  2  1  0
  2 12  2  0
  3  4  2  0
  3  2  1  0
  4  5  1  0
  5 11  2  0
  6  5  1  0
  7  8  1  1
  7  9  1  0
  7  6  1  0
  9 10  2  0
 12 11  1  0
 13 14  1  0
 15 14  1  6
 15 17  1  0
 16  9  1  0
 16 15  1  0
 17 18  2  0
 17 22  1  0
 19 20  1  0
 21 20  1  6
 22 21  1  0
 23 21  1  0
 23 24  1  0
 25 23  2  0
M  END
$$$$
