YSS.pdb
     RDKit          3D

 25 25  0  0  1  0  0  0  0  0999 V2000
    7.9610  -18.9245   10.8047 O   0  0  0  0  0  0  0  0  0  0  0  0
    8.2651  -18.3850   12.0375 C   0  0  0  0  0  0  0  0  0  0  0  0
    7.6542  -17.2588   12.5447 C   0  0  0  0  0  0  0  0  0  0  0  0
    7.9747  -16.7390   13.7781 C   0  0  0  0  0  0  0  0  0  0  0  0
    8.9413  -17.3509   14.5550 C   0  0  0  0  0  0  0  0  0  0  0  0
    9.3290  -16.8507   15.8740 C   0  0  0  0  0  0  0  0  0  0  0  0
   10.0307  -15.5343   15.8641 C   0  0  2  0  0  0  0  0  0  0  0  0
   11.3367  -15.6322   15.2479 N   0  0  0  0  0  0  0  0  0  0  0  0
   10.1584  -15.0963   17.3002 C   0  0  0  0  0  0  0  0  0  0  0  0
   11.1936  -15.3546   17.9636 O   0  0  0  0  0  0  0  0  0  0  0  0
    9.5718  -18.4850   14.0696 C   0  0  0  0  0  0  0  0  0  0  0  0
    9.2238  -18.9841   12.8185 C   0  0  0  0  0  0  0  0  0  0  0  0
    6.8582  -13.5103   19.3840 O   0  0  0  0  0  0  0  0  0  0  0  0
    8.0785  -12.9031   19.5243 C   0  0  0  0  0  0  0  0  0  0  0  0
    9.2342  -13.8887   19.3109 C   0  0  2  0  0  0  0  0  0  0  0  0
    9.1247  -14.3791   17.9616 N   0  0  0  0  0  0  0  0  0  0  0  0
    9.1965  -14.9736   20.3183 C   0  0  0  0  0  0  0  0  0  0  0  0
    8.6527  -16.0786   20.0609 O   0  0  0  0  0  0  0  0  0  0  0  0
   11.7649  -16.9497   21.8143 O   0  0  0  0  0  0  0  0  0  0  0  0
   10.3997  -17.1380   22.0205 C   0  0  0  0  0  0  0  0  0  0  0  0
    9.7532  -15.8972   22.5997 C   0  0  2  0  0  0  0  0  0  0  0  0
    9.7639  -14.8384   21.6221 N   0  0  0  0  0  0  0  0  0  0  0  0
   10.3269  -15.5068   23.8864 C   0  0  0  0  0  0  0  0  0  0  0  0
   10.3767  -16.3390   24.9829 O   0  0  0  0  0  0  0  0  0  0  0  0
   10.8188  -14.3379   24.0410 O   0  0  0  0  0  0  0  0  0  0  0  0
  1  2  1  0
  2 12  2  0
  3  4  2  0
  3  2  1  0
  4  5  1  0
  5 11  2  0
  6  5  1  0
  7  8  1  1
  7  9  1  0
  7  6  1  0
  9 10  2  0
 12 11  1  0
 13 14  1  0
 15 14  1  1
 15 17  1  0
 16  9  1  0
 16 15  1  0
 17 18  2  0
 17 22  1  0
 19 20  1  0
 21 20  1  6
 22 21  1  0
 23 21  1  0
 23 24  1  0
 25 23  2  0
M  END
$$$$
