YSS.pdb
     RDKit          3D

 25 25  0  0  1  0  0  0  0  0999 V2000
   -7.5836   -1.5191   33.9842 O   0  0  0  0  0  0  0  0  0  0  0  0
   -6.3016   -1.2475   34.4155 C   0  0  0  0  0  0  0  0  0  0  0  0
   -5.2179   -2.0479   34.1260 C   0  0  0  0  0  0  0  0  0  0  0  0
   -3.9475   -1.7560   34.5678 C   0  0  0  0  0  0  0  0  0  0  0  0
   -3.7251   -0.6245   35.3311 C   0  0  0  0  0  0  0  0  0  0  0  0
   -2.4008   -0.2564   35.8320 C   0  0  0  0  0  0  0  0  0  0  0  0
   -1.8071   -1.2206   36.8030 C   0  0  2  0  0  0  0  0  0  0  0  0
   -2.5775   -1.2857   38.0266 N   0  0  0  0  0  0  0  0  0  0  0  0
   -0.4057   -0.7464   37.0887 C   0  0  0  0  0  0  0  0  0  0  0  0
   -0.1444   -0.0985   38.1329 O   0  0  0  0  0  0  0  0  0  0  0  0
   -4.7968    0.1983   35.6371 C   0  0  0  0  0  0  0  0  0  0  0  0
   -6.0682   -0.1261   35.1745 C   0  0  0  0  0  0  0  0  0  0  0  0
    2.4803   -0.8744   34.1037 O   0  0  0  0  0  0  0  0  0  0  0  0
    2.8983   -1.2330   35.3585 C   0  0  0  0  0  0  0  0  0  0  0  0
    2.0292   -0.5995   36.4520 C   0  0  2  0  0  0  0  0  0  0  0  0
    0.6718   -1.0078   36.1993 N   0  0  0  0  0  0  0  0  0  0  0  0
    2.1899    0.8726   36.4685 C   0  0  0  0  0  0  0  0  0  0  0  0
    1.3628    1.6214   35.8869 O   0  0  0  0  0  0  0  0  0  0  0  0
    1.5860    3.5405   38.4738 O   0  0  0  0  0  0  0  0  0  0  0  0
    2.9772    3.5651   38.3981 C   0  0  0  0  0  0  0  0  0  0  0  0
    3.4699    2.9523   37.1039 C   0  0  2  0  0  0  0  0  0  0  0  0
    3.2730    1.5250   37.1327 N   0  0  0  0  0  0  0  0  0  0  0  0
    4.8397    3.3442   36.7763 C   0  0  0  0  0  0  0  0  0  0  0  0
    5.8776    2.4486   36.6422 O   0  0  0  0  0  0  0  0  0  0  0  0
    5.1288    4.5757   36.5973 O   0  0  0  0  0  0  0  0  0  0  0  0
  1  2  1  0
  2 12  2  0
  3  4  2  0
  3  2  1  0
  4  5  1  0
  5 11  2  0
  6  5  1  0
  7  8  1  1
  7  9  1  0
  7  6  1  0
  9 10  2  0
 12 11  1  0
 13 14  1  0
 15 14  1  6
 15 17  1  0
 16  9  1  0
 16 15  1  0
 17 18  2  0
 17 22  1  0
 19 20  1  0
 21 20  1  1
 22 21  1  0
 23 21  1  0
 23 24  1  0
 25 23  2  0
M  END
$$$$
