YSS.pdb
     RDKit          3D

 25 25  0  0  1  0  0  0  0  0999 V2000
    8.3960  -11.7080   17.1693 O   0  0  0  0  0  0  0  0  0  0  0  0
    8.0779  -12.6172   18.1570 C   0  0  0  0  0  0  0  0  0  0  0  0
    7.9149  -12.2731   19.4813 C   0  0  0  0  0  0  0  0  0  0  0  0
    7.5973  -13.1986   20.4493 C   0  0  0  0  0  0  0  0  0  0  0  0
    7.4306  -14.5276   20.1053 C   0  0  0  0  0  0  0  0  0  0  0  0
    7.0928  -15.5612   21.0840 C   0  0  0  0  0  0  0  0  0  0  0  0
    8.0961  -15.7463   22.1723 C   0  0  2  0  0  0  0  0  0  0  0  0
    8.2730  -14.5349   22.9445 N   0  0  0  0  0  0  0  0  0  0  0  0
    9.3909  -16.1417   21.5106 C   0  0  0  0  0  0  0  0  0  0  0  0
    9.5207  -17.2679   20.9691 O   0  0  0  0  0  0  0  0  0  0  0  0
    7.5886  -14.9016   18.7808 C   0  0  0  0  0  0  0  0  0  0  0  0
    7.9097  -13.9405   17.8275 C   0  0  0  0  0  0  0  0  0  0  0  0
   13.4697  -14.5443   19.5178 O   0  0  0  0  0  0  0  0  0  0  0  0
   12.2641  -14.3391   20.1359 C   0  0  0  0  0  0  0  0  0  0  0  0
   11.7611  -15.6055   20.8401 C   0  0  2  0  0  0  0  0  0  0  0  0
   10.5112  -15.2679   21.4699 N   0  0  0  0  0  0  0  0  0  0  0  0
   12.7678  -16.1110   21.8015 C   0  0  0  0  0  0  0  0  0  0  0  0
   13.9735  -16.2440   21.4676 O   0  0  0  0  0  0  0  0  0  0  0  0
   11.6476  -17.4257   25.6342 O   0  0  0  0  0  0  0  0  0  0  0  0
   12.8672  -16.7637   25.5074 C   0  0  0  0  0  0  0  0  0  0  0  0
   13.4256  -16.9001   24.1063 C   0  0  2  0  0  0  0  0  0  0  0  0
   12.4415  -16.4731   23.1441 N   0  0  0  0  0  0  0  0  0  0  0  0
   13.9625  -18.2330   23.8371 C   0  0  0  0  0  0  0  0  0  0  0  0
   14.9389  -18.8306   24.6031 O   0  0  0  0  0  0  0  0  0  0  0  0
   13.5271  -18.9114   22.8460 O   0  0  0  0  0  0  0  0  0  0  0  0
  1  2  1  0
  2 12  2  0
  3  4  2  0
  3  2  1  0
  4  5  1  0
  5 11  2  0
  6  5  1  0
  7  8  1  6
  7  9  1  0
  7  6  1  0
  9 10  2  0
 12 11  1  0
 13 14  1  0
 15 14  1  1
 15 17  1  0
 16  9  1  0
 16 15  1  0
 17 18  2  0
 17 22  1  0
 19 20  1  0
 21 20  1  1
 22 21  1  0
 23 21  1  0
 23 24  1  0
 25 23  2  0
M  END
$$$$
