YSS.pdb
     RDKit          3D

 25 25  0  0  1  0  0  0  0  0999 V2000
    7.9664  -11.4904   18.5668 O   0  0  0  0  0  0  0  0  0  0  0  0
    8.1292  -12.5391   19.4483 C   0  0  0  0  0  0  0  0  0  0  0  0
    7.1109  -13.0367   20.2322 C   0  0  0  0  0  0  0  0  0  0  0  0
    7.2977  -14.0845   21.1049 C   0  0  0  0  0  0  0  0  0  0  0  0
    8.5428  -14.6757   21.2170 C   0  0  0  0  0  0  0  0  0  0  0  0
    8.8090  -15.7921   22.1242 C   0  0  0  0  0  0  0  0  0  0  0  0
    8.7995  -17.1383   21.4816 C   0  0  2  0  0  0  0  0  0  0  0  0
    7.4644  -17.5260   21.0787 N   0  0  0  0  0  0  0  0  0  0  0  0
    9.3458  -18.1104   22.4953 C   0  0  0  0  0  0  0  0  0  0  0  0
    8.6535  -18.4735   23.4787 O   0  0  0  0  0  0  0  0  0  0  0  0
    9.5848  -14.1954   20.4407 C   0  0  0  0  0  0  0  0  0  0  0  0
    9.3616  -13.1347   19.5686 C   0  0  0  0  0  0  0  0  0  0  0  0
   12.8674  -21.3694   23.2864 O   0  0  0  0  0  0  0  0  0  0  0  0
   12.3366  -20.3449   22.5473 C   0  0  0  0  0  0  0  0  0  0  0  0
   11.1777  -19.6552   23.2780 C   0  0  2  0  0  0  0  0  0  0  0  0
   10.6544  -18.6540   22.3853 N   0  0  0  0  0  0  0  0  0  0  0  0
   11.6293  -19.0895   24.5700 C   0  0  0  0  0  0  0  0  0  0  0  0
   12.1646  -17.9524   24.6280 O   0  0  0  0  0  0  0  0  0  0  0  0
   10.6755  -20.8090   28.3572 O   0  0  0  0  0  0  0  0  0  0  0  0
   10.9551  -19.4602   28.1466 C   0  0  0  0  0  0  0  0  0  0  0  0
   11.9936  -19.2754   27.0600 C   0  0  2  0  0  0  0  0  0  0  0  0
   11.4891  -19.7846   25.8098 N   0  0  0  0  0  0  0  0  0  0  0  0
   13.2999  -19.8204   27.4255 C   0  0  0  0  0  0  0  0  0  0  0  0
   14.0321  -19.3847   28.5079 O   0  0  0  0  0  0  0  0  0  0  0  0
   13.8239  -20.7529   26.7269 O   0  0  0  0  0  0  0  0  0  0  0  0
  1  2  1  0
  2 12  2  0
  3  4  2  0
  3  2  1  0
  4  5  1  0
  5 11  2  0
  6  5  1  0
  7  8  1  1
  7  9  1  0
  7  6  1  0
  9 10  2  0
 12 11  1  0
 13 14  1  0
 15 14  1  6
 15 17  1  0
 16  9  1  0
 16 15  1  0
 17 18  2  0
 17 22  1  0
 19 20  1  0
 21 20  1  1
 22 21  1  0
 23 21  1  0
 23 24  1  0
 25 23  2  0
M  END
$$$$
