NIW.pdb
     RDKit          3D

 31 32  0  0  1  0  0  0  0  0999 V2000
   28.5075  -18.1547  -17.2814 N   0  0  0  0  0  0  0  0  0  0  0  0
   27.1612  -18.3498  -17.6621 C   0  0  0  0  0  0  0  0  0  0  0  0
   26.7240  -17.6556  -18.6312 O   0  0  0  0  0  0  0  0  0  0  0  0
   26.3068  -19.3145  -16.9652 C   0  0  0  0  0  0  0  0  0  0  0  0
   27.1287  -20.0828  -15.9479 C   0  0  2  0  0  0  0  0  0  0  0  0
   27.9917  -21.0344  -16.5730 N   0  0  0  0  0  0  0  0  0  0  0  0
   26.2497  -20.7078  -14.9128 C   0  0  0  0  0  0  0  0  0  0  0  0
   25.6495  -21.7946  -15.1461 O   0  0  0  0  0  0  0  0  0  0  0  0
   27.3120  -22.0181  -10.9003 C   0  0  0  0  0  0  0  0  0  0  0  0
   26.9544  -20.5499  -11.0958 C   0  0  0  0  0  0  0  0  0  0  0  0
   25.4906  -20.3628  -11.2930 C   0  0  2  0  0  0  0  0  0  0  0  0
   24.6644  -20.9790  -10.1964 C   0  0  0  0  0  0  0  0  0  0  0  0
   25.0763  -20.7173  -12.6752 C   0  0  2  0  0  0  0  0  0  0  0  0
   26.0370  -20.1341  -13.6301 N   0  0  0  0  0  0  0  0  0  0  0  0
   23.6927  -20.3424  -13.0414 C   0  0  0  0  0  0  0  0  0  0  0  0
   23.2267  -19.2371  -12.6660 O   0  0  0  0  0  0  0  0  0  0  0  0
   22.8579  -21.1778  -13.8030 N   0  0  0  0  0  0  0  0  0  0  0  0
   21.4815  -20.7879  -14.1567 C   0  0  1  0  0  0  0  0  0  0  0  0
   21.4459  -20.2191  -15.5220 C   0  0  0  0  0  0  0  0  0  0  0  0
   20.1706  -19.8229  -16.0900 C   0  0  0  0  0  0  0  0  0  0  0  0
   19.3920  -18.7307  -15.7162 C   0  0  0  0  0  0  0  0  0  0  0  0
   18.2955  -18.7632  -16.4762 N   0  0  0  0  0  0  0  0  0  0  0  0
   18.3328  -19.8187  -17.3167 C   0  0  0  0  0  0  0  0  0  0  0  0
   17.4282  -20.2372  -18.2837 C   0  0  0  0  0  0  0  0  0  0  0  0
   17.7531  -21.3608  -19.0080 C   0  0  0  0  0  0  0  0  0  0  0  0
   18.9144  -22.0581  -18.8051 C   0  0  0  0  0  0  0  0  0  0  0  0
   19.8023  -21.6387  -17.8477 C   0  0  0  0  0  0  0  0  0  0  0  0
   19.5022  -20.5062  -17.0982 C   0  0  0  0  0  0  0  0  0  0  0  0
   20.5426  -21.8400  -13.8154 C   0  0  0  0  0  0  0  0  0  0  0  0
   19.2017  -21.6405  -13.5220 O   0  0  0  0  0  0  0  0  0  0  0  0
   20.9044  -23.0698  -13.7556 O   0  0  0  0  0  0  0  0  0  0  0  0
  2  3  2  0
  2  1  1  0
  4  2  1  0
  5  6  1  6
  5  4  1  0
  7  8  2  0
  7  5  1  0
  9 10  1  0
 10 11  1  0
 11 12  1  1
 13 11  1  0
 13 14  1  6
 14  7  1  0
 15 13  1  0
 16 15  2  0
 17 15  1  0
 18 29  1  0
 18 17  1  0
 18 19  1  6
 20 19  1  0
 21 20  2  0
 22 21  1  0
 23 22  1  0
 23 28  2  0
 24 23  1  0
 25 24  2  0
 25 26  1  0
 26 27  2  0
 27 28  1  0
 28 20  1  0
 29 30  1  0
 31 29  2  0
M  END
$$$$
