NIW.pdb
     RDKit          3D

 31 32  0  0  1  0  0  0  0  0999 V2000
   19.4171  -12.9828  -21.2392 N   0  0  0  0  0  0  0  0  0  0  0  0
   18.2459  -12.4892  -20.6226 C   0  0  0  0  0  0  0  0  0  0  0  0
   17.2821  -12.1621  -21.3818 O   0  0  0  0  0  0  0  0  0  0  0  0
   18.1502  -12.3612  -19.1663 C   0  0  0  0  0  0  0  0  0  0  0  0
   19.4060  -12.9160  -18.5214 C   0  0  2  0  0  0  0  0  0  0  0  0
   19.2599  -14.2945  -18.1755 N   0  0  0  0  0  0  0  0  0  0  0  0
   19.8223  -12.0790  -17.3548 C   0  0  0  0  0  0  0  0  0  0  0  0
   19.1961  -12.1410  -16.2595 O   0  0  0  0  0  0  0  0  0  0  0  0
   23.2677  -10.9646  -13.4232 C   0  0  0  0  0  0  0  0  0  0  0  0
   23.1743  -10.0407  -14.6313 C   0  0  0  0  0  0  0  0  0  0  0  0
   22.7197  -10.7704  -15.8467 C   0  0  2  0  0  0  0  0  0  0  0  0
   23.7190  -10.7235  -16.9709 C   0  0  0  0  0  0  0  0  0  0  0  0
   21.3294  -10.3999  -16.2178 C   0  0  2  0  0  0  0  0  0  0  0  0
   20.9227  -11.1809  -17.4008 N   0  0  0  0  0  0  0  0  0  0  0  0
   21.0939   -8.9572  -16.4460 C   0  0  0  0  0  0  0  0  0  0  0  0
   21.5643   -8.4039  -17.4719 O   0  0  0  0  0  0  0  0  0  0  0  0
   20.3559   -8.1599  -15.5547 N   0  0  0  0  0  0  0  0  0  0  0  0
   20.0938   -6.7344  -15.8210 C   0  0  1  0  0  0  0  0  0  0  0  0
   18.8871   -6.5850  -16.6637 C   0  0  0  0  0  0  0  0  0  0  0  0
   18.3725   -5.2549  -16.9325 C   0  0  0  0  0  0  0  0  0  0  0  0
   19.1050   -4.1396  -17.3301 C   0  0  0  0  0  0  0  0  0  0  0  0
   18.2396   -3.1289  -17.4329 N   0  0  0  0  0  0  0  0  0  0  0  0
   16.9920   -3.5401  -17.1224 C   0  0  0  0  0  0  0  0  0  0  0  0
   15.7893   -2.8462  -17.1043 C   0  0  0  0  0  0  0  0  0  0  0  0
   14.6595   -3.5498  -16.7563 C   0  0  0  0  0  0  0  0  0  0  0  0
   14.6901   -4.8812  -16.4360 C   0  0  0  0  0  0  0  0  0  0  0  0
   15.8820   -5.5593  -16.4556 C   0  0  0  0  0  0  0  0  0  0  0  0
   17.0423   -4.8755  -16.8029 C   0  0  0  0  0  0  0  0  0  0  0  0
   20.1934   -5.9542  -14.6019 C   0  0  0  0  0  0  0  0  0  0  0  0
   20.0200   -6.4594  -13.3218 O   0  0  0  0  0  0  0  0  0  0  0  0
   20.4538   -4.6979  -14.6277 O   0  0  0  0  0  0  0  0  0  0  0  0
  2  3  2  0
  2  1  1  0
  4  2  1  0
  5  6  1  1
  5  4  1  0
  7  8  2  0
  7  5  1  0
  9 10  1  0
 10 11  1  0
 11 12  1  6
 13 11  1  0
 13 14  1  6
 14  7  1  0
 15 13  1  0
 16 15  2  0
 17 15  1  0
 18 29  1  0
 18 17  1  0
 18 19  1  1
 20 19  1  0
 21 20  2  0
 22 21  1  0
 23 22  1  0
 23 28  2  0
 24 23  1  0
 25 24  2  0
 25 26  1  0
 26 27  2  0
 27 28  1  0
 28 20  1  0
 29 30  1  0
 31 29  2  0
M  END
$$$$
