NIW.pdb
     RDKit          3D

 31 32  0  0  1  0  0  0  0  0999 V2000
   28.3948  -19.1905  -18.2407 N   0  0  0  0  0  0  0  0  0  0  0  0
   28.0469  -18.9185  -16.8988 C   0  0  0  0  0  0  0  0  0  0  0  0
   28.6448  -17.9556  -16.3264 O   0  0  0  0  0  0  0  0  0  0  0  0
   27.0371  -19.7165  -16.1991 C   0  0  0  0  0  0  0  0  0  0  0  0
   27.7140  -20.6299  -15.1950 C   0  0  2  0  0  0  0  0  0  0  0  0
   28.5269  -21.6139  -15.8370 N   0  0  0  0  0  0  0  0  0  0  0  0
   26.7130  -21.2385  -14.2664 C   0  0  0  0  0  0  0  0  0  0  0  0
   26.0556  -22.2622  -14.6065 O   0  0  0  0  0  0  0  0  0  0  0  0
   26.8928  -20.8374   -8.8187 C   0  0  0  0  0  0  0  0  0  0  0  0
   26.6649  -21.2745  -10.2605 C   0  0  0  0  0  0  0  0  0  0  0  0
   25.3889  -20.7327  -10.8034 C   0  0  2  0  0  0  0  0  0  0  0  0
   24.2030  -21.0238   -9.9238 C   0  0  0  0  0  0  0  0  0  0  0  0
   25.2153  -21.0790  -12.2379 C   0  0  2  0  0  0  0  0  0  0  0  0
   26.4422  -20.7179  -12.9721 N   0  0  0  0  0  0  0  0  0  0  0  0
   24.0280  -20.4906  -12.8960 C   0  0  0  0  0  0  0  0  0  0  0  0
   23.9369  -19.2428  -13.0165 O   0  0  0  0  0  0  0  0  0  0  0  0
   22.9769  -21.2737  -13.4027 N   0  0  0  0  0  0  0  0  0  0  0  0
   21.7986  -20.6691  -14.0492 C   0  0  1  0  0  0  0  0  0  0  0  0
   22.0417  -20.4984  -15.4984 C   0  0  0  0  0  0  0  0  0  0  0  0
   20.9827  -19.9649  -16.3351 C   0  0  0  0  0  0  0  0  0  0  0  0
   20.6462  -18.6244  -16.5047 C   0  0  0  0  0  0  0  0  0  0  0  0
   19.6002  -18.5933  -17.3329 N   0  0  0  0  0  0  0  0  0  0  0  0
   19.2509  -19.8437  -17.7021 C   0  0  0  0  0  0  0  0  0  0  0  0
   18.2450  -20.2886  -18.5499 C   0  0  0  0  0  0  0  0  0  0  0  0
   18.1418  -21.6459  -18.7493 C   0  0  0  0  0  0  0  0  0  0  0  0
   18.9831  -22.5450  -18.1493 C   0  0  0  0  0  0  0  0  0  0  0  0
   19.9735  -22.0976  -17.3127 C   0  0  0  0  0  0  0  0  0  0  0  0
   20.1033  -20.7308  -17.0903 C   0  0  0  0  0  0  0  0  0  0  0  0
   20.5791  -21.3274  -13.6198 C   0  0  0  0  0  0  0  0  0  0  0  0
   19.3126  -20.7649  -13.6780 O   0  0  0  0  0  0  0  0  0  0  0  0
   20.5919  -22.5158  -13.1357 O   0  0  0  0  0  0  0  0  0  0  0  0
  2  3  2  0
  2  1  1  0
  4  2  1  0
  5  6  1  6
  5  4  1  0
  7  8  2  0
  7  5  1  0
  9 10  1  0
 10 11  1  0
 11 12  1  1
 13 11  1  0
 13 14  1  6
 14  7  1  0
 15 13  1  0
 16 15  2  0
 17 15  1  0
 18 29  1  0
 18 17  1  0
 18 19  1  6
 20 19  1  0
 21 20  2  0
 22 21  1  0
 23 22  1  0
 23 28  2  0
 24 23  1  0
 25 24  2  0
 25 26  1  0
 26 27  2  0
 27 28  1  0
 28 20  1  0
 29 30  1  0
 31 29  2  0
M  END
$$$$
