NIW.pdb
     RDKit          3D

 31 32  0  0  1  0  0  0  0  0999 V2000
   27.9796  -18.9451  -17.6653 N   0  0  0  0  0  0  0  0  0  0  0  0
   28.8163  -19.9954  -17.2270 C   0  0  0  0  0  0  0  0  0  0  0  0
   29.9020  -20.1773  -17.8598 O   0  0  0  0  0  0  0  0  0  0  0  0
   28.4439  -20.8386  -16.0883 C   0  0  0  0  0  0  0  0  0  0  0  0
   27.1059  -20.3872  -15.5348 C   0  0  2  0  0  0  0  0  0  0  0  0
   27.1486  -19.0324  -15.0833 N   0  0  0  0  0  0  0  0  0  0  0  0
   26.6225  -21.3238  -14.4747 C   0  0  0  0  0  0  0  0  0  0  0  0
   26.4214  -22.5438  -14.7337 O   0  0  0  0  0  0  0  0  0  0  0  0
   25.6660  -19.9706   -8.8521 C   0  0  0  0  0  0  0  0  0  0  0  0
   25.3910  -20.1457  -10.3406 C   0  0  0  0  0  0  0  0  0  0  0  0
   25.8859  -21.4581  -10.8396 C   0  0  2  0  0  0  0  0  0  0  0  0
   27.3420  -21.6918  -10.5401 C   0  0  0  0  0  0  0  0  0  0  0  0
   25.4825  -21.6929  -12.2504 C   0  0  2  0  0  0  0  0  0  0  0  0
   26.3639  -20.9130  -13.1391 N   0  0  0  0  0  0  0  0  0  0  0  0
   24.0624  -21.4178  -12.5610 C   0  0  0  0  0  0  0  0  0  0  0  0
   23.1617  -21.8651  -11.8070 O   0  0  0  0  0  0  0  0  0  0  0  0
   23.6636  -20.6663  -13.6796 N   0  0  0  0  0  0  0  0  0  0  0  0
   22.2427  -20.4365  -13.9953 C   0  0  1  0  0  0  0  0  0  0  0  0
   22.0946  -19.2285  -14.8365 C   0  0  0  0  0  0  0  0  0  0  0  0
   20.7897  -18.9015  -15.3809 C   0  0  0  0  0  0  0  0  0  0  0  0
   19.8116  -18.1074  -14.7880 C   0  0  0  0  0  0  0  0  0  0  0  0
   18.7677  -18.0998  -15.6194 N   0  0  0  0  0  0  0  0  0  0  0  0
   19.0277  -18.8470  -16.7130 C   0  0  0  0  0  0  0  0  0  0  0  0
   18.2504  -19.1123  -17.8328 C   0  0  0  0  0  0  0  0  0  0  0  0
   18.8011  -19.9098  -18.8092 C   0  0  0  0  0  0  0  0  0  0  0  0
   20.0622  -20.4344  -18.7076 C   0  0  0  0  0  0  0  0  0  0  0  0
   20.8233  -20.1684  -17.5982 C   0  0  0  0  0  0  0  0  0  0  0  0
   20.2944  -19.3656  -16.5931 C   0  0  0  0  0  0  0  0  0  0  0  0
   21.6030  -21.6664  -14.4232 C   0  0  0  0  0  0  0  0  0  0  0  0
   20.2735  -21.9888  -14.1949 O   0  0  0  0  0  0  0  0  0  0  0  0
   22.2495  -22.5731  -15.0610 O   0  0  0  0  0  0  0  0  0  0  0  0
  2  3  2  0
  2  1  1  0
  4  2  1  0
  5  6  1  1
  5  4  1  0
  7  8  2  0
  7  5  1  0
  9 10  1  0
 10 11  1  0
 11 12  1  6
 13 11  1  0
 13 14  1  6
 14  7  1  0
 15 13  1  0
 16 15  2  0
 17 15  1  0
 18 29  1  0
 18 17  1  0
 18 19  1  6
 20 19  1  0
 21 20  2  0
 22 21  1  0
 23 22  1  0
 23 28  2  0
 24 23  1  0
 25 24  2  0
 25 26  1  0
 26 27  2  0
 27 28  1  0
 28 20  1  0
 29 30  1  0
 31 29  2  0
M  END
$$$$
