NIW.pdb
     RDKit          3D

 31 32  0  0  1  0  0  0  0  0999 V2000
   29.4950  -18.7667  -18.0646 N   0  0  0  0  0  0  0  0  0  0  0  0
   28.1399  -19.1231  -18.2435 C   0  0  0  0  0  0  0  0  0  0  0  0
   27.5031  -18.5408  -19.1750 O   0  0  0  0  0  0  0  0  0  0  0  0
   27.4983  -20.1241  -17.3875 C   0  0  0  0  0  0  0  0  0  0  0  0
   28.5143  -20.6899  -16.4137 C   0  0  2  0  0  0  0  0  0  0  0  0
   29.3913  -21.6242  -17.0455 N   0  0  0  0  0  0  0  0  0  0  0  0
   27.8386  -21.2685  -15.2124 C   0  0  0  0  0  0  0  0  0  0  0  0
   27.2143  -22.3641  -15.2877 O   0  0  0  0  0  0  0  0  0  0  0  0
   30.0412  -21.1833  -10.4238 C   0  0  0  0  0  0  0  0  0  0  0  0
   29.2128  -21.5057  -11.6614 C   0  0  0  0  0  0  0  0  0  0  0  0
   27.8283  -20.9699  -11.5502 C   0  0  2  0  0  0  0  0  0  0  0  0
   27.1239  -21.4118  -10.2958 C   0  0  0  0  0  0  0  0  0  0  0  0
   27.0643  -21.1659  -12.8095 C   0  0  2  0  0  0  0  0  0  0  0  0
   27.8540  -20.6392  -13.9383 N   0  0  0  0  0  0  0  0  0  0  0  0
   25.7001  -20.5934  -12.8226 C   0  0  0  0  0  0  0  0  0  0  0  0
   25.5402  -19.3601  -12.6405 O   0  0  0  0  0  0  0  0  0  0  0  0
   24.5522  -21.3764  -13.0326 N   0  0  0  0  0  0  0  0  0  0  0  0
   23.1986  -20.7943  -13.0064 C   0  0  1  0  0  0  0  0  0  0  0  0
   22.5445  -20.9611  -14.3228 C   0  0  0  0  0  0  0  0  0  0  0  0
   21.1633  -20.5457  -14.4839 C   0  0  0  0  0  0  0  0  0  0  0  0
   20.6932  -19.2428  -14.6258 C   0  0  0  0  0  0  0  0  0  0  0  0
   19.3641  -19.3221  -14.7148 N   0  0  0  0  0  0  0  0  0  0  0  0
   18.9600  -20.6077  -14.6379 C   0  0  0  0  0  0  0  0  0  0  0  0
   17.6876  -21.1608  -14.6968 C   0  0  0  0  0  0  0  0  0  0  0  0
   17.5894  -22.5300  -14.6051 C   0  0  0  0  0  0  0  0  0  0  0  0
   18.6850  -23.3393  -14.4611 C   0  0  0  0  0  0  0  0  0  0  0  0
   19.9383  -22.7852  -14.4030 C   0  0  0  0  0  0  0  0  0  0  0  0
   20.0705  -21.4035  -14.4924 C   0  0  0  0  0  0  0  0  0  0  0  0
   22.4817  -21.2074  -11.8146 C   0  0  0  0  0  0  0  0  0  0  0  0
   21.3482  -20.5828  -11.3156 O   0  0  0  0  0  0  0  0  0  0  0  0
   22.8650  -22.2123  -11.1145 O   0  0  0  0  0  0  0  0  0  0  0  0
  2  3  2  0
  2  1  1  0
  4  2  1  0
  5  6  1  6
  5  4  1  0
  7  8  2  0
  7  5  1  0
  9 10  1  0
 10 11  1  0
 11 12  1  1
 13 11  1  0
 13 14  1  6
 14  7  1  0
 15 13  1  0
 16 15  2  0
 17 15  1  0
 18 29  1  0
 18 17  1  0
 18 19  1  6
 20 19  1  0
 21 20  2  0
 22 21  1  0
 23 22  1  0
 23 28  2  0
 24 23  1  0
 25 24  2  0
 25 26  1  0
 26 27  2  0
 27 28  1  0
 28 20  1  0
 29 30  1  0
 31 29  2  0
M  END
$$$$
