NIW.pdb
     RDKit          3D

 31 32  0  0  1  0  0  0  0  0999 V2000
   29.0337  -18.7452  -16.5882 N   0  0  0  0  0  0  0  0  0  0  0  0
   27.6856  -18.3322  -16.6749 C   0  0  0  0  0  0  0  0  0  0  0  0
   27.4405  -17.2827  -17.3463 O   0  0  0  0  0  0  0  0  0  0  0  0
   26.6162  -19.0863  -16.0161 C   0  0  0  0  0  0  0  0  0  0  0  0
   27.1963  -20.3199  -15.3512 C   0  0  2  0  0  0  0  0  0  0  0  0
   27.7566  -21.2232  -16.3059 N   0  0  0  0  0  0  0  0  0  0  0  0
   26.1832  -20.9797  -14.4721 C   0  0  0  0  0  0  0  0  0  0  0  0
   25.4026  -21.8591  -14.9337 O   0  0  0  0  0  0  0  0  0  0  0  0
   25.6599  -20.0158   -8.7430 C   0  0  0  0  0  0  0  0  0  0  0  0
   25.2971  -19.9584  -10.2219 C   0  0  0  0  0  0  0  0  0  0  0  0
   25.3817  -21.3005  -10.8604 C   0  0  2  0  0  0  0  0  0  0  0  0
   26.6932  -21.9932  -10.6057 C   0  0  0  0  0  0  0  0  0  0  0  0
   24.9531  -21.2564  -12.2825 C   0  0  2  0  0  0  0  0  0  0  0  0
   26.0355  -20.6683  -13.0933 N   0  0  0  0  0  0  0  0  0  0  0  0
   23.6758  -20.5562  -12.5414 C   0  0  0  0  0  0  0  0  0  0  0  0
   23.6482  -19.2999  -12.5678 O   0  0  0  0  0  0  0  0  0  0  0  0
   22.4684  -21.2403  -12.7634 N   0  0  0  0  0  0  0  0  0  0  0  0
   21.3110  -20.5879  -13.4008 C   0  0  1  0  0  0  0  0  0  0  0  0
   21.7062  -20.0011  -14.7001 C   0  0  0  0  0  0  0  0  0  0  0  0
   20.7016  -19.3396  -15.5121 C   0  0  0  0  0  0  0  0  0  0  0  0
   20.1120  -18.1019  -15.2687 C   0  0  0  0  0  0  0  0  0  0  0  0
   19.2282  -17.8988  -16.2477 N   0  0  0  0  0  0  0  0  0  0  0  0
   19.2225  -18.9417  -17.1046 C   0  0  0  0  0  0  0  0  0  0  0  0
   18.4842  -19.1583  -18.2607 C   0  0  0  0  0  0  0  0  0  0  0  0
   18.7121  -20.3296  -18.9453 C   0  0  0  0  0  0  0  0  0  0  0  0
   19.6239  -21.2621  -18.5269 C   0  0  0  0  0  0  0  0  0  0  0  0
   20.3486  -21.0411  -17.3837 C   0  0  0  0  0  0  0  0  0  0  0  0
   20.1406  -19.8663  -16.6688 C   0  0  0  0  0  0  0  0  0  0  0  0
   20.1419  -21.4456  -13.3502 C   0  0  0  0  0  0  0  0  0  0  0  0
   20.1732  -22.8312  -13.4026 O   0  0  0  0  0  0  0  0  0  0  0  0
   18.9573  -20.9615  -13.2545 O   0  0  0  0  0  0  0  0  0  0  0  0
  2  3  2  0
  2  1  1  0
  4  2  1  0
  5  6  1  6
  5  4  1  0
  7  8  2  0
  7  5  1  0
  9 10  1  0
 10 11  1  0
 11 12  1  6
 13 11  1  0
 13 14  1  6
 14  7  1  0
 15 13  1  0
 16 15  2  0
 17 15  1  0
 18 29  1  0
 18 17  1  0
 18 19  1  6
 20 19  1  0
 21 20  2  0
 22 21  1  0
 23 22  1  0
 23 28  2  0
 24 23  1  0
 25 24  2  0
 25 26  1  0
 26 27  2  0
 27 28  1  0
 28 20  1  0
 29 30  1  0
 31 29  2  0
M  END
$$$$
