NIW.pdb
     RDKit          3D

 31 32  0  0  1  0  0  0  0  0999 V2000
   20.8792  -18.4330  -16.2350 N   0  0  0  0  0  0  0  0  0  0  0  0
   21.4752  -19.5121  -16.9249 C   0  0  0  0  0  0  0  0  0  0  0  0
   20.9105  -19.9029  -17.9929 O   0  0  0  0  0  0  0  0  0  0  0  0
   22.6951  -20.1519  -16.4260 C   0  0  0  0  0  0  0  0  0  0  0  0
   23.1253  -19.4905  -15.1306 C   0  0  2  0  0  0  0  0  0  0  0  0
   23.4304  -18.1072  -15.3172 N   0  0  0  0  0  0  0  0  0  0  0  0
   24.2528  -20.2399  -14.4966 C   0  0  0  0  0  0  0  0  0  0  0  0
   24.1947  -21.4935  -14.3527 O   0  0  0  0  0  0  0  0  0  0  0  0
   28.5947  -18.5976  -15.7564 C   0  0  0  0  0  0  0  0  0  0  0  0
   27.9294  -19.8705  -15.2476 C   0  0  0  0  0  0  0  0  0  0  0  0
   27.8161  -19.8751  -13.7632 C   0  0  2  0  0  0  0  0  0  0  0  0
   28.9953  -20.5174  -13.0837 C   0  0  0  0  0  0  0  0  0  0  0  0
   26.4847  -20.3628  -13.3189 C   0  0  2  0  0  0  0  0  0  0  0  0
   25.4346  -19.6063  -14.0258 N   0  0  0  0  0  0  0  0  0  0  0  0
   26.2493  -20.3307  -11.8585 C   0  0  0  0  0  0  0  0  0  0  0  0
   26.1483  -19.2258  -11.2680 O   0  0  0  0  0  0  0  0  0  0  0  0
   26.1311  -21.4976  -11.0845 N   0  0  0  0  0  0  0  0  0  0  0  0
   25.8178  -21.4476   -9.6454 C   0  0  1  0  0  0  0  0  0  0  0  0
   26.9227  -20.8014   -8.9036 C   0  0  0  0  0  0  0  0  0  0  0  0
   26.8379  -20.6961   -7.4587 C   0  0  0  0  0  0  0  0  0  0  0  0
   25.8450  -21.2256   -6.6386 C   0  0  0  0  0  0  0  0  0  0  0  0
   26.1466  -20.8653   -5.3895 N   0  0  0  0  0  0  0  0  0  0  0  0
   27.2807  -20.1338   -5.3682 C   0  0  0  0  0  0  0  0  0  0  0  0
   27.9701  -19.5648   -4.3054 C   0  0  0  0  0  0  0  0  0  0  0  0
   29.1257  -18.8780   -4.5978 C   0  0  0  0  0  0  0  0  0  0  0  0
   29.6006  -18.7448   -5.8755 C   0  0  0  0  0  0  0  0  0  0  0  0
   28.9136  -19.3092   -6.9198 C   0  0  0  0  0  0  0  0  0  0  0  0
   27.7412  -20.0096   -6.6568 C   0  0  0  0  0  0  0  0  0  0  0  0
   24.4629  -20.9766   -9.4277 C   0  0  0  0  0  0  0  0  0  0  0  0
   23.6591  -21.3431   -8.3585 O   0  0  0  0  0  0  0  0  0  0  0  0
   23.8956  -20.1630  -10.2421 O   0  0  0  0  0  0  0  0  0  0  0  0
  2  3  2  0
  2  1  1  0
  4  2  1  0
  5  6  1  6
  5  4  1  0
  7  8  2  0
  7  5  1  0
  9 10  1  0
 10 11  1  0
 11 12  1  1
 13 11  1  0
 13 14  1  6
 14  7  1  0
 15 13  1  0
 16 15  2  0
 17 15  1  0
 18 29  1  0
 18 17  1  0
 18 19  1  1
 20 19  1  0
 21 20  2  0
 22 21  1  0
 23 22  1  0
 23 28  2  0
 24 23  1  0
 25 24  2  0
 25 26  1  0
 26 27  2  0
 27 28  1  0
 28 20  1  0
 29 30  1  0
 31 29  2  0
M  END
$$$$
