NIW.pdb
     RDKit          3D

 31 32  0  0  1  0  0  0  0  0999 V2000
   20.0617  -23.5464   -8.0653 N   0  0  0  0  0  0  0  0  0  0  0  0
   19.9576  -22.8672   -9.2995 C   0  0  0  0  0  0  0  0  0  0  0  0
   18.8113  -22.8219   -9.8439 O   0  0  0  0  0  0  0  0  0  0  0  0
   21.1262  -22.2416   -9.9234 C   0  0  0  0  0  0  0  0  0  0  0  0
   21.7093  -21.2010   -8.9865 C   0  0  2  0  0  0  0  0  0  0  0  0
   20.7903  -20.1354   -8.7394 N   0  0  0  0  0  0  0  0  0  0  0  0
   23.0280  -20.7082   -9.4893 C   0  0  0  0  0  0  0  0  0  0  0  0
   23.0895  -19.9162  -10.4714 O   0  0  0  0  0  0  0  0  0  0  0  0
   27.3043  -20.0089   -6.1330 C   0  0  0  0  0  0  0  0  0  0  0  0
   26.2821  -19.8471   -7.2514 C   0  0  0  0  0  0  0  0  0  0  0  0
   26.5990  -20.7196   -8.4153 C   0  0  2  0  0  0  0  0  0  0  0  0
   28.0146  -20.5635   -8.9013 C   0  0  0  0  0  0  0  0  0  0  0  0
   25.5532  -20.6279   -9.4669 C   0  0  2  0  0  0  0  0  0  0  0  0
   24.2682  -21.0892   -8.9093 N   0  0  0  0  0  0  0  0  0  0  0  0
   25.8540  -21.3406  -10.7281 C   0  0  0  0  0  0  0  0  0  0  0  0
   25.7419  -22.5914  -10.7789 O   0  0  0  0  0  0  0  0  0  0  0  0
   26.2669  -20.6744  -11.8946 N   0  0  0  0  0  0  0  0  0  0  0  0
   26.5294  -21.3978  -13.1514 C   0  0  1  0  0  0  0  0  0  0  0  0
   25.2548  -21.7912  -13.7909 C   0  0  0  0  0  0  0  0  0  0  0  0
   24.4084  -20.7651  -14.3712 C   0  0  0  0  0  0  0  0  0  0  0  0
   24.8120  -19.5236  -14.8555 C   0  0  0  0  0  0  0  0  0  0  0  0
   23.7090  -18.8952  -15.2671 N   0  0  0  0  0  0  0  0  0  0  0  0
   22.6215  -19.6705  -15.0720 C   0  0  0  0  0  0  0  0  0  0  0  0
   21.2823  -19.4384  -15.3572 C   0  0  0  0  0  0  0  0  0  0  0  0
   20.3894  -20.4403  -15.0548 C   0  0  0  0  0  0  0  0  0  0  0  0
   20.7772  -21.6286  -14.4948 C   0  0  0  0  0  0  0  0  0  0  0  0
   22.1016  -21.8499  -14.2154 C   0  0  0  0  0  0  0  0  0  0  0  0
   23.0289  -20.8558  -14.5091 C   0  0  0  0  0  0  0  0  0  0  0  0
   27.5241  -20.7046  -13.9483 C   0  0  0  0  0  0  0  0  0  0  0  0
   28.1998  -21.2561  -15.0268 O   0  0  0  0  0  0  0  0  0  0  0  0
   27.8606  -19.4920  -13.6966 O   0  0  0  0  0  0  0  0  0  0  0  0
  2  3  2  0
  2  1  1  0
  4  2  1  0
  5  6  1  6
  5  4  1  0
  7  8  2  0
  7  5  1  0
  9 10  1  0
 10 11  1  0
 11 12  1  6
 13 11  1  0
 13 14  1  1
 14  7  1  0
 15 13  1  0
 16 15  2  0
 17 15  1  0
 18 29  1  0
 18 17  1  0
 18 19  1  6
 20 19  1  0
 21 20  2  0
 22 21  1  0
 23 22  1  0
 23 28  2  0
 24 23  1  0
 25 24  2  0
 25 26  1  0
 26 27  2  0
 27 28  1  0
 28 20  1  0
 29 30  1  0
 31 29  2  0
M  END
$$$$
