NIW.pdb
     RDKit          3D

 31 32  0  0  1  0  0  0  0  0999 V2000
   23.6978  -15.8579  -19.6651 N   0  0  0  0  0  0  0  0  0  0  0  0
   22.6552  -14.9126  -19.5432 C   0  0  0  0  0  0  0  0  0  0  0  0
   21.6924  -14.9987  -20.3666 O   0  0  0  0  0  0  0  0  0  0  0  0
   22.6863  -13.8765  -18.5080 C   0  0  0  0  0  0  0  0  0  0  0  0
   23.9851  -13.9706  -17.7304 C   0  0  2  0  0  0  0  0  0  0  0  0
   24.0503  -15.1652  -16.9493 N   0  0  0  0  0  0  0  0  0  0  0  0
   24.2060  -12.7420  -16.9079 C   0  0  0  0  0  0  0  0  0  0  0  0
   23.6721  -12.6226  -15.7693 O   0  0  0  0  0  0  0  0  0  0  0  0
   28.8912   -9.6804  -17.2464 C   0  0  0  0  0  0  0  0  0  0  0  0
   27.4097   -9.9288  -17.5023 C   0  0  0  0  0  0  0  0  0  0  0  0
   26.6941  -10.3138  -16.2549 C   0  0  2  0  0  0  0  0  0  0  0  0
   27.3550  -11.4504  -15.5227 C   0  0  0  0  0  0  0  0  0  0  0  0
   25.2354  -10.4729  -16.4894 C   0  0  2  0  0  0  0  0  0  0  0  0
   25.0112  -11.6547  -17.3426 N   0  0  0  0  0  0  0  0  0  0  0  0
   24.5485   -9.2907  -17.0546 C   0  0  0  0  0  0  0  0  0  0  0  0
   24.6503   -9.0384  -18.2817 O   0  0  0  0  0  0  0  0  0  0  0  0
   23.7727   -8.4191  -16.2713 N   0  0  0  0  0  0  0  0  0  0  0  0
   23.0260   -7.2962  -16.8654 C   0  0  1  0  0  0  0  0  0  0  0  0
   22.1749   -7.7782  -17.9753 C   0  0  0  0  0  0  0  0  0  0  0  0
   20.7379   -7.5907  -17.8975 C   0  0  0  0  0  0  0  0  0  0  0  0
   20.0331   -6.9397  -16.8884 C   0  0  0  0  0  0  0  0  0  0  0  0
   18.7398   -7.0282  -17.2053 N   0  0  0  0  0  0  0  0  0  0  0  0
   18.5811   -7.7011  -18.3645 C   0  0  0  0  0  0  0  0  0  0  0  0
   17.4314   -8.0187  -19.0759 C   0  0  0  0  0  0  0  0  0  0  0  0
   17.5890   -8.7108  -20.2543 C   0  0  0  0  0  0  0  0  0  0  0  0
   18.8176   -9.0845  -20.7308 C   0  0  0  0  0  0  0  0  0  0  0  0
   19.9482   -8.7677  -20.0220 C   0  0  0  0  0  0  0  0  0  0  0  0
   19.8219   -8.0688  -18.8262 C   0  0  0  0  0  0  0  0  0  0  0  0
   22.4251   -6.4719  -15.8337 C   0  0  0  0  0  0  0  0  0  0  0  0
   22.0454   -5.1481  -15.9985 O   0  0  0  0  0  0  0  0  0  0  0  0
   22.2005   -6.9281  -14.6554 O   0  0  0  0  0  0  0  0  0  0  0  0
  2  3  2  0
  2  1  1  0
  4  2  1  0
  5  6  1  1
  5  4  1  0
  7  8  2  0
  7  5  1  0
  9 10  1  0
 10 11  1  0
 11 12  1  6
 13 11  1  0
 13 14  1  6
 14  7  1  0
 15 13  1  0
 16 15  2  0
 17 15  1  0
 18 29  1  0
 18 17  1  0
 18 19  1  6
 20 19  1  0
 21 20  2  0
 22 21  1  0
 23 22  1  0
 23 28  2  0
 24 23  1  0
 25 24  2  0
 25 26  1  0
 26 27  2  0
 27 28  1  0
 28 20  1  0
 29 30  1  0
 31 29  2  0
M  END
$$$$
