NIW.pdb
     RDKit          3D

 31 32  0  0  1  0  0  0  0  0999 V2000
   19.6794  -18.5092  -15.3447 N   0  0  0  0  0  0  0  0  0  0  0  0
   21.0820  -18.3424  -15.3646 C   0  0  0  0  0  0  0  0  0  0  0  0
   21.5255  -17.1619  -15.5132 O   0  0  0  0  0  0  0  0  0  0  0  0
   21.9853  -19.4866  -15.2194 C   0  0  0  0  0  0  0  0  0  0  0  0
   23.2347  -19.2591  -16.0486 C   0  0  2  0  0  0  0  0  0  0  0  0
   22.9692  -19.3662  -17.4483 N   0  0  0  0  0  0  0  0  0  0  0  0
   24.3398  -20.1651  -15.6096 C   0  0  0  0  0  0  0  0  0  0  0  0
   24.4110  -21.3514  -16.0379 O   0  0  0  0  0  0  0  0  0  0  0  0
   30.1549  -19.8488  -13.6959 C   0  0  0  0  0  0  0  0  0  0  0  0
   28.8962  -20.6856  -13.8886 C   0  0  0  0  0  0  0  0  0  0  0  0
   27.7172  -19.8370  -14.2145 C   0  0  2  0  0  0  0  0  0  0  0  0
   27.5904  -18.6345  -13.3185 C   0  0  0  0  0  0  0  0  0  0  0  0
   26.4829  -20.6509  -14.3627 C   0  0  2  0  0  0  0  0  0  0  0  0
   25.3576  -19.7609  -14.7038 N   0  0  0  0  0  0  0  0  0  0  0  0
   26.1361  -21.4992  -13.2012 C   0  0  0  0  0  0  0  0  0  0  0  0
   26.9463  -22.3745  -12.8049 O   0  0  0  0  0  0  0  0  0  0  0  0
   24.9215  -21.3716  -12.5059 N   0  0  0  0  0  0  0  0  0  0  0  0
   24.8788  -21.0623  -11.0657 C   0  0  1  0  0  0  0  0  0  0  0  0
   25.9494  -20.1030  -10.7167 C   0  0  0  0  0  0  0  0  0  0  0  0
   27.1150  -20.5764   -9.9932 C   0  0  0  0  0  0  0  0  0  0  0  0
   28.0629  -21.4922  -10.4424 C   0  0  0  0  0  0  0  0  0  0  0  0
   28.9381  -21.6571   -9.4485 N   0  0  0  0  0  0  0  0  0  0  0  0
   28.5996  -20.8941   -8.3878 C   0  0  0  0  0  0  0  0  0  0  0  0
   29.2170  -20.7355   -7.1540 C   0  0  0  0  0  0  0  0  0  0  0  0
   28.6373  -19.8593   -6.2658 C   0  0  0  0  0  0  0  0  0  0  0  0
   27.4977  -19.1586   -6.5596 C   0  0  0  0  0  0  0  0  0  0  0  0
   26.8935  -19.3214   -7.7800 C   0  0  0  0  0  0  0  0  0  0  0  0
   27.4552  -20.2006   -8.6996 C   0  0  0  0  0  0  0  0  0  0  0  0
   23.5218  -20.7781  -10.6383 C   0  0  0  0  0  0  0  0  0  0  0  0
   22.9656  -21.1949   -9.4380 O   0  0  0  0  0  0  0  0  0  0  0  0
   22.7146  -20.1010  -11.3712 O   0  0  0  0  0  0  0  0  0  0  0  0
  2  3  2  0
  2  1  1  0
  4  2  1  0
  5  6  1  6
  5  4  1  0
  7  8  2  0
  7  5  1  0
  9 10  1  0
 10 11  1  0
 11 12  1  1
 13 11  1  0
 13 14  1  1
 14  7  1  0
 15 13  1  0
 16 15  2  0
 17 15  1  0
 18 29  1  0
 18 17  1  0
 18 19  1  6
 20 19  1  0
 21 20  2  0
 22 21  1  0
 23 22  1  0
 23 28  2  0
 24 23  1  0
 25 24  2  0
 25 26  1  0
 26 27  2  0
 27 28  1  0
 28 20  1  0
 29 30  1  0
 31 29  2  0
M  END
$$$$
