NIW.pdb
     RDKit          3D

 31 32  0  0  1  0  0  0  0  0999 V2000
   18.2967  -22.9927  -11.0295 N   0  0  0  0  0  0  0  0  0  0  0  0
   17.9068  -21.6378  -11.1166 C   0  0  0  0  0  0  0  0  0  0  0  0
   16.6656  -21.3957  -11.2318 O   0  0  0  0  0  0  0  0  0  0  0  0
   18.8964  -20.5583  -11.0754 C   0  0  0  0  0  0  0  0  0  0  0  0
   20.2633  -21.1309  -10.7529 C   0  0  2  0  0  0  0  0  0  0  0  0
   20.4996  -21.1786   -9.3446 N   0  0  0  0  0  0  0  0  0  0  0  0
   21.3381  -20.3927  -11.4841 C   0  0  0  0  0  0  0  0  0  0  0  0
   21.5142  -19.1559  -11.2969 O   0  0  0  0  0  0  0  0  0  0  0  0
   26.2101  -22.0007  -11.2750 C   0  0  0  0  0  0  0  0  0  0  0  0
   24.9156  -21.2167  -11.4519 C   0  0  0  0  0  0  0  0  0  0  0  0
   24.5743  -21.0377  -12.8899 C   0  0  2  0  0  0  0  0  0  0  0  0
   25.7342  -20.5493  -13.7149 C   0  0  0  0  0  0  0  0  0  0  0  0
   23.3095  -20.2766  -13.0601 C   0  0  2  0  0  0  0  0  0  0  0  0
   22.2106  -21.0189  -12.4148 N   0  0  0  0  0  0  0  0  0  0  0  0
   22.9533  -19.9370  -14.4553 C   0  0  0  0  0  0  0  0  0  0  0  0
   22.7411  -20.8565  -15.2856 O   0  0  0  0  0  0  0  0  0  0  0  0
   22.8384  -18.6110  -14.9064 N   0  0  0  0  0  0  0  0  0  0  0  0
   22.4845  -18.2921  -16.3010 C   0  0  1  0  0  0  0  0  0  0  0  0
   21.8944  -16.9379  -16.3820 C   0  0  0  0  0  0  0  0  0  0  0  0
   21.3983  -16.4579  -17.6585 C   0  0  0  0  0  0  0  0  0  0  0  0
   20.1027  -16.5838  -18.1528 C   0  0  0  0  0  0  0  0  0  0  0  0
   20.0996  -16.0292  -19.3666 N   0  0  0  0  0  0  0  0  0  0  0  0
   21.3253  -15.5547  -19.6738 C   0  0  0  0  0  0  0  0  0  0  0  0
   21.7823  -14.8966  -20.8080 C   0  0  0  0  0  0  0  0  0  0  0  0
   23.1032  -14.5126  -20.8261 C   0  0  0  0  0  0  0  0  0  0  0  0
   23.9558  -14.7564  -19.7822 C   0  0  0  0  0  0  0  0  0  0  0  0
   23.4970  -15.4076  -18.6658 C   0  0  0  0  0  0  0  0  0  0  0  0
   22.1663  -15.8091  -18.6174 C   0  0  0  0  0  0  0  0  0  0  0  0
   23.5700  -18.6343  -17.2007 C   0  0  0  0  0  0  0  0  0  0  0  0
   23.4080  -19.1704  -18.4696 O   0  0  0  0  0  0  0  0  0  0  0  0
   24.7975  -18.4615  -16.8686 O   0  0  0  0  0  0  0  0  0  0  0  0
  2  3  2  0
  2  1  1  0
  4  2  1  0
  5  6  1  1
  5  4  1  0
  7  8  2  0
  7  5  1  0
  9 10  1  0
 10 11  1  0
 11 12  1  6
 13 11  1  0
 13 14  1  6
 14  7  1  0
 15 13  1  0
 16 15  2  0
 17 15  1  0
 18 29  1  0
 18 17  1  0
 18 19  1  1
 20 19  1  0
 21 20  2  0
 22 21  1  0
 23 22  1  0
 23 28  2  0
 24 23  1  0
 25 24  2  0
 25 26  1  0
 26 27  2  0
 27 28  1  0
 28 20  1  0
 29 30  1  0
 31 29  2  0
M  END
$$$$
