FPD.pdb
     RDKit          3D

 27 28  0  0  1  0  0  0  0  0999 V2000
    5.7302  -17.2349   25.5741 N   0  0  0  0  0  0  0  0  0  0  0  0
    6.4800  -16.2108   24.9333 C   0  0  1  0  0  0  0  0  0  0  0  0
    7.4657  -15.6183   25.9137 C   0  0  0  0  0  0  0  0  0  0  0  0
    7.1744  -14.2095   26.1886 C   0  0  0  0  0  0  0  0  0  0  0  0
    8.1532  -13.3190   26.5768 C   0  0  0  0  0  0  0  0  0  0  0  0
    7.8371  -11.9790   26.8388 C   0  0  0  0  0  0  0  0  0  0  0  0
    6.5521  -11.5164   26.7174 C   0  0  0  0  0  0  0  0  0  0  0  0
    5.5626  -12.3813   26.3331 C   0  0  0  0  0  0  0  0  0  0  0  0
    5.8930  -13.6860   26.0821 C   0  0  0  0  0  0  0  0  0  0  0  0
    7.1503  -16.5917   23.6832 C   0  0  0  0  0  0  0  0  0  0  0  0
    7.3681  -17.8135   23.4785 O   0  0  0  0  0  0  0  0  0  0  0  0
    7.5553  -15.6405   22.7135 N   0  0  0  0  0  0  0  0  0  0  0  0
    7.3320  -14.2296   22.7834 C   0  0  0  0  0  0  0  0  0  0  0  0
    7.9867  -13.5977   21.5668 C   0  0  0  0  0  0  0  0  0  0  0  0
    8.1414  -14.7378   20.5762 C   0  0  0  0  0  0  0  0  0  0  0  0
    8.2718  -15.9319   21.4792 C   0  0  1  0  0  0  0  0  0  0  0  0
    9.6793  -16.3095   21.7416 C   0  0  0  0  0  0  0  0  0  0  0  0
   10.1763  -15.9348   22.8346 O   0  0  0  0  0  0  0  0  0  0  0  0
   10.4938  -17.0488   20.8679 N   0  0  0  0  0  0  0  0  0  0  0  0
   11.8532  -17.4464   21.0974 C   0  0  1  0  0  0  0  0  0  0  0  0
   12.7212  -16.2342   21.2456 C   0  0  0  0  0  0  0  0  0  0  0  0
   14.1465  -16.5443   21.4734 C   0  0  0  0  0  0  0  0  0  0  0  0
   14.7391  -16.1535   22.5276 O   0  0  0  0  0  0  0  0  0  0  0  0
   11.9806  -18.3632   22.2641 C   0  0  0  0  0  0  0  0  0  0  0  0
   12.5742  -19.4446   22.1081 O   0  0  0  0  0  0  0  0  0  0  0  0
   14.9290  -17.2642   20.5838 O   0  0  0  0  0  0  0  0  0  0  0  0
   11.4326  -17.9755   23.4785 O   0  0  0  0  0  0  0  0  0  0  0  0
  2  1  1  1
  3  2  1  0
  4  9  1  0
  4  3  1  0
  5  4  2  0
  6  7  2  0
  6  5  1  0
  7  8  1  0
  8  9  2  0
 10  2  1  0
 11 10  2  0
 12 13  1  0
 12 10  1  0
 14 13  1  0
 15 16  1  0
 15 14  1  0
 16 12  1  0
 17 18  2  0
 16 17  1  1
 19 17  1  0
 20 21  1  1
 20 19  1  0
 22 26  1  0
 22 21  1  0
 23 22  2  0
 24 20  1  0
 25 24  2  0
 27 24  1  0
M  END
$$$$
