FPD.pdb
     RDKit          3D

 27 28  0  0  1  0  0  0  0  0999 V2000
    5.8987  -17.6939   25.6277 N   0  0  0  0  0  0  0  0  0  0  0  0
    6.5925  -16.5138   25.2433 C   0  0  1  0  0  0  0  0  0  0  0  0
    7.2923  -15.9253   26.4466 C   0  0  0  0  0  0  0  0  0  0  0  0
    7.0435  -14.4869   26.5667 C   0  0  0  0  0  0  0  0  0  0  0  0
    8.0670  -13.5627   26.5785 C   0  0  0  0  0  0  0  0  0  0  0  0
    7.7926  -12.1939   26.7025 C   0  0  0  0  0  0  0  0  0  0  0  0
    6.5051  -11.7358   26.8149 C   0  0  0  0  0  0  0  0  0  0  0  0
    5.4717  -12.6340   26.8055 C   0  0  0  0  0  0  0  0  0  0  0  0
    5.7618  -13.9664   26.6836 C   0  0  0  0  0  0  0  0  0  0  0  0
    7.5214  -16.6533   24.1143 C   0  0  0  0  0  0  0  0  0  0  0  0
    8.2033  -17.7075   24.0376 O   0  0  0  0  0  0  0  0  0  0  0  0
    7.6735  -15.6524   23.1224 N   0  0  0  0  0  0  0  0  0  0  0  0
    6.9763  -14.4043   23.0816 C   0  0  0  0  0  0  0  0  0  0  0  0
    7.4956  -13.6242   21.8859 C   0  0  0  0  0  0  0  0  0  0  0  0
    8.1294  -14.6715   20.9878 C   0  0  0  0  0  0  0  0  0  0  0  0
    8.5674  -15.7173   21.9741 C   0  0  1  0  0  0  0  0  0  0  0  0
    9.9850  -15.5762   22.3776 C   0  0  0  0  0  0  0  0  0  0  0  0
   10.2129  -14.9841   23.4637 O   0  0  0  0  0  0  0  0  0  0  0  0
   11.0849  -16.0506   21.6438 N   0  0  0  0  0  0  0  0  0  0  0  0
   12.3474  -16.4772   22.1758 C   0  0  1  0  0  0  0  0  0  0  0  0
   12.1269  -17.4286   23.3120 C   0  0  0  0  0  0  0  0  0  0  0  0
   13.3744  -17.9314   23.9208 C   0  0  0  0  0  0  0  0  0  0  0  0
   14.5085  -17.5310   23.5100 O   0  0  0  0  0  0  0  0  0  0  0  0
   13.2291  -17.0628   21.1280 C   0  0  0  0  0  0  0  0  0  0  0  0
   14.3754  -16.6014   20.9902 O   0  0  0  0  0  0  0  0  0  0  0  0
   13.4085  -18.8517   24.9569 O   0  0  0  0  0  0  0  0  0  0  0  0
   12.7375  -18.0992   20.3473 O   0  0  0  0  0  0  0  0  0  0  0  0
  2  1  1  1
  3  2  1  0
  4  9  1  0
  4  3  1  0
  5  4  2  0
  6  7  2  0
  6  5  1  0
  7  8  1  0
  8  9  2  0
 10  2  1  0
 11 10  2  0
 12 13  1  0
 12 10  1  0
 14 13  1  0
 15 16  1  0
 15 14  1  0
 16 12  1  0
 17 18  2  0
 16 17  1  1
 19 17  1  0
 20 21  1  1
 20 19  1  0
 22 26  1  0
 22 21  1  0
 23 22  2  0
 24 20  1  0
 25 24  2  0
 27 24  1  0
M  END
$$$$
