FPD.pdb
     RDKit          3D

 27 28  0  0  1  0  0  0  0  0999 V2000
    5.3565  -17.7809   24.9851 N   0  0  0  0  0  0  0  0  0  0  0  0
    6.1663  -16.6122   24.9861 C   0  0  1  0  0  0  0  0  0  0  0  0
    6.5589  -16.2714   26.4051 C   0  0  0  0  0  0  0  0  0  0  0  0
    6.8164  -14.8385   26.5656 C   0  0  0  0  0  0  0  0  0  0  0  0
    8.0944  -14.3225   26.6136 C   0  0  0  0  0  0  0  0  0  0  0  0
    8.3038  -12.9463   26.7755 C   0  0  0  0  0  0  0  0  0  0  0  0
    7.2498  -12.0769   26.8902 C   0  0  0  0  0  0  0  0  0  0  0  0
    5.9713  -12.5651   26.8452 C   0  0  0  0  0  0  0  0  0  0  0  0
    5.7891  -13.9127   26.6865 C   0  0  0  0  0  0  0  0  0  0  0  0
    7.3454  -16.6467   24.1111 C   0  0  0  0  0  0  0  0  0  0  0  0
    8.0646  -17.6784   24.1299 O   0  0  0  0  0  0  0  0  0  0  0  0
    7.6954  -15.5698   23.2585 N   0  0  0  0  0  0  0  0  0  0  0  0
    7.0726  -14.2825   23.2405 C   0  0  0  0  0  0  0  0  0  0  0  0
    7.8059  -13.4291   22.2197 C   0  0  0  0  0  0  0  0  0  0  0  0
    8.5200  -14.4263   21.3249 C   0  0  0  0  0  0  0  0  0  0  0  0
    8.7511  -15.5837   22.2551 C   0  0  1  0  0  0  0  0  0  0  0  0
   10.0949  -15.5687   22.8767 C   0  0  0  0  0  0  0  0  0  0  0  0
   10.2863  -14.7383   23.8019 O   0  0  0  0  0  0  0  0  0  0  0  0
   11.1627  -16.4058   22.5131 N   0  0  0  0  0  0  0  0  0  0  0  0
   12.4750  -16.4183   23.0935 C   0  0  1  0  0  0  0  0  0  0  0  0
   12.7780  -17.7798   23.6403 C   0  0  0  0  0  0  0  0  0  0  0  0
   11.9481  -18.1553   24.8021 C   0  0  0  0  0  0  0  0  0  0  0  0
   11.1433  -17.3225   25.3255 O   0  0  0  0  0  0  0  0  0  0  0  0
   13.5182  -15.9639   22.1325 C   0  0  0  0  0  0  0  0  0  0  0  0
   14.6571  -15.7158   22.5652 O   0  0  0  0  0  0  0  0  0  0  0  0
   11.9785  -19.4070   25.3970 O   0  0  0  0  0  0  0  0  0  0  0  0
   13.1789  -15.8354   20.7932 O   0  0  0  0  0  0  0  0  0  0  0  0
  2  1  1  1
  3  2  1  0
  4  9  1  0
  4  3  1  0
  5  4  2  0
  6  7  2  0
  6  5  1  0
  7  8  1  0
  8  9  2  0
 10  2  1  0
 11 10  2  0
 12 13  1  0
 12 10  1  0
 14 13  1  0
 15 16  1  0
 15 14  1  0
 16 12  1  0
 17 18  2  0
 16 17  1  1
 19 17  1  0
 20 21  1  6
 20 19  1  0
 22 26  1  0
 22 21  1  0
 23 22  2  0
 24 20  1  0
 25 24  2  0
 27 24  1  0
M  END
$$$$
