FPD.pdb
     RDKit          3D

 27 28  0  0  1  0  0  0  0  0999 V2000
    6.2318  -16.7121   25.6443 N   0  0  0  0  0  0  0  0  0  0  0  0
    6.8426  -15.7346   24.8118 C   0  0  1  0  0  0  0  0  0  0  0  0
    7.9174  -15.0102   25.5889 C   0  0  0  0  0  0  0  0  0  0  0  0
    7.4160  -13.7632   26.1711 C   0  0  0  0  0  0  0  0  0  0  0  0
    6.0683  -13.4867   26.2667 C   0  0  0  0  0  0  0  0  0  0  0  0
    5.6242  -12.2795   26.8231 C   0  0  0  0  0  0  0  0  0  0  0  0
    6.5118  -11.3429   27.2865 C   0  0  0  0  0  0  0  0  0  0  0  0
    7.8552  -11.5944   27.2028 C   0  0  0  0  0  0  0  0  0  0  0  0
    8.2676  -12.7797   26.6558 C   0  0  0  0  0  0  0  0  0  0  0  0
    7.3630  -16.2195   23.5268 C   0  0  0  0  0  0  0  0  0  0  0  0
    7.5480  -17.4565   23.3936 O   0  0  0  0  0  0  0  0  0  0  0  0
    7.6605  -15.3510   22.4469 N   0  0  0  0  0  0  0  0  0  0  0  0
    7.5153  -13.9283   22.4549 C   0  0  0  0  0  0  0  0  0  0  0  0
    8.0076  -13.4064   21.1157 C   0  0  0  0  0  0  0  0  0  0  0  0
    7.9588  -14.6097   20.1912 C   0  0  0  0  0  0  0  0  0  0  0  0
    8.1688  -15.7538   21.1426 C   0  0  1  0  0  0  0  0  0  0  0  0
    9.5808  -16.1926   21.2190 C   0  0  0  0  0  0  0  0  0  0  0  0
   10.3696  -15.4653   21.8755 O   0  0  0  0  0  0  0  0  0  0  0  0
   10.1006  -17.3511   20.6181 N   0  0  0  0  0  0  0  0  0  0  0  0
   11.4556  -17.8175   20.6911 C   0  0  1  0  0  0  0  0  0  0  0  0
   11.4743  -19.3053   20.8657 C   0  0  0  0  0  0  0  0  0  0  0  0
   11.0010  -19.7575   22.1891 C   0  0  0  0  0  0  0  0  0  0  0  0
   10.8337  -18.9307   23.1397 O   0  0  0  0  0  0  0  0  0  0  0  0
   12.2610  -17.3891   19.5138 C   0  0  0  0  0  0  0  0  0  0  0  0
   11.6717  -16.8820   18.5435 O   0  0  0  0  0  0  0  0  0  0  0  0
   10.7100  -21.0786   22.4921 O   0  0  0  0  0  0  0  0  0  0  0  0
   13.6360  -17.5725   19.5456 O   0  0  0  0  0  0  0  0  0  0  0  0
  2  1  1  1
  3  2  1  0
  4  9  1  0
  4  3  1  0
  5  4  2  0
  6  7  2  0
  6  5  1  0
  7  8  1  0
  8  9  2  0
 10  2  1  0
 11 10  2  0
 12 13  1  0
 12 10  1  0
 14 13  1  0
 15 16  1  0
 15 14  1  0
 16 12  1  0
 17 18  2  0
 16 17  1  1
 19 17  1  0
 20 21  1  6
 20 19  1  0
 22 26  1  0
 22 21  1  0
 23 22  2  0
 24 20  1  0
 25 24  2  0
 27 24  1  0
M  END
$$$$
