FPD.pdb
     RDKit          3D

 27 28  0  0  1  0  0  0  0  0999 V2000
    5.2780  -17.6636   24.9962 N   0  0  0  0  0  0  0  0  0  0  0  0
    6.1658  -16.5534   24.9669 C   0  0  1  0  0  0  0  0  0  0  0  0
    6.6170  -16.2306   26.3726 C   0  0  0  0  0  0  0  0  0  0  0  0
    6.9717  -14.8167   26.5153 C   0  0  0  0  0  0  0  0  0  0  0  0
    8.2812  -14.3928   26.6011 C   0  0  0  0  0  0  0  0  0  0  0  0
    8.5840  -13.0320   26.7446 C   0  0  0  0  0  0  0  0  0  0  0  0
    7.5923  -12.0869   26.8033 C   0  0  0  0  0  0  0  0  0  0  0  0
    6.2842  -12.4830   26.7200 C   0  0  0  0  0  0  0  0  0  0  0  0
    6.0106  -13.8171   26.5802 C   0  0  0  0  0  0  0  0  0  0  0  0
    7.3171  -16.6749   24.0630 C   0  0  0  0  0  0  0  0  0  0  0  0
    7.9045  -17.7855   24.0010 O   0  0  0  0  0  0  0  0  0  0  0  0
    7.7822  -15.5964   23.2696 N   0  0  0  0  0  0  0  0  0  0  0  0
    7.2875  -14.2552   23.3109 C   0  0  0  0  0  0  0  0  0  0  0  0
    8.1150  -13.4278   22.3420 C   0  0  0  0  0  0  0  0  0  0  0  0
    8.7422  -14.4444   21.4048 C   0  0  0  0  0  0  0  0  0  0  0  0
    8.8463  -15.6635   22.2771 C   0  0  1  0  0  0  0  0  0  0  0  0
   10.1759  -15.8104   22.9118 C   0  0  0  0  0  0  0  0  0  0  0  0
   10.3583  -15.2073   24.0005 O   0  0  0  0  0  0  0  0  0  0  0  0
   11.2397  -16.5670   22.3930 N   0  0  0  0  0  0  0  0  0  0  0  0
   12.5416  -16.7232   22.9758 C   0  0  1  0  0  0  0  0  0  0  0  0
   13.3486  -15.4791   22.7625 C   0  0  0  0  0  0  0  0  0  0  0  0
   14.7674  -15.7347   22.4443 C   0  0  0  0  0  0  0  0  0  0  0  0
   15.0952  -16.6006   21.5737 O   0  0  0  0  0  0  0  0  0  0  0  0
   12.4708  -17.0958   24.4160 C   0  0  0  0  0  0  0  0  0  0  0  0
   11.9747  -16.2837   25.2163 O   0  0  0  0  0  0  0  0  0  0  0  0
   15.8234  -15.0718   23.0503 O   0  0  0  0  0  0  0  0  0  0  0  0
   12.9607  -18.3333   24.8084 O   0  0  0  0  0  0  0  0  0  0  0  0
  2  1  1  1
  3  2  1  0
  4  9  1  0
  4  3  1  0
  5  4  2  0
  6  7  2  0
  6  5  1  0
  7  8  1  0
  8  9  2  0
 10  2  1  0
 11 10  2  0
 12 13  1  0
 12 10  1  0
 14 13  1  0
 15 16  1  0
 15 14  1  0
 16 12  1  0
 17 18  2  0
 16 17  1  1
 19 17  1  0
 20 21  1  1
 20 19  1  0
 22 26  1  0
 22 21  1  0
 23 22  2  0
 24 20  1  0
 25 24  2  0
 27 24  1  0
M  END
$$$$
