FPD.pdb
     RDKit          3D

 27 28  0  0  1  0  0  0  0  0999 V2000
    6.2685  -16.4808   25.9881 N   0  0  0  0  0  0  0  0  0  0  0  0
    6.1503  -16.0989   24.6236 C   0  0  1  0  0  0  0  0  0  0  0  0
    5.7945  -14.6326   24.5389 C   0  0  0  0  0  0  0  0  0  0  0  0
    6.4697  -13.8516   25.5779 C   0  0  0  0  0  0  0  0  0  0  0  0
    7.8405  -13.8604   25.7294 C   0  0  0  0  0  0  0  0  0  0  0  0
    8.4527  -13.1064   26.7398 C   0  0  0  0  0  0  0  0  0  0  0  0
    7.7106  -12.3417   27.6027 C   0  0  0  0  0  0  0  0  0  0  0  0
    6.3479  -12.3164   27.4723 C   0  0  0  0  0  0  0  0  0  0  0  0
    5.7702  -13.0603   26.4788 C   0  0  0  0  0  0  0  0  0  0  0  0
    7.3033  -16.4077   23.7677 C   0  0  0  0  0  0  0  0  0  0  0  0
    7.9818  -17.4317   24.0379 O   0  0  0  0  0  0  0  0  0  0  0  0
    7.6720  -15.6001   22.6628 N   0  0  0  0  0  0  0  0  0  0  0  0
    7.0575  -14.3636   22.2901 C   0  0  0  0  0  0  0  0  0  0  0  0
    7.8107  -13.8172   21.0892 C   0  0  0  0  0  0  0  0  0  0  0  0
    8.5314  -15.0196   20.5063 C   0  0  0  0  0  0  0  0  0  0  0  0
    8.7420  -15.8852   21.7164 C   0  0  1  0  0  0  0  0  0  0  0  0
   10.0767  -15.7065   22.3320 C   0  0  0  0  0  0  0  0  0  0  0  0
   10.1405  -14.9770   23.3546 O   0  0  0  0  0  0  0  0  0  0  0  0
   11.2670  -16.2864   21.8627 N   0  0  0  0  0  0  0  0  0  0  0  0
   12.5504  -16.2407   22.5028 C   0  0  1  0  0  0  0  0  0  0  0  0
   12.4546  -16.8229   23.8800 C   0  0  0  0  0  0  0  0  0  0  0  0
   12.1695  -18.2714   23.8977 C   0  0  0  0  0  0  0  0  0  0  0  0
   11.8868  -18.8939   22.8263 O   0  0  0  0  0  0  0  0  0  0  0  0
   13.6061  -16.9094   21.6925 C   0  0  0  0  0  0  0  0  0  0  0  0
   13.2698  -17.5070   20.6554 O   0  0  0  0  0  0  0  0  0  0  0  0
   12.1866  -19.0450   25.0479 O   0  0  0  0  0  0  0  0  0  0  0  0
   14.9223  -16.8394   22.1260 O   0  0  0  0  0  0  0  0  0  0  0  0
  2  1  1  1
  3  2  1  0
  4  9  1  0
  4  3  1  0
  5  4  2  0
  6  7  2  0
  6  5  1  0
  7  8  1  0
  8  9  2  0
 10  2  1  0
 11 10  2  0
 12 13  1  0
 12 10  1  0
 14 13  1  0
 15 16  1  0
 15 14  1  0
 16 12  1  0
 17 18  2  0
 16 17  1  1
 19 17  1  0
 20 21  1  1
 20 19  1  0
 22 26  1  0
 22 21  1  0
 23 22  2  0
 24 20  1  0
 25 24  2  0
 27 24  1  0
M  END
$$$$
