FPD.pdb
     RDKit          3D

 27 28  0  0  1  0  0  0  0  0999 V2000
    6.1011  -17.5520   25.8222 N   0  0  0  0  0  0  0  0  0  0  0  0
    6.7799  -16.3935   25.3546 C   0  0  1  0  0  0  0  0  0  0  0  0
    7.5395  -15.7584   26.4964 C   0  0  0  0  0  0  0  0  0  0  0  0
    7.2038  -14.3407   26.6467 C   0  0  0  0  0  0  0  0  0  0  0  0
    5.9238  -13.9152   26.9336 C   0  0  0  0  0  0  0  0  0  0  0  0
    5.6368  -12.5496   27.0633 C   0  0  0  0  0  0  0  0  0  0  0  0
    6.6152  -11.6013   26.9097 C   0  0  0  0  0  0  0  0  0  0  0  0
    7.8941  -11.9990   26.6247 C   0  0  0  0  0  0  0  0  0  0  0  0
    8.1527  -13.3377   26.5022 C   0  0  0  0  0  0  0  0  0  0  0  0
    7.6525  -16.5866   24.1891 C   0  0  0  0  0  0  0  0  0  0  0  0
    8.3456  -17.6349   24.1376 O   0  0  0  0  0  0  0  0  0  0  0  0
    7.7388  -15.6427   23.1352 N   0  0  0  0  0  0  0  0  0  0  0  0
    6.9762  -14.4376   23.0289 C   0  0  0  0  0  0  0  0  0  0  0  0
    7.4383  -13.7075   21.7793 C   0  0  0  0  0  0  0  0  0  0  0  0
    8.1151  -14.7743   20.9373 C   0  0  0  0  0  0  0  0  0  0  0  0
    8.6202  -15.7324   21.9790 C   0  0  1  0  0  0  0  0  0  0  0  0
   10.0334  -15.4931   22.3504 C   0  0  0  0  0  0  0  0  0  0  0  0
   10.2436  -14.8521   23.4120 O   0  0  0  0  0  0  0  0  0  0  0  0
   11.1472  -15.9251   21.6115 N   0  0  0  0  0  0  0  0  0  0  0  0
   12.4683  -16.1644   22.1179 C   0  0  1  0  0  0  0  0  0  0  0  0
   12.4010  -17.0653   23.3131 C   0  0  0  0  0  0  0  0  0  0  0  0
   13.7108  -17.3162   23.9465 C   0  0  0  0  0  0  0  0  0  0  0  0
   14.5081  -18.1861   23.4742 O   0  0  0  0  0  0  0  0  0  0  0  0
   13.3818  -16.7018   21.0716 C   0  0  0  0  0  0  0  0  0  0  0  0
   12.9998  -17.6678   20.3883 O   0  0  0  0  0  0  0  0  0  0  0  0
   14.1626  -16.6446   25.0719 O   0  0  0  0  0  0  0  0  0  0  0  0
   14.6223  -16.1042   20.9001 O   0  0  0  0  0  0  0  0  0  0  0  0
  2  1  1  1
  3  2  1  0
  4  9  1  0
  4  3  1  0
  5  4  2  0
  6  7  2  0
  6  5  1  0
  7  8  1  0
  8  9  2  0
 10  2  1  0
 11 10  2  0
 12 13  1  0
 12 10  1  0
 14 13  1  0
 15 16  1  0
 15 14  1  0
 16 12  1  0
 17 18  2  0
 16 17  1  1
 19 17  1  0
 20 21  1  1
 20 19  1  0
 22 26  1  0
 22 21  1  0
 23 22  2  0
 24 20  1  0
 25 24  2  0
 27 24  1  0
M  END
$$$$
