FPD.pdb
     RDKit          3D

 27 28  0  0  1  0  0  0  0  0999 V2000
    6.5472  -16.9080   26.1180 N   0  0  0  0  0  0  0  0  0  0  0  0
    7.0120  -15.9111   25.2170 C   0  0  1  0  0  0  0  0  0  0  0  0
    7.9881  -15.0031   25.9289 C   0  0  0  0  0  0  0  0  0  0  0  0
    7.3478  -13.7628   26.3725 C   0  0  0  0  0  0  0  0  0  0  0  0
    6.0294  -13.4744   26.0888 C   0  0  0  0  0  0  0  0  0  0  0  0
    5.4510  -12.2739   26.5230 C   0  0  0  0  0  0  0  0  0  0  0  0
    6.1751  -11.3558   27.2392 C   0  0  0  0  0  0  0  0  0  0  0  0
    7.4860  -11.6196   27.5337 C   0  0  0  0  0  0  0  0  0  0  0  0
    8.0314  -12.7980   27.0999 C   0  0  0  0  0  0  0  0  0  0  0  0
    7.5789  -16.4007   23.9537 C   0  0  0  0  0  0  0  0  0  0  0  0
    7.9139  -17.6113   23.8867 O   0  0  0  0  0  0  0  0  0  0  0  0
    7.7594  -15.5650   22.8231 N   0  0  0  0  0  0  0  0  0  0  0  0
    7.2482  -14.2376   22.6757 C   0  0  0  0  0  0  0  0  0  0  0  0
    7.7351  -13.7010   21.3404 C   0  0  0  0  0  0  0  0  0  0  0  0
    8.1064  -14.9367   20.5404 C   0  0  0  0  0  0  0  0  0  0  0  0
    8.4988  -15.9095   21.6164 C   0  0  1  0  0  0  0  0  0  0  0  0
    9.9585  -15.9443   21.8622 C   0  0  0  0  0  0  0  0  0  0  0  0
   10.3758  -15.3729   22.9021 O   0  0  0  0  0  0  0  0  0  0  0  0
   10.9039  -16.5630   21.0274 N   0  0  0  0  0  0  0  0  0  0  0  0
   12.1002  -17.2373   21.4436 C   0  0  1  0  0  0  0  0  0  0  0  0
   11.7583  -18.3407   22.3975 C   0  0  0  0  0  0  0  0  0  0  0  0
   12.3903  -18.2005   23.7244 C   0  0  0  0  0  0  0  0  0  0  0  0
   12.1848  -19.0588   24.6390 O   0  0  0  0  0  0  0  0  0  0  0  0
   12.8961  -17.7337   20.2868 C   0  0  0  0  0  0  0  0  0  0  0  0
   14.0127  -17.2298   20.0737 O   0  0  0  0  0  0  0  0  0  0  0  0
   13.2322  -17.1546   24.0690 O   0  0  0  0  0  0  0  0  0  0  0  0
   12.3613  -18.7381   19.4928 O   0  0  0  0  0  0  0  0  0  0  0  0
  2  1  1  1
  3  2  1  0
  4  9  1  0
  4  3  1  0
  5  4  2  0
  6  7  2  0
  6  5  1  0
  7  8  1  0
  8  9  2  0
 10  2  1  0
 11 10  2  0
 12 13  1  0
 12 10  1  0
 14 13  1  0
 15 16  1  0
 15 14  1  0
 16 12  1  0
 17 18  2  0
 16 17  1  1
 19 17  1  0
 20 21  1  1
 20 19  1  0
 22 26  1  0
 22 21  1  0
 23 22  2  0
 24 20  1  0
 25 24  2  0
 27 24  1  0
M  END
$$$$
