FPD.pdb
     RDKit          3D

 27 28  0  0  1  0  0  0  0  0999 V2000
    5.7846  -17.6166   25.6178 N   0  0  0  0  0  0  0  0  0  0  0  0
    6.5189  -16.4498   25.2696 C   0  0  1  0  0  0  0  0  0  0  0  0
    7.1681  -15.8741   26.5069 C   0  0  0  0  0  0  0  0  0  0  0  0
    7.0428  -14.4156   26.5542 C   0  0  0  0  0  0  0  0  0  0  0  0
    8.1338  -13.5803   26.4358 C   0  0  0  0  0  0  0  0  0  0  0  0
    7.9779  -12.1887   26.4931 C   0  0  0  0  0  0  0  0  0  0  0  0
    6.7426  -11.6197   26.6674 C   0  0  0  0  0  0  0  0  0  0  0  0
    5.6440  -12.4282   26.7873 C   0  0  0  0  0  0  0  0  0  0  0  0
    5.8186  -13.7848   26.7287 C   0  0  0  0  0  0  0  0  0  0  0  0
    7.5008  -16.6073   24.1888 C   0  0  0  0  0  0  0  0  0  0  0  0
    8.2103  -17.6459   24.1823 O   0  0  0  0  0  0  0  0  0  0  0  0
    7.6735  -15.6401   23.1672 N   0  0  0  0  0  0  0  0  0  0  0  0
    6.9075  -14.4423   23.0130 C   0  0  0  0  0  0  0  0  0  0  0  0
    7.4759  -13.6800   21.8282 C   0  0  0  0  0  0  0  0  0  0  0  0
    8.2447  -14.7202   21.0332 C   0  0  0  0  0  0  0  0  0  0  0  0
    8.6620  -15.6942   22.0987 C   0  0  1  0  0  0  0  0  0  0  0  0
   10.0300  -15.4457   22.6079 C   0  0  0  0  0  0  0  0  0  0  0  0
   10.1291  -14.8309   23.7008 O   0  0  0  0  0  0  0  0  0  0  0  0
   11.2152  -15.8421   21.9666 N   0  0  0  0  0  0  0  0  0  0  0  0
   12.4855  -16.0808   22.5898 C   0  0  1  0  0  0  0  0  0  0  0  0
   12.3324  -17.0828   23.6930 C   0  0  0  0  0  0  0  0  0  0  0  0
   13.6013  -17.4353   24.3603 C   0  0  0  0  0  0  0  0  0  0  0  0
   14.6888  -16.8612   24.0393 O   0  0  0  0  0  0  0  0  0  0  0  0
   13.5240  -16.4961   21.6064 C   0  0  0  0  0  0  0  0  0  0  0  0
   14.4960  -15.7446   21.4154 O   0  0  0  0  0  0  0  0  0  0  0  0
   13.7058  -18.3906   25.3594 O   0  0  0  0  0  0  0  0  0  0  0  0
   13.3667  -17.7043   20.9423 O   0  0  0  0  0  0  0  0  0  0  0  0
  2  1  1  1
  3  2  1  0
  4  9  1  0
  4  3  1  0
  5  4  2  0
  6  7  2  0
  6  5  1  0
  7  8  1  0
  8  9  2  0
 10  2  1  0
 11 10  2  0
 12 13  1  0
 12 10  1  0
 14 13  1  0
 15 16  1  0
 15 14  1  0
 16 12  1  0
 17 18  2  0
 16 17  1  1
 19 17  1  0
 20 21  1  1
 20 19  1  0
 22 26  1  0
 22 21  1  0
 23 22  2  0
 24 20  1  0
 25 24  2  0
 27 24  1  0
M  END
$$$$
