FPD.pdb
     RDKit          3D

 27 28  0  0  1  0  0  0  0  0999 V2000
    5.9657  -17.8900   25.4624 N   0  0  0  0  0  0  0  0  0  0  0  0
    6.5874  -16.6444   25.1728 C   0  0  1  0  0  0  0  0  0  0  0  0
    7.1292  -16.0422   26.4486 C   0  0  0  0  0  0  0  0  0  0  0  0
    6.9036  -14.5960   26.5021 C   0  0  0  0  0  0  0  0  0  0  0  0
    7.9431  -13.6924   26.5715 C   0  0  0  0  0  0  0  0  0  0  0  0
    7.6901  -12.3151   26.6289 C   0  0  0  0  0  0  0  0  0  0  0  0
    6.4084  -11.8281   26.6175 C   0  0  0  0  0  0  0  0  0  0  0  0
    5.3594  -12.7055   26.5489 C   0  0  0  0  0  0  0  0  0  0  0  0
    5.6287  -14.0467   26.4937 C   0  0  0  0  0  0  0  0  0  0  0  0
    7.6180  -16.6684   24.1268 C   0  0  0  0  0  0  0  0  0  0  0  0
    8.4093  -17.6458   24.0998 O   0  0  0  0  0  0  0  0  0  0  0  0
    7.7492  -15.6399   23.1604 N   0  0  0  0  0  0  0  0  0  0  0  0
    6.9919  -14.4273   23.1233 C   0  0  0  0  0  0  0  0  0  0  0  0
    7.5069  -13.5967   21.9601 C   0  0  0  0  0  0  0  0  0  0  0  0
    8.2189  -14.5917   21.0611 C   0  0  0  0  0  0  0  0  0  0  0  0
    8.6791  -15.6356   22.0392 C   0  0  1  0  0  0  0  0  0  0  0  0
   10.0752  -15.4334   22.4890 C   0  0  0  0  0  0  0  0  0  0  0  0
   10.2460  -14.7436   23.5269 O   0  0  0  0  0  0  0  0  0  0  0  0
   11.2134  -15.9503   21.8482 N   0  0  0  0  0  0  0  0  0  0  0  0
   12.4486  -16.3278   22.4732 C   0  0  1  0  0  0  0  0  0  0  0  0
   12.1820  -17.2905   23.5898 C   0  0  0  0  0  0  0  0  0  0  0  0
   13.4019  -17.7692   24.2698 C   0  0  0  0  0  0  0  0  0  0  0  0
   14.2598  -16.9494   24.7249 O   0  0  0  0  0  0  0  0  0  0  0  0
   13.4288  -16.8748   21.4943 C   0  0  0  0  0  0  0  0  0  0  0  0
   14.5049  -16.2735   21.3318 O   0  0  0  0  0  0  0  0  0  0  0  0
   13.7006  -19.1094   24.4609 O   0  0  0  0  0  0  0  0  0  0  0  0
   13.1033  -18.0328   20.8026 O   0  0  0  0  0  0  0  0  0  0  0  0
  2  1  1  1
  3  2  1  0
  4  9  1  0
  4  3  1  0
  5  4  2  0
  6  7  2  0
  6  5  1  0
  7  8  1  0
  8  9  2  0
 10  2  1  0
 11 10  2  0
 12 13  1  0
 12 10  1  0
 14 13  1  0
 15 16  1  0
 15 14  1  0
 16 12  1  0
 17 18  2  0
 16 17  1  1
 19 17  1  0
 20 21  1  1
 20 19  1  0
 22 26  1  0
 22 21  1  0
 23 22  2  0
 24 20  1  0
 25 24  2  0
 27 24  1  0
M  END
$$$$
