FPD.pdb
     RDKit          3D

 27 28  0  0  1  0  0  0  0  0999 V2000
    5.7413  -17.2607   25.8853 N   0  0  0  0  0  0  0  0  0  0  0  0
    6.5840  -16.2937   25.2719 C   0  0  1  0  0  0  0  0  0  0  0  0
    7.5109  -15.7019   26.3084 C   0  0  0  0  0  0  0  0  0  0  0  0
    7.4246  -14.2400   26.3392 C   0  0  0  0  0  0  0  0  0  0  0  0
    8.5348  -13.4352   26.1919 C   0  0  0  0  0  0  0  0  0  0  0  0
    8.4162  -12.0394   26.2340 C   0  0  0  0  0  0  0  0  0  0  0  0
    7.1993  -11.4361   26.4216 C   0  0  0  0  0  0  0  0  0  0  0  0
    6.0822  -12.2138   26.5701 C   0  0  0  0  0  0  0  0  0  0  0  0
    6.2203  -13.5752   26.5259 C   0  0  0  0  0  0  0  0  0  0  0  0
    7.3371  -16.7507   24.0967 C   0  0  0  0  0  0  0  0  0  0  0  0
    7.7941  -17.9225   24.1073 O   0  0  0  0  0  0  0  0  0  0  0  0
    7.5637  -15.9255   22.9667 N   0  0  0  0  0  0  0  0  0  0  0  0
    7.0440  -14.6065   22.7781 C   0  0  0  0  0  0  0  0  0  0  0  0
    7.5906  -14.0787   21.4625 C   0  0  0  0  0  0  0  0  0  0  0  0
    8.0169  -15.3185   20.6968 C   0  0  0  0  0  0  0  0  0  0  0  0
    8.3670  -16.2739   21.8026 C   0  0  1  0  0  0  0  0  0  0  0  0
    9.8128  -16.2870   22.1215 C   0  0  0  0  0  0  0  0  0  0  0  0
   10.2618  -15.3106   22.7753 O   0  0  0  0  0  0  0  0  0  0  0  0
   10.7127  -17.3001   21.7514 N   0  0  0  0  0  0  0  0  0  0  0  0
   12.1322  -17.3012   21.9616 C   0  0  1  0  0  0  0  0  0  0  0  0
   12.5594  -18.6103   22.5519 C   0  0  0  0  0  0  0  0  0  0  0  0
   12.0553  -18.8414   23.9201 C   0  0  0  0  0  0  0  0  0  0  0  0
   12.3566  -18.0512   24.8688 O   0  0  0  0  0  0  0  0  0  0  0  0
   12.8844  -16.9852   20.7157 C   0  0  0  0  0  0  0  0  0  0  0  0
   12.2878  -17.0560   19.6271 O   0  0  0  0  0  0  0  0  0  0  0  0
   11.2384  -19.9055   24.2697 O   0  0  0  0  0  0  0  0  0  0  0  0
   14.2204  -16.6243   20.8180 O   0  0  0  0  0  0  0  0  0  0  0  0
  2  1  1  1
  3  2  1  0
  4  9  1  0
  4  3  1  0
  5  4  2  0
  6  7  2  0
  6  5  1  0
  7  8  1  0
  8  9  2  0
 10  2  1  0
 11 10  2  0
 12 13  1  0
 12 10  1  0
 14 13  1  0
 15 16  1  0
 15 14  1  0
 16 12  1  0
 17 18  2  0
 16 17  1  1
 19 17  1  0
 20 21  1  6
 20 19  1  0
 22 26  1  0
 22 21  1  0
 23 22  2  0
 24 20  1  0
 25 24  2  0
 27 24  1  0
M  END
$$$$
