FPD.pdb
     RDKit          3D

 27 28  0  0  1  0  0  0  0  0999 V2000
    6.1553  -17.2919   25.9475 N   0  0  0  0  0  0  0  0  0  0  0  0
    6.8121  -16.2292   25.2687 C   0  0  1  0  0  0  0  0  0  0  0  0
    7.6921  -15.4772   26.2403 C   0  0  0  0  0  0  0  0  0  0  0  0
    7.3357  -14.0580   26.3055 C   0  0  0  0  0  0  0  0  0  0  0  0
    6.0272  -13.6327   26.3988 C   0  0  0  0  0  0  0  0  0  0  0  0
    5.7220  -12.2658   26.4517 C   0  0  0  0  0  0  0  0  0  0  0  0
    6.7104  -11.3163   26.4128 C   0  0  0  0  0  0  0  0  0  0  0  0
    8.0175  -11.7137   26.3205 C   0  0  0  0  0  0  0  0  0  0  0  0
    8.2934  -13.0537   26.2700 C   0  0  0  0  0  0  0  0  0  0  0  0
    7.5641  -16.6038   24.0640 C   0  0  0  0  0  0  0  0  0  0  0  0
    8.1558  -17.7137   24.0586 O   0  0  0  0  0  0  0  0  0  0  0  0
    7.6446  -15.7667   22.9230 N   0  0  0  0  0  0  0  0  0  0  0  0
    6.9242  -14.5464   22.7300 C   0  0  0  0  0  0  0  0  0  0  0  0
    7.3644  -13.9555   21.4014 C   0  0  0  0  0  0  0  0  0  0  0  0
    7.9674  -15.1231   20.6409 C   0  0  0  0  0  0  0  0  0  0  0  0
    8.4763  -15.9998   21.7502 C   0  0  1  0  0  0  0  0  0  0  0  0
    9.9109  -15.7851   22.0472 C   0  0  0  0  0  0  0  0  0  0  0  0
   10.1864  -15.0326   23.0167 O   0  0  0  0  0  0  0  0  0  0  0  0
   10.9779  -16.3545   21.3327 N   0  0  0  0  0  0  0  0  0  0  0  0
   12.2932  -16.6297   21.8359 C   0  0  1  0  0  0  0  0  0  0  0  0
   12.2012  -17.4802   23.0660 C   0  0  0  0  0  0  0  0  0  0  0  0
   13.1241  -17.0731   24.1440 C   0  0  0  0  0  0  0  0  0  0  0  0
   13.9686  -16.1407   23.9627 O   0  0  0  0  0  0  0  0  0  0  0  0
   13.1720  -17.2453   20.8030 C   0  0  0  0  0  0  0  0  0  0  0  0
   12.9747  -18.4310   20.4849 O   0  0  0  0  0  0  0  0  0  0  0  0
   13.1435  -17.6564   25.4014 O   0  0  0  0  0  0  0  0  0  0  0  0
   14.1757  -16.4726   20.2366 O   0  0  0  0  0  0  0  0  0  0  0  0
  2  1  1  1
  3  2  1  0
  4  9  1  0
  4  3  1  0
  5  4  2  0
  6  7  2  0
  6  5  1  0
  7  8  1  0
  8  9  2  0
 10  2  1  0
 11 10  2  0
 12 13  1  0
 12 10  1  0
 14 13  1  0
 15 16  1  0
 15 14  1  0
 16 12  1  0
 17 18  2  0
 16 17  1  1
 19 17  1  0
 20 21  1  1
 20 19  1  0
 22 26  1  0
 22 21  1  0
 23 22  2  0
 24 20  1  0
 25 24  2  0
 27 24  1  0
M  END
$$$$
