FPD.pdb
     RDKit          3D

 27 28  0  0  1  0  0  0  0  0999 V2000
    6.5054  -16.6135   26.1050 N   0  0  0  0  0  0  0  0  0  0  0  0
    6.9917  -15.6770   25.1521 C   0  0  1  0  0  0  0  0  0  0  0  0
    8.0442  -14.8034   25.7947 C   0  0  0  0  0  0  0  0  0  0  0  0
    7.4590  -13.5972   26.3846 C   0  0  0  0  0  0  0  0  0  0  0  0
    8.1392  -12.8234   27.3014 C   0  0  0  0  0  0  0  0  0  0  0  0
    7.5454  -11.6793   27.8513 C   0  0  0  0  0  0  0  0  0  0  0  0
    6.2774  -11.2974   27.4956 C   0  0  0  0  0  0  0  0  0  0  0  0
    5.5819  -12.0493   26.5869 C   0  0  0  0  0  0  0  0  0  0  0  0
    6.1804  -13.1631   26.0621 C   0  0  0  0  0  0  0  0  0  0  0  0
    7.4816  -16.2421   23.8880 C   0  0  0  0  0  0  0  0  0  0  0  0
    7.7456  -17.4714   23.8538 O   0  0  0  0  0  0  0  0  0  0  0  0
    7.6649  -15.4582   22.7215 N   0  0  0  0  0  0  0  0  0  0  0  0
    7.1059  -14.1624   22.4896 C   0  0  0  0  0  0  0  0  0  0  0  0
    7.6139  -13.6745   21.1435 C   0  0  0  0  0  0  0  0  0  0  0  0
    8.0603  -14.9327   20.4206 C   0  0  0  0  0  0  0  0  0  0  0  0
    8.4564  -15.8323   21.5573 C   0  0  1  0  0  0  0  0  0  0  0  0
    9.9076  -15.7937   21.8488 C   0  0  0  0  0  0  0  0  0  0  0  0
   10.2914  -14.9802   22.7280 O   0  0  0  0  0  0  0  0  0  0  0  0
   10.8792  -16.5912   21.2217 N   0  0  0  0  0  0  0  0  0  0  0  0
   12.2341  -16.7846   21.6524 C   0  0  1  0  0  0  0  0  0  0  0  0
   12.2562  -17.2279   23.0834 C   0  0  0  0  0  0  0  0  0  0  0  0
   13.6033  -17.5674   23.5829 C   0  0  0  0  0  0  0  0  0  0  0  0
   14.6283  -17.4227   22.8456 O   0  0  0  0  0  0  0  0  0  0  0  0
   12.9743  -17.7289   20.7700 C   0  0  0  0  0  0  0  0  0  0  0  0
   14.0049  -17.3274   20.2019 O   0  0  0  0  0  0  0  0  0  0  0  0
   13.8513  -18.0560   24.8563 O   0  0  0  0  0  0  0  0  0  0  0  0
   12.4857  -19.0184   20.6165 O   0  0  0  0  0  0  0  0  0  0  0  0
  2  1  1  1
  3  2  1  0
  4  9  1  0
  4  3  1  0
  5  4  2  0
  6  7  2  0
  6  5  1  0
  7  8  1  0
  8  9  2  0
 10  2  1  0
 11 10  2  0
 12 13  1  0
 12 10  1  0
 14 13  1  0
 15 16  1  0
 15 14  1  0
 16 12  1  0
 17 18  2  0
 16 17  1  1
 19 17  1  0
 20 21  1  1
 20 19  1  0
 22 26  1  0
 22 21  1  0
 23 22  2  0
 24 20  1  0
 25 24  2  0
 27 24  1  0
M  END
$$$$
