FPD.pdb
     RDKit          3D

 27 28  0  0  1  0  0  0  0  0999 V2000
    6.6181  -16.2135   25.4726 N   0  0  0  0  0  0  0  0  0  0  0  0
    7.0174  -15.2789   24.4783 C   0  0  1  0  0  0  0  0  0  0  0  0
    8.0934  -14.3766   25.0369 C   0  0  0  0  0  0  0  0  0  0  0  0
    7.5415  -13.3882   25.9662 C   0  0  0  0  0  0  0  0  0  0  0  0
    8.2051  -13.0079   27.1137 C   0  0  0  0  0  0  0  0  0  0  0  0
    7.6435  -12.0643   27.9846 C   0  0  0  0  0  0  0  0  0  0  0  0
    6.4243  -11.4943   27.7225 C   0  0  0  0  0  0  0  0  0  0  0  0
    5.7461  -11.8555   26.5891 C   0  0  0  0  0  0  0  0  0  0  0  0
    6.3126  -12.7790   25.7522 C   0  0  0  0  0  0  0  0  0  0  0  0
    7.4300  -15.8491   23.1892 C   0  0  0  0  0  0  0  0  0  0  0  0
    7.5848  -17.0953   23.1172 O   0  0  0  0  0  0  0  0  0  0  0  0
    7.6574  -15.0519   22.0395 N   0  0  0  0  0  0  0  0  0  0  0  0
    7.3980  -13.6497   21.9308 C   0  0  0  0  0  0  0  0  0  0  0  0
    7.8476  -13.2026   20.5502 C   0  0  0  0  0  0  0  0  0  0  0  0
    7.8967  -14.4784   19.7286 C   0  0  0  0  0  0  0  0  0  0  0  0
    8.1974  -15.5192   20.7699 C   0  0  1  0  0  0  0  0  0  0  0  0
    9.6402  -15.8353   20.8740 C   0  0  0  0  0  0  0  0  0  0  0  0
   10.2896  -15.2467   21.7763 O   0  0  0  0  0  0  0  0  0  0  0  0
   10.3318  -16.7359   20.0470 N   0  0  0  0  0  0  0  0  0  0  0  0
   11.4975  -17.4956   20.3974 C   0  0  1  0  0  0  0  0  0  0  0  0
   11.2456  -18.2643   21.6584 C   0  0  0  0  0  0  0  0  0  0  0  0
   12.3873  -19.0948   22.0900 C   0  0  0  0  0  0  0  0  0  0  0  0
   13.4921  -19.0621   21.4626 O   0  0  0  0  0  0  0  0  0  0  0  0
   11.9427  -18.3842   19.2882 C   0  0  0  0  0  0  0  0  0  0  0  0
   11.2137  -19.3367   18.9607 O   0  0  0  0  0  0  0  0  0  0  0  0
   12.3478  -19.9505   23.1800 O   0  0  0  0  0  0  0  0  0  0  0  0
   13.1525  -18.1150   18.6642 O   0  0  0  0  0  0  0  0  0  0  0  0
  2  1  1  1
  3  2  1  0
  4  9  1  0
  4  3  1  0
  5  4  2  0
  6  7  2  0
  6  5  1  0
  7  8  1  0
  8  9  2  0
 10  2  1  0
 11 10  2  0
 12 13  1  0
 12 10  1  0
 14 13  1  0
 15 16  1  0
 15 14  1  0
 16 12  1  0
 17 18  2  0
 16 17  1  1
 19 17  1  0
 20 21  1  1
 20 19  1  0
 22 26  1  0
 22 21  1  0
 23 22  2  0
 24 20  1  0
 25 24  2  0
 27 24  1  0
M  END
$$$$
