FPD.pdb
     RDKit          3D

 27 28  0  0  1  0  0  0  0  0999 V2000
    5.7932  -16.8405   25.6036 N   0  0  0  0  0  0  0  0  0  0  0  0
    6.6174  -15.8866   24.9459 C   0  0  1  0  0  0  0  0  0  0  0  0
    7.5934  -15.2948   25.9364 C   0  0  0  0  0  0  0  0  0  0  0  0
    7.2498  -13.9115   26.2733 C   0  0  0  0  0  0  0  0  0  0  0  0
    7.5188  -12.8596   25.4229 C   0  0  0  0  0  0  0  0  0  0  0  0
    7.1827  -11.5471   25.7811 C   0  0  0  0  0  0  0  0  0  0  0  0
    6.5794  -11.2715   26.9812 C   0  0  0  0  0  0  0  0  0  0  0  0
    6.3018  -12.2991   27.8426 C   0  0  0  0  0  0  0  0  0  0  0  0
    6.6386  -13.5736   27.4731 C   0  0  0  0  0  0  0  0  0  0  0  0
    7.3150  -16.3605   23.7435 C   0  0  0  0  0  0  0  0  0  0  0  0
    7.6591  -17.5695   23.6984 O   0  0  0  0  0  0  0  0  0  0  0  0
    7.6101  -15.5116   22.6475 N   0  0  0  0  0  0  0  0  0  0  0  0
    7.2120  -14.1439   22.5196 C   0  0  0  0  0  0  0  0  0  0  0  0
    7.7976  -13.6120   21.2226 C   0  0  0  0  0  0  0  0  0  0  0  0
    8.1051  -14.8513   20.4013 C   0  0  0  0  0  0  0  0  0  0  0  0
    8.3722  -15.8812   21.4624 C   0  0  1  0  0  0  0  0  0  0  0  0
    9.8124  -16.0395   21.7674 C   0  0  0  0  0  0  0  0  0  0  0  0
   10.3595  -15.1213   22.4305 O   0  0  0  0  0  0  0  0  0  0  0  0
   10.6064  -17.1297   21.3745 N   0  0  0  0  0  0  0  0  0  0  0  0
   11.9853  -17.3467   21.7073 C   0  0  1  0  0  0  0  0  0  0  0  0
   12.1322  -18.6351   22.4576 C   0  0  0  0  0  0  0  0  0  0  0  0
   12.1404  -18.4742   23.9252 C   0  0  0  0  0  0  0  0  0  0  0  0
   12.3713  -17.3429   24.4563 O   0  0  0  0  0  0  0  0  0  0  0  0
   12.8661  -17.3026   20.5072 C   0  0  0  0  0  0  0  0  0  0  0  0
   12.5166  -17.9269   19.4903 O   0  0  0  0  0  0  0  0  0  0  0  0
   11.9042  -19.5112   24.8143 O   0  0  0  0  0  0  0  0  0  0  0  0
   14.0412  -16.5674   20.5705 O   0  0  0  0  0  0  0  0  0  0  0  0
  2  1  1  1
  3  2  1  0
  4  9  1  0
  4  3  1  0
  5  4  2  0
  6  7  2  0
  6  5  1  0
  7  8  1  0
  8  9  2  0
 10  2  1  0
 11 10  2  0
 12 13  1  0
 12 10  1  0
 14 13  1  0
 15 16  1  0
 15 14  1  0
 16 12  1  0
 17 18  2  0
 16 17  1  1
 19 17  1  0
 20 21  1  6
 20 19  1  0
 22 26  1  0
 22 21  1  0
 23 22  2  0
 24 20  1  0
 25 24  2  0
 27 24  1  0
M  END
$$$$
