MEY.pdb
     RDKit          3D

 30 30  0  0  1  0  0  0  0  0999 V2000
   28.2498  -12.5090  -16.1810 C   0  0  0  0  0  0  0  0  0  0  0  0
   27.7221  -14.2346  -16.2581 S   0  0  0  0  0  0  0  0  0  0  0  0
   26.1630  -14.4503  -15.3278 C   0  0  0  0  0  0  0  0  0  0  0  0
   25.8161  -15.9007  -15.3502 C   0  0  0  0  0  0  0  0  0  0  0  0
   26.0840  -16.5110  -16.7042 C   0  0  2  0  0  0  0  0  0  0  0  0
   24.9700  -16.0177  -17.5553 N   0  0  0  0  0  0  0  0  0  0  0  0
   25.9227  -17.9828  -16.6390 C   0  0  0  0  0  0  0  0  0  0  0  0
   24.7727  -18.4658  -16.5954 O   0  0  0  0  0  0  0  0  0  0  0  0
   27.0254  -18.8803  -16.6238 N   0  0  0  0  0  0  0  0  0  0  0  0
   26.9425  -20.2714  -16.1827 C   0  0  1  0  0  0  0  0  0  0  0  0
   28.0130  -21.1088  -16.7780 C   0  0  0  0  0  0  0  0  0  0  0  0
   28.0011  -22.5593  -16.5105 C   0  0  0  0  0  0  0  0  0  0  0  0
   29.0157  -23.4147  -17.1132 C   0  0  0  0  0  0  0  0  0  0  0  0
   28.9549  -23.9452  -18.2326 O   0  0  0  0  0  0  0  0  0  0  0  0
   26.6779  -20.4660  -14.7758 C   0  0  0  0  0  0  0  0  0  0  0  0
   27.5070  -20.3008  -13.8411 O   0  0  0  0  0  0  0  0  0  0  0  0
   30.1707  -23.6382  -16.3090 O   0  0  0  0  0  0  0  0  0  0  0  0
   26.2775  -20.5078   -6.6965 O   0  0  0  0  0  0  0  0  0  0  0  0
   26.0559  -20.3164   -8.0630 C   0  0  0  0  0  0  0  0  0  0  0  0
   26.5779  -19.2319   -8.7336 C   0  0  0  0  0  0  0  0  0  0  0  0
   26.3579  -19.0476  -10.0759 C   0  0  0  0  0  0  0  0  0  0  0  0
   25.5935  -19.9531  -10.8216 C   0  0  0  0  0  0  0  0  0  0  0  0
   25.3712  -19.7346  -12.2758 C   0  0  0  0  0  0  0  0  0  0  0  0
   25.0010  -21.0438  -12.9905 C   0  0  2  0  0  0  0  0  0  0  0  0
   25.3531  -20.8801  -14.3838 N   0  0  0  0  0  0  0  0  0  0  0  0
   23.5311  -21.2012  -12.8896 C   0  0  0  0  0  0  0  0  0  0  0  0
   22.7473  -20.9337  -13.8381 O   0  0  0  0  0  0  0  0  0  0  0  0
   25.0673  -21.0403  -10.1625 C   0  0  0  0  0  0  0  0  0  0  0  0
   25.3102  -21.1965   -8.8008 C   0  0  0  0  0  0  0  0  0  0  0  0
   22.9403  -21.6606  -11.7209 O   0  0  0  0  0  0  0  0  0  0  0  0
  2  1  1  0
  2  3  1  0
  4  3  1  0
  5  4  1  0
  5  6  1  6
  7  8  2  0
  7  5  1  0
  9  7  1  0
 10  9  1  0
 10 11  1  1
 11 12  1  0
 13 17  1  0
 13 12  1  0
 14 13  2  0
 15 16  2  0
 15 10  1  0
 18 19  1  0
 19 20  2  0
 20 21  1  0
 22 23  1  0
 22 21  2  0
 24 23  1  1
 24 25  1  0
 25 15  1  0
 26 24  1  0
 27 26  2  0
 28 22  1  0
 29 28  2  0
 29 19  1  0
 30 26  1  0
M  END
$$$$
