MEY.pdb
     RDKit          3D

 30 30  0  0  1  0  0  0  0  0999 V2000
   15.9607   -8.9205  -22.9059 C   0  0  0  0  0  0  0  0  0  0  0  0
   17.5450   -8.5574  -23.6933 S   0  0  0  0  0  0  0  0  0  0  0  0
   18.8284   -9.6968  -23.0631 C   0  0  0  0  0  0  0  0  0  0  0  0
   19.1488   -9.2930  -21.6636 C   0  0  0  0  0  0  0  0  0  0  0  0
   20.2173  -10.1754  -21.0658 C   0  0  2  0  0  0  0  0  0  0  0  0
   19.5617  -11.5019  -20.9273 N   0  0  0  0  0  0  0  0  0  0  0  0
   20.5295   -9.7319  -19.6866 C   0  0  0  0  0  0  0  0  0  0  0  0
   19.6072   -9.3014  -18.9643 O   0  0  0  0  0  0  0  0  0  0  0  0
   21.8417   -9.7735  -19.1408 N   0  0  0  0  0  0  0  0  0  0  0  0
   22.1608   -9.4518  -17.7511 C   0  0  1  0  0  0  0  0  0  0  0  0
   23.0529  -10.4655  -17.1358 C   0  0  0  0  0  0  0  0  0  0  0  0
   22.5398  -11.8366  -16.9560 C   0  0  0  0  0  0  0  0  0  0  0  0
   23.3991  -12.8605  -16.3752 C   0  0  0  0  0  0  0  0  0  0  0  0
   24.5872  -12.7199  -16.0482 O   0  0  0  0  0  0  0  0  0  0  0  0
   22.4783   -8.0674  -17.4872 C   0  0  0  0  0  0  0  0  0  0  0  0
   23.1354   -7.3053  -18.2459 O   0  0  0  0  0  0  0  0  0  0  0  0
   22.7787  -14.1286  -16.1805 O   0  0  0  0  0  0  0  0  0  0  0  0
   22.3995    0.3160  -15.8004 O   0  0  0  0  0  0  0  0  0  0  0  0
   22.2209   -1.0401  -16.0870 C   0  0  0  0  0  0  0  0  0  0  0  0
   21.0384   -1.6879  -15.8034 C   0  0  0  0  0  0  0  0  0  0  0  0
   20.8671   -3.0201  -16.0865 C   0  0  0  0  0  0  0  0  0  0  0  0
   21.8863   -3.7784  -16.6751 C   0  0  0  0  0  0  0  0  0  0  0  0
   21.6768   -5.2196  -16.9759 C   0  0  0  0  0  0  0  0  0  0  0  0
   22.3196   -6.1161  -15.9058 C   0  0  2  0  0  0  0  0  0  0  0  0
   22.0063   -7.4843  -16.2554 N   0  0  0  0  0  0  0  0  0  0  0  0
   21.6683   -5.7971  -14.6138 C   0  0  0  0  0  0  0  0  0  0  0  0
   20.5345   -6.2398  -14.2909 O   0  0  0  0  0  0  0  0  0  0  0  0
   23.0717   -3.1419  -16.9632 C   0  0  0  0  0  0  0  0  0  0  0  0
   23.2114   -1.7899  -16.6629 C   0  0  0  0  0  0  0  0  0  0  0  0
   22.2921   -4.9797  -13.6818 O   0  0  0  0  0  0  0  0  0  0  0  0
  2  1  1  0
  2  3  1  0
  4  3  1  0
  5  4  1  0
  5  6  1  1
  7  8  2  0
  7  5  1  0
  9  7  1  0
 10  9  1  0
 10 11  1  6
 11 12  1  0
 13 17  1  0
 13 12  1  0
 14 13  2  0
 15 16  2  0
 15 10  1  0
 18 19  1  0
 19 20  2  0
 20 21  1  0
 22 23  1  0
 22 21  2  0
 24 23  1  6
 24 25  1  0
 25 15  1  0
 26 24  1  0
 27 26  2  0
 28 22  1  0
 29 28  2  0
 29 19  1  0
 30 26  1  0
M  END
$$$$
