MEY.pdb
     RDKit          3D

 30 30  0  0  1  0  0  0  0  0999 V2000
   20.2428  -15.0906  -18.7881 C   0  0  0  0  0  0  0  0  0  0  0  0
   20.3160  -13.5024  -17.9312 S   0  0  0  0  0  0  0  0  0  0  0  0
   19.5978  -13.6648  -16.2578 C   0  0  0  0  0  0  0  0  0  0  0  0
   19.6035  -12.3136  -15.6264 C   0  0  0  0  0  0  0  0  0  0  0  0
   18.2219  -11.7065  -15.6104 C   0  0  2  0  0  0  0  0  0  0  0  0
   18.0553  -11.1391  -16.9738 N   0  0  0  0  0  0  0  0  0  0  0  0
   18.1855  -10.5507  -14.6835 C   0  0  0  0  0  0  0  0  0  0  0  0
   18.3781  -10.7434  -13.4655 O   0  0  0  0  0  0  0  0  0  0  0  0
   17.9397   -9.2196  -15.1186 N   0  0  0  0  0  0  0  0  0  0  0  0
   17.9612   -8.0533  -14.2378 C   0  0  1  0  0  0  0  0  0  0  0  0
   18.3956   -6.8260  -14.9498 C   0  0  0  0  0  0  0  0  0  0  0  0
   18.0702   -6.6922  -16.3821 C   0  0  0  0  0  0  0  0  0  0  0  0
   18.5638   -5.5441  -17.1322 C   0  0  0  0  0  0  0  0  0  0  0  0
   19.0865   -5.5742  -18.2565 O   0  0  0  0  0  0  0  0  0  0  0  0
   16.8282   -7.9186  -13.3516 C   0  0  0  0  0  0  0  0  0  0  0  0
   15.6848   -8.4146  -13.5380 O   0  0  0  0  0  0  0  0  0  0  0  0
   18.4135   -4.2870  -16.4781 O   0  0  0  0  0  0  0  0  0  0  0  0
   11.8379   -7.4327   -6.2663 O   0  0  0  0  0  0  0  0  0  0  0  0
   12.8525   -7.5760   -7.2167 C   0  0  0  0  0  0  0  0  0  0  0  0
   14.1006   -7.0236   -7.0285 C   0  0  0  0  0  0  0  0  0  0  0  0
   15.0944   -7.1667   -7.9645 C   0  0  0  0  0  0  0  0  0  0  0  0
   14.8829   -7.8795   -9.1509 C   0  0  0  0  0  0  0  0  0  0  0  0
   15.9757   -8.0243  -10.1492 C   0  0  0  0  0  0  0  0  0  0  0  0
   15.8966   -6.9353  -11.2307 C   0  0  2  0  0  0  0  0  0  0  0  0
   17.0006   -7.1584  -12.1381 N   0  0  0  0  0  0  0  0  0  0  0  0
   16.0939   -5.6301  -10.5577 C   0  0  0  0  0  0  0  0  0  0  0  0
   17.2148   -5.0613  -10.4823 O   0  0  0  0  0  0  0  0  0  0  0  0
   13.6402   -8.4360   -9.3496 C   0  0  0  0  0  0  0  0  0  0  0  0
   12.6555   -8.2715   -8.3797 C   0  0  0  0  0  0  0  0  0  0  0  0
   15.0298   -4.9618   -9.9687 O   0  0  0  0  0  0  0  0  0  0  0  0
  2  1  1  0
  2  3  1  0
  4  3  1  0
  5  4  1  0
  5  6  1  6
  7  8  2  0
  7  5  1  0
  9  7  1  0
 10  9  1  0
 10 11  1  6
 11 12  1  0
 13 17  1  0
 13 12  1  0
 14 13  2  0
 15 16  2  0
 15 10  1  0
 18 19  1  0
 19 20  2  0
 20 21  1  0
 22 23  1  0
 22 21  2  0
 24 23  1  1
 24 25  1  0
 25 15  1  0
 26 24  1  0
 27 26  2  0
 28 22  1  0
 29 28  2  0
 29 19  1  0
 30 26  1  0
M  END
$$$$
