MEY.pdb
     RDKit          3D

 30 30  0  0  1  0  0  0  0  0999 V2000
   21.4965  -15.5797  -17.0198 C   0  0  0  0  0  0  0  0  0  0  0  0
   21.8857  -13.8162  -16.9918 S   0  0  0  0  0  0  0  0  0  0  0  0
   21.5979  -13.0895  -18.6445 C   0  0  0  0  0  0  0  0  0  0  0  0
   21.6995  -11.6072  -18.5144 C   0  0  0  0  0  0  0  0  0  0  0  0
   21.4830  -10.9210  -19.8410 C   0  0  2  0  0  0  0  0  0  0  0  0
   22.6112  -11.3926  -20.6858 N   0  0  0  0  0  0  0  0  0  0  0  0
   21.6714   -9.4585  -19.6933 C   0  0  0  0  0  0  0  0  0  0  0  0
   22.1282   -8.8054  -20.6538 O   0  0  0  0  0  0  0  0  0  0  0  0
   21.3539   -8.7560  -18.4985 N   0  0  0  0  0  0  0  0  0  0  0  0
   21.0751   -7.3223  -18.4415 C   0  0  1  0  0  0  0  0  0  0  0  0
   20.1764   -6.8860  -19.5386 C   0  0  0  0  0  0  0  0  0  0  0  0
   19.8741   -5.4483  -19.6696 C   0  0  0  0  0  0  0  0  0  0  0  0
   18.9608   -4.9926  -20.7101 C   0  0  0  0  0  0  0  0  0  0  0  0
   19.1586   -5.0479  -21.9332 O   0  0  0  0  0  0  0  0  0  0  0  0
   20.7938   -6.7923  -17.1273 C   0  0  0  0  0  0  0  0  0  0  0  0
   19.8435   -7.1459  -16.3788 O   0  0  0  0  0  0  0  0  0  0  0  0
   17.7366   -4.4378  -20.2367 O   0  0  0  0  0  0  0  0  0  0  0  0
   24.3974  -11.1265  -14.7807 O   0  0  0  0  0  0  0  0  0  0  0  0
   24.0508   -9.7733  -14.7371 C   0  0  0  0  0  0  0  0  0  0  0  0
   24.6163   -8.8556  -15.5953 C   0  0  0  0  0  0  0  0  0  0  0  0
   24.2731   -7.5274  -15.5491 C   0  0  0  0  0  0  0  0  0  0  0  0
   23.3341   -7.0474  -14.6282 C   0  0  0  0  0  0  0  0  0  0  0  0
   22.9753   -5.6045  -14.5988 C   0  0  0  0  0  0  0  0  0  0  0  0
   21.5918   -5.3567  -15.2205 C   0  0  2  0  0  0  0  0  0  0  0  0
   21.6685   -5.7719  -16.6040 N   0  0  0  0  0  0  0  0  0  0  0  0
   21.3442   -3.8965  -15.1780 C   0  0  0  0  0  0  0  0  0  0  0  0
   21.3943   -3.1636  -16.2007 O   0  0  0  0  0  0  0  0  0  0  0  0
   22.7624   -7.9549  -13.7662 C   0  0  0  0  0  0  0  0  0  0  0  0
   23.1334   -9.2944  -13.8404 C   0  0  0  0  0  0  0  0  0  0  0  0
   21.0389   -3.2581  -13.9843 O   0  0  0  0  0  0  0  0  0  0  0  0
  2  1  1  0
  2  3  1  0
  4  3  1  0
  5  4  1  0
  5  6  1  6
  7  8  2  0
  7  5  1  0
  9  7  1  0
 10  9  1  0
 10 11  1  6
 11 12  1  0
 13 17  1  0
 13 12  1  0
 14 13  2  0
 15 16  2  0
 15 10  1  0
 18 19  1  0
 19 20  2  0
 20 21  1  0
 22 23  1  0
 22 21  2  0
 24 23  1  1
 24 25  1  0
 25 15  1  0
 26 24  1  0
 27 26  2  0
 28 22  1  0
 29 28  2  0
 29 19  1  0
 30 26  1  0
M  END
$$$$
