MEY.pdb
     RDKit          3D

 30 30  0  0  1  0  0  0  0  0999 V2000
   35.1390  -23.0729  -10.0334 C   0  0  0  0  0  0  0  0  0  0  0  0
   33.7699  -21.8949  -10.0200 S   0  0  0  0  0  0  0  0  0  0  0  0
   32.3357  -22.5981  -10.9094 C   0  0  0  0  0  0  0  0  0  0  0  0
   31.2257  -21.6043  -10.8416 C   0  0  0  0  0  0  0  0  0  0  0  0
   29.9770  -22.1258  -11.5099 C   0  0  2  0  0  0  0  0  0  0  0  0
   30.4802  -22.8903  -12.6808 N   0  0  0  0  0  0  0  0  0  0  0  0
   29.1916  -20.9999  -12.0683 C   0  0  0  0  0  0  0  0  0  0  0  0
   28.6147  -20.2161  -11.2869 O   0  0  0  0  0  0  0  0  0  0  0  0
   29.0622  -20.7668  -13.4649 N   0  0  0  0  0  0  0  0  0  0  0  0
   27.9921  -19.9735  -14.0667 C   0  0  1  0  0  0  0  0  0  0  0  0
   28.3666  -19.4599  -15.4075 C   0  0  0  0  0  0  0  0  0  0  0  0
   27.3551  -18.7181  -16.1835 C   0  0  0  0  0  0  0  0  0  0  0  0
   27.6507  -18.3052  -17.5497 C   0  0  0  0  0  0  0  0  0  0  0  0
   28.6672  -18.5952  -18.1983 O   0  0  0  0  0  0  0  0  0  0  0  0
   26.6602  -20.5169  -13.9325 C   0  0  0  0  0  0  0  0  0  0  0  0
   26.3003  -21.6759  -14.2723 O   0  0  0  0  0  0  0  0  0  0  0  0
   26.6532  -17.4930  -18.1629 O   0  0  0  0  0  0  0  0  0  0  0  0
   18.3004  -20.7303  -10.8736 O   0  0  0  0  0  0  0  0  0  0  0  0
   19.6214  -20.3707  -11.1543 C   0  0  0  0  0  0  0  0  0  0  0  0
   19.9436  -19.6119  -12.2583 C   0  0  0  0  0  0  0  0  0  0  0  0
   21.2424  -19.2609  -12.5303 C   0  0  0  0  0  0  0  0  0  0  0  0
   22.2959  -19.6588  -11.6984 C   0  0  0  0  0  0  0  0  0  0  0  0
   23.6950  -19.2637  -12.0113 C   0  0  0  0  0  0  0  0  0  0  0  0
   24.3222  -20.1985  -13.0576 C   0  0  2  0  0  0  0  0  0  0  0  0
   25.6384  -19.6781  -13.3559 N   0  0  0  0  0  0  0  0  0  0  0  0
   23.4910  -20.1120  -14.2811 C   0  0  0  0  0  0  0  0  0  0  0  0
   22.5358  -20.8979  -14.5169 O   0  0  0  0  0  0  0  0  0  0  0  0
   21.9860  -20.4167  -10.5925 C   0  0  0  0  0  0  0  0  0  0  0  0
   20.6583  -20.7546  -10.3466 C   0  0  0  0  0  0  0  0  0  0  0  0
   23.7327  -19.1401  -15.2418 O   0  0  0  0  0  0  0  0  0  0  0  0
  2  1  1  0
  2  3  1  0
  4  3  1  0
  5  4  1  0
  5  6  1  6
  7  8  2  0
  7  5  1  0
  9  7  1  0
 10  9  1  0
 10 11  1  6
 11 12  1  0
 13 17  1  0
 13 12  1  0
 14 13  2  0
 15 16  2  0
 15 10  1  0
 18 19  1  0
 19 20  2  0
 20 21  1  0
 22 23  1  0
 22 21  2  0
 24 23  1  1
 24 25  1  0
 25 15  1  0
 26 24  1  0
 27 26  2  0
 28 22  1  0
 29 28  2  0
 29 19  1  0
 30 26  1  0
M  END
$$$$
