MEY.pdb
     RDKit          3D

 30 30  0  0  1  0  0  0  0  0999 V2000
   18.9941  -21.5727  -15.8901 C   0  0  0  0  0  0  0  0  0  0  0  0
   19.4745  -20.6255  -17.3510 S   0  0  0  0  0  0  0  0  0  0  0  0
   20.9928  -21.3356  -18.0810 C   0  0  0  0  0  0  0  0  0  0  0  0
   21.8999  -21.7202  -16.9613 C   0  0  0  0  0  0  0  0  0  0  0  0
   22.5788  -20.5129  -16.3619 C   0  0  2  0  0  0  0  0  0  0  0  0
   23.3948  -19.9614  -17.4749 N   0  0  0  0  0  0  0  0  0  0  0  0
   23.5460  -20.9377  -15.3225 C   0  0  0  0  0  0  0  0  0  0  0  0
   23.1430  -21.6302  -14.3654 O   0  0  0  0  0  0  0  0  0  0  0  0
   24.9244  -20.5915  -15.3629 N   0  0  0  0  0  0  0  0  0  0  0  0
   25.8928  -20.9653  -14.3339 C   0  0  1  0  0  0  0  0  0  0  0  0
   27.2792  -21.0024  -14.8614 C   0  0  0  0  0  0  0  0  0  0  0  0
   27.6119  -22.0025  -15.8932 C   0  0  0  0  0  0  0  0  0  0  0  0
   28.4340  -21.6192  -17.0342 C   0  0  0  0  0  0  0  0  0  0  0  0
   28.8737  -20.4840  -17.2711 O   0  0  0  0  0  0  0  0  0  0  0  0
   25.7090  -20.3382  -13.0455 C   0  0  0  0  0  0  0  0  0  0  0  0
   25.5529  -19.1041  -12.8431 O   0  0  0  0  0  0  0  0  0  0  0  0
   28.7392  -22.6767  -17.9393 O   0  0  0  0  0  0  0  0  0  0  0  0
   19.5750  -18.9407  -11.6629 O   0  0  0  0  0  0  0  0  0  0  0  0
   20.7730  -19.5008  -11.2109 C   0  0  0  0  0  0  0  0  0  0  0  0
   21.3782  -20.5441  -11.8769 C   0  0  0  0  0  0  0  0  0  0  0  0
   22.5549  -21.0914  -11.4296 C   0  0  0  0  0  0  0  0  0  0  0  0
   23.1908  -20.6136  -10.2773 C   0  0  0  0  0  0  0  0  0  0  0  0
   24.4670  -21.2200   -9.8134 C   0  0  0  0  0  0  0  0  0  0  0  0
   25.6755  -20.6139  -10.5443 C   0  0  2  0  0  0  0  0  0  0  0  0
   25.6937  -21.1806  -11.8749 N   0  0  0  0  0  0  0  0  0  0  0  0
   26.8932  -21.0562   -9.8252 C   0  0  0  0  0  0  0  0  0  0  0  0
   27.7428  -21.8350  -10.3324 O   0  0  0  0  0  0  0  0  0  0  0  0
   22.5957  -19.5716   -9.6040 C   0  0  0  0  0  0  0  0  0  0  0  0
   21.4026  -19.0403  -10.0855 C   0  0  0  0  0  0  0  0  0  0  0  0
   27.1576  -20.6222   -8.5339 O   0  0  0  0  0  0  0  0  0  0  0  0
  2  1  1  0
  2  3  1  0
  4  3  1  0
  5  4  1  0
  5  6  1  6
  7  8  2  0
  7  5  1  0
  9  7  1  0
 10  9  1  0
 10 11  1  6
 11 12  1  0
 13 17  1  0
 13 12  1  0
 14 13  2  0
 15 16  2  0
 15 10  1  0
 18 19  1  0
 19 20  2  0
 20 21  1  0
 22 23  1  0
 22 21  2  0
 24 23  1  1
 24 25  1  0
 25 15  1  0
 26 24  1  0
 27 26  2  0
 28 22  1  0
 29 28  2  0
 29 19  1  0
 30 26  1  0
M  END
$$$$
