MEY.pdb
     RDKit          3D

 30 30  0  0  1  0  0  0  0  0999 V2000
   26.5031  -25.6068  -15.5048 C   0  0  0  0  0  0  0  0  0  0  0  0
   27.8269  -25.6301  -16.7332 S   0  0  0  0  0  0  0  0  0  0  0  0
   27.8404  -24.0560  -17.6630 C   0  0  0  0  0  0  0  0  0  0  0  0
   26.8332  -23.1498  -17.0393 C   0  0  0  0  0  0  0  0  0  0  0  0
   26.8132  -21.8000  -17.7140 C   0  0  2  0  0  0  0  0  0  0  0  0
   28.1247  -21.1955  -17.3629 N   0  0  0  0  0  0  0  0  0  0  0  0
   25.7871  -20.9338  -17.0870 C   0  0  0  0  0  0  0  0  0  0  0  0
   26.1226  -20.1709  -16.1578 O   0  0  0  0  0  0  0  0  0  0  0  0
   24.4256  -20.9292  -17.4965 N   0  0  0  0  0  0  0  0  0  0  0  0
   23.3719  -20.1689  -16.8271 C   0  0  1  0  0  0  0  0  0  0  0  0
   22.3312  -19.7045  -17.7773 C   0  0  0  0  0  0  0  0  0  0  0  0
   21.2327  -18.8660  -17.2618 C   0  0  0  0  0  0  0  0  0  0  0  0
   20.1853  -18.4088  -18.1664 C   0  0  0  0  0  0  0  0  0  0  0  0
   19.4061  -19.1296  -18.8078 O   0  0  0  0  0  0  0  0  0  0  0  0
   22.9043  -20.7178  -15.5753 C   0  0  0  0  0  0  0  0  0  0  0  0
   22.6225  -21.9275  -15.3614 O   0  0  0  0  0  0  0  0  0  0  0  0
   20.0789  -16.9939  -18.2990 O   0  0  0  0  0  0  0  0  0  0  0  0
   28.4648  -22.0695  -12.3332 O   0  0  0  0  0  0  0  0  0  0  0  0
   27.1956  -21.4868  -12.2813 C   0  0  0  0  0  0  0  0  0  0  0  0
   26.1708  -22.0532  -11.5551 C   0  0  0  0  0  0  0  0  0  0  0  0
   24.9256  -21.4777  -11.5068 C   0  0  0  0  0  0  0  0  0  0  0  0
   24.6426  -20.2908  -12.1935 C   0  0  0  0  0  0  0  0  0  0  0  0
   23.2868  -19.6837  -12.1239 C   0  0  0  0  0  0  0  0  0  0  0  0
   22.3372  -20.3093  -13.1576 C   0  0  2  0  0  0  0  0  0  0  0  0
   22.7443  -19.8212  -14.4569 N   0  0  0  0  0  0  0  0  0  0  0  0
   20.9749  -19.8037  -12.8681 C   0  0  0  0  0  0  0  0  0  0  0  0
   20.3988  -18.9410  -13.5819 O   0  0  0  0  0  0  0  0  0  0  0  0
   25.6586  -19.7159  -12.9220 C   0  0  0  0  0  0  0  0  0  0  0  0
   26.9093  -20.3261  -12.9490 C   0  0  0  0  0  0  0  0  0  0  0  0
   20.2577  -20.2685  -11.7748 O   0  0  0  0  0  0  0  0  0  0  0  0
  2  1  1  0
  2  3  1  0
  4  3  1  0
  5  4  1  0
  5  6  1  1
  7  8  2  0
  7  5  1  0
  9  7  1  0
 10  9  1  0
 10 11  1  6
 11 12  1  0
 13 17  1  0
 13 12  1  0
 14 13  2  0
 15 16  2  0
 15 10  1  0
 18 19  1  0
 19 20  2  0
 20 21  1  0
 22 23  1  0
 22 21  2  0
 24 23  1  1
 24 25  1  0
 25 15  1  0
 26 24  1  0
 27 26  2  0
 28 22  1  0
 29 28  2  0
 29 19  1  0
 30 26  1  0
M  END
$$$$
