MEY.pdb
     RDKit          3D

 30 30  0  0  1  0  0  0  0  0999 V2000
   18.4742  -19.3967  -25.0448 C   0  0  0  0  0  0  0  0  0  0  0  0
   20.1355  -20.1051  -25.0647 S   0  0  0  0  0  0  0  0  0  0  0  0
   21.0293  -19.6376  -23.5399 C   0  0  0  0  0  0  0  0  0  0  0  0
   20.0551  -18.9741  -22.6260 C   0  0  0  0  0  0  0  0  0  0  0  0
   20.6595  -17.7608  -21.9625 C   0  0  2  0  0  0  0  0  0  0  0  0
   21.9988  -18.2197  -21.5103 N   0  0  0  0  0  0  0  0  0  0  0  0
   19.9076  -17.4285  -20.7295 C   0  0  0  0  0  0  0  0  0  0  0  0
   19.5176  -18.3542  -19.9886 O   0  0  0  0  0  0  0  0  0  0  0  0
   19.6059  -16.0932  -20.3453 N   0  0  0  0  0  0  0  0  0  0  0  0
   18.8692  -15.7364  -19.1344 C   0  0  1  0  0  0  0  0  0  0  0  0
   18.8324  -14.2690  -18.9173 C   0  0  0  0  0  0  0  0  0  0  0  0
   18.5054  -13.3974  -20.0614 C   0  0  0  0  0  0  0  0  0  0  0  0
   18.4328  -11.9538  -19.8739 C   0  0  0  0  0  0  0  0  0  0  0  0
   19.2608  -11.1213  -20.2733 O   0  0  0  0  0  0  0  0  0  0  0  0
   17.6320  -16.4515  -18.9221 C   0  0  0  0  0  0  0  0  0  0  0  0
   16.8691  -16.8871  -19.8257 O   0  0  0  0  0  0  0  0  0  0  0  0
   17.2879  -11.4956  -19.1599 O   0  0  0  0  0  0  0  0  0  0  0  0
   11.4673  -21.9137  -16.5094 O   0  0  0  0  0  0  0  0  0  0  0  0
   12.6118  -21.1626  -16.7909 C   0  0  0  0  0  0  0  0  0  0  0  0
   13.8462  -21.5128  -16.2890 C   0  0  0  0  0  0  0  0  0  0  0  0
   14.9678  -20.7723  -16.5678 C   0  0  0  0  0  0  0  0  0  0  0  0
   14.9062  -19.6291  -17.3738 C   0  0  0  0  0  0  0  0  0  0  0  0
   16.1353  -18.8442  -17.6651 C   0  0  0  0  0  0  0  0  0  0  0  0
   15.9647  -17.3676  -17.2746 C   0  0  2  0  0  0  0  0  0  0  0  0
   17.2176  -16.7054  -17.5641 N   0  0  0  0  0  0  0  0  0  0  0  0
   15.7328  -17.3221  -15.8119 C   0  0  0  0  0  0  0  0  0  0  0  0
   14.7064  -17.8062  -15.2661 O   0  0  0  0  0  0  0  0  0  0  0  0
   13.6786  -19.2698  -17.8810 C   0  0  0  0  0  0  0  0  0  0  0  0
   12.5618  -20.0434  -17.5783 C   0  0  0  0  0  0  0  0  0  0  0  0
   16.6559  -16.7322  -14.9601 O   0  0  0  0  0  0  0  0  0  0  0  0
  2  1  1  0
  2  3  1  0
  4  3  1  0
  5  4  1  0
  5  6  1  1
  7  8  2  0
  7  5  1  0
  9  7  1  0
 10  9  1  0
 10 11  1  6
 11 12  1  0
 13 17  1  0
 13 12  1  0
 14 13  2  0
 15 16  2  0
 15 10  1  0
 18 19  1  0
 19 20  2  0
 20 21  1  0
 22 23  1  0
 22 21  2  0
 24 23  1  1
 24 25  1  0
 25 15  1  0
 26 24  1  0
 27 26  2  0
 28 22  1  0
 29 28  2  0
 29 19  1  0
 30 26  1  0
M  END
$$$$
