KSK.pdb
     RDKit          3D

 25 24  0  0  1  0  0  0  0  0999 V2000
   11.3950  -17.5814   18.4210 N   0  0  0  0  0  0  0  0  0  0  0  0
   10.2768  -17.3830   19.3227 C   0  0  1  0  0  0  0  0  0  0  0  0
    9.4307  -18.6243   19.4507 C   0  0  0  0  0  0  0  0  0  0  0  0
    9.2718  -19.3701   18.1579 C   0  0  0  0  0  0  0  0  0  0  0  0
    8.2302  -20.4393   18.2836 C   0  0  0  0  0  0  0  0  0  0  0  0
    8.2387  -21.2478   16.9989 C   0  0  0  0  0  0  0  0  0  0  0  0
    7.2684  -22.3276   17.0878 N   0  0  0  0  0  0  0  0  0  0  0  0
   10.8414  -17.1030   20.6730 C   0  0  0  0  0  0  0  0  0  0  0  0
   12.0613  -17.3582   20.9592 O   0  0  0  0  0  0  0  0  0  0  0  0
    8.5050  -15.8281   23.9275 O   0  0  0  0  0  0  0  0  0  0  0  0
    9.7357  -15.2463   23.7704 C   0  0  0  0  0  0  0  0  0  0  0  0
   10.6625  -16.1936   23.0319 C   0  0  2  0  0  0  0  0  0  0  0  0
   10.0721  -16.5372   21.7306 N   0  0  0  0  0  0  0  0  0  0  0  0
   10.9276  -17.4398   23.7858 C   0  0  0  0  0  0  0  0  0  0  0  0
   10.2116  -18.4729   23.5474 O   0  0  0  0  0  0  0  0  0  0  0  0
   11.9307  -17.5665   24.7624 N   0  0  0  0  0  0  0  0  0  0  0  0
   12.1431  -18.8851   25.4993 C   0  0  1  0  0  0  0  0  0  0  0  0
   13.5328  -19.2798   25.2265 C   0  0  0  0  0  0  0  0  0  0  0  0
   14.1498  -20.4454   25.8332 C   0  0  0  0  0  0  0  0  0  0  0  0
   15.5496  -20.8307   25.6455 C   0  0  0  0  0  0  0  0  0  0  0  0
   15.7432  -22.1371   26.4898 C   0  0  0  0  0  0  0  0  0  0  0  0
   17.1181  -22.5501   26.4069 N   0  0  0  0  0  0  0  0  0  0  0  0
   11.7771  -18.5806   26.8707 C   0  0  0  0  0  0  0  0  0  0  0  0
   11.5514  -19.5648   27.6850 O   0  0  0  0  0  0  0  0  0  0  0  0
   11.6623  -17.3064   27.3708 O   0  0  0  0  0  0  0  0  0  0  0  0
  2  1  1  6
  3  2  1  0
  4  3  1  0
  5  6  1  0
  5  4  1  0
  7  6  1  0
  8  2  1  0
  8  9  2  0
 12 11  1  1
 11 10  1  0
 12 13  1  0
 13  8  1  0
 14 12  1  0
 15 14  2  0
 16 14  1  0
 17 23  1  0
 17 16  1  0
 17 18  1  1
 19 20  1  0
 19 18  1  0
 21 20  1  0
 21 22  1  0
 23 25  1  0
 24 23  2  0
M  END
$$$$
