KSK.pdb
     RDKit          3D

 25 24  0  0  1  0  0  0  0  0999 V2000
    9.1949  -17.1467   16.6784 N   0  0  0  0  0  0  0  0  0  0  0  0
    8.2043  -17.1792   17.7368 C   0  0  1  0  0  0  0  0  0  0  0  0
    7.9036  -18.5878   18.1825 C   0  0  0  0  0  0  0  0  0  0  0  0
    7.0375  -19.3434   17.2172 C   0  0  0  0  0  0  0  0  0  0  0  0
    6.6416  -20.6724   17.7837 C   0  0  0  0  0  0  0  0  0  0  0  0
    5.8862  -21.4289   16.7060 C   0  0  0  0  0  0  0  0  0  0  0  0
    5.6023  -22.7818   17.1582 N   0  0  0  0  0  0  0  0  0  0  0  0
    8.7871  -16.4692   18.9103 C   0  0  0  0  0  0  0  0  0  0  0  0
   10.0507  -16.3868   19.0883 O   0  0  0  0  0  0  0  0  0  0  0  0
    6.4851  -15.0578   22.1276 O   0  0  0  0  0  0  0  0  0  0  0  0
    7.5045  -14.2516   21.6931 C   0  0  0  0  0  0  0  0  0  0  0  0
    8.5778  -15.0924   21.0279 C   0  0  2  0  0  0  0  0  0  0  0  0
    7.9880  -15.8382   19.9071 N   0  0  0  0  0  0  0  0  0  0  0  0
    9.2171  -16.0483   21.9604 C   0  0  0  0  0  0  0  0  0  0  0  0
    8.7086  -17.2141   22.0984 O   0  0  0  0  0  0  0  0  0  0  0  0
   10.3651  -15.7560   22.7170 N   0  0  0  0  0  0  0  0  0  0  0  0
   10.8844  -16.7383   23.7621 C   0  0  1  0  0  0  0  0  0  0  0  0
   12.3479  -16.5981   23.7549 C   0  0  0  0  0  0  0  0  0  0  0  0
   13.2280  -17.5985   23.1785 C   0  0  0  0  0  0  0  0  0  0  0  0
   14.0310  -17.3950   21.9716 C   0  0  0  0  0  0  0  0  0  0  0  0
   14.8431  -18.7217   21.7780 C   0  0  0  0  0  0  0  0  0  0  0  0
   15.6565  -18.6062   20.5977 N   0  0  0  0  0  0  0  0  0  0  0  0
   10.1698  -16.3705   24.9711 C   0  0  0  0  0  0  0  0  0  0  0  0
    9.4989  -15.2603   24.9809 O   0  0  0  0  0  0  0  0  0  0  0  0
   10.1490  -17.1327   26.1136 O   0  0  0  0  0  0  0  0  0  0  0  0
  2  1  1  6
  3  2  1  0
  4  3  1  0
  5  6  1  0
  5  4  1  0
  7  6  1  0
  8  2  1  0
  8  9  2  0
 12 11  1  1
 11 10  1  0
 12 13  1  0
 13  8  1  0
 14 12  1  0
 15 14  2  0
 16 14  1  0
 17 23  1  0
 17 16  1  0
 17 18  1  1
 19 20  1  0
 19 18  1  0
 21 20  1  0
 21 22  1  0
 23 25  1  0
 24 23  2  0
M  END
$$$$
