KSK.pdb
     RDKit          3D

 25 24  0  0  1  0  0  0  0  0999 V2000
    3.3754  -20.1676   20.3005 N   0  0  0  0  0  0  0  0  0  0  0  0
    3.4357  -18.9429   21.0747 C   0  0  1  0  0  0  0  0  0  0  0  0
    2.9887  -19.1556   22.4988 C   0  0  0  0  0  0  0  0  0  0  0  0
    1.4965  -19.1450   22.6603 C   0  0  0  0  0  0  0  0  0  0  0  0
    0.8731  -20.2950   21.9303 C   0  0  0  0  0  0  0  0  0  0  0  0
   -0.6170  -20.2741   22.2192 C   0  0  0  0  0  0  0  0  0  0  0  0
   -1.2465  -21.4585   21.6566 N   0  0  0  0  0  0  0  0  0  0  0  0
    4.8644  -18.5229   21.1278 C   0  0  0  0  0  0  0  0  0  0  0  0
    5.8189  -19.3708   21.0570 O   0  0  0  0  0  0  0  0  0  0  0  0
    6.0843  -14.5573   21.8638 O   0  0  0  0  0  0  0  0  0  0  0  0
    6.7641  -15.2713   20.9119 C   0  0  0  0  0  0  0  0  0  0  0  0
    6.6772  -16.7540   21.2210 C   0  0  2  0  0  0  0  0  0  0  0  0
    5.2657  -17.1620   21.2595 N   0  0  0  0  0  0  0  0  0  0  0  0
    7.3177  -17.1099   22.5073 C   0  0  0  0  0  0  0  0  0  0  0  0
    6.6609  -16.9470   23.5931 O   0  0  0  0  0  0  0  0  0  0  0  0
    8.6214  -17.6239   22.6177 N   0  0  0  0  0  0  0  0  0  0  0  0
    9.2308  -17.9244   23.9835 C   0  0  1  0  0  0  0  0  0  0  0  0
    9.6957  -19.3177   23.9195 C   0  0  0  0  0  0  0  0  0  0  0  0
   10.4245  -19.9512   25.0035 C   0  0  0  0  0  0  0  0  0  0  0  0
   10.8448  -21.3534   25.0075 C   0  0  0  0  0  0  0  0  0  0  0  0
   11.4460  -21.6084   26.4325 C   0  0  0  0  0  0  0  0  0  0  0  0
   11.7889  -22.9995   26.5552 N   0  0  0  0  0  0  0  0  0  0  0  0
   10.2249  -16.8810   24.1585 C   0  0  0  0  0  0  0  0  0  0  0  0
   10.6019  -16.5800   25.3627 O   0  0  0  0  0  0  0  0  0  0  0  0
   10.8056  -16.1911   23.1224 O   0  0  0  0  0  0  0  0  0  0  0  0
  2  1  1  6
  3  2  1  0
  4  3  1  0
  5  6  1  0
  5  4  1  0
  7  6  1  0
  8  2  1  0
  8  9  2  0
 12 11  1  1
 11 10  1  0
 12 13  1  0
 13  8  1  0
 14 12  1  0
 15 14  2  0
 16 14  1  0
 17 23  1  0
 17 16  1  0
 17 18  1  6
 19 20  1  0
 19 18  1  0
 21 20  1  0
 21 22  1  0
 23 25  1  0
 24 23  2  0
M  END
$$$$
