KSK.pdb
     RDKit          3D

 25 24  0  0  1  0  0  0  0  0999 V2000
   11.3088  -19.1100   16.8552 N   0  0  0  0  0  0  0  0  0  0  0  0
   11.2175  -20.1504   17.8612 C   0  0  1  0  0  0  0  0  0  0  0  0
   12.1535  -21.2963   17.5714 C   0  0  0  0  0  0  0  0  0  0  0  0
   11.8797  -21.9685   16.2576 C   0  0  0  0  0  0  0  0  0  0  0  0
   12.7302  -23.1910   16.0967 C   0  0  0  0  0  0  0  0  0  0  0  0
   12.3616  -23.8412   14.7754 C   0  0  0  0  0  0  0  0  0  0  0  0
   13.1174  -25.0716   14.6019 N   0  0  0  0  0  0  0  0  0  0  0  0
   11.6520  -19.5536   19.1557 C   0  0  0  0  0  0  0  0  0  0  0  0
   12.8185  -19.0525   19.3086 O   0  0  0  0  0  0  0  0  0  0  0  0
    9.0875  -19.3484   22.4201 O   0  0  0  0  0  0  0  0  0  0  0  0
   10.0227  -18.3532   22.3058 C   0  0  0  0  0  0  0  0  0  0  0  0
   11.2385  -18.8724   21.5616 C   0  0  2  0  0  0  0  0  0  0  0  0
   10.8091  -19.4986   20.3032 N   0  0  0  0  0  0  0  0  0  0  0  0
   12.0159  -19.8558   22.3493 C   0  0  0  0  0  0  0  0  0  0  0  0
   11.7396  -21.0997   22.2345 O   0  0  0  0  0  0  0  0  0  0  0  0
   13.0552  -19.5086   23.2298 N   0  0  0  0  0  0  0  0  0  0  0  0
   13.7612  -20.5721   24.0649 C   0  0  1  0  0  0  0  0  0  0  0  0
   15.1645  -20.1441   24.1597 C   0  0  0  0  0  0  0  0  0  0  0  0
   16.1854  -20.9442   24.8118 C   0  0  0  0  0  0  0  0  0  0  0  0
   17.6081  -20.6011   24.8439 C   0  0  0  0  0  0  0  0  0  0  0  0
   18.3006  -21.7530   25.6506 C   0  0  0  0  0  0  0  0  0  0  0  0
   19.7274  -21.6044   25.5501 N   0  0  0  0  0  0  0  0  0  0  0  0
   12.9812  -20.6290   25.2880 C   0  0  0  0  0  0  0  0  0  0  0  0
   12.2533  -19.6036   25.6070 O   0  0  0  0  0  0  0  0  0  0  0  0
   12.9550  -21.7113   26.1333 O   0  0  0  0  0  0  0  0  0  0  0  0
  2  1  1  6
  3  2  1  0
  4  3  1  0
  5  6  1  0
  5  4  1  0
  7  6  1  0
  8  2  1  0
  8  9  2  0
 12 11  1  1
 11 10  1  0
 12 13  1  0
 13  8  1  0
 14 12  1  0
 15 14  2  0
 16 14  1  0
 17 23  1  0
 17 16  1  0
 17 18  1  1
 19 20  1  0
 19 18  1  0
 21 20  1  0
 21 22  1  0
 23 25  1  0
 24 23  2  0
M  END
$$$$
