KSK.pdb
     RDKit          3D

 25 24  0  0  1  0  0  0  0  0999 V2000
    8.3141  -12.7321   18.4023 N   0  0  0  0  0  0  0  0  0  0  0  0
    7.7091  -13.8952   19.0219 C   0  0  1  0  0  0  0  0  0  0  0  0
    7.9206  -15.1428   18.2021 C   0  0  0  0  0  0  0  0  0  0  0  0
    9.2760  -15.2088   17.5608 C   0  0  0  0  0  0  0  0  0  0  0  0
    9.3785  -16.3950   16.6517 C   0  0  0  0  0  0  0  0  0  0  0  0
   10.7954  -16.4416   16.1090 C   0  0  0  0  0  0  0  0  0  0  0  0
   10.9640  -17.6154   15.2669 N   0  0  0  0  0  0  0  0  0  0  0  0
    8.3989  -14.1115   20.3249 C   0  0  0  0  0  0  0  0  0  0  0  0
    9.6741  -14.1092   20.4206 O   0  0  0  0  0  0  0  0  0  0  0  0
    6.3981  -15.3499   23.7620 O   0  0  0  0  0  0  0  0  0  0  0  0
    7.3725  -14.4066   23.9589 C   0  0  0  0  0  0  0  0  0  0  0  0
    8.3877  -14.4725   22.8335 C   0  0  2  0  0  0  0  0  0  0  0  0
    7.6959  -14.3339   21.5442 N   0  0  0  0  0  0  0  0  0  0  0  0
    9.1616  -15.7346   22.8329 C   0  0  0  0  0  0  0  0  0  0  0  0
    8.8345  -16.6620   22.0144 O   0  0  0  0  0  0  0  0  0  0  0  0
   10.2504  -15.9866   23.6854 N   0  0  0  0  0  0  0  0  0  0  0  0
   10.9513  -17.3414   23.6797 C   0  0  1  0  0  0  0  0  0  0  0  0
   12.2809  -17.1048   23.0986 C   0  0  0  0  0  0  0  0  0  0  0  0
   13.2075  -18.1812   22.7979 C   0  0  0  0  0  0  0  0  0  0  0  0
   14.5234  -17.9911   22.1855 C   0  0  0  0  0  0  0  0  0  0  0  0
   15.1457  -19.4253   22.0717 C   0  0  0  0  0  0  0  0  0  0  0  0
   16.4665  -19.3209   21.5127 N   0  0  0  0  0  0  0  0  0  0  0  0
   10.8789  -17.7768   25.0627 C   0  0  0  0  0  0  0  0  0  0  0  0
   10.4595  -16.9351   25.9562 O   0  0  0  0  0  0  0  0  0  0  0  0
   11.2194  -19.0368   25.4906 O   0  0  0  0  0  0  0  0  0  0  0  0
  2  1  1  6
  3  2  1  0
  4  3  1  0
  5  6  1  0
  5  4  1  0
  7  6  1  0
  8  2  1  0
  8  9  2  0
 12 11  1  1
 11 10  1  0
 12 13  1  0
 13  8  1  0
 14 12  1  0
 15 14  2  0
 16 14  1  0
 17 23  1  0
 17 16  1  0
 17 18  1  1
 19 20  1  0
 19 18  1  0
 21 20  1  0
 21 22  1  0
 23 25  1  0
 24 23  2  0
M  END
$$$$
