KSK.pdb
     RDKit          3D

 25 24  0  0  1  0  0  0  0  0999 V2000
   10.0125  -18.8181   17.4973 N   0  0  0  0  0  0  0  0  0  0  0  0
   10.6426  -18.7358   18.8008 C   0  0  1  0  0  0  0  0  0  0  0  0
   11.7505  -17.7135   18.8261 C   0  0  0  0  0  0  0  0  0  0  0  0
   12.9426  -18.1099   18.0048 C   0  0  0  0  0  0  0  0  0  0  0  0
   13.9550  -17.0065   17.9672 C   0  0  0  0  0  0  0  0  0  0  0  0
   15.0115  -17.3817   16.9438 C   0  0  0  0  0  0  0  0  0  0  0  0
   15.9826  -16.3062   16.8185 N   0  0  0  0  0  0  0  0  0  0  0  0
    9.6052  -18.2735   19.7654 C   0  0  0  0  0  0  0  0  0  0  0  0
    8.5956  -17.5843   19.3899 O   0  0  0  0  0  0  0  0  0  0  0  0
    9.3059  -19.8569   23.6257 O   0  0  0  0  0  0  0  0  0  0  0  0
    8.2124  -19.4635   22.8994 C   0  0  0  0  0  0  0  0  0  0  0  0
    8.5569  -18.2390   22.0727 C   0  0  2  0  0  0  0  0  0  0  0  0
    9.6621  -18.5626   21.1595 N   0  0  0  0  0  0  0  0  0  0  0  0
    8.9422  -17.0761   22.9039 C   0  0  0  0  0  0  0  0  0  0  0  0
   10.1837  -16.8447   23.1089 O   0  0  0  0  0  0  0  0  0  0  0  0
    8.0199  -16.1938   23.4927 N   0  0  0  0  0  0  0  0  0  0  0  0
    8.4851  -15.0962   24.4444 C   0  0  1  0  0  0  0  0  0  0  0  0
    7.3302  -14.2049   24.6269 C   0  0  0  0  0  0  0  0  0  0  0  0
    7.3540  -13.0658   25.5266 C   0  0  0  0  0  0  0  0  0  0  0  0
    6.2592  -12.1049   25.6714 C   0  0  0  0  0  0  0  0  0  0  0  0
    6.7262  -11.0988   26.7790 C   0  0  0  0  0  0  0  0  0  0  0  0
    5.6756  -10.1474   27.0221 N   0  0  0  0  0  0  0  0  0  0  0  0
    8.9752  -15.8232   25.6014 C   0  0  0  0  0  0  0  0  0  0  0  0
    8.3493  -16.8985   25.9684 O   0  0  0  0  0  0  0  0  0  0  0  0
   10.0748  -15.4494   26.3350 O   0  0  0  0  0  0  0  0  0  0  0  0
  2  1  1  6
  3  2  1  0
  4  3  1  0
  5  6  1  0
  5  4  1  0
  7  6  1  0
  8  2  1  0
  8  9  2  0
 12 11  1  1
 11 10  1  0
 12 13  1  0
 13  8  1  0
 14 12  1  0
 15 14  2  0
 16 14  1  0
 17 23  1  0
 17 16  1  0
 17 18  1  1
 19 20  1  0
 19 18  1  0
 21 20  1  0
 21 22  1  0
 23 25  1  0
 24 23  2  0
M  END
$$$$
