KSK.pdb
     RDKit          3D

 25 24  0  0  1  0  0  0  0  0999 V2000
    4.2148  -21.8054   16.0164 N   0  0  0  0  0  0  0  0  0  0  0  0
    4.3858  -20.7509   16.9970 C   0  0  1  0  0  0  0  0  0  0  0  0
    3.5878  -21.0127   18.2492 C   0  0  0  0  0  0  0  0  0  0  0  0
    3.5378  -22.4641   18.6283 C   0  0  0  0  0  0  0  0  0  0  0  0
    3.6995  -22.6346   20.1078 C   0  0  0  0  0  0  0  0  0  0  0  0
    3.5505  -24.1120   20.4229 C   0  0  0  0  0  0  0  0  0  0  0  0
    3.6426  -24.3230   21.8590 N   0  0  0  0  0  0  0  0  0  0  0  0
    5.8224  -20.7437   17.3930 C   0  0  0  0  0  0  0  0  0  0  0  0
    6.6082  -21.7073   17.0947 O   0  0  0  0  0  0  0  0  0  0  0  0
    7.6305  -17.6330   19.6647 O   0  0  0  0  0  0  0  0  0  0  0  0
    8.3123  -18.2304   18.6370 C   0  0  0  0  0  0  0  0  0  0  0  0
    7.8448  -19.6645   18.4741 C   0  0  2  0  0  0  0  0  0  0  0  0
    6.4174  -19.6750   18.1240 N   0  0  0  0  0  0  0  0  0  0  0  0
    8.0482  -20.4759   19.6955 C   0  0  0  0  0  0  0  0  0  0  0  0
    7.1258  -20.5046   20.5816 O   0  0  0  0  0  0  0  0  0  0  0  0
    9.2065  -21.2302   19.9513 N   0  0  0  0  0  0  0  0  0  0  0  0
    9.3531  -22.0243   21.2454 C   0  0  1  0  0  0  0  0  0  0  0  0
   10.1952  -23.1830   20.9139 C   0  0  0  0  0  0  0  0  0  0  0  0
   10.5690  -24.1861   21.8946 C   0  0  0  0  0  0  0  0  0  0  0  0
   11.4110  -25.3485   21.6071 C   0  0  0  0  0  0  0  0  0  0  0  0
   11.5030  -26.1448   22.9542 C   0  0  0  0  0  0  0  0  0  0  0  0
   12.2144  -27.3735   22.7255 N   0  0  0  0  0  0  0  0  0  0  0  0
    9.8705  -21.0537   22.1929 C   0  0  0  0  0  0  0  0  0  0  0  0
    9.7054  -21.2761   23.4602 O   0  0  0  0  0  0  0  0  0  0  0  0
   10.5384  -19.9088   21.8329 O   0  0  0  0  0  0  0  0  0  0  0  0
  2  1  1  6
  3  2  1  0
  4  3  1  0
  5  6  1  0
  5  4  1  0
  7  6  1  0
  8  2  1  0
  8  9  2  0
 12 11  1  1
 11 10  1  0
 12 13  1  0
 13  8  1  0
 14 12  1  0
 15 14  2  0
 16 14  1  0
 17 23  1  0
 17 16  1  0
 17 18  1  6
 19 20  1  0
 19 18  1  0
 21 20  1  0
 21 22  1  0
 23 25  1  0
 24 23  2  0
M  END
$$$$
