KSK.pdb
     RDKit          3D

 25 24  0  0  1  0  0  0  0  0999 V2000
   10.0541  -18.0861   17.7573 N   0  0  0  0  0  0  0  0  0  0  0  0
    9.9123  -18.3810   19.1700 C   0  0  1  0  0  0  0  0  0  0  0  0
   10.2830  -19.8078   19.4865 C   0  0  0  0  0  0  0  0  0  0  0  0
   10.2419  -20.7112   18.2887 C   0  0  0  0  0  0  0  0  0  0  0  0
   11.5190  -21.4834   18.1592 C   0  0  0  0  0  0  0  0  0  0  0  0
   11.3843  -22.4036   16.9595 C   0  0  0  0  0  0  0  0  0  0  0  0
   12.6125  -23.1611   16.7770 N   0  0  0  0  0  0  0  0  0  0  0  0
   10.8753  -17.5111   19.9025 C   0  0  0  0  0  0  0  0  0  0  0  0
   12.0056  -17.1859   19.4006 O   0  0  0  0  0  0  0  0  0  0  0  0
   10.2743  -16.3663   23.8822 O   0  0  0  0  0  0  0  0  0  0  0  0
   10.8901  -15.4490   23.0714 C   0  0  0  0  0  0  0  0  0  0  0  0
   11.5855  -16.1597   21.9256 C   0  0  2  0  0  0  0  0  0  0  0  0
   10.6096  -16.9848   21.1997 N   0  0  0  0  0  0  0  0  0  0  0  0
   12.7027  -17.0193   22.3778 C   0  0  0  0  0  0  0  0  0  0  0  0
   12.4709  -18.2495   22.6417 O   0  0  0  0  0  0  0  0  0  0  0  0
   14.0238  -16.5669   22.5393 N   0  0  0  0  0  0  0  0  0  0  0  0
   15.1445  -17.5372   22.8990 C   0  0  1  0  0  0  0  0  0  0  0  0
   16.0532  -17.5496   21.7433 C   0  0  0  0  0  0  0  0  0  0  0  0
   17.0565  -18.5802   21.5463 C   0  0  0  0  0  0  0  0  0  0  0  0
   18.0699  -18.5551   20.4903 C   0  0  0  0  0  0  0  0  0  0  0  0
   18.9383  -19.8415   20.7099 C   0  0  0  0  0  0  0  0  0  0  0  0
   20.0385  -19.8288   19.7839 N   0  0  0  0  0  0  0  0  0  0  0  0
   15.6526  -17.0300   24.1608 C   0  0  0  0  0  0  0  0  0  0  0  0
   15.4752  -15.7759   24.4411 O   0  0  0  0  0  0  0  0  0  0  0  0
   16.3068  -17.8001   25.0912 O   0  0  0  0  0  0  0  0  0  0  0  0
  2  1  1  6
  3  2  1  0
  4  3  1  0
  5  6  1  0
  5  4  1  0
  7  6  1  0
  8  2  1  0
  8  9  2  0
 12 11  1  1
 11 10  1  0
 12 13  1  0
 13  8  1  0
 14 12  1  0
 15 14  2  0
 16 14  1  0
 17 23  1  0
 17 16  1  0
 17 18  1  6
 19 20  1  0
 19 18  1  0
 21 20  1  0
 21 22  1  0
 23 25  1  0
 24 23  2  0
M  END
$$$$
