KSK.pdb
     RDKit          3D

 25 24  0  0  1  0  0  0  0  0999 V2000
   11.4094  -16.5908   18.9741 N   0  0  0  0  0  0  0  0  0  0  0  0
   10.4425  -17.1706   19.8861 C   0  0  1  0  0  0  0  0  0  0  0  0
   10.7016  -18.6369   20.1226 C   0  0  0  0  0  0  0  0  0  0  0  0
   10.3296  -19.5013   18.9534 C   0  0  0  0  0  0  0  0  0  0  0  0
   10.6229  -20.9420   19.2407 C   0  0  0  0  0  0  0  0  0  0  0  0
   10.3328  -21.7344   17.9789 C   0  0  0  0  0  0  0  0  0  0  0  0
   10.7081  -23.1263   18.1719 N   0  0  0  0  0  0  0  0  0  0  0  0
   10.6062  -16.4850   21.1991 C   0  0  0  0  0  0  0  0  0  0  0  0
   11.7591  -16.1799   21.6606 O   0  0  0  0  0  0  0  0  0  0  0  0
    7.3706  -15.7329   23.7444 O   0  0  0  0  0  0  0  0  0  0  0  0
    8.3778  -14.8037   23.7376 C   0  0  0  0  0  0  0  0  0  0  0  0
    9.6815  -15.4606   23.3249 C   0  0  2  0  0  0  0  0  0  0  0  0
    9.5030  -16.1238   22.0255 N   0  0  0  0  0  0  0  0  0  0  0  0
   10.1604  -16.4543   24.3122 C   0  0  0  0  0  0  0  0  0  0  0  0
    9.8423  -17.6839   24.1587 O   0  0  0  0  0  0  0  0  0  0  0  0
   10.9551  -16.1320   25.4260 N   0  0  0  0  0  0  0  0  0  0  0  0
   11.4206  -17.2147   26.3945 C   0  0  1  0  0  0  0  0  0  0  0  0
   12.8888  -17.1387   26.4085 C   0  0  0  0  0  0  0  0  0  0  0  0
   13.7258  -18.2345   26.8626 C   0  0  0  0  0  0  0  0  0  0  0  0
   15.1839  -18.1684   26.9742 C   0  0  0  0  0  0  0  0  0  0  0  0
   15.6283  -19.5706   27.5160 C   0  0  0  0  0  0  0  0  0  0  0  0
   17.0649  -19.6306   27.5405 N   0  0  0  0  0  0  0  0  0  0  0  0
   10.7101  -16.9113   27.6236 C   0  0  0  0  0  0  0  0  0  0  0  0
   10.8817  -17.6899   28.6469 O   0  0  0  0  0  0  0  0  0  0  0  0
    9.8671  -15.8380   27.7793 O   0  0  0  0  0  0  0  0  0  0  0  0
  2  1  1  6
  3  2  1  0
  4  3  1  0
  5  6  1  0
  5  4  1  0
  7  6  1  0
  8  2  1  0
  8  9  2  0
 12 11  1  1
 11 10  1  0
 12 13  1  0
 13  8  1  0
 14 12  1  0
 15 14  2  0
 16 14  1  0
 17 23  1  0
 17 16  1  0
 17 18  1  1
 19 20  1  0
 19 18  1  0
 21 20  1  0
 21 22  1  0
 23 25  1  0
 24 23  2  0
M  END
$$$$
