KSK.pdb
     RDKit          3D

 25 24  0  0  1  0  0  0  0  0999 V2000
    9.0155  -16.2395   18.4349 N   0  0  0  0  0  0  0  0  0  0  0  0
    9.0986  -14.8830   18.9405 C   0  0  1  0  0  0  0  0  0  0  0  0
    8.1436  -13.9583   18.2291 C   0  0  0  0  0  0  0  0  0  0  0  0
    8.1563  -14.1251   16.7375 C   0  0  0  0  0  0  0  0  0  0  0  0
    7.3071  -13.0827   16.0772 C   0  0  0  0  0  0  0  0  0  0  0  0
    7.3213  -13.3517   14.5833 C   0  0  0  0  0  0  0  0  0  0  0  0
    6.5663  -12.3212   13.8880 N   0  0  0  0  0  0  0  0  0  0  0  0
    8.6827  -14.9176   20.3710 C   0  0  0  0  0  0  0  0  0  0  0  0
    8.6633  -13.8621   21.0926 O   0  0  0  0  0  0  0  0  0  0  0  0
    7.5980  -18.4722   22.3265 O   0  0  0  0  0  0  0  0  0  0  0  0
    6.8674  -17.3432   22.5907 C   0  0  0  0  0  0  0  0  0  0  0  0
    7.7325  -16.1125   22.3941 C   0  0  2  0  0  0  0  0  0  0  0  0
    8.2810  -16.1151   21.0305 N   0  0  0  0  0  0  0  0  0  0  0  0
    8.8489  -16.0359   23.3633 C   0  0  0  0  0  0  0  0  0  0  0  0
   10.0179  -16.4003   22.9926 O   0  0  0  0  0  0  0  0  0  0  0  0
    8.7084  -15.5813   24.6860 N   0  0  0  0  0  0  0  0  0  0  0  0
    9.8835  -15.6263   25.6577 C   0  0  1  0  0  0  0  0  0  0  0  0
    9.4862  -14.8025   26.8088 C   0  0  0  0  0  0  0  0  0  0  0  0
   10.2581  -14.7483   28.0372 C   0  0  0  0  0  0  0  0  0  0  0  0
    9.8925  -13.9487   29.2076 C   0  0  0  0  0  0  0  0  0  0  0  0
   11.0499  -14.1643   30.2426 C   0  0  0  0  0  0  0  0  0  0  0  0
   10.8095  -13.3376   31.3944 N   0  0  0  0  0  0  0  0  0  0  0  0
   10.1004  -17.0449   25.8765 C   0  0  0  0  0  0  0  0  0  0  0  0
   11.3161  -17.4687   26.0356 O   0  0  0  0  0  0  0  0  0  0  0  0
    9.0926  -17.9763   25.9365 O   0  0  0  0  0  0  0  0  0  0  0  0
  2  1  1  6
  3  2  1  0
  4  3  1  0
  5  6  1  0
  5  4  1  0
  7  6  1  0
  8  2  1  0
  8  9  2  0
 12 11  1  1
 11 10  1  0
 12 13  1  0
 13  8  1  0
 14 12  1  0
 15 14  2  0
 16 14  1  0
 17 23  1  0
 17 16  1  0
 17 18  1  1
 19 20  1  0
 19 18  1  0
 21 20  1  0
 21 22  1  0
 23 25  1  0
 24 23  2  0
M  END
$$$$
