KSK.pdb
     RDKit          3D

 25 24  0  0  1  0  0  0  0  0999 V2000
    9.2880  -16.8866   18.7683 N   0  0  0  0  0  0  0  0  0  0  0  0
    9.9306  -15.7327   19.3671 C   0  0  1  0  0  0  0  0  0  0  0  0
    9.7155  -14.4831   18.5514 C   0  0  0  0  0  0  0  0  0  0  0  0
    8.7061  -14.6570   17.4544 C   0  0  0  0  0  0  0  0  0  0  0  0
    8.6370  -13.4324   16.5943 C   0  0  0  0  0  0  0  0  0  0  0  0
    7.6790  -13.7214   15.4528 C   0  0  0  0  0  0  0  0  0  0  0  0
    7.6007  -12.5688   14.5692 N   0  0  0  0  0  0  0  0  0  0  0  0
    9.2837  -15.5028   20.6897 C   0  0  0  0  0  0  0  0  0  0  0  0
    9.5466  -14.4709   21.3978 O   0  0  0  0  0  0  0  0  0  0  0  0
    6.8908  -18.3842   22.6274 O   0  0  0  0  0  0  0  0  0  0  0  0
    6.5040  -17.0725   22.7164 C   0  0  0  0  0  0  0  0  0  0  0  0
    7.7125  -16.1680   22.5638 C   0  0  2  0  0  0  0  0  0  0  0  0
    8.3365  -16.4052   21.2545 N   0  0  0  0  0  0  0  0  0  0  0  0
    8.7230  -16.3778   23.6252 C   0  0  0  0  0  0  0  0  0  0  0  0
    9.7821  -17.0410   23.3507 O   0  0  0  0  0  0  0  0  0  0  0  0
    8.5951  -15.8884   24.9367 N   0  0  0  0  0  0  0  0  0  0  0  0
    9.6902  -16.1277   25.9713 C   0  0  1  0  0  0  0  0  0  0  0  0
    9.3965  -15.2163   27.0870 C   0  0  0  0  0  0  0  0  0  0  0  0
   10.1732  -15.2034   28.3135 C   0  0  0  0  0  0  0  0  0  0  0  0
    9.9417  -14.2828   29.4278 C   0  0  0  0  0  0  0  0  0  0  0  0
   11.0463  -14.6193   30.4879 C   0  0  0  0  0  0  0  0  0  0  0  0
   10.9072  -13.7297   31.6092 N   0  0  0  0  0  0  0  0  0  0  0  0
    9.6260  -17.5561   26.2224 C   0  0  0  0  0  0  0  0  0  0  0  0
   10.7084  -18.1701   26.5888 O   0  0  0  0  0  0  0  0  0  0  0  0
    8.4814  -18.3063   26.1058 O   0  0  0  0  0  0  0  0  0  0  0  0
  2  1  1  6
  3  2  1  0
  4  3  1  0
  5  6  1  0
  5  4  1  0
  7  6  1  0
  8  2  1  0
  8  9  2  0
 12 11  1  1
 11 10  1  0
 12 13  1  0
 13  8  1  0
 14 12  1  0
 15 14  2  0
 16 14  1  0
 17 23  1  0
 17 16  1  0
 17 18  1  1
 19 20  1  0
 19 18  1  0
 21 20  1  0
 21 22  1  0
 23 25  1  0
 24 23  2  0
M  END
$$$$
