KSK.pdb
     RDKit          3D

 25 24  0  0  1  0  0  0  0  0999 V2000
    7.7479  -13.1392   17.7719 N   0  0  0  0  0  0  0  0  0  0  0  0
    8.5814  -14.1556   18.3842 C   0  0  1  0  0  0  0  0  0  0  0  0
   10.0074  -13.6926   18.5430 C   0  0  0  0  0  0  0  0  0  0  0  0
   10.9135  -14.1756   17.4483 C   0  0  0  0  0  0  0  0  0  0  0  0
   11.4439  -15.5417   17.7589 C   0  0  0  0  0  0  0  0  0  0  0  0
   12.4284  -15.9161   16.6658 C   0  0  0  0  0  0  0  0  0  0  0  0
   11.7149  -16.1751   15.4252 N   0  0  0  0  0  0  0  0  0  0  0  0
    8.0496  -14.3971   19.7551 C   0  0  0  0  0  0  0  0  0  0  0  0
    7.8034  -13.4354   20.5612 O   0  0  0  0  0  0  0  0  0  0  0  0
    7.2961  -18.2675   21.2955 O   0  0  0  0  0  0  0  0  0  0  0  0
    6.5176  -17.2135   21.6968 C   0  0  0  0  0  0  0  0  0  0  0  0
    7.3218  -15.9284   21.6391 C   0  0  2  0  0  0  0  0  0  0  0  0
    7.7800  -15.7016   20.2611 N   0  0  0  0  0  0  0  0  0  0  0  0
    8.4955  -15.9456   22.5413 C   0  0  0  0  0  0  0  0  0  0  0  0
    9.6544  -16.1675   22.0469 O   0  0  0  0  0  0  0  0  0  0  0  0
    8.4207  -15.7305   23.9284 N   0  0  0  0  0  0  0  0  0  0  0  0
    9.6549  -15.8847   24.8116 C   0  0  1  0  0  0  0  0  0  0  0  0
    9.3820  -15.1015   26.0255 C   0  0  0  0  0  0  0  0  0  0  0  0
   10.3013  -15.0501   27.1480 C   0  0  0  0  0  0  0  0  0  0  0  0
   10.0385  -14.3361   28.3986 C   0  0  0  0  0  0  0  0  0  0  0  0
   11.3093  -14.5633   29.2878 C   0  0  0  0  0  0  0  0  0  0  0  0
   11.1720  -13.8087   30.5042 N   0  0  0  0  0  0  0  0  0  0  0  0
    9.8087  -17.3219   24.9472 C   0  0  0  0  0  0  0  0  0  0  0  0
    8.7440  -18.0629   24.9351 O   0  0  0  0  0  0  0  0  0  0  0  0
   11.0198  -17.9563   25.0791 O   0  0  0  0  0  0  0  0  0  0  0  0
  2  1  1  1
  3  2  1  0
  4  3  1  0
  5  6  1  0
  5  4  1  0
  7  6  1  0
  8  2  1  0
  8  9  2  0
 12 11  1  6
 11 10  1  0
 12 13  1  0
 13  8  1  0
 14 12  1  0
 15 14  2  0
 16 14  1  0
 17 23  1  0
 17 16  1  0
 17 18  1  1
 19 20  1  0
 19 18  1  0
 21 20  1  0
 21 22  1  0
 23 25  1  0
 24 23  2  0
M  END
$$$$
