KSK.pdb
     RDKit          3D

 25 24  0  0  1  0  0  0  0  0999 V2000
    8.5948  -16.1251   15.6634 N   0  0  0  0  0  0  0  0  0  0  0  0
    8.5903  -17.1276   16.7111 C   0  0  1  0  0  0  0  0  0  0  0  0
    9.6941  -18.1380   16.5272 C   0  0  0  0  0  0  0  0  0  0  0  0
    9.4746  -19.0499   15.3555 C   0  0  0  0  0  0  0  0  0  0  0  0
   10.5656  -20.0723   15.2637 C   0  0  0  0  0  0  0  0  0  0  0  0
   10.2447  -20.9889   14.0971 C   0  0  0  0  0  0  0  0  0  0  0  0
   11.2754  -22.0072   13.9703 N   0  0  0  0  0  0  0  0  0  0  0  0
    8.8574  -16.4243   17.9975 C   0  0  0  0  0  0  0  0  0  0  0  0
    9.9518  -15.7972   18.2078 O   0  0  0  0  0  0  0  0  0  0  0  0
    6.2550  -16.6121   21.3072 O   0  0  0  0  0  0  0  0  0  0  0  0
    6.8710  -15.4174   21.0401 C   0  0  0  0  0  0  0  0  0  0  0  0
    8.1829  -15.6645   20.3194 C   0  0  2  0  0  0  0  0  0  0  0  0
    7.9237  -16.4000   19.0736 N   0  0  0  0  0  0  0  0  0  0  0  0
    9.1516  -16.4281   21.1381 C   0  0  0  0  0  0  0  0  0  0  0  0
    9.2367  -17.6945   20.9774 O   0  0  0  0  0  0  0  0  0  0  0  0
    9.9989  -15.8451   22.0963 N   0  0  0  0  0  0  0  0  0  0  0  0
   10.9022  -16.7090   22.9708 C   0  0  1  0  0  0  0  0  0  0  0  0
   12.2338  -16.0887   22.9109 C   0  0  0  0  0  0  0  0  0  0  0  0
   13.3804  -16.7504   22.3149 C   0  0  0  0  0  0  0  0  0  0  0  0
   14.7330  -16.1916   22.2852 C   0  0  0  0  0  0  0  0  0  0  0  0
   15.6053  -17.2420   21.5152 C   0  0  0  0  0  0  0  0  0  0  0  0
   16.9594  -16.7635   21.4408 N   0  0  0  0  0  0  0  0  0  0  0  0
   10.2208  -16.7392   24.2523 C   0  0  0  0  0  0  0  0  0  0  0  0
    9.3011  -15.8547   24.4861 O   0  0  0  0  0  0  0  0  0  0  0  0
   10.4812  -17.6576   25.2399 O   0  0  0  0  0  0  0  0  0  0  0  0
  2  1  1  6
  3  2  1  0
  4  3  1  0
  5  6  1  0
  5  4  1  0
  7  6  1  0
  8  2  1  0
  8  9  2  0
 12 11  1  1
 11 10  1  0
 12 13  1  0
 13  8  1  0
 14 12  1  0
 15 14  2  0
 16 14  1  0
 17 23  1  0
 17 16  1  0
 17 18  1  1
 19 20  1  0
 19 18  1  0
 21 20  1  0
 21 22  1  0
 23 25  1  0
 24 23  2  0
M  END
$$$$
