KSK.pdb
     RDKit          3D

 25 24  0  0  1  0  0  0  0  0999 V2000
    6.6454  -20.0966   20.9845 N   0  0  0  0  0  0  0  0  0  0  0  0
    6.0310  -19.8028   22.2647 C   0  0  1  0  0  0  0  0  0  0  0  0
    5.5238  -21.0495   22.9442 C   0  0  0  0  0  0  0  0  0  0  0  0
    4.5080  -21.7973   22.1307 C   0  0  0  0  0  0  0  0  0  0  0  0
    4.0906  -23.0568   22.8260 C   0  0  0  0  0  0  0  0  0  0  0  0
    3.0868  -23.7666   21.9355 C   0  0  0  0  0  0  0  0  0  0  0  0
    2.6607  -25.0079   22.5625 N   0  0  0  0  0  0  0  0  0  0  0  0
    7.0904  -19.2316   23.1433 C   0  0  0  0  0  0  0  0  0  0  0  0
    8.3185  -19.5672   23.0232 O   0  0  0  0  0  0  0  0  0  0  0  0
    6.0710  -16.5203   25.9744 O   0  0  0  0  0  0  0  0  0  0  0  0
    7.3822  -16.3900   25.5977 C   0  0  0  0  0  0  0  0  0  0  0  0
    7.8769  -17.6921   24.9966 C   0  0  2  0  0  0  0  0  0  0  0  0
    6.8151  -18.2813   24.1687 N   0  0  0  0  0  0  0  0  0  0  0  0
    8.2911  -18.6760   26.0224 C   0  0  0  0  0  0  0  0  0  0  0  0
    7.3943  -19.3740   26.6099 O   0  0  0  0  0  0  0  0  0  0  0  0
    9.6266  -18.8988   26.4003 N   0  0  0  0  0  0  0  0  0  0  0  0
    9.9716  -19.8922   27.5054 C   0  0  1  0  0  0  0  0  0  0  0  0
   11.0391  -20.7446   26.9621 C   0  0  0  0  0  0  0  0  0  0  0  0
   11.6898  -21.7799   27.7447 C   0  0  0  0  0  0  0  0  0  0  0  0
   12.7055  -22.6950   27.2214 C   0  0  0  0  0  0  0  0  0  0  0  0
   13.1718  -23.5520   28.4483 C   0  0  0  0  0  0  0  0  0  0  0  0
   13.9377  -24.6728   27.9740 N   0  0  0  0  0  0  0  0  0  0  0  0
   10.2850  -19.0498   28.6454 C   0  0  0  0  0  0  0  0  0  0  0  0
   10.5838  -17.8054   28.4329 O   0  0  0  0  0  0  0  0  0  0  0  0
   10.2766  -19.4851   29.9482 O   0  0  0  0  0  0  0  0  0  0  0  0
  2  1  1  6
  3  2  1  0
  4  3  1  0
  5  6  1  0
  5  4  1  0
  7  6  1  0
  8  2  1  0
  8  9  2  0
 12 11  1  1
 11 10  1  0
 12 13  1  0
 13  8  1  0
 14 12  1  0
 15 14  2  0
 16 14  1  0
 17 23  1  0
 17 16  1  0
 17 18  1  6
 19 20  1  0
 19 18  1  0
 21 20  1  0
 21 22  1  0
 23 25  1  0
 24 23  2  0
M  END
$$$$
