QLF.pdb
     RDKit          3D

 29 29  0  0  1  0  0  0  0  0999 V2000
   12.0011  -15.6758   16.0340 N   0  0  0  0  0  0  0  0  0  0  0  0
   11.4995  -16.9901   15.8838 C   0  0  0  0  0  0  0  0  0  0  0  0
   11.0768  -17.3860   14.7778 O   0  0  0  0  0  0  0  0  0  0  0  0
   11.4792  -17.8966   17.0520 C   0  0  0  0  0  0  0  0  0  0  0  0
   12.1577  -17.2689   18.2561 C   0  0  0  0  0  0  0  0  0  0  0  0
   11.4909  -17.8458   19.4926 C   0  0  2  0  0  0  0  0  0  0  0  0
   10.3890  -18.6583   19.0663 N   0  0  0  0  0  0  0  0  0  0  0  0
   10.9694  -16.6984   20.2715 C   0  0  0  0  0  0  0  0  0  0  0  0
   11.7511  -15.8115   20.6640 O   0  0  0  0  0  0  0  0  0  0  0  0
    8.7725  -12.6327   20.6219 C   0  0  0  0  0  0  0  0  0  0  0  0
    7.6858  -13.4870   21.2085 C   0  0  1  0  0  0  0  0  0  0  0  0
    6.3446  -13.0811   20.5682 C   0  0  0  0  0  0  0  0  0  0  0  0
    7.8629  -14.9369   20.9948 C   0  0  0  0  0  0  0  0  0  0  0  0
    9.0986  -15.5874   21.4813 C   0  0  2  0  0  0  0  0  0  0  0  0
    9.5873  -16.6112   20.5684 N   0  0  0  0  0  0  0  0  0  0  0  0
    9.0135  -16.1654   22.8229 C   0  0  0  0  0  0  0  0  0  0  0  0
    8.7147  -17.3791   22.9582 O   0  0  0  0  0  0  0  0  0  0  0  0
    9.2552  -15.4379   24.0251 N   0  0  0  0  0  0  0  0  0  0  0  0
    9.1414  -16.1016   25.3092 C   0  0  1  0  0  0  0  0  0  0  0  0
    9.1816  -14.9703   26.3367 C   0  0  0  0  0  0  0  0  0  0  0  0
    8.0757  -14.0252   26.2097 C   0  0  0  0  0  0  0  0  0  0  0  0
    8.3117  -12.7763   25.6351 C   0  0  0  0  0  0  0  0  0  0  0  0
    7.2999  -11.8497   25.4917 C   0  0  0  0  0  0  0  0  0  0  0  0
    6.0134  -12.1250   25.9126 C   0  0  0  0  0  0  0  0  0  0  0  0
    5.7610  -13.3412   26.4775 C   0  0  0  0  0  0  0  0  0  0  0  0
    6.7798  -14.2610   26.6164 C   0  0  0  0  0  0  0  0  0  0  0  0
    7.9453  -16.9304   25.4617 C   0  0  0  0  0  0  0  0  0  0  0  0
    6.9429  -16.8351   24.6715 O   0  0  0  0  0  0  0  0  0  0  0  0
    7.7932  -17.8801   26.4606 O   0  0  0  0  0  0  0  0  0  0  0  0
  2  3  2  0
  2  1  1  0
  4  2  1  0
  5  4  1  0
  6  5  1  0
  6  7  1  6
  8  6  1  0
  9  8  2  0
 11 10  1  6
 11 13  1  0
 11 12  1  0
 14 13  1  6
 14 16  1  0
 14 15  1  0
 15  8  1  0
 16 18  1  0
 17 16  2  0
 18 19  1  0
 19 20  1  1
 19 27  1  0
 21 20  1  0
 22 21  2  0
 23 22  1  0
 24 25  1  0
 24 23  2  0
 25 26  2  0
 26 21  1  0
 27 28  2  0
 27 29  1  0
M  END
$$$$
