QLF.pdb
     RDKit          3D

 29 29  0  0  1  0  0  0  0  0999 V2000
    8.3716  -19.1975   16.4864 N   0  0  0  0  0  0  0  0  0  0  0  0
    8.6517  -20.2080   17.4361 C   0  0  0  0  0  0  0  0  0  0  0  0
    8.1102  -21.3295   17.3484 O   0  0  0  0  0  0  0  0  0  0  0  0
    9.5951  -19.9253   18.5392 C   0  0  0  0  0  0  0  0  0  0  0  0
    9.4210  -18.5153   19.0736 C   0  0  0  0  0  0  0  0  0  0  0  0
    9.5121  -18.5995   20.5872 C   0  0  2  0  0  0  0  0  0  0  0  0
    8.2122  -18.9300   21.0940 N   0  0  0  0  0  0  0  0  0  0  0  0
    9.8872  -17.2494   21.0685 C   0  0  0  0  0  0  0  0  0  0  0  0
   11.0281  -16.8058   20.8377 O   0  0  0  0  0  0  0  0  0  0  0  0
    6.7281  -12.9510   20.3441 C   0  0  0  0  0  0  0  0  0  0  0  0
    7.8806  -13.8956   20.5292 C   0  0  1  0  0  0  0  0  0  0  0  0
    9.1099  -13.3162   19.8032 C   0  0  0  0  0  0  0  0  0  0  0  0
    8.2614  -14.1301   21.9361 C   0  0  0  0  0  0  0  0  0  0  0  0
    9.3094  -15.1289   22.2379 C   0  0  2  0  0  0  0  0  0  0  0  0
    8.9515  -16.4669   21.7884 N   0  0  0  0  0  0  0  0  0  0  0  0
    9.7140  -15.2048   23.6420 C   0  0  0  0  0  0  0  0  0  0  0  0
   10.4881  -14.3333   24.1130 O   0  0  0  0  0  0  0  0  0  0  0  0
    9.2816  -16.2187   24.5464 N   0  0  0  0  0  0  0  0  0  0  0  0
    9.6783  -16.1642   25.9400 C   0  0  1  0  0  0  0  0  0  0  0  0
    8.3674  -16.0123   26.7118 C   0  0  0  0  0  0  0  0  0  0  0  0
    7.7104  -14.7254   26.5012 C   0  0  0  0  0  0  0  0  0  0  0  0
    6.6019  -14.6584   25.6572 C   0  0  0  0  0  0  0  0  0  0  0  0
    5.9461  -13.4667   25.4272 C   0  0  0  0  0  0  0  0  0  0  0  0
    6.3638  -12.2939   26.0253 C   0  0  0  0  0  0  0  0  0  0  0  0
    7.4464  -12.3373   26.8548 C   0  0  0  0  0  0  0  0  0  0  0  0
    8.0953  -13.5341   27.0783 C   0  0  0  0  0  0  0  0  0  0  0  0
   10.4472  -17.3211   26.3993 C   0  0  0  0  0  0  0  0  0  0  0  0
   10.8902  -17.4153   27.5964 O   0  0  0  0  0  0  0  0  0  0  0  0
   10.7594  -18.4037   25.5910 O   0  0  0  0  0  0  0  0  0  0  0  0
  2  3  2  0
  2  1  1  0
  4  2  1  0
  5  4  1  0
  6  5  1  0
  6  7  1  1
  8  6  1  0
  9  8  2  0
 11 10  1  1
 11 13  1  0
 11 12  1  0
 14 13  1  1
 14 16  1  0
 14 15  1  0
 15  8  1  0
 16 18  1  0
 17 16  2  0
 18 19  1  0
 19 20  1  1
 19 27  1  0
 21 20  1  0
 22 21  2  0
 23 22  1  0
 24 25  1  0
 24 23  2  0
 25 26  2  0
 26 21  1  0
 27 28  2  0
 27 29  1  0
M  END
$$$$
