QLF.pdb
     RDKit          3D

 29 29  0  0  1  0  0  0  0  0999 V2000
   12.2692  -21.9280   21.3424 N   0  0  0  0  0  0  0  0  0  0  0  0
   11.0113  -22.3825   20.8812 C   0  0  0  0  0  0  0  0  0  0  0  0
   10.8546  -23.5706   20.5311 O   0  0  0  0  0  0  0  0  0  0  0  0
    9.8772  -21.4356   20.8164 C   0  0  0  0  0  0  0  0  0  0  0  0
   10.2646  -20.0655   21.3426 C   0  0  0  0  0  0  0  0  0  0  0  0
    9.9264  -19.0603   20.2556 C   0  0  2  0  0  0  0  0  0  0  0  0
   10.9590  -19.1141   19.2623 N   0  0  0  0  0  0  0  0  0  0  0  0
    9.9398  -17.7223   20.8918 C   0  0  0  0  0  0  0  0  0  0  0  0
   11.0118  -17.2501   21.3156 O   0  0  0  0  0  0  0  0  0  0  0  0
    9.0139  -12.6722   20.7612 C   0  0  0  0  0  0  0  0  0  0  0  0
    7.7907  -13.3242   21.3387 C   0  0  1  0  0  0  0  0  0  0  0  0
    6.5447  -12.6650   20.7167 C   0  0  0  0  0  0  0  0  0  0  0  0
    7.6969  -14.7770   21.0945 C   0  0  0  0  0  0  0  0  0  0  0  0
    8.7516  -15.6636   21.6318 C   0  0  2  0  0  0  0  0  0  0  0  0
    8.7379  -16.9837   21.0174 N   0  0  0  0  0  0  0  0  0  0  0  0
    8.7475  -15.8293   23.0857 C   0  0  0  0  0  0  0  0  0  0  0  0
    7.9518  -16.6460   23.6152 O   0  0  0  0  0  0  0  0  0  0  0  0
    9.6052  -15.1178   23.9752 N   0  0  0  0  0  0  0  0  0  0  0  0
    9.5949  -15.4247   25.3923 C   0  0  1  0  0  0  0  0  0  0  0  0
    8.1208  -15.3627   25.7929 C   0  0  0  0  0  0  0  0  0  0  0  0
    7.6382  -14.0068   26.0397 C   0  0  0  0  0  0  0  0  0  0  0  0
    6.2703  -13.7469   25.9577 C   0  0  0  0  0  0  0  0  0  0  0  0
    5.7651  -12.4832   26.1835 C   0  0  0  0  0  0  0  0  0  0  0  0
    6.5970  -11.4268   26.4995 C   0  0  0  0  0  0  0  0  0  0  0  0
    7.9388  -11.6595   26.5848 C   0  0  0  0  0  0  0  0  0  0  0  0
    8.4340  -12.9269   26.3572 C   0  0  0  0  0  0  0  0  0  0  0  0
   10.1979  -16.7115   25.7404 C   0  0  0  0  0  0  0  0  0  0  0  0
   10.2728  -17.1260   26.9490 O   0  0  0  0  0  0  0  0  0  0  0  0
   10.7334  -17.5847   24.8058 O   0  0  0  0  0  0  0  0  0  0  0  0
  2  3  2  0
  2  1  1  0
  4  2  1  0
  5  4  1  0
  6  5  1  0
  6  7  1  6
  8  6  1  0
  9  8  2  0
 11 10  1  6
 11 13  1  0
 11 12  1  0
 14 13  1  6
 14 16  1  0
 14 15  1  0
 15  8  1  0
 16 18  1  0
 17 16  2  0
 18 19  1  0
 19 20  1  6
 19 27  1  0
 21 20  1  0
 22 21  2  0
 23 22  1  0
 24 25  1  0
 24 23  2  0
 25 26  2  0
 26 21  1  0
 27 28  2  0
 27 29  1  0
M  END
$$$$
