QLF.pdb
     RDKit          3D

 29 29  0  0  1  0  0  0  0  0999 V2000
    6.2220  -18.4017   16.8106 N   0  0  0  0  0  0  0  0  0  0  0  0
    7.0903  -17.6629   17.6483 C   0  0  0  0  0  0  0  0  0  0  0  0
    7.6680  -16.6418   17.2215 O   0  0  0  0  0  0  0  0  0  0  0  0
    7.3101  -18.1108   19.0405 C   0  0  0  0  0  0  0  0  0  0  0  0
    8.2288  -17.1643   19.7917 C   0  0  0  0  0  0  0  0  0  0  0  0
    8.4422  -17.7562   21.1740 C   0  0  2  0  0  0  0  0  0  0  0  0
    7.1554  -17.9867   21.7632 N   0  0  0  0  0  0  0  0  0  0  0  0
    9.1599  -16.7336   21.9705 C   0  0  0  0  0  0  0  0  0  0  0  0
   10.3021  -16.3733   21.6284 O   0  0  0  0  0  0  0  0  0  0  0  0
    6.2811  -13.3364   25.5709 C   0  0  0  0  0  0  0  0  0  0  0  0
    7.1582  -13.8387   24.4605 C   0  0  1  0  0  0  0  0  0  0  0  0
    7.5822  -12.6395   23.5910 C   0  0  0  0  0  0  0  0  0  0  0  0
    8.3872  -14.5214   24.9107 C   0  0  0  0  0  0  0  0  0  0  0  0
    9.2563  -15.1697   23.9051 C   0  0  2  0  0  0  0  0  0  0  0  0
    8.5488  -16.1687   23.1166 N   0  0  0  0  0  0  0  0  0  0  0  0
   10.4779  -15.7772   24.4341 C   0  0  0  0  0  0  0  0  0  0  0  0
   11.5964  -15.4005   24.0010 O   0  0  0  0  0  0  0  0  0  0  0  0
   10.4990  -16.7909   25.4366 N   0  0  0  0  0  0  0  0  0  0  0  0
   11.7640  -17.2518   25.9748 C   0  0  1  0  0  0  0  0  0  0  0  0
   12.3499  -16.0335   26.6887 C   0  0  0  0  0  0  0  0  0  0  0  0
   11.4283  -15.4105   27.6346 C   0  0  0  0  0  0  0  0  0  0  0  0
   11.2557  -15.9850   28.8938 C   0  0  0  0  0  0  0  0  0  0  0  0
   10.3977  -15.4335   29.8227 C   0  0  0  0  0  0  0  0  0  0  0  0
    9.6767  -14.2899   29.5394 C   0  0  0  0  0  0  0  0  0  0  0  0
    9.8309  -13.7119   28.3130 C   0  0  0  0  0  0  0  0  0  0  0  0
   10.6914  -14.2712   27.3911 C   0  0  0  0  0  0  0  0  0  0  0  0
   11.6606  -18.4060   26.8680 C   0  0  0  0  0  0  0  0  0  0  0  0
   12.6887  -18.9525   27.3997 O   0  0  0  0  0  0  0  0  0  0  0  0
   10.4573  -19.0018   27.2142 O   0  0  0  0  0  0  0  0  0  0  0  0
  2  3  2  0
  2  1  1  0
  4  2  1  0
  5  4  1  0
  6  5  1  0
  6  7  1  1
  8  6  1  0
  9  8  2  0
 11 10  1  1
 11 13  1  0
 11 12  1  0
 14 13  1  1
 14 16  1  0
 14 15  1  0
 15  8  1  0
 16 18  1  0
 17 16  2  0
 18 19  1  0
 19 20  1  1
 19 27  1  0
 21 20  1  0
 22 21  2  0
 23 22  1  0
 24 25  1  0
 24 23  2  0
 25 26  2  0
 26 21  1  0
 27 28  2  0
 27 29  1  0
M  END
$$$$
