QLF.pdb
     RDKit          3D

 29 29  0  0  1  0  0  0  0  0999 V2000
   15.4233  -17.8643   17.7924 N   0  0  0  0  0  0  0  0  0  0  0  0
   14.2071  -18.5753   17.6623 C   0  0  0  0  0  0  0  0  0  0  0  0
   13.7872  -18.9148   16.5367 O   0  0  0  0  0  0  0  0  0  0  0  0
   13.4326  -18.9156   18.8753 C   0  0  0  0  0  0  0  0  0  0  0  0
   12.8250  -17.6795   19.5133 C   0  0  0  0  0  0  0  0  0  0  0  0
   12.0104  -18.1498   20.7056 C   0  0  2  0  0  0  0  0  0  0  0  0
   10.9757  -19.0175   20.2237 N   0  0  0  0  0  0  0  0  0  0  0  0
   11.3887  -16.9439   21.3008 C   0  0  0  0  0  0  0  0  0  0  0  0
   12.1087  -16.0022   21.6835 O   0  0  0  0  0  0  0  0  0  0  0  0
    8.4445  -12.7113   21.6793 C   0  0  0  0  0  0  0  0  0  0  0  0
    7.5641  -13.9277   21.6792 C   0  0  1  0  0  0  0  0  0  0  0  0
    6.3812  -13.6757   20.7247 C   0  0  0  0  0  0  0  0  0  0  0  0
    8.2335  -15.1693   21.2439 C   0  0  0  0  0  0  0  0  0  0  0  0
    9.3697  -15.6867   22.0364 C   0  0  2  0  0  0  0  0  0  0  0  0
    9.9809  -16.8631   21.4340 N   0  0  0  0  0  0  0  0  0  0  0  0
    9.0692  -15.9866   23.4368 C   0  0  0  0  0  0  0  0  0  0  0  0
    8.4973  -17.0667   23.7315 O   0  0  0  0  0  0  0  0  0  0  0  0
    9.3887  -15.1246   24.5267 N   0  0  0  0  0  0  0  0  0  0  0  0
    9.1879  -15.5753   25.8901 C   0  0  1  0  0  0  0  0  0  0  0  0
    7.7084  -15.3137   26.1724 C   0  0  0  0  0  0  0  0  0  0  0  0
    7.3818  -13.8977   26.3164 C   0  0  0  0  0  0  0  0  0  0  0  0
    6.0565  -13.4879   26.1716 C   0  0  0  0  0  0  0  0  0  0  0  0
    5.6973  -12.1621   26.2997 C   0  0  0  0  0  0  0  0  0  0  0  0
    6.6387  -11.1900   26.5766 C   0  0  0  0  0  0  0  0  0  0  0  0
    7.9413  -11.5697   26.7220 C   0  0  0  0  0  0  0  0  0  0  0  0
    8.2901  -12.8981   26.5920 C   0  0  0  0  0  0  0  0  0  0  0  0
    9.5463  -16.9739   26.1274 C   0  0  0  0  0  0  0  0  0  0  0  0
    9.3808  -17.5380   27.2643 O   0  0  0  0  0  0  0  0  0  0  0  0
   10.0884  -17.8015   25.1558 O   0  0  0  0  0  0  0  0  0  0  0  0
  2  3  2  0
  2  1  1  0
  4  2  1  0
  5  4  1  0
  6  5  1  0
  6  7  1  6
  8  6  1  0
  9  8  2  0
 11 10  1  6
 11 13  1  0
 11 12  1  0
 14 13  1  6
 14 16  1  0
 14 15  1  0
 15  8  1  0
 16 18  1  0
 17 16  2  0
 18 19  1  0
 19 20  1  6
 19 27  1  0
 21 20  1  0
 22 21  2  0
 23 22  1  0
 24 25  1  0
 24 23  2  0
 25 26  2  0
 26 21  1  0
 27 28  2  0
 27 29  1  0
M  END
$$$$
