QLF.pdb
     RDKit          3D

 29 29  0  0  1  0  0  0  0  0999 V2000
   12.4566  -21.0369   20.0327 N   0  0  0  0  0  0  0  0  0  0  0  0
   11.2550  -21.5131   19.4572 C   0  0  0  0  0  0  0  0  0  0  0  0
   10.9362  -22.7161   19.5570 O   0  0  0  0  0  0  0  0  0  0  0  0
   10.3747  -20.5713   18.7328 C   0  0  0  0  0  0  0  0  0  0  0  0
   10.9596  -19.1708   18.7054 C   0  0  0  0  0  0  0  0  0  0  0  0
    9.7920  -18.2033   18.6223 C   0  0  2  0  0  0  0  0  0  0  0  0
    9.7608  -17.6558   17.2974 N   0  0  0  0  0  0  0  0  0  0  0  0
   10.0705  -17.1136   19.5868 C   0  0  0  0  0  0  0  0  0  0  0  0
   11.2147  -16.6260   19.6550 O   0  0  0  0  0  0  0  0  0  0  0  0
    6.4152  -13.0933   20.5063 C   0  0  0  0  0  0  0  0  0  0  0  0
    7.7179  -13.8172   20.3230 C   0  0  1  0  0  0  0  0  0  0  0  0
    8.8209  -12.7777   20.0465 C   0  0  0  0  0  0  0  0  0  0  0  0
    8.1420  -14.6207   21.4865 C   0  0  0  0  0  0  0  0  0  0  0  0
    9.3002  -15.5295   21.3460 C   0  0  2  0  0  0  0  0  0  0  0  0
    9.0391  -16.6290   20.4278 N   0  0  0  0  0  0  0  0  0  0  0  0
    9.8144  -16.0842   22.5986 C   0  0  0  0  0  0  0  0  0  0  0  0
    9.2322  -17.0643   23.1288 O   0  0  0  0  0  0  0  0  0  0  0  0
   10.9622  -15.5872   23.2831 N   0  0  0  0  0  0  0  0  0  0  0  0
   11.0021  -15.5963   24.7325 C   0  0  1  0  0  0  0  0  0  0  0  0
    9.9040  -14.6215   25.1580 C   0  0  0  0  0  0  0  0  0  0  0  0
    9.8886  -14.3475   26.5922 C   0  0  0  0  0  0  0  0  0  0  0  0
   10.7480  -15.0590   27.4292 C   0  0  0  0  0  0  0  0  0  0  0  0
   10.7719  -14.8357   28.7903 C   0  0  0  0  0  0  0  0  0  0  0  0
    9.9440  -13.8976   29.3754 C   0  0  0  0  0  0  0  0  0  0  0  0
    9.0952  -13.1905   28.5744 C   0  0  0  0  0  0  0  0  0  0  0  0
    9.0791  -13.4213   27.2144 C   0  0  0  0  0  0  0  0  0  0  0  0
   10.8202  -16.9159   25.3377 C   0  0  0  0  0  0  0  0  0  0  0  0
    9.7022  -17.5376   25.2975 O   0  0  0  0  0  0  0  0  0  0  0  0
   11.8283  -17.6015   25.9985 O   0  0  0  0  0  0  0  0  0  0  0  0
  2  3  2  0
  2  1  1  0
  4  2  1  0
  5  4  1  0
  6  5  1  0
  6  7  1  6
  8  6  1  0
  9  8  2  0
 11 10  1  1
 11 13  1  0
 11 12  1  0
 14 13  1  1
 14 16  1  0
 14 15  1  0
 15  8  1  0
 16 18  1  0
 17 16  2  0
 18 19  1  0
 19 20  1  1
 19 27  1  0
 21 20  1  0
 22 21  2  0
 23 22  1  0
 24 25  1  0
 24 23  2  0
 25 26  2  0
 26 21  1  0
 27 28  2  0
 27 29  1  0
M  END
$$$$
