QLF.pdb
     RDKit          3D

 29 29  0  0  1  0  0  0  0  0999 V2000
   13.5383  -17.2575   15.0316 N   0  0  0  0  0  0  0  0  0  0  0  0
   12.2202  -17.3887   15.5286 C   0  0  0  0  0  0  0  0  0  0  0  0
   11.2439  -17.0155   14.8458 O   0  0  0  0  0  0  0  0  0  0  0  0
   12.0055  -17.9743   16.8695 C   0  0  0  0  0  0  0  0  0  0  0  0
   11.8369  -16.8983   17.9268 C   0  0  0  0  0  0  0  0  0  0  0  0
   11.0736  -17.5250   19.0805 C   0  0  2  0  0  0  0  0  0  0  0  0
    9.8601  -18.0842   18.5602 N   0  0  0  0  0  0  0  0  0  0  0  0
   10.7350  -16.4267   20.0156 C   0  0  0  0  0  0  0  0  0  0  0  0
   11.6447  -15.8235   20.6157 O   0  0  0  0  0  0  0  0  0  0  0  0
    6.2056  -13.2089   19.3707 C   0  0  0  0  0  0  0  0  0  0  0  0
    7.6006  -13.6879   19.6522 C   0  0  1  0  0  0  0  0  0  0  0  0
    8.5439  -12.4697   19.6613 C   0  0  0  0  0  0  0  0  0  0  0  0
    7.7603  -14.3870   20.9425 C   0  0  0  0  0  0  0  0  0  0  0  0
    9.0386  -15.0714   21.2334 C   0  0  2  0  0  0  0  0  0  0  0  0
    9.3819  -16.0650   20.2258 N   0  0  0  0  0  0  0  0  0  0  0  0
    9.1246  -15.6999   22.5519 C   0  0  0  0  0  0  0  0  0  0  0  0
    9.8996  -16.6744   22.7258 O   0  0  0  0  0  0  0  0  0  0  0  0
    8.3784  -15.2770   23.6909 N   0  0  0  0  0  0  0  0  0  0  0  0
    8.8248  -15.6341   25.0234 C   0  0  1  0  0  0  0  0  0  0  0  0
    9.1545  -14.3002   25.6936 C   0  0  0  0  0  0  0  0  0  0  0  0
    9.6354  -14.4379   27.0655 C   0  0  0  0  0  0  0  0  0  0  0  0
   10.7558  -15.2298   27.3165 C   0  0  0  0  0  0  0  0  0  0  0  0
   11.2494  -15.3902   28.5947 C   0  0  0  0  0  0  0  0  0  0  0  0
   10.6510  -14.7714   29.6749 C   0  0  0  0  0  0  0  0  0  0  0  0
    9.5534  -13.9921   29.4512 C   0  0  0  0  0  0  0  0  0  0  0  0
    9.0677  -13.8381   28.1692 C   0  0  0  0  0  0  0  0  0  0  0  0
    7.8575  -16.4078   25.8021 C   0  0  0  0  0  0  0  0  0  0  0  0
    8.2098  -17.3772   26.5598 O   0  0  0  0  0  0  0  0  0  0  0  0
    6.4927  -16.1630   25.7897 O   0  0  0  0  0  0  0  0  0  0  0  0
  2  3  2  0
  2  1  1  0
  4  2  1  0
  5  4  1  0
  6  5  1  0
  6  7  1  6
  8  6  1  0
  9  8  2  0
 11 10  1  1
 11 13  1  0
 11 12  1  0
 14 13  1  6
 14 16  1  0
 14 15  1  0
 15  8  1  0
 16 18  1  0
 17 16  2  0
 18 19  1  0
 19 20  1  1
 19 27  1  0
 21 20  1  0
 22 21  2  0
 23 22  1  0
 24 25  1  0
 24 23  2  0
 25 26  2  0
 26 21  1  0
 27 28  2  0
 27 29  1  0
M  END
$$$$
