QLF.pdb
     RDKit          3D

 29 29  0  0  1  0  0  0  0  0999 V2000
    9.6831  -18.2532   16.3255 N   0  0  0  0  0  0  0  0  0  0  0  0
    8.7622  -17.6282   17.1990 C   0  0  0  0  0  0  0  0  0  0  0  0
    7.9860  -16.7457   16.7779 O   0  0  0  0  0  0  0  0  0  0  0  0
    8.7250  -18.0296   18.6218 C   0  0  0  0  0  0  0  0  0  0  0  0
    9.5685  -17.1071   19.4831 C   0  0  0  0  0  0  0  0  0  0  0  0
    9.3123  -17.4924   20.9296 C   0  0  2  0  0  0  0  0  0  0  0  0
    8.0374  -18.1452   20.9975 N   0  0  0  0  0  0  0  0  0  0  0  0
    9.2484  -16.2304   21.7031 C   0  0  0  0  0  0  0  0  0  0  0  0
   10.1806  -15.4081   21.6223 O   0  0  0  0  0  0  0  0  0  0  0  0
    6.9294  -12.1637   24.5418 C   0  0  0  0  0  0  0  0  0  0  0  0
    6.8056  -13.5320   25.1478 C   0  0  1  0  0  0  0  0  0  0  0  0
    5.4330  -13.6387   25.8395 C   0  0  0  0  0  0  0  0  0  0  0  0
    6.9066  -14.6425   24.1805 C   0  0  0  0  0  0  0  0  0  0  0  0
    8.2190  -14.9431   23.5689 C   0  0  2  0  0  0  0  0  0  0  0  0
    8.1314  -15.9609   22.5311 N   0  0  0  0  0  0  0  0  0  0  0  0
    9.2723  -15.3290   24.5084 C   0  0  0  0  0  0  0  0  0  0  0  0
   10.1915  -14.5152   24.7790 O   0  0  0  0  0  0  0  0  0  0  0  0
    9.3364  -16.5933   25.1645 N   0  0  0  0  0  0  0  0  0  0  0  0
   10.4948  -16.9358   25.9665 C   0  0  1  0  0  0  0  0  0  0  0  0
    9.9956  -16.8882   27.4107 C   0  0  0  0  0  0  0  0  0  0  0  0
   10.2838  -15.6270   28.0880 C   0  0  0  0  0  0  0  0  0  0  0  0
    9.5208  -14.5007   27.7803 C   0  0  0  0  0  0  0  0  0  0  0  0
    9.7531  -13.2871   28.3937 C   0  0  0  0  0  0  0  0  0  0  0  0
   10.7518  -13.1424   29.3369 C   0  0  0  0  0  0  0  0  0  0  0  0
   11.5101  -14.2321   29.6525 C   0  0  0  0  0  0  0  0  0  0  0  0
   11.2697  -15.4413   29.0334 C   0  0  0  0  0  0  0  0  0  0  0  0
   11.0975  -18.2292   25.6433 C   0  0  0  0  0  0  0  0  0  0  0  0
   10.5885  -19.0228   24.7777 O   0  0  0  0  0  0  0  0  0  0  0  0
   12.2577  -18.7036   26.2364 O   0  0  0  0  0  0  0  0  0  0  0  0
  2  3  2  0
  2  1  1  0
  4  2  1  0
  5  4  1  0
  6  5  1  0
  6  7  1  6
  8  6  1  0
  9  8  2  0
 11 10  1  6
 11 13  1  0
 11 12  1  0
 14 13  1  1
 14 16  1  0
 14 15  1  0
 15  8  1  0
 16 18  1  0
 17 16  2  0
 18 19  1  0
 19 20  1  1
 19 27  1  0
 21 20  1  0
 22 21  2  0
 23 22  1  0
 24 25  1  0
 24 23  2  0
 25 26  2  0
 26 21  1  0
 27 28  2  0
 27 29  1  0
M  END
$$$$
