QLF.pdb
     RDKit          3D

 29 29  0  0  1  0  0  0  0  0999 V2000
   10.4043  -20.7587   19.7240 N   0  0  0  0  0  0  0  0  0  0  0  0
    9.4279  -21.2596   20.6169 C   0  0  0  0  0  0  0  0  0  0  0  0
    9.1627  -22.4791   20.6490 O   0  0  0  0  0  0  0  0  0  0  0  0
    8.7198  -20.3238   21.5168 C   0  0  0  0  0  0  0  0  0  0  0  0
    9.1768  -18.8921   21.3031 C   0  0  0  0  0  0  0  0  0  0  0  0
    7.9314  -18.0230   21.3068 C   0  0  2  0  0  0  0  0  0  0  0  0
    7.6109  -17.6984   19.9474 N   0  0  0  0  0  0  0  0  0  0  0  0
    8.2815  -16.7777   22.0291 C   0  0  0  0  0  0  0  0  0  0  0  0
    9.2406  -16.0854   21.6386 O   0  0  0  0  0  0  0  0  0  0  0  0
    7.1960  -11.9771   24.3126 C   0  0  0  0  0  0  0  0  0  0  0  0
    6.9157  -13.1880   25.1551 C   0  0  1  0  0  0  0  0  0  0  0  0
    5.6378  -12.9283   25.9757 C   0  0  0  0  0  0  0  0  0  0  0  0
    6.7103  -14.4335   24.3897 C   0  0  0  0  0  0  0  0  0  0  0  0
    7.8910  -15.1704   23.8898 C   0  0  2  0  0  0  0  0  0  0  0  0
    7.5281  -16.3768   23.1594 N   0  0  0  0  0  0  0  0  0  0  0  0
    8.8825  -15.5246   24.9059 C   0  0  0  0  0  0  0  0  0  0  0  0
    8.7632  -15.0739   26.0734 O   0  0  0  0  0  0  0  0  0  0  0  0
   10.0051  -16.3710   24.6686 N   0  0  0  0  0  0  0  0  0  0  0  0
   11.2234  -16.1905   25.4338 C   0  0  1  0  0  0  0  0  0  0  0  0
   10.8745  -16.6761   26.8408 C   0  0  0  0  0  0  0  0  0  0  0  0
   10.4513  -15.6067   27.7405 C   0  0  0  0  0  0  0  0  0  0  0  0
   10.9280  -15.5928   29.0512 C   0  0  0  0  0  0  0  0  0  0  0  0
   10.5587  -14.6034   29.9387 C   0  0  0  0  0  0  0  0  0  0  0  0
    9.7016  -13.5881   29.5613 C   0  0  0  0  0  0  0  0  0  0  0  0
    9.2236  -13.5829   28.2832 C   0  0  0  0  0  0  0  0  0  0  0  0
    9.5990  -14.5770   27.4034 C   0  0  0  0  0  0  0  0  0  0  0  0
   12.3903  -16.8882   24.8932 C   0  0  0  0  0  0  0  0  0  0  0  0
   13.5667  -16.7221   25.3693 O   0  0  0  0  0  0  0  0  0  0  0  0
   12.3270  -17.7795   23.8328 O   0  0  0  0  0  0  0  0  0  0  0  0
  2  3  2  0
  2  1  1  0
  4  2  1  0
  5  4  1  0
  6  5  1  0
  6  7  1  6
  8  6  1  0
  9  8  2  0
 11 10  1  6
 11 13  1  0
 11 12  1  0
 14 13  1  1
 14 16  1  0
 14 15  1  0
 15  8  1  0
 16 18  1  0
 17 16  2  0
 18 19  1  0
 19 20  1  1
 19 27  1  0
 21 20  1  0
 22 21  2  0
 23 22  1  0
 24 25  1  0
 24 23  2  0
 25 26  2  0
 26 21  1  0
 27 28  2  0
 27 29  1  0
M  END
$$$$
