QLF.pdb
     RDKit          3D

 29 29  0  0  1  0  0  0  0  0999 V2000
   10.2245  -19.2121   16.8848 N   0  0  0  0  0  0  0  0  0  0  0  0
    9.0286  -18.5021   17.1441 C   0  0  0  0  0  0  0  0  0  0  0  0
    8.4628  -17.8581   16.2365 O   0  0  0  0  0  0  0  0  0  0  0  0
    8.4502  -18.5281   18.5049 C   0  0  0  0  0  0  0  0  0  0  0  0
    8.9311  -17.3532   19.3372 C   0  0  0  0  0  0  0  0  0  0  0  0
    8.9823  -17.8228   20.7805 C   0  0  2  0  0  0  0  0  0  0  0  0
    7.7138  -18.4081   21.1037 N   0  0  0  0  0  0  0  0  0  0  0  0
    9.1819  -16.6155   21.6159 C   0  0  0  0  0  0  0  0  0  0  0  0
   10.1824  -15.8962   21.4334 O   0  0  0  0  0  0  0  0  0  0  0  0
    7.6338  -12.2770   24.6470 C   0  0  0  0  0  0  0  0  0  0  0  0
    7.4065  -13.6395   25.2358 C   0  0  1  0  0  0  0  0  0  0  0  0
    6.0984  -13.6094   26.0492 C   0  0  0  0  0  0  0  0  0  0  0  0
    7.2906  -14.7253   24.2423 C   0  0  0  0  0  0  0  0  0  0  0  0
    8.5073  -15.1870   23.5400 C   0  0  2  0  0  0  0  0  0  0  0  0
    8.2383  -16.2815   22.6179 N   0  0  0  0  0  0  0  0  0  0  0  0
    9.6200  -15.5750   24.4075 C   0  0  0  0  0  0  0  0  0  0  0  0
   10.6175  -14.8174   24.5140 O   0  0  0  0  0  0  0  0  0  0  0  0
    9.6598  -16.7803   25.1681 N   0  0  0  0  0  0  0  0  0  0  0  0
   10.8461  -17.1174   25.9307 C   0  0  1  0  0  0  0  0  0  0  0  0
   10.3634  -17.2150   27.3780 C   0  0  0  0  0  0  0  0  0  0  0  0
   10.2525  -15.9213   28.0461 C   0  0  0  0  0  0  0  0  0  0  0  0
    9.0942  -15.1639   27.8723 C   0  0  0  0  0  0  0  0  0  0  0  0
    8.9410  -13.9365   28.4831 C   0  0  0  0  0  0  0  0  0  0  0  0
    9.9309  -13.4115   29.2908 C   0  0  0  0  0  0  0  0  0  0  0  0
   11.0723  -14.1364   29.4741 C   0  0  0  0  0  0  0  0  0  0  0  0
   11.2157  -15.3628   28.8588 C   0  0  0  0  0  0  0  0  0  0  0  0
   11.5185  -18.3431   25.4994 C   0  0  0  0  0  0  0  0  0  0  0  0
   12.5855  -18.7711   26.0620 O   0  0  0  0  0  0  0  0  0  0  0  0
   11.0662  -19.1397   24.4584 O   0  0  0  0  0  0  0  0  0  0  0  0
  2  3  2  0
  2  1  1  0
  4  2  1  0
  5  4  1  0
  6  5  1  0
  6  7  1  1
  8  6  1  0
  9  8  2  0
 11 10  1  6
 11 13  1  0
 11 12  1  0
 14 13  1  1
 14 16  1  0
 14 15  1  0
 15  8  1  0
 16 18  1  0
 17 16  2  0
 18 19  1  0
 19 20  1  1
 19 27  1  0
 21 20  1  0
 22 21  2  0
 23 22  1  0
 24 25  1  0
 24 23  2  0
 25 26  2  0
 26 21  1  0
 27 28  2  0
 27 29  1  0
M  END
$$$$
