QLF.pdb
     RDKit          3D

 29 29  0  0  1  0  0  0  0  0999 V2000
    8.2404  -22.7834   19.8075 N   0  0  0  0  0  0  0  0  0  0  0  0
    8.8039  -21.5170   20.0911 C   0  0  0  0  0  0  0  0  0  0  0  0
    9.7220  -21.0570   19.3812 O   0  0  0  0  0  0  0  0  0  0  0  0
    8.2950  -20.7377   21.2403 C   0  0  0  0  0  0  0  0  0  0  0  0
    9.1575  -19.5185   21.5124 C   0  0  0  0  0  0  0  0  0  0  0  0
    8.3200  -18.2976   21.1741 C   0  0  2  0  0  0  0  0  0  0  0  0
    8.2554  -18.1836   19.7462 N   0  0  0  0  0  0  0  0  0  0  0  0
    9.0390  -17.1221   21.7185 C   0  0  0  0  0  0  0  0  0  0  0  0
   10.0885  -16.7321   21.1727 O   0  0  0  0  0  0  0  0  0  0  0  0
    6.1983  -12.9097   23.6807 C   0  0  0  0  0  0  0  0  0  0  0  0
    7.1455  -13.8819   23.0385 C   0  0  1  0  0  0  0  0  0  0  0  0
    7.6671  -13.2638   21.7272 C   0  0  0  0  0  0  0  0  0  0  0  0
    8.3175  -14.2329   23.8647 C   0  0  0  0  0  0  0  0  0  0  0  0
    9.2385  -15.2883   23.3905 C   0  0  2  0  0  0  0  0  0  0  0  0
    8.5341  -16.4451   22.8555 N   0  0  0  0  0  0  0  0  0  0  0  0
   10.2142  -15.7550   24.3761 C   0  0  0  0  0  0  0  0  0  0  0  0
   11.2743  -15.1039   24.5567 O   0  0  0  0  0  0  0  0  0  0  0  0
   10.0486  -16.9241   25.1752 N   0  0  0  0  0  0  0  0  0  0  0  0
   11.0701  -17.2971   26.1343 C   0  0  1  0  0  0  0  0  0  0  0  0
   10.3626  -17.2628   27.4891 C   0  0  0  0  0  0  0  0  0  0  0  0
   10.0107  -15.9164   27.9313 C   0  0  0  0  0  0  0  0  0  0  0  0
    8.8540  -15.3178   27.4320 C   0  0  0  0  0  0  0  0  0  0  0  0
    8.4781  -14.0484   27.8200 C   0  0  0  0  0  0  0  0  0  0  0  0
    9.2348  -13.3222   28.7188 C   0  0  0  0  0  0  0  0  0  0  0  0
   10.3704  -13.8894   29.2194 C   0  0  0  0  0  0  0  0  0  0  0  0
   10.7376  -15.1594   28.8251 C   0  0  0  0  0  0  0  0  0  0  0  0
   11.6962  -18.5952   25.8821 C   0  0  0  0  0  0  0  0  0  0  0  0
   12.5857  -19.0872   26.6600 O   0  0  0  0  0  0  0  0  0  0  0  0
   11.3859  -19.3974   24.7945 O   0  0  0  0  0  0  0  0  0  0  0  0
  2  3  2  0
  2  1  1  0
  4  2  1  0
  5  4  1  0
  6  5  1  0
  6  7  1  6
  8  6  1  0
  9  8  2  0
 11 10  1  1
 11 13  1  0
 11 12  1  0
 14 13  1  1
 14 16  1  0
 14 15  1  0
 15  8  1  0
 16 18  1  0
 17 16  2  0
 18 19  1  0
 19 20  1  1
 19 27  1  0
 21 20  1  0
 22 21  2  0
 23 22  1  0
 24 25  1  0
 24 23  2  0
 25 26  2  0
 26 21  1  0
 27 28  2  0
 27 29  1  0
M  END
$$$$
