QLF.pdb
     RDKit          3D

 29 29  0  0  1  0  0  0  0  0999 V2000
   12.2535  -18.8188   16.8866 N   0  0  0  0  0  0  0  0  0  0  0  0
   11.2988  -19.8273   17.1573 C   0  0  0  0  0  0  0  0  0  0  0  0
   11.3719  -20.9388   16.5935 O   0  0  0  0  0  0  0  0  0  0  0  0
   10.2079  -19.5544   18.1176 C   0  0  0  0  0  0  0  0  0  0  0  0
   10.3144  -18.1563   18.6992 C   0  0  0  0  0  0  0  0  0  0  0  0
    9.9053  -18.2499   20.1587 C   0  0  2  0  0  0  0  0  0  0  0  0
    8.5087  -18.5708   20.2101 N   0  0  0  0  0  0  0  0  0  0  0  0
   10.1122  -16.9062   20.7476 C   0  0  0  0  0  0  0  0  0  0  0  0
   11.2638  -16.4388   20.8316 O   0  0  0  0  0  0  0  0  0  0  0  0
    6.5865  -12.7757   19.8961 C   0  0  0  0  0  0  0  0  0  0  0  0
    7.7931  -13.6452   20.1034 C   0  0  1  0  0  0  0  0  0  0  0  0
    9.0079  -12.9611   19.4476 C   0  0  0  0  0  0  0  0  0  0  0  0
    8.1315  -13.8975   21.5180 C   0  0  0  0  0  0  0  0  0  0  0  0
    9.2106  -14.8571   21.8367 C   0  0  2  0  0  0  0  0  0  0  0  0
    9.0043  -16.1566   21.2130 N   0  0  0  0  0  0  0  0  0  0  0  0
    9.4625  -15.0627   23.2633 C   0  0  0  0  0  0  0  0  0  0  0  0
   10.1615  -14.2315   23.8965 O   0  0  0  0  0  0  0  0  0  0  0  0
    8.9572  -16.1639   24.0152 N   0  0  0  0  0  0  0  0  0  0  0  0
    9.0937  -16.1794   25.4586 C   0  0  1  0  0  0  0  0  0  0  0  0
    7.6804  -15.9303   25.9856 C   0  0  0  0  0  0  0  0  0  0  0  0
    7.4145  -14.5311   26.3079 C   0  0  0  0  0  0  0  0  0  0  0  0
    6.1270  -14.0254   26.1291 C   0  0  0  0  0  0  0  0  0  0  0  0
    5.8253  -12.7112   26.4204 C   0  0  0  0  0  0  0  0  0  0  0  0
    6.7890  -11.8462   26.9008 C   0  0  0  0  0  0  0  0  0  0  0  0
    8.0553  -12.3208   27.0831 C   0  0  0  0  0  0  0  0  0  0  0  0
    8.3467  -13.6367   26.7887 C   0  0  0  0  0  0  0  0  0  0  0  0
    9.6659  -17.4114   26.0022 C   0  0  0  0  0  0  0  0  0  0  0  0
    9.8522  -18.4535   25.2828 O   0  0  0  0  0  0  0  0  0  0  0  0
   10.0528  -17.5579   27.3257 O   0  0  0  0  0  0  0  0  0  0  0  0
  2  3  2  0
  2  1  1  0
  4  2  1  0
  5  4  1  0
  6  5  1  0
  6  7  1  6
  8  6  1  0
  9  8  2  0
 11 10  1  1
 11 13  1  0
 11 12  1  0
 14 13  1  1
 14 16  1  0
 14 15  1  0
 15  8  1  0
 16 18  1  0
 17 16  2  0
 18 19  1  0
 19 20  1  1
 19 27  1  0
 21 20  1  0
 22 21  2  0
 23 22  1  0
 24 25  1  0
 24 23  2  0
 25 26  2  0
 26 21  1  0
 27 28  2  0
 27 29  1  0
M  END
$$$$
