QLF.pdb
     RDKit          3D

 29 29  0  0  1  0  0  0  0  0999 V2000
    9.5943  -19.1713   15.9531 N   0  0  0  0  0  0  0  0  0  0  0  0
    8.9108  -19.9102   16.9474 C   0  0  0  0  0  0  0  0  0  0  0  0
    8.7261  -21.1374   16.8120 O   0  0  0  0  0  0  0  0  0  0  0  0
    8.4140  -19.2152   18.1545 C   0  0  0  0  0  0  0  0  0  0  0  0
    9.5179  -18.4296   18.8389 C   0  0  0  0  0  0  0  0  0  0  0  0
    9.1829  -18.3906   20.3197 C   0  0  2  0  0  0  0  0  0  0  0  0
    7.7554  -18.3686   20.4529 N   0  0  0  0  0  0  0  0  0  0  0  0
    9.7351  -17.1219   20.8495 C   0  0  0  0  0  0  0  0  0  0  0  0
   10.9680  -16.9455   20.8704 O   0  0  0  0  0  0  0  0  0  0  0  0
    7.6430  -14.4016   19.4589 C   0  0  0  0  0  0  0  0  0  0  0  0
    8.3756  -13.3539   20.2465 C   0  0  1  0  0  0  0  0  0  0  0  0
    7.5444  -12.0567   20.2275 C   0  0  0  0  0  0  0  0  0  0  0  0
    8.6202  -13.7077   21.6587 C   0  0  0  0  0  0  0  0  0  0  0  0
    9.4052  -14.9222   21.9677 C   0  0  2  0  0  0  0  0  0  0  0  0
    8.8637  -16.1142   21.3303 N   0  0  0  0  0  0  0  0  0  0  0  0
    9.5890  -15.2015   23.3922 C   0  0  0  0  0  0  0  0  0  0  0  0
   10.4811  -14.5914   24.0345 O   0  0  0  0  0  0  0  0  0  0  0  0
    8.8080  -16.1373   24.1321 N   0  0  0  0  0  0  0  0  0  0  0  0
    9.0351  -16.3069   25.5541 C   0  0  1  0  0  0  0  0  0  0  0  0
    7.6811  -16.0159   26.2016 C   0  0  0  0  0  0  0  0  0  0  0  0
    7.4171  -14.5923   26.3908 C   0  0  0  0  0  0  0  0  0  0  0  0
    6.1683  -14.0800   26.0391 C   0  0  0  0  0  0  0  0  0  0  0  0
    5.8700  -12.7428   26.2000 C   0  0  0  0  0  0  0  0  0  0  0  0
    6.7986  -11.8603   26.7164 C   0  0  0  0  0  0  0  0  0  0  0  0
    8.0267  -12.3409   27.0669 C   0  0  0  0  0  0  0  0  0  0  0  0
    8.3151  -13.6799   26.9021 C   0  0  0  0  0  0  0  0  0  0  0  0
    9.5469  -17.6233   25.9355 C   0  0  0  0  0  0  0  0  0  0  0  0
    9.6522  -18.5846   25.0969 O   0  0  0  0  0  0  0  0  0  0  0  0
    9.9587  -17.9426   27.2206 O   0  0  0  0  0  0  0  0  0  0  0  0
  2  3  2  0
  2  1  1  0
  4  2  1  0
  5  4  1  0
  6  5  1  0
  6  7  1  6
  8  6  1  0
  9  8  2  0
 11 10  1  1
 11 13  1  0
 11 12  1  0
 14 13  1  1
 14 16  1  0
 14 15  1  0
 15  8  1  0
 16 18  1  0
 17 16  2  0
 18 19  1  0
 19 20  1  1
 19 27  1  0
 21 20  1  0
 22 21  2  0
 23 22  1  0
 24 25  1  0
 24 23  2  0
 25 26  2  0
 26 21  1  0
 27 28  2  0
 27 29  1  0
M  END
$$$$
