FND.pdb
     RDKit          3D

 28 28  0  0  1  0  0  0  0  0999 V2000
   21.1931  -10.8085  -19.6158 N   0  0  0  0  0  0  0  0  0  0  0  0
   21.7844   -9.8290  -18.7516 C   0  0  1  0  0  0  0  0  0  0  0  0
   22.4592   -8.7836  -19.6222 C   0  0  0  0  0  0  0  0  0  0  0  0
   23.6311   -9.3540  -20.3372 C   0  0  0  0  0  0  0  0  0  0  0  0
   23.9125   -8.8623  -21.5823 C   0  0  0  0  0  0  0  0  0  0  0  0
   24.9931   -9.3763  -22.2627 C   0  0  0  0  0  0  0  0  0  0  0  0
   25.7610  -10.3710  -21.6717 C   0  0  0  0  0  0  0  0  0  0  0  0
   25.4617  -10.8492  -20.4241 C   0  0  0  0  0  0  0  0  0  0  0  0
   24.3831  -10.3297  -19.7557 C   0  0  0  0  0  0  0  0  0  0  0  0
   20.7540   -9.0931  -17.9512 C   0  0  0  0  0  0  0  0  0  0  0  0
   19.6422   -8.8321  -18.4756 O   0  0  0  0  0  0  0  0  0  0  0  0
   18.2141  -10.1266  -15.2786 N   0  0  0  0  0  0  0  0  0  0  0  0
   19.1441   -9.8001  -14.2209 C   0  0  0  0  0  0  0  0  0  0  0  0
   19.0083  -10.4536  -13.1901 O   0  0  0  0  0  0  0  0  0  0  0  0
   20.0982   -8.7643  -14.5068 C   0  0  0  0  0  0  0  0  0  0  0  0
   20.0160   -7.9871  -15.7860 C   0  0  2  0  0  0  0  0  0  0  0  0
   21.0367   -8.7030  -16.6290 N   0  0  0  0  0  0  0  0  0  0  0  0
   20.4260   -6.5854  -15.7291 C   0  0  0  0  0  0  0  0  0  0  0  0
   21.6894   -6.3348  -15.6959 O   0  0  0  0  0  0  0  0  0  0  0  0
   19.5841   -5.4588  -15.7116 N   0  0  0  0  0  0  0  0  0  0  0  0
   20.1694   -4.1267  -15.7974 C   0  0  1  0  0  0  0  0  0  0  0  0
   21.1387   -4.0516  -16.9634 C   0  0  0  0  0  0  0  0  0  0  0  0
   21.4903   -2.6345  -17.1783 C   0  0  0  0  0  0  0  0  0  0  0  0
   21.9395   -1.9707  -16.2157 O   0  0  0  0  0  0  0  0  0  0  0  0
   19.0958   -3.1318  -15.8756 C   0  0  0  0  0  0  0  0  0  0  0  0
   18.0008   -3.3074  -16.4408 O   0  0  0  0  0  0  0  0  0  0  0  0
   21.3483   -1.9940  -18.3988 O   0  0  0  0  0  0  0  0  0  0  0  0
   19.3016   -1.8797  -15.2722 O   0  0  0  0  0  0  0  0  0  0  0  0
  2  1  1  6
  2  3  1  0
  3  4  1  0
  4  5  2  0
  5  6  1  0
  7  6  2  0
  8  7  1  0
  9  4  1  0
  9  8  2  0
 10 11  2  0
 10  2  1  0
 12 13  1  0
 13 14  2  0
 16 15  1  1
 15 13  1  0
 16 18  1  0
 16 17  1  0
 17 10  1  0
 18 20  1  0
 19 18  2  0
 20 21  1  0
 21 22  1  6
 22 23  1  0
 23 27  1  0
 24 23  2  0
 25 28  1  0
 25 21  1  0
 26 25  2  0
M  END
$$$$
