FND.pdb
     RDKit          3D

 28 28  0  0  1  0  0  0  0  0999 V2000
   21.9980  -10.1798  -16.2833 N   0  0  0  0  0  0  0  0  0  0  0  0
   21.9931  -10.3419  -14.8586 C   0  0  1  0  0  0  0  0  0  0  0  0
   23.3825  -10.7831  -14.4333 C   0  0  0  0  0  0  0  0  0  0  0  0
   23.7712  -12.0536  -15.1002 C   0  0  0  0  0  0  0  0  0  0  0  0
   23.3138  -13.2207  -14.5524 C   0  0  0  0  0  0  0  0  0  0  0  0
   23.6618  -14.4091  -15.1535 C   0  0  0  0  0  0  0  0  0  0  0  0
   24.4606  -14.3908  -16.2893 C   0  0  0  0  0  0  0  0  0  0  0  0
   24.9079  -13.2110  -16.8214 C   0  0  0  0  0  0  0  0  0  0  0  0
   24.5548  -12.0334  -16.2142 C   0  0  0  0  0  0  0  0  0  0  0  0
   21.7383   -9.0478  -14.1485 C   0  0  0  0  0  0  0  0  0  0  0  0
   21.7860   -9.0180  -12.8931 O   0  0  0  0  0  0  0  0  0  0  0  0
   20.8979   -3.8902  -13.4292 N   0  0  0  0  0  0  0  0  0  0  0  0
   22.0931   -4.3227  -14.1182 C   0  0  0  0  0  0  0  0  0  0  0  0
   22.9214   -3.4399  -14.3250 O   0  0  0  0  0  0  0  0  0  0  0  0
   22.1593   -5.7145  -14.4696 C   0  0  0  0  0  0  0  0  0  0  0  0
   20.9924   -6.6197  -14.2124 C   0  0  2  0  0  0  0  0  0  0  0  0
   21.4499   -7.8850  -14.8868 N   0  0  0  0  0  0  0  0  0  0  0  0
   19.7235   -6.2467  -14.8344 C   0  0  0  0  0  0  0  0  0  0  0  0
   19.6514   -6.2999  -16.1197 O   0  0  0  0  0  0  0  0  0  0  0  0
   18.5498   -5.8341  -14.1782 N   0  0  0  0  0  0  0  0  0  0  0  0
   17.3700   -5.4989  -14.9656 C   0  0  1  0  0  0  0  0  0  0  0  0
   16.1599   -6.2563  -14.4492 C   0  0  0  0  0  0  0  0  0  0  0  0
   14.9699   -5.7708  -15.1747 C   0  0  0  0  0  0  0  0  0  0  0  0
   14.1589   -5.0271  -14.5761 O   0  0  0  0  0  0  0  0  0  0  0  0
   17.1844   -4.0449  -14.9620 C   0  0  0  0  0  0  0  0  0  0  0  0
   17.4615   -3.2932  -14.0095 O   0  0  0  0  0  0  0  0  0  0  0  0
   14.6998   -6.0973  -16.4940 O   0  0  0  0  0  0  0  0  0  0  0  0
   16.6545   -3.4374  -16.1128 O   0  0  0  0  0  0  0  0  0  0  0  0
  2  1  1  6
  2  3  1  0
  3  4  1  0
  4  5  2  0
  5  6  1  0
  7  6  2  0
  8  7  1  0
  9  4  1  0
  9  8  2  0
 10 11  2  0
 10  2  1  0
 12 13  1  0
 13 14  2  0
 16 15  1  6
 15 13  1  0
 16 18  1  0
 16 17  1  0
 17 10  1  0
 18 20  1  0
 19 18  2  0
 20 21  1  0
 21 22  1  1
 22 23  1  0
 23 27  1  0
 24 23  2  0
 25 28  1  0
 25 21  1  0
 26 25  2  0
M  END
$$$$
