FND.pdb
     RDKit          3D

 28 28  0  0  1  0  0  0  0  0999 V2000
   13.8944  -10.0259   -9.5548 N   0  0  0  0  0  0  0  0  0  0  0  0
   14.6637   -8.8557   -9.8628 C   0  0  1  0  0  0  0  0  0  0  0  0
   15.2052   -8.2956   -8.5592 C   0  0  0  0  0  0  0  0  0  0  0  0
   14.2961   -7.2613   -7.9992 C   0  0  0  0  0  0  0  0  0  0  0  0
   13.0865   -7.6783   -7.5149 C   0  0  0  0  0  0  0  0  0  0  0  0
   12.2287   -6.7374   -6.9919 C   0  0  0  0  0  0  0  0  0  0  0  0
   12.6113   -5.4026   -6.9705 C   0  0  0  0  0  0  0  0  0  0  0  0
   13.8270   -5.0066   -7.4606 C   0  0  0  0  0  0  0  0  0  0  0  0
   14.6733   -5.9526   -7.9791 C   0  0  0  0  0  0  0  0  0  0  0  0
   15.8631   -9.1782  -10.7003 C   0  0  0  0  0  0  0  0  0  0  0  0
   16.5020  -10.2363  -10.4739 O   0  0  0  0  0  0  0  0  0  0  0  0
   18.6509   -9.6512  -15.0223 N   0  0  0  0  0  0  0  0  0  0  0  0
   17.2060   -9.6999  -15.0228 C   0  0  0  0  0  0  0  0  0  0  0  0
   16.7029  -10.1795  -16.0352 O   0  0  0  0  0  0  0  0  0  0  0  0
   16.5495   -9.1868  -13.8519 C   0  0  0  0  0  0  0  0  0  0  0  0
   17.3516   -8.6699  -12.6958 C   0  0  2  0  0  0  0  0  0  0  0  0
   16.2617   -8.3008  -11.7257 N   0  0  0  0  0  0  0  0  0  0  0  0
   18.1341   -7.4580  -12.9303 C   0  0  0  0  0  0  0  0  0  0  0  0
   17.4922   -6.3463  -13.0415 O   0  0  0  0  0  0  0  0  0  0  0  0
   19.5328   -7.3642  -13.0452 N   0  0  0  0  0  0  0  0  0  0  0  0
   20.1422   -6.0716  -13.3318 C   0  0  1  0  0  0  0  0  0  0  0  0
   21.6317   -6.1160  -13.0422 C   0  0  0  0  0  0  0  0  0  0  0  0
   22.2015   -4.7922  -13.3603 C   0  0  0  0  0  0  0  0  0  0  0  0
   23.1253   -4.7186  -14.2031 O   0  0  0  0  0  0  0  0  0  0  0  0
   19.8348   -5.6886  -14.7129 C   0  0  0  0  0  0  0  0  0  0  0  0
   19.9280   -6.4420  -15.6992 O   0  0  0  0  0  0  0  0  0  0  0  0
   21.7650   -3.6167  -12.7708 O   0  0  0  0  0  0  0  0  0  0  0  0
   19.4007   -4.3753  -14.9599 O   0  0  0  0  0  0  0  0  0  0  0  0
  2  1  1  1
  2  3  1  0
  3  4  1  0
  4  5  2  0
  5  6  1  0
  7  6  2  0
  8  7  1  0
  9  4  1  0
  9  8  2  0
 10 11  2  0
 10  2  1  0
 12 13  1  0
 13 14  2  0
 16 15  1  6
 15 13  1  0
 16 18  1  0
 16 17  1  0
 17 10  1  0
 18 20  1  0
 19 18  2  0
 20 21  1  0
 21 22  1  6
 22 23  1  0
 23 27  1  0
 24 23  2  0
 25 28  1  0
 25 21  1  0
 26 25  2  0
M  END
$$$$
