FND.pdb
     RDKit          3D

 28 28  0  0  1  0  0  0  0  0999 V2000
   27.0403  -13.5139  -17.0480 N   0  0  0  0  0  0  0  0  0  0  0  0
   26.2893  -12.5870  -16.2525 C   0  0  1  0  0  0  0  0  0  0  0  0
   27.2745  -11.7394  -15.4669 C   0  0  0  0  0  0  0  0  0  0  0  0
   28.2649  -11.0923  -16.3670 C   0  0  0  0  0  0  0  0  0  0  0  0
   27.9804   -9.8326  -16.8183 C   0  0  0  0  0  0  0  0  0  0  0  0
   28.8834   -9.2144  -17.6532 C   0  0  0  0  0  0  0  0  0  0  0  0
   30.0481   -9.8806  -18.0113 C   0  0  0  0  0  0  0  0  0  0  0  0
   30.3134  -11.1416  -17.5482 C   0  0  0  0  0  0  0  0  0  0  0  0
   29.4067  -11.7475  -16.7171 C   0  0  0  0  0  0  0  0  0  0  0  0
   25.5069  -11.6290  -17.0976 C   0  0  0  0  0  0  0  0  0  0  0  0
   25.8048  -11.4983  -18.3114 O   0  0  0  0  0  0  0  0  0  0  0  0
   22.0902   -9.3956  -19.6883 N   0  0  0  0  0  0  0  0  0  0  0  0
   21.7318  -10.5862  -18.9506 C   0  0  0  0  0  0  0  0  0  0  0  0
   20.8209  -11.2471  -19.4421 O   0  0  0  0  0  0  0  0  0  0  0  0
   22.4783  -10.8420  -17.7496 C   0  0  0  0  0  0  0  0  0  0  0  0
   23.6178   -9.9500  -17.3583 C   0  0  2  0  0  0  0  0  0  0  0  0
   24.4530  -10.8890  -16.5302 N   0  0  0  0  0  0  0  0  0  0  0  0
   23.2941   -8.8097  -16.5032 C   0  0  0  0  0  0  0  0  0  0  0  0
   23.2074   -9.0212  -15.2352 O   0  0  0  0  0  0  0  0  0  0  0  0
   23.0678   -7.4835  -16.9132 N   0  0  0  0  0  0  0  0  0  0  0  0
   22.8160   -6.4573  -15.9093 C   0  0  1  0  0  0  0  0  0  0  0  0
   23.2432   -5.0963  -16.4289 C   0  0  0  0  0  0  0  0  0  0  0  0
   22.9132   -4.0882  -15.4028 C   0  0  0  0  0  0  0  0  0  0  0  0
   22.4645   -4.4742  -14.2988 O   0  0  0  0  0  0  0  0  0  0  0  0
   21.4057   -6.5058  -15.5125 C   0  0  0  0  0  0  0  0  0  0  0  0
   20.9833   -6.3178  -14.3569 O   0  0  0  0  0  0  0  0  0  0  0  0
   23.0745   -2.7259  -15.5978 O   0  0  0  0  0  0  0  0  0  0  0  0
   20.4447   -6.7845  -16.4989 O   0  0  0  0  0  0  0  0  0  0  0  0
  2  1  1  6
  2  3  1  0
  3  4  1  0
  4  5  2  0
  5  6  1  0
  7  6  2  0
  8  7  1  0
  9  4  1  0
  9  8  2  0
 10 11  2  0
 10  2  1  0
 12 13  1  0
 13 14  2  0
 16 15  1  1
 15 13  1  0
 16 18  1  0
 16 17  1  0
 17 10  1  0
 18 20  1  0
 19 18  2  0
 20 21  1  0
 21 22  1  6
 22 23  1  0
 23 27  1  0
 24 23  2  0
 25 28  1  0
 25 21  1  0
 26 25  2  0
M  END
$$$$
