FND.pdb
     RDKit          3D

 28 28  0  0  1  0  0  0  0  0999 V2000
   28.8001  -21.3665   -8.9034 N   0  0  0  0  0  0  0  0  0  0  0  0
   27.4360  -20.9252   -8.9248 C   0  0  1  0  0  0  0  0  0  0  0  0
   27.3664  -19.5865   -8.2114 C   0  0  0  0  0  0  0  0  0  0  0  0
   27.7489  -19.7185   -6.7809 C   0  0  0  0  0  0  0  0  0  0  0  0
   26.9556  -20.4975   -5.9839 C   0  0  0  0  0  0  0  0  0  0  0  0
   27.2910  -20.6337   -4.6558 C   0  0  0  0  0  0  0  0  0  0  0  0
   28.4153  -19.9823   -4.1660 C   0  0  0  0  0  0  0  0  0  0  0  0
   29.1959  -19.2071   -4.9813 C   0  0  0  0  0  0  0  0  0  0  0  0
   28.8521  -19.0787   -6.3025 C   0  0  0  0  0  0  0  0  0  0  0  0
   26.9508  -20.6726  -10.3193 C   0  0  0  0  0  0  0  0  0  0  0  0
   27.7530  -20.2217  -11.1750 O   0  0  0  0  0  0  0  0  0  0  0  0
   26.4437  -22.5541  -14.7792 N   0  0  0  0  0  0  0  0  0  0  0  0
   25.2608  -22.5964  -13.9489 C   0  0  0  0  0  0  0  0  0  0  0  0
   24.2303  -22.9261  -14.5298 O   0  0  0  0  0  0  0  0  0  0  0  0
   25.4392  -22.2511  -12.5655 C   0  0  0  0  0  0  0  0  0  0  0  0
   25.1309  -20.8661  -12.0818 C   0  0  2  0  0  0  0  0  0  0  0  0
   25.6113  -20.9402  -10.6574 N   0  0  0  0  0  0  0  0  0  0  0  0
   23.7199  -20.4883  -12.0307 C   0  0  0  0  0  0  0  0  0  0  0  0
   23.1052  -20.6303  -10.9073 O   0  0  0  0  0  0  0  0  0  0  0  0
   22.9444  -19.9732  -13.0850 N   0  0  0  0  0  0  0  0  0  0  0  0
   21.5504  -19.6227  -12.8430 C   0  0  1  0  0  0  0  0  0  0  0  0
   21.1595  -18.4142  -13.6743 C   0  0  0  0  0  0  0  0  0  0  0  0
   19.7204  -18.1602  -13.4677 C   0  0  0  0  0  0  0  0  0  0  0  0
   19.3259  -17.8081  -12.3321 O   0  0  0  0  0  0  0  0  0  0  0  0
   20.7070  -20.7943  -13.0972 C   0  0  0  0  0  0  0  0  0  0  0  0
   20.8811  -21.6114  -14.0198 O   0  0  0  0  0  0  0  0  0  0  0  0
   18.7746  -18.2921  -14.4717 O   0  0  0  0  0  0  0  0  0  0  0  0
   19.6149  -21.0276  -12.2444 O   0  0  0  0  0  0  0  0  0  0  0  0
  2  1  1  6
  2  3  1  0
  3  4  1  0
  4  5  2  0
  5  6  1  0
  7  6  2  0
  8  7  1  0
  9  4  1  0
  9  8  2  0
 10 11  2  0
 10  2  1  0
 12 13  1  0
 13 14  2  0
 16 15  1  1
 15 13  1  0
 16 18  1  0
 16 17  1  0
 17 10  1  0
 18 20  1  0
 19 18  2  0
 20 21  1  0
 21 22  1  6
 22 23  1  0
 23 27  1  0
 24 23  2  0
 25 28  1  0
 25 21  1  0
 26 25  2  0
M  END
$$$$
