FND.pdb
     RDKit          3D

 28 28  0  0  1  0  0  0  0  0999 V2000
   27.5872  -22.3412  -11.5515 N   0  0  0  0  0  0  0  0  0  0  0  0
   26.5837  -21.5310  -10.9251 C   0  0  1  0  0  0  0  0  0  0  0  0
   27.1780  -20.1547  -10.6825 C   0  0  0  0  0  0  0  0  0  0  0  0
   27.6093  -19.9964   -9.2688 C   0  0  0  0  0  0  0  0  0  0  0  0
   26.7007  -19.4827   -8.3845 C   0  0  0  0  0  0  0  0  0  0  0  0
   27.0789  -19.3272   -7.0701 C   0  0  0  0  0  0  0  0  0  0  0  0
   28.3609  -19.6929   -6.6813 C   0  0  0  0  0  0  0  0  0  0  0  0
   29.2551  -20.2053   -7.5829 C   0  0  0  0  0  0  0  0  0  0  0  0
   28.8673  -20.3557   -8.8895 C   0  0  0  0  0  0  0  0  0  0  0  0
   25.4002  -21.3152  -11.8177 C   0  0  0  0  0  0  0  0  0  0  0  0
   25.5629  -21.3229  -13.0637 O   0  0  0  0  0  0  0  0  0  0  0  0
   20.1094  -21.3730  -12.7373 N   0  0  0  0  0  0  0  0  0  0  0  0
   20.4374  -21.4379  -11.3307 C   0  0  0  0  0  0  0  0  0  0  0  0
   19.4768  -21.5843  -10.5797 O   0  0  0  0  0  0  0  0  0  0  0  0
   21.8297  -21.3241  -10.9938 C   0  0  0  0  0  0  0  0  0  0  0  0
   22.8721  -21.2910  -12.0707 C   0  0  2  0  0  0  0  0  0  0  0  0
   24.1257  -21.1073  -11.2584 N   0  0  0  0  0  0  0  0  0  0  0  0
   22.8107  -20.1715  -13.0084 C   0  0  0  0  0  0  0  0  0  0  0  0
   23.4074  -19.0798  -12.6731 O   0  0  0  0  0  0  0  0  0  0  0  0
   22.1681  -20.1513  -14.2593 N   0  0  0  0  0  0  0  0  0  0  0  0
   22.2516  -18.9548  -15.0874 C   0  0  1  0  0  0  0  0  0  0  0  0
   23.6661  -18.7723  -15.6076 C   0  0  0  0  0  0  0  0  0  0  0  0
   23.8476  -19.6652  -16.7687 C   0  0  0  0  0  0  0  0  0  0  0  0
   23.5950  -19.2258  -17.9142 O   0  0  0  0  0  0  0  0  0  0  0  0
   21.2509  -19.0361  -16.1554 C   0  0  0  0  0  0  0  0  0  0  0  0
   20.8808  -18.0791  -16.8600 O   0  0  0  0  0  0  0  0  0  0  0  0
   24.2859  -20.9749  -16.6576 O   0  0  0  0  0  0  0  0  0  0  0  0
   20.6543  -20.2810  -16.4170 O   0  0  0  0  0  0  0  0  0  0  0  0
  2  1  1  6
  2  3  1  0
  3  4  1  0
  4  5  2  0
  5  6  1  0
  7  6  2  0
  8  7  1  0
  9  4  1  0
  9  8  2  0
 10 11  2  0
 10  2  1  0
 12 13  1  0
 13 14  2  0
 16 15  1  1
 15 13  1  0
 16 18  1  0
 16 17  1  0
 17 10  1  0
 18 20  1  0
 19 18  2  0
 20 21  1  0
 21 22  1  6
 22 23  1  0
 23 27  1  0
 24 23  2  0
 25 28  1  0
 25 21  1  0
 26 25  2  0
M  END
$$$$
