FND.pdb
     RDKit          3D

 28 28  0  0  1  0  0  0  0  0999 V2000
   28.7202  -20.9577   -8.8914 N   0  0  0  0  0  0  0  0  0  0  0  0
   27.3039  -20.7343   -8.8805 C   0  0  1  0  0  0  0  0  0  0  0  0
   27.0401  -19.4413   -8.1291 C   0  0  0  0  0  0  0  0  0  0  0  0
   27.5583  -19.5123   -6.7376 C   0  0  0  0  0  0  0  0  0  0  0  0
   26.8183  -20.2096   -5.8223 C   0  0  0  0  0  0  0  0  0  0  0  0
   27.2793  -20.2881   -4.5277 C   0  0  0  0  0  0  0  0  0  0  0  0
   28.4722  -19.6630   -4.1893 C   0  0  0  0  0  0  0  0  0  0  0  0
   29.1976  -18.9699   -5.1212 C   0  0  0  0  0  0  0  0  0  0  0  0
   28.7287  -18.8984   -6.4077 C   0  0  0  0  0  0  0  0  0  0  0  0
   26.7591  -20.5254  -10.2602 C   0  0  0  0  0  0  0  0  0  0  0  0
   27.3575  -19.7464  -11.0439 O   0  0  0  0  0  0  0  0  0  0  0  0
   25.0760  -24.1766  -14.2776 N   0  0  0  0  0  0  0  0  0  0  0  0
   25.1808  -22.7623  -13.9965 C   0  0  0  0  0  0  0  0  0  0  0  0
   24.9643  -22.0250  -14.9545 O   0  0  0  0  0  0  0  0  0  0  0  0
   25.5209  -22.4029  -12.6474 C   0  0  0  0  0  0  0  0  0  0  0  0
   25.0721  -21.0928  -12.0735 C   0  0  2  0  0  0  0  0  0  0  0  0
   25.5909  -21.1978  -10.6646 N   0  0  0  0  0  0  0  0  0  0  0  0
   23.6295  -20.8796  -11.9757 C   0  0  0  0  0  0  0  0  0  0  0  0
   23.0203  -21.3826  -10.9578 O   0  0  0  0  0  0  0  0  0  0  0  0
   22.8168  -20.1710  -12.8789 N   0  0  0  0  0  0  0  0  0  0  0  0
   21.3781  -20.1127  -12.6530 C   0  0  1  0  0  0  0  0  0  0  0  0
   20.8287  -18.7706  -13.1019 C   0  0  0  0  0  0  0  0  0  0  0  0
   19.3899  -18.7306  -12.7755 C   0  0  0  0  0  0  0  0  0  0  0  0
   19.0099  -19.1677  -11.6648 O   0  0  0  0  0  0  0  0  0  0  0  0
   20.7381  -21.2498  -13.3209 C   0  0  0  0  0  0  0  0  0  0  0  0
   20.8475  -21.5197  -14.5311 O   0  0  0  0  0  0  0  0  0  0  0  0
   18.4292  -18.2310  -13.6401 O   0  0  0  0  0  0  0  0  0  0  0  0
   19.9372  -22.1106  -12.5516 O   0  0  0  0  0  0  0  0  0  0  0  0
  2  1  1  6
  2  3  1  0
  3  4  1  0
  4  5  2  0
  5  6  1  0
  7  6  2  0
  8  7  1  0
  9  4  1  0
  9  8  2  0
 10 11  2  0
 10  2  1  0
 12 13  1  0
 13 14  2  0
 16 15  1  6
 15 13  1  0
 16 18  1  0
 16 17  1  0
 17 10  1  0
 18 20  1  0
 19 18  2  0
 20 21  1  0
 21 22  1  6
 22 23  1  0
 23 27  1  0
 24 23  2  0
 25 28  1  0
 25 21  1  0
 26 25  2  0
M  END
$$$$
