FND.pdb
     RDKit          3D

 28 28  0  0  1  0  0  0  0  0999 V2000
   28.5872  -21.5023   -9.6315 N   0  0  0  0  0  0  0  0  0  0  0  0
   27.2148  -21.1126   -9.4882 C   0  0  1  0  0  0  0  0  0  0  0  0
   27.1787  -19.7983   -8.7284 C   0  0  0  0  0  0  0  0  0  0  0  0
   27.5569  -19.9900   -7.3035 C   0  0  0  0  0  0  0  0  0  0  0  0
   28.8830  -19.8905   -6.9827 C   0  0  0  0  0  0  0  0  0  0  0  0
   29.2558  -20.0648   -5.6692 C   0  0  0  0  0  0  0  0  0  0  0  0
   28.2843  -20.3345   -4.7143 C   0  0  0  0  0  0  0  0  0  0  0  0
   26.9620  -20.4299   -5.0570 C   0  0  0  0  0  0  0  0  0  0  0  0
   26.6023  -20.2545   -6.3685 C   0  0  0  0  0  0  0  0  0  0  0  0
   26.5691  -20.8390  -10.8119 C   0  0  0  0  0  0  0  0  0  0  0  0
   27.2281  -20.2500  -11.7051 O   0  0  0  0  0  0  0  0  0  0  0  0
   26.4266  -21.8093  -14.5695 N   0  0  0  0  0  0  0  0  0  0  0  0
   25.8386  -22.9475  -13.8993 C   0  0  0  0  0  0  0  0  0  0  0  0
   26.2143  -24.0425  -14.3091 O   0  0  0  0  0  0  0  0  0  0  0  0
   24.9000  -22.6562  -12.8509 C   0  0  0  0  0  0  0  0  0  0  0  0
   24.6490  -21.2404  -12.4269 C   0  0  2  0  0  0  0  0  0  0  0  0
   25.2403  -21.2406  -11.0429 N   0  0  0  0  0  0  0  0  0  0  0  0
   23.2516  -20.8357  -12.2873 C   0  0  0  0  0  0  0  0  0  0  0  0
   22.7294  -20.8924  -11.1108 O   0  0  0  0  0  0  0  0  0  0  0  0
   22.3984  -20.3781  -13.3075 N   0  0  0  0  0  0  0  0  0  0  0  0
   21.0320  -19.9921  -12.9782 C   0  0  1  0  0  0  0  0  0  0  0  0
   20.7076  -18.6375  -13.5819 C   0  0  0  0  0  0  0  0  0  0  0  0
   19.3293  -18.2797  -13.1942 C   0  0  0  0  0  0  0  0  0  0  0  0
   18.3994  -19.0731  -13.4678 O   0  0  0  0  0  0  0  0  0  0  0  0
   20.1141  -21.0502  -13.4101 C   0  0  0  0  0  0  0  0  0  0  0  0
   20.0361  -21.4972  -14.5691 O   0  0  0  0  0  0  0  0  0  0  0  0
   19.0067  -17.1025  -12.5384 O   0  0  0  0  0  0  0  0  0  0  0  0
   19.2498  -21.6136  -12.4562 O   0  0  0  0  0  0  0  0  0  0  0  0
  2  1  1  6
  2  3  1  0
  3  4  1  0
  4  5  2  0
  5  6  1  0
  7  6  2  0
  8  7  1  0
  9  4  1  0
  9  8  2  0
 10 11  2  0
 10  2  1  0
 12 13  1  0
 13 14  2  0
 16 15  1  1
 15 13  1  0
 16 18  1  0
 16 17  1  0
 17 10  1  0
 18 20  1  0
 19 18  2  0
 20 21  1  0
 21 22  1  6
 22 23  1  0
 23 27  1  0
 24 23  2  0
 25 28  1  0
 25 21  1  0
 26 25  2  0
M  END
$$$$
