FND.pdb
     RDKit          3D

 28 28  0  0  1  0  0  0  0  0999 V2000
   30.5333   -9.0016  -20.1020 N   0  0  0  0  0  0  0  0  0  0  0  0
   29.5256   -9.1580  -19.0941 C   0  0  1  0  0  0  0  0  0  0  0  0
   30.2244   -9.3423  -17.7586 C   0  0  0  0  0  0  0  0  0  0  0  0
   31.0100  -10.6041  -17.7320 C   0  0  0  0  0  0  0  0  0  0  0  0
   30.3368  -11.7620  -17.4534 C   0  0  0  0  0  0  0  0  0  0  0  0
   31.0445  -12.9422  -17.4233 C   0  0  0  0  0  0  0  0  0  0  0  0
   32.4101  -12.9253  -17.6743 C   0  0  0  0  0  0  0  0  0  0  0  0
   33.0647  -11.7549  -17.9512 C   0  0  0  0  0  0  0  0  0  0  0  0
   32.3495  -10.5853  -17.9785 C   0  0  0  0  0  0  0  0  0  0  0  0
   28.6822   -7.9285  -18.9496 C   0  0  0  0  0  0  0  0  0  0  0  0
   29.1894   -6.8052  -19.1949 O   0  0  0  0  0  0  0  0  0  0  0  0
   25.7925   -4.3590  -20.7730 N   0  0  0  0  0  0  0  0  0  0  0  0
   25.3558   -5.7312  -20.6447 C   0  0  0  0  0  0  0  0  0  0  0  0
   24.2079   -5.9484  -21.0235 O   0  0  0  0  0  0  0  0  0  0  0  0
   26.3093   -6.6561  -20.0966 C   0  0  0  0  0  0  0  0  0  0  0  0
   26.3973   -6.8686  -18.6153 C   0  0  2  0  0  0  0  0  0  0  0  0
   27.3395   -8.0400  -18.5435 N   0  0  0  0  0  0  0  0  0  0  0  0
   25.1682   -7.2753  -17.9371 C   0  0  0  0  0  0  0  0  0  0  0  0
   24.6376   -8.3962  -18.2864 O   0  0  0  0  0  0  0  0  0  0  0  0
   24.4894   -6.5729  -16.9250 N   0  0  0  0  0  0  0  0  0  0  0  0
   23.2054   -7.0699  -16.4467 C   0  0  1  0  0  0  0  0  0  0  0  0
   22.8911   -6.4872  -15.0806 C   0  0  0  0  0  0  0  0  0  0  0  0
   22.0551   -7.4581  -14.3481 C   0  0  0  0  0  0  0  0  0  0  0  0
   21.7394   -8.5308  -14.9127 O   0  0  0  0  0  0  0  0  0  0  0  0
   22.1734   -6.7822  -17.4472 C   0  0  0  0  0  0  0  0  0  0  0  0
   22.3110   -6.9279  -18.6756 O   0  0  0  0  0  0  0  0  0  0  0  0
   21.5968   -7.2438  -13.0581 O   0  0  0  0  0  0  0  0  0  0  0  0
   20.9287   -6.3051  -17.0031 O   0  0  0  0  0  0  0  0  0  0  0  0
  2  1  1  6
  2  3  1  0
  3  4  1  0
  4  5  2  0
  5  6  1  0
  7  6  2  0
  8  7  1  0
  9  4  1  0
  9  8  2  0
 10 11  2  0
 10  2  1  0
 12 13  1  0
 13 14  2  0
 16 15  1  6
 15 13  1  0
 16 18  1  0
 16 17  1  0
 17 10  1  0
 18 20  1  0
 19 18  2  0
 20 21  1  0
 21 22  1  1
 22 23  1  0
 23 27  1  0
 24 23  2  0
 25 28  1  0
 25 21  1  0
 26 25  2  0
M  END
$$$$
