FND.pdb
     RDKit          3D

 28 28  0  0  1  0  0  0  0  0999 V2000
   25.2617  -13.6167  -18.2954 N   0  0  0  0  0  0  0  0  0  0  0  0
   24.4377  -12.9339  -17.3412 C   0  0  1  0  0  0  0  0  0  0  0  0
   25.2187  -12.8226  -16.0436 C   0  0  0  0  0  0  0  0  0  0  0  0
   25.6331  -14.1616  -15.5486 C   0  0  0  0  0  0  0  0  0  0  0  0
   26.9630  -14.4758  -15.6135 C   0  0  0  0  0  0  0  0  0  0  0  0
   27.3690  -15.7106  -15.1608 C   0  0  0  0  0  0  0  0  0  0  0  0
   26.4260  -16.5957  -14.6552 C   0  0  0  0  0  0  0  0  0  0  0  0
   25.0994  -16.2612  -14.5992 C   0  0  0  0  0  0  0  0  0  0  0  0
   24.7065  -15.0283  -15.0529 C   0  0  0  0  0  0  0  0  0  0  0  0
   24.1402  -11.5275  -17.7628 C   0  0  0  0  0  0  0  0  0  0  0  0
   25.0341  -10.8585  -18.3394 O   0  0  0  0  0  0  0  0  0  0  0  0
   22.4861   -9.3032  -20.9107 N   0  0  0  0  0  0  0  0  0  0  0  0
   21.2972   -9.8950  -20.3393 C   0  0  0  0  0  0  0  0  0  0  0  0
   20.4353  -10.2173  -21.1526 O   0  0  0  0  0  0  0  0  0  0  0  0
   21.2751  -10.0294  -18.9088 C   0  0  0  0  0  0  0  0  0  0  0  0
   22.4696   -9.6413  -18.0903 C   0  0  2  0  0  0  0  0  0  0  0  0
   22.8722  -10.9711  -17.5119 N   0  0  0  0  0  0  0  0  0  0  0  0
   22.2275   -8.7470  -16.9600 C   0  0  0  0  0  0  0  0  0  0  0  0
   21.7847   -9.2711  -15.8695 O   0  0  0  0  0  0  0  0  0  0  0  0
   22.4313   -7.3557  -16.9245 N   0  0  0  0  0  0  0  0  0  0  0  0
   22.2832   -6.6429  -15.6618 C   0  0  1  0  0  0  0  0  0  0  0  0
   22.9609   -5.2867  -15.7403 C   0  0  0  0  0  0  0  0  0  0  0  0
   22.8485   -4.6395  -14.4187 C   0  0  0  0  0  0  0  0  0  0  0  0
   22.5919   -5.3487  -13.4185 O   0  0  0  0  0  0  0  0  0  0  0  0
   20.8604   -6.5571  -15.3199 C   0  0  0  0  0  0  0  0  0  0  0  0
   19.9468   -6.3083  -16.1278 O   0  0  0  0  0  0  0  0  0  0  0  0
   23.0129   -3.2775  -14.2242 O   0  0  0  0  0  0  0  0  0  0  0  0
   20.4817   -6.7690  -13.9835 O   0  0  0  0  0  0  0  0  0  0  0  0
  2  1  1  6
  2  3  1  0
  3  4  1  0
  4  5  2  0
  5  6  1  0
  7  6  2  0
  8  7  1  0
  9  4  1  0
  9  8  2  0
 10 11  2  0
 10  2  1  0
 12 13  1  0
 13 14  2  0
 16 15  1  1
 15 13  1  0
 16 18  1  0
 16 17  1  0
 17 10  1  0
 18 20  1  0
 19 18  2  0
 20 21  1  0
 21 22  1  6
 22 23  1  0
 23 27  1  0
 24 23  2  0
 25 28  1  0
 25 21  1  0
 26 25  2  0
M  END
$$$$
