GCE.pdb
     RDKit          3D

 20 19  0  0  1  0  0  0  0  0999 V2000
    4.0788  -18.3988   20.9260 N   0  0  0  0  0  0  0  0  0  0  0  0
    4.4960  -17.1403   21.4997 C   0  0  0  0  0  0  0  0  0  0  0  0
    5.9263  -16.8562   21.2449 C   0  0  0  0  0  0  0  0  0  0  0  0
    6.6940  -17.7859   20.9914 O   0  0  0  0  0  0  0  0  0  0  0  0
    6.4000  -15.5362   21.2928 N   0  0  0  0  0  0  0  0  0  0  0  0
    7.7868  -15.1564   21.2423 C   0  0  1  0  0  0  0  0  0  0  0  0
    7.9948  -13.6861   20.9756 C   0  0  0  0  0  0  0  0  0  0  0  0
    7.5263  -13.2458   19.2844 S   0  0  0  0  0  0  0  0  0  0  0  0
    8.5162  -15.4841   22.4865 C   0  0  0  0  0  0  0  0  0  0  0  0
    8.0349  -15.0630   23.5673 O   0  0  0  0  0  0  0  0  0  0  0  0
    9.7054  -16.2468   22.3996 N   0  0  0  0  0  0  0  0  0  0  0  0
   10.4405  -16.6704   23.5853 C   0  0  1  0  0  0  0  0  0  0  0  0
   10.4919  -18.1606   23.6436 C   0  0  0  0  0  0  0  0  0  0  0  0
   11.2604  -18.6593   24.8141 C   0  0  0  0  0  0  0  0  0  0  0  0
   11.4162  -20.1245   24.8289 C   0  0  0  0  0  0  0  0  0  0  0  0
   10.5112  -20.8652   25.3373 O   0  0  0  0  0  0  0  0  0  0  0  0
   11.7310  -15.9767   23.7081 C   0  0  0  0  0  0  0  0  0  0  0  0
   12.3941  -15.7290   24.8956 O   0  0  0  0  0  0  0  0  0  0  0  0
   12.5369  -20.7227   24.2994 O   0  0  0  0  0  0  0  0  0  0  0  0
   12.3140  -15.5561   22.6773 O   0  0  0  0  0  0  0  0  0  0  0  0
  2  1  1  0
  3  2  1  0
  4  3  2  0
  5  3  1  0
  6  9  1  0
  6  5  1  0
  6  7  1  1
  7  8  1  0
  9 10  2  0
 11 12  1  0
 11  9  1  0
 13 14  1  0
 12 13  1  6
 15 14  1  0
 15 19  1  0
 16 15  2  0
 17 18  1  0
 17 12  1  0
 20 17  2  0
M  END
$$$$
