GCE.pdb
     RDKit          3D

 20 19  0  0  1  0  0  0  0  0999 V2000
    6.4547  -19.4562   19.9587 N   0  0  0  0  0  0  0  0  0  0  0  0
    6.3345  -18.2715   20.7767 C   0  0  0  0  0  0  0  0  0  0  0  0
    7.5646  -17.4483   20.7533 C   0  0  0  0  0  0  0  0  0  0  0  0
    8.6357  -17.9666   20.4338 O   0  0  0  0  0  0  0  0  0  0  0  0
    7.5066  -16.0881   21.0932 N   0  0  0  0  0  0  0  0  0  0  0  0
    8.6416  -15.2063   21.1589 C   0  0  1  0  0  0  0  0  0  0  0  0
    8.2740  -13.7483   21.0352 C   0  0  0  0  0  0  0  0  0  0  0  0
    7.3667  -13.4204   19.5045 S   0  0  0  0  0  0  0  0  0  0  0  0
    9.4142  -15.3593   22.4107 C   0  0  0  0  0  0  0  0  0  0  0  0
    8.8875  -14.9398   23.4707 O   0  0  0  0  0  0  0  0  0  0  0  0
   10.6929  -15.9636   22.3537 N   0  0  0  0  0  0  0  0  0  0  0  0
   11.5096  -16.1587   23.5457 C   0  0  1  0  0  0  0  0  0  0  0  0
   11.1988  -17.4820   24.1614 C   0  0  0  0  0  0  0  0  0  0  0  0
   11.1329  -18.5764   23.1578 C   0  0  0  0  0  0  0  0  0  0  0  0
   10.9079  -19.9042   23.7559 C   0  0  0  0  0  0  0  0  0  0  0  0
    9.8591  -20.5714   23.4715 O   0  0  0  0  0  0  0  0  0  0  0  0
   12.9313  -15.8870   23.2875 C   0  0  0  0  0  0  0  0  0  0  0  0
   13.9164  -15.8046   24.2540 O   0  0  0  0  0  0  0  0  0  0  0  0
   11.8186  -20.4496   24.6320 O   0  0  0  0  0  0  0  0  0  0  0  0
   13.3284  -15.7071   22.1089 O   0  0  0  0  0  0  0  0  0  0  0  0
  2  1  1  0
  3  2  1  0
  4  3  2  0
  5  3  1  0
  6  9  1  0
  6  5  1  0
  6  7  1  1
  7  8  1  0
  9 10  2  0
 11 12  1  0
 11  9  1  0
 13 14  1  0
 12 13  1  6
 15 14  1  0
 15 19  1  0
 16 15  2  0
 17 18  1  0
 17 12  1  0
 20 17  2  0
M  END
$$$$
