GCE.pdb
     RDKit          3D

 20 19  0  0  1  0  0  0  0  0999 V2000
    7.9512  -17.1876   17.8791 N   0  0  0  0  0  0  0  0  0  0  0  0
    7.7437  -17.5840   19.2527 C   0  0  0  0  0  0  0  0  0  0  0  0
    8.5522  -16.7785   20.1956 C   0  0  0  0  0  0  0  0  0  0  0  0
    9.7176  -16.4987   19.9102 O   0  0  0  0  0  0  0  0  0  0  0  0
    7.9914  -16.3391   21.4046 N   0  0  0  0  0  0  0  0  0  0  0  0
    8.7030  -15.6255   22.4314 C   0  0  1  0  0  0  0  0  0  0  0  0
    7.8090  -15.1159   23.5346 C   0  0  0  0  0  0  0  0  0  0  0  0
    8.7562  -14.2487   24.8091 S   0  0  0  0  0  0  0  0  0  0  0  0
    9.7623  -16.4396   23.0657 C   0  0  0  0  0  0  0  0  0  0  0  0
    9.4595  -17.6038   23.4262 O   0  0  0  0  0  0  0  0  0  0  0  0
   11.0492  -15.8743   23.2331 N   0  0  0  0  0  0  0  0  0  0  0  0
   12.1941  -16.6707   23.6580 C   0  0  1  0  0  0  0  0  0  0  0  0
   13.4581  -16.0300   23.1904 C   0  0  0  0  0  0  0  0  0  0  0  0
   14.6641  -16.8243   23.5427 C   0  0  0  0  0  0  0  0  0  0  0  0
   15.9279  -16.1566   23.1841 C   0  0  0  0  0  0  0  0  0  0  0  0
   15.9232  -15.1237   22.4364 O   0  0  0  0  0  0  0  0  0  0  0  0
   12.1317  -17.0019   25.0891 C   0  0  0  0  0  0  0  0  0  0  0  0
   12.6559  -18.1427   25.6680 O   0  0  0  0  0  0  0  0  0  0  0  0
   17.1350  -16.6320   23.6437 O   0  0  0  0  0  0  0  0  0  0  0  0
   11.5644  -16.2147   25.8878 O   0  0  0  0  0  0  0  0  0  0  0  0
  2  1  1  0
  3  2  1  0
  4  3  2  0
  5  3  1  0
  6  9  1  0
  6  5  1  0
  6  7  1  1
  7  8  1  0
  9 10  2  0
 11 12  1  0
 11  9  1  0
 13 14  1  0
 12 13  1  1
 15 14  1  0
 15 19  1  0
 16 15  2  0
 17 18  1  0
 17 12  1  0
 20 17  2  0
M  END
$$$$
