GCE.pdb
     RDKit          3D

 20 19  0  0  1  0  0  0  0  0999 V2000
    7.0875  -14.0214   20.1466 N   0  0  0  0  0  0  0  0  0  0  0  0
    6.4186  -14.3478   21.3847 C   0  0  0  0  0  0  0  0  0  0  0  0
    7.3345  -14.2943   22.5464 C   0  0  0  0  0  0  0  0  0  0  0  0
    8.5510  -14.2424   22.3583 O   0  0  0  0  0  0  0  0  0  0  0  0
    6.8168  -14.3031   23.8507 N   0  0  0  0  0  0  0  0  0  0  0  0
    7.6077  -14.2474   25.0513 C   0  0  1  0  0  0  0  0  0  0  0  0
    6.8014  -13.9202   26.2837 C   0  0  0  0  0  0  0  0  0  0  0  0
    5.9662  -12.3230   26.1255 S   0  0  0  0  0  0  0  0  0  0  0  0
    8.3290  -15.5100   25.3212 C   0  0  0  0  0  0  0  0  0  0  0  0
    7.6402  -16.5497   25.4686 O   0  0  0  0  0  0  0  0  0  0  0  0
    9.7421  -15.4854   25.3988 N   0  0  0  0  0  0  0  0  0  0  0  0
   10.5186  -16.6725   25.7361 C   0  0  1  0  0  0  0  0  0  0  0  0
   11.9178  -16.5200   25.2402 C   0  0  0  0  0  0  0  0  0  0  0  0
   11.9908  -16.4286   23.7584 C   0  0  0  0  0  0  0  0  0  0  0  0
   13.3516  -16.1696   23.2559 C   0  0  0  0  0  0  0  0  0  0  0  0
   14.2802  -15.8198   24.0569 O   0  0  0  0  0  0  0  0  0  0  0  0
   10.3742  -17.0388   27.1526 C   0  0  0  0  0  0  0  0  0  0  0  0
   10.6583  -18.2810   27.6888 O   0  0  0  0  0  0  0  0  0  0  0  0
   13.6484  -16.2963   21.9180 O   0  0  0  0  0  0  0  0  0  0  0  0
    9.9609  -16.1866   27.9786 O   0  0  0  0  0  0  0  0  0  0  0  0
  2  1  1  0
  3  2  1  0
  4  3  2  0
  5  3  1  0
  6  9  1  0
  6  5  1  0
  6  7  1  1
  7  8  1  0
  9 10  2  0
 11 12  1  0
 11  9  1  0
 13 14  1  0
 12 13  1  1
 15 14  1  0
 15 19  1  0
 16 15  2  0
 17 18  1  0
 17 12  1  0
 20 17  2  0
M  END
$$$$
