GCE.pdb
     RDKit          3D

 20 19  0  0  1  0  0  0  0  0999 V2000
    7.5590  -12.9888   19.8658 N   0  0  0  0  0  0  0  0  0  0  0  0
    6.7253  -13.3593   20.9860 C   0  0  0  0  0  0  0  0  0  0  0  0
    7.5031  -13.5099   22.2364 C   0  0  0  0  0  0  0  0  0  0  0  0
    8.7244  -13.6614   22.1771 O   0  0  0  0  0  0  0  0  0  0  0  0
    6.8502  -13.4799   23.4782 N   0  0  0  0  0  0  0  0  0  0  0  0
    7.4895  -13.6875   24.7502 C   0  0  1  0  0  0  0  0  0  0  0  0
    6.6034  -13.3571   25.9258 C   0  0  0  0  0  0  0  0  0  0  0  0
    6.4070  -11.5697   26.1269 S   0  0  0  0  0  0  0  0  0  0  0  0
    7.9622  -15.0768   24.9339 C   0  0  0  0  0  0  0  0  0  0  0  0
    7.1287  -15.9995   24.7586 O   0  0  0  0  0  0  0  0  0  0  0  0
    9.3136  -15.2958   25.2933 N   0  0  0  0  0  0  0  0  0  0  0  0
    9.9110  -16.6258   25.2813 C   0  0  1  0  0  0  0  0  0  0  0  0
   11.1133  -16.6328   24.3974 C   0  0  0  0  0  0  0  0  0  0  0  0
   11.7681  -17.9658   24.3362 C   0  0  0  0  0  0  0  0  0  0  0  0
   13.0034  -17.9730   23.5327 C   0  0  0  0  0  0  0  0  0  0  0  0
   13.4635  -16.8879   23.0459 O   0  0  0  0  0  0  0  0  0  0  0  0
   10.1083  -17.1512   26.6402 C   0  0  0  0  0  0  0  0  0  0  0  0
   10.3236  -18.4791   26.9590 O   0  0  0  0  0  0  0  0  0  0  0  0
   13.6828  -19.1449   23.2892 O   0  0  0  0  0  0  0  0  0  0  0  0
   10.0856  -16.3671   27.6220 O   0  0  0  0  0  0  0  0  0  0  0  0
  2  1  1  0
  3  2  1  0
  4  3  2  0
  5  3  1  0
  6  9  1  0
  6  5  1  0
  6  7  1  1
  7  8  1  0
  9 10  2  0
 11 12  1  0
 11  9  1  0
 13 14  1  0
 12 13  1  1
 15 14  1  0
 15 19  1  0
 16 15  2  0
 17 18  1  0
 17 12  1  0
 20 17  2  0
M  END
$$$$
