GCE.pdb
     RDKit          3D

 20 19  0  0  1  0  0  0  0  0999 V2000
    7.4906  -14.9677   19.7629 N   0  0  0  0  0  0  0  0  0  0  0  0
    6.7078  -14.8118   20.9671 C   0  0  0  0  0  0  0  0  0  0  0  0
    7.5525  -14.5422   22.1524 C   0  0  0  0  0  0  0  0  0  0  0  0
    8.7711  -14.7092   22.0800 O   0  0  0  0  0  0  0  0  0  0  0  0
    6.9656  -14.0999   23.3478 N   0  0  0  0  0  0  0  0  0  0  0  0
    7.6743  -13.8753   24.5796 C   0  0  1  0  0  0  0  0  0  0  0  0
    6.8885  -13.0676   25.5828 C   0  0  0  0  0  0  0  0  0  0  0  0
    7.8718  -12.7025   27.0570 S   0  0  0  0  0  0  0  0  0  0  0  0
    8.0761  -15.1326   25.2468 C   0  0  0  0  0  0  0  0  0  0  0  0
    7.1678  -15.9501   25.5358 O   0  0  0  0  0  0  0  0  0  0  0  0
    9.4471  -15.3504   25.5231 N   0  0  0  0  0  0  0  0  0  0  0  0
    9.9219  -16.5697   26.1662 C   0  0  1  0  0  0  0  0  0  0  0  0
   11.1943  -17.0166   25.5274 C   0  0  0  0  0  0  0  0  0  0  0  0
   11.1377  -16.9599   24.0432 C   0  0  0  0  0  0  0  0  0  0  0  0
   12.3760  -17.4248   23.3936 C   0  0  0  0  0  0  0  0  0  0  0  0
   12.4798  -17.4198   22.1227 O   0  0  0  0  0  0  0  0  0  0  0  0
    9.9468  -16.4439   27.6309 C   0  0  0  0  0  0  0  0  0  0  0  0
   10.1716  -17.4807   28.5173 O   0  0  0  0  0  0  0  0  0  0  0  0
   13.4413  -17.8745   24.1401 O   0  0  0  0  0  0  0  0  0  0  0  0
    9.7513  -15.3230   28.1645 O   0  0  0  0  0  0  0  0  0  0  0  0
  2  1  1  0
  3  2  1  0
  4  3  2  0
  5  3  1  0
  6  9  1  0
  6  5  1  0
  6  7  1  1
  7  8  1  0
  9 10  2  0
 11 12  1  0
 11  9  1  0
 13 14  1  0
 12 13  1  6
 15 14  1  0
 15 19  1  0
 16 15  2  0
 17 18  1  0
 17 12  1  0
 20 17  2  0
M  END
$$$$
