GCE.pdb
     RDKit          3D

 20 19  0  0  1  0  0  0  0  0999 V2000
    4.9767  -19.0592   21.3347 N   0  0  0  0  0  0  0  0  0  0  0  0
    5.1207  -18.7356   22.7353 C   0  0  0  0  0  0  0  0  0  0  0  0
    6.1472  -17.6942   22.9661 C   0  0  0  0  0  0  0  0  0  0  0  0
    7.0611  -17.5519   22.1523 O   0  0  0  0  0  0  0  0  0  0  0  0
    6.0760  -16.8774   24.1050 N   0  0  0  0  0  0  0  0  0  0  0  0
    7.0853  -15.9338   24.5063 C   0  0  1  0  0  0  0  0  0  0  0  0
    6.6167  -14.9743   25.5720 C   0  0  0  0  0  0  0  0  0  0  0  0
    7.9041  -13.7768   25.9991 S   0  0  0  0  0  0  0  0  0  0  0  0
    8.3116  -16.5874   25.0126 C   0  0  0  0  0  0  0  0  0  0  0  0
    8.1727  -17.4875   25.8772 O   0  0  0  0  0  0  0  0  0  0  0  0
    9.5656  -16.1721   24.5044 N   0  0  0  0  0  0  0  0  0  0  0  0
   10.8070  -16.8482   24.8620 C   0  0  1  0  0  0  0  0  0  0  0  0
   11.9277  -16.3231   24.0282 C   0  0  0  0  0  0  0  0  0  0  0  0
   13.2146  -17.0146   24.3023 C   0  0  0  0  0  0  0  0  0  0  0  0
   14.3137  -16.5710   23.4266 C   0  0  0  0  0  0  0  0  0  0  0  0
   14.6562  -15.3431   23.3916 O   0  0  0  0  0  0  0  0  0  0  0  0
   11.0320  -16.8503   26.3149 C   0  0  0  0  0  0  0  0  0  0  0  0
   11.6701  -17.8523   27.0222 O   0  0  0  0  0  0  0  0  0  0  0  0
   14.9895  -17.4667   22.6297 O   0  0  0  0  0  0  0  0  0  0  0  0
   10.6275  -15.8851   27.0106 O   0  0  0  0  0  0  0  0  0  0  0  0
  2  1  1  0
  3  2  1  0
  4  3  2  0
  5  3  1  0
  6  9  1  0
  6  5  1  0
  6  7  1  1
  7  8  1  0
  9 10  2  0
 11 12  1  0
 11  9  1  0
 13 14  1  0
 12 13  1  6
 15 14  1  0
 15 19  1  0
 16 15  2  0
 17 18  1  0
 17 12  1  0
 20 17  2  0
M  END
$$$$
