GCE.pdb
     RDKit          3D

 20 19  0  0  1  0  0  0  0  0999 V2000
    7.5972  -13.1626   19.8042 N   0  0  0  0  0  0  0  0  0  0  0  0
    6.7553  -13.3002   20.9702 C   0  0  0  0  0  0  0  0  0  0  0  0
    7.5373  -13.5850   22.1944 C   0  0  0  0  0  0  0  0  0  0  0  0
    8.7275  -13.8882   22.0975 O   0  0  0  0  0  0  0  0  0  0  0  0
    6.9235  -13.5092   23.4540 N   0  0  0  0  0  0  0  0  0  0  0  0
    7.5591  -13.8407   24.7014 C   0  0  1  0  0  0  0  0  0  0  0  0
    6.7614  -13.4176   25.9100 C   0  0  0  0  0  0  0  0  0  0  0  0
    6.8154  -11.6246   26.1461 S   0  0  0  0  0  0  0  0  0  0  0  0
    7.8302  -15.2881   24.8393 C   0  0  0  0  0  0  0  0  0  0  0  0
    7.0254  -16.0821   24.2927 O   0  0  0  0  0  0  0  0  0  0  0  0
    8.9690  -15.7023   25.5708 N   0  0  0  0  0  0  0  0  0  0  0  0
    9.6696  -16.9456   25.2719 C   0  0  1  0  0  0  0  0  0  0  0  0
   10.5279  -16.7654   24.0645 C   0  0  0  0  0  0  0  0  0  0  0  0
   11.2985  -17.9902   23.7249 C   0  0  0  0  0  0  0  0  0  0  0  0
   12.1911  -17.8155   22.5654 C   0  0  0  0  0  0  0  0  0  0  0  0
   13.1704  -17.0007   22.6212 O   0  0  0  0  0  0  0  0  0  0  0  0
   10.3373  -17.4985   26.4593 C   0  0  0  0  0  0  0  0  0  0  0  0
   10.9532  -16.7538   27.4480 O   0  0  0  0  0  0  0  0  0  0  0  0
   11.9871  -18.5221   21.4021 O   0  0  0  0  0  0  0  0  0  0  0  0
   10.3774  -18.7429   26.6301 O   0  0  0  0  0  0  0  0  0  0  0  0
  2  1  1  0
  3  2  1  0
  4  3  2  0
  5  3  1  0
  6  9  1  0
  6  5  1  0
  6  7  1  1
  7  8  1  0
  9 10  2  0
 11 12  1  0
 11  9  1  0
 13 14  1  0
 12 13  1  6
 15 14  1  0
 15 19  1  0
 16 15  2  0
 17 18  1  0
 17 12  1  0
 20 17  2  0
M  END
$$$$
