GCE.pdb
     RDKit          3D

 20 19  0  0  1  0  0  0  0  0999 V2000
    6.6908  -21.1458   21.5535 N   0  0  0  0  0  0  0  0  0  0  0  0
    7.0072  -21.6498   22.8699 C   0  0  0  0  0  0  0  0  0  0  0  0
    7.8006  -20.6840   23.6629 C   0  0  0  0  0  0  0  0  0  0  0  0
    8.9526  -20.4165   23.3175 O   0  0  0  0  0  0  0  0  0  0  0  0
    7.2409  -20.0799   24.7992 N   0  0  0  0  0  0  0  0  0  0  0  0
    7.9229  -19.1474   25.6567 C   0  0  1  0  0  0  0  0  0  0  0  0
    7.0044  -18.1243   26.2778 C   0  0  0  0  0  0  0  0  0  0  0  0
    7.6261  -16.4422   26.0381 S   0  0  0  0  0  0  0  0  0  0  0  0
    8.6510  -19.8107   26.7600 C   0  0  0  0  0  0  0  0  0  0  0  0
    8.0151  -20.6397   27.4568 O   0  0  0  0  0  0  0  0  0  0  0  0
   10.0113  -19.4833   26.9738 N   0  0  0  0  0  0  0  0  0  0  0  0
   10.7725  -20.0324   28.0896 C   0  0  1  0  0  0  0  0  0  0  0  0
   12.2303  -20.0012   27.7720 C   0  0  0  0  0  0  0  0  0  0  0  0
   12.5620  -20.7652   26.5408 C   0  0  0  0  0  0  0  0  0  0  0  0
   13.9972  -20.7408   26.2077 C   0  0  0  0  0  0  0  0  0  0  0  0
   14.6098  -19.6307   26.0709 O   0  0  0  0  0  0  0  0  0  0  0  0
   10.3802  -19.4288   29.3715 C   0  0  0  0  0  0  0  0  0  0  0  0
   10.6302  -19.9708   30.6186 O   0  0  0  0  0  0  0  0  0  0  0  0
   14.7040  -21.9091   26.0352 O   0  0  0  0  0  0  0  0  0  0  0  0
    9.7647  -18.3332   29.3832 O   0  0  0  0  0  0  0  0  0  0  0  0
  2  1  1  0
  3  2  1  0
  4  3  2  0
  5  3  1  0
  6  9  1  0
  6  5  1  0
  6  7  1  1
  7  8  1  0
  9 10  2  0
 11 12  1  0
 11  9  1  0
 13 14  1  0
 12 13  1  6
 15 14  1  0
 15 19  1  0
 16 15  2  0
 17 18  1  0
 17 12  1  0
 20 17  2  0
M  END
$$$$
