GCE.pdb
     RDKit          3D

 20 19  0  0  1  0  0  0  0  0999 V2000
    5.0971  -18.8843   19.8849 N   0  0  0  0  0  0  0  0  0  0  0  0
    5.2212  -17.8263   20.8608 C   0  0  0  0  0  0  0  0  0  0  0  0
    6.5500  -17.1755   20.8144 C   0  0  0  0  0  0  0  0  0  0  0  0
    7.4234  -17.6310   20.0743 O   0  0  0  0  0  0  0  0  0  0  0  0
    6.8088  -16.0483   21.6091 N   0  0  0  0  0  0  0  0  0  0  0  0
    8.0708  -15.3608   21.6776 C   0  0  1  0  0  0  0  0  0  0  0  0
    7.9377  -13.9007   22.0333 C   0  0  0  0  0  0  0  0  0  0  0  0
    6.9397  -13.6694   23.5246 S   0  0  0  0  0  0  0  0  0  0  0  0
    9.0013  -15.9673   22.6542 C   0  0  0  0  0  0  0  0  0  0  0  0
    8.5482  -16.2388   23.7935 O   0  0  0  0  0  0  0  0  0  0  0  0
   10.3396  -16.2093   22.2621 N   0  0  0  0  0  0  0  0  0  0  0  0
   11.2922  -16.8813   23.1377 C   0  0  1  0  0  0  0  0  0  0  0  0
   11.1979  -18.3587   22.9495 C   0  0  0  0  0  0  0  0  0  0  0  0
   11.5431  -19.1136   24.1825 C   0  0  0  0  0  0  0  0  0  0  0  0
   11.5994  -20.5718   23.9776 C   0  0  0  0  0  0  0  0  0  0  0  0
   12.6964  -21.1371   23.6566 O   0  0  0  0  0  0  0  0  0  0  0  0
   12.6398  -16.3035   23.0290 C   0  0  0  0  0  0  0  0  0  0  0  0
   13.0814  -15.4967   21.9969 O   0  0  0  0  0  0  0  0  0  0  0  0
   10.4747  -21.3513   24.1248 O   0  0  0  0  0  0  0  0  0  0  0  0
   13.4926  -16.5363   23.9223 O   0  0  0  0  0  0  0  0  0  0  0  0
  2  1  1  0
  3  2  1  0
  4  3  2  0
  5  3  1  0
  6  9  1  0
  6  5  1  0
  6  7  1  1
  7  8  1  0
  9 10  2  0
 11 12  1  0
 11  9  1  0
 13 14  1  0
 12 13  1  6
 15 14  1  0
 15 19  1  0
 16 15  2  0
 17 18  1  0
 17 12  1  0
 20 17  2  0
M  END
$$$$
