GCE.pdb
     RDKit          3D

 20 19  0  0  1  0  0  0  0  0999 V2000
    8.4539  -13.2644   17.6099 N   0  0  0  0  0  0  0  0  0  0  0  0
    7.7292  -14.0262   18.6006 C   0  0  0  0  0  0  0  0  0  0  0  0
    8.4131  -14.0304   19.9135 C   0  0  0  0  0  0  0  0  0  0  0  0
    9.5748  -13.6280   19.9939 O   0  0  0  0  0  0  0  0  0  0  0  0
    7.7396  -14.4904   21.0554 N   0  0  0  0  0  0  0  0  0  0  0  0
    8.2439  -14.4037   22.4000 C   0  0  1  0  0  0  0  0  0  0  0  0
    7.1564  -14.3157   23.4420 C   0  0  0  0  0  0  0  0  0  0  0  0
    7.8448  -14.1853   25.1101 S   0  0  0  0  0  0  0  0  0  0  0  0
    9.1077  -15.5481   22.7628 C   0  0  0  0  0  0  0  0  0  0  0  0
    8.5915  -16.6926   22.7399 O   0  0  0  0  0  0  0  0  0  0  0  0
   10.4566  -15.3008   23.1131 N   0  0  0  0  0  0  0  0  0  0  0  0
   11.3418  -16.3621   23.5776 C   0  0  1  0  0  0  0  0  0  0  0  0
   12.7529  -15.8768   23.5867 C   0  0  0  0  0  0  0  0  0  0  0  0
   13.7118  -16.9029   23.0999 C   0  0  0  0  0  0  0  0  0  0  0  0
   15.0636  -16.3694   22.8559 C   0  0  0  0  0  0  0  0  0  0  0  0
   15.6071  -15.5784   23.6955 O   0  0  0  0  0  0  0  0  0  0  0  0
   10.8620  -16.9692   24.8278 C   0  0  0  0  0  0  0  0  0  0  0  0
   10.9736  -18.3066   25.1598 O   0  0  0  0  0  0  0  0  0  0  0  0
   15.7647  -16.7091   21.7213 O   0  0  0  0  0  0  0  0  0  0  0  0
   10.2973  -16.2534   25.6927 O   0  0  0  0  0  0  0  0  0  0  0  0
  2  1  1  0
  3  2  1  0
  4  3  2  0
  5  3  1  0
  6  9  1  0
  6  5  1  0
  6  7  1  1
  7  8  1  0
  9 10  2  0
 11 12  1  0
 11  9  1  0
 13 14  1  0
 12 13  1  1
 15 14  1  0
 15 19  1  0
 16 15  2  0
 17 18  1  0
 17 12  1  0
 20 17  2  0
M  END
$$$$
