GCE.pdb
     RDKit          3D

 20 19  0  0  1  0  0  0  0  0999 V2000
    6.7113  -18.7796   17.4528 N   0  0  0  0  0  0  0  0  0  0  0  0
    6.3272  -17.7006   18.3333 C   0  0  0  0  0  0  0  0  0  0  0  0
    7.4880  -17.1179   19.0435 C   0  0  0  0  0  0  0  0  0  0  0  0
    8.5381  -17.7580   19.1174 O   0  0  0  0  0  0  0  0  0  0  0  0
    7.3887  -15.8456   19.6270 N   0  0  0  0  0  0  0  0  0  0  0  0
    8.4469  -15.1819   20.3410 C   0  0  1  0  0  0  0  0  0  0  0  0
    8.1336  -13.7441   20.6738 C   0  0  0  0  0  0  0  0  0  0  0  0
    7.7656  -12.7836   19.1853 S   0  0  0  0  0  0  0  0  0  0  0  0
    8.7956  -15.8597   21.6085 C   0  0  0  0  0  0  0  0  0  0  0  0
    7.8489  -16.2436   22.3388 O   0  0  0  0  0  0  0  0  0  0  0  0
   10.1617  -16.0405   21.9321 N   0  0  0  0  0  0  0  0  0  0  0  0
   10.5847  -16.7935   23.1068 C   0  0  1  0  0  0  0  0  0  0  0  0
   11.9383  -17.3769   22.8737 C   0  0  0  0  0  0  0  0  0  0  0  0
   11.9429  -18.3904   21.7864 C   0  0  0  0  0  0  0  0  0  0  0  0
   13.2804  -18.9434   21.5096 C   0  0  0  0  0  0  0  0  0  0  0  0
   14.0216  -18.4226   20.6121 O   0  0  0  0  0  0  0  0  0  0  0  0
   10.4232  -16.0165   24.3444 C   0  0  0  0  0  0  0  0  0  0  0  0
   10.4169  -16.5434   25.6225 O   0  0  0  0  0  0  0  0  0  0  0  0
   13.7558  -20.0299   22.2080 O   0  0  0  0  0  0  0  0  0  0  0  0
   10.2743  -14.7701   24.2839 O   0  0  0  0  0  0  0  0  0  0  0  0
  2  1  1  0
  3  2  1  0
  4  3  2  0
  5  3  1  0
  6  9  1  0
  6  5  1  0
  6  7  1  1
  7  8  1  0
  9 10  2  0
 11 12  1  0
 11  9  1  0
 13 14  1  0
 12 13  1  6
 15 14  1  0
 15 19  1  0
 16 15  2  0
 17 18  1  0
 17 12  1  0
 20 17  2  0
M  END
$$$$
