GCE.pdb
     RDKit          3D

 20 19  0  0  1  0  0  0  0  0999 V2000
    7.7762  -12.9566   20.2489 N   0  0  0  0  0  0  0  0  0  0  0  0
    6.8931  -13.3526   21.3214 C   0  0  0  0  0  0  0  0  0  0  0  0
    7.6147  -13.5381   22.6006 C   0  0  0  0  0  0  0  0  0  0  0  0
    8.8391  -13.6753   22.5923 O   0  0  0  0  0  0  0  0  0  0  0  0
    6.9056  -13.5569   23.8113 N   0  0  0  0  0  0  0  0  0  0  0  0
    7.4886  -13.8013   25.1037 C   0  0  1  0  0  0  0  0  0  0  0  0
    6.5730  -13.4472   26.2493 C   0  0  0  0  0  0  0  0  0  0  0  0
    6.0875  -11.7050   26.1966 S   0  0  0  0  0  0  0  0  0  0  0  0
    7.8997  -15.2097   25.2897 C   0  0  0  0  0  0  0  0  0  0  0  0
    7.0044  -16.0876   25.2208 O   0  0  0  0  0  0  0  0  0  0  0  0
    9.2644  -15.4958   25.5327 N   0  0  0  0  0  0  0  0  0  0  0  0
    9.7372  -16.8520   25.7838 C   0  0  1  0  0  0  0  0  0  0  0  0
   10.8031  -17.2066   24.8015 C   0  0  0  0  0  0  0  0  0  0  0  0
   11.6511  -16.0421   24.4352 C   0  0  0  0  0  0  0  0  0  0  0  0
   12.6442  -16.3488   23.3906 C   0  0  0  0  0  0  0  0  0  0  0  0
   13.8824  -16.1166   23.5884 O   0  0  0  0  0  0  0  0  0  0  0  0
   10.0710  -17.0636   27.1999 C   0  0  0  0  0  0  0  0  0  0  0  0
   10.4115  -18.2777   27.7669 O   0  0  0  0  0  0  0  0  0  0  0  0
   12.2592  -16.8875   22.1840 O   0  0  0  0  0  0  0  0  0  0  0  0
   10.0571  -16.0917   27.9965 O   0  0  0  0  0  0  0  0  0  0  0  0
  2  1  1  0
  3  2  1  0
  4  3  2  0
  5  3  1  0
  6  9  1  0
  6  5  1  0
  6  7  1  1
  7  8  1  0
  9 10  2  0
 11 12  1  0
 11  9  1  0
 13 14  1  0
 12 13  1  6
 15 14  1  0
 15 19  1  0
 16 15  2  0
 17 18  1  0
 17 12  1  0
 20 17  2  0
M  END
$$$$
