QPS.pdb
     RDKit          3D

 23 23  0  0  1  0  0  0  0  0999 V2000
    6.5329  -19.5616   22.8505 N   0  0  0  0  0  0  0  0  0  0  0  0
    6.3040  -18.7374   23.9787 C   0  0  0  0  0  0  0  0  0  0  0  0
    5.8385  -19.2553   25.0146 O   0  0  0  0  0  0  0  0  0  0  0  0
    6.5953  -17.2839   23.9781 C   0  0  0  0  0  0  0  0  0  0  0  0
    7.0958  -16.8508   22.6247 C   0  0  0  0  0  0  0  0  0  0  0  0
    7.3530  -15.3568   22.5743 C   0  0  2  0  0  0  0  0  0  0  0  0
    8.0170  -15.0075   21.3221 N   0  0  0  0  0  0  0  0  0  0  0  0
    8.1123  -14.8584   23.7386 C   0  0  0  0  0  0  0  0  0  0  0  0
    9.3646  -15.0974   23.7543 O   0  0  0  0  0  0  0  0  0  0  0  0
    7.5692  -14.1466   24.8196 N   0  0  0  0  0  0  0  0  0  0  0  0
    6.1693  -13.7522   24.9292 C   0  0  0  0  0  0  0  0  0  0  0  0
    6.3088  -12.4158   25.6901 C   0  0  0  0  0  0  0  0  0  0  0  0
    7.3285  -12.7897   26.7189 C   0  0  0  0  0  0  0  0  0  0  0  0
    8.2832  -13.6720   25.9935 C   0  0  1  0  0  0  0  0  0  0  0  0
    8.7814  -14.7995   26.8203 C   0  0  0  0  0  0  0  0  0  0  0  0
    8.0225  -15.7872   26.9872 O   0  0  0  0  0  0  0  0  0  0  0  0
   12.6992  -15.0205   27.5674 O   0  0  0  0  0  0  0  0  0  0  0  0
   11.9776  -16.1864   27.7136 C   0  0  0  0  0  0  0  0  0  0  0  0
   10.5585  -15.9243   28.2222 C   0  0  2  0  0  0  0  0  0  0  0  0
   10.0456  -14.8306   27.4262 N   0  0  0  0  0  0  0  0  0  0  0  0
   10.6976  -15.4589   29.6174 C   0  0  0  0  0  0  0  0  0  0  0  0
   11.2448  -16.2289   30.6358 O   0  0  0  0  0  0  0  0  0  0  0  0
   10.3051  -14.3077   29.9167 O   0  0  0  0  0  0  0  0  0  0  0  0
  2  3  2  0
  2  1  1  0
  4  2  1  0
  5  4  1  0
  6  5  1  0
  6  7  1  6
  8  6  1  0
  9  8  2  0
 10  8  1  0
 10 14  1  0
 11 12  1  0
 11 10  1  0
 12 13  1  0
 13 14  1  0
 14 15  1  1
 15 16  2  0
 18 17  1  0
 19 18  1  6
 19 21  1  0
 20 19  1  0
 20 15  1  0
 21 23  2  0
 21 22  1  0
M  END
$$$$
