QPS.pdb
     RDKit          3D

 23 23  0  0  1  0  0  0  0  0999 V2000
    5.0297  -18.0392   23.1325 N   0  0  0  0  0  0  0  0  0  0  0  0
    6.4063  -18.2872   22.9135 C   0  0  0  0  0  0  0  0  0  0  0  0
    6.8163  -19.4656   22.9508 O   0  0  0  0  0  0  0  0  0  0  0  0
    7.3797  -17.2027   22.6418 C   0  0  0  0  0  0  0  0  0  0  0  0
    6.6916  -15.8627   22.6686 C   0  0  0  0  0  0  0  0  0  0  0  0
    7.6889  -14.7202   22.6400 C   0  0  2  0  0  0  0  0  0  0  0  0
    8.6684  -14.9403   21.5802 N   0  0  0  0  0  0  0  0  0  0  0  0
    8.3507  -14.4941   23.9405 C   0  0  0  0  0  0  0  0  0  0  0  0
    9.5640  -14.8724   24.0424 O   0  0  0  0  0  0  0  0  0  0  0  0
    7.7552  -13.8988   25.0636 N   0  0  0  0  0  0  0  0  0  0  0  0
    6.3982  -13.3650   25.0935 C   0  0  0  0  0  0  0  0  0  0  0  0
    6.5773  -12.1875   26.0764 C   0  0  0  0  0  0  0  0  0  0  0  0
    7.4243  -12.8324   27.1274 C   0  0  0  0  0  0  0  0  0  0  0  0
    8.3669  -13.6978   26.3668 C   0  0  1  0  0  0  0  0  0  0  0  0
    8.6484  -14.9898   27.0410 C   0  0  0  0  0  0  0  0  0  0  0  0
    7.7259  -15.8420   27.0887 O   0  0  0  0  0  0  0  0  0  0  0  0
   12.3466  -16.3483   27.3800 O   0  0  0  0  0  0  0  0  0  0  0  0
   11.3080  -17.2183   27.6362 C   0  0  0  0  0  0  0  0  0  0  0  0
   10.1501  -16.5329   28.3648 C   0  0  2  0  0  0  0  0  0  0  0  0
    9.8790  -15.3180   27.6277 N   0  0  0  0  0  0  0  0  0  0  0  0
   10.6620  -16.1624   29.7002 C   0  0  0  0  0  0  0  0  0  0  0  0
   11.0426  -17.0877   30.6636 O   0  0  0  0  0  0  0  0  0  0  0  0
   10.7652  -14.9499   29.9972 O   0  0  0  0  0  0  0  0  0  0  0  0
  2  3  2  0
  2  1  1  0
  4  2  1  0
  5  4  1  0
  6  5  1  0
  6  7  1  6
  8  6  1  0
  9  8  2  0
 10  8  1  0
 10 14  1  0
 11 12  1  0
 11 10  1  0
 12 13  1  0
 13 14  1  0
 14 15  1  1
 15 16  2  0
 18 17  1  0
 19 18  1  6
 19 21  1  0
 20 19  1  0
 20 15  1  0
 21 23  2  0
 21 22  1  0
M  END
$$$$
