QPS.pdb
     RDKit          3D

 23 23  0  0  1  0  0  0  0  0999 V2000
   10.5117  -23.2900   20.2680 N   0  0  0  0  0  0  0  0  0  0  0  0
    9.8814  -23.3704   19.0028 C   0  0  0  0  0  0  0  0  0  0  0  0
   10.2345  -24.2706   18.2135 O   0  0  0  0  0  0  0  0  0  0  0  0
    8.8189  -22.4277   18.5786 C   0  0  0  0  0  0  0  0  0  0  0  0
    8.5061  -21.4577   19.6882 C   0  0  0  0  0  0  0  0  0  0  0  0
    7.3577  -20.5375   19.3206 C   0  0  2  0  0  0  0  0  0  0  0  0
    7.7025  -19.7600   18.1341 N   0  0  0  0  0  0  0  0  0  0  0  0
    6.9384  -19.6595   20.4314 C   0  0  0  0  0  0  0  0  0  0  0  0
    7.4928  -18.5134   20.5000 O   0  0  0  0  0  0  0  0  0  0  0  0
    5.9842  -19.9834   21.4085 N   0  0  0  0  0  0  0  0  0  0  0  0
    5.2168  -21.2235   21.4347 C   0  0  0  0  0  0  0  0  0  0  0  0
    3.8875  -20.7228   22.0403 C   0  0  0  0  0  0  0  0  0  0  0  0
    4.3986  -19.8370   23.1321 C   0  0  0  0  0  0  0  0  0  0  0  0
    5.5848  -19.1611   22.5386 C   0  0  1  0  0  0  0  0  0  0  0  0
    6.6993  -18.9824   23.5025 C   0  0  0  0  0  0  0  0  0  0  0  0
    7.5918  -19.8663   23.5406 O   0  0  0  0  0  0  0  0  0  0  0  0
    6.3899  -15.9909   26.1468 O   0  0  0  0  0  0  0  0  0  0  0  0
    7.7110  -16.2865   25.8849 C   0  0  0  0  0  0  0  0  0  0  0  0
    7.8846  -17.7025   25.3315 C   0  0  2  0  0  0  0  0  0  0  0  0
    6.8176  -17.8892   24.3727 N   0  0  0  0  0  0  0  0  0  0  0  0
    7.6569  -18.6214   26.4656 C   0  0  0  0  0  0  0  0  0  0  0  0
    8.5657  -18.8104   27.4989 O   0  0  0  0  0  0  0  0  0  0  0  0
    6.5895  -19.2750   26.5141 O   0  0  0  0  0  0  0  0  0  0  0  0
  2  3  2  0
  2  1  1  0
  4  2  1  0
  5  4  1  0
  6  5  1  0
  6  7  1  6
  8  6  1  0
  9  8  2  0
 10  8  1  0
 10 14  1  0
 11 12  1  0
 11 10  1  0
 12 13  1  0
 13 14  1  0
 14 15  1  1
 15 16  2  0
 18 17  1  0
 19 18  1  1
 19 21  1  0
 20 19  1  0
 20 15  1  0
 21 23  2  0
 21 22  1  0
M  END
$$$$
