QPS.pdb
     RDKit          3D

 23 23  0  0  1  0  0  0  0  0999 V2000
    6.3776  -20.0375   17.8937 N   0  0  0  0  0  0  0  0  0  0  0  0
    6.1774  -19.0143   18.8515 C   0  0  0  0  0  0  0  0  0  0  0  0
    5.4902  -19.2661   19.8627 O   0  0  0  0  0  0  0  0  0  0  0  0
    6.7516  -17.6559   18.7009 C   0  0  0  0  0  0  0  0  0  0  0  0
    7.5587  -17.5665   17.4318 C   0  0  0  0  0  0  0  0  0  0  0  0
    8.1876  -16.1966   17.2633 C   0  0  2  0  0  0  0  0  0  0  0  0
    9.0516  -16.1863   16.0866 N   0  0  0  0  0  0  0  0  0  0  0  0
    8.9153  -15.7397   18.4642 C   0  0  0  0  0  0  0  0  0  0  0  0
   10.0777  -16.2281   18.6535 O   0  0  0  0  0  0  0  0  0  0  0  0
    8.4332  -14.8164   19.4051 N   0  0  0  0  0  0  0  0  0  0  0  0
    7.1698  -14.0977   19.2848 C   0  0  0  0  0  0  0  0  0  0  0  0
    7.5366  -12.7613   19.9662 C   0  0  0  0  0  0  0  0  0  0  0  0
    8.2983  -13.2579   21.1541 C   0  0  0  0  0  0  0  0  0  0  0  0
    9.0905  -14.4064   20.6351 C   0  0  1  0  0  0  0  0  0  0  0  0
    9.1914  -15.5304   21.5991 C   0  0  0  0  0  0  0  0  0  0  0  0
    8.1967  -16.2879   21.7262 O   0  0  0  0  0  0  0  0  0  0  0  0
   12.7450  -17.0001   22.5998 O   0  0  0  0  0  0  0  0  0  0  0  0
   11.6107  -17.7468   22.8382 C   0  0  0  0  0  0  0  0  0  0  0  0
   10.4459  -16.8832   23.3269 C   0  0  2  0  0  0  0  0  0  0  0  0
   10.3273  -15.7992   22.3762 N   0  0  0  0  0  0  0  0  0  0  0  0
   10.8651  -16.3186   24.6261 C   0  0  0  0  0  0  0  0  0  0  0  0
   11.0198  -17.0746   25.7811 O   0  0  0  0  0  0  0  0  0  0  0  0
   11.0984  -15.0907   24.7090 O   0  0  0  0  0  0  0  0  0  0  0  0
  2  3  2  0
  2  1  1  0
  4  2  1  0
  5  4  1  0
  6  5  1  0
  6  7  1  6
  8  6  1  0
  9  8  2  0
 10  8  1  0
 10 14  1  0
 11 12  1  0
 11 10  1  0
 12 13  1  0
 13 14  1  0
 14 15  1  1
 15 16  2  0
 18 17  1  0
 19 18  1  6
 19 21  1  0
 20 19  1  0
 20 15  1  0
 21 23  2  0
 21 22  1  0
M  END
$$$$
