QPS.pdb
     RDKit          3D

 23 23  0  0  1  0  0  0  0  0999 V2000
    5.4255  -18.3782   24.0317 N   0  0  0  0  0  0  0  0  0  0  0  0
    6.6596  -18.4628   23.3431 C   0  0  0  0  0  0  0  0  0  0  0  0
    7.2661  -19.5537   23.3321 O   0  0  0  0  0  0  0  0  0  0  0  0
    7.2598  -17.3071   22.6348 C   0  0  0  0  0  0  0  0  0  0  0  0
    6.3753  -16.0947   22.7679 C   0  0  0  0  0  0  0  0  0  0  0  0
    7.1530  -14.8088   22.5623 C   0  0  2  0  0  0  0  0  0  0  0  0
    7.9927  -14.9190   21.3732 N   0  0  0  0  0  0  0  0  0  0  0  0
    7.9478  -14.4154   23.7429 C   0  0  0  0  0  0  0  0  0  0  0  0
    9.2071  -14.6038   23.6778 O   0  0  0  0  0  0  0  0  0  0  0  0
    7.4311  -13.8532   24.9207 N   0  0  0  0  0  0  0  0  0  0  0  0
    6.0240  -13.5358   25.1364 C   0  0  0  0  0  0  0  0  0  0  0  0
    6.1486  -12.2877   26.0371 C   0  0  0  0  0  0  0  0  0  0  0  0
    7.2312  -12.7287   26.9705 C   0  0  0  0  0  0  0  0  0  0  0  0
    8.1828  -13.4815   26.1080 C   0  0  1  0  0  0  0  0  0  0  0  0
    8.7644  -14.6711   26.7786 C   0  0  0  0  0  0  0  0  0  0  0  0
    8.0808  -15.7253   26.8041 O   0  0  0  0  0  0  0  0  0  0  0  0
   12.8449  -16.8232   28.1789 O   0  0  0  0  0  0  0  0  0  0  0  0
   12.1285  -15.7784   27.6345 C   0  0  0  0  0  0  0  0  0  0  0  0
   10.6418  -15.8541   27.9887 C   0  0  2  0  0  0  0  0  0  0  0  0
   10.0286  -14.6912   27.3850 N   0  0  0  0  0  0  0  0  0  0  0  0
   10.5580  -15.7146   29.4571 C   0  0  0  0  0  0  0  0  0  0  0  0
   10.8899  -16.7276   30.3477 O   0  0  0  0  0  0  0  0  0  0  0  0
   10.1677  -14.6284   29.9436 O   0  0  0  0  0  0  0  0  0  0  0  0
  2  3  2  0
  2  1  1  0
  4  2  1  0
  5  4  1  0
  6  5  1  0
  6  7  1  6
  8  6  1  0
  9  8  2  0
 10  8  1  0
 10 14  1  0
 11 12  1  0
 11 10  1  0
 12 13  1  0
 13 14  1  0
 14 15  1  1
 15 16  2  0
 18 17  1  0
 19 18  1  1
 19 21  1  0
 20 19  1  0
 20 15  1  0
 21 23  2  0
 21 22  1  0
M  END
$$$$
