QPS.pdb
     RDKit          3D

 23 23  0  0  1  0  0  0  0  0999 V2000
    4.9067  -18.6047   17.4336 N   0  0  0  0  0  0  0  0  0  0  0  0
    6.1413  -19.0338   17.9778 C   0  0  0  0  0  0  0  0  0  0  0  0
    6.1709  -20.0966   18.6317 O   0  0  0  0  0  0  0  0  0  0  0  0
    7.4000  -18.2708   17.8016 C   0  0  0  0  0  0  0  0  0  0  0  0
    7.1526  -17.0367   16.9734 C   0  0  0  0  0  0  0  0  0  0  0  0
    8.4105  -16.2030   16.8209 C   0  0  2  0  0  0  0  0  0  0  0  0
    9.3986  -16.9318   16.0312 N   0  0  0  0  0  0  0  0  0  0  0  0
    8.9768  -15.7644   18.1122 C   0  0  0  0  0  0  0  0  0  0  0  0
   10.0134  -16.3812   18.5253 O   0  0  0  0  0  0  0  0  0  0  0  0
    8.4697  -14.7293   18.9132 N   0  0  0  0  0  0  0  0  0  0  0  0
    7.2418  -13.9938   18.6328 C   0  0  0  0  0  0  0  0  0  0  0  0
    7.6117  -12.6007   19.1868 C   0  0  0  0  0  0  0  0  0  0  0  0
    8.2806  -12.9830   20.4691 C   0  0  0  0  0  0  0  0  0  0  0  0
    9.0632  -14.2035   20.1314 C   0  0  1  0  0  0  0  0  0  0  0  0
    9.0652  -15.2158   21.2168 C   0  0  0  0  0  0  0  0  0  0  0  0
    8.0207  -15.8922   21.3926 O   0  0  0  0  0  0  0  0  0  0  0  0
   12.4819  -16.8478   22.5172 O   0  0  0  0  0  0  0  0  0  0  0  0
   11.2647  -17.4522   22.7500 C   0  0  0  0  0  0  0  0  0  0  0  0
   10.1820  -16.4386   23.1264 C   0  0  2  0  0  0  0  0  0  0  0  0
   10.1597  -15.4639   22.0576 N   0  0  0  0  0  0  0  0  0  0  0  0
   10.6510  -15.7689   24.3569 C   0  0  0  0  0  0  0  0  0  0  0  0
   10.6880  -16.3828   25.6023 O   0  0  0  0  0  0  0  0  0  0  0  0
   11.0410  -14.5803   24.2917 O   0  0  0  0  0  0  0  0  0  0  0  0
  2  3  2  0
  2  1  1  0
  4  2  1  0
  5  4  1  0
  6  5  1  0
  6  7  1  1
  8  6  1  0
  9  8  2  0
 10  8  1  0
 10 14  1  0
 11 12  1  0
 11 10  1  0
 12 13  1  0
 13 14  1  0
 14 15  1  1
 15 16  2  0
 18 17  1  0
 19 18  1  6
 19 21  1  0
 20 19  1  0
 20 15  1  0
 21 23  2  0
 21 22  1  0
M  END
$$$$
