QPS.pdb
     RDKit          3D

 23 23  0  0  1  0  0  0  0  0999 V2000
    9.8321  -19.2555   15.6379 N   0  0  0  0  0  0  0  0  0  0  0  0
    8.7854  -18.3078   15.5354 C   0  0  0  0  0  0  0  0  0  0  0  0
    8.2441  -18.1305   14.4247 O   0  0  0  0  0  0  0  0  0  0  0  0
    8.3069  -17.5179   16.6950 C   0  0  0  0  0  0  0  0  0  0  0  0
    7.8831  -16.1417   16.2519 C   0  0  0  0  0  0  0  0  0  0  0  0
    9.0332  -15.1547   16.3129 C   0  0  2  0  0  0  0  0  0  0  0  0
   10.1315  -15.6166   15.4694 N   0  0  0  0  0  0  0  0  0  0  0  0
    9.4942  -14.8841   17.6894 C   0  0  0  0  0  0  0  0  0  0  0  0
   10.6453  -15.3296   18.0090 O   0  0  0  0  0  0  0  0  0  0  0  0
    8.7722  -14.1795   18.6653 N   0  0  0  0  0  0  0  0  0  0  0  0
    7.4833  -13.5365   18.4355 C   0  0  0  0  0  0  0  0  0  0  0  0
    7.5974  -12.3233   19.3840 C   0  0  0  0  0  0  0  0  0  0  0  0
    8.1919  -12.9738   20.5929 C   0  0  0  0  0  0  0  0  0  0  0  0
    9.1687  -13.9547   20.0456 C   0  0  1  0  0  0  0  0  0  0  0  0
    9.2142  -15.2247   20.8125 C   0  0  0  0  0  0  0  0  0  0  0  0
    8.3238  -16.0819   20.5849 O   0  0  0  0  0  0  0  0  0  0  0  0
   12.6701  -16.5595   22.0736 O   0  0  0  0  0  0  0  0  0  0  0  0
   11.6019  -17.4271   21.9879 C   0  0  0  0  0  0  0  0  0  0  0  0
   10.3005  -16.7871   22.4760 C   0  0  2  0  0  0  0  0  0  0  0  0
   10.1887  -15.5269   21.7745 N   0  0  0  0  0  0  0  0  0  0  0  0
   10.4917  -16.5040   23.9133 C   0  0  0  0  0  0  0  0  0  0  0  0
   10.6019  -17.4902   24.8852 O   0  0  0  0  0  0  0  0  0  0  0  0
   10.5604  -15.3128   24.2948 O   0  0  0  0  0  0  0  0  0  0  0  0
  2  3  2  0
  2  1  1  0
  4  2  1  0
  5  4  1  0
  6  5  1  0
  6  7  1  6
  8  6  1  0
  9  8  2  0
 10  8  1  0
 10 14  1  0
 11 12  1  0
 11 10  1  0
 12 13  1  0
 13 14  1  0
 14 15  1  1
 15 16  2  0
 18 17  1  0
 19 18  1  6
 19 21  1  0
 20 19  1  0
 20 15  1  0
 21 23  2  0
 21 22  1  0
M  END
$$$$
