QPS.pdb
     RDKit          3D

 23 23  0  0  1  0  0  0  0  0999 V2000
    7.6678  -19.4851   15.8745 N   0  0  0  0  0  0  0  0  0  0  0  0
    7.4459  -18.5771   14.8110 C   0  0  0  0  0  0  0  0  0  0  0  0
    7.3208  -19.0285   13.6540 O   0  0  0  0  0  0  0  0  0  0  0  0
    7.3564  -17.1119   15.0174 C   0  0  0  0  0  0  0  0  0  0  0  0
    8.0512  -16.7199   16.2955 C   0  0  0  0  0  0  0  0  0  0  0  0
    8.7812  -15.3979   16.1535 C   0  0  2  0  0  0  0  0  0  0  0  0
    9.7374  -15.4725   15.0529 N   0  0  0  0  0  0  0  0  0  0  0  0
    9.4367  -14.9592   17.4018 C   0  0  0  0  0  0  0  0  0  0  0  0
   10.6847  -15.1965   17.5107 O   0  0  0  0  0  0  0  0  0  0  0  0
    8.8003  -14.3052   18.4683 N   0  0  0  0  0  0  0  0  0  0  0  0
    7.4112  -13.8609   18.4541 C   0  0  0  0  0  0  0  0  0  0  0  0
    7.5098  -12.5903   19.3260 C   0  0  0  0  0  0  0  0  0  0  0  0
    8.3942  -13.0807   20.4284 C   0  0  0  0  0  0  0  0  0  0  0  0
    9.3937  -13.9477   19.7461 C   0  0  1  0  0  0  0  0  0  0  0  0
    9.7573  -15.1523   20.5335 C   0  0  0  0  0  0  0  0  0  0  0  0
    8.9869  -16.1439   20.4815 O   0  0  0  0  0  0  0  0  0  0  0  0
   13.4080  -15.2860   22.2276 O   0  0  0  0  0  0  0  0  0  0  0  0
   12.7992  -16.5078   22.0335 C   0  0  0  0  0  0  0  0  0  0  0  0
   11.2744  -16.4101   22.1162 C   0  0  2  0  0  0  0  0  0  0  0  0
   10.9062  -15.2521   21.3311 N   0  0  0  0  0  0  0  0  0  0  0  0
   10.9529  -16.1339   23.5314 C   0  0  0  0  0  0  0  0  0  0  0  0
   10.3923  -14.9435   23.9763 O   0  0  0  0  0  0  0  0  0  0  0  0
   11.1928  -17.0117   24.3922 O   0  0  0  0  0  0  0  0  0  0  0  0
  2  3  2  0
  2  1  1  0
  4  2  1  0
  5  4  1  0
  6  5  1  0
  6  7  1  6
  8  6  1  0
  9  8  2  0
 10  8  1  0
 10 14  1  0
 11 12  1  0
 11 10  1  0
 12 13  1  0
 13 14  1  0
 14 15  1  1
 15 16  2  0
 18 17  1  0
 19 18  1  1
 19 21  1  0
 20 19  1  0
 20 15  1  0
 21 23  2  0
 21 22  1  0
M  END
$$$$
