QPS.pdb
     RDKit          3D

 23 23  0  0  1  0  0  0  0  0999 V2000
    4.2486  -17.6111   21.8235 N   0  0  0  0  0  0  0  0  0  0  0  0
    4.8778  -18.7694   21.3069 C   0  0  0  0  0  0  0  0  0  0  0  0
    4.8601  -19.8153   21.9880 O   0  0  0  0  0  0  0  0  0  0  0  0
    5.5568  -18.7890   19.9893 C   0  0  0  0  0  0  0  0  0  0  0  0
    5.5172  -17.4209   19.3595 C   0  0  0  0  0  0  0  0  0  0  0  0
    6.7904  -17.1206   18.5919 C   0  0  2  0  0  0  0  0  0  0  0  0
    7.2874  -18.3369   17.9558 N   0  0  0  0  0  0  0  0  0  0  0  0
    7.8342  -16.4876   19.4228 C   0  0  0  0  0  0  0  0  0  0  0  0
    8.8459  -17.2040   19.7206 O   0  0  0  0  0  0  0  0  0  0  0  0
    7.8018  -15.1698   19.9051 N   0  0  0  0  0  0  0  0  0  0  0  0
    6.6993  -14.2391   19.6920 C   0  0  0  0  0  0  0  0  0  0  0  0
    7.4673  -12.9019   19.6109 C   0  0  0  0  0  0  0  0  0  0  0  0
    8.4331  -13.0700   20.7410 C   0  0  0  0  0  0  0  0  0  0  0  0
    8.8374  -14.5012   20.6754 C   0  0  1  0  0  0  0  0  0  0  0  0
    9.0080  -15.1226   22.0125 C   0  0  0  0  0  0  0  0  0  0  0  0
    7.9961  -15.2150   22.7519 O   0  0  0  0  0  0  0  0  0  0  0  0
   11.1844  -18.0907   22.5727 O   0  0  0  0  0  0  0  0  0  0  0  0
   10.4195  -17.6872   23.6467 C   0  0  0  0  0  0  0  0  0  0  0  0
   10.4307  -16.1671   23.8218 C   0  0  2  0  0  0  0  0  0  0  0  0
   10.2277  -15.6124   22.5012 N   0  0  0  0  0  0  0  0  0  0  0  0
   11.7924  -15.8117   24.2712 C   0  0  0  0  0  0  0  0  0  0  0  0
   12.2744  -16.0694   25.5481 O   0  0  0  0  0  0  0  0  0  0  0  0
   12.5696  -15.2455   23.4684 O   0  0  0  0  0  0  0  0  0  0  0  0
  2  3  2  0
  2  1  1  0
  4  2  1  0
  5  4  1  0
  6  5  1  0
  6  7  1  1
  8  6  1  0
  9  8  2  0
 10  8  1  0
 10 14  1  0
 11 12  1  0
 11 10  1  0
 12 13  1  0
 13 14  1  0
 14 15  1  1
 15 16  2  0
 18 17  1  0
 19 18  1  6
 19 21  1  0
 20 19  1  0
 20 15  1  0
 21 23  2  0
 21 22  1  0
M  END
$$$$
