QPS.pdb
     RDKit          3D

 23 23  0  0  1  0  0  0  0  0999 V2000
    6.0100  -17.6161   24.0813 N   0  0  0  0  0  0  0  0  0  0  0  0
    6.2492  -17.7168   22.6895 C   0  0  0  0  0  0  0  0  0  0  0  0
    6.3841  -18.8506   22.1852 O   0  0  0  0  0  0  0  0  0  0  0  0
    6.3456  -16.5291   21.8077 C   0  0  0  0  0  0  0  0  0  0  0  0
    6.0950  -15.2700   22.5962 C   0  0  0  0  0  0  0  0  0  0  0  0
    7.2713  -14.3157   22.5164 C   0  0  2  0  0  0  0  0  0  0  0  0
    8.1703  -14.7219   21.4404 N   0  0  0  0  0  0  0  0  0  0  0  0
    7.9965  -14.1792   23.7955 C   0  0  0  0  0  0  0  0  0  0  0  0
    9.1977  -14.6055   23.8244 O   0  0  0  0  0  0  0  0  0  0  0  0
    7.4730  -13.6201   24.9717 N   0  0  0  0  0  0  0  0  0  0  0  0
    6.1346  -13.0531   25.0922 C   0  0  0  0  0  0  0  0  0  0  0  0
    6.3939  -11.9263   26.1157 C   0  0  0  0  0  0  0  0  0  0  0  0
    7.2722  -12.6398   27.0942 C   0  0  0  0  0  0  0  0  0  0  0  0
    8.1523  -13.4941   26.2505 C   0  0  1  0  0  0  0  0  0  0  0  0
    8.4296  -14.8221   26.8527 C   0  0  0  0  0  0  0  0  0  0  0  0
    7.5134  -15.6820   26.8288 O   0  0  0  0  0  0  0  0  0  0  0  0
   12.1252  -16.0436   27.1110 O   0  0  0  0  0  0  0  0  0  0  0  0
   11.1588  -17.0081   27.3037 C   0  0  0  0  0  0  0  0  0  0  0  0
    9.9393  -16.4597   28.0476 C   0  0  2  0  0  0  0  0  0  0  0  0
    9.6497  -15.1762   27.4462 N   0  0  0  0  0  0  0  0  0  0  0  0
   10.3717  -16.2331   29.4419 C   0  0  0  0  0  0  0  0  0  0  0  0
   10.7700  -17.2499   30.3003 O   0  0  0  0  0  0  0  0  0  0  0  0
   10.3862  -15.0642   29.8920 O   0  0  0  0  0  0  0  0  0  0  0  0
  2  3  2  0
  2  1  1  0
  4  2  1  0
  5  4  1  0
  6  5  1  0
  6  7  1  6
  8  6  1  0
  9  8  2  0
 10  8  1  0
 10 14  1  0
 11 12  1  0
 11 10  1  0
 12 13  1  0
 13 14  1  0
 14 15  1  1
 15 16  2  0
 18 17  1  0
 19 18  1  6
 19 21  1  0
 20 19  1  0
 20 15  1  0
 21 23  2  0
 21 22  1  0
M  END
$$$$
