QPS.pdb
     RDKit          3D

 23 23  0  0  1  0  0  0  0  0999 V2000
    8.2279  -19.7598   15.8347 N   0  0  0  0  0  0  0  0  0  0  0  0
    7.4046  -18.9352   15.0305 C   0  0  0  0  0  0  0  0  0  0  0  0
    7.0692  -19.3439   13.8998 O   0  0  0  0  0  0  0  0  0  0  0  0
    6.9254  -17.6058   15.4782 C   0  0  0  0  0  0  0  0  0  0  0  0
    7.6938  -17.1541   16.6929 C   0  0  0  0  0  0  0  0  0  0  0  0
    8.5367  -15.9279   16.3986 C   0  0  2  0  0  0  0  0  0  0  0  0
    9.4899  -16.2227   15.3329 N   0  0  0  0  0  0  0  0  0  0  0  0
    9.2197  -15.3920   17.5931 C   0  0  0  0  0  0  0  0  0  0  0  0
   10.4249  -15.7628   17.7819 O   0  0  0  0  0  0  0  0  0  0  0  0
    8.6524  -14.5124   18.5283 N   0  0  0  0  0  0  0  0  0  0  0  0
    7.3036  -13.9652   18.4353 C   0  0  0  0  0  0  0  0  0  0  0  0
    7.5162  -12.5745   19.0720 C   0  0  0  0  0  0  0  0  0  0  0  0
    8.3726  -12.9362   20.2440 C   0  0  0  0  0  0  0  0  0  0  0  0
    9.2897  -13.9876   19.7247 C   0  0  1  0  0  0  0  0  0  0  0  0
    9.5651  -15.0624   20.7107 C   0  0  0  0  0  0  0  0  0  0  0  0
    8.7946  -16.0550   20.7299 O   0  0  0  0  0  0  0  0  0  0  0  0
   12.9674  -16.8283   23.7300 O   0  0  0  0  0  0  0  0  0  0  0  0
   12.4534  -15.8330   22.9259 C   0  0  0  0  0  0  0  0  0  0  0  0
   11.0282  -16.1450   22.4646 C   0  0  2  0  0  0  0  0  0  0  0  0
   10.6311  -15.0385   21.6214 N   0  0  0  0  0  0  0  0  0  0  0  0
   10.1868  -16.1296   23.6789 C   0  0  0  0  0  0  0  0  0  0  0  0
   10.0489  -17.2149   24.5347 O   0  0  0  0  0  0  0  0  0  0  0  0
    9.5552  -15.0873   23.9682 O   0  0  0  0  0  0  0  0  0  0  0  0
  2  3  2  0
  2  1  1  0
  4  2  1  0
  5  4  1  0
  6  5  1  0
  6  7  1  6
  8  6  1  0
  9  8  2  0
 10  8  1  0
 10 14  1  0
 11 12  1  0
 11 10  1  0
 12 13  1  0
 13 14  1  0
 14 15  1  1
 15 16  2  0
 18 17  1  0
 19 18  1  1
 19 21  1  0
 20 19  1  0
 20 15  1  0
 21 23  2  0
 21 22  1  0
M  END
$$$$
