QPS.pdb
     RDKit          3D

 23 23  0  0  1  0  0  0  0  0999 V2000
    7.4389  -12.5666   19.7373 N   0  0  0  0  0  0  0  0  0  0  0  0
    7.1559  -13.9160   19.4160 C   0  0  0  0  0  0  0  0  0  0  0  0
    7.0672  -14.2398   18.2137 O   0  0  0  0  0  0  0  0  0  0  0  0
    6.9606  -14.9594   20.4508 C   0  0  0  0  0  0  0  0  0  0  0  0
    7.1457  -14.3734   21.8264 C   0  0  0  0  0  0  0  0  0  0  0  0
    8.6063  -14.0919   22.1234 C   0  0  2  0  0  0  0  0  0  0  0  0
    9.4529  -15.0335   21.3970 N   0  0  0  0  0  0  0  0  0  0  0  0
    8.9172  -14.0978   23.5670 C   0  0  0  0  0  0  0  0  0  0  0  0
   10.0654  -14.5358   23.9067 O   0  0  0  0  0  0  0  0  0  0  0  0
    8.0565  -13.6612   24.5862 N   0  0  0  0  0  0  0  0  0  0  0  0
    6.6743  -13.2446   24.3781 C   0  0  0  0  0  0  0  0  0  0  0  0
    6.5393  -12.1541   25.4630 C   0  0  0  0  0  0  0  0  0  0  0  0
    7.2221  -12.8239   26.6132 C   0  0  0  0  0  0  0  0  0  0  0  0
    8.3767  -13.5345   25.9983 C   0  0  1  0  0  0  0  0  0  0  0  0
    8.6458  -14.8570   26.6162 C   0  0  0  0  0  0  0  0  0  0  0  0
    7.9315  -15.8284   26.2619 O   0  0  0  0  0  0  0  0  0  0  0  0
   11.8851  -17.9212   27.8453 O   0  0  0  0  0  0  0  0  0  0  0  0
   11.3738  -16.7162   27.4120 C   0  0  0  0  0  0  0  0  0  0  0  0
   10.0315  -16.3909   28.0707 C   0  0  2  0  0  0  0  0  0  0  0  0
    9.6471  -15.0892   27.5700 N   0  0  0  0  0  0  0  0  0  0  0  0
   10.2985  -16.2720   29.5188 C   0  0  0  0  0  0  0  0  0  0  0  0
   10.5962  -17.3528   30.3390 O   0  0  0  0  0  0  0  0  0  0  0  0
   10.2584  -15.1401   30.0539 O   0  0  0  0  0  0  0  0  0  0  0  0
  2  3  2  0
  2  1  1  0
  4  2  1  0
  5  4  1  0
  6  5  1  0
  6  7  1  6
  8  6  1  0
  9  8  2  0
 10  8  1  0
 10 14  1  0
 11 12  1  0
 11 10  1  0
 12 13  1  0
 13 14  1  0
 14 15  1  1
 15 16  2  0
 18 17  1  0
 19 18  1  6
 19 21  1  0
 20 19  1  0
 20 15  1  0
 21 23  2  0
 21 22  1  0
M  END
$$$$
