QPS.pdb
     RDKit          3D

 23 23  0  0  1  0  0  0  0  0999 V2000
   12.3453  -15.7249   16.6582 N   0  0  0  0  0  0  0  0  0  0  0  0
   11.4251  -16.4409   17.4612 C   0  0  0  0  0  0  0  0  0  0  0  0
   11.8181  -17.4671   18.0531 O   0  0  0  0  0  0  0  0  0  0  0  0
   10.0134  -16.0200   17.6267 C   0  0  0  0  0  0  0  0  0  0  0  0
    9.8815  -14.5345   17.4125 C   0  0  0  0  0  0  0  0  0  0  0  0
    8.7151  -13.9576   18.1918 C   0  0  2  0  0  0  0  0  0  0  0  0
    8.5716  -12.5356   17.8941 N   0  0  0  0  0  0  0  0  0  0  0  0
    8.8158  -14.1912   19.6463 C   0  0  0  0  0  0  0  0  0  0  0  0
    9.7084  -13.5325   20.2747 O   0  0  0  0  0  0  0  0  0  0  0  0
    8.0119  -15.0725   20.3862 N   0  0  0  0  0  0  0  0  0  0  0  0
    6.8883  -15.8236   19.8378 C   0  0  0  0  0  0  0  0  0  0  0  0
    5.9489  -15.8653   21.0627 C   0  0  0  0  0  0  0  0  0  0  0  0
    6.9279  -16.1770   22.1501 C   0  0  0  0  0  0  0  0  0  0  0  0
    8.1379  -15.3833   21.8005 C   0  0  1  0  0  0  0  0  0  0  0  0
    9.4078  -16.0948   22.0904 C   0  0  0  0  0  0  0  0  0  0  0  0
   10.0211  -16.6202   21.1275 O   0  0  0  0  0  0  0  0  0  0  0  0
   10.5916  -16.3266   25.9480 O   0  0  0  0  0  0  0  0  0  0  0  0
   11.6286  -16.4718   25.0510 C   0  0  0  0  0  0  0  0  0  0  0  0
   11.1467  -16.9870   23.6932 C   0  0  2  0  0  0  0  0  0  0  0  0
    9.9651  -16.2168   23.3714 N   0  0  0  0  0  0  0  0  0  0  0  0
   10.7428  -18.3926   23.9028 C   0  0  0  0  0  0  0  0  0  0  0  0
   11.6433  -19.4344   24.0845 O   0  0  0  0  0  0  0  0  0  0  0  0
    9.5235  -18.6790   23.9207 O   0  0  0  0  0  0  0  0  0  0  0  0
  2  3  2  0
  2  1  1  0
  4  2  1  0
  5  4  1  0
  6  5  1  0
  6  7  1  1
  8  6  1  0
  9  8  2  0
 10  8  1  0
 10 14  1  0
 11 12  1  0
 11 10  1  0
 12 13  1  0
 13 14  1  0
 14 15  1  6
 15 16  2  0
 18 17  1  0
 19 18  1  1
 19 21  1  0
 20 19  1  0
 20 15  1  0
 21 23  2  0
 21 22  1  0
M  END
$$$$
