QPS.pdb
     RDKit          3D

 23 23  0  0  1  0  0  0  0  0999 V2000
    7.8013  -12.3633   19.6453 N   0  0  0  0  0  0  0  0  0  0  0  0
    7.2777  -13.6383   19.3216 C   0  0  0  0  0  0  0  0  0  0  0  0
    7.0992  -13.9254   18.1201 O   0  0  0  0  0  0  0  0  0  0  0  0
    6.9332  -14.6455   20.3533 C   0  0  0  0  0  0  0  0  0  0  0  0
    6.9088  -14.0091   21.7187 C   0  0  0  0  0  0  0  0  0  0  0  0
    8.2997  -13.6154   22.1782 C   0  0  2  0  0  0  0  0  0  0  0  0
    9.2984  -14.1479   21.2561 N   0  0  0  0  0  0  0  0  0  0  0  0
    8.5879  -14.0189   23.5691 C   0  0  0  0  0  0  0  0  0  0  0  0
    9.6173  -14.7478   23.7554 O   0  0  0  0  0  0  0  0  0  0  0  0
    7.8258  -13.6648   24.6933 N   0  0  0  0  0  0  0  0  0  0  0  0
    6.5456  -12.9680   24.6373 C   0  0  0  0  0  0  0  0  0  0  0  0
    6.6188  -12.1335   25.9345 C   0  0  0  0  0  0  0  0  0  0  0  0
    7.1660  -13.1504   26.8856 C   0  0  0  0  0  0  0  0  0  0  0  0
    8.1662  -13.9087   26.0852 C   0  0  1  0  0  0  0  0  0  0  0  0
    8.1840  -15.3602   26.3949 C   0  0  0  0  0  0  0  0  0  0  0  0
    7.1439  -16.0250   26.1593 O   0  0  0  0  0  0  0  0  0  0  0  0
   11.4818  -17.4209   26.2725 O   0  0  0  0  0  0  0  0  0  0  0  0
   10.2942  -18.1146   26.3704 C   0  0  0  0  0  0  0  0  0  0  0  0
    9.3047  -17.4302   27.3157 C   0  0  2  0  0  0  0  0  0  0  0  0
    9.2888  -16.0349   26.9338 N   0  0  0  0  0  0  0  0  0  0  0  0
    9.8852  -17.5351   28.6702 C   0  0  0  0  0  0  0  0  0  0  0  0
   10.1248  -18.7419   29.3147 O   0  0  0  0  0  0  0  0  0  0  0  0
   10.1841  -16.4865   29.2868 O   0  0  0  0  0  0  0  0  0  0  0  0
  2  3  2  0
  2  1  1  0
  4  2  1  0
  5  4  1  0
  6  5  1  0
  6  7  1  6
  8  6  1  0
  9  8  2  0
 10  8  1  0
 10 14  1  0
 11 12  1  0
 11 10  1  0
 12 13  1  0
 13 14  1  0
 14 15  1  1
 15 16  2  0
 18 17  1  0
 19 18  1  6
 19 21  1  0
 20 19  1  0
 20 15  1  0
 21 23  2  0
 21 22  1  0
M  END
$$$$
