QPS.pdb
     RDKit          3D

 23 23  0  0  1  0  0  0  0  0999 V2000
    4.5904  -17.7353   22.5907 N   0  0  0  0  0  0  0  0  0  0  0  0
    5.9278  -17.8783   23.0326 C   0  0  0  0  0  0  0  0  0  0  0  0
    6.2797  -18.9652   23.5357 O   0  0  0  0  0  0  0  0  0  0  0  0
    6.9265  -16.7885   22.9216 C   0  0  0  0  0  0  0  0  0  0  0  0
    6.2652  -15.5182   22.4536 C   0  0  0  0  0  0  0  0  0  0  0  0
    7.2389  -14.3554   22.4308 C   0  0  2  0  0  0  0  0  0  0  0  0
    8.0700  -14.4248   21.2327 N   0  0  0  0  0  0  0  0  0  0  0  0
    8.0665  -14.2667   23.6505 C   0  0  0  0  0  0  0  0  0  0  0  0
    9.2593  -14.7096   23.5702 O   0  0  0  0  0  0  0  0  0  0  0  0
    7.6479  -13.7359   24.8807 N   0  0  0  0  0  0  0  0  0  0  0  0
    6.3384  -13.1399   25.1205 C   0  0  0  0  0  0  0  0  0  0  0  0
    6.7045  -12.0564   26.1579 C   0  0  0  0  0  0  0  0  0  0  0  0
    7.6333  -12.8254   27.0433 C   0  0  0  0  0  0  0  0  0  0  0  0
    8.4239  -13.6717   26.1080 C   0  0  1  0  0  0  0  0  0  0  0  0
    8.7085  -15.0264   26.6436 C   0  0  0  0  0  0  0  0  0  0  0  0
    7.7968  -15.8889   26.5771 O   0  0  0  0  0  0  0  0  0  0  0  0
   11.5345  -17.1222   25.9426 O   0  0  0  0  0  0  0  0  0  0  0  0
   11.5017  -17.1849   27.3196 C   0  0  0  0  0  0  0  0  0  0  0  0
   10.1812  -16.6609   27.8878 C   0  0  2  0  0  0  0  0  0  0  0  0
    9.9307  -15.4030   27.2186 N   0  0  0  0  0  0  0  0  0  0  0  0
   10.4257  -16.3859   29.3186 C   0  0  0  0  0  0  0  0  0  0  0  0
   10.7009  -17.3724   30.2570 O   0  0  0  0  0  0  0  0  0  0  0  0
   10.3866  -15.2020   29.7259 O   0  0  0  0  0  0  0  0  0  0  0  0
  2  3  2  0
  2  1  1  0
  4  2  1  0
  5  4  1  0
  6  5  1  0
  6  7  1  6
  8  6  1  0
  9  8  2  0
 10  8  1  0
 10 14  1  0
 11 12  1  0
 11 10  1  0
 12 13  1  0
 13 14  1  0
 14 15  1  1
 15 16  2  0
 18 17  1  0
 19 18  1  6
 19 21  1  0
 20 19  1  0
 20 15  1  0
 21 23  2  0
 21 22  1  0
M  END
$$$$
