AEE.pdb
     RDKit          3D

 24 23  0  0  1  0  0  0  0  0999 V2000
    6.9578  -12.8589   19.5062 C   0  0  0  0  0  0  0  0  0  0  0  0
    8.4449  -13.0169   19.5441 C   0  0  2  0  0  0  0  0  0  0  0  0
    8.9352  -13.1599   18.1864 N   0  0  0  0  0  0  0  0  0  0  0  0
    8.8946  -14.1810   20.3400 C   0  0  0  0  0  0  0  0  0  0  0  0
    8.5193  -14.3300   21.5422 O   0  0  0  0  0  0  0  0  0  0  0  0
    9.7567  -15.1890   19.8289 N   0  0  0  0  0  0  0  0  0  0  0  0
   10.0888  -16.4109   20.5152 C   0  0  1  0  0  0  0  0  0  0  0  0
   10.6594  -17.4360   19.5582 C   0  0  0  0  0  0  0  0  0  0  0  0
   10.4309  -18.8593   20.0534 C   0  0  0  0  0  0  0  0  0  0  0  0
   10.9169  -19.7733   19.0045 C   0  0  0  0  0  0  0  0  0  0  0  0
   10.2829  -20.8128   18.7441 O   0  0  0  0  0  0  0  0  0  0  0  0
   11.0696  -16.2155   21.6006 C   0  0  0  0  0  0  0  0  0  0  0  0
   11.9245  -15.3074   21.4439 O   0  0  0  0  0  0  0  0  0  0  0  0
   12.0705  -19.4724   18.3177 O   0  0  0  0  0  0  0  0  0  0  0  0
   11.1158  -16.9663   22.7874 N   0  0  0  0  0  0  0  0  0  0  0  0
   11.9813  -16.6489   23.9326 C   0  0  1  0  0  0  0  0  0  0  0  0
   11.2123  -17.1060   25.1407 C   0  0  0  0  0  0  0  0  0  0  0  0
   12.0273  -16.9618   26.3762 C   0  0  0  0  0  0  0  0  0  0  0  0
   11.2835  -17.5155   27.5294 C   0  0  0  0  0  0  0  0  0  0  0  0
   11.7814  -18.4564   28.1839 O   0  0  0  0  0  0  0  0  0  0  0  0
   13.2988  -17.2735   23.7893 C   0  0  0  0  0  0  0  0  0  0  0  0
   14.4867  -16.8051   24.3151 O   0  0  0  0  0  0  0  0  0  0  0  0
   10.0546  -16.9978   27.8770 O   0  0  0  0  0  0  0  0  0  0  0  0
   13.3737  -18.3418   23.1232 O   0  0  0  0  0  0  0  0  0  0  0  0
  2  1  1  6
  2  3  1  0
  4  2  1  0
  4  5  2  0
  6  4  1  0
  7  6  1  0
  7 12  1  0
  7  8  1  6
  9 10  1  0
  9  8  1  0
 10 14  1  0
 11 10  2  0
 12 13  2  0
 12 15  1  0
 15 16  1  0
 16 21  1  0
 16 17  1  1
 18 17  1  0
 19 18  1  0
 19 20  2  0
 21 24  2  0
 21 22  1  0
 23 19  1  0
M  END
$$$$
