AEE.pdb
     RDKit          3D

 24 23  0  0  1  0  0  0  0  0999 V2000
    8.2232  -12.1525   20.0143 C   0  0  0  0  0  0  0  0  0  0  0  0
    8.4250  -13.1385   18.9076 C   0  0  2  0  0  0  0  0  0  0  0  0
    7.1762  -13.8369   18.6693 N   0  0  0  0  0  0  0  0  0  0  0  0
    9.4834  -14.1339   19.1898 C   0  0  0  0  0  0  0  0  0  0  0  0
    9.1870  -15.3096   19.5615 O   0  0  0  0  0  0  0  0  0  0  0  0
   10.8714  -13.8522   19.0683 N   0  0  0  0  0  0  0  0  0  0  0  0
   11.9240  -14.8191   19.2451 C   0  0  1  0  0  0  0  0  0  0  0  0
   12.9616  -14.7023   18.1487 C   0  0  0  0  0  0  0  0  0  0  0  0
   14.0636  -15.7441   18.3010 C   0  0  0  0  0  0  0  0  0  0  0  0
   14.9765  -15.5897   17.1544 C   0  0  0  0  0  0  0  0  0  0  0  0
   15.8692  -14.7222   17.1837 O   0  0  0  0  0  0  0  0  0  0  0  0
   12.6213  -14.6837   20.5389 C   0  0  0  0  0  0  0  0  0  0  0  0
   13.2604  -13.6195   20.7369 O   0  0  0  0  0  0  0  0  0  0  0  0
   14.8368  -16.4064   16.0560 O   0  0  0  0  0  0  0  0  0  0  0  0
   12.6219  -15.6518   21.5572 N   0  0  0  0  0  0  0  0  0  0  0  0
   13.2423  -15.4627   22.8767 C   0  0  1  0  0  0  0  0  0  0  0  0
   12.3633  -16.2199   23.8327 C   0  0  0  0  0  0  0  0  0  0  0  0
   12.4097  -17.6802   23.5556 C   0  0  0  0  0  0  0  0  0  0  0  0
   11.7279  -18.4143   24.6445 C   0  0  0  0  0  0  0  0  0  0  0  0
   12.3704  -18.7211   25.6715 O   0  0  0  0  0  0  0  0  0  0  0  0
   14.6400  -15.9016   22.8719 C   0  0  0  0  0  0  0  0  0  0  0  0
   15.6022  -15.5749   23.8070 O   0  0  0  0  0  0  0  0  0  0  0  0
   10.3981  -18.7556   24.5261 O   0  0  0  0  0  0  0  0  0  0  0  0
   15.0184  -16.6490   21.9291 O   0  0  0  0  0  0  0  0  0  0  0  0
  2  1  1  1
  2  3  1  0
  4  2  1  0
  4  5  2  0
  6  4  1  0
  7  6  1  0
  7 12  1  0
  7  8  1  6
  9 10  1  0
  9  8  1  0
 10 14  1  0
 11 10  2  0
 12 13  2  0
 12 15  1  0
 15 16  1  0
 16 21  1  0
 16 17  1  1
 18 17  1  0
 19 18  1  0
 19 20  2  0
 21 24  2  0
 21 22  1  0
 23 19  1  0
M  END
$$$$
