AEE.pdb
     RDKit          3D

 24 23  0  0  1  0  0  0  0  0999 V2000
    8.1217  -12.2577   19.8447 C   0  0  0  0  0  0  0  0  0  0  0  0
    8.1928  -13.4723   18.9743 C   0  0  2  0  0  0  0  0  0  0  0  0
    6.9433  -13.6022   18.2490 N   0  0  0  0  0  0  0  0  0  0  0  0
    8.4420  -14.7230   19.7256 C   0  0  0  0  0  0  0  0  0  0  0  0
    7.6665  -15.7191   19.6043 O   0  0  0  0  0  0  0  0  0  0  0  0
    9.5385  -14.8939   20.6138 N   0  0  0  0  0  0  0  0  0  0  0  0
   10.2132  -16.1434   20.8546 C   0  0  1  0  0  0  0  0  0  0  0  0
   10.9169  -16.6325   19.6064 C   0  0  0  0  0  0  0  0  0  0  0  0
   11.5197  -18.0182   19.8045 C   0  0  0  0  0  0  0  0  0  0  0  0
   12.1176  -18.4255   18.5206 C   0  0  0  0  0  0  0  0  0  0  0  0
   13.3305  -18.6999   18.4596 O   0  0  0  0  0  0  0  0  0  0  0  0
   11.2181  -16.0588   21.9323 C   0  0  0  0  0  0  0  0  0  0  0  0
   12.1638  -15.2464   21.7717 O   0  0  0  0  0  0  0  0  0  0  0  0
   11.3307  -18.5003   17.3944 O   0  0  0  0  0  0  0  0  0  0  0  0
   11.1935  -16.8158   23.1158 N   0  0  0  0  0  0  0  0  0  0  0  0
   12.0308  -16.5378   24.2918 C   0  0  1  0  0  0  0  0  0  0  0  0
   11.3704  -17.2749   25.4234 C   0  0  0  0  0  0  0  0  0  0  0  0
   12.1049  -17.0606   26.6985 C   0  0  0  0  0  0  0  0  0  0  0  0
   11.3846  -17.7289   27.8050 C   0  0  0  0  0  0  0  0  0  0  0  0
   11.9544  -18.6387   28.4447 O   0  0  0  0  0  0  0  0  0  0  0  0
   13.4229  -16.9275   24.0543 C   0  0  0  0  0  0  0  0  0  0  0  0
   13.8571  -17.9427   23.2249 O   0  0  0  0  0  0  0  0  0  0  0  0
   10.0989  -17.3508   28.1257 O   0  0  0  0  0  0  0  0  0  0  0  0
   14.3246  -16.2854   24.6588 O   0  0  0  0  0  0  0  0  0  0  0  0
  2  1  1  1
  2  3  1  0
  4  2  1  0
  4  5  2  0
  6  4  1  0
  7  6  1  0
  7 12  1  0
  7  8  1  6
  9 10  1  0
  9  8  1  0
 10 14  1  0
 11 10  2  0
 12 13  2  0
 12 15  1  0
 15 16  1  0
 16 21  1  0
 16 17  1  1
 18 17  1  0
 19 18  1  0
 19 20  2  0
 21 24  2  0
 21 22  1  0
 23 19  1  0
M  END
$$$$
