AEE.pdb
     RDKit          3D

 24 23  0  0  1  0  0  0  0  0999 V2000
    7.8416  -13.8537   17.8352 C   0  0  0  0  0  0  0  0  0  0  0  0
    8.7181  -13.4708   18.9854 C   0  0  2  0  0  0  0  0  0  0  0  0
    9.2148  -12.1255   18.7677 N   0  0  0  0  0  0  0  0  0  0  0  0
    9.8697  -14.3804   19.1782 C   0  0  0  0  0  0  0  0  0  0  0  0
    9.6934  -15.6249   19.3475 O   0  0  0  0  0  0  0  0  0  0  0  0
   11.2204  -13.9375   19.1878 N   0  0  0  0  0  0  0  0  0  0  0  0
   12.3636  -14.7923   19.3793 C   0  0  1  0  0  0  0  0  0  0  0  0
   13.4914  -14.4124   18.4435 C   0  0  0  0  0  0  0  0  0  0  0  0
   13.3390  -15.0728   17.0784 C   0  0  0  0  0  0  0  0  0  0  0  0
   14.6931  -15.2686   16.5306 C   0  0  0  0  0  0  0  0  0  0  0  0
   15.5097  -14.3287   16.5425 O   0  0  0  0  0  0  0  0  0  0  0  0
   12.8908  -14.7514   20.7573 C   0  0  0  0  0  0  0  0  0  0  0  0
   13.1893  -13.6228   21.2235 O   0  0  0  0  0  0  0  0  0  0  0  0
   15.0479  -16.4909   16.0082 O   0  0  0  0  0  0  0  0  0  0  0  0
   13.0818  -15.8751   21.5788 N   0  0  0  0  0  0  0  0  0  0  0  0
   13.5020  -15.8079   22.9861 C   0  0  1  0  0  0  0  0  0  0  0  0
   12.7687  -16.9305   23.6658 C   0  0  0  0  0  0  0  0  0  0  0  0
   13.1331  -17.0095   25.1054 C   0  0  0  0  0  0  0  0  0  0  0  0
   12.4860  -18.1911   25.7175 C   0  0  0  0  0  0  0  0  0  0  0  0
   11.3910  -18.5910   25.2672 O   0  0  0  0  0  0  0  0  0  0  0  0
   14.9600  -15.8845   23.1072 C   0  0  0  0  0  0  0  0  0  0  0  0
   15.7169  -15.4285   24.1683 O   0  0  0  0  0  0  0  0  0  0  0  0
   13.0858  -18.8430   26.7730 O   0  0  0  0  0  0  0  0  0  0  0  0
   15.6017  -16.4136   22.1590 O   0  0  0  0  0  0  0  0  0  0  0  0
  2  1  1  6
  2  3  1  0
  4  2  1  0
  4  5  2  0
  6  4  1  0
  7  6  1  0
  7 12  1  0
  7  8  1  6
  9 10  1  0
  9  8  1  0
 10 14  1  0
 11 10  2  0
 12 13  2  0
 12 15  1  0
 15 16  1  0
 16 21  1  0
 16 17  1  1
 18 17  1  0
 19 18  1  0
 19 20  2  0
 21 24  2  0
 21 22  1  0
 23 19  1  0
M  END
$$$$
