AEE.pdb
     RDKit          3D

 24 23  0  0  1  0  0  0  0  0999 V2000
    8.4865  -14.7439   18.2250 C   0  0  0  0  0  0  0  0  0  0  0  0
    7.8689  -13.9660   19.3435 C   0  0  2  0  0  0  0  0  0  0  0  0
    8.1559  -12.5576   19.1485 N   0  0  0  0  0  0  0  0  0  0  0  0
    8.3528  -14.3718   20.6822 C   0  0  0  0  0  0  0  0  0  0  0  0
    9.4128  -13.8734   21.1684 O   0  0  0  0  0  0  0  0  0  0  0  0
    7.6831  -15.3240   21.4979 N   0  0  0  0  0  0  0  0  0  0  0  0
    8.0871  -15.6925   22.8303 C   0  0  1  0  0  0  0  0  0  0  0  0
    7.0448  -16.5675   23.4938 C   0  0  0  0  0  0  0  0  0  0  0  0
    7.4537  -16.9582   24.9091 C   0  0  0  0  0  0  0  0  0  0  0  0
    6.3760  -17.7971   25.4626 C   0  0  0  0  0  0  0  0  0  0  0  0
    6.3379  -18.0329   26.6846 O   0  0  0  0  0  0  0  0  0  0  0  0
    9.3710  -16.4199   22.8640 C   0  0  0  0  0  0  0  0  0  0  0  0
    9.4990  -17.3934   22.0792 O   0  0  0  0  0  0  0  0  0  0  0  0
    5.4162  -18.3162   24.6245 O   0  0  0  0  0  0  0  0  0  0  0  0
   10.4519  -16.1045   23.7045 N   0  0  0  0  0  0  0  0  0  0  0  0
   11.6414  -16.9519   23.8738 C   0  0  1  0  0  0  0  0  0  0  0  0
   12.8068  -16.0536   23.5659 C   0  0  0  0  0  0  0  0  0  0  0  0
   12.8239  -15.6783   22.1271 C   0  0  0  0  0  0  0  0  0  0  0  0
   13.9999  -14.8239   21.8505 C   0  0  0  0  0  0  0  0  0  0  0  0
   14.8141  -14.5876   22.7686 O   0  0  0  0  0  0  0  0  0  0  0  0
   11.6808  -17.5472   25.2118 C   0  0  0  0  0  0  0  0  0  0  0  0
   12.5303  -18.5503   25.6352 O   0  0  0  0  0  0  0  0  0  0  0  0
   14.1942  -14.2949   20.5930 O   0  0  0  0  0  0  0  0  0  0  0  0
   10.8660  -17.1149   26.0719 O   0  0  0  0  0  0  0  0  0  0  0  0
  2  1  1  6
  2  3  1  0
  4  2  1  0
  4  5  2  0
  6  4  1  0
  7  6  1  0
  7 12  1  0
  7  8  1  6
  9 10  1  0
  9  8  1  0
 10 14  1  0
 11 10  2  0
 12 13  2  0
 12 15  1  0
 15 16  1  0
 16 21  1  0
 16 17  1  1
 18 17  1  0
 19 18  1  0
 19 20  2  0
 21 24  2  0
 21 22  1  0
 23 19  1  0
M  END
$$$$
