AEE.pdb
     RDKit          3D

 24 23  0  0  1  0  0  0  0  0999 V2000
   14.4351  -18.9460   17.4726 C   0  0  0  0  0  0  0  0  0  0  0  0
   12.9548  -19.1209   17.3471 C   0  0  2  0  0  0  0  0  0  0  0  0
   12.4735  -18.2780   16.2692 N   0  0  0  0  0  0  0  0  0  0  0  0
   12.2139  -18.7854   18.5838 C   0  0  0  0  0  0  0  0  0  0  0  0
   12.1044  -17.5822   18.9693 O   0  0  0  0  0  0  0  0  0  0  0  0
   11.5886  -19.7609   19.4073 N   0  0  0  0  0  0  0  0  0  0  0  0
   10.8222  -19.4672   20.5907 C   0  0  1  0  0  0  0  0  0  0  0  0
    9.7032  -20.4695   20.7784 C   0  0  0  0  0  0  0  0  0  0  0  0
    8.5665  -20.2385   19.7897 C   0  0  0  0  0  0  0  0  0  0  0  0
    7.5257  -21.2424   20.0735 C   0  0  0  0  0  0  0  0  0  0  0  0
    7.0568  -21.3431   21.2225 O   0  0  0  0  0  0  0  0  0  0  0  0
   11.6369  -19.4684   21.8214 C   0  0  0  0  0  0  0  0  0  0  0  0
   12.4519  -20.4141   21.9683 O   0  0  0  0  0  0  0  0  0  0  0  0
    7.0771  -22.0644   19.0653 O   0  0  0  0  0  0  0  0  0  0  0  0
   11.5670  -18.4958   22.8330 N   0  0  0  0  0  0  0  0  0  0  0  0
   12.3843  -18.5144   24.0550 C   0  0  1  0  0  0  0  0  0  0  0  0
   13.1515  -17.2219   24.0304 C   0  0  0  0  0  0  0  0  0  0  0  0
   14.2513  -17.2748   23.0309 C   0  0  0  0  0  0  0  0  0  0  0  0
   15.0005  -15.9988   23.0487 C   0  0  0  0  0  0  0  0  0  0  0  0
   14.3961  -14.9310   22.8117 O   0  0  0  0  0  0  0  0  0  0  0  0
   11.5508  -18.6940   25.2463 C   0  0  0  0  0  0  0  0  0  0  0  0
   11.9895  -19.0637   26.5024 O   0  0  0  0  0  0  0  0  0  0  0  0
   16.3507  -15.9896   23.3240 O   0  0  0  0  0  0  0  0  0  0  0  0
   10.3103  -18.4976   25.1311 O   0  0  0  0  0  0  0  0  0  0  0  0
  2  1  1  1
  2  3  1  0
  4  2  1  0
  4  5  2  0
  6  4  1  0
  7  6  1  0
  7 12  1  0
  7  8  1  1
  9 10  1  0
  9  8  1  0
 10 14  1  0
 11 10  2  0
 12 13  2  0
 12 15  1  0
 15 16  1  0
 16 21  1  0
 16 17  1  1
 18 17  1  0
 19 18  1  0
 19 20  2  0
 21 24  2  0
 21 22  1  0
 23 19  1  0
M  END
$$$$
