AEE.pdb
     RDKit          3D

 24 23  0  0  1  0  0  0  0  0999 V2000
    7.8840  -12.4393   18.4623 C   0  0  0  0  0  0  0  0  0  0  0  0
    8.4525  -13.7934   18.1775 C   0  0  2  0  0  0  0  0  0  0  0  0
    7.3615  -14.7160   17.9275 N   0  0  0  0  0  0  0  0  0  0  0  0
    9.2870  -14.3264   19.2776 C   0  0  0  0  0  0  0  0  0  0  0  0
   10.4263  -13.8291   19.5284 O   0  0  0  0  0  0  0  0  0  0  0  0
    8.8833  -15.4054   20.1103 N   0  0  0  0  0  0  0  0  0  0  0  0
    9.6472  -15.9177   21.2186 C   0  0  1  0  0  0  0  0  0  0  0  0
    8.9868  -17.1418   21.8166 C   0  0  0  0  0  0  0  0  0  0  0  0
    9.8159  -17.7336   22.9503 C   0  0  0  0  0  0  0  0  0  0  0  0
    9.1378  -18.9639   23.3955 C   0  0  0  0  0  0  0  0  0  0  0  0
    8.1163  -19.3591   22.8033 O   0  0  0  0  0  0  0  0  0  0  0  0
   11.0266  -16.2886   20.8468 C   0  0  0  0  0  0  0  0  0  0  0  0
   11.1704  -17.2988   20.1127 O   0  0  0  0  0  0  0  0  0  0  0  0
    9.6380  -19.6702   24.4652 O   0  0  0  0  0  0  0  0  0  0  0  0
   12.1816  -15.5986   21.2519 N   0  0  0  0  0  0  0  0  0  0  0  0
   13.5511  -16.1011   21.0685 C   0  0  1  0  0  0  0  0  0  0  0  0
   14.2664  -15.0160   20.3130 C   0  0  0  0  0  0  0  0  0  0  0  0
   14.3354  -15.3346   18.8621 C   0  0  0  0  0  0  0  0  0  0  0  0
   15.1027  -14.2829   18.1585 C   0  0  0  0  0  0  0  0  0  0  0  0
   14.5087  -13.5148   17.3720 O   0  0  0  0  0  0  0  0  0  0  0  0
   14.1662  -16.4418   22.3538 C   0  0  0  0  0  0  0  0  0  0  0  0
   13.5993  -16.2721   23.6015 O   0  0  0  0  0  0  0  0  0  0  0  0
   16.4582  -14.1530   18.3695 O   0  0  0  0  0  0  0  0  0  0  0  0
   15.3257  -16.9376   22.3377 O   0  0  0  0  0  0  0  0  0  0  0  0
  2  1  1  1
  2  3  1  0
  4  2  1  0
  4  5  2  0
  6  4  1  0
  7  6  1  0
  7 12  1  0
  7  8  1  6
  9 10  1  0
  9  8  1  0
 10 14  1  0
 11 10  2  0
 12 13  2  0
 12 15  1  0
 15 16  1  0
 16 21  1  0
 16 17  1  1
 18 17  1  0
 19 18  1  0
 19 20  2  0
 21 24  2  0
 21 22  1  0
 23 19  1  0
M  END
$$$$
