AEE.pdb
     RDKit          3D

 24 23  0  0  1  0  0  0  0  0999 V2000
    7.8820  -12.6075   20.7947 C   0  0  0  0  0  0  0  0  0  0  0  0
    7.9385  -13.8660   19.9880 C   0  0  2  0  0  0  0  0  0  0  0  0
    6.6384  -14.0955   19.3870 N   0  0  0  0  0  0  0  0  0  0  0  0
    8.3165  -15.0581   20.7797 C   0  0  0  0  0  0  0  0  0  0  0  0
    7.4321  -15.7684   21.3468 O   0  0  0  0  0  0  0  0  0  0  0  0
    9.6616  -15.4818   20.9574 N   0  0  0  0  0  0  0  0  0  0  0  0
   10.0668  -16.6234   21.7365 C   0  0  1  0  0  0  0  0  0  0  0  0
   11.4118  -17.1464   21.2787 C   0  0  0  0  0  0  0  0  0  0  0  0
   11.3763  -17.5980   19.8235 C   0  0  0  0  0  0  0  0  0  0  0  0
   12.7401  -18.0235   19.4615 C   0  0  0  0  0  0  0  0  0  0  0  0
   13.5999  -17.1713   19.1706 O   0  0  0  0  0  0  0  0  0  0  0  0
   10.1665  -16.3315   23.1799 C   0  0  0  0  0  0  0  0  0  0  0  0
   10.8242  -15.3139   23.5148 O   0  0  0  0  0  0  0  0  0  0  0  0
   13.0560  -19.3626   19.4470 O   0  0  0  0  0  0  0  0  0  0  0  0
    9.5835  -17.1039   24.1986 N   0  0  0  0  0  0  0  0  0  0  0  0
    9.7132  -16.8120   25.6337 C   0  0  1  0  0  0  0  0  0  0  0  0
    8.6394  -17.6292   26.2962 C   0  0  0  0  0  0  0  0  0  0  0  0
    7.6330  -18.0905   25.3034 C   0  0  0  0  0  0  0  0  0  0  0  0
    6.7236  -19.0710   25.9367 C   0  0  0  0  0  0  0  0  0  0  0  0
    6.8785  -19.3590   27.1428 O   0  0  0  0  0  0  0  0  0  0  0  0
   11.0674  -17.1013   26.1121 C   0  0  0  0  0  0  0  0  0  0  0  0
   11.5992  -16.7324   27.3320 O   0  0  0  0  0  0  0  0  0  0  0  0
    5.7166  -19.6598   25.2030 O   0  0  0  0  0  0  0  0  0  0  0  0
   11.8354  -17.7472   25.3482 O   0  0  0  0  0  0  0  0  0  0  0  0
  2  1  1  1
  2  3  1  0
  4  2  1  0
  4  5  2  0
  6  4  1  0
  7  6  1  0
  7 12  1  0
  7  8  1  6
  9 10  1  0
  9  8  1  0
 10 14  1  0
 11 10  2  0
 12 13  2  0
 12 15  1  0
 15 16  1  0
 16 21  1  0
 16 17  1  1
 18 17  1  0
 19 18  1  0
 19 20  2  0
 21 24  2  0
 21 22  1  0
 23 19  1  0
M  END
$$$$
