AEE.pdb
     RDKit          3D

 24 23  0  0  1  0  0  0  0  0999 V2000
    8.1439  -27.1569   33.0299 C   0  0  0  0  0  0  0  0  0  0  0  0
    8.3306  -26.8261   31.5830 C   0  0  2  0  0  0  0  0  0  0  0  0
    8.0477  -28.0087   30.7921 N   0  0  0  0  0  0  0  0  0  0  0  0
    9.6932  -26.3481   31.2580 C   0  0  0  0  0  0  0  0  0  0  0  0
   10.6543  -27.1651   31.1274 O   0  0  0  0  0  0  0  0  0  0  0  0
   10.0150  -24.9758   31.0739 N   0  0  0  0  0  0  0  0  0  0  0  0
   11.3208  -24.4783   30.7249 C   0  0  1  0  0  0  0  0  0  0  0  0
   11.2222  -23.3275   29.7461 C   0  0  0  0  0  0  0  0  0  0  0  0
   12.5968  -22.8684   29.2742 C   0  0  0  0  0  0  0  0  0  0  0  0
   12.3860  -21.8460   28.2339 C   0  0  0  0  0  0  0  0  0  0  0  0
   11.4427  -21.9635   27.4297 O   0  0  0  0  0  0  0  0  0  0  0  0
   12.0911  -24.0089   31.8931 C   0  0  0  0  0  0  0  0  0  0  0  0
   11.4672  -23.3525   32.7649 O   0  0  0  0  0  0  0  0  0  0  0  0
   13.2344  -20.7656   28.1569 O   0  0  0  0  0  0  0  0  0  0  0  0
   13.4614  -24.2413   32.0988 N   0  0  0  0  0  0  0  0  0  0  0  0
   14.2102  -23.7789   33.2766 C   0  0  1  0  0  0  0  0  0  0  0  0
   15.4752  -24.5910   33.2776 C   0  0  0  0  0  0  0  0  0  0  0  0
   16.3064  -24.2799   34.4708 C   0  0  0  0  0  0  0  0  0  0  0  0
   17.5958  -25.0000   34.3796 C   0  0  0  0  0  0  0  0  0  0  0  0
   17.9542  -25.4765   33.2813 O   0  0  0  0  0  0  0  0  0  0  0  0
   14.4277  -22.3309   33.2303 C   0  0  0  0  0  0  0  0  0  0  0  0
   14.6836  -21.5081   34.3094 O   0  0  0  0  0  0  0  0  0  0  0  0
   18.3924  -25.1429   35.4949 O   0  0  0  0  0  0  0  0  0  0  0  0
   14.3784  -21.7646   32.1044 O   0  0  0  0  0  0  0  0  0  0  0  0
  2  1  1  1
  2  3  1  0
  4  2  1  0
  4  5  2  0
  6  4  1  0
  7  6  1  0
  7 12  1  0
  7  8  1  6
  9 10  1  0
  9  8  1  0
 10 14  1  0
 11 10  2  0
 12 13  2  0
 12 15  1  0
 15 16  1  0
 16 21  1  0
 16 17  1  6
 18 17  1  0
 19 18  1  0
 19 20  2  0
 21 24  2  0
 21 22  1  0
 23 19  1  0
M  END
$$$$
