AEE.pdb
     RDKit          3D

 24 23  0  0  1  0  0  0  0  0999 V2000
    8.1821  -12.2909   19.9761 C   0  0  0  0  0  0  0  0  0  0  0  0
    8.4149  -13.2536   18.8550 C   0  0  2  0  0  0  0  0  0  0  0  0
    7.1988  -14.0111   18.6284 N   0  0  0  0  0  0  0  0  0  0  0  0
    9.5261  -14.1977   19.1088 C   0  0  0  0  0  0  0  0  0  0  0  0
    9.3023  -15.3516   19.5849 O   0  0  0  0  0  0  0  0  0  0  0  0
   10.8882  -13.8880   18.8450 N   0  0  0  0  0  0  0  0  0  0  0  0
   11.9876  -14.8008   19.0252 C   0  0  1  0  0  0  0  0  0  0  0  0
   12.9926  -14.6726   17.9002 C   0  0  0  0  0  0  0  0  0  0  0  0
   14.1012  -15.7126   18.0124 C   0  0  0  0  0  0  0  0  0  0  0  0
   15.0188  -15.5016   16.8786 C   0  0  0  0  0  0  0  0  0  0  0  0
   16.2491  -15.4879   17.0696 O   0  0  0  0  0  0  0  0  0  0  0  0
   12.7081  -14.5933   20.2964 C   0  0  0  0  0  0  0  0  0  0  0  0
   13.2711  -13.4815   20.4613 O   0  0  0  0  0  0  0  0  0  0  0  0
   14.5099  -15.3204   15.6132 O   0  0  0  0  0  0  0  0  0  0  0  0
   12.8093  -15.5424   21.3276 N   0  0  0  0  0  0  0  0  0  0  0  0
   13.4275  -15.2790   22.6352 C   0  0  1  0  0  0  0  0  0  0  0  0
   12.5677  -16.0111   23.6274 C   0  0  0  0  0  0  0  0  0  0  0  0
   12.6805  -17.4827   23.4455 C   0  0  0  0  0  0  0  0  0  0  0  0
   11.8692  -18.1738   24.4720 C   0  0  0  0  0  0  0  0  0  0  0  0
   11.2669  -17.4977   25.3332 O   0  0  0  0  0  0  0  0  0  0  0  0
   14.8348  -15.6858   22.6466 C   0  0  0  0  0  0  0  0  0  0  0  0
   15.7878  -15.3058   23.5710 O   0  0  0  0  0  0  0  0  0  0  0  0
   11.7794  -19.5489   24.4769 O   0  0  0  0  0  0  0  0  0  0  0  0
   15.2317  -16.4561   21.7302 O   0  0  0  0  0  0  0  0  0  0  0  0
  2  1  1  1
  2  3  1  0
  4  2  1  0
  4  5  2  0
  6  4  1  0
  7  6  1  0
  7 12  1  0
  7  8  1  6
  9 10  1  0
  9  8  1  0
 10 14  1  0
 11 10  2  0
 12 13  2  0
 12 15  1  0
 15 16  1  0
 16 21  1  0
 16 17  1  1
 18 17  1  0
 19 18  1  0
 19 20  2  0
 21 24  2  0
 21 22  1  0
 23 19  1  0
M  END
$$$$
