AEE.pdb
     RDKit          3D

 24 23  0  0  1  0  0  0  0  0999 V2000
   10.3683  -19.5654   19.6511 C   0  0  0  0  0  0  0  0  0  0  0  0
   11.2115  -18.6972   18.7719 C   0  0  2  0  0  0  0  0  0  0  0  0
   11.3185  -19.3178   17.4652 N   0  0  0  0  0  0  0  0  0  0  0  0
   12.5731  -18.4643   19.3036 C   0  0  0  0  0  0  0  0  0  0  0  0
   12.9203  -18.9348   20.4289 O   0  0  0  0  0  0  0  0  0  0  0  0
   13.5636  -17.7164   18.6106 N   0  0  0  0  0  0  0  0  0  0  0  0
   14.8976  -17.4731   19.0957 C   0  0  1  0  0  0  0  0  0  0  0  0
   15.8365  -17.1276   17.9594 C   0  0  0  0  0  0  0  0  0  0  0  0
   17.0321  -18.0715   17.9080 C   0  0  0  0  0  0  0  0  0  0  0  0
   17.8769  -17.6502   16.7764 C   0  0  0  0  0  0  0  0  0  0  0  0
   18.0018  -18.3924   15.7844 O   0  0  0  0  0  0  0  0  0  0  0  0
   14.9628  -16.3760   20.0809 C   0  0  0  0  0  0  0  0  0  0  0  0
   14.0922  -15.4735   19.9922 O   0  0  0  0  0  0  0  0  0  0  0  0
   18.5242  -16.4370   16.8224 O   0  0  0  0  0  0  0  0  0  0  0  0
   15.9210  -16.2689   21.1029 N   0  0  0  0  0  0  0  0  0  0  0  0
   15.6918  -15.5805   22.3816 C   0  0  1  0  0  0  0  0  0  0  0  0
   14.4206  -16.1743   22.9214 C   0  0  0  0  0  0  0  0  0  0  0  0
   14.1064  -15.6255   24.2673 C   0  0  0  0  0  0  0  0  0  0  0  0
   12.8827  -16.2699   24.7933 C   0  0  0  0  0  0  0  0  0  0  0  0
   12.0230  -16.6959   23.9927 O   0  0  0  0  0  0  0  0  0  0  0  0
   16.8454  -15.7226   23.2733 C   0  0  0  0  0  0  0  0  0  0  0  0
   17.7808  -16.7381   23.2437 O   0  0  0  0  0  0  0  0  0  0  0  0
   12.6943  -16.3985   26.1523 O   0  0  0  0  0  0  0  0  0  0  0  0
   17.0150  -14.8423   24.1604 O   0  0  0  0  0  0  0  0  0  0  0  0
  2  1  1  1
  2  3  1  0
  4  2  1  0
  4  5  2  0
  6  4  1  0
  7  6  1  0
  7 12  1  0
  7  8  1  6
  9 10  1  0
  9  8  1  0
 10 14  1  0
 11 10  2  0
 12 13  2  0
 12 15  1  0
 15 16  1  0
 16 21  1  0
 16 17  1  1
 18 17  1  0
 19 18  1  0
 19 20  2  0
 21 24  2  0
 21 22  1  0
 23 19  1  0
M  END
$$$$
