AEE.pdb
     RDKit          3D

 24 23  0  0  1  0  0  0  0  0999 V2000
    6.9335  -12.8725   19.4995 C   0  0  0  0  0  0  0  0  0  0  0  0
    8.2171  -13.3840   18.9262 C   0  0  2  0  0  0  0  0  0  0  0  0
    7.9462  -13.9840   17.6337 N   0  0  0  0  0  0  0  0  0  0  0  0
    8.8906  -14.3833   19.7856 C   0  0  0  0  0  0  0  0  0  0  0  0
    9.2222  -14.0982   20.9760 O   0  0  0  0  0  0  0  0  0  0  0  0
    9.2064  -15.6993   19.3511 N   0  0  0  0  0  0  0  0  0  0  0  0
    9.8510  -16.6995   20.1625 C   0  0  1  0  0  0  0  0  0  0  0  0
    9.9681  -18.0129   19.4185 C   0  0  0  0  0  0  0  0  0  0  0  0
   10.6679  -17.8405   18.0755 C   0  0  0  0  0  0  0  0  0  0  0  0
   10.7228  -19.1664   17.4346 C   0  0  0  0  0  0  0  0  0  0  0  0
   11.4858  -19.3587   16.4696 O   0  0  0  0  0  0  0  0  0  0  0  0
   11.2062  -16.3066   20.5953 C   0  0  0  0  0  0  0  0  0  0  0  0
   11.6618  -15.2260   20.1425 O   0  0  0  0  0  0  0  0  0  0  0  0
    9.9291  -20.1862   17.9070 O   0  0  0  0  0  0  0  0  0  0  0  0
   12.0175  -17.0483   21.4705 N   0  0  0  0  0  0  0  0  0  0  0  0
   12.2131  -16.7235   22.8909 C   0  0  1  0  0  0  0  0  0  0  0  0
   10.8339  -16.7423   23.4885 C   0  0  0  0  0  0  0  0  0  0  0  0
   10.5339  -15.4578   24.1751 C   0  0  0  0  0  0  0  0  0  0  0  0
    9.3415  -15.6213   25.0359 C   0  0  0  0  0  0  0  0  0  0  0  0
    9.0809  -16.7465   25.5130 O   0  0  0  0  0  0  0  0  0  0  0  0
   13.1523  -17.6541   23.5220 C   0  0  0  0  0  0  0  0  0  0  0  0
   13.0418  -19.0303   23.5541 O   0  0  0  0  0  0  0  0  0  0  0  0
    8.5277  -14.5430   25.3080 O   0  0  0  0  0  0  0  0  0  0  0  0
   14.1641  -17.1685   24.0973 O   0  0  0  0  0  0  0  0  0  0  0  0
  2  1  1  1
  2  3  1  0
  4  2  1  0
  4  5  2  0
  6  4  1  0
  7  6  1  0
  7 12  1  0
  7  8  1  6
  9 10  1  0
  9  8  1  0
 10 14  1  0
 11 10  2  0
 12 13  2  0
 12 15  1  0
 15 16  1  0
 16 21  1  0
 16 17  1  1
 18 17  1  0
 19 18  1  0
 19 20  2  0
 21 24  2  0
 21 22  1  0
 23 19  1  0
M  END
$$$$
