PWS.pdb
     RDKit          3D

 28 30  0  0  1  0  0  0  0  0999 V2000
   27.4763  -18.6217  -14.6881 N   0  0  0  0  0  0  0  0  0  0  0  0
   28.6359  -18.1849  -15.4625 C   0  0  0  0  0  0  0  0  0  0  0  0
   29.7271  -19.1961  -15.1468 C   0  0  0  0  0  0  0  0  0  0  0  0
   29.0127  -20.3152  -14.4563 C   0  0  0  0  0  0  0  0  0  0  0  0
   27.5660  -20.0577  -14.8247 C   0  0  1  0  0  0  0  0  0  0  0  0
   26.7092  -20.7779  -13.8703 C   0  0  0  0  0  0  0  0  0  0  0  0
   26.6553  -22.0318  -13.9006 O   0  0  0  0  0  0  0  0  0  0  0  0
   25.9055  -20.1280  -12.8753 N   0  0  0  0  0  0  0  0  0  0  0  0
   25.0904  -20.9003  -11.9442 C   0  0  1  0  0  0  0  0  0  0  0  0
   25.3892  -20.6385  -10.5128 C   0  0  0  0  0  0  0  0  0  0  0  0
   26.7656  -20.8309  -10.0790 C   0  0  0  0  0  0  0  0  0  0  0  0
   27.8227  -21.4174  -10.7087 C   0  0  0  0  0  0  0  0  0  0  0  0
   28.9289  -21.3596   -9.9147 N   0  0  0  0  0  0  0  0  0  0  0  0
   28.5891  -20.7372   -8.7744 C   0  0  0  0  0  0  0  0  0  0  0  0
   29.3478  -20.4365   -7.6644 C   0  0  0  0  0  0  0  0  0  0  0  0
   28.7877  -19.7844   -6.5912 C   0  0  0  0  0  0  0  0  0  0  0  0
   27.4644  -19.4362   -6.6380 C   0  0  0  0  0  0  0  0  0  0  0  0
   26.7203  -19.7463   -7.7599 C   0  0  0  0  0  0  0  0  0  0  0  0
   27.2448  -20.3989   -8.8554 C   0  0  0  0  0  0  0  0  0  0  0  0
   23.6481  -20.7610  -12.3065 C   0  0  0  0  0  0  0  0  0  0  0  0
   23.1298  -19.6197  -12.4817 O   0  0  0  0  0  0  0  0  0  0  0  0
   21.6117  -23.4757  -14.5400 O   0  0  0  0  0  0  0  0  0  0  0  0
   20.8827  -23.0774  -13.4149 C   0  0  0  0  0  0  0  0  0  0  0  0
   21.4024  -21.7644  -12.8641 C   0  0  2  0  0  0  0  0  0  0  0  0
   22.7932  -21.8724  -12.4722 N   0  0  0  0  0  0  0  0  0  0  0  0
   20.5516  -21.2264  -11.7976 C   0  0  0  0  0  0  0  0  0  0  0  0
   20.9731  -21.2192  -10.6162 O   0  0  0  0  0  0  0  0  0  0  0  0
   19.2820  -20.7140  -12.0202 O   0  0  0  0  0  0  0  0  0  0  0  0
  1  5  1  0
  2  3  1  0
  2  1  1  0
  3  4  1  0
  4  5  1  0
  5  6  1  1
  6  7  2  0
  8  9  1  0
  8  6  1  0
  9 20  1  0
 10 11  1  0
  9 10  1  1
 11 12  2  0
 12 13  1  0
 14 13  1  0
 15 14  2  0
 16 15  1  0
 17 18  1  0
 17 16  2  0
 18 19  2  0
 19 11  1  0
 19 14  1  0
 20 21  2  0
 23 22  1  0
 24 23  1  1
 24 26  1  0
 25 20  1  0
 25 24  1  0
 26 27  2  0
 26 28  1  0
M  END
$$$$
