PWS.pdb
     RDKit          3D

 28 30  0  0  1  0  0  0  0  0999 V2000
   28.2247  -20.9688  -16.8300 N   0  0  0  0  0  0  0  0  0  0  0  0
   29.3822  -21.3696  -17.6266 C   0  0  0  0  0  0  0  0  0  0  0  0
   30.0536  -22.4726  -16.8230 C   0  0  0  0  0  0  0  0  0  0  0  0
   29.0507  -22.8350  -15.7730 C   0  0  0  0  0  0  0  0  0  0  0  0
   27.7696  -22.2443  -16.3252 C   0  0  1  0  0  0  0  0  0  0  0  0
   26.8064  -22.1122  -15.2214 C   0  0  0  0  0  0  0  0  0  0  0  0
   26.3941  -23.1370  -14.6249 O   0  0  0  0  0  0  0  0  0  0  0  0
   26.2887  -20.8550  -14.7634 N   0  0  0  0  0  0  0  0  0  0  0  0
   25.5001  -20.7667  -13.5396 C   0  0  1  0  0  0  0  0  0  0  0  0
   26.0512  -19.8298  -12.5272 C   0  0  0  0  0  0  0  0  0  0  0  0
   27.1463  -20.3183  -11.7015 C   0  0  0  0  0  0  0  0  0  0  0  0
   28.4004  -20.7305  -12.0407 C   0  0  0  0  0  0  0  0  0  0  0  0
   29.0889  -21.0972  -10.9231 N   0  0  0  0  0  0  0  0  0  0  0  0
   28.2829  -20.9229   -9.8633 C   0  0  0  0  0  0  0  0  0  0  0  0
   28.5123  -21.1497   -8.5240 C   0  0  0  0  0  0  0  0  0  0  0  0
   27.5301  -20.8990   -7.5949 C   0  0  0  0  0  0  0  0  0  0  0  0
   26.3187  -20.4201   -8.0165 C   0  0  0  0  0  0  0  0  0  0  0  0
   26.1081  -20.1990   -9.3638 C   0  0  0  0  0  0  0  0  0  0  0  0
   27.0666  -20.4379  -10.3257 C   0  0  0  0  0  0  0  0  0  0  0  0
   24.0666  -20.5264  -13.8836 C   0  0  0  0  0  0  0  0  0  0  0  0
   23.7420  -19.6534  -14.7406 O   0  0  0  0  0  0  0  0  0  0  0  0
   20.7367  -22.4924  -11.9028 O   0  0  0  0  0  0  0  0  0  0  0  0
   20.7705  -22.2358  -13.2772 C   0  0  0  0  0  0  0  0  0  0  0  0
   21.6099  -21.0114  -13.5836 C   0  0  2  0  0  0  0  0  0  0  0  0
   23.0085  -21.2446  -13.2853 N   0  0  0  0  0  0  0  0  0  0  0  0
   21.0875  -19.7983  -12.9462 C   0  0  0  0  0  0  0  0  0  0  0  0
   21.6886  -19.3123  -11.9584 O   0  0  0  0  0  0  0  0  0  0  0  0
   19.9447  -19.1414  -13.3782 O   0  0  0  0  0  0  0  0  0  0  0  0
  1  5  1  0
  2  3  1  0
  2  1  1  0
  3  4  1  0
  4  5  1  0
  5  6  1  1
  6  7  2  0
  8  9  1  0
  8  6  1  0
  9 20  1  0
 10 11  1  0
  9 10  1  1
 11 12  2  0
 12 13  1  0
 14 13  1  0
 15 14  2  0
 16 15  1  0
 17 18  1  0
 17 16  2  0
 18 19  2  0
 19 11  1  0
 19 14  1  0
 20 21  2  0
 23 22  1  0
 24 23  1  1
 24 26  1  0
 25 20  1  0
 25 24  1  0
 26 27  2  0
 26 28  1  0
M  END
$$$$
