PWS.pdb
     RDKit          3D

 28 30  0  0  1  0  0  0  0  0999 V2000
   28.6447  -19.5215  -12.3301 N   0  0  0  0  0  0  0  0  0  0  0  0
   29.9251  -19.3833  -13.0202 C   0  0  0  0  0  0  0  0  0  0  0  0
   30.8124  -20.4689  -12.4308 C   0  0  0  0  0  0  0  0  0  0  0  0
   29.8719  -21.3486  -11.6684 C   0  0  0  0  0  0  0  0  0  0  0  0
   28.5233  -20.9587  -12.2379 C   0  0  1  0  0  0  0  0  0  0  0  0
   27.4800  -21.3856  -11.2931 C   0  0  0  0  0  0  0  0  0  0  0  0
   27.2499  -22.6083  -11.1255 O   0  0  0  0  0  0  0  0  0  0  0  0
   26.6814  -20.4743  -10.5248 N   0  0  0  0  0  0  0  0  0  0  0  0
   25.4541  -20.9157   -9.8717 C   0  0  1  0  0  0  0  0  0  0  0  0
   25.4060  -20.6347   -8.4138 C   0  0  0  0  0  0  0  0  0  0  0  0
   26.5289  -19.9038   -7.8442 C   0  0  0  0  0  0  0  0  0  0  0  0
   27.1538  -18.7668   -8.2623 C   0  0  0  0  0  0  0  0  0  0  0  0
   28.1601  -18.4444   -7.4015 N   0  0  0  0  0  0  0  0  0  0  0  0
   28.1865  -19.3698   -6.4288 C   0  0  0  0  0  0  0  0  0  0  0  0
   29.0139  -19.4862   -5.3335 C   0  0  0  0  0  0  0  0  0  0  0  0
   28.8625  -20.5302   -4.4515 C   0  0  0  0  0  0  0  0  0  0  0  0
   27.8777  -21.4550   -4.6743 C   0  0  0  0  0  0  0  0  0  0  0  0
   27.0580  -21.3209   -5.7782 C   0  0  0  0  0  0  0  0  0  0  0  0
   27.1779  -20.2892   -6.6851 C   0  0  0  0  0  0  0  0  0  0  0  0
   24.2722  -20.4126  -10.6339 C   0  0  0  0  0  0  0  0  0  0  0  0
   24.1574  -19.1845  -10.9179 O   0  0  0  0  0  0  0  0  0  0  0  0
   21.7387  -23.0271  -12.7137 O   0  0  0  0  0  0  0  0  0  0  0  0
   21.9029  -21.6887  -13.0846 C   0  0  0  0  0  0  0  0  0  0  0  0
   22.1091  -20.8066  -11.8694 C   0  0  2  0  0  0  0  0  0  0  0  0
   23.2327  -21.2602  -11.0749 N   0  0  0  0  0  0  0  0  0  0  0  0
   20.8841  -20.6428  -11.0798 C   0  0  0  0  0  0  0  0  0  0  0  0
   20.8677  -21.0141   -9.8818 O   0  0  0  0  0  0  0  0  0  0  0  0
   19.7175  -20.0903  -11.5877 O   0  0  0  0  0  0  0  0  0  0  0  0
  1  5  1  0
  2  3  1  0
  2  1  1  0
  3  4  1  0
  4  5  1  0
  5  6  1  1
  6  7  2  0
  8  9  1  0
  8  6  1  0
  9 20  1  0
 10 11  1  0
  9 10  1  1
 11 12  2  0
 12 13  1  0
 14 13  1  0
 15 14  2  0
 16 15  1  0
 17 18  1  0
 17 16  2  0
 18 19  2  0
 19 11  1  0
 19 14  1  0
 20 21  2  0
 23 22  1  0
 24 23  1  6
 24 26  1  0
 25 20  1  0
 25 24  1  0
 26 27  2  0
 26 28  1  0
M  END
$$$$
