PWS.pdb
     RDKit          3D

 28 30  0  0  1  0  0  0  0  0999 V2000
   27.7374  -19.3430  -14.7887 N   0  0  0  0  0  0  0  0  0  0  0  0
   28.5126  -19.3513  -16.0272 C   0  0  0  0  0  0  0  0  0  0  0  0
   29.3647  -20.6089  -15.9530 C   0  0  0  0  0  0  0  0  0  0  0  0
   28.7823  -21.3898  -14.8170 C   0  0  0  0  0  0  0  0  0  0  0  0
   27.4227  -20.7456  -14.6390 C   0  0  1  0  0  0  0  0  0  0  0  0
   26.9233  -21.0800  -13.2965 C   0  0  0  0  0  0  0  0  0  0  0  0
   26.4636  -22.2255  -13.0673 O   0  0  0  0  0  0  0  0  0  0  0  0
   26.9249  -20.1604  -12.1952 N   0  0  0  0  0  0  0  0  0  0  0  0
   26.3649  -20.5347  -10.9015 C   0  0  1  0  0  0  0  0  0  0  0  0
   27.1638  -20.0744   -9.7368 C   0  0  0  0  0  0  0  0  0  0  0  0
   26.6563  -20.4083   -8.4137 C   0  0  0  0  0  0  0  0  0  0  0  0
   25.5011  -21.0239   -8.0337 C   0  0  0  0  0  0  0  0  0  0  0  0
   25.4550  -21.1316   -6.6758 N   0  0  0  0  0  0  0  0  0  0  0  0
   26.5772  -20.5875   -6.1781 C   0  0  0  0  0  0  0  0  0  0  0  0
   26.9978  -20.4524   -4.8732 C   0  0  0  0  0  0  0  0  0  0  0  0
   28.2014  -19.8528   -4.5859 C   0  0  0  0  0  0  0  0  0  0  0  0
   28.9792  -19.3905   -5.6134 C   0  0  0  0  0  0  0  0  0  0  0  0
   28.5402  -19.5354   -6.9152 C   0  0  0  0  0  0  0  0  0  0  0  0
   27.3406  -20.1303   -7.2442 C   0  0  0  0  0  0  0  0  0  0  0  0
   24.9231  -20.1485  -10.8491 C   0  0  0  0  0  0  0  0  0  0  0  0
   24.5773  -18.9311  -10.8263 O   0  0  0  0  0  0  0  0  0  0  0  0
   22.5801  -21.6325  -13.3029 O   0  0  0  0  0  0  0  0  0  0  0  0
   21.8757  -21.6928  -12.0962 C   0  0  0  0  0  0  0  0  0  0  0  0
   22.4884  -20.7721  -11.0597 C   0  0  2  0  0  0  0  0  0  0  0  0
   23.8798  -21.0995  -10.8225 N   0  0  0  0  0  0  0  0  0  0  0  0
   21.6999  -20.7130   -9.8246 C   0  0  0  0  0  0  0  0  0  0  0  0
   22.2562  -20.9488   -8.7254 O   0  0  0  0  0  0  0  0  0  0  0  0
   20.3476  -20.4054   -9.7970 O   0  0  0  0  0  0  0  0  0  0  0  0
  1  5  1  0
  2  3  1  0
  2  1  1  0
  3  4  1  0
  4  5  1  0
  5  6  1  1
  6  7  2  0
  8  9  1  0
  8  6  1  0
  9 20  1  0
 10 11  1  0
  9 10  1  1
 11 12  2  0
 12 13  1  0
 14 13  1  0
 15 14  2  0
 16 15  1  0
 17 18  1  0
 17 16  2  0
 18 19  2  0
 19 11  1  0
 19 14  1  0
 20 21  2  0
 23 22  1  0
 24 23  1  6
 24 26  1  0
 25 20  1  0
 25 24  1  0
 26 27  2  0
 26 28  1  0
M  END
$$$$
