PWS.pdb
     RDKit          3D

 28 30  0  0  1  0  0  0  0  0999 V2000
   30.0244  -20.1415  -11.1077 N   0  0  0  0  0  0  0  0  0  0  0  0
   31.4073  -20.3179  -11.5455 C   0  0  0  0  0  0  0  0  0  0  0  0
   31.6547  -21.8172  -11.4828 C   0  0  0  0  0  0  0  0  0  0  0  0
   30.2935  -22.4149  -11.3115 C   0  0  0  0  0  0  0  0  0  0  0  0
   29.3816  -21.2785  -11.7265 C   0  0  1  0  0  0  0  0  0  0  0  0
   28.0388  -21.5406  -11.1864 C   0  0  0  0  0  0  0  0  0  0  0  0
   27.3185  -22.4289  -11.7043 O   0  0  0  0  0  0  0  0  0  0  0  0
   27.4762  -20.8306  -10.0738 N   0  0  0  0  0  0  0  0  0  0  0  0
   26.1447  -21.1514   -9.5719 C   0  0  1  0  0  0  0  0  0  0  0  0
   26.0284  -21.1178   -8.0914 C   0  0  0  0  0  0  0  0  0  0  0  0
   26.6728  -20.0086   -7.4028 C   0  0  0  0  0  0  0  0  0  0  0  0
   26.7856  -18.6942   -7.7455 C   0  0  0  0  0  0  0  0  0  0  0  0
   27.4738  -18.0187   -6.7823 N   0  0  0  0  0  0  0  0  0  0  0  0
   27.8053  -18.8931   -5.8187 C   0  0  0  0  0  0  0  0  0  0  0  0
   28.4994  -18.7022   -4.6441 C   0  0  0  0  0  0  0  0  0  0  0  0
   28.7302  -19.7549   -3.7901 C   0  0  0  0  0  0  0  0  0  0  0  0
   28.2613  -20.9980   -4.1208 C   0  0  0  0  0  0  0  0  0  0  0  0
   27.5674  -21.1693   -5.3030 C   0  0  0  0  0  0  0  0  0  0  0  0
   27.3159  -20.1399   -6.1852 C   0  0  0  0  0  0  0  0  0  0  0  0
   25.1272  -20.3246  -10.2874 C   0  0  0  0  0  0  0  0  0  0  0  0
   25.2152  -19.0621  -10.3094 O   0  0  0  0  0  0  0  0  0  0  0  0
   23.0919  -21.8722  -13.4305 O   0  0  0  0  0  0  0  0  0  0  0  0
   23.2233  -20.4921  -13.2458 C   0  0  0  0  0  0  0  0  0  0  0  0
   23.1044  -20.1235  -11.7804 C   0  0  2  0  0  0  0  0  0  0  0  0
   24.0276  -20.8906  -10.9687 N   0  0  0  0  0  0  0  0  0  0  0  0
   21.7232  -20.1967  -11.2929 C   0  0  0  0  0  0  0  0  0  0  0  0
   21.4482  -20.9495  -10.3280 O   0  0  0  0  0  0  0  0  0  0  0  0
   20.6799  -19.4684  -11.8454 O   0  0  0  0  0  0  0  0  0  0  0  0
  1  5  1  0
  2  3  1  0
  2  1  1  0
  3  4  1  0
  4  5  1  0
  5  6  1  1
  6  7  2  0
  8  9  1  0
  8  6  1  0
  9 20  1  0
 10 11  1  0
  9 10  1  1
 11 12  2  0
 12 13  1  0
 14 13  1  0
 15 14  2  0
 16 15  1  0
 17 18  1  0
 17 16  2  0
 18 19  2  0
 19 11  1  0
 19 14  1  0
 20 21  2  0
 23 22  1  0
 24 23  1  6
 24 26  1  0
 25 20  1  0
 25 24  1  0
 26 27  2  0
 26 28  1  0
M  END
$$$$
