PWS.pdb
     RDKit          3D

 28 30  0  0  1  0  0  0  0  0999 V2000
   27.5712  -19.4296  -16.0826 N   0  0  0  0  0  0  0  0  0  0  0  0
   28.8233  -19.0422  -16.7285 C   0  0  0  0  0  0  0  0  0  0  0  0
   29.8487  -20.0565  -16.2457 C   0  0  0  0  0  0  0  0  0  0  0  0
   29.0347  -21.1358  -15.6036 C   0  0  0  0  0  0  0  0  0  0  0  0
   27.6477  -20.8712  -16.1525 C   0  0  1  0  0  0  0  0  0  0  0  0
   26.6689  -21.5390  -15.2810 C   0  0  0  0  0  0  0  0  0  0  0  0
   26.7124  -22.7847  -15.1307 O   0  0  0  0  0  0  0  0  0  0  0  0
   25.6353  -20.8455  -14.5674 N   0  0  0  0  0  0  0  0  0  0  0  0
   24.7286  -21.5584  -13.6747 C   0  0  1  0  0  0  0  0  0  0  0  0
   25.2959  -21.8422  -12.3315 C   0  0  0  0  0  0  0  0  0  0  0  0
   25.8231  -20.7097  -11.5839 C   0  0  0  0  0  0  0  0  0  0  0  0
   26.4022  -19.5528  -12.0131 C   0  0  0  0  0  0  0  0  0  0  0  0
   26.7363  -18.7745  -10.9454 N   0  0  0  0  0  0  0  0  0  0  0  0
   26.3744  -19.4254   -9.8280 C   0  0  0  0  0  0  0  0  0  0  0  0
   26.4982  -19.0599   -8.5055 C   0  0  0  0  0  0  0  0  0  0  0  0
   26.0535  -19.8930   -7.5061 C   0  0  0  0  0  0  0  0  0  0  0  0
   25.4849  -21.0927   -7.8405 C   0  0  0  0  0  0  0  0  0  0  0  0
   25.3695  -21.4413   -9.1723 C   0  0  0  0  0  0  0  0  0  0  0  0
   25.8030  -20.6343  -10.2028 C   0  0  0  0  0  0  0  0  0  0  0  0
   23.4046  -20.8675  -13.6493 C   0  0  0  0  0  0  0  0  0  0  0  0
   23.3316  -19.6064  -13.5702 O   0  0  0  0  0  0  0  0  0  0  0  0
   19.8068  -22.9702  -14.4046 O   0  0  0  0  0  0  0  0  0  0  0  0
   19.9633  -21.6237  -14.7489 C   0  0  0  0  0  0  0  0  0  0  0  0
   20.8863  -20.9153  -13.7774 C   0  0  2  0  0  0  0  0  0  0  0  0
   22.1791  -21.5661  -13.7109 N   0  0  0  0  0  0  0  0  0  0  0  0
   20.2756  -20.7282  -12.4572 C   0  0  0  0  0  0  0  0  0  0  0  0
   20.6729  -21.4206  -11.4896 O   0  0  0  0  0  0  0  0  0  0  0  0
   19.2640  -19.8126  -12.2077 O   0  0  0  0  0  0  0  0  0  0  0  0
  1  5  1  0
  2  3  1  0
  2  1  1  0
  3  4  1  0
  4  5  1  0
  5  6  1  1
  6  7  2  0
  8  9  1  0
  8  6  1  0
  9 20  1  0
 10 11  1  0
  9 10  1  1
 11 12  2  0
 12 13  1  0
 14 13  1  0
 15 14  2  0
 16 15  1  0
 17 18  1  0
 17 16  2  0
 18 19  2  0
 19 11  1  0
 19 14  1  0
 20 21  2  0
 23 22  1  0
 24 23  1  6
 24 26  1  0
 25 20  1  0
 25 24  1  0
 26 27  2  0
 26 28  1  0
M  END
$$$$
