PWS.pdb
     RDKit          3D

 28 30  0  0  1  0  0  0  0  0999 V2000
   28.8565  -19.6931  -12.3622 N   0  0  0  0  0  0  0  0  0  0  0  0
   30.2347  -19.6794  -12.8472 C   0  0  0  0  0  0  0  0  0  0  0  0
   30.9628  -20.7128  -12.0016 C   0  0  0  0  0  0  0  0  0  0  0  0
   29.8715  -21.4640  -11.3058 C   0  0  0  0  0  0  0  0  0  0  0  0
   28.6503  -21.1042  -12.1270 C   0  0  1  0  0  0  0  0  0  0  0  0
   27.4515  -21.3808  -11.3210 C   0  0  0  0  0  0  0  0  0  0  0  0
   27.1393  -22.5663  -11.0504 O   0  0  0  0  0  0  0  0  0  0  0  0
   26.5862  -20.3590  -10.8054 N   0  0  0  0  0  0  0  0  0  0  0  0
   25.3285  -20.6985  -10.1493 C   0  0  1  0  0  0  0  0  0  0  0  0
   25.1629  -20.0944   -8.8023 C   0  0  0  0  0  0  0  0  0  0  0  0
   26.3758  -19.6930   -8.1043 C   0  0  0  0  0  0  0  0  0  0  0  0
   27.2693  -18.6994   -8.3735 C   0  0  0  0  0  0  0  0  0  0  0  0
   28.2555  -18.6919   -7.4329 N   0  0  0  0  0  0  0  0  0  0  0  0
   28.0013  -19.6775   -6.5571 C   0  0  0  0  0  0  0  0  0  0  0  0
   28.6979  -20.0740   -5.4367 C   0  0  0  0  0  0  0  0  0  0  0  0
   28.2509  -21.1259   -4.6722 C   0  0  0  0  0  0  0  0  0  0  0  0
   27.1030  -21.7764   -5.0376 C   0  0  0  0  0  0  0  0  0  0  0  0
   26.4184  -21.3639   -6.1644 C   0  0  0  0  0  0  0  0  0  0  0  0
   26.8339  -20.3146   -6.9565 C   0  0  0  0  0  0  0  0  0  0  0  0
   24.1912  -20.4408  -11.0826 C   0  0  0  0  0  0  0  0  0  0  0  0
   24.0727  -19.3258  -11.6696 O   0  0  0  0  0  0  0  0  0  0  0  0
   21.8014  -23.5614  -12.5084 O   0  0  0  0  0  0  0  0  0  0  0  0
   21.9229  -22.3621  -13.2175 C   0  0  0  0  0  0  0  0  0  0  0  0
   22.0987  -21.1868  -12.2766 C   0  0  2  0  0  0  0  0  0  0  0  0
   23.1996  -21.4067  -11.3606 N   0  0  0  0  0  0  0  0  0  0  0  0
   20.8535  -20.8243  -11.5919 C   0  0  0  0  0  0  0  0  0  0  0  0
   19.8232  -20.5896  -12.2678 O   0  0  0  0  0  0  0  0  0  0  0  0
   20.7430  -20.7229  -10.2129 O   0  0  0  0  0  0  0  0  0  0  0  0
  1  5  1  0
  2  3  1  0
  2  1  1  0
  3  4  1  0
  4  5  1  0
  5  6  1  1
  6  7  2  0
  8  9  1  0
  8  6  1  0
  9 20  1  0
 10 11  1  0
  9 10  1  1
 11 12  2  0
 12 13  1  0
 14 13  1  0
 15 14  2  0
 16 15  1  0
 17 18  1  0
 17 16  2  0
 18 19  2  0
 19 11  1  0
 19 14  1  0
 20 21  2  0
 23 22  1  0
 24 23  1  1
 24 26  1  0
 25 20  1  0
 25 24  1  0
 26 27  2  0
 26 28  1  0
M  END
$$$$
