PWS.pdb
     RDKit          3D

 28 30  0  0  1  0  0  0  0  0999 V2000
   28.0478  -18.7326  -13.8560 N   0  0  0  0  0  0  0  0  0  0  0  0
   29.0111  -18.1955  -14.8144 C   0  0  0  0  0  0  0  0  0  0  0  0
   29.9978  -19.3265  -15.0607 C   0  0  0  0  0  0  0  0  0  0  0  0
   29.3439  -20.5316  -14.4609 C   0  0  0  0  0  0  0  0  0  0  0  0
   27.9006  -20.0904  -14.3290 C   0  0  1  0  0  0  0  0  0  0  0  0
   27.2350  -20.9672  -13.3536 C   0  0  0  0  0  0  0  0  0  0  0  0
   26.9538  -22.1504  -13.6656 O   0  0  0  0  0  0  0  0  0  0  0  0
   26.8730  -20.5531  -12.0285 N   0  0  0  0  0  0  0  0  0  0  0  0
   26.0014  -21.3737  -11.1953 C   0  0  1  0  0  0  0  0  0  0  0  0
   26.5581  -21.6835   -9.8534 C   0  0  0  0  0  0  0  0  0  0  0  0
   26.7663  -20.5616   -8.9491 C   0  0  0  0  0  0  0  0  0  0  0  0
   26.3177  -19.2758   -9.0093 C   0  0  0  0  0  0  0  0  0  0  0  0
   26.7617  -18.5760   -7.9274 N   0  0  0  0  0  0  0  0  0  0  0  0
   27.4955  -19.4063   -7.1687 C   0  0  0  0  0  0  0  0  0  0  0  0
   28.1556  -19.1773   -5.9814 C   0  0  0  0  0  0  0  0  0  0  0  0
   28.8585  -20.1869   -5.3671 C   0  0  0  0  0  0  0  0  0  0  0  0
   28.8951  -21.4253   -5.9497 C   0  0  0  0  0  0  0  0  0  0  0  0
   28.2266  -21.6352   -7.1404 C   0  0  0  0  0  0  0  0  0  0  0  0
   27.5115  -20.6495   -7.7870 C   0  0  0  0  0  0  0  0  0  0  0  0
   24.6301  -20.7822  -11.1703 C   0  0  0  0  0  0  0  0  0  0  0  0
   24.4452  -19.5868  -10.7976 O   0  0  0  0  0  0  0  0  0  0  0  0
   21.4917  -22.8640  -13.0855 O   0  0  0  0  0  0  0  0  0  0  0  0
   21.6877  -21.4857  -13.2196 C   0  0  0  0  0  0  0  0  0  0  0  0
   22.2301  -20.8841  -11.9384 C   0  0  2  0  0  0  0  0  0  0  0  0
   23.4804  -21.5067  -11.5534 N   0  0  0  0  0  0  0  0  0  0  0  0
   21.2401  -20.8804  -10.8564 C   0  0  0  0  0  0  0  0  0  0  0  0
   20.1324  -20.3198  -11.0352 O   0  0  0  0  0  0  0  0  0  0  0  0
   21.4586  -21.4718   -9.6209 O   0  0  0  0  0  0  0  0  0  0  0  0
  1  5  1  0
  2  3  1  0
  2  1  1  0
  3  4  1  0
  4  5  1  0
  5  6  1  1
  6  7  2  0
  8  9  1  0
  8  6  1  0
  9 20  1  0
 10 11  1  0
  9 10  1  1
 11 12  2  0
 12 13  1  0
 14 13  1  0
 15 14  2  0
 16 15  1  0
 17 18  1  0
 17 16  2  0
 18 19  2  0
 19 11  1  0
 19 14  1  0
 20 21  2  0
 23 22  1  0
 24 23  1  6
 24 26  1  0
 25 20  1  0
 25 24  1  0
 26 27  2  0
 26 28  1  0
M  END
$$$$
