VLA.pdb
     RDKit          3D

 21 20  0  0  1  0  0  0  0  0999 V2000
   21.0619  -13.8308  -17.9689 C   0  0  0  0  0  0  0  0  0  0  0  0
   19.9330  -13.4788  -18.8841 C   0  0  2  0  0  0  0  0  0  0  0  0
   20.1042  -14.1312  -20.2341 C   0  0  0  0  0  0  0  0  0  0  0  0
   19.8158  -11.9882  -19.1179 C   0  0  2  0  0  0  0  0  0  0  0  0
   20.9854  -11.6260  -19.9251 N   0  0  0  0  0  0  0  0  0  0  0  0
   19.8021  -11.1990  -17.8696 C   0  0  0  0  0  0  0  0  0  0  0  0
   18.8880  -11.4183  -17.0083 O   0  0  0  0  0  0  0  0  0  0  0  0
   21.8974  -11.1475  -13.8522 C   0  0  0  0  0  0  0  0  0  0  0  0
   22.6095  -10.7115  -15.0974 C   0  0  2  0  0  0  0  0  0  0  0  0
   24.0653  -10.3938  -14.6807 C   0  0  0  0  0  0  0  0  0  0  0  0
   22.0900   -9.5182  -15.7657 C   0  0  0  0  0  0  0  0  0  0  0  0
   20.7080   -9.4357  -16.2762 C   0  0  2  0  0  0  0  0  0  0  0  0
   20.7387  -10.2051  -17.5515 N   0  0  0  0  0  0  0  0  0  0  0  0
   20.1761   -8.1144  -16.6103 C   0  0  0  0  0  0  0  0  0  0  0  0
   20.6515   -7.3714  -17.5189 O   0  0  0  0  0  0  0  0  0  0  0  0
   17.0853   -6.2077  -15.7036 C   0  0  0  0  0  0  0  0  0  0  0  0
   18.5038   -6.2314  -16.2882 C   0  0  2  0  0  0  0  0  0  0  0  0
   19.0539   -7.5225  -15.9376 N   0  0  0  0  0  0  0  0  0  0  0  0
   19.2490   -5.1170  -15.6971 C   0  0  0  0  0  0  0  0  0  0  0  0
   20.1413   -5.3743  -14.8489 O   0  0  0  0  0  0  0  0  0  0  0  0
   19.0005   -3.7973  -16.0432 O   0  0  0  0  0  0  0  0  0  0  0  0
  2  4  1  0
  2  1  1  1
  3  2  1  0
  4  6  1  0
  4  5  1  6
  6  7  2  0
  9  8  1  1
  9 11  1  0
  9 10  1  0
 12 11  1  6
 12 14  1  0
 13  6  1  0
 13 12  1  0
 14 15  2  0
 17 16  1  1
 17 19  1  0
 18 17  1  0
 18 14  1  0
 19 20  2  0
 19 21  1  0
M  END
$$$$
