VLA.pdb
     RDKit          3D

 21 20  0  0  1  0  0  0  0  0999 V2000
   26.3799  -20.1371  -13.5172 C   0  0  0  0  0  0  0  0  0  0  0  0
   25.0325  -20.7293  -13.7808 C   0  0  2  0  0  0  0  0  0  0  0  0
   24.3961  -20.1103  -15.0013 C   0  0  0  0  0  0  0  0  0  0  0  0
   24.0737  -20.5328  -12.6267 C   0  0  2  0  0  0  0  0  0  0  0  0
   23.7958  -19.0933  -12.5901 N   0  0  0  0  0  0  0  0  0  0  0  0
   24.6229  -20.9723  -11.3280 C   0  0  0  0  0  0  0  0  0  0  0  0
   24.9860  -22.1864  -11.1880 O   0  0  0  0  0  0  0  0  0  0  0  0
   27.4975  -18.4500   -6.6316 C   0  0  0  0  0  0  0  0  0  0  0  0
   26.7587  -19.6809   -7.0636 C   0  0  2  0  0  0  0  0  0  0  0  0
   27.7686  -20.8501   -6.9789 C   0  0  0  0  0  0  0  0  0  0  0  0
   26.2244  -19.6804   -8.4257 C   0  0  0  0  0  0  0  0  0  0  0  0
   25.1957  -20.6393   -8.8724 C   0  0  2  0  0  0  0  0  0  0  0  0
   24.7799  -20.1377  -10.2120 N   0  0  0  0  0  0  0  0  0  0  0  0
   23.9703  -20.7515   -8.0810 C   0  0  0  0  0  0  0  0  0  0  0  0
   23.0843  -19.8487   -8.0203 O   0  0  0  0  0  0  0  0  0  0  0  0
   22.1923  -23.5164   -6.3156 C   0  0  0  0  0  0  0  0  0  0  0  0
   22.4413  -22.0130   -6.4946 C   0  0  2  0  0  0  0  0  0  0  0  0
   23.6459  -21.9038   -7.2880 N   0  0  0  0  0  0  0  0  0  0  0  0
   22.5839  -21.4222   -5.1614 C   0  0  0  0  0  0  0  0  0  0  0  0
   21.5533  -21.2786   -4.4550 O   0  0  0  0  0  0  0  0  0  0  0  0
   23.8129  -21.0202   -4.6602 O   0  0  0  0  0  0  0  0  0  0  0  0
  2  4  1  0
  2  1  1  1
  3  2  1  0
  4  6  1  0
  4  5  1  1
  6  7  2  0
  9  8  1  6
  9 11  1  0
  9 10  1  0
 12 11  1  1
 12 14  1  0
 13  6  1  0
 13 12  1  0
 14 15  2  0
 17 16  1  1
 17 19  1  0
 18 17  1  0
 18 14  1  0
 19 20  2  0
 19 21  1  0
M  END
$$$$
