VLA.pdb
     RDKit          3D

 21 20  0  0  1  0  0  0  0  0999 V2000
   28.6623  -20.7036  -11.7156 C   0  0  0  0  0  0  0  0  0  0  0  0
   27.5718  -21.1938  -12.6136 C   0  0  2  0  0  0  0  0  0  0  0  0
   27.7592  -20.6869  -14.0227 C   0  0  0  0  0  0  0  0  0  0  0  0
   26.1984  -20.7519  -12.1570 C   0  0  2  0  0  0  0  0  0  0  0  0
   26.1933  -19.2914  -12.2899 N   0  0  0  0  0  0  0  0  0  0  0  0
   25.8950  -21.1313  -10.7623 C   0  0  0  0  0  0  0  0  0  0  0  0
   25.6646  -22.3552  -10.4894 O   0  0  0  0  0  0  0  0  0  0  0  0
   28.2320  -20.8705   -6.5881 C   0  0  0  0  0  0  0  0  0  0  0  0
   27.6585  -19.6490   -7.2414 C   0  0  2  0  0  0  0  0  0  0  0  0
   27.9828  -18.4594   -6.3068 C   0  0  0  0  0  0  0  0  0  0  0  0
   26.2110  -19.6382   -7.4544 C   0  0  0  0  0  0  0  0  0  0  0  0
   25.5273  -20.6408   -8.2938 C   0  0  2  0  0  0  0  0  0  0  0  0
   25.8402  -20.2284   -9.6907 N   0  0  0  0  0  0  0  0  0  0  0  0
   24.0692  -20.7274   -8.2116 C   0  0  0  0  0  0  0  0  0  0  0  0
   23.2838  -19.8303   -8.6385 O   0  0  0  0  0  0  0  0  0  0  0  0
   21.6019  -23.4151   -7.4214 C   0  0  0  0  0  0  0  0  0  0  0  0
   21.9360  -21.9211   -7.5257 C   0  0  2  0  0  0  0  0  0  0  0  0
   23.3764  -21.8452   -7.6349 N   0  0  0  0  0  0  0  0  0  0  0  0
   21.4222  -21.2636   -6.3214 C   0  0  0  0  0  0  0  0  0  0  0  0
   20.1797  -21.1065   -6.2069 O   0  0  0  0  0  0  0  0  0  0  0  0
   22.2602  -20.8132   -5.3123 O   0  0  0  0  0  0  0  0  0  0  0  0
  2  4  1  0
  2  1  1  1
  3  2  1  0
  4  6  1  0
  4  5  1  1
  6  7  2  0
  9  8  1  1
  9 11  1  0
  9 10  1  0
 12 11  1  1
 12 14  1  0
 13  6  1  0
 13 12  1  0
 14 15  2  0
 17 16  1  1
 17 19  1  0
 18 17  1  0
 18 14  1  0
 19 20  2  0
 19 21  1  0
M  END
$$$$
