VLA.pdb
     RDKit          3D

 21 20  0  0  1  0  0  0  0  0999 V2000
   18.6326   -8.9281  -21.8986 C   0  0  0  0  0  0  0  0  0  0  0  0
   18.8153   -8.8674  -20.4158 C   0  0  2  0  0  0  0  0  0  0  0  0
   19.4797   -7.5769  -20.0025 C   0  0  0  0  0  0  0  0  0  0  0  0
   19.6681  -10.0002  -19.8870 C   0  0  2  0  0  0  0  0  0  0  0  0
   18.8850  -11.2188  -20.1161 N   0  0  0  0  0  0  0  0  0  0  0  0
   19.9885   -9.8708  -18.4510 C   0  0  0  0  0  0  0  0  0  0  0  0
   19.0728  -10.0856  -17.5903 O   0  0  0  0  0  0  0  0  0  0  0  0
   24.5292  -11.3981  -14.9527 C   0  0  0  0  0  0  0  0  0  0  0  0
   23.3573  -10.4642  -14.9970 C   0  0  2  0  0  0  0  0  0  0  0  0
   22.3517  -10.9728  -13.9369 C   0  0  0  0  0  0  0  0  0  0  0  0
   22.6315  -10.3830  -16.2649 C   0  0  0  0  0  0  0  0  0  0  0  0
   21.5470   -9.4093  -16.4947 C   0  0  2  0  0  0  0  0  0  0  0  0
   21.2512   -9.5224  -17.9503 N   0  0  0  0  0  0  0  0  0  0  0  0
   21.8278   -7.9954  -16.2447 C   0  0  0  0  0  0  0  0  0  0  0  0
   22.7266   -7.3373  -16.8470 O   0  0  0  0  0  0  0  0  0  0  0  0
   20.0643   -5.1359  -14.7514 C   0  0  0  0  0  0  0  0  0  0  0  0
   21.4145   -5.8207  -15.0014 C   0  0  2  0  0  0  0  0  0  0  0  0
   21.1083   -7.2057  -15.2851 N   0  0  0  0  0  0  0  0  0  0  0  0
   22.2294   -5.6548  -13.7951 C   0  0  0  0  0  0  0  0  0  0  0  0
   22.1930   -6.5549  -12.9176 O   0  0  0  0  0  0  0  0  0  0  0  0
   23.0332   -4.5425  -13.5951 O   0  0  0  0  0  0  0  0  0  0  0  0
  2  4  1  0
  2  1  1  6
  3  2  1  0
  4  6  1  0
  4  5  1  1
  6  7  2  0
  9  8  1  6
  9 11  1  0
  9 10  1  0
 12 11  1  6
 12 14  1  0
 13  6  1  0
 13 12  1  0
 14 15  2  0
 17 16  1  1
 17 19  1  0
 18 17  1  0
 18 14  1  0
 19 20  2  0
 19 21  1  0
M  END
$$$$
