VLA.pdb
     RDKit          3D

 21 20  0  0  1  0  0  0  0  0999 V2000
   26.3131  -19.5401  -17.1835 C   0  0  0  0  0  0  0  0  0  0  0  0
   27.4832  -19.0802  -16.3740 C   0  0  2  0  0  0  0  0  0  0  0  0
   28.5843  -18.5531  -17.2613 C   0  0  0  0  0  0  0  0  0  0  0  0
   28.0783  -20.1862  -15.5298 C   0  0  2  0  0  0  0  0  0  0  0  0
   28.5152  -21.2127  -16.4817 N   0  0  0  0  0  0  0  0  0  0  0  0
   27.1208  -20.7677  -14.5672 C   0  0  0  0  0  0  0  0  0  0  0  0
   26.4360  -21.7859  -14.9132 O   0  0  0  0  0  0  0  0  0  0  0  0
   25.9204  -19.8169   -8.5814 C   0  0  0  0  0  0  0  0  0  0  0  0
   25.4499  -20.5016   -9.8294 C   0  0  2  0  0  0  0  0  0  0  0  0
   25.3698  -22.0106   -9.4973 C   0  0  0  0  0  0  0  0  0  0  0  0
   26.3046  -20.3722  -11.0098 C   0  0  0  0  0  0  0  0  0  0  0  0
   25.8894  -20.8486  -12.3432 C   0  0  2  0  0  0  0  0  0  0  0  0
   26.9026  -20.2751  -13.2725 N   0  0  0  0  0  0  0  0  0  0  0  0
   24.5847  -20.4229  -12.8500 C   0  0  0  0  0  0  0  0  0  0  0  0
   24.2898  -19.2208  -13.1181 O   0  0  0  0  0  0  0  0  0  0  0  0
   21.8394  -21.9254  -14.6931 C   0  0  0  0  0  0  0  0  0  0  0  0
   22.2094  -20.9134  -13.6007 C   0  0  2  0  0  0  0  0  0  0  0  0
   23.4995  -21.3305  -13.0965 N   0  0  0  0  0  0  0  0  0  0  0  0
   21.1599  -20.9554  -12.5792 C   0  0  0  0  0  0  0  0  0  0  0  0
   21.4264  -21.4757  -11.4657 O   0  0  0  0  0  0  0  0  0  0  0  0
   19.8913  -20.4419  -12.8035 O   0  0  0  0  0  0  0  0  0  0  0  0
  2  4  1  0
  2  1  1  6
  3  2  1  0
  4  6  1  0
  4  5  1  6
  6  7  2  0
  9  8  1  1
  9 11  1  0
  9 10  1  0
 12 11  1  1
 12 14  1  0
 13  6  1  0
 13 12  1  0
 14 15  2  0
 17 16  1  6
 17 19  1  0
 18 17  1  0
 18 14  1  0
 19 20  2  0
 19 21  1  0
M  END
$$$$
