VLA.pdb
     RDKit          3D

 21 20  0  0  1  0  0  0  0  0999 V2000
   16.5093  -13.3240  -18.9177 C   0  0  0  0  0  0  0  0  0  0  0  0
   17.7797  -12.5635  -18.7095 C   0  0  2  0  0  0  0  0  0  0  0  0
   18.4530  -12.2595  -20.0255 C   0  0  0  0  0  0  0  0  0  0  0  0
   18.7780  -13.3186  -17.8590 C   0  0  2  0  0  0  0  0  0  0  0  0
   18.0174  -14.4076  -17.2374 N   0  0  0  0  0  0  0  0  0  0  0  0
   19.4068  -12.4844  -16.8149 C   0  0  0  0  0  0  0  0  0  0  0  0
   18.7893  -12.2991  -15.7150 O   0  0  0  0  0  0  0  0  0  0  0  0
   22.9735  -13.0183  -13.9210 C   0  0  0  0  0  0  0  0  0  0  0  0
   23.1643  -12.7509  -15.3838 C   0  0  2  0  0  0  0  0  0  0  0  0
   24.6879  -12.8158  -15.6457 C   0  0  0  0  0  0  0  0  0  0  0  0
   22.7043  -11.4530  -15.8783 C   0  0  0  0  0  0  0  0  0  0  0  0
   21.2828  -11.0576  -15.8590 C   0  0  2  0  0  0  0  0  0  0  0  0
   20.6595  -11.8672  -16.9430 N   0  0  0  0  0  0  0  0  0  0  0  0
   20.9531   -9.6626  -16.1514 C   0  0  0  0  0  0  0  0  0  0  0  0
   21.2987   -9.0631  -17.2120 O   0  0  0  0  0  0  0  0  0  0  0  0
   18.6135   -7.1603  -14.6533 C   0  0  0  0  0  0  0  0  0  0  0  0
   19.7900   -7.4778  -15.5857 C   0  0  2  0  0  0  0  0  0  0  0  0
   20.1994   -8.8264  -15.2599 N   0  0  0  0  0  0  0  0  0  0  0  0
   20.8404   -6.4884  -15.3319 C   0  0  0  0  0  0  0  0  0  0  0  0
   21.9114   -6.8737  -14.7969 O   0  0  0  0  0  0  0  0  0  0  0  0
   20.6885   -5.1501  -15.6622 O   0  0  0  0  0  0  0  0  0  0  0  0
  2  4  1  0
  2  1  1  6
  3  2  1  0
  4  6  1  0
  4  5  1  1
  6  7  2  0
  9  8  1  1
  9 11  1  0
  9 10  1  0
 12 11  1  6
 12 14  1  0
 13  6  1  0
 13 12  1  0
 14 15  2  0
 17 16  1  1
 17 19  1  0
 18 17  1  0
 18 14  1  0
 19 20  2  0
 19 21  1  0
M  END
$$$$
