VLA.pdb
     RDKit          3D

 21 20  0  0  1  0  0  0  0  0999 V2000
   16.0299   -5.1375  -10.2355 C   0  0  0  0  0  0  0  0  0  0  0  0
   15.6171   -6.3347  -11.0305 C   0  0  2  0  0  0  0  0  0  0  0  0
   14.1729   -6.6877  -10.7711 C   0  0  0  0  0  0  0  0  0  0  0  0
   16.4433   -7.5610  -10.7087 C   0  0  2  0  0  0  0  0  0  0  0  0
   16.2214   -7.8184   -9.2820 N   0  0  0  0  0  0  0  0  0  0  0  0
   17.8859   -7.3797  -10.9688 C   0  0  0  0  0  0  0  0  0  0  0  0
   18.6395   -6.9747  -10.0235 O   0  0  0  0  0  0  0  0  0  0  0  0
   22.4270   -7.8180  -14.4902 C   0  0  0  0  0  0  0  0  0  0  0  0
   21.9696   -8.5784  -13.2818 C   0  0  2  0  0  0  0  0  0  0  0  0
   22.2768  -10.0690  -13.5602 C   0  0  0  0  0  0  0  0  0  0  0  0
   20.5462   -8.4932  -12.9539 C   0  0  0  0  0  0  0  0  0  0  0  0
   19.9128   -7.2406  -12.4988 C   0  0  2  0  0  0  0  0  0  0  0  0
   18.5043   -7.6250  -12.2032 N   0  0  0  0  0  0  0  0  0  0  0  0
   19.8411   -6.1242  -13.4416 C   0  0  0  0  0  0  0  0  0  0  0  0
   19.3118   -6.2028  -14.5894 O   0  0  0  0  0  0  0  0  0  0  0  0
   19.9123   -2.4872  -13.2979 C   0  0  0  0  0  0  0  0  0  0  0  0
   20.3329   -3.7231  -14.1041 C   0  0  2  0  0  0  0  0  0  0  0  0
   20.3669   -4.8181  -13.1594 N   0  0  0  0  0  0  0  0  0  0  0  0
   21.6431   -3.4443  -14.6977 C   0  0  0  0  0  0  0  0  0  0  0  0
   22.6714   -3.8620  -14.1062 O   0  0  0  0  0  0  0  0  0  0  0  0
   21.7805   -2.7386  -15.8836 O   0  0  0  0  0  0  0  0  0  0  0  0
  2  4  1  0
  2  1  1  1
  3  2  1  0
  4  6  1  0
  4  5  1  1
  6  7  2  0
  9  8  1  6
  9 11  1  0
  9 10  1  0
 12 11  1  6
 12 14  1  0
 13  6  1  0
 13 12  1  0
 14 15  2  0
 17 16  1  1
 17 19  1  0
 18 17  1  0
 18 14  1  0
 19 20  2  0
 19 21  1  0
M  END
$$$$
