VLA.pdb
     RDKit          3D

 21 20  0  0  1  0  0  0  0  0999 V2000
   18.3627  -14.5685  -18.8253 C   0  0  0  0  0  0  0  0  0  0  0  0
   19.5479  -14.0300  -19.5610 C   0  0  2  0  0  0  0  0  0  0  0  0
   20.8321  -14.3672  -18.8435 C   0  0  0  0  0  0  0  0  0  0  0  0
   19.5028  -12.5254  -19.7166 C   0  0  2  0  0  0  0  0  0  0  0  0
   20.6111  -12.1922  -20.6174 N   0  0  0  0  0  0  0  0  0  0  0  0
   19.6571  -11.7999  -18.4394 C   0  0  0  0  0  0  0  0  0  0  0  0
   18.7622  -11.9308  -17.5408 O   0  0  0  0  0  0  0  0  0  0  0  0
   24.0709  -10.8245  -14.6604 C   0  0  0  0  0  0  0  0  0  0  0  0
   22.8021  -10.1730  -15.1222 C   0  0  2  0  0  0  0  0  0  0  0  0
   21.8364  -10.1896  -13.9134 C   0  0  0  0  0  0  0  0  0  0  0  0
   22.1013  -10.8172  -16.2333 C   0  0  0  0  0  0  0  0  0  0  0  0
   20.8736  -10.2539  -16.8273 C   0  0  2  0  0  0  0  0  0  0  0  0
   20.7370  -10.9597  -18.1320 N   0  0  0  0  0  0  0  0  0  0  0  0
   20.8517   -8.8235  -17.1338 C   0  0  0  0  0  0  0  0  0  0  0  0
   21.7199   -8.2416  -17.8489 O   0  0  0  0  0  0  0  0  0  0  0  0
   18.3656   -6.0597  -16.6514 C   0  0  0  0  0  0  0  0  0  0  0  0
   19.7902   -6.5220  -16.9850 C   0  0  2  0  0  0  0  0  0  0  0  0
   19.8372   -7.9288  -16.6517 N   0  0  0  0  0  0  0  0  0  0  0  0
   20.7190   -5.7178  -16.1866 C   0  0  0  0  0  0  0  0  0  0  0  0
   21.1995   -6.2199  -15.1384 O   0  0  0  0  0  0  0  0  0  0  0  0
   21.0804   -4.4294  -16.5508 O   0  0  0  0  0  0  0  0  0  0  0  0
  2  4  1  0
  2  1  1  1
  3  2  1  0
  4  6  1  0
  4  5  1  6
  6  7  2  0
  9  8  1  1
  9 11  1  0
  9 10  1  0
 12 11  1  6
 12 14  1  0
 13  6  1  0
 13 12  1  0
 14 15  2  0
 17 16  1  1
 17 19  1  0
 18 17  1  0
 18 14  1  0
 19 20  2  0
 19 21  1  0
M  END
$$$$
