VLA.pdb
     RDKit          3D

 21 20  0  0  1  0  0  0  0  0999 V2000
   23.4454  -21.6167  -15.9561 C   0  0  0  0  0  0  0  0  0  0  0  0
   22.3482  -21.0775  -15.0952 C   0  0  2  0  0  0  0  0  0  0  0  0
   21.3642  -20.2732  -15.9092 C   0  0  0  0  0  0  0  0  0  0  0  0
   22.8616  -20.1759  -13.9936 C   0  0  2  0  0  0  0  0  0  0  0  0
   23.3824  -18.9854  -14.6737 N   0  0  0  0  0  0  0  0  0  0  0  0
   23.9260  -20.7955  -13.1784 C   0  0  0  0  0  0  0  0  0  0  0  0
   23.6705  -21.8679  -12.5378 O   0  0  0  0  0  0  0  0  0  0  0  0
   28.7283  -21.9156  -10.9970 C   0  0  0  0  0  0  0  0  0  0  0  0
   28.7841  -21.2039  -12.3154 C   0  0  2  0  0  0  0  0  0  0  0  0
   29.7657  -20.0218  -12.1336 C   0  0  0  0  0  0  0  0  0  0  0  0
   27.5279  -20.6395  -12.8092 C   0  0  0  0  0  0  0  0  0  0  0  0
   26.2395  -20.8564  -12.1234 C   0  0  2  0  0  0  0  0  0  0  0  0
   25.2255  -20.2837  -13.0523 N   0  0  0  0  0  0  0  0  0  0  0  0
   26.0277  -20.1989  -10.8337 C   0  0  0  0  0  0  0  0  0  0  0  0
   25.9314  -18.9446  -10.6884 O   0  0  0  0  0  0  0  0  0  0  0  0
   24.8976  -21.3275   -7.4801 C   0  0  0  0  0  0  0  0  0  0  0  0
   25.6214  -20.2737   -8.3287 C   0  0  2  0  0  0  0  0  0  0  0  0
   25.9068  -20.9137   -9.5941 N   0  0  0  0  0  0  0  0  0  0  0  0
   26.8331  -19.8753   -7.6077 C   0  0  0  0  0  0  0  0  0  0  0  0
   27.9095  -20.4715   -7.8674 O   0  0  0  0  0  0  0  0  0  0  0  0
   26.8268  -18.8678   -6.6548 O   0  0  0  0  0  0  0  0  0  0  0  0
  2  4  1  0
  2  1  1  6
  3  2  1  0
  4  6  1  0
  4  5  1  6
  6  7  2  0
  9  8  1  1
  9 11  1  0
  9 10  1  0
 12 11  1  6
 12 14  1  0
 13  6  1  0
 13 12  1  0
 14 15  2  0
 17 16  1  1
 17 19  1  0
 18 17  1  0
 18 14  1  0
 19 20  2  0
 19 21  1  0
M  END
$$$$
