VLA.pdb
     RDKit          3D

 21 20  0  0  1  0  0  0  0  0999 V2000
   12.7915  -11.6889  -10.5314 C   0  0  0  0  0  0  0  0  0  0  0  0
   12.8828  -12.0935  -11.9680 C   0  0  2  0  0  0  0  0  0  0  0  0
   13.2714  -13.5458  -12.1000 C   0  0  0  0  0  0  0  0  0  0  0  0
   13.9042  -11.2842  -12.7375 C   0  0  2  0  0  0  0  0  0  0  0  0
   15.2031  -11.8813  -12.4100 N   0  0  0  0  0  0  0  0  0  0  0  0
   13.9050   -9.8511  -12.3805 C   0  0  0  0  0  0  0  0  0  0  0  0
   12.8433   -9.1679  -12.5584 O   0  0  0  0  0  0  0  0  0  0  0  0
   13.5151   -6.3746   -9.1587 C   0  0  0  0  0  0  0  0  0  0  0  0
   14.5451   -7.4611   -9.0789 C   0  0  2  0  0  0  0  0  0  0  0  0
   15.3961   -7.1660   -7.8209 C   0  0  0  0  0  0  0  0  0  0  0  0
   15.4745   -7.5670  -10.2039 C   0  0  0  0  0  0  0  0  0  0  0  0
   15.0150   -7.7000  -11.5998 C   0  0  2  0  0  0  0  0  0  0  0  0
   15.0085   -9.1687  -11.8483 N   0  0  0  0  0  0  0  0  0  0  0  0
   15.8410   -7.1120  -12.6545 C   0  0  0  0  0  0  0  0  0  0  0  0
   17.0181   -7.4935  -12.9243 O   0  0  0  0  0  0  0  0  0  0  0  0
   15.2941   -4.6225  -15.4066 C   0  0  0  0  0  0  0  0  0  0  0  0
   16.2429   -5.3905  -14.4769 C   0  0  2  0  0  0  0  0  0  0  0  0
   15.3981   -6.0361  -13.4961 N   0  0  0  0  0  0  0  0  0  0  0  0
   17.1660   -4.4211  -13.8813 C   0  0  0  0  0  0  0  0  0  0  0  0
   16.9541   -4.0360  -12.7029 O   0  0  0  0  0  0  0  0  0  0  0  0
   18.2579   -3.9201  -14.5742 O   0  0  0  0  0  0  0  0  0  0  0  0
  2  4  1  0
  2  1  1  1
  3  2  1  0
  4  6  1  0
  4  5  1  1
  6  7  2  0
  9  8  1  6
  9 11  1  0
  9 10  1  0
 12 11  1  1
 12 14  1  0
 13  6  1  0
 13 12  1  0
 14 15  2  0
 17 16  1  6
 17 19  1  0
 18 17  1  0
 18 14  1  0
 19 20  2  0
 19 21  1  0
M  END
$$$$
