VLA.pdb
     RDKit          3D

 21 20  0  0  1  0  0  0  0  0999 V2000
   19.9611  -13.5517  -16.9808 C   0  0  0  0  0  0  0  0  0  0  0  0
   18.6291  -13.2391  -17.5840 C   0  0  2  0  0  0  0  0  0  0  0  0
   18.3135  -14.1795  -18.7214 C   0  0  0  0  0  0  0  0  0  0  0  0
   18.5539  -11.8307  -18.1325 C   0  0  2  0  0  0  0  0  0  0  0  0
   19.4127  -11.8279  -19.3213 N   0  0  0  0  0  0  0  0  0  0  0  0
   19.0156  -10.8045  -17.1759 C   0  0  0  0  0  0  0  0  0  0  0  0
   18.3586  -10.6217  -16.0986 O   0  0  0  0  0  0  0  0  0  0  0  0
   22.1297  -10.1130  -13.7518 C   0  0  0  0  0  0  0  0  0  0  0  0
   22.4664  -10.3570  -15.1922 C   0  0  2  0  0  0  0  0  0  0  0  0
   24.0098  -10.4258  -15.2756 C   0  0  0  0  0  0  0  0  0  0  0  0
   22.0355   -9.3364  -16.1479 C   0  0  0  0  0  0  0  0  0  0  0  0
   20.6142   -9.0019  -16.3611 C   0  0  2  0  0  0  0  0  0  0  0  0
   20.1469   -9.9979  -17.3655 N   0  0  0  0  0  0  0  0  0  0  0  0
   20.2929   -7.6856  -16.9128 C   0  0  0  0  0  0  0  0  0  0  0  0
   20.6691   -7.2880  -18.0548 O   0  0  0  0  0  0  0  0  0  0  0  0
   17.7762   -5.0800  -16.2433 C   0  0  0  0  0  0  0  0  0  0  0  0
   19.1843   -5.4067  -16.7578 C   0  0  2  0  0  0  0  0  0  0  0  0
   19.5134   -6.7048  -16.2109 N   0  0  0  0  0  0  0  0  0  0  0  0
   20.0859   -4.3494  -16.2931 C   0  0  0  0  0  0  0  0  0  0  0  0
   20.9069   -4.6192  -15.3794 O   0  0  0  0  0  0  0  0  0  0  0  0
   20.0600   -3.0701  -16.8278 O   0  0  0  0  0  0  0  0  0  0  0  0
  2  4  1  0
  2  1  1  6
  3  2  1  0
  4  6  1  0
  4  5  1  6
  6  7  2  0
  9  8  1  1
  9 11  1  0
  9 10  1  0
 12 11  1  6
 12 14  1  0
 13  6  1  0
 13 12  1  0
 14 15  2  0
 17 16  1  1
 17 19  1  0
 18 17  1  0
 18 14  1  0
 19 20  2  0
 19 21  1  0
M  END
$$$$
