PWL.pdb
     RDKit          3D

 30 32  0  0  1  0  0  0  0  0999 V2000
    8.8516  -16.0343   19.0083 N   0  0  0  0  0  0  0  0  0  0  0  0
    7.7247  -15.8067   18.1546 C   0  0  0  0  0  0  0  0  0  0  0  0
    8.1138  -14.5405   17.4106 C   0  0  0  0  0  0  0  0  0  0  0  0
    8.6642  -13.7134   18.5535 C   0  0  0  0  0  0  0  0  0  0  0  0
    9.4630  -14.7697   19.3038 C   0  0  1  0  0  0  0  0  0  0  0  0
    9.4228  -14.4780   20.7739 C   0  0  0  0  0  0  0  0  0  0  0  0
    9.8171  -13.3532   21.1383 O   0  0  0  0  0  0  0  0  0  0  0  0
    8.9401  -15.5091   21.6077 N   0  0  0  0  0  0  0  0  0  0  0  0
    8.7048  -15.2270   23.0254 C   0  0  1  0  0  0  0  0  0  0  0  0
    7.2675  -15.4539   23.2651 C   0  0  0  0  0  0  0  0  0  0  0  0
    6.6884  -15.0085   24.5412 C   0  0  0  0  0  0  0  0  0  0  0  0
    6.1462  -15.7468   25.5864 C   0  0  0  0  0  0  0  0  0  0  0  0
    5.7272  -14.9161   26.5534 N   0  0  0  0  0  0  0  0  0  0  0  0
    5.9602  -13.6338   26.2152 C   0  0  0  0  0  0  0  0  0  0  0  0
    5.7306  -12.4402   26.8708 C   0  0  0  0  0  0  0  0  0  0  0  0
    6.1155  -11.2788   26.2444 C   0  0  0  0  0  0  0  0  0  0  0  0
    6.7175  -11.2862   24.9909 C   0  0  0  0  0  0  0  0  0  0  0  0
    6.9282  -12.4888   24.3718 C   0  0  0  0  0  0  0  0  0  0  0  0
    6.5572  -13.6799   24.9655 C   0  0  0  0  0  0  0  0  0  0  0  0
    9.6778  -15.9852   23.8199 C   0  0  0  0  0  0  0  0  0  0  0  0
   10.4106  -16.8679   23.2724 O   0  0  0  0  0  0  0  0  0  0  0  0
   10.8540  -13.7542   28.6604 C   0  0  0  0  0  0  0  0  0  0  0  0
   10.5064  -14.9593   27.8687 C   0  0  2  0  0  0  0  0  0  0  0  0
   10.1781  -16.1163   28.8483 C   0  0  0  0  0  0  0  0  0  0  0  0
   11.5209  -15.4080   26.9044 C   0  0  0  0  0  0  0  0  0  0  0  0
   11.1121  -16.3392   25.8140 C   0  0  2  0  0  0  0  0  0  0  0  0
    9.8643  -15.7785   25.2134 N   0  0  0  0  0  0  0  0  0  0  0  0
   10.7788  -17.7029   26.2268 C   0  0  0  0  0  0  0  0  0  0  0  0
    9.4378  -18.1714   26.1202 O   0  0  0  0  0  0  0  0  0  0  0  0
   11.5714  -18.5580   26.6914 O   0  0  0  0  0  0  0  0  0  0  0  0
  1  2  1  0
  3  2  1  0
  4  3  1  0
  5  4  1  0
  5  1  1  0
  6  7  2  0
  5  6  1  1
  8  6  1  0
  9  8  1  0
 10 11  1  0
  9 10  1  1
 11 19  1  0
 11 12  2  0
 12 13  1  0
 14 13  1  0
 14 15  2  0
 16 15  1  0
 17 16  2  0
 18 19  2  0
 18 17  1  0
 19 14  1  0
 20 27  1  0
 20  9  1  0
 21 20  2  0
 23 22  1  1
 23 25  1  0
 24 23  1  0
 26 25  1  1
 26 27  1  0
 26 28  1  0
 28 29  1  0
 30 28  2  0
M  END
$$$$
