PWL.pdb
     RDKit          3D

 30 32  0  0  1  0  0  0  0  0999 V2000
    8.6516  -16.7442   20.1062 N   0  0  0  0  0  0  0  0  0  0  0  0
    7.5203  -16.4511   19.2789 C   0  0  0  0  0  0  0  0  0  0  0  0
    7.9887  -15.2478   18.4785 C   0  0  0  0  0  0  0  0  0  0  0  0
    8.6431  -14.4323   19.5738 C   0  0  0  0  0  0  0  0  0  0  0  0
    9.3754  -15.5264   20.3375 C   0  0  1  0  0  0  0  0  0  0  0  0
    9.4078  -15.1834   21.7968 C   0  0  0  0  0  0  0  0  0  0  0  0
    9.8552  -14.0615   22.1041 O   0  0  0  0  0  0  0  0  0  0  0  0
    8.9264  -16.1676   22.6860 N   0  0  0  0  0  0  0  0  0  0  0  0
    8.8521  -15.8603   24.1160 C   0  0  1  0  0  0  0  0  0  0  0  0
    7.5462  -16.3596   24.5848 C   0  0  0  0  0  0  0  0  0  0  0  0
    6.5694  -15.3921   25.1065 C   0  0  0  0  0  0  0  0  0  0  0  0
    5.2531  -15.5767   25.5124 C   0  0  0  0  0  0  0  0  0  0  0  0
    4.7367  -14.4037   25.9101 N   0  0  0  0  0  0  0  0  0  0  0  0
    5.6466  -13.4180   25.7944 C   0  0  0  0  0  0  0  0  0  0  0  0
    5.6020  -12.0690   26.0871 C   0  0  0  0  0  0  0  0  0  0  0  0
    6.7379  -11.3263   25.8685 C   0  0  0  0  0  0  0  0  0  0  0  0
    7.9030  -11.8977   25.3690 C   0  0  0  0  0  0  0  0  0  0  0  0
    7.9088  -13.2379   25.0902 C   0  0  0  0  0  0  0  0  0  0  0  0
    6.7896  -14.0216   25.2952 C   0  0  0  0  0  0  0  0  0  0  0  0
   10.0695  -16.3602   24.7647 C   0  0  0  0  0  0  0  0  0  0  0  0
   10.9692  -16.9468   24.0846 O   0  0  0  0  0  0  0  0  0  0  0  0
   10.9437  -13.7032   27.8363 C   0  0  0  0  0  0  0  0  0  0  0  0
   10.9970  -15.0562   28.4415 C   0  0  2  0  0  0  0  0  0  0  0  0
   11.2606  -14.9071   29.9628 C   0  0  0  0  0  0  0  0  0  0  0  0
   11.9831  -15.9796   27.8625 C   0  0  0  0  0  0  0  0  0  0  0  0
   11.5941  -16.7925   26.6746 C   0  0  2  0  0  0  0  0  0  0  0  0
   10.3174  -16.2149   26.1564 N   0  0  0  0  0  0  0  0  0  0  0  0
   11.3184  -18.2071   26.9281 C   0  0  0  0  0  0  0  0  0  0  0  0
   12.3789  -19.0844   27.2955 O   0  0  0  0  0  0  0  0  0  0  0  0
   10.2019  -18.7757   26.8557 O   0  0  0  0  0  0  0  0  0  0  0  0
  1  2  1  0
  3  2  1  0
  4  3  1  0
  5  4  1  0
  5  1  1  0
  6  7  2  0
  5  6  1  1
  8  6  1  0
  9  8  1  0
 10 11  1  0
  9 10  1  1
 11 19  1  0
 11 12  2  0
 12 13  1  0
 14 13  1  0
 14 15  2  0
 16 15  1  0
 17 16  2  0
 18 19  2  0
 18 17  1  0
 19 14  1  0
 20 27  1  0
 20  9  1  0
 21 20  2  0
 23 22  1  6
 23 25  1  0
 24 23  1  0
 26 25  1  1
 26 27  1  0
 26 28  1  0
 28 29  1  0
 30 28  2  0
M  END
$$$$
