PWL.pdb
     RDKit          3D

 30 32  0  0  1  0  0  0  0  0999 V2000
    8.6875  -15.8065   19.5559 N   0  0  0  0  0  0  0  0  0  0  0  0
    7.6177  -15.2841   18.7604 C   0  0  0  0  0  0  0  0  0  0  0  0
    8.2383  -14.0511   18.1259 C   0  0  0  0  0  0  0  0  0  0  0  0
    8.9517  -13.4603   19.3239 C   0  0  0  0  0  0  0  0  0  0  0  0
    9.5370  -14.7184   19.9493 C   0  0  1  0  0  0  0  0  0  0  0  0
    9.5702  -14.5679   21.4408 C   0  0  0  0  0  0  0  0  0  0  0  0
   10.1696  -13.5743   21.8956 O   0  0  0  0  0  0  0  0  0  0  0  0
    8.9167  -15.5695   22.1896 N   0  0  0  0  0  0  0  0  0  0  0  0
    8.7562  -15.3881   23.6340 C   0  0  1  0  0  0  0  0  0  0  0  0
    7.4312  -15.9348   23.9806 C   0  0  0  0  0  0  0  0  0  0  0  0
    6.5474  -15.1407   24.8470 C   0  0  0  0  0  0  0  0  0  0  0  0
    5.3354  -15.4749   25.4392 C   0  0  0  0  0  0  0  0  0  0  0  0
    4.8757  -14.4291   26.1432 N   0  0  0  0  0  0  0  0  0  0  0  0
    5.7244  -13.3872   26.0594 C   0  0  0  0  0  0  0  0  0  0  0  0
    5.7042  -12.1214   26.6115 C   0  0  0  0  0  0  0  0  0  0  0  0
    6.7612  -11.2854   26.3406 C   0  0  0  0  0  0  0  0  0  0  0  0
    7.8249  -11.6841   25.5386 C   0  0  0  0  0  0  0  0  0  0  0  0
    7.8094  -12.9462   25.0085 C   0  0  0  0  0  0  0  0  0  0  0  0
    6.7672  -13.8188   25.2553 C   0  0  0  0  0  0  0  0  0  0  0  0
    9.9398  -15.9346   24.3074 C   0  0  0  0  0  0  0  0  0  0  0  0
   10.9084  -16.4036   23.6309 O   0  0  0  0  0  0  0  0  0  0  0  0
   11.0609  -13.5784   27.6775 C   0  0  0  0  0  0  0  0  0  0  0  0
   10.6223  -14.9242   28.1208 C   0  0  2  0  0  0  0  0  0  0  0  0
   10.5290  -14.9284   29.6692 C   0  0  0  0  0  0  0  0  0  0  0  0
   11.4580  -16.0494   27.6783 C   0  0  0  0  0  0  0  0  0  0  0  0
   11.3664  -16.4964   26.2587 C   0  0  2  0  0  0  0  0  0  0  0  0
   10.0781  -15.9639   25.7214 N   0  0  0  0  0  0  0  0  0  0  0  0
   11.3210  -17.9432   26.0439 C   0  0  0  0  0  0  0  0  0  0  0  0
   10.0990  -18.5685   25.6631 O   0  0  0  0  0  0  0  0  0  0  0  0
   12.2778  -18.7468   26.1624 O   0  0  0  0  0  0  0  0  0  0  0  0
  1  2  1  0
  3  2  1  0
  4  3  1  0
  5  4  1  0
  5  1  1  0
  6  7  2  0
  5  6  1  1
  8  6  1  0
  9  8  1  0
 10 11  1  0
  9 10  1  1
 11 19  1  0
 11 12  2  0
 12 13  1  0
 14 13  1  0
 14 15  2  0
 16 15  1  0
 17 16  2  0
 18 19  2  0
 18 17  1  0
 19 14  1  0
 20 27  1  0
 20  9  1  0
 21 20  2  0
 23 22  1  1
 23 25  1  0
 24 23  1  0
 26 25  1  1
 26 27  1  0
 26 28  1  0
 28 29  1  0
 30 28  2  0
M  END
$$$$
