PWL.pdb
     RDKit          3D

 30 32  0  0  1  0  0  0  0  0999 V2000
    9.6125  -17.5725   19.6900 N   0  0  0  0  0  0  0  0  0  0  0  0
    8.6417  -17.6130   18.6382 C   0  0  0  0  0  0  0  0  0  0  0  0
    9.1668  -16.5828   17.6528 C   0  0  0  0  0  0  0  0  0  0  0  0
    9.5402  -15.4647   18.6035 C   0  0  0  0  0  0  0  0  0  0  0  0
   10.1898  -16.2589   19.7278 C   0  0  1  0  0  0  0  0  0  0  0  0
    9.9187  -15.5846   21.0392 C   0  0  0  0  0  0  0  0  0  0  0  0
   10.2739  -14.3949   21.1474 O   0  0  0  0  0  0  0  0  0  0  0  0
    9.2844  -16.3647   22.0293 N   0  0  0  0  0  0  0  0  0  0  0  0
    8.9363  -15.7448   23.3097 C   0  0  1  0  0  0  0  0  0  0  0  0
    7.4802  -15.9104   23.4736 C   0  0  0  0  0  0  0  0  0  0  0  0
    6.8238  -15.2664   24.6211 C   0  0  0  0  0  0  0  0  0  0  0  0
    6.1298  -15.8258   25.6873 C   0  0  0  0  0  0  0  0  0  0  0  0
    5.6920  -14.8513   26.4993 N   0  0  0  0  0  0  0  0  0  0  0  0
    6.0580  -13.6419   26.0341 C   0  0  0  0  0  0  0  0  0  0  0  0
    5.8662  -12.3612   26.5140 C   0  0  0  0  0  0  0  0  0  0  0  0
    6.3998  -11.3188   25.7941 C   0  0  0  0  0  0  0  0  0  0  0  0
    7.1121  -11.5281   24.6184 C   0  0  0  0  0  0  0  0  0  0  0  0
    7.2810  -12.8117   24.1737 C   0  0  0  0  0  0  0  0  0  0  0  0
    6.7619  -13.8886   24.8662 C   0  0  0  0  0  0  0  0  0  0  0  0
    9.8256  -16.2824   24.3456 C   0  0  0  0  0  0  0  0  0  0  0  0
   10.8194  -17.0093   24.0296 O   0  0  0  0  0  0  0  0  0  0  0  0
   11.1925  -13.5728   27.4012 C   0  0  0  0  0  0  0  0  0  0  0  0
   10.1631  -14.4665   27.9857 C   0  0  2  0  0  0  0  0  0  0  0  0
    9.8839  -14.0123   29.4423 C   0  0  0  0  0  0  0  0  0  0  0  0
   10.4779  -15.9021   27.9729 C   0  0  0  0  0  0  0  0  0  0  0  0
   10.6684  -16.5833   26.6603 C   0  0  2  0  0  0  0  0  0  0  0  0
    9.6422  -16.0226   25.7306 N   0  0  0  0  0  0  0  0  0  0  0  0
   10.4636  -18.0323   26.6542 C   0  0  0  0  0  0  0  0  0  0  0  0
    9.2093  -18.5723   26.2488 O   0  0  0  0  0  0  0  0  0  0  0  0
   11.3016  -18.9070   26.9823 O   0  0  0  0  0  0  0  0  0  0  0  0
  1  2  1  0
  3  2  1  0
  4  3  1  0
  5  4  1  0
  5  1  1  0
  6  7  2  0
  5  6  1  1
  8  6  1  0
  9  8  1  0
 10 11  1  0
  9 10  1  1
 11 19  1  0
 11 12  2  0
 12 13  1  0
 14 13  1  0
 14 15  2  0
 16 15  1  0
 17 16  2  0
 18 19  2  0
 18 17  1  0
 19 14  1  0
 20 27  1  0
 20  9  1  0
 21 20  2  0
 23 22  1  1
 23 25  1  0
 24 23  1  0
 26 25  1  1
 26 27  1  0
 26 28  1  0
 28 29  1  0
 30 28  2  0
M  END
$$$$
