PWL.pdb
     RDKit          3D

 30 32  0  0  1  0  0  0  0  0999 V2000
    9.9718  -17.9370   19.5187 N   0  0  0  0  0  0  0  0  0  0  0  0
    9.0448  -18.0055   18.4295 C   0  0  0  0  0  0  0  0  0  0  0  0
    9.6207  -17.0150   17.4318 C   0  0  0  0  0  0  0  0  0  0  0  0
    9.9661  -15.8678   18.3581 C   0  0  0  0  0  0  0  0  0  0  0  0
   10.5606  -16.6280   19.5351 C   0  0  1  0  0  0  0  0  0  0  0  0
   10.2426  -15.9060   20.8101 C   0  0  0  0  0  0  0  0  0  0  0  0
   10.7216  -14.7637   20.9477 O   0  0  0  0  0  0  0  0  0  0  0  0
    9.4277  -16.5918   21.7358 N   0  0  0  0  0  0  0  0  0  0  0  0
    9.0576  -15.9276   22.9876 C   0  0  1  0  0  0  0  0  0  0  0  0
    7.5838  -15.9086   23.0322 C   0  0  0  0  0  0  0  0  0  0  0  0
    6.9233  -15.3433   24.2182 C   0  0  0  0  0  0  0  0  0  0  0  0
    6.2283  -15.9734   25.2436 C   0  0  0  0  0  0  0  0  0  0  0  0
    5.7863  -15.0556   26.1171 N   0  0  0  0  0  0  0  0  0  0  0  0
    6.1503  -13.8174   25.7335 C   0  0  0  0  0  0  0  0  0  0  0  0
    5.9544  -12.5716   26.2964 C   0  0  0  0  0  0  0  0  0  0  0  0
    6.4869  -11.4827   25.6482 C   0  0  0  0  0  0  0  0  0  0  0  0
    7.2023  -11.6122   24.4630 C   0  0  0  0  0  0  0  0  0  0  0  0
    7.3754  -12.8634   23.9349 C   0  0  0  0  0  0  0  0  0  0  0  0
    6.8574  -13.9848   24.5536 C   0  0  0  0  0  0  0  0  0  0  0  0
    9.7858  -16.5679   24.0887 C   0  0  0  0  0  0  0  0  0  0  0  0
   10.4637  -17.6241   23.8865 O   0  0  0  0  0  0  0  0  0  0  0  0
   10.0874  -13.2937   28.3327 C   0  0  0  0  0  0  0  0  0  0  0  0
   10.0644  -14.7335   27.9773 C   0  0  2  0  0  0  0  0  0  0  0  0
    9.9841  -15.5641   29.2849 C   0  0  0  0  0  0  0  0  0  0  0  0
   11.1907  -15.2114   27.1628 C   0  0  0  0  0  0  0  0  0  0  0  0
   10.9778  -16.3764   26.2570 C   0  0  2  0  0  0  0  0  0  0  0  0
    9.7869  -16.0552   25.4141 N   0  0  0  0  0  0  0  0  0  0  0  0
   10.6726  -17.6495   26.9108 C   0  0  0  0  0  0  0  0  0  0  0  0
    9.3842  -18.2376   26.7578 O   0  0  0  0  0  0  0  0  0  0  0  0
   11.4474  -18.3241   27.6318 O   0  0  0  0  0  0  0  0  0  0  0  0
  1  2  1  0
  3  2  1  0
  4  3  1  0
  5  4  1  0
  5  1  1  0
  6  7  2  0
  5  6  1  1
  8  6  1  0
  9  8  1  0
 10 11  1  0
  9 10  1  1
 11 19  1  0
 11 12  2  0
 12 13  1  0
 14 13  1  0
 14 15  2  0
 16 15  1  0
 17 16  2  0
 18 19  2  0
 18 17  1  0
 19 14  1  0
 20 27  1  0
 20  9  1  0
 21 20  2  0
 23 22  1  1
 23 25  1  0
 24 23  1  0
 26 25  1  1
 26 27  1  0
 26 28  1  0
 28 29  1  0
 30 28  2  0
M  END
$$$$
