PWL.pdb
     RDKit          3D

 30 32  0  0  1  0  0  0  0  0999 V2000
   10.0491  -18.6079   20.0547 N   0  0  0  0  0  0  0  0  0  0  0  0
    9.4451  -18.4506   18.7660 C   0  0  0  0  0  0  0  0  0  0  0  0
   10.5701  -17.8579   17.9347 C   0  0  0  0  0  0  0  0  0  0  0  0
   11.1054  -16.8233   18.9023 C   0  0  0  0  0  0  0  0  0  0  0  0
   11.0740  -17.6138   20.2026 C   0  0  1  0  0  0  0  0  0  0  0  0
   10.7725  -16.6894   21.3440 C   0  0  0  0  0  0  0  0  0  0  0  0
   11.5891  -15.7730   21.5603 O   0  0  0  0  0  0  0  0  0  0  0  0
    9.5881  -16.9464   22.0667 N   0  0  0  0  0  0  0  0  0  0  0  0
    9.2528  -16.0951   23.2103 C   0  0  1  0  0  0  0  0  0  0  0  0
    7.8637  -15.6449   23.0048 C   0  0  0  0  0  0  0  0  0  0  0  0
    7.5235  -14.2486   23.3163 C   0  0  0  0  0  0  0  0  0  0  0  0
    7.6690  -13.0978   22.5508 C   0  0  0  0  0  0  0  0  0  0  0  0
    7.2300  -12.0373   23.2459 N   0  0  0  0  0  0  0  0  0  0  0  0
    6.7871  -12.4129   24.4607 C   0  0  0  0  0  0  0  0  0  0  0  0
    6.2346  -11.7066   25.5111 C   0  0  0  0  0  0  0  0  0  0  0  0
    5.8587  -12.4096   26.6308 C   0  0  0  0  0  0  0  0  0  0  0  0
    6.0222  -13.7875   26.7210 C   0  0  0  0  0  0  0  0  0  0  0  0
    6.5741  -14.4532   25.6597 C   0  0  0  0  0  0  0  0  0  0  0  0
    6.9656  -13.7859   24.5151 C   0  0  0  0  0  0  0  0  0  0  0  0
    9.5816  -16.8192   24.4434 C   0  0  0  0  0  0  0  0  0  0  0  0
   10.1890  -17.9348   24.3945 O   0  0  0  0  0  0  0  0  0  0  0  0
   10.2969  -14.7183   30.2096 C   0  0  0  0  0  0  0  0  0  0  0  0
   10.8781  -15.3967   29.0256 C   0  0  2  0  0  0  0  0  0  0  0  0
   12.2183  -14.7029   28.6670 C   0  0  0  0  0  0  0  0  0  0  0  0
   10.0213  -15.4516   27.8327 C   0  0  0  0  0  0  0  0  0  0  0  0
   10.3018  -16.4844   26.7946 C   0  0  2  0  0  0  0  0  0  0  0  0
    9.2587  -16.3267   25.7366 N   0  0  0  0  0  0  0  0  0  0  0  0
   10.2156  -17.8770   27.2358 C   0  0  0  0  0  0  0  0  0  0  0  0
    8.9510  -18.5308   27.2865 O   0  0  0  0  0  0  0  0  0  0  0  0
   11.1703  -18.6068   27.5978 O   0  0  0  0  0  0  0  0  0  0  0  0
  1  2  1  0
  3  2  1  0
  4  3  1  0
  5  4  1  0
  5  1  1  0
  6  7  2  0
  5  6  1  1
  8  6  1  0
  9  8  1  0
 10 11  1  0
  9 10  1  1
 11 19  1  0
 11 12  2  0
 12 13  1  0
 14 13  1  0
 14 15  2  0
 16 15  1  0
 17 16  2  0
 18 19  2  0
 18 17  1  0
 19 14  1  0
 20 27  1  0
 20  9  1  0
 21 20  2  0
 23 22  1  1
 23 25  1  0
 24 23  1  0
 26 25  1  1
 26 27  1  0
 26 28  1  0
 28 29  1  0
 30 28  2  0
M  END
$$$$
