PWL.pdb
     RDKit          3D

 30 32  0  0  1  0  0  0  0  0999 V2000
    9.6211  -17.5379   19.4953 N   0  0  0  0  0  0  0  0  0  0  0  0
    8.6442  -17.4895   18.4495 C   0  0  0  0  0  0  0  0  0  0  0  0
    9.2252  -16.4644   17.4905 C   0  0  0  0  0  0  0  0  0  0  0  0
    9.6700  -15.3989   18.4703 C   0  0  0  0  0  0  0  0  0  0  0  0
   10.2765  -16.2629   19.5668 C   0  0  1  0  0  0  0  0  0  0  0  0
   10.0531  -15.6121   20.8990 C   0  0  0  0  0  0  0  0  0  0  0  0
   10.5118  -14.4633   21.0511 O   0  0  0  0  0  0  0  0  0  0  0  0
    9.3415  -16.3655   21.8566 N   0  0  0  0  0  0  0  0  0  0  0  0
    9.0137  -15.7516   23.1453 C   0  0  1  0  0  0  0  0  0  0  0  0
    7.5575  -15.9019   23.3229 C   0  0  0  0  0  0  0  0  0  0  0  0
    6.9309  -15.3188   24.5186 C   0  0  0  0  0  0  0  0  0  0  0  0
    6.2468  -15.9313   25.5618 C   0  0  0  0  0  0  0  0  0  0  0  0
    5.8380  -15.0013   26.4385 N   0  0  0  0  0  0  0  0  0  0  0  0
    6.2145  -13.7715   26.0400 C   0  0  0  0  0  0  0  0  0  0  0  0
    6.0507  -12.5194   26.5992 C   0  0  0  0  0  0  0  0  0  0  0  0
    6.5877  -11.4433   25.9335 C   0  0  0  0  0  0  0  0  0  0  0  0
    7.2764  -11.5916   24.7347 C   0  0  0  0  0  0  0  0  0  0  0  0
    7.4179  -12.8484   24.2109 C   0  0  0  0  0  0  0  0  0  0  0  0
    6.8943  -13.9575   24.8470 C   0  0  0  0  0  0  0  0  0  0  0  0
    9.9072  -16.3073   24.1678 C   0  0  0  0  0  0  0  0  0  0  0  0
   10.8870  -17.0464   23.8364 O   0  0  0  0  0  0  0  0  0  0  0  0
   11.2057  -13.4993   27.0375 C   0  0  0  0  0  0  0  0  0  0  0  0
   10.2685  -14.4361   27.7037 C   0  0  2  0  0  0  0  0  0  0  0  0
   10.0073  -13.9308   29.1468 C   0  0  0  0  0  0  0  0  0  0  0  0
   10.6906  -15.8432   27.7472 C   0  0  0  0  0  0  0  0  0  0  0  0
   10.7924  -16.6017   26.4675 C   0  0  2  0  0  0  0  0  0  0  0  0
    9.7436  -16.0526   25.5562 N   0  0  0  0  0  0  0  0  0  0  0  0
   10.5347  -18.0397   26.5522 C   0  0  0  0  0  0  0  0  0  0  0  0
    9.3180  -18.5763   26.0414 O   0  0  0  0  0  0  0  0  0  0  0  0
   11.2937  -18.9071   27.0490 O   0  0  0  0  0  0  0  0  0  0  0  0
  1  2  1  0
  3  2  1  0
  4  3  1  0
  5  4  1  0
  5  1  1  0
  6  7  2  0
  5  6  1  1
  8  6  1  0
  9  8  1  0
 10 11  1  0
  9 10  1  1
 11 19  1  0
 11 12  2  0
 12 13  1  0
 14 13  1  0
 14 15  2  0
 16 15  1  0
 17 16  2  0
 18 19  2  0
 18 17  1  0
 19 14  1  0
 20 27  1  0
 20  9  1  0
 21 20  2  0
 23 22  1  1
 23 25  1  0
 24 23  1  0
 26 25  1  1
 26 27  1  0
 26 28  1  0
 28 29  1  0
 30 28  2  0
M  END
$$$$
