PWL.pdb
     RDKit          3D

 30 32  0  0  1  0  0  0  0  0999 V2000
    8.6156  -15.6922   19.8328 N   0  0  0  0  0  0  0  0  0  0  0  0
    7.5024  -15.2168   19.0678 C   0  0  0  0  0  0  0  0  0  0  0  0
    8.0332  -13.9286   18.4621 C   0  0  0  0  0  0  0  0  0  0  0  0
    8.7259  -13.3281   19.6674 C   0  0  0  0  0  0  0  0  0  0  0  0
    9.3999  -14.5636   20.2469 C   0  0  1  0  0  0  0  0  0  0  0  0
    9.4466  -14.4545   21.7416 C   0  0  0  0  0  0  0  0  0  0  0  0
    9.9340  -13.4107   22.2174 O   0  0  0  0  0  0  0  0  0  0  0  0
    8.9318  -15.5483   22.4693 N   0  0  0  0  0  0  0  0  0  0  0  0
    8.8311  -15.4496   23.9271 C   0  0  1  0  0  0  0  0  0  0  0  0
    7.5180  -16.0105   24.2955 C   0  0  0  0  0  0  0  0  0  0  0  0
    6.5033  -15.1106   24.8638 C   0  0  0  0  0  0  0  0  0  0  0  0
    5.1848  -15.3601   25.2256 C   0  0  0  0  0  0  0  0  0  0  0  0
    4.6269  -14.2338   25.6955 N   0  0  0  0  0  0  0  0  0  0  0  0
    5.5101  -13.2179   25.6721 C   0  0  0  0  0  0  0  0  0  0  0  0
    5.4208  -11.8956   26.0606 C   0  0  0  0  0  0  0  0  0  0  0  0
    6.5390  -11.1083   25.9220 C   0  0  0  0  0  0  0  0  0  0  0  0
    7.7301  -11.6097   25.4088 C   0  0  0  0  0  0  0  0  0  0  0  0
    7.7802  -12.9253   25.0338 C   0  0  0  0  0  0  0  0  0  0  0  0
    6.6800  -13.7521   25.1562 C   0  0  0  0  0  0  0  0  0  0  0  0
   10.0377  -16.0382   24.5192 C   0  0  0  0  0  0  0  0  0  0  0  0
   10.9399  -16.5425   23.7792 O   0  0  0  0  0  0  0  0  0  0  0  0
   10.8454  -13.8218   27.8461 C   0  0  0  0  0  0  0  0  0  0  0  0
   11.0061  -15.2114   28.3392 C   0  0  2  0  0  0  0  0  0  0  0  0
   11.3986  -15.1612   29.8390 C   0  0  0  0  0  0  0  0  0  0  0  0
   11.9721  -16.0437   27.6084 C   0  0  0  0  0  0  0  0  0  0  0  0
   11.5215  -16.7519   26.3760 C   0  0  2  0  0  0  0  0  0  0  0  0
   10.2719  -16.0716   25.9204 N   0  0  0  0  0  0  0  0  0  0  0  0
   11.1710  -18.1632   26.5394 C   0  0  0  0  0  0  0  0  0  0  0  0
   12.1761  -19.1107   26.8877 O   0  0  0  0  0  0  0  0  0  0  0  0
   10.0318  -18.6713   26.4007 O   0  0  0  0  0  0  0  0  0  0  0  0
  1  2  1  0
  3  2  1  0
  4  3  1  0
  5  4  1  0
  5  1  1  0
  6  7  2  0
  5  6  1  1
  8  6  1  0
  9  8  1  0
 10 11  1  0
  9 10  1  1
 11 19  1  0
 11 12  2  0
 12 13  1  0
 14 13  1  0
 14 15  2  0
 16 15  1  0
 17 16  2  0
 18 19  2  0
 18 17  1  0
 19 14  1  0
 20 27  1  0
 20  9  1  0
 21 20  2  0
 23 22  1  6
 23 25  1  0
 24 23  1  0
 26 25  1  1
 26 27  1  0
 26 28  1  0
 28 29  1  0
 30 28  2  0
M  END
$$$$
