PWL.pdb
     RDKit          3D

 30 32  0  0  1  0  0  0  0  0999 V2000
   10.2074  -18.0117   19.7147 N   0  0  0  0  0  0  0  0  0  0  0  0
    9.3664  -18.0456   18.5563 C   0  0  0  0  0  0  0  0  0  0  0  0
   10.0661  -17.0928   17.6019 C   0  0  0  0  0  0  0  0  0  0  0  0
   10.3929  -15.9552   18.5464 C   0  0  0  0  0  0  0  0  0  0  0  0
   10.8557  -16.7323   19.7706 C   0  0  1  0  0  0  0  0  0  0  0  0
   10.4740  -15.9844   21.0128 C   0  0  0  0  0  0  0  0  0  0  0  0
   10.9010  -14.8189   21.1249 O   0  0  0  0  0  0  0  0  0  0  0  0
    9.6642  -16.6746   21.9397 N   0  0  0  0  0  0  0  0  0  0  0  0
    9.2602  -15.9983   23.1744 C   0  0  1  0  0  0  0  0  0  0  0  0
    7.7870  -16.0481   23.2168 C   0  0  0  0  0  0  0  0  0  0  0  0
    7.0963  -15.4578   24.3731 C   0  0  0  0  0  0  0  0  0  0  0  0
    6.3891  -16.0673   25.4025 C   0  0  0  0  0  0  0  0  0  0  0  0
    5.9187  -15.1308   26.2405 N   0  0  0  0  0  0  0  0  0  0  0  0
    6.2748  -13.8994   25.8286 C   0  0  0  0  0  0  0  0  0  0  0  0
    6.0524  -12.6407   26.3515 C   0  0  0  0  0  0  0  0  0  0  0  0
    6.5840  -11.5639   25.6826 C   0  0  0  0  0  0  0  0  0  0  0  0
    7.3242  -11.7180   24.5156 C   0  0  0  0  0  0  0  0  0  0  0  0
    7.5231  -12.9813   24.0272 C   0  0  0  0  0  0  0  0  0  0  0  0
    7.0070  -14.0912   24.6679 C   0  0  0  0  0  0  0  0  0  0  0  0
   10.0152  -16.5764   24.2918 C   0  0  0  0  0  0  0  0  0  0  0  0
   10.7242  -17.6177   24.1217 O   0  0  0  0  0  0  0  0  0  0  0  0
    9.7984  -13.4543   27.4685 C   0  0  0  0  0  0  0  0  0  0  0  0
   10.1891  -14.7222   28.1317 C   0  0  2  0  0  0  0  0  0  0  0  0
   10.5109  -14.4230   29.6193 C   0  0  0  0  0  0  0  0  0  0  0  0
   11.3156  -15.4438   27.5232 C   0  0  0  0  0  0  0  0  0  0  0  0
   11.0265  -16.5428   26.5578 C   0  0  2  0  0  0  0  0  0  0  0  0
   10.0094  -16.0170   25.5981 N   0  0  0  0  0  0  0  0  0  0  0  0
   10.4468  -17.7600   27.1268 C   0  0  0  0  0  0  0  0  0  0  0  0
    9.1412  -18.1762   26.7376 O   0  0  0  0  0  0  0  0  0  0  0  0
   10.9861  -18.5241   27.9638 O   0  0  0  0  0  0  0  0  0  0  0  0
  1  2  1  0
  3  2  1  0
  4  3  1  0
  5  4  1  0
  5  1  1  0
  6  7  2  0
  5  6  1  1
  8  6  1  0
  9  8  1  0
 10 11  1  0
  9 10  1  1
 11 19  1  0
 11 12  2  0
 12 13  1  0
 14 13  1  0
 14 15  2  0
 16 15  1  0
 17 16  2  0
 18 19  2  0
 18 17  1  0
 19 14  1  0
 20 27  1  0
 20  9  1  0
 21 20  2  0
 23 22  1  6
 23 25  1  0
 24 23  1  0
 26 25  1  1
 26 27  1  0
 26 28  1  0
 28 29  1  0
 30 28  2  0
M  END
$$$$
