PWL.pdb
     RDKit          3D

 30 32  0  0  1  0  0  0  0  0999 V2000
    7.3645  -16.6644   21.7462 N   0  0  0  0  0  0  0  0  0  0  0  0
    6.2712  -15.8286   21.3509 C   0  0  0  0  0  0  0  0  0  0  0  0
    6.6353  -15.4458   19.9265 C   0  0  0  0  0  0  0  0  0  0  0  0
    8.1052  -15.1253   20.0997 C   0  0  0  0  0  0  0  0  0  0  0  0
    8.5333  -16.2627   21.0162 C   0  0  1  0  0  0  0  0  0  0  0  0
    9.6119  -15.7826   21.9405 C   0  0  0  0  0  0  0  0  0  0  0  0
   10.7056  -15.4809   21.4247 O   0  0  0  0  0  0  0  0  0  0  0  0
    9.2839  -15.7178   23.3113 N   0  0  0  0  0  0  0  0  0  0  0  0
   10.3251  -15.3585   24.2765 C   0  0  1  0  0  0  0  0  0  0  0  0
    9.6624  -14.5764   25.3366 C   0  0  0  0  0  0  0  0  0  0  0  0
    8.1929  -14.5272   25.3599 C   0  0  0  0  0  0  0  0  0  0  0  0
    7.2598  -15.5546   25.2892 C   0  0  0  0  0  0  0  0  0  0  0  0
    6.0211  -15.0409   25.3375 N   0  0  0  0  0  0  0  0  0  0  0  0
    6.0645  -13.6990   25.4392 C   0  0  0  0  0  0  0  0  0  0  0  0
    5.0766  -12.7390   25.5375 C   0  0  0  0  0  0  0  0  0  0  0  0
    5.4661  -11.4258   25.6525 C   0  0  0  0  0  0  0  0  0  0  0  0
    6.8067  -11.0572   25.6707 C   0  0  0  0  0  0  0  0  0  0  0  0
    7.7576  -12.0370   25.5704 C   0  0  0  0  0  0  0  0  0  0  0  0
    7.4103  -13.3691   25.4534 C   0  0  0  0  0  0  0  0  0  0  0  0
   11.0534  -16.5756   24.6523 C   0  0  0  0  0  0  0  0  0  0  0  0
   12.2495  -16.7584   24.2627 O   0  0  0  0  0  0  0  0  0  0  0  0
   10.0761  -14.5753   29.2678 C   0  0  0  0  0  0  0  0  0  0  0  0
   10.8564  -15.6553   28.6162 C   0  0  2  0  0  0  0  0  0  0  0  0
   12.2330  -15.0818   28.1895 C   0  0  0  0  0  0  0  0  0  0  0  0
   10.2168  -16.3018   27.4616 C   0  0  0  0  0  0  0  0  0  0  0  0
   10.8140  -17.5559   26.9195 C   0  0  2  0  0  0  0  0  0  0  0  0
   10.4853  -17.5953   25.4627 N   0  0  0  0  0  0  0  0  0  0  0  0
   10.2982  -18.8057   27.4792 C   0  0  0  0  0  0  0  0  0  0  0  0
    9.0894  -19.3662   26.9752 O   0  0  0  0  0  0  0  0  0  0  0  0
   10.8161  -19.4817   28.4012 O   0  0  0  0  0  0  0  0  0  0  0  0
  1  2  1  0
  3  2  1  0
  4  3  1  0
  5  4  1  0
  5  1  1  0
  6  7  2  0
  5  6  1  1
  8  6  1  0
  9  8  1  0
 10 11  1  0
  9 10  1  1
 11 19  1  0
 11 12  2  0
 12 13  1  0
 14 13  1  0
 14 15  2  0
 16 15  1  0
 17 16  2  0
 18 19  2  0
 18 17  1  0
 19 14  1  0
 20 27  1  0
 20  9  1  0
 21 20  2  0
 23 22  1  6
 23 25  1  0
 24 23  1  0
 26 25  1  1
 26 27  1  0
 26 28  1  0
 28 29  1  0
 30 28  2  0
M  END
$$$$
