PWL.pdb
     RDKit          3D

 30 32  0  0  1  0  0  0  0  0999 V2000
    9.6537  -17.6964   19.2940 N   0  0  0  0  0  0  0  0  0  0  0  0
    8.6755  -17.8271   18.2564 C   0  0  0  0  0  0  0  0  0  0  0  0
    9.1332  -16.8059   17.2289 C   0  0  0  0  0  0  0  0  0  0  0  0
    9.4548  -15.6359   18.1350 C   0  0  0  0  0  0  0  0  0  0  0  0
   10.1586  -16.3529   19.2784 C   0  0  1  0  0  0  0  0  0  0  0  0
    9.8648  -15.6478   20.5686 C   0  0  0  0  0  0  0  0  0  0  0  0
   10.1561  -14.4376   20.6308 O   0  0  0  0  0  0  0  0  0  0  0  0
    9.2838  -16.4252   21.5930 N   0  0  0  0  0  0  0  0  0  0  0  0
    8.9607  -15.7901   22.8725 C   0  0  1  0  0  0  0  0  0  0  0  0
    7.4949  -15.8610   23.0174 C   0  0  0  0  0  0  0  0  0  0  0  0
    6.8871  -15.3737   24.2646 C   0  0  0  0  0  0  0  0  0  0  0  0
    6.2207  -16.0668   25.2682 C   0  0  0  0  0  0  0  0  0  0  0  0
    5.8251  -15.2084   26.2207 N   0  0  0  0  0  0  0  0  0  0  0  0
    6.1935  -13.9505   25.9125 C   0  0  0  0  0  0  0  0  0  0  0  0
    6.0372  -12.7458   26.5694 C   0  0  0  0  0  0  0  0  0  0  0  0
    6.5619  -11.6201   25.9805 C   0  0  0  0  0  0  0  0  0  0  0  0
    7.2312  -11.6735   24.7629 C   0  0  0  0  0  0  0  0  0  0  0  0
    7.3659  -12.8857   24.1412 C   0  0  0  0  0  0  0  0  0  0  0  0
    6.8541  -14.0419   24.6979 C   0  0  0  0  0  0  0  0  0  0  0  0
    9.7997  -16.3898   23.9162 C   0  0  0  0  0  0  0  0  0  0  0  0
   10.4613  -17.4499   23.6829 O   0  0  0  0  0  0  0  0  0  0  0  0
   10.7410  -13.1928   28.0991 C   0  0  0  0  0  0  0  0  0  0  0  0
   10.6186  -14.6588   27.9103 C   0  0  2  0  0  0  0  0  0  0  0  0
   10.8333  -15.3531   29.2807 C   0  0  0  0  0  0  0  0  0  0  0  0
   11.5197  -15.2547   26.9137 C   0  0  0  0  0  0  0  0  0  0  0  0
   11.0192  -16.3833   26.0776 C   0  0  2  0  0  0  0  0  0  0  0  0
    9.9298  -15.8320   25.2167 N   0  0  0  0  0  0  0  0  0  0  0  0
   10.4244  -17.5052   26.8048 C   0  0  0  0  0  0  0  0  0  0  0  0
   11.2620  -18.4841   27.4127 O   0  0  0  0  0  0  0  0  0  0  0  0
    9.1994  -17.7259   26.9665 O   0  0  0  0  0  0  0  0  0  0  0  0
  1  2  1  0
  3  2  1  0
  4  3  1  0
  5  4  1  0
  5  1  1  0
  6  7  2  0
  5  6  1  1
  8  6  1  0
  9  8  1  0
 10 11  1  0
  9 10  1  1
 11 19  1  0
 11 12  2  0
 12 13  1  0
 14 13  1  0
 14 15  2  0
 16 15  1  0
 17 16  2  0
 18 19  2  0
 18 17  1  0
 19 14  1  0
 20 27  1  0
 20  9  1  0
 21 20  2  0
 23 22  1  1
 23 25  1  0
 24 23  1  0
 26 25  1  1
 26 27  1  0
 26 28  1  0
 28 29  1  0
 30 28  2  0
M  END
$$$$
