PWL.pdb
     RDKit          3D

 30 32  0  0  1  0  0  0  0  0999 V2000
    9.0137  -16.1525   19.2990 N   0  0  0  0  0  0  0  0  0  0  0  0
    7.8889  -15.9188   18.4443 C   0  0  0  0  0  0  0  0  0  0  0  0
    8.2950  -14.6673   17.6848 C   0  0  0  0  0  0  0  0  0  0  0  0
    8.8592  -13.8347   18.8169 C   0  0  0  0  0  0  0  0  0  0  0  0
    9.6438  -14.8934   19.5786 C   0  0  1  0  0  0  0  0  0  0  0  0
    9.6103  -14.5838   21.0452 C   0  0  0  0  0  0  0  0  0  0  0  0
    9.9410  -13.4320   21.3877 O   0  0  0  0  0  0  0  0  0  0  0  0
    9.2054  -15.6303   21.9008 N   0  0  0  0  0  0  0  0  0  0  0  0
    8.8805  -15.3244   23.2957 C   0  0  1  0  0  0  0  0  0  0  0  0
    7.4291  -15.5381   23.4447 C   0  0  0  0  0  0  0  0  0  0  0  0
    6.7615  -15.0186   24.6476 C   0  0  0  0  0  0  0  0  0  0  0  0
    6.1544  -15.6946   25.6991 C   0  0  0  0  0  0  0  0  0  0  0  0
    5.6651  -14.8086   26.5802 N   0  0  0  0  0  0  0  0  0  0  0  0
    5.9120  -13.5480   26.1766 C   0  0  0  0  0  0  0  0  0  0  0  0
    5.6305  -12.3175   26.7370 C   0  0  0  0  0  0  0  0  0  0  0  0
    6.0493  -11.1943   26.0645 C   0  0  0  0  0  0  0  0  0  0  0  0
    6.7352  -11.2751   24.8576 C   0  0  0  0  0  0  0  0  0  0  0  0
    6.9955  -12.5124   24.3328 C   0  0  0  0  0  0  0  0  0  0  0  0
    6.5929  -13.6671   24.9756 C   0  0  0  0  0  0  0  0  0  0  0  0
    9.7942  -16.0762   24.1634 C   0  0  0  0  0  0  0  0  0  0  0  0
   10.6700  -16.8497   23.6628 O   0  0  0  0  0  0  0  0  0  0  0  0
   10.9904  -13.7099   27.5539 C   0  0  0  0  0  0  0  0  0  0  0  0
   10.2018  -14.8863   27.9944 C   0  0  2  0  0  0  0  0  0  0  0  0
    9.9149  -14.7485   29.5126 C   0  0  0  0  0  0  0  0  0  0  0  0
   10.8055  -16.1996   27.7280 C   0  0  0  0  0  0  0  0  0  0  0  0
   10.8426  -16.7010   26.3243 C   0  0  2  0  0  0  0  0  0  0  0  0
    9.7646  -15.9816   25.5810 N   0  0  0  0  0  0  0  0  0  0  0  0
   10.5678  -18.1271   26.1453 C   0  0  0  0  0  0  0  0  0  0  0  0
    9.3752  -18.5454   25.4882 O   0  0  0  0  0  0  0  0  0  0  0  0
   11.2916  -19.0808   26.5221 O   0  0  0  0  0  0  0  0  0  0  0  0
  1  2  1  0
  3  2  1  0
  4  3  1  0
  5  4  1  0
  5  1  1  0
  6  7  2  0
  5  6  1  1
  8  6  1  0
  9  8  1  0
 10 11  1  0
  9 10  1  1
 11 19  1  0
 11 12  2  0
 12 13  1  0
 14 13  1  0
 14 15  2  0
 16 15  1  0
 17 16  2  0
 18 19  2  0
 18 17  1  0
 19 14  1  0
 20 27  1  0
 20  9  1  0
 21 20  2  0
 23 22  1  1
 23 25  1  0
 24 23  1  0
 26 25  1  1
 26 27  1  0
 26 28  1  0
 28 29  1  0
 30 28  2  0
M  END
$$$$
