PWL.pdb
     RDKit          3D

 30 32  0  0  1  0  0  0  0  0999 V2000
   10.1734  -17.9529   19.9707 N   0  0  0  0  0  0  0  0  0  0  0  0
    9.3675  -17.9561   18.7872 C   0  0  0  0  0  0  0  0  0  0  0  0
   10.0746  -16.9516   17.8933 C   0  0  0  0  0  0  0  0  0  0  0  0
   10.3498  -15.8472   18.8922 C   0  0  0  0  0  0  0  0  0  0  0  0
   10.7929  -16.6643   20.0974 C   0  0  1  0  0  0  0  0  0  0  0  0
   10.3595  -15.9755   21.3567 C   0  0  0  0  0  0  0  0  0  0  0  0
   10.7516  -14.8043   21.5243 O   0  0  0  0  0  0  0  0  0  0  0  0
    9.5457  -16.7221   22.2350 N   0  0  0  0  0  0  0  0  0  0  0  0
    9.0801  -16.1001   23.4764 C   0  0  1  0  0  0  0  0  0  0  0  0
    7.6231  -16.3200   23.5348 C   0  0  0  0  0  0  0  0  0  0  0  0
    6.8316  -15.5376   24.4959 C   0  0  0  0  0  0  0  0  0  0  0  0
    5.8851  -15.9513   25.4255 C   0  0  0  0  0  0  0  0  0  0  0  0
    5.4088  -14.8853   26.0869 N   0  0  0  0  0  0  0  0  0  0  0  0
    5.9910  -13.7529   25.6493 C   0  0  0  0  0  0  0  0  0  0  0  0
    5.8535  -12.4299   26.0209 C   0  0  0  0  0  0  0  0  0  0  0  0
    6.6299  -11.4971   25.3756 C   0  0  0  0  0  0  0  0  0  0  0  0
    7.5299  -11.8556   24.3781 C   0  0  0  0  0  0  0  0  0  0  0  0
    7.6381  -13.1768   24.0363 C   0  0  0  0  0  0  0  0  0  0  0  0
    6.8771  -14.1471   24.6595 C   0  0  0  0  0  0  0  0  0  0  0  0
    9.9095  -16.5896   24.5834 C   0  0  0  0  0  0  0  0  0  0  0  0
   10.8799  -17.3804   24.3624 O   0  0  0  0  0  0  0  0  0  0  0  0
   10.6272  -13.5266   27.5523 C   0  0  0  0  0  0  0  0  0  0  0  0
    9.7941  -14.6167   28.1159 C   0  0  2  0  0  0  0  0  0  0  0  0
    9.3103  -14.1899   29.5265 C   0  0  0  0  0  0  0  0  0  0  0  0
   10.4346  -15.9370   28.1972 C   0  0  0  0  0  0  0  0  0  0  0  0
   10.6958  -16.6869   26.9352 C   0  0  2  0  0  0  0  0  0  0  0  0
    9.6917  -16.2121   25.9360 N   0  0  0  0  0  0  0  0  0  0  0  0
   10.5320  -18.1393   27.0068 C   0  0  0  0  0  0  0  0  0  0  0  0
   11.5404  -18.9404   27.6156 O   0  0  0  0  0  0  0  0  0  0  0  0
    9.5604  -18.8042   26.5720 O   0  0  0  0  0  0  0  0  0  0  0  0
  1  2  1  0
  3  2  1  0
  4  3  1  0
  5  4  1  0
  5  1  1  0
  6  7  2  0
  5  6  1  1
  8  6  1  0
  9  8  1  0
 10 11  1  0
  9 10  1  1
 11 19  1  0
 11 12  2  0
 12 13  1  0
 14 13  1  0
 14 15  2  0
 16 15  1  0
 17 16  2  0
 18 19  2  0
 18 17  1  0
 19 14  1  0
 20 27  1  0
 20  9  1  0
 21 20  2  0
 23 22  1  1
 23 25  1  0
 24 23  1  0
 26 25  1  1
 26 27  1  0
 26 28  1  0
 28 29  1  0
 30 28  2  0
M  END
$$$$
