PWL.pdb
     RDKit          3D

 30 32  0  0  1  0  0  0  0  0999 V2000
    8.7144  -16.8937   20.0446 N   0  0  0  0  0  0  0  0  0  0  0  0
    7.5945  -16.6433   19.1883 C   0  0  0  0  0  0  0  0  0  0  0  0
    8.0652  -15.4666   18.3505 C   0  0  0  0  0  0  0  0  0  0  0  0
    8.6936  -14.6038   19.4247 C   0  0  0  0  0  0  0  0  0  0  0  0
    9.4230  -15.6610   20.2414 C   0  0  1  0  0  0  0  0  0  0  0  0
    9.4278  -15.2628   21.6869 C   0  0  0  0  0  0  0  0  0  0  0  0
    9.8490  -14.1215   21.9576 O   0  0  0  0  0  0  0  0  0  0  0  0
    8.9526  -16.2221   22.6061 N   0  0  0  0  0  0  0  0  0  0  0  0
    8.8322  -15.8561   24.0191 C   0  0  1  0  0  0  0  0  0  0  0  0
    7.5154  -16.3451   24.4681 C   0  0  0  0  0  0  0  0  0  0  0  0
    6.5673  -15.3816   25.0468 C   0  0  0  0  0  0  0  0  0  0  0  0
    5.2786  -15.5718   25.5310 C   0  0  0  0  0  0  0  0  0  0  0  0
    4.7816  -14.4008   25.9582 N   0  0  0  0  0  0  0  0  0  0  0  0
    5.6783  -13.4110   25.7876 C   0  0  0  0  0  0  0  0  0  0  0  0
    5.6452  -12.0620   26.0815 C   0  0  0  0  0  0  0  0  0  0  0  0
    6.7624  -11.3144   25.7947 C   0  0  0  0  0  0  0  0  0  0  0  0
    7.8981  -11.8809   25.2266 C   0  0  0  0  0  0  0  0  0  0  0  0
    7.8934  -13.2214   24.9487 C   0  0  0  0  0  0  0  0  0  0  0  0
    6.7921  -14.0099   25.2210 C   0  0  0  0  0  0  0  0  0  0  0  0
   10.0320  -16.3194   24.7252 C   0  0  0  0  0  0  0  0  0  0  0  0
   11.0011  -16.8334   24.0828 O   0  0  0  0  0  0  0  0  0  0  0  0
   10.8834  -13.6402   27.8129 C   0  0  0  0  0  0  0  0  0  0  0  0
   10.6734  -14.9796   28.4142 C   0  0  2  0  0  0  0  0  0  0  0  0
   10.6654  -14.8322   29.9584 C   0  0  0  0  0  0  0  0  0  0  0  0
   11.6413  -16.0157   28.0269 C   0  0  0  0  0  0  0  0  0  0  0  0
   11.4859  -16.6839   26.7031 C   0  0  2  0  0  0  0  0  0  0  0  0
   10.1861  -16.2163   26.1341 N   0  0  0  0  0  0  0  0  0  0  0  0
   11.4085  -18.1450   26.7275 C   0  0  0  0  0  0  0  0  0  0  0  0
   10.1827  -18.7985   26.4123 O   0  0  0  0  0  0  0  0  0  0  0  0
   12.3394  -18.9381   27.0099 O   0  0  0  0  0  0  0  0  0  0  0  0
  1  2  1  0
  3  2  1  0
  4  3  1  0
  5  4  1  0
  5  1  1  0
  6  7  2  0
  5  6  1  1
  8  6  1  0
  9  8  1  0
 10 11  1  0
  9 10  1  1
 11 19  1  0
 11 12  2  0
 12 13  1  0
 14 13  1  0
 14 15  2  0
 16 15  1  0
 17 16  2  0
 18 19  2  0
 18 17  1  0
 19 14  1  0
 20 27  1  0
 20  9  1  0
 21 20  2  0
 23 22  1  6
 23 25  1  0
 24 23  1  0
 26 25  1  1
 26 27  1  0
 26 28  1  0
 28 29  1  0
 30 28  2  0
M  END
$$$$
