QAA.pdb
     RDKit          3D

 20 19  0  0  1  0  0  0  0  0999 V2000
   17.2847  -10.1479  -20.2297 N   0  0  0  0  0  0  0  0  0  0  0  0
   18.5166  -10.7838  -20.5600 C   0  0  0  0  0  0  0  0  0  0  0  0
   18.6825  -11.3899  -21.6556 O   0  0  0  0  0  0  0  0  0  0  0  0
   19.6203  -10.7105  -19.5577 C   0  0  0  0  0  0  0  0  0  0  0  0
   19.1205   -9.9617  -18.3416 C   0  0  0  0  0  0  0  0  0  0  0  0
   19.3877  -10.7871  -17.1106 C   0  0  2  0  0  0  0  0  0  0  0  0
   18.2590  -11.6401  -16.8742 N   0  0  0  0  0  0  0  0  0  0  0  0
   19.6631   -9.8671  -15.9779 C   0  0  0  0  0  0  0  0  0  0  0  0
   18.6906   -9.2709  -15.4624 O   0  0  0  0  0  0  0  0  0  0  0  0
   22.4602   -9.2423  -13.6142 C   0  0  0  0  0  0  0  0  0  0  0  0
   21.1483   -8.8170  -14.2645 C   0  0  2  0  0  0  0  0  0  0  0  0
   20.9472   -9.6246  -15.4495 N   0  0  0  0  0  0  0  0  0  0  0  0
   21.2640   -7.4008  -14.6285 C   0  0  0  0  0  0  0  0  0  0  0  0
   21.8607   -7.0769  -15.6743 O   0  0  0  0  0  0  0  0  0  0  0  0
   19.7414   -4.1119  -13.5894 C   0  0  0  0  0  0  0  0  0  0  0  0
   20.8278   -4.9724  -14.2292 C   0  0  2  0  0  0  0  0  0  0  0  0
   20.7155   -6.3480  -13.8279 N   0  0  0  0  0  0  0  0  0  0  0  0
   22.1316   -4.4314  -13.7925 C   0  0  0  0  0  0  0  0  0  0  0  0
   22.7333   -4.8937  -12.7766 O   0  0  0  0  0  0  0  0  0  0  0  0
   22.7305   -3.4009  -14.4864 O   0  0  0  0  0  0  0  0  0  0  0  0
  2  1  1  0
  2  4  1  0
  3  2  2  0
  5  4  1  0
  5  6  1  0
  6  7  1  1
  8  6  1  0
  8 12  1  0
  9  8  2  0
 11 12  1  0
 11 13  1  0
 11 10  1  6
 13 17  1  0
 14 13  2  0
 16 15  1  1
 16 18  1  0
 17 16  1  0
 18 19  2  0
 18 20  1  0
M  END
$$$$
