QAA.pdb
     RDKit          3D

 20 19  0  0  1  0  0  0  0  0999 V2000
   20.5564  -16.8499  -20.2107 N   0  0  0  0  0  0  0  0  0  0  0  0
   20.4885  -16.8150  -18.7876 C   0  0  0  0  0  0  0  0  0  0  0  0
   19.3862  -16.7701  -18.1727 O   0  0  0  0  0  0  0  0  0  0  0  0
   21.7777  -16.8334  -18.0356 C   0  0  0  0  0  0  0  0  0  0  0  0
   21.7202  -15.7798  -16.9511 C   0  0  0  0  0  0  0  0  0  0  0  0
   21.8861  -14.4198  -17.5763 C   0  0  2  0  0  0  0  0  0  0  0  0
   23.1501  -14.3751  -18.2529 N   0  0  0  0  0  0  0  0  0  0  0  0
   21.7659  -13.3938  -16.5096 C   0  0  0  0  0  0  0  0  0  0  0  0
   20.7011  -13.3593  -15.8522 O   0  0  0  0  0  0  0  0  0  0  0  0
   23.9345  -11.0127  -14.6564 C   0  0  0  0  0  0  0  0  0  0  0  0
   22.5713  -11.4213  -15.2039 C   0  0  2  0  0  0  0  0  0  0  0  0
   22.7730  -12.4598  -16.1927 N   0  0  0  0  0  0  0  0  0  0  0  0
   21.9625  -10.2399  -15.8248 C   0  0  0  0  0  0  0  0  0  0  0  0
   22.3593   -9.8536  -16.9419 O   0  0  0  0  0  0  0  0  0  0  0  0
   18.9341   -8.0503  -15.3107 C   0  0  0  0  0  0  0  0  0  0  0  0
   20.3331   -8.3450  -15.8457 C   0  0  2  0  0  0  0  0  0  0  0  0
   20.9134   -9.4911  -15.2013 N   0  0  0  0  0  0  0  0  0  0  0  0
   21.1647   -7.1522  -15.5834 C   0  0  0  0  0  0  0  0  0  0  0  0
   22.0158   -7.1323  -14.6436 O   0  0  0  0  0  0  0  0  0  0  0  0
   21.0335   -6.0215  -16.3621 O   0  0  0  0  0  0  0  0  0  0  0  0
  2  1  1  0
  2  4  1  0
  3  2  2  0
  5  4  1  0
  5  6  1  0
  6  7  1  1
  8  6  1  0
  8 12  1  0
  9  8  2  0
 11 12  1  0
 11 13  1  0
 11 10  1  6
 13 17  1  0
 14 13  2  0
 16 15  1  1
 16 18  1  0
 17 16  1  0
 18 19  2  0
 18 20  1  0
M  END
$$$$
