QAA.pdb
     RDKit          3D

 20 19  0  0  1  0  0  0  0  0999 V2000
   19.1784   -7.8959  -20.5746 N   0  0  0  0  0  0  0  0  0  0  0  0
   19.3865   -9.2626  -20.2284 C   0  0  0  0  0  0  0  0  0  0  0  0
   19.5109  -10.1622  -21.1062 O   0  0  0  0  0  0  0  0  0  0  0  0
   19.4538   -9.6032  -18.7767 C   0  0  0  0  0  0  0  0  0  0  0  0
   19.3130   -8.3285  -17.9737 C   0  0  0  0  0  0  0  0  0  0  0  0
   19.4109   -8.6568  -16.5072 C   0  0  2  0  0  0  0  0  0  0  0  0
   18.2867   -9.4689  -16.1411 N   0  0  0  0  0  0  0  0  0  0  0  0
   19.4772   -7.3849  -15.7437 C   0  0  0  0  0  0  0  0  0  0  0  0
   18.4080   -6.7608  -15.5582 O   0  0  0  0  0  0  0  0  0  0  0  0
   22.0446   -5.4549  -13.8080 C   0  0  0  0  0  0  0  0  0  0  0  0
   20.6697   -5.6117  -14.4483 C   0  0  2  0  0  0  0  0  0  0  0  0
   20.6652   -6.8389  -15.2171 N   0  0  0  0  0  0  0  0  0  0  0  0
   20.4487   -4.4597  -15.3290 C   0  0  0  0  0  0  0  0  0  0  0  0
   20.9642   -4.4399  -16.4641 O   0  0  0  0  0  0  0  0  0  0  0  0
   18.0263   -1.6294  -15.6197 C   0  0  0  0  0  0  0  0  0  0  0  0
   19.3971   -2.2559  -15.8618 C   0  0  2  0  0  0  0  0  0  0  0  0
   19.6545   -3.3320  -14.9445 N   0  0  0  0  0  0  0  0  0  0  0  0
   20.4058   -1.1921  -15.6769 C   0  0  0  0  0  0  0  0  0  0  0  0
   20.4972   -0.2189  -16.4846 O   0  0  0  0  0  0  0  0  0  0  0  0
   21.2800   -1.2332  -14.6110 O   0  0  0  0  0  0  0  0  0  0  0  0
  2  1  1  0
  2  4  1  0
  3  2  2  0
  5  4  1  0
  5  6  1  0
  6  7  1  1
  8  6  1  0
  8 12  1  0
  9  8  2  0
 11 12  1  0
 11 13  1  0
 11 10  1  6
 13 17  1  0
 14 13  2  0
 16 15  1  1
 16 18  1  0
 17 16  1  0
 18 19  2  0
 18 20  1  0
M  END
$$$$
