QAA.pdb
     RDKit          3D

 20 19  0  0  1  0  0  0  0  0999 V2000
   20.4603  -11.2263  -20.2696 N   0  0  0  0  0  0  0  0  0  0  0  0
   20.7178  -11.8969  -19.0387 C   0  0  0  0  0  0  0  0  0  0  0  0
   21.1491  -13.0835  -19.0024 O   0  0  0  0  0  0  0  0  0  0  0  0
   20.4586  -11.1438  -17.7763 C   0  0  0  0  0  0  0  0  0  0  0  0
   19.8638   -9.7981  -18.1292 C   0  0  0  0  0  0  0  0  0  0  0  0
   19.4748   -9.0838  -16.8617 C   0  0  2  0  0  0  0  0  0  0  0  0
   18.5478   -9.9039  -16.1369 N   0  0  0  0  0  0  0  0  0  0  0  0
   18.9124   -7.7577  -17.2226 C   0  0  0  0  0  0  0  0  0  0  0  0
   19.6395   -6.9749  -17.8750 O   0  0  0  0  0  0  0  0  0  0  0  0
   15.6059   -6.0117  -17.0633 C   0  0  0  0  0  0  0  0  0  0  0  0
   17.1201   -6.0165  -17.2419 C   0  0  2  0  0  0  0  0  0  0  0  0
   17.6153   -7.3275  -16.8773 N   0  0  0  0  0  0  0  0  0  0  0  0
   17.6822   -4.9954  -16.3514 C   0  0  0  0  0  0  0  0  0  0  0  0
   18.0506   -5.3103  -15.2026 O   0  0  0  0  0  0  0  0  0  0  0  0
   18.7260   -1.3486  -16.5916 C   0  0  0  0  0  0  0  0  0  0  0  0
   18.4682   -2.6713  -15.8745 C   0  0  2  0  0  0  0  0  0  0  0  0
   17.8332   -3.6259  -16.7412 N   0  0  0  0  0  0  0  0  0  0  0  0
   17.5890   -2.3831  -14.7224 C   0  0  0  0  0  0  0  0  0  0  0  0
   16.3627   -2.7053  -14.7287 O   0  0  0  0  0  0  0  0  0  0  0  0
   18.0865   -1.7507  -13.6023 O   0  0  0  0  0  0  0  0  0  0  0  0
  2  1  1  0
  2  4  1  0
  3  2  2  0
  5  4  1  0
  5  6  1  0
  6  7  1  6
  8  6  1  0
  8 12  1  0
  9  8  2  0
 11 12  1  0
 11 13  1  0
 11 10  1  1
 13 17  1  0
 14 13  2  0
 16 15  1  6
 16 18  1  0
 17 16  1  0
 18 19  2  0
 18 20  1  0
M  END
$$$$
