QAA.pdb
     RDKit          3D

 20 19  0  0  1  0  0  0  0  0999 V2000
   19.4164   -9.1790  -22.3212 N   0  0  0  0  0  0  0  0  0  0  0  0
   18.1136   -8.8181  -21.8699 C   0  0  0  0  0  0  0  0  0  0  0  0
   17.1617   -8.6119  -22.6741 O   0  0  0  0  0  0  0  0  0  0  0  0
   17.9054   -8.6895  -20.3974 C   0  0  0  0  0  0  0  0  0  0  0  0
   19.2316   -8.9026  -19.7009 C   0  0  0  0  0  0  0  0  0  0  0  0
   19.0653   -9.9542  -18.6357 C   0  0  2  0  0  0  0  0  0  0  0  0
   17.6958  -10.3808  -18.6198 N   0  0  0  0  0  0  0  0  0  0  0  0
   19.5072   -9.3834  -17.3380 C   0  0  0  0  0  0  0  0  0  0  0  0
   18.6225   -9.0340  -16.5242 O   0  0  0  0  0  0  0  0  0  0  0  0
   22.6751   -9.0410  -15.3970 C   0  0  0  0  0  0  0  0  0  0  0  0
   21.2336   -8.6406  -15.6913 C   0  0  2  0  0  0  0  0  0  0  0  0
   20.8562   -9.2115  -16.9674 N   0  0  0  0  0  0  0  0  0  0  0  0
   21.1763   -7.1762  -15.7529 C   0  0  0  0  0  0  0  0  0  0  0  0
   21.3570   -6.5945  -16.8409 O   0  0  0  0  0  0  0  0  0  0  0  0
   20.0116   -4.3547  -13.5291 C   0  0  0  0  0  0  0  0  0  0  0  0
   20.7691   -4.9372  -14.7195 C   0  0  2  0  0  0  0  0  0  0  0  0
   20.9180   -6.3621  -14.6037 N   0  0  0  0  0  0  0  0  0  0  0  0
   22.1012   -4.2984  -14.7486 C   0  0  0  0  0  0  0  0  0  0  0  0
   23.1397   -4.9153  -14.3630 O   0  0  0  0  0  0  0  0  0  0  0  0
   22.2475   -3.0035  -15.2002 O   0  0  0  0  0  0  0  0  0  0  0  0
  2  1  1  0
  2  4  1  0
  3  2  2  0
  5  4  1  0
  5  6  1  0
  6  7  1  1
  8  6  1  0
  8 12  1  0
  9  8  2  0
 11 12  1  0
 11 13  1  0
 11 10  1  6
 13 17  1  0
 14 13  2  0
 16 15  1  1
 16 18  1  0
 17 16  1  0
 18 19  2  0
 18 20  1  0
M  END
$$$$
