QAA.pdb
     RDKit          3D

 20 19  0  0  1  0  0  0  0  0999 V2000
   14.5197  -10.6229  -13.8193 N   0  0  0  0  0  0  0  0  0  0  0  0
   14.0742  -10.7763  -15.1643 C   0  0  0  0  0  0  0  0  0  0  0  0
   12.9075  -11.1739  -15.4400 O   0  0  0  0  0  0  0  0  0  0  0  0
   15.0419  -10.4482  -16.2524 C   0  0  0  0  0  0  0  0  0  0  0  0
   16.3232   -9.9446  -15.6247 C   0  0  0  0  0  0  0  0  0  0  0  0
   17.4872  -10.7058  -16.2023 C   0  0  2  0  0  0  0  0  0  0  0  0
   17.4349  -12.0579  -15.7262 N   0  0  0  0  0  0  0  0  0  0  0  0
   18.7414  -10.0079  -15.8216 C   0  0  0  0  0  0  0  0  0  0  0  0
   19.0645  -10.0096  -14.6122 O   0  0  0  0  0  0  0  0  0  0  0  0
   21.6914   -8.5517  -17.5977 C   0  0  0  0  0  0  0  0  0  0  0  0
   20.8721   -8.8088  -16.3377 C   0  0  2  0  0  0  0  0  0  0  0  0
   19.5873   -9.3461  -16.7345 N   0  0  0  0  0  0  0  0  0  0  0  0
   20.6952   -7.5275  -15.6459 C   0  0  0  0  0  0  0  0  0  0  0  0
   19.7424   -6.7842  -15.9529 O   0  0  0  0  0  0  0  0  0  0  0  0
   22.0926   -5.7684  -12.6058 C   0  0  0  0  0  0  0  0  0  0  0  0
   21.3639   -5.8216  -13.9461 C   0  0  2  0  0  0  0  0  0  0  0  0
   21.5790   -7.0760  -14.6138 N   0  0  0  0  0  0  0  0  0  0  0  0
   21.8900   -4.7188  -14.7770 C   0  0  0  0  0  0  0  0  0  0  0  0
   22.6496   -4.9408  -15.7677 O   0  0  0  0  0  0  0  0  0  0  0  0
   21.5639   -3.4095  -14.4916 O   0  0  0  0  0  0  0  0  0  0  0  0
  2  1  1  0
  2  4  1  0
  3  2  2  0
  5  4  1  0
  5  6  1  0
  6  7  1  1
  8  6  1  0
  8 12  1  0
  9  8  2  0
 11 12  1  0
 11 13  1  0
 11 10  1  6
 13 17  1  0
 14 13  2  0
 16 15  1  1
 16 18  1  0
 17 16  1  0
 18 19  2  0
 18 20  1  0
M  END
$$$$
