QAA.pdb
     RDKit          3D

 20 19  0  0  1  0  0  0  0  0999 V2000
   20.5988  -12.8832  -20.8345 N   0  0  0  0  0  0  0  0  0  0  0  0
   21.5836  -13.3543  -19.9184 C   0  0  0  0  0  0  0  0  0  0  0  0
   22.4035  -14.2636  -20.2287 O   0  0  0  0  0  0  0  0  0  0  0  0
   21.6172  -12.7316  -18.5622 C   0  0  0  0  0  0  0  0  0  0  0  0
   20.4682  -11.7535  -18.4504 C   0  0  0  0  0  0  0  0  0  0  0  0
   20.9692  -10.4732  -17.8356 C   0  0  2  0  0  0  0  0  0  0  0  0
   21.9528  -10.7936  -16.8419 N   0  0  0  0  0  0  0  0  0  0  0  0
   19.8083   -9.7319  -17.2807 C   0  0  0  0  0  0  0  0  0  0  0  0
   18.9252   -9.3493  -18.0812 O   0  0  0  0  0  0  0  0  0  0  0  0
   18.3722   -8.9330  -13.9270 C   0  0  0  0  0  0  0  0  0  0  0  0
   18.4982   -8.6878  -15.4267 C   0  0  2  0  0  0  0  0  0  0  0  0
   19.6400   -9.4336  -15.9134 N   0  0  0  0  0  0  0  0  0  0  0  0
   18.7053   -7.2502  -15.6324 C   0  0  0  0  0  0  0  0  0  0  0  0
   19.8473   -6.7652  -15.5097 O   0  0  0  0  0  0  0  0  0  0  0  0
   16.8013   -4.3244  -17.0583 C   0  0  0  0  0  0  0  0  0  0  0  0
   17.8858   -4.9556  -16.1889 C   0  0  2  0  0  0  0  0  0  0  0  0
   17.6409   -6.3555  -15.9741 N   0  0  0  0  0  0  0  0  0  0  0  0
   17.8803   -4.2448  -14.8935 C   0  0  0  0  0  0  0  0  0  0  0  0
   17.4305   -4.7905  -13.8410 O   0  0  0  0  0  0  0  0  0  0  0  0
   18.3691   -2.9587  -14.7980 O   0  0  0  0  0  0  0  0  0  0  0  0
  2  1  1  0
  2  4  1  0
  3  2  2  0
  5  4  1  0
  5  6  1  0
  6  7  1  1
  8  6  1  0
  8 12  1  0
  9  8  2  0
 11 12  1  0
 11 13  1  0
 11 10  1  1
 13 17  1  0
 14 13  2  0
 16 15  1  6
 16 18  1  0
 17 16  1  0
 18 19  2  0
 18 20  1  0
M  END
$$$$
