QAA.pdb
     RDKit          3D

 20 19  0  0  1  0  0  0  0  0999 V2000
   16.3134   -7.6319  -19.3697 N   0  0  0  0  0  0  0  0  0  0  0  0
   16.5212   -8.9245  -19.9329 C   0  0  0  0  0  0  0  0  0  0  0  0
   16.0987   -9.2271  -21.0841 O   0  0  0  0  0  0  0  0  0  0  0  0
   17.2638   -9.9237  -19.1093 C   0  0  0  0  0  0  0  0  0  0  0  0
   17.6401   -9.2811  -17.7922 C   0  0  0  0  0  0  0  0  0  0  0  0
   18.4274  -10.2673  -16.9701 C   0  0  2  0  0  0  0  0  0  0  0  0
   17.5305  -11.2676  -16.4676 N   0  0  0  0  0  0  0  0  0  0  0  0
   19.1287   -9.5264  -15.8911 C   0  0  0  0  0  0  0  0  0  0  0  0
   18.4304   -9.0176  -14.9853 O   0  0  0  0  0  0  0  0  0  0  0  0
   22.6125   -9.1881  -14.6307 C   0  0  0  0  0  0  0  0  0  0  0  0
   21.1683   -8.7045  -14.7042 C   0  0  2  0  0  0  0  0  0  0  0  0
   20.5270   -9.3614  -15.8241 N   0  0  0  0  0  0  0  0  0  0  0  0
   21.1892   -7.2525  -14.9109 C   0  0  0  0  0  0  0  0  0  0  0  0
   21.4456   -6.7913  -16.0406 O   0  0  0  0  0  0  0  0  0  0  0  0
   19.8919   -4.1661  -13.2996 C   0  0  0  0  0  0  0  0  0  0  0  0
   20.9668   -4.8997  -14.0974 C   0  0  2  0  0  0  0  0  0  0  0  0
   20.9247   -6.3166  -13.8599 N   0  0  0  0  0  0  0  0  0  0  0  0
   22.2753   -4.3622  -13.6704 C   0  0  0  0  0  0  0  0  0  0  0  0
   23.0146   -4.9906  -12.8541 O   0  0  0  0  0  0  0  0  0  0  0  0
   22.7276   -3.1525  -14.1545 O   0  0  0  0  0  0  0  0  0  0  0  0
  2  1  1  0
  2  4  1  0
  3  2  2  0
  5  4  1  0
  5  6  1  0
  6  7  1  1
  8  6  1  0
  8 12  1  0
  9  8  2  0
 11 12  1  0
 11 13  1  0
 11 10  1  6
 13 17  1  0
 14 13  2  0
 16 15  1  1
 16 18  1  0
 17 16  1  0
 18 19  2  0
 18 20  1  0
M  END
$$$$
