QAA.pdb
     RDKit          3D

 20 19  0  0  1  0  0  0  0  0999 V2000
   19.5195  -14.2972  -16.0032 N   0  0  0  0  0  0  0  0  0  0  0  0
   18.1098  -14.2511  -16.2072 C   0  0  0  0  0  0  0  0  0  0  0  0
   17.4616  -15.2539  -16.6190 O   0  0  0  0  0  0  0  0  0  0  0  0
   17.4131  -12.9637  -15.9154 C   0  0  0  0  0  0  0  0  0  0  0  0
   18.4195  -11.9868  -15.3479 C   0  0  0  0  0  0  0  0  0  0  0  0
   18.3077  -10.6793  -16.0869 C   0  0  2  0  0  0  0  0  0  0  0  0
   18.2098  -10.9515  -17.4919 N   0  0  0  0  0  0  0  0  0  0  0  0
   19.4844   -9.8418  -15.7420 C   0  0  0  0  0  0  0  0  0  0  0  0
   19.7032   -9.6159  -14.5303 O   0  0  0  0  0  0  0  0  0  0  0  0
   22.4028   -8.3225  -17.5442 C   0  0  0  0  0  0  0  0  0  0  0  0
   21.5556   -8.5594  -16.2988 C   0  0  2  0  0  0  0  0  0  0  0  0
   20.3669   -9.2875  -16.6911 N   0  0  0  0  0  0  0  0  0  0  0  0
   21.1904   -7.2505  -15.7465 C   0  0  0  0  0  0  0  0  0  0  0  0
   20.2007   -6.6417  -16.1987 O   0  0  0  0  0  0  0  0  0  0  0  0
   21.8215   -5.1547  -12.7320 C   0  0  0  0  0  0  0  0  0  0  0  0
   21.5912   -5.3017  -14.2338 C   0  0  2  0  0  0  0  0  0  0  0  0
   21.9275   -6.6217  -14.6921 N   0  0  0  0  0  0  0  0  0  0  0  0
   22.4490   -4.3065  -14.9099 C   0  0  0  0  0  0  0  0  0  0  0  0
   23.4446   -4.6587  -15.6118 O   0  0  0  0  0  0  0  0  0  0  0  0
   22.1844   -2.9581  -14.7923 O   0  0  0  0  0  0  0  0  0  0  0  0
  2  1  1  0
  2  4  1  0
  3  2  2  0
  5  4  1  0
  5  6  1  0
  6  7  1  6
  8  6  1  0
  8 12  1  0
  9  8  2  0
 11 12  1  0
 11 13  1  0
 11 10  1  6
 13 17  1  0
 14 13  2  0
 16 15  1  1
 16 18  1  0
 17 16  1  0
 18 19  2  0
 18 20  1  0
M  END
$$$$
