QAA.pdb
     RDKit          3D

 20 19  0  0  1  0  0  0  0  0999 V2000
   20.4260  -12.3018  -17.9005 N   0  0  0  0  0  0  0  0  0  0  0  0
   19.7364  -13.4415  -17.3939 C   0  0  0  0  0  0  0  0  0  0  0  0
   20.0460  -14.6167  -17.7377 O   0  0  0  0  0  0  0  0  0  0  0  0
   18.6215  -13.2005  -16.4311 C   0  0  0  0  0  0  0  0  0  0  0  0
   18.5808  -11.7252  -16.0975 C   0  0  0  0  0  0  0  0  0  0  0  0
   17.5166  -11.4841  -15.0595 C   0  0  2  0  0  0  0  0  0  0  0  0
   16.2470  -11.8719  -15.6029 N   0  0  0  0  0  0  0  0  0  0  0  0
   17.5619  -10.0539  -14.6626 C   0  0  0  0  0  0  0  0  0  0  0  0
   17.0903   -9.2129  -15.4610 O   0  0  0  0  0  0  0  0  0  0  0  0
   18.4275   -8.0247  -11.6421 C   0  0  0  0  0  0  0  0  0  0  0  0
   18.1901   -8.1740  -13.1409 C   0  0  2  0  0  0  0  0  0  0  0  0
   18.1011   -9.5866  -13.4470 N   0  0  0  0  0  0  0  0  0  0  0  0
   19.3313   -7.5735  -13.8400 C   0  0  0  0  0  0  0  0  0  0  0  0
   20.3286   -8.2711  -14.1107 O   0  0  0  0  0  0  0  0  0  0  0  0
   20.1494   -4.3260  -15.6071 C   0  0  0  0  0  0  0  0  0  0  0  0
   20.4965   -5.6445  -14.9206 C   0  0  2  0  0  0  0  0  0  0  0  0
   19.3602   -6.1979  -14.2364 N   0  0  0  0  0  0  0  0  0  0  0  0
   21.5744   -5.3644  -13.9494 C   0  0  0  0  0  0  0  0  0  0  0  0
   21.3472   -5.3210  -12.7027 O   0  0  0  0  0  0  0  0  0  0  0  0
   22.8654   -5.1416  -14.3805 O   0  0  0  0  0  0  0  0  0  0  0  0
  2  1  1  0
  2  4  1  0
  3  2  2  0
  5  4  1  0
  5  6  1  0
  6  7  1  6
  8  6  1  0
  8 12  1  0
  9  8  2  0
 11 12  1  0
 11 13  1  0
 11 10  1  1
 13 17  1  0
 14 13  2  0
 16 15  1  1
 16 18  1  0
 17 16  1  0
 18 19  2  0
 18 20  1  0
M  END
$$$$
