QAA.pdb
     RDKit          3D

 20 19  0  0  1  0  0  0  0  0999 V2000
   15.9299  -15.8094  -14.0820 N   0  0  0  0  0  0  0  0  0  0  0  0
   15.2161  -15.9783  -15.3039 C   0  0  0  0  0  0  0  0  0  0  0  0
   14.1389  -16.6352  -15.3627 O   0  0  0  0  0  0  0  0  0  0  0  0
   15.7883  -15.3463  -16.5292 C   0  0  0  0  0  0  0  0  0  0  0  0
   17.0979  -14.6820  -16.1644 C   0  0  0  0  0  0  0  0  0  0  0  0
   17.1136  -13.2838  -16.7237 C   0  0  2  0  0  0  0  0  0  0  0  0
   16.9088  -13.3527  -18.1417 N   0  0  0  0  0  0  0  0  0  0  0  0
   18.4030  -12.6449  -16.3571 C   0  0  0  0  0  0  0  0  0  0  0  0
   18.7610  -12.7017  -15.1589 O   0  0  0  0  0  0  0  0  0  0  0  0
   21.2600  -10.9352  -18.0789 C   0  0  0  0  0  0  0  0  0  0  0  0
   20.4311  -11.2685  -16.8433 C   0  0  2  0  0  0  0  0  0  0  0  0
   19.2454  -11.9810  -17.2716 N   0  0  0  0  0  0  0  0  0  0  0  0
   20.0590  -10.0057  -16.1962 C   0  0  0  0  0  0  0  0  0  0  0  0
   19.0391   -9.3945  -16.5715 O   0  0  0  0  0  0  0  0  0  0  0  0
   21.0697   -7.9344  -13.2041 C   0  0  0  0  0  0  0  0  0  0  0  0
   20.4996   -8.1279  -14.6068 C   0  0  2  0  0  0  0  0  0  0  0  0
   20.8227   -9.4258  -15.1329 N   0  0  0  0  0  0  0  0  0  0  0  0
   21.0868   -7.0812  -15.4686 C   0  0  0  0  0  0  0  0  0  0  0  0
   21.9044   -7.3679  -16.3946 O   0  0  0  0  0  0  0  0  0  0  0  0
   20.7564   -5.7549  -15.2844 O   0  0  0  0  0  0  0  0  0  0  0  0
  2  1  1  0
  2  4  1  0
  3  2  2  0
  5  4  1  0
  5  6  1  0
  6  7  1  6
  8  6  1  0
  8 12  1  0
  9  8  2  0
 11 12  1  0
 11 13  1  0
 11 10  1  6
 13 17  1  0
 14 13  2  0
 16 15  1  1
 16 18  1  0
 17 16  1  0
 18 19  2  0
 18 20  1  0
M  END
$$$$
