LRL.pdb
     RDKit          3D

 28 27  0  0  1  0  0  0  0  0999 V2000
    5.2166  -12.7038   26.3536 C   0  0  0  0  0  0  0  0  0  0  0  0
    6.5412  -13.3722   26.6311 C   0  0  1  0  0  0  0  0  0  0  0  0
    7.3168  -12.4581   27.5546 C   0  0  0  0  0  0  0  0  0  0  0  0
    6.2805  -14.7167   27.2801 C   0  0  0  0  0  0  0  0  0  0  0  0
    5.8093  -15.7366   26.2770 C   0  0  2  0  0  0  0  0  0  0  0  0
    5.4671  -16.9873   26.9322 N   0  0  0  0  0  0  0  0  0  0  0  0
    6.9015  -15.9436   25.2882 C   0  0  0  0  0  0  0  0  0  0  0  0
    7.8590  -16.6943   25.5665 O   0  0  0  0  0  0  0  0  0  0  0  0
   11.3124  -13.4545   19.5492 N   0  0  0  0  0  0  0  0  0  0  0  0
   10.4478  -13.8408   18.4986 C   0  0  0  0  0  0  0  0  0  0  0  0
   10.9528  -14.1746   17.3661 N   0  0  0  0  0  0  0  0  0  0  0  0
    9.0312  -13.8732   18.6521 N   0  0  0  0  0  0  0  0  0  0  0  0
    8.3652  -13.4204   19.8419 C   0  0  0  0  0  0  0  0  0  0  0  0
    8.7701  -14.3201   20.9882 C   0  0  0  0  0  0  0  0  0  0  0  0
    7.7237  -14.4439   22.0335 C   0  0  0  0  0  0  0  0  0  0  0  0
    8.0043  -15.4475   23.1243 C   0  0  2  0  0  0  0  0  0  0  0  0
    6.8464  -15.2924   24.0491 N   0  0  0  0  0  0  0  0  0  0  0  0
    9.2484  -15.1250   23.8611 C   0  0  0  0  0  0  0  0  0  0  0  0
    9.4440  -13.9012   24.1460 O   0  0  0  0  0  0  0  0  0  0  0  0
   10.3534  -14.4752   16.5623 C   0  0  0  0  0  0  0  0  0  0  0  0
   10.1715  -14.9035   28.6741 C   0  0  2  0  0  0  0  0  0  0  0  0
   10.1460  -14.6691   27.1296 C   0  0  0  0  0  0  0  0  0  0  0  0
   10.7933  -13.2834   26.9890 C   0  0  0  0  0  0  0  0  0  0  0  0
   10.9354  -15.7511   26.4969 C   0  0  2  0  0  0  0  0  0  0  0  0
   11.3804  -15.6437   25.1057 N   0  0  0  0  0  0  0  0  0  0  0  0
   10.2237  -16.0561   24.2716 C   0  0  0  0  0  0  0  0  0  0  0  0
   12.5550  -16.3364   24.6307 O   0  0  0  0  0  0  0  0  0  0  0  0
   13.7617  -16.0943   24.8900 O   0  0  0  0  0  0  0  0  0  0  0  0
  2  1  1  1
  2  3  1  0
  4  2  1  0
  5  4  1  0
  5  6  1  1
  7  5  1  0
  7  8  2  0
  9 10  1  0
 10 11  2  0
 10 12  1  0
 12 13  1  0
 13 14  1  0
 14 15  1  0
 16 15  1  6
 17 16  1  0
 17  7  1  0
 18 16  1  0
 19 18  2  0
 21 20  1  1
 21 22  1  0
 21 23  1  0
 24 23  1  6
 24 25  1  0
 24 26  1  0
 25 18  1  0
 26 28  1  0
 27 26  2  0
M  END
$$$$
