LRL.pdb
     RDKit          3D

 28 27  0  0  1  0  0  0  0  0999 V2000
    3.9077  -11.0486   27.1463 C   0  0  0  0  0  0  0  0  0  0  0  0
    5.3298  -11.1190   26.6451 C   0  0  1  0  0  0  0  0  0  0  0  0
    6.2101  -10.5111   27.7154 C   0  0  0  0  0  0  0  0  0  0  0  0
    5.6869  -12.5710   26.3987 C   0  0  0  0  0  0  0  0  0  0  0  0
    7.1375  -12.7318   26.0266 C   0  0  2  0  0  0  0  0  0  0  0  0
    7.7146  -11.4585   25.6312 N   0  0  0  0  0  0  0  0  0  0  0  0
    7.2171  -13.7133   24.9113 C   0  0  0  0  0  0  0  0  0  0  0  0
    6.6102  -14.8007   24.9948 O   0  0  0  0  0  0  0  0  0  0  0  0
   10.0783  -16.3287   18.0228 N   0  0  0  0  0  0  0  0  0  0  0  0
    8.8775  -15.8463   17.4518 C   0  0  0  0  0  0  0  0  0  0  0  0
    8.7392  -15.8727   16.1754 N   0  0  0  0  0  0  0  0  0  0  0  0
    7.8117  -15.3301   18.2448 N   0  0  0  0  0  0  0  0  0  0  0  0
    7.9608  -14.1874   19.1029 C   0  0  0  0  0  0  0  0  0  0  0  0
    8.7677  -14.6007   20.3136 C   0  0  0  0  0  0  0  0  0  0  0  0
    8.5120  -13.7535   21.5050 C   0  0  0  0  0  0  0  0  0  0  0  0
    8.2254  -14.4962   22.7864 C   0  0  2  0  0  0  0  0  0  0  0  0
    7.9748  -13.4083   23.7732 N   0  0  0  0  0  0  0  0  0  0  0  0
    9.3944  -15.2870   23.2365 C   0  0  0  0  0  0  0  0  0  0  0  0
   10.5432  -14.8311   22.9376 O   0  0  0  0  0  0  0  0  0  0  0  0
    7.9037  -15.4552   15.7027 C   0  0  0  0  0  0  0  0  0  0  0  0
    9.5871  -15.9063   28.0957 C   0  0  1  0  0  0  0  0  0  0  0  0
   10.1375  -15.6467   26.6566 C   0  0  0  0  0  0  0  0  0  0  0  0
   11.4247  -14.8535   26.9270 C   0  0  0  0  0  0  0  0  0  0  0  0
   10.3831  -16.9634   26.0241 C   0  0  2  0  0  0  0  0  0  0  0  0
   10.5568  -17.0819   24.5748 N   0  0  0  0  0  0  0  0  0  0  0  0
    9.3384  -16.4920   23.9657 C   0  0  0  0  0  0  0  0  0  0  0  0
   10.8109  -18.3557   23.9440 O   0  0  0  0  0  0  0  0  0  0  0  0
   11.8561  -19.0540   23.9891 O   0  0  0  0  0  0  0  0  0  0  0  0
  2  1  1  1
  2  3  1  0
  4  2  1  0
  5  4  1  0
  5  6  1  6
  7  5  1  0
  7  8  2  0
  9 10  1  0
 10 11  2  0
 10 12  1  0
 12 13  1  0
 13 14  1  0
 14 15  1  0
 16 15  1  6
 17 16  1  0
 17  7  1  0
 18 16  1  0
 19 18  2  0
 21 20  1  6
 21 22  1  0
 21 23  1  0
 24 23  1  6
 24 25  1  0
 24 26  1  0
 25 18  1  0
 26 28  1  0
 27 26  2  0
M  END
$$$$
