LRL.pdb
     RDKit          3D

 28 27  0  0  1  0  0  0  0  0999 V2000
    7.8506  -20.0824   27.7697 C   0  0  0  0  0  0  0  0  0  0  0  0
    6.9946  -19.7558   26.5701 C   0  0  1  0  0  0  0  0  0  0  0  0
    6.9382  -18.2476   26.4603 C   0  0  0  0  0  0  0  0  0  0  0  0
    7.6272  -20.3734   25.3392 C   0  0  0  0  0  0  0  0  0  0  0  0
    6.9840  -19.8727   24.0726 C   0  0  2  0  0  0  0  0  0  0  0  0
    6.9207  -20.9252   23.0731 N   0  0  0  0  0  0  0  0  0  0  0  0
    7.7880  -18.7239   23.5750 C   0  0  0  0  0  0  0  0  0  0  0  0
    9.0176  -18.8527   23.4037 O   0  0  0  0  0  0  0  0  0  0  0  0
    7.8882  -15.0323   17.8072 N   0  0  0  0  0  0  0  0  0  0  0  0
    8.3213  -13.7466   18.2068 C   0  0  0  0  0  0  0  0  0  0  0  0
    9.2461  -13.1628   17.5338 N   0  0  0  0  0  0  0  0  0  0  0  0
    7.7663  -13.0730   19.3335 N   0  0  0  0  0  0  0  0  0  0  0  0
    6.9015  -13.7202   20.2809 C   0  0  0  0  0  0  0  0  0  0  0  0
    7.7584  -14.3680   21.3457 C   0  0  0  0  0  0  0  0  0  0  0  0
    7.1575  -15.6020   21.9104 C   0  0  0  0  0  0  0  0  0  0  0  0
    8.0094  -16.3468   22.9082 C   0  0  2  0  0  0  0  0  0  0  0  0
    7.1568  -17.5035   23.3020 N   0  0  0  0  0  0  0  0  0  0  0  0
    8.2878  -15.5292   24.1117 C   0  0  0  0  0  0  0  0  0  0  0  0
    7.9680  -14.2997   24.0551 O   0  0  0  0  0  0  0  0  0  0  0  0
    9.4843  -12.1546   17.6837 C   0  0  0  0  0  0  0  0  0  0  0  0
    5.9920  -12.8787   26.6173 C   0  0  1  0  0  0  0  0  0  0  0  0
    7.4387  -13.2008   26.1228 C   0  0  0  0  0  0  0  0  0  0  0  0
    8.2335  -11.9703   26.5845 C   0  0  0  0  0  0  0  0  0  0  0  0
    7.8699  -14.4566   26.7795 C   0  0  2  0  0  0  0  0  0  0  0  0
    9.1496  -15.0827   26.4402 N   0  0  0  0  0  0  0  0  0  0  0  0
    8.8705  -15.9990   25.3061 C   0  0  0  0  0  0  0  0  0  0  0  0
    9.9269  -15.7987   27.4242 O   0  0  0  0  0  0  0  0  0  0  0  0
   10.1702  -17.0315   27.4800 O   0  0  0  0  0  0  0  0  0  0  0  0
  2  1  1  1
  2  3  1  0
  4  2  1  0
  5  4  1  0
  5  6  1  6
  7  5  1  0
  7  8  2  0
  9 10  1  0
 10 11  2  0
 10 12  1  0
 12 13  1  0
 13 14  1  0
 14 15  1  0
 16 15  1  6
 17 16  1  0
 17  7  1  0
 18 16  1  0
 19 18  2  0
 21 20  1  6
 21 22  1  0
 21 23  1  0
 24 23  1  6
 24 25  1  0
 24 26  1  0
 25 18  1  0
 26 28  1  0
 27 26  2  0
M  END
$$$$
