LRL.pdb
     RDKit          3D

 28 27  0  0  1  0  0  0  0  0999 V2000
    6.3856  -12.7097   18.4641 C   0  0  0  0  0  0  0  0  0  0  0  0
    7.7358  -13.2892   18.8099 C   0  0  1  0  0  0  0  0  0  0  0  0
    8.7211  -12.1408   18.8325 C   0  0  0  0  0  0  0  0  0  0  0  0
    7.6436  -13.9612   20.1651 C   0  0  0  0  0  0  0  0  0  0  0  0
    9.0041  -14.3239   20.7000 C   0  0  2  0  0  0  0  0  0  0  0  0
    9.7751  -15.0490   19.7047 N   0  0  0  0  0  0  0  0  0  0  0  0
    8.8094  -15.1532   21.9198 C   0  0  0  0  0  0  0  0  0  0  0  0
    7.8357  -14.9372   22.6703 O   0  0  0  0  0  0  0  0  0  0  0  0
   12.1852  -20.7580   19.2843 N   0  0  0  0  0  0  0  0  0  0  0  0
   10.8771  -21.2635   19.4688 C   0  0  0  0  0  0  0  0  0  0  0  0
   10.3074  -21.8873   18.5017 N   0  0  0  0  0  0  0  0  0  0  0  0
   10.1659  -21.1048   20.6936 N   0  0  0  0  0  0  0  0  0  0  0  0
   10.6860  -20.3594   21.8064 C   0  0  0  0  0  0  0  0  0  0  0  0
    9.8182  -19.1376   22.0108 C   0  0  0  0  0  0  0  0  0  0  0  0
   10.2760  -18.2744   23.1280 C   0  0  0  0  0  0  0  0  0  0  0  0
    9.4400  -17.0463   23.3905 C   0  0  2  0  0  0  0  0  0  0  0  0
    9.7228  -16.1728   22.2171 N   0  0  0  0  0  0  0  0  0  0  0  0
    9.8683  -16.3428   24.6218 C   0  0  0  0  0  0  0  0  0  0  0  0
   10.4016  -15.1983   24.4711 O   0  0  0  0  0  0  0  0  0  0  0  0
    9.3534  -22.3065   18.6020 C   0  0  0  0  0  0  0  0  0  0  0  0
    6.6653  -13.3269   26.4700 C   0  0  2  0  0  0  0  0  0  0  0  0
    8.1618  -13.7752   26.4970 C   0  0  0  0  0  0  0  0  0  0  0  0
    8.7351  -12.9628   27.6675 C   0  0  0  0  0  0  0  0  0  0  0  0
    8.1895  -15.2378   26.7302 C   0  0  2  0  0  0  0  0  0  0  0  0
    9.4384  -15.9222   27.0717 N   0  0  0  0  0  0  0  0  0  0  0  0
    9.7316  -16.8325   25.9364 C   0  0  0  0  0  0  0  0  0  0  0  0
    9.5830  -16.6654   28.3013 O   0  0  0  0  0  0  0  0  0  0  0  0
    9.2284  -17.8474   28.5448 O   0  0  0  0  0  0  0  0  0  0  0  0
  2  1  1  1
  2  3  1  0
  4  2  1  0
  5  4  1  0
  5  6  1  6
  7  5  1  0
  7  8  2  0
  9 10  1  0
 10 11  2  0
 10 12  1  0
 12 13  1  0
 13 14  1  0
 14 15  1  0
 16 15  1  6
 17 16  1  0
 17  7  1  0
 18 16  1  0
 19 18  2  0
 21 20  1  6
 21 22  1  0
 21 23  1  0
 24 23  1  6
 24 25  1  0
 24 26  1  0
 25 18  1  0
 26 28  1  0
 27 26  2  0
M  END
$$$$
