LRL.pdb
     RDKit          3D

 28 27  0  0  1  0  0  0  0  0999 V2000
    3.4874  -19.7766   19.6953 C   0  0  0  0  0  0  0  0  0  0  0  0
    3.7497  -19.1162   21.0271 C   0  0  1  0  0  0  0  0  0  0  0  0
    2.6176  -19.5107   21.9506 C   0  0  0  0  0  0  0  0  0  0  0  0
    5.0847  -19.6013   21.5554 C   0  0  0  0  0  0  0  0  0  0  0  0
    5.5335  -18.8022   22.7507 C   0  0  2  0  0  0  0  0  0  0  0  0
    4.4947  -17.8801   23.1766 N   0  0  0  0  0  0  0  0  0  0  0  0
    6.7673  -18.0634   22.3693 C   0  0  0  0  0  0  0  0  0  0  0  0
    7.7972  -18.6934   22.0528 O   0  0  0  0  0  0  0  0  0  0  0  0
    9.7489  -13.3397   17.3307 N   0  0  0  0  0  0  0  0  0  0  0  0
    8.3742  -13.6230   17.5057 C   0  0  0  0  0  0  0  0  0  0  0  0
    7.6937  -14.0528   16.5052 N   0  0  0  0  0  0  0  0  0  0  0  0
    7.7147  -13.4481   18.7570 N   0  0  0  0  0  0  0  0  0  0  0  0
    8.3358  -12.8072   19.8830 C   0  0  0  0  0  0  0  0  0  0  0  0
    8.7599  -13.8749   20.8668 C   0  0  0  0  0  0  0  0  0  0  0  0
    7.6680  -14.8184   21.2138 C   0  0  0  0  0  0  0  0  0  0  0  0
    8.0534  -15.9585   22.1235 C   0  0  2  0  0  0  0  0  0  0  0  0
    6.7632  -16.6625   22.3683 N   0  0  0  0  0  0  0  0  0  0  0  0
    8.5839  -15.4731   23.4186 C   0  0  0  0  0  0  0  0  0  0  0  0
    9.7824  -15.0481   23.4231 O   0  0  0  0  0  0  0  0  0  0  0  0
    6.7073  -14.3865   16.6119 C   0  0  0  0  0  0  0  0  0  0  0  0
    6.1588  -12.1854   26.8037 C   0  0  1  0  0  0  0  0  0  0  0  0
    7.2202  -12.8819   25.8929 C   0  0  0  0  0  0  0  0  0  0  0  0
    8.3273  -11.8218   25.7957 C   0  0  0  0  0  0  0  0  0  0  0  0
    7.6554  -14.1221   26.5760 C   0  0  2  0  0  0  0  0  0  0  0  0
    8.5439  -15.0767   25.9096 N   0  0  0  0  0  0  0  0  0  0  0  0
    7.8740  -15.4409   24.6359 C   0  0  0  0  0  0  0  0  0  0  0  0
    8.9762  -16.2908   26.5608 O   0  0  0  0  0  0  0  0  0  0  0  0
    8.6712  -17.4782   26.2796 O   0  0  0  0  0  0  0  0  0  0  0  0
  2  1  1  6
  2  3  1  0
  4  2  1  0
  5  4  1  0
  5  6  1  6
  7  5  1  0
  7  8  2  0
  9 10  1  0
 10 11  2  0
 10 12  1  0
 12 13  1  0
 13 14  1  0
 14 15  1  0
 16 15  1  6
 17 16  1  0
 17  7  1  0
 18 16  1  0
 19 18  2  0
 21 20  1  6
 21 22  1  0
 21 23  1  0
 24 23  1  6
 24 25  1  0
 24 26  1  0
 25 18  1  0
 26 28  1  0
 27 26  2  0
M  END
$$$$
