LRL.pdb
     RDKit          3D

 28 27  0  0  1  0  0  0  0  0999 V2000
    6.5269  -11.9554   25.8525 C   0  0  0  0  0  0  0  0  0  0  0  0
    6.5962  -12.7245   24.5555 C   0  0  1  0  0  0  0  0  0  0  0  0
    7.3325  -11.8542   23.5602 C   0  0  0  0  0  0  0  0  0  0  0  0
    7.3347  -14.0249   24.8006 C   0  0  0  0  0  0  0  0  0  0  0  0
    7.4977  -14.8198   23.5317 C   0  0  2  0  0  0  0  0  0  0  0  0
    6.2044  -15.1537   22.9603 N   0  0  0  0  0  0  0  0  0  0  0  0
    8.2609  -16.0540   23.8604 C   0  0  0  0  0  0  0  0  0  0  0  0
    7.6967  -16.9942   24.4568 O   0  0  0  0  0  0  0  0  0  0  0  0
   13.2897  -18.5570   17.9263 N   0  0  0  0  0  0  0  0  0  0  0  0
   11.9065  -18.8173   18.0658 C   0  0  0  0  0  0  0  0  0  0  0  0
   11.2542  -19.2786   17.0604 N   0  0  0  0  0  0  0  0  0  0  0  0
   11.2079  -18.5852   19.2861 N   0  0  0  0  0  0  0  0  0  0  0  0
   11.8636  -18.1567   20.4907 C   0  0  0  0  0  0  0  0  0  0  0  0
   10.8262  -18.0446   21.5857 C   0  0  0  0  0  0  0  0  0  0  0  0
   11.3856  -17.5707   22.8761 C   0  0  0  0  0  0  0  0  0  0  0  0
   10.3813  -17.3327   23.9764 C   0  0  2  0  0  0  0  0  0  0  0  0
    9.6102  -16.1513   23.4970 N   0  0  0  0  0  0  0  0  0  0  0  0
   11.0405  -16.9834   25.2562 C   0  0  0  0  0  0  0  0  0  0  0  0
   12.1364  -16.3429   25.1794 O   0  0  0  0  0  0  0  0  0  0  0  0
   10.2241  -19.4586   17.1071 C   0  0  0  0  0  0  0  0  0  0  0  0
    9.5186  -14.2823   29.2185 C   0  0  1  0  0  0  0  0  0  0  0  0
   10.3170  -14.9813   28.0716 C   0  0  0  0  0  0  0  0  0  0  0  0
   11.3834  -13.9341   27.7178 C   0  0  0  0  0  0  0  0  0  0  0  0
   10.8860  -16.2348   28.6183 C   0  0  2  0  0  0  0  0  0  0  0  0
   11.4422  -17.2589   27.7313 N   0  0  0  0  0  0  0  0  0  0  0  0
   10.5552  -17.2975   26.5417 C   0  0  0  0  0  0  0  0  0  0  0  0
   11.6605  -18.6134   28.1815 O   0  0  0  0  0  0  0  0  0  0  0  0
   11.0533  -19.6586   27.8337 O   0  0  0  0  0  0  0  0  0  0  0  0
  2  1  1  1
  2  3  1  0
  4  2  1  0
  5  4  1  0
  5  6  1  1
  7  5  1  0
  7  8  2  0
  9 10  1  0
 10 11  2  0
 10 12  1  0
 12 13  1  0
 13 14  1  0
 14 15  1  0
 16 15  1  6
 17 16  1  0
 17  7  1  0
 18 16  1  0
 19 18  2  0
 21 20  1  6
 21 22  1  0
 21 23  1  0
 24 23  1  6
 24 25  1  0
 24 26  1  0
 25 18  1  0
 26 28  1  0
 27 26  2  0
M  END
$$$$
