LRL.pdb
     RDKit          3D

 28 27  0  0  1  0  0  0  0  0999 V2000
    7.1023  -12.2669   18.0699 C   0  0  0  0  0  0  0  0  0  0  0  0
    8.1799  -13.1607   18.6341 C   0  0  1  0  0  0  0  0  0  0  0  0
    9.2720  -12.2594   19.1681 C   0  0  0  0  0  0  0  0  0  0  0  0
    7.5794  -14.0094   19.7367 C   0  0  0  0  0  0  0  0  0  0  0  0
    8.6419  -14.7228   20.5309 C   0  0  2  0  0  0  0  0  0  0  0  0
    9.3269  -15.7077   19.7115 N   0  0  0  0  0  0  0  0  0  0  0  0
    7.9824  -15.3749   21.6942 C   0  0  0  0  0  0  0  0  0  0  0  0
    7.1923  -14.7230   22.4075 O   0  0  0  0  0  0  0  0  0  0  0  0
    3.9079  -22.3112   24.1957 N   0  0  0  0  0  0  0  0  0  0  0  0
    5.0388  -22.3618   25.0437 C   0  0  0  0  0  0  0  0  0  0  0  0
    5.1614  -23.3440   25.8617 N   0  0  0  0  0  0  0  0  0  0  0  0
    6.0507  -21.3584   25.0230 N   0  0  0  0  0  0  0  0  0  0  0  0
    6.3578  -20.5846   23.8520 C   0  0  0  0  0  0  0  0  0  0  0  0
    7.4973  -19.6470   24.1839 C   0  0  0  0  0  0  0  0  0  0  0  0
    7.9068  -18.7950   23.0397 C   0  0  0  0  0  0  0  0  0  0  0  0
    7.6138  -17.3221   23.1832 C   0  0  2  0  0  0  0  0  0  0  0  0
    8.2540  -16.7189   21.9806 N   0  0  0  0  0  0  0  0  0  0  0  0
    8.2458  -16.7516   24.3955 C   0  0  0  0  0  0  0  0  0  0  0  0
    9.4939  -16.5159   24.3334 O   0  0  0  0  0  0  0  0  0  0  0  0
    5.9383  -23.3845   26.5621 C   0  0  0  0  0  0  0  0  0  0  0  0
    5.9411  -12.9482   27.3458 C   0  0  2  0  0  0  0  0  0  0  0  0
    7.1083  -13.6622   26.5914 C   0  0  0  0  0  0  0  0  0  0  0  0
    8.2158  -12.5981   26.6017 C   0  0  0  0  0  0  0  0  0  0  0  0
    7.4601  -14.8809   27.3564 C   0  0  2  0  0  0  0  0  0  0  0  0
    8.3194  -15.9137   26.7737 N   0  0  0  0  0  0  0  0  0  0  0  0
    7.5822  -16.4481   25.6014 C   0  0  0  0  0  0  0  0  0  0  0  0
    8.8014  -17.0278   27.5559 O   0  0  0  0  0  0  0  0  0  0  0  0
    8.4283  -18.2283   27.5162 O   0  0  0  0  0  0  0  0  0  0  0  0
  2  1  1  1
  2  3  1  0
  4  2  1  0
  5  4  1  0
  5  6  1  6
  7  5  1  0
  7  8  2  0
  9 10  1  0
 10 11  2  0
 10 12  1  0
 12 13  1  0
 13 14  1  0
 14 15  1  0
 16 15  1  6
 17 16  1  0
 17  7  1  0
 18 16  1  0
 19 18  2  0
 21 20  1  6
 21 22  1  0
 21 23  1  0
 24 23  1  6
 24 25  1  0
 24 26  1  0
 25 18  1  0
 26 28  1  0
 27 26  2  0
M  END
$$$$
