LRL.pdb
     RDKit          3D

 28 27  0  0  1  0  0  0  0  0999 V2000
    6.6057  -12.6356   18.0213 C   0  0  0  0  0  0  0  0  0  0  0  0
    7.8304  -13.3248   18.5723 C   0  0  1  0  0  0  0  0  0  0  0  0
    8.8807  -12.2579   18.7929 C   0  0  0  0  0  0  0  0  0  0  0  0
    7.4594  -14.0083   19.8730 C   0  0  0  0  0  0  0  0  0  0  0  0
    8.6776  -14.4962   20.6122 C   0  0  2  0  0  0  0  0  0  0  0  0
    9.4838  -15.3608   19.7676 N   0  0  0  0  0  0  0  0  0  0  0  0
    8.2153  -15.2274   21.8227 C   0  0  0  0  0  0  0  0  0  0  0  0
    7.2818  -14.7651   22.5103 O   0  0  0  0  0  0  0  0  0  0  0  0
    9.5310  -20.3081   19.2803 N   0  0  0  0  0  0  0  0  0  0  0  0
   10.5559  -20.4117   20.2495 C   0  0  0  0  0  0  0  0  0  0  0  0
   11.7812  -20.3471   19.8708 N   0  0  0  0  0  0  0  0  0  0  0  0
   10.2768  -20.5858   21.6362 N   0  0  0  0  0  0  0  0  0  0  0  0
    8.9427  -20.7209   22.1523 C   0  0  0  0  0  0  0  0  0  0  0  0
    8.3261  -19.3432   22.2496 C   0  0  0  0  0  0  0  0  0  0  0  0
    8.9394  -18.5004   23.3062 C   0  0  0  0  0  0  0  0  0  0  0  0
    8.3833  -17.1038   23.4337 C   0  0  2  0  0  0  0  0  0  0  0  0
    8.8329  -16.4323   22.1820 N   0  0  0  0  0  0  0  0  0  0  0  0
    8.9616  -16.3857   24.5932 C   0  0  0  0  0  0  0  0  0  0  0  0
    9.3823  -15.2043   24.3830 O   0  0  0  0  0  0  0  0  0  0  0  0
   12.5728  -20.3973   20.5540 C   0  0  0  0  0  0  0  0  0  0  0  0
    6.6725  -13.1430   26.4759 C   0  0  1  0  0  0  0  0  0  0  0  0
    8.0874  -13.7971   26.3693 C   0  0  0  0  0  0  0  0  0  0  0  0
    8.9792  -12.7921   27.1133 C   0  0  0  0  0  0  0  0  0  0  0  0
    8.0219  -15.1219   27.0287 C   0  0  2  0  0  0  0  0  0  0  0  0
    9.1940  -15.9986   27.0751 N   0  0  0  0  0  0  0  0  0  0  0  0
    9.0800  -16.8992   25.9005 C   0  0  0  0  0  0  0  0  0  0  0  0
    9.4940  -16.8011   28.2375 O   0  0  0  0  0  0  0  0  0  0  0  0
    9.2859  -18.0291   28.4127 O   0  0  0  0  0  0  0  0  0  0  0  0
  2  1  1  1
  2  3  1  0
  4  2  1  0
  5  4  1  0
  5  6  1  6
  7  5  1  0
  7  8  2  0
  9 10  1  0
 10 11  2  0
 10 12  1  0
 12 13  1  0
 13 14  1  0
 14 15  1  0
 16 15  1  6
 17 16  1  0
 17  7  1  0
 18 16  1  0
 19 18  2  0
 21 20  1  6
 21 22  1  0
 21 23  1  0
 24 23  1  6
 24 25  1  0
 24 26  1  0
 25 18  1  0
 26 28  1  0
 27 26  2  0
M  END
$$$$
