LRL.pdb
     RDKit          3D

 28 27  0  0  1  0  0  0  0  0999 V2000
    6.6903  -12.7805   18.9373 C   0  0  0  0  0  0  0  0  0  0  0  0
    8.0916  -13.1483   19.3611 C   0  0  1  0  0  0  0  0  0  0  0  0
    8.7337  -11.8942   19.9131 C   0  0  0  0  0  0  0  0  0  0  0  0
    8.0112  -14.2345   20.4149 C   0  0  0  0  0  0  0  0  0  0  0  0
    9.3245  -14.4137   21.1303 C   0  0  2  0  0  0  0  0  0  0  0  0
   10.4142  -14.5661   20.1816 N   0  0  0  0  0  0  0  0  0  0  0  0
    9.2116  -15.6169   21.9981 C   0  0  0  0  0  0  0  0  0  0  0  0
    8.1664  -15.8182   22.6499 O   0  0  0  0  0  0  0  0  0  0  0  0
    9.6724  -22.5748   21.7377 N   0  0  0  0  0  0  0  0  0  0  0  0
   10.6459  -23.0437   22.6503 C   0  0  0  0  0  0  0  0  0  0  0  0
   10.4564  -24.1679   23.2414 N   0  0  0  0  0  0  0  0  0  0  0  0
   11.8338  -22.3110   22.9386 N   0  0  0  0  0  0  0  0  0  0  0  0
   12.0925  -21.0029   22.4036 C   0  0  0  0  0  0  0  0  0  0  0  0
   11.1545  -20.0203   23.0687 C   0  0  0  0  0  0  0  0  0  0  0  0
   11.0607  -18.7237   22.3526 C   0  0  0  0  0  0  0  0  0  0  0  0
   10.1368  -17.7021   22.9680 C   0  0  2  0  0  0  0  0  0  0  0  0
   10.2823  -16.5168   22.0770 N   0  0  0  0  0  0  0  0  0  0  0  0
   10.5661  -17.3256   24.3349 C   0  0  0  0  0  0  0  0  0  0  0  0
   11.0111  -18.2606   25.0730 O   0  0  0  0  0  0  0  0  0  0  0  0
   11.1584  -24.5652   23.9085 C   0  0  0  0  0  0  0  0  0  0  0  0
   10.5638  -13.6170   28.6550 C   0  0  2  0  0  0  0  0  0  0  0  0
    9.3172  -14.2846   27.9904 C   0  0  0  0  0  0  0  0  0  0  0  0
    8.2639  -13.1686   28.0547 C   0  0  0  0  0  0  0  0  0  0  0  0
    9.6907  -14.6583   26.6066 C   0  0  1  0  0  0  0  0  0  0  0  0
   10.5663  -15.8029   26.3461 N   0  0  0  0  0  0  0  0  0  0  0  0
   10.5250  -16.0260   24.8791 C   0  0  0  0  0  0  0  0  0  0  0  0
   10.3702  -17.0722   27.0061 O   0  0  0  0  0  0  0  0  0  0  0  0
    9.4055  -17.8708   26.8904 O   0  0  0  0  0  0  0  0  0  0  0  0
  2  1  1  1
  2  3  1  0
  4  2  1  0
  5  4  1  0
  5  6  1  6
  7  5  1  0
  7  8  2  0
  9 10  1  0
 10 11  2  0
 10 12  1  0
 12 13  1  0
 13 14  1  0
 14 15  1  0
 16 15  1  6
 17 16  1  0
 17  7  1  0
 18 16  1  0
 19 18  2  0
 21 20  1  1
 21 22  1  0
 21 23  1  0
 24 23  1  6
 24 25  1  0
 24 26  1  0
 25 18  1  0
 26 28  1  0
 27 26  2  0
M  END
$$$$
