LRL.pdb
     RDKit          3D

 28 27  0  0  1  0  0  0  0  0999 V2000
    6.3132  -23.1708   22.6301 C   0  0  0  0  0  0  0  0  0  0  0  0
    6.2115  -22.0286   23.6117 C   0  0  1  0  0  0  0  0  0  0  0  0
    6.2961  -22.6252   24.9998 C   0  0  0  0  0  0  0  0  0  0  0  0
    7.3534  -21.0655   23.3566 C   0  0  0  0  0  0  0  0  0  0  0  0
    7.3466  -19.9223   24.3371 C   0  0  2  0  0  0  0  0  0  0  0  0
    5.9893  -19.4793   24.6063 N   0  0  0  0  0  0  0  0  0  0  0  0
    8.1541  -18.8164   23.7553 C   0  0  0  0  0  0  0  0  0  0  0  0
    9.3601  -18.9990   23.4907 O   0  0  0  0  0  0  0  0  0  0  0  0
    8.5259  -11.8575   18.4953 N   0  0  0  0  0  0  0  0  0  0  0  0
    8.5861  -13.2705   18.5128 C   0  0  0  0  0  0  0  0  0  0  0  0
    9.6206  -13.8567   18.0278 N   0  0  0  0  0  0  0  0  0  0  0  0
    7.5363  -14.0701   19.0510 N   0  0  0  0  0  0  0  0  0  0  0  0
    7.0349  -13.9024   20.3870 C   0  0  0  0  0  0  0  0  0  0  0  0
    8.0051  -14.5540   21.3471 C   0  0  0  0  0  0  0  0  0  0  0  0
    7.4621  -15.7776   21.9880 C   0  0  0  0  0  0  0  0  0  0  0  0
    8.3967  -16.4902   22.9338 C   0  0  2  0  0  0  0  0  0  0  0  0
    7.5528  -17.5755   23.5084 N   0  0  0  0  0  0  0  0  0  0  0  0
    8.8467  -15.6048   24.0329 C   0  0  0  0  0  0  0  0  0  0  0  0
    9.7128  -14.7216   23.7382 O   0  0  0  0  0  0  0  0  0  0  0  0
    9.6631  -14.8966   17.9155 C   0  0  0  0  0  0  0  0  0  0  0  0
    6.3016  -12.0813   26.5376 C   0  0  1  0  0  0  0  0  0  0  0  0
    7.4744  -12.8503   25.8488 C   0  0  0  0  0  0  0  0  0  0  0  0
    8.4766  -11.7282   25.5398 C   0  0  0  0  0  0  0  0  0  0  0  0
    7.9900  -13.8458   26.8168 C   0  0  2  0  0  0  0  0  0  0  0  0
    9.0120  -14.8186   26.4241 N   0  0  0  0  0  0  0  0  0  0  0  0
    8.3950  -15.6583   25.3670 C   0  0  0  0  0  0  0  0  0  0  0  0
    9.6395  -15.6895   27.3900 O   0  0  0  0  0  0  0  0  0  0  0  0
   10.2804  -15.3735   28.4251 O   0  0  0  0  0  0  0  0  0  0  0  0
  2  1  1  6
  2  3  1  0
  4  2  1  0
  5  4  1  0
  5  6  1  6
  7  5  1  0
  7  8  2  0
  9 10  1  0
 10 11  2  0
 10 12  1  0
 12 13  1  0
 13 14  1  0
 14 15  1  0
 16 15  1  6
 17 16  1  0
 17  7  1  0
 18 16  1  0
 19 18  2  0
 21 20  1  6
 21 22  1  0
 21 23  1  0
 24 23  1  6
 24 25  1  0
 24 26  1  0
 25 18  1  0
 26 28  1  0
 27 26  2  0
M  END
$$$$
