LRL.pdb
     RDKit          3D

 28 27  0  0  1  0  0  0  0  0999 V2000
    6.2763  -13.1763   17.7136 C   0  0  0  0  0  0  0  0  0  0  0  0
    7.6348  -13.6318   18.1886 C   0  0  1  0  0  0  0  0  0  0  0  0
    8.5476  -12.4254   18.1508 C   0  0  0  0  0  0  0  0  0  0  0  0
    7.5000  -14.1754   19.5968 C   0  0  0  0  0  0  0  0  0  0  0  0
    8.8380  -14.2919   20.2786 C   0  0  2  0  0  0  0  0  0  0  0  0
    9.8095  -14.9294   19.4065 N   0  0  0  0  0  0  0  0  0  0  0  0
    8.6493  -15.0852   21.5230 C   0  0  0  0  0  0  0  0  0  0  0  0
    7.6319  -14.9098   22.2245 O   0  0  0  0  0  0  0  0  0  0  0  0
   11.1638  -23.1525   24.0192 N   0  0  0  0  0  0  0  0  0  0  0  0
   11.0410  -22.3696   25.1907 C   0  0  0  0  0  0  0  0  0  0  0  0
   11.0004  -22.9569   26.3319 N   0  0  0  0  0  0  0  0  0  0  0  0
   10.9606  -20.9473   25.1502 N   0  0  0  0  0  0  0  0  0  0  0  0
   10.7584  -20.2120   23.9325 C   0  0  0  0  0  0  0  0  0  0  0  0
   10.5455  -18.7561   24.2829 C   0  0  0  0  0  0  0  0  0  0  0  0
   10.4603  -17.8736   23.0926 C   0  0  0  0  0  0  0  0  0  0  0  0
    9.3748  -16.8266   23.1310 C   0  0  2  0  0  0  0  0  0  0  0  0
    9.6176  -16.0253   21.8986 N   0  0  0  0  0  0  0  0  0  0  0  0
    9.5086  -15.9393   24.3097 C   0  0  0  0  0  0  0  0  0  0  0  0
   10.5027  -15.1463   24.3193 O   0  0  0  0  0  0  0  0  0  0  0  0
   10.9330  -22.4184   27.2271 C   0  0  0  0  0  0  0  0  0  0  0  0
    7.0674  -12.1304   25.4411 C   0  0  2  0  0  0  0  0  0  0  0  0
    7.5305  -12.7375   26.8043 C   0  0  0  0  0  0  0  0  0  0  0  0
    6.4482  -12.2450   27.7765 C   0  0  0  0  0  0  0  0  0  0  0  0
    7.5571  -14.2109   26.6552 C   0  0  2  0  0  0  0  0  0  0  0  0
    8.8250  -14.9311   26.5187 N   0  0  0  0  0  0  0  0  0  0  0  0
    8.6299  -15.8999   25.4111 C   0  0  0  0  0  0  0  0  0  0  0  0
    9.4244  -15.6271   27.6329 O   0  0  0  0  0  0  0  0  0  0  0  0
    9.3990  -16.8583   27.8887 O   0  0  0  0  0  0  0  0  0  0  0  0
  2  1  1  1
  2  3  1  0
  4  2  1  0
  5  4  1  0
  5  6  1  6
  7  5  1  0
  7  8  2  0
  9 10  1  0
 10 11  2  0
 10 12  1  0
 12 13  1  0
 13 14  1  0
 14 15  1  0
 16 15  1  1
 17 16  1  0
 17  7  1  0
 18 16  1  0
 19 18  2  0
 21 20  1  1
 21 22  1  0
 21 23  1  0
 24 23  1  6
 24 25  1  0
 24 26  1  0
 25 18  1  0
 26 28  1  0
 27 26  2  0
M  END
$$$$
