LRL.pdb
     RDKit          3D

 28 27  0  0  1  0  0  0  0  0999 V2000
    6.1828  -13.0476   17.9430 C   0  0  0  0  0  0  0  0  0  0  0  0
    7.5632  -13.4999   18.3535 C   0  0  1  0  0  0  0  0  0  0  0  0
    8.4989  -12.3311   18.1331 C   0  0  0  0  0  0  0  0  0  0  0  0
    7.5271  -13.9076   19.8126 C   0  0  0  0  0  0  0  0  0  0  0  0
    8.9101  -14.1538   20.3559 C   0  0  2  0  0  0  0  0  0  0  0  0
    9.7450  -14.8135   19.3666 N   0  0  0  0  0  0  0  0  0  0  0  0
    8.7787  -14.9943   21.5765 C   0  0  0  0  0  0  0  0  0  0  0  0
    7.7974  -14.8438   22.3330 O   0  0  0  0  0  0  0  0  0  0  0  0
   11.8098  -22.0848   24.0298 N   0  0  0  0  0  0  0  0  0  0  0  0
   10.9331  -21.8683   25.1183 C   0  0  0  0  0  0  0  0  0  0  0  0
   10.9750  -22.6686   26.1217 N   0  0  0  0  0  0  0  0  0  0  0  0
   10.0013  -20.7902   25.1419 N   0  0  0  0  0  0  0  0  0  0  0  0
    9.7756  -19.9298   24.0136 C   0  0  0  0  0  0  0  0  0  0  0  0
   10.7822  -18.8019   24.0634 C   0  0  0  0  0  0  0  0  0  0  0  0
   10.6567  -17.8543   22.9281 C   0  0  0  0  0  0  0  0  0  0  0  0
    9.5394  -16.8466   23.0377 C   0  0  2  0  0  0  0  0  0  0  0  0
    9.7601  -15.9505   21.8679 N   0  0  0  0  0  0  0  0  0  0  0  0
    9.6432  -16.0438   24.2784 C   0  0  0  0  0  0  0  0  0  0  0  0
   10.6696  -15.3023   24.3962 O   0  0  0  0  0  0  0  0  0  0  0  0
   10.3409  -22.5526   26.9464 C   0  0  0  0  0  0  0  0  0  0  0  0
    5.8248  -12.8192   26.0022 C   0  0  2  0  0  0  0  0  0  0  0  0
    7.2905  -13.2728   25.7070 C   0  0  0  0  0  0  0  0  0  0  0  0
    8.1015  -12.0021   26.0016 C   0  0  0  0  0  0  0  0  0  0  0  0
    7.6074  -14.3947   26.6208 C   0  0  2  0  0  0  0  0  0  0  0  0
    8.8666  -15.1326   26.4988 N   0  0  0  0  0  0  0  0  0  0  0  0
    8.7038  -16.0320   25.3291 C   0  0  0  0  0  0  0  0  0  0  0  0
    9.4019  -15.9038   27.5960 O   0  0  0  0  0  0  0  0  0  0  0  0
    9.9509  -15.4869   28.6480 O   0  0  0  0  0  0  0  0  0  0  0  0
  2  1  1  1
  2  3  1  0
  4  2  1  0
  5  4  1  0
  5  6  1  6
  7  5  1  0
  7  8  2  0
  9 10  1  0
 10 11  2  0
 10 12  1  0
 12 13  1  0
 13 14  1  0
 14 15  1  0
 16 15  1  1
 17 16  1  0
 17  7  1  0
 18 16  1  0
 19 18  2  0
 21 20  1  6
 21 22  1  0
 21 23  1  0
 24 23  1  6
 24 25  1  0
 24 26  1  0
 25 18  1  0
 26 28  1  0
 27 26  2  0
M  END
$$$$
