LRL.pdb
     RDKit          3D

 28 27  0  0  1  0  0  0  0  0999 V2000
    7.6496  -11.8643   18.8639 C   0  0  0  0  0  0  0  0  0  0  0  0
    8.3167  -13.2111   18.7238 C   0  0  1  0  0  0  0  0  0  0  0  0
    9.8082  -12.9646   18.6548 C   0  0  0  0  0  0  0  0  0  0  0  0
    7.9548  -14.0599   19.9260 C   0  0  0  0  0  0  0  0  0  0  0  0
    8.6307  -15.4052   19.8809 C   0  0  2  0  0  0  0  0  0  0  0  0
    8.1225  -16.2031   18.7783 N   0  0  0  0  0  0  0  0  0  0  0  0
    8.3812  -16.0858   21.1802 C   0  0  0  0  0  0  0  0  0  0  0  0
    7.2127  -16.3522   21.5288 O   0  0  0  0  0  0  0  0  0  0  0  0
   10.4367  -19.1392   19.5305 N   0  0  0  0  0  0  0  0  0  0  0  0
   10.6228  -20.5282   19.7213 C   0  0  0  0  0  0  0  0  0  0  0  0
   10.4225  -21.3257   18.7350 N   0  0  0  0  0  0  0  0  0  0  0  0
   11.0262  -21.0767   20.9734 N   0  0  0  0  0  0  0  0  0  0  0  0
   11.1425  -20.2885   22.1690 C   0  0  0  0  0  0  0  0  0  0  0  0
   10.1465  -19.1528   22.0916 C   0  0  0  0  0  0  0  0  0  0  0  0
   10.1709  -18.2701   23.2845 C   0  0  0  0  0  0  0  0  0  0  0  0
    9.1751  -17.1369   23.2801 C   0  0  2  0  0  0  0  0  0  0  0  0
    9.4626  -16.4231   22.0042 N   0  0  0  0  0  0  0  0  0  0  0  0
    9.3994  -16.2037   24.4085 C   0  0  0  0  0  0  0  0  0  0  0  0
   10.5187  -15.6010   24.4390 O   0  0  0  0  0  0  0  0  0  0  0  0
   10.4706  -22.3652   18.8479 C   0  0  0  0  0  0  0  0  0  0  0  0
    6.0797  -12.4660   26.2177 C   0  0  1  0  0  0  0  0  0  0  0  0
    7.3913  -13.1823   25.7617 C   0  0  0  0  0  0  0  0  0  0  0  0
    8.3836  -12.0170   25.6334 C   0  0  0  0  0  0  0  0  0  0  0  0
    7.7630  -14.1547   26.8155 C   0  0  2  0  0  0  0  0  0  0  0  0
    8.8620  -15.1012   26.6128 N   0  0  0  0  0  0  0  0  0  0  0  0
    8.4803  -15.9288   25.4411 C   0  0  0  0  0  0  0  0  0  0  0  0
    9.3074  -15.9816   27.6672 O   0  0  0  0  0  0  0  0  0  0  0  0
    9.1190  -17.2199   27.7814 O   0  0  0  0  0  0  0  0  0  0  0  0
  2  1  1  1
  2  3  1  0
  4  2  1  0
  5  4  1  0
  5  6  1  6
  7  5  1  0
  7  8  2  0
  9 10  1  0
 10 11  2  0
 10 12  1  0
 12 13  1  0
 13 14  1  0
 14 15  1  0
 16 15  1  1
 17 16  1  0
 17  7  1  0
 18 16  1  0
 19 18  2  0
 21 20  1  6
 21 22  1  0
 21 23  1  0
 24 23  1  6
 24 25  1  0
 24 26  1  0
 25 18  1  0
 26 28  1  0
 27 26  2  0
M  END
$$$$
