FCM.pdb
     RDKit          3D

 26 26  0  0  1  0  0  0  0  0999 V2000
    6.3899  -18.3675   25.3708 N   0  0  0  0  0  0  0  0  0  0  0  0
    6.4728  -16.9443   25.0672 C   0  0  1  0  0  0  0  0  0  0  0  0
    6.6703  -16.1572   26.3449 C   0  0  0  0  0  0  0  0  0  0  0  0
    6.4228  -14.7207   26.2031 C   0  0  0  0  0  0  0  0  0  0  0  0
    5.1737  -14.1846   26.0033 C   0  0  0  0  0  0  0  0  0  0  0  0
    5.0326  -12.8391   25.8764 C   0  0  0  0  0  0  0  0  0  0  0  0
    6.1202  -12.0096   25.9460 C   0  0  0  0  0  0  0  0  0  0  0  0
    7.3778  -12.5301   26.1456 C   0  0  0  0  0  0  0  0  0  0  0  0
    7.5246  -13.8728   26.2726 C   0  0  0  0  0  0  0  0  0  0  0  0
    7.7151  -16.7500   24.2682 C   0  0  0  0  0  0  0  0  0  0  0  0
    8.7692  -17.4310   24.4780 O   0  0  0  0  0  0  0  0  0  0  0  0
    7.7163  -15.7528   23.2228 N   0  0  0  0  0  0  0  0  0  0  0  0
    8.8426  -15.6966   22.3096 C   0  0  1  0  0  0  0  0  0  0  0  0
    8.3975  -14.7742   21.1791 C   0  0  0  0  0  0  0  0  0  0  0  0
    7.4642  -13.4209   21.9809 S   0  0  0  0  0  0  0  0  0  0  0  0
    9.9929  -15.1150   23.0456 C   0  0  0  0  0  0  0  0  0  0  0  0
    9.9201  -13.9699   23.5315 O   0  0  0  0  0  0  0  0  0  0  0  0
   10.5034  -13.8477   28.1242 C   0  0  0  0  0  0  0  0  0  0  0  0
   12.0813  -14.4095   27.4340 S   0  0  0  0  0  0  0  0  0  0  0  0
   11.9660  -16.1278   26.8525 C   0  0  0  0  0  0  0  0  0  0  0  0
   11.2054  -16.1134   25.5678 C   0  0  0  0  0  0  0  0  0  0  0  0
   12.0542  -15.7861   24.3512 C   0  0  2  0  0  0  0  0  0  0  0  0
   11.1742  -15.8870   23.1827 N   0  0  0  0  0  0  0  0  0  0  0  0
   13.1331  -16.7737   24.1217 C   0  0  0  0  0  0  0  0  0  0  0  0
   12.8382  -17.8684   23.5855 O   0  0  0  0  0  0  0  0  0  0  0  0
   14.4604  -16.5640   24.4638 O   0  0  0  0  0  0  0  0  0  0  0  0
  2  1  1  1
  3  2  1  0
  3  4  1  0
  4  9  2  0
  5  6  2  0
  5  4  1  0
  6  7  1  0
  7  8  2  0
  9  8  1  0
 10  2  1  0
 10 11  2  0
 12 10  1  0
 13 16  1  0
 13 12  1  0
 13 14  1  6
 15 14  1  0
 16 23  1  0
 17 16  2  0
 18 19  1  0
 19 20  1  0
 20 21  1  0
 22 21  1  1
 22 24  1  0
 23 22  1  0
 24 25  2  0
 24 26  1  0
M  END
$$$$
