FCM.pdb
     RDKit          3D

 26 26  0  0  1  0  0  0  0  0999 V2000
    7.9637  -15.7483   20.2077 N   0  0  0  0  0  0  0  0  0  0  0  0
    8.2056  -15.1462   21.5129 C   0  0  1  0  0  0  0  0  0  0  0  0
    6.9003  -14.6579   22.1033 C   0  0  0  0  0  0  0  0  0  0  0  0
    7.0423  -14.0161   23.4120 C   0  0  0  0  0  0  0  0  0  0  0  0
    6.7466  -14.6433   24.5980 C   0  0  0  0  0  0  0  0  0  0  0  0
    6.9017  -13.9725   25.7696 C   0  0  0  0  0  0  0  0  0  0  0  0
    7.3502  -12.6785   25.7835 C   0  0  0  0  0  0  0  0  0  0  0  0
    7.6507  -12.0360   24.6049 C   0  0  0  0  0  0  0  0  0  0  0  0
    7.4974  -12.7007   23.4322 C   0  0  0  0  0  0  0  0  0  0  0  0
    8.6776  -16.2405   22.4069 C   0  0  0  0  0  0  0  0  0  0  0  0
    8.1552  -17.4006   22.3919 O   0  0  0  0  0  0  0  0  0  0  0  0
    9.7641  -15.9682   23.3192 N   0  0  0  0  0  0  0  0  0  0  0  0
   10.2693  -17.0465   24.1486 C   0  0  1  0  0  0  0  0  0  0  0  0
   11.2068  -17.8422   23.2460 C   0  0  0  0  0  0  0  0  0  0  0  0
   12.4488  -16.6437   22.6405 S   0  0  0  0  0  0  0  0  0  0  0  0
   11.0136  -16.4369   25.2789 C   0  0  0  0  0  0  0  0  0  0  0  0
   12.0610  -15.7937   25.0738 O   0  0  0  0  0  0  0  0  0  0  0  0
    7.9890  -14.1482   28.2044 C   0  0  0  0  0  0  0  0  0  0  0  0
    9.6556  -13.5780   27.7809 S   0  0  0  0  0  0  0  0  0  0  0  0
   10.9040  -14.3555   28.8490 C   0  0  0  0  0  0  0  0  0  0  0  0
   10.6319  -15.8235   28.8567 C   0  0  0  0  0  0  0  0  0  0  0  0
   11.3741  -16.5948   27.7788 C   0  0  2  0  0  0  0  0  0  0  0  0
   10.5102  -16.6023   26.5940 N   0  0  0  0  0  0  0  0  0  0  0  0
   11.5788  -18.0186   28.1295 C   0  0  0  0  0  0  0  0  0  0  0  0
   12.4080  -18.3005   29.0271 O   0  0  0  0  0  0  0  0  0  0  0  0
   10.9061  -19.0694   27.5247 O   0  0  0  0  0  0  0  0  0  0  0  0
  2  1  1  6
  3  2  1  0
  3  4  1  0
  4  9  2  0
  5  6  2  0
  5  4  1  0
  6  7  1  0
  7  8  2  0
  9  8  1  0
 10  2  1  0
 10 11  2  0
 12 10  1  0
 13 16  1  0
 13 12  1  0
 13 14  1  6
 15 14  1  0
 16 23  1  0
 17 16  2  0
 18 19  1  0
 19 20  1  0
 20 21  1  0
 22 21  1  1
 22 24  1  0
 23 22  1  0
 24 25  2  0
 24 26  1  0
M  END
$$$$
