FCM.pdb
     RDKit          3D

 26 26  0  0  1  0  0  0  0  0999 V2000
    6.4444  -18.4914   20.7908 N   0  0  0  0  0  0  0  0  0  0  0  0
    6.9933  -17.1581   21.0045 C   0  0  1  0  0  0  0  0  0  0  0  0
    6.2204  -16.1471   20.1851 C   0  0  0  0  0  0  0  0  0  0  0  0
    6.8344  -14.8181   20.1466 C   0  0  0  0  0  0  0  0  0  0  0  0
    6.5106  -13.8097   21.0217 C   0  0  0  0  0  0  0  0  0  0  0  0
    7.1252  -12.6027   20.9129 C   0  0  0  0  0  0  0  0  0  0  0  0
    8.0646  -12.3783   19.9419 C   0  0  0  0  0  0  0  0  0  0  0  0
    8.4003  -13.3771   19.0577 C   0  0  0  0  0  0  0  0  0  0  0  0
    7.7897  -14.5841   19.1615 C   0  0  0  0  0  0  0  0  0  0  0  0
    6.7363  -16.8143   22.4311 C   0  0  0  0  0  0  0  0  0  0  0  0
    5.5603  -16.7602   22.9138 O   0  0  0  0  0  0  0  0  0  0  0  0
    7.8642  -16.5331   23.2888 N   0  0  0  0  0  0  0  0  0  0  0  0
    7.9427  -15.2394   23.9414 C   0  0  1  0  0  0  0  0  0  0  0  0
    6.9038  -15.2886   25.0573 C   0  0  0  0  0  0  0  0  0  0  0  0
    6.9704  -13.6515   25.8702 S   0  0  0  0  0  0  0  0  0  0  0  0
    9.3111  -15.0960   24.4981 C   0  0  0  0  0  0  0  0  0  0  0  0
    9.8290  -13.9695   24.6232 O   0  0  0  0  0  0  0  0  0  0  0  0
   10.6049  -12.7908   27.9309 C   0  0  0  0  0  0  0  0  0  0  0  0
   10.2528  -14.1048   29.1272 S   0  0  0  0  0  0  0  0  0  0  0  0
   10.8096  -15.7202   28.5072 C   0  0  0  0  0  0  0  0  0  0  0  0
   10.0342  -16.0122   27.2652 C   0  0  0  0  0  0  0  0  0  0  0  0
   10.8995  -16.3072   26.0519 C   0  0  2  0  0  0  0  0  0  0  0  0
   10.0159  -16.2646   24.8825 N   0  0  0  0  0  0  0  0  0  0  0  0
   11.4672  -17.6745   26.0706 C   0  0  0  0  0  0  0  0  0  0  0  0
   12.4361  -17.9097   26.8313 O   0  0  0  0  0  0  0  0  0  0  0  0
   10.9918  -18.7208   25.2950 O   0  0  0  0  0  0  0  0  0  0  0  0
  2  1  1  1
  3  2  1  0
  3  4  1  0
  4  9  2  0
  5  6  2  0
  5  4  1  0
  6  7  1  0
  7  8  2  0
  9  8  1  0
 10  2  1  0
 10 11  2  0
 12 10  1  0
 13 16  1  0
 13 12  1  0
 13 14  1  1
 15 14  1  0
 16 23  1  0
 17 16  2  0
 18 19  1  0
 19 20  1  0
 20 21  1  0
 22 21  1  1
 22 24  1  0
 23 22  1  0
 24 25  2  0
 24 26  1  0
M  END
$$$$
