FCM.pdb
     RDKit          3D

 26 26  0  0  1  0  0  0  0  0999 V2000
    6.0702  -18.0914   22.3147 N   0  0  0  0  0  0  0  0  0  0  0  0
    6.8245  -17.1121   23.0871 C   0  0  1  0  0  0  0  0  0  0  0  0
    6.0999  -16.8102   24.3812 C   0  0  0  0  0  0  0  0  0  0  0  0
    6.4023  -15.4901   24.9385 C   0  0  0  0  0  0  0  0  0  0  0  0
    6.2985  -15.1918   26.2756 C   0  0  0  0  0  0  0  0  0  0  0  0
    6.5936  -13.9381   26.7091 C   0  0  0  0  0  0  0  0  0  0  0  0
    6.9942  -12.9675   25.8297 C   0  0  0  0  0  0  0  0  0  0  0  0
    7.1033  -13.2496   24.4879 C   0  0  0  0  0  0  0  0  0  0  0  0
    6.8097  -14.4995   24.0494 C   0  0  0  0  0  0  0  0  0  0  0  0
    8.1041  -17.7686   23.4755 C   0  0  0  0  0  0  0  0  0  0  0  0
    8.3201  -19.0059   23.2716 O   0  0  0  0  0  0  0  0  0  0  0  0
    9.1289  -16.9684   24.1050 N   0  0  0  0  0  0  0  0  0  0  0  0
   10.3577  -16.7062   23.3790 C   0  0  1  0  0  0  0  0  0  0  0  0
   10.0648  -15.4773   22.5241 C   0  0  0  0  0  0  0  0  0  0  0  0
   10.7099  -15.8668   20.8575 S   0  0  0  0  0  0  0  0  0  0  0  0
   11.4188  -16.4170   24.3757 C   0  0  0  0  0  0  0  0  0  0  0  0
   12.2105  -15.4707   24.2012 O   0  0  0  0  0  0  0  0  0  0  0  0
   10.1953  -12.1729   27.0515 C   0  0  0  0  0  0  0  0  0  0  0  0
    9.5105  -13.4266   28.1656 S   0  0  0  0  0  0  0  0  0  0  0  0
   10.6217  -14.8587   28.3006 C   0  0  0  0  0  0  0  0  0  0  0  0
   10.6879  -15.5000   26.9539 C   0  0  0  0  0  0  0  0  0  0  0  0
   11.6276  -16.6914   26.8828 C   0  0  2  0  0  0  0  0  0  0  0  0
   11.5139  -17.2388   25.5272 N   0  0  0  0  0  0  0  0  0  0  0  0
   11.2289  -17.7918   27.7896 C   0  0  0  0  0  0  0  0  0  0  0  0
   10.4238  -18.6548   27.3654 O   0  0  0  0  0  0  0  0  0  0  0  0
   11.6931  -17.9312   29.0887 O   0  0  0  0  0  0  0  0  0  0  0  0
  2  1  1  6
  3  2  1  0
  3  4  1  0
  4  9  2  0
  5  6  2  0
  5  4  1  0
  6  7  1  0
  7  8  2  0
  9  8  1  0
 10  2  1  0
 10 11  2  0
 12 10  1  0
 13 16  1  0
 13 12  1  0
 13 14  1  6
 15 14  1  0
 16 23  1  0
 17 16  2  0
 18 19  1  0
 19 20  1  0
 20 21  1  0
 22 21  1  6
 22 24  1  0
 23 22  1  0
 24 25  2  0
 24 26  1  0
M  END
$$$$
