FCM.pdb
     RDKit          3D

 26 26  0  0  1  0  0  0  0  0999 V2000
    6.0102  -18.3059   24.8810 N   0  0  0  0  0  0  0  0  0  0  0  0
    6.3538  -16.9016   24.6952 C   0  0  1  0  0  0  0  0  0  0  0  0
    6.6669  -16.2680   26.0337 C   0  0  0  0  0  0  0  0  0  0  0  0
    6.6737  -14.8036   26.0117 C   0  0  0  0  0  0  0  0  0  0  0  0
    7.7327  -14.0590   25.5516 C   0  0  0  0  0  0  0  0  0  0  0  0
    7.6588  -12.7023   25.5713 C   0  0  0  0  0  0  0  0  0  0  0  0
    6.5411  -12.0669   26.0434 C   0  0  0  0  0  0  0  0  0  0  0  0
    5.4721  -12.7975   26.5077 C   0  0  0  0  0  0  0  0  0  0  0  0
    5.5404  -14.1524   26.4907 C   0  0  0  0  0  0  0  0  0  0  0  0
    7.6250  -16.8723   23.9188 C   0  0  0  0  0  0  0  0  0  0  0  0
    8.5664  -17.7021   24.1285 O   0  0  0  0  0  0  0  0  0  0  0  0
    7.7877  -15.8650   22.8961 N   0  0  0  0  0  0  0  0  0  0  0  0
    8.9886  -15.8812   22.0817 C   0  0  1  0  0  0  0  0  0  0  0  0
    8.7198  -14.8945   20.9498 C   0  0  0  0  0  0  0  0  0  0  0  0
    7.6922  -13.5693   21.6801 S   0  0  0  0  0  0  0  0  0  0  0  0
   10.1163  -15.4199   22.9294 C   0  0  0  0  0  0  0  0  0  0  0  0
   10.2896  -14.2051   23.1464 O   0  0  0  0  0  0  0  0  0  0  0  0
   10.6681  -12.8406   28.4604 C   0  0  0  0  0  0  0  0  0  0  0  0
   11.3568  -14.4152   27.8875 S   0  0  0  0  0  0  0  0  0  0  0  0
   11.2088  -14.5758   26.0830 C   0  0  0  0  0  0  0  0  0  0  0  0
   11.7474  -15.9173   25.7093 C   0  0  0  0  0  0  0  0  0  0  0  0
   12.1832  -16.0255   24.2581 C   0  0  2  0  0  0  0  0  0  0  0  0
   10.9911  -16.3876   23.4849 N   0  0  0  0  0  0  0  0  0  0  0  0
   13.1520  -17.1216   24.0299 C   0  0  0  0  0  0  0  0  0  0  0  0
   12.7130  -18.2494   23.7014 O   0  0  0  0  0  0  0  0  0  0  0  0
   14.5254  -16.9799   24.1566 O   0  0  0  0  0  0  0  0  0  0  0  0
  2  1  1  1
  3  2  1  0
  3  4  1  0
  4  9  2  0
  5  6  2  0
  5  4  1  0
  6  7  1  0
  7  8  2  0
  9  8  1  0
 10  2  1  0
 10 11  2  0
 12 10  1  0
 13 16  1  0
 13 12  1  0
 13 14  1  6
 15 14  1  0
 16 23  1  0
 17 16  2  0
 18 19  1  0
 19 20  1  0
 20 21  1  0
 22 21  1  1
 22 24  1  0
 23 22  1  0
 24 25  2  0
 24 26  1  0
M  END
$$$$
