FCM.pdb
     RDKit          3D

 26 26  0  0  1  0  0  0  0  0999 V2000
    7.7184  -17.6795   17.8513 N   0  0  0  0  0  0  0  0  0  0  0  0
    8.1403  -16.5804   18.7107 C   0  0  1  0  0  0  0  0  0  0  0  0
    7.1358  -15.4510   18.6306 C   0  0  0  0  0  0  0  0  0  0  0  0
    7.3210  -14.4165   19.6506 C   0  0  0  0  0  0  0  0  0  0  0  0
    8.1334  -13.3219   19.4789 C   0  0  0  0  0  0  0  0  0  0  0  0
    8.2532  -12.4107   20.4798 C   0  0  0  0  0  0  0  0  0  0  0  0
    7.5735  -12.5689   21.6583 C   0  0  0  0  0  0  0  0  0  0  0  0
    6.7561  -13.6591   21.8464 C   0  0  0  0  0  0  0  0  0  0  0  0
    6.6328  -14.5723   20.8506 C   0  0  0  0  0  0  0  0  0  0  0  0
    8.0801  -17.0859   20.1108 C   0  0  0  0  0  0  0  0  0  0  0  0
    7.0597  -17.6925   20.5689 O   0  0  0  0  0  0  0  0  0  0  0  0
    9.2212  -16.8762   20.9715 N   0  0  0  0  0  0  0  0  0  0  0  0
    9.1824  -17.3967   22.3255 C   0  0  1  0  0  0  0  0  0  0  0  0
   10.2332  -18.5019   22.3614 C   0  0  0  0  0  0  0  0  0  0  0  0
   10.1584  -19.2034   24.0489 S   0  0  0  0  0  0  0  0  0  0  0  0
    9.5460  -16.2904   23.2459 C   0  0  0  0  0  0  0  0  0  0  0  0
   10.5793  -15.6209   23.0541 O   0  0  0  0  0  0  0  0  0  0  0  0
    5.8994  -11.7853   25.6491 C   0  0  0  0  0  0  0  0  0  0  0  0
    7.5219  -11.8360   26.4532 S   0  0  0  0  0  0  0  0  0  0  0  0
    7.9079  -13.5117   27.0422 C   0  0  0  0  0  0  0  0  0  0  0  0
    7.7460  -14.4396   25.8838 C   0  0  0  0  0  0  0  0  0  0  0  0
    9.0483  -15.0503   25.3950 C   0  0  2  0  0  0  0  0  0  0  0  0
    8.6961  -16.0127   24.3463 N   0  0  0  0  0  0  0  0  0  0  0  0
    9.7406  -15.8380   26.4401 C   0  0  0  0  0  0  0  0  0  0  0  0
   10.4612  -15.2311   27.2678 O   0  0  0  0  0  0  0  0  0  0  0  0
    9.6421  -17.2155   26.5640 O   0  0  0  0  0  0  0  0  0  0  0  0
  2  1  1  6
  3  2  1  0
  3  4  1  0
  4  9  2  0
  5  6  2  0
  5  4  1  0
  6  7  1  0
  7  8  2  0
  9  8  1  0
 10  2  1  0
 10 11  2  0
 12 10  1  0
 13 16  1  0
 13 12  1  0
 13 14  1  6
 15 14  1  0
 16 23  1  0
 17 16  2  0
 18 19  1  0
 19 20  1  0
 20 21  1  0
 22 21  1  1
 22 24  1  0
 23 22  1  0
 24 25  2  0
 24 26  1  0
M  END
$$$$
