FCM.pdb
     RDKit          3D

 26 26  0  0  1  0  0  0  0  0999 V2000
   11.1828  -15.8578   20.7518 N   0  0  0  0  0  0  0  0  0  0  0  0
   10.0157  -15.0660   21.1198 C   0  0  1  0  0  0  0  0  0  0  0  0
    8.7659  -15.6933   20.5406 C   0  0  0  0  0  0  0  0  0  0  0  0
    7.9733  -14.7835   19.7108 C   0  0  0  0  0  0  0  0  0  0  0  0
    7.3327  -13.6732   20.2053 C   0  0  0  0  0  0  0  0  0  0  0  0
    6.6124  -12.8837   19.3660 C   0  0  0  0  0  0  0  0  0  0  0  0
    6.5171  -13.1802   18.0323 C   0  0  0  0  0  0  0  0  0  0  0  0
    7.1523  -14.2881   17.5211 C   0  0  0  0  0  0  0  0  0  0  0  0
    7.8726  -15.0801   18.3544 C   0  0  0  0  0  0  0  0  0  0  0  0
    9.8796  -15.1688   22.5998 C   0  0  0  0  0  0  0  0  0  0  0  0
   10.8195  -15.6051   23.3381 O   0  0  0  0  0  0  0  0  0  0  0  0
    8.6361  -14.7587   23.2101 N   0  0  0  0  0  0  0  0  0  0  0  0
    8.5612  -14.6707   24.6566 C   0  0  1  0  0  0  0  0  0  0  0  0
    7.1393  -14.2078   24.9580 C   0  0  0  0  0  0  0  0  0  0  0  0
    7.2638  -12.4167   25.3070 S   0  0  0  0  0  0  0  0  0  0  0  0
    8.8034  -16.0283   25.2055 C   0  0  0  0  0  0  0  0  0  0  0  0
    8.7911  -17.0250   24.4577 O   0  0  0  0  0  0  0  0  0  0  0  0
   12.3772  -15.4930   30.8622 C   0  0  0  0  0  0  0  0  0  0  0  0
   10.8102  -14.6657   30.4855 S   0  0  0  0  0  0  0  0  0  0  0  0
    9.8570  -15.6006   29.2522 C   0  0  0  0  0  0  0  0  0  0  0  0
   10.8164  -16.0676   28.2078 C   0  0  0  0  0  0  0  0  0  0  0  0
   10.1830  -16.9271   27.1273 C   0  0  2  0  0  0  0  0  0  0  0  0
    9.0470  -16.1677   26.5952 N   0  0  0  0  0  0  0  0  0  0  0  0
    9.6066  -18.1835   27.6576 C   0  0  0  0  0  0  0  0  0  0  0  0
    8.3589  -18.2850   27.7316 O   0  0  0  0  0  0  0  0  0  0  0  0
   10.3644  -19.2649   28.0808 O   0  0  0  0  0  0  0  0  0  0  0  0
  2  1  1  6
  3  2  1  0
  3  4  1  0
  4  9  2  0
  5  6  2  0
  5  4  1  0
  6  7  1  0
  7  8  2  0
  9  8  1  0
 10  2  1  0
 10 11  2  0
 12 10  1  0
 13 16  1  0
 13 12  1  0
 13 14  1  6
 15 14  1  0
 16 23  1  0
 17 16  2  0
 18 19  1  0
 19 20  1  0
 20 21  1  0
 22 21  1  1
 22 24  1  0
 23 22  1  0
 24 25  2  0
 24 26  1  0
M  END
$$$$
