FCM.pdb
     RDKit          3D

 26 26  0  0  1  0  0  0  0  0999 V2000
    5.8420  -18.2371   24.4948 N   0  0  0  0  0  0  0  0  0  0  0  0
    6.2780  -16.8493   24.4013 C   0  0  1  0  0  0  0  0  0  0  0  0
    6.4938  -16.2842   25.7888 C   0  0  0  0  0  0  0  0  0  0  0  0
    6.6419  -14.8276   25.8215 C   0  0  0  0  0  0  0  0  0  0  0  0
    7.7847  -14.1746   25.4275 C   0  0  0  0  0  0  0  0  0  0  0  0
    7.8407  -12.8186   25.4949 C   0  0  0  0  0  0  0  0  0  0  0  0
    6.7716  -12.0936   25.9503 C   0  0  0  0  0  0  0  0  0  0  0  0
    5.6201  -12.7319   26.3487 C   0  0  0  0  0  0  0  0  0  0  0  0
    5.5586  -14.0856   26.2838 C   0  0  0  0  0  0  0  0  0  0  0  0
    7.6181  -16.8658   23.7508 C   0  0  0  0  0  0  0  0  0  0  0  0
    8.4086  -17.8576   23.8526 O   0  0  0  0  0  0  0  0  0  0  0  0
    8.0276  -15.7137   22.9813 N   0  0  0  0  0  0  0  0  0  0  0  0
    9.1902  -15.8239   22.1199 C   0  0  1  0  0  0  0  0  0  0  0  0
    9.0788  -14.6572   21.1435 C   0  0  0  0  0  0  0  0  0  0  0  0
    7.4743  -14.8735   20.2926 S   0  0  0  0  0  0  0  0  0  0  0  0
   10.3983  -15.6880   22.9714 C   0  0  0  0  0  0  0  0  0  0  0  0
   11.4532  -15.2180   22.5034 O   0  0  0  0  0  0  0  0  0  0  0  0
   10.5337  -14.0179   29.5517 C   0  0  0  0  0  0  0  0  0  0  0  0
    9.2931  -14.7994   28.4877 S   0  0  0  0  0  0  0  0  0  0  0  0
    9.8413  -14.8265   26.7549 C   0  0  0  0  0  0  0  0  0  0  0  0
   10.9021  -15.8709   26.6394 C   0  0  0  0  0  0  0  0  0  0  0  0
   11.4714  -16.0206   25.2390 C   0  0  2  0  0  0  0  0  0  0  0  0
   10.3280  -16.1045   24.3249 N   0  0  0  0  0  0  0  0  0  0  0  0
   12.2194  -17.2852   25.0557 C   0  0  0  0  0  0  0  0  0  0  0  0
   13.3986  -17.3494   25.4776 O   0  0  0  0  0  0  0  0  0  0  0  0
   11.6950  -18.4131   24.4430 O   0  0  0  0  0  0  0  0  0  0  0  0
  2  1  1  1
  3  2  1  0
  3  4  1  0
  4  9  2  0
  5  6  2  0
  5  4  1  0
  6  7  1  0
  7  8  2  0
  9  8  1  0
 10  2  1  0
 10 11  2  0
 12 10  1  0
 13 16  1  0
 13 12  1  0
 13 14  1  6
 15 14  1  0
 16 23  1  0
 17 16  2  0
 18 19  1  0
 19 20  1  0
 20 21  1  0
 22 21  1  1
 22 24  1  0
 23 22  1  0
 24 25  2  0
 24 26  1  0
M  END
$$$$
