FCM.pdb
     RDKit          3D

 26 26  0  0  1  0  0  0  0  0999 V2000
   10.0038  -14.5207   17.8683 N   0  0  0  0  0  0  0  0  0  0  0  0
   10.7447  -15.0474   19.0078 C   0  0  1  0  0  0  0  0  0  0  0  0
   11.6658  -13.9804   19.5591 C   0  0  0  0  0  0  0  0  0  0  0  0
   13.0848  -14.3408   19.5190 C   0  0  0  0  0  0  0  0  0  0  0  0
   13.9423  -13.9276   18.5284 C   0  0  0  0  0  0  0  0  0  0  0  0
   15.2451  -14.3124   18.5640 C   0  0  0  0  0  0  0  0  0  0  0  0
   15.7150  -15.1068   19.5759 C   0  0  0  0  0  0  0  0  0  0  0  0
   14.8696  -15.5292   20.5754 C   0  0  0  0  0  0  0  0  0  0  0  0
   13.5679  -15.1484   20.5448 C   0  0  0  0  0  0  0  0  0  0  0  0
    9.7447  -15.3205   20.0778 C   0  0  0  0  0  0  0  0  0  0  0  0
    8.8093  -14.5040   20.3555 O   0  0  0  0  0  0  0  0  0  0  0  0
    9.8471  -16.5548   20.8214 N   0  0  0  0  0  0  0  0  0  0  0  0
    8.8275  -16.8662   21.8059 C   0  0  1  0  0  0  0  0  0  0  0  0
    8.8113  -18.3886   21.8999 C   0  0  0  0  0  0  0  0  0  0  0  0
    7.6572  -18.7897   23.2610 S   0  0  0  0  0  0  0  0  0  0  0  0
    9.2442  -16.2606   23.0954 C   0  0  0  0  0  0  0  0  0  0  0  0
   10.4270  -16.3403   23.4795 O   0  0  0  0  0  0  0  0  0  0  0  0
    6.5398  -10.8489   26.2529 C   0  0  0  0  0  0  0  0  0  0  0  0
    6.1735  -12.3745   27.1585 S   0  0  0  0  0  0  0  0  0  0  0  0
    7.5169  -13.5846   26.9717 C   0  0  0  0  0  0  0  0  0  0  0  0
    7.4166  -14.1526   25.5945 C   0  0  0  0  0  0  0  0  0  0  0  0
    8.5462  -15.1025   25.2345 C   0  0  2  0  0  0  0  0  0  0  0  0
    8.2706  -15.5925   23.8802 N   0  0  0  0  0  0  0  0  0  0  0  0
    8.5782  -16.3079   26.0936 C   0  0  0  0  0  0  0  0  0  0  0  0
    7.7807  -17.2426   25.8430 O   0  0  0  0  0  0  0  0  0  0  0  0
    9.4414  -16.4714   27.1663 O   0  0  0  0  0  0  0  0  0  0  0  0
  2  1  1  6
  3  2  1  0
  3  4  1  0
  4  9  2  0
  5  6  2  0
  5  4  1  0
  6  7  1  0
  7  8  2  0
  9  8  1  0
 10  2  1  0
 10 11  2  0
 12 10  1  0
 13 16  1  0
 13 12  1  0
 13 14  1  1
 15 14  1  0
 16 23  1  0
 17 16  2  0
 18 19  1  0
 19 20  1  0
 20 21  1  0
 22 21  1  1
 22 24  1  0
 23 22  1  0
 24 25  2  0
 24 26  1  0
M  END
$$$$
