FCM.pdb
     RDKit          3D

 26 26  0  0  1  0  0  0  0  0999 V2000
    6.0095  -18.1646   18.8997 N   0  0  0  0  0  0  0  0  0  0  0  0
    6.8537  -17.1102   19.4477 C   0  0  1  0  0  0  0  0  0  0  0  0
    6.4612  -15.7758   18.8508 C   0  0  0  0  0  0  0  0  0  0  0  0
    7.1337  -14.6287   19.4645 C   0  0  0  0  0  0  0  0  0  0  0  0
    6.9810  -13.3370   19.0221 C   0  0  0  0  0  0  0  0  0  0  0  0
    7.6468  -12.3301   19.6461 C   0  0  0  0  0  0  0  0  0  0  0  0
    8.4682  -12.5862   20.7117 C   0  0  0  0  0  0  0  0  0  0  0  0
    8.6321  -13.8738   21.1671 C   0  0  0  0  0  0  0  0  0  0  0  0
    7.9701  -14.8831   20.5478 C   0  0  0  0  0  0  0  0  0  0  0  0
    6.5358  -17.0206   20.9004 C   0  0  0  0  0  0  0  0  0  0  0  0
    5.3955  -16.6459   21.3226 O   0  0  0  0  0  0  0  0  0  0  0  0
    7.5611  -17.3712   21.8557 N   0  0  0  0  0  0  0  0  0  0  0  0
    7.2614  -17.2747   23.2722 C   0  0  1  0  0  0  0  0  0  0  0  0
    7.1365  -18.7161   23.7556 C   0  0  0  0  0  0  0  0  0  0  0  0
    6.7471  -18.6094   25.5395 S   0  0  0  0  0  0  0  0  0  0  0  0
    8.4034  -16.5926   23.9307 C   0  0  0  0  0  0  0  0  0  0  0  0
    9.5749  -16.9388   23.6847 O   0  0  0  0  0  0  0  0  0  0  0  0
    6.7276  -10.5734   25.8661 C   0  0  0  0  0  0  0  0  0  0  0  0
    6.5045  -12.0490   26.8931 S   0  0  0  0  0  0  0  0  0  0  0  0
    7.0787  -13.5409   26.0279 C   0  0  0  0  0  0  0  0  0  0  0  0
    8.5580  -13.6220   26.2134 C   0  0  0  0  0  0  0  0  0  0  0  0
    9.1911  -14.8568   25.5953 C   0  0  2  0  0  0  0  0  0  0  0  0
    8.1345  -15.5423   24.8443 N   0  0  0  0  0  0  0  0  0  0  0  0
    9.6546  -15.8323   26.6081 C   0  0  0  0  0  0  0  0  0  0  0  0
    8.9820  -16.8757   26.7857 O   0  0  0  0  0  0  0  0  0  0  0  0
   10.7950  -15.6652   27.3789 O   0  0  0  0  0  0  0  0  0  0  0  0
  2  1  1  6
  3  2  1  0
  3  4  1  0
  4  9  2  0
  5  6  2  0
  5  4  1  0
  6  7  1  0
  7  8  2  0
  9  8  1  0
 10  2  1  0
 10 11  2  0
 12 10  1  0
 13 16  1  0
 13 12  1  0
 13 14  1  1
 15 14  1  0
 16 23  1  0
 17 16  2  0
 18 19  1  0
 19 20  1  0
 20 21  1  0
 22 21  1  1
 22 24  1  0
 23 22  1  0
 24 25  2  0
 24 26  1  0
M  END
$$$$
