NCI.pdb
     RDKit          3D

 23 22  0  0  1  0  0  0  0  0999 V2000
    8.0412  -12.9107   17.2382 N   0  0  0  0  0  0  0  0  0  0  0  0
    8.5462  -13.5473   18.4017 C   0  0  0  0  0  0  0  0  0  0  0  0
    9.7779  -13.7277   18.5209 O   0  0  0  0  0  0  0  0  0  0  0  0
    7.6654  -14.0160   19.5005 C   0  0  0  0  0  0  0  0  0  0  0  0
    7.8292  -15.5180   19.7202 C   0  0  2  0  0  0  0  0  0  0  0  0
    7.1622  -16.2751   18.7057 N   0  0  0  0  0  0  0  0  0  0  0  0
    7.2364  -15.7919   21.0768 C   0  0  0  0  0  0  0  0  0  0  0  0
    6.0399  -15.4974   21.3169 O   0  0  0  0  0  0  0  0  0  0  0  0
    7.9945  -16.3830   22.1165 N   0  0  0  0  0  0  0  0  0  0  0  0
    7.4249  -16.4765   23.4399 C   0  0  1  0  0  0  0  0  0  0  0  0
    7.2533  -17.9470   23.8486 C   0  0  0  0  0  0  0  0  0  0  0  0
    8.8268  -18.8041   23.9296 S   0  0  0  0  0  0  0  0  0  0  0  0
    8.3060  -15.8361   24.4566 C   0  0  0  0  0  0  0  0  0  0  0  0
    9.5680  -15.7786   24.3252 O   0  0  0  0  0  0  0  0  0  0  0  0
    6.3704  -11.5069   26.9299 C   0  0  0  0  0  0  0  0  0  0  0  0
    7.3390  -12.4532   26.2625 C   0  0  0  0  0  0  0  0  0  0  0  0
    7.8291  -13.4381   27.2732 C   0  0  2  0  0  0  0  0  0  0  0  0
    8.7448  -12.7292   28.2433 C   0  0  0  0  0  0  0  0  0  0  0  0
    8.5419  -14.6151   26.6452 C   0  0  2  0  0  0  0  0  0  0  0  0
    7.7602  -15.2566   25.6298 N   0  0  0  0  0  0  0  0  0  0  0  0
    8.9284  -15.5918   27.6845 C   0  0  0  0  0  0  0  0  0  0  0  0
   10.0661  -15.4214   28.4488 O   0  0  0  0  0  0  0  0  0  0  0  0
    8.2164  -16.6001   27.8855 O   0  0  0  0  0  0  0  0  0  0  0  0
  2  1  1  0
  3  2  2  0
  4  2  1  0
  5  6  1  6
  5  4  1  0
  7  8  2  0
  7  5  1  0
  9  7  1  0
 10  9  1  0
 10 13  1  0
 10 11  1  1
 12 11  1  0
 13 20  1  0
 13 14  2  0
 16 15  1  0
 17 16  1  0
 17 18  1  1
 19 17  1  0
 19 20  1  6
 21 22  1  0
 21 19  1  0
 23 21  2  0
M  END
$$$$
