NCI.pdb
     RDKit          3D

 23 22  0  0  1  0  0  0  0  0999 V2000
    9.0657  -13.5736   16.4453 N   0  0  0  0  0  0  0  0  0  0  0  0
    7.7452  -13.9451   16.8092 C   0  0  0  0  0  0  0  0  0  0  0  0
    6.8262  -13.8622   15.9651 O   0  0  0  0  0  0  0  0  0  0  0  0
    7.3999  -14.4352   18.1670 C   0  0  0  0  0  0  0  0  0  0  0  0
    8.6130  -14.3639   19.0912 C   0  0  2  0  0  0  0  0  0  0  0  0
    9.6701  -15.2164   18.6406 N   0  0  0  0  0  0  0  0  0  0  0  0
    8.1119  -14.7932   20.4445 C   0  0  0  0  0  0  0  0  0  0  0  0
    7.1580  -14.1856   20.9893 O   0  0  0  0  0  0  0  0  0  0  0  0
    8.6888  -15.8818   21.1426 N   0  0  0  0  0  0  0  0  0  0  0  0
    8.1303  -16.2815   22.4126 C   0  0  1  0  0  0  0  0  0  0  0  0
    8.4915  -17.7416   22.7230 C   0  0  0  0  0  0  0  0  0  0  0  0
   10.2657  -18.0050   22.7168 S   0  0  0  0  0  0  0  0  0  0  0  0
    8.6642  -15.4487   23.5268 C   0  0  0  0  0  0  0  0  0  0  0  0
    9.7872  -14.8592   23.4590 O   0  0  0  0  0  0  0  0  0  0  0  0
    5.9657  -11.6095   25.7269 C   0  0  0  0  0  0  0  0  0  0  0  0
    7.0800  -12.5051   25.2419 C   0  0  0  0  0  0  0  0  0  0  0  0
    7.4176  -13.4852   26.3176 C   0  0  2  0  0  0  0  0  0  0  0  0
    7.9728  -12.7357   27.5059 C   0  0  0  0  0  0  0  0  0  0  0  0
    8.3988  -14.5413   25.8597 C   0  0  2  0  0  0  0  0  0  0  0  0
    7.9267  -15.2794   24.7257 N   0  0  0  0  0  0  0  0  0  0  0  0
    8.7144  -15.4616   26.9718 C   0  0  0  0  0  0  0  0  0  0  0  0
    9.6268  -15.1242   27.9522 O   0  0  0  0  0  0  0  0  0  0  0  0
    8.1482  -16.5748   27.0372 O   0  0  0  0  0  0  0  0  0  0  0  0
  2  1  1  0
  3  2  2  0
  4  2  1  0
  5  6  1  6
  5  4  1  0
  7  8  2  0
  7  5  1  0
  9  7  1  0
 10  9  1  0
 10 13  1  0
 10 11  1  1
 12 11  1  0
 13 20  1  0
 13 14  2  0
 16 15  1  0
 17 16  1  0
 17 18  1  1
 19 17  1  0
 19 20  1  6
 21 22  1  0
 21 19  1  0
 23 21  2  0
M  END
$$$$
