NCI.pdb
     RDKit          3D

 23 22  0  0  1  0  0  0  0  0999 V2000
    9.5374  -13.9152   16.6009 N   0  0  0  0  0  0  0  0  0  0  0  0
    8.1468  -13.7764   16.8475 C   0  0  0  0  0  0  0  0  0  0  0  0
    7.3854  -13.4386   15.9148 O   0  0  0  0  0  0  0  0  0  0  0  0
    7.5455  -14.0176   18.1830 C   0  0  0  0  0  0  0  0  0  0  0  0
    8.6171  -14.4225   19.1923 C   0  0  2  0  0  0  0  0  0  0  0  0
    9.4383  -15.4824   18.6928 N   0  0  0  0  0  0  0  0  0  0  0  0
    7.8658  -14.8549   20.4232 C   0  0  0  0  0  0  0  0  0  0  0  0
    7.0442  -14.0787   20.9697 O   0  0  0  0  0  0  0  0  0  0  0  0
    8.0546  -16.1335   21.0017 N   0  0  0  0  0  0  0  0  0  0  0  0
    7.4919  -16.4099   22.3022 C   0  0  1  0  0  0  0  0  0  0  0  0
    7.5768  -17.9108   22.6167 C   0  0  0  0  0  0  0  0  0  0  0  0
    7.1213  -18.2625   24.3155 S   0  0  0  0  0  0  0  0  0  0  0  0
    8.2316  -15.6914   23.3777 C   0  0  0  0  0  0  0  0  0  0  0  0
    9.4960  -15.5710   23.3714 O   0  0  0  0  0  0  0  0  0  0  0  0
    6.8714  -11.0889   27.1801 C   0  0  0  0  0  0  0  0  0  0  0  0
    7.8396  -12.2051   26.8711 C   0  0  0  0  0  0  0  0  0  0  0  0
    7.1962  -13.1541   25.9134 C   0  0  2  0  0  0  0  0  0  0  0  0
    6.0002  -13.7891   26.5828 C   0  0  0  0  0  0  0  0  0  0  0  0
    8.1475  -14.2211   25.4192 C   0  0  2  0  0  0  0  0  0  0  0  0
    7.5408  -15.1046   24.4679 N   0  0  0  0  0  0  0  0  0  0  0  0
    8.6871  -14.9916   26.5588 C   0  0  0  0  0  0  0  0  0  0  0  0
    8.4179  -16.3375   26.7132 O   0  0  0  0  0  0  0  0  0  0  0  0
    9.4054  -14.4224   27.4096 O   0  0  0  0  0  0  0  0  0  0  0  0
  2  1  1  0
  3  2  2  0
  4  2  1  0
  5  6  1  6
  5  4  1  0
  7  8  2  0
  7  5  1  0
  9  7  1  0
 10  9  1  0
 10 13  1  0
 10 11  1  1
 12 11  1  0
 13 20  1  0
 13 14  2  0
 16 15  1  0
 17 16  1  0
 17 18  1  1
 19 17  1  0
 19 20  1  6
 21 22  1  0
 21 19  1  0
 23 21  2  0
M  END
$$$$
