NCI.pdb
     RDKit          3D

 23 22  0  0  1  0  0  0  0  0999 V2000
   14.7100  -16.0139   18.8015 N   0  0  0  0  0  0  0  0  0  0  0  0
   14.0486  -16.9075   19.6836 C   0  0  0  0  0  0  0  0  0  0  0  0
   14.3397  -18.1235   19.6625 O   0  0  0  0  0  0  0  0  0  0  0  0
   13.0111  -16.4575   20.6449 C   0  0  0  0  0  0  0  0  0  0  0  0
   11.7100  -17.2282   20.4347 C   0  0  2  0  0  0  0  0  0  0  0  0
   11.1177  -16.9270   19.1675 N   0  0  0  0  0  0  0  0  0  0  0  0
   10.8088  -16.8096   21.5658 C   0  0  0  0  0  0  0  0  0  0  0  0
   10.5667  -15.5943   21.7670 O   0  0  0  0  0  0  0  0  0  0  0  0
   10.2096  -17.7565   22.4316 N   0  0  0  0  0  0  0  0  0  0  0  0
    9.3305  -17.2966   23.4805 C   0  0  1  0  0  0  0  0  0  0  0  0
    8.1406  -18.2541   23.6429 C   0  0  0  0  0  0  0  0  0  0  0  0
    7.0720  -17.7652   24.9979 S   0  0  0  0  0  0  0  0  0  0  0  0
   10.0338  -17.2406   24.7928 C   0  0  0  0  0  0  0  0  0  0  0  0
   10.9314  -18.0772   25.1209 O   0  0  0  0  0  0  0  0  0  0  0  0
   10.6278  -13.1603   29.4439 C   0  0  0  0  0  0  0  0  0  0  0  0
   10.8901  -14.5501   28.9158 C   0  0  0  0  0  0  0  0  0  0  0  0
   10.1898  -14.7115   27.6062 C   0  0  2  0  0  0  0  0  0  0  0  0
    8.7161  -14.4444   27.8031 C   0  0  0  0  0  0  0  0  0  0  0  0
   10.3970  -16.0804   26.9970 C   0  0  2  0  0  0  0  0  0  0  0  0
    9.7228  -16.2342   25.7418 N   0  0  0  0  0  0  0  0  0  0  0  0
    9.9625  -17.1306   27.9412 C   0  0  0  0  0  0  0  0  0  0  0  0
   10.7772  -17.5581   28.9714 O   0  0  0  0  0  0  0  0  0  0  0  0
    8.8328  -17.6518   27.8145 O   0  0  0  0  0  0  0  0  0  0  0  0
  2  1  1  0
  3  2  2  0
  4  2  1  0
  5  6  1  6
  5  4  1  0
  7  8  2  0
  7  5  1  0
  9  7  1  0
 10  9  1  0
 10 13  1  0
 10 11  1  1
 12 11  1  0
 13 20  1  0
 13 14  2  0
 16 15  1  0
 17 16  1  0
 17 18  1  1
 19 17  1  0
 19 20  1  6
 21 22  1  0
 21 19  1  0
 23 21  2  0
M  END
$$$$
