NCI.pdb
     RDKit          3D

 23 22  0  0  1  0  0  0  0  0999 V2000
    9.1385  -18.2336   17.7614 N   0  0  0  0  0  0  0  0  0  0  0  0
    7.7821  -17.8347   17.6387 C   0  0  0  0  0  0  0  0  0  0  0  0
    7.4010  -17.2558   16.5978 O   0  0  0  0  0  0  0  0  0  0  0  0
    6.7796  -18.0771   18.7061 C   0  0  0  0  0  0  0  0  0  0  0  0
    7.4291  -18.7472   19.9144 C   0  0  2  0  0  0  0  0  0  0  0  0
    7.1888  -20.1576   19.9277 N   0  0  0  0  0  0  0  0  0  0  0  0
    6.8165  -18.0830   21.1188 C   0  0  0  0  0  0  0  0  0  0  0  0
    5.6695  -17.5775   21.0489 O   0  0  0  0  0  0  0  0  0  0  0  0
    7.5005  -18.0051   22.3562 N   0  0  0  0  0  0  0  0  0  0  0  0
    6.8571  -17.3651   23.4791 C   0  0  1  0  0  0  0  0  0  0  0  0
    6.5355  -18.3945   24.5726 C   0  0  0  0  0  0  0  0  0  0  0  0
    7.9583  -19.4123   24.9689 S   0  0  0  0  0  0  0  0  0  0  0  0
    7.7374  -16.3309   24.0921 C   0  0  0  0  0  0  0  0  0  0  0  0
    9.0047  -16.3992   24.0433 O   0  0  0  0  0  0  0  0  0  0  0  0
    7.1554  -10.6078   26.4173 C   0  0  0  0  0  0  0  0  0  0  0  0
    7.9756  -11.8732   26.3462 C   0  0  0  0  0  0  0  0  0  0  0  0
    7.1622  -12.9423   25.6926 C   0  0  2  0  0  0  0  0  0  0  0  0
    5.9897  -13.2788   26.5837 C   0  0  0  0  0  0  0  0  0  0  0  0
    7.9662  -14.1879   25.3926 C   0  0  2  0  0  0  0  0  0  0  0  0
    7.1847  -15.2120   24.7649 N   0  0  0  0  0  0  0  0  0  0  0  0
    8.5862  -14.7058   26.6298 C   0  0  0  0  0  0  0  0  0  0  0  0
    8.1991  -15.9110   27.1822 O   0  0  0  0  0  0  0  0  0  0  0  0
    9.4833  -14.0460   27.1989 O   0  0  0  0  0  0  0  0  0  0  0  0
  2  1  1  0
  3  2  2  0
  4  2  1  0
  5  6  1  1
  5  4  1  0
  7  8  2  0
  7  5  1  0
  9  7  1  0
 10  9  1  0
 10 13  1  0
 10 11  1  1
 12 11  1  0
 13 20  1  0
 13 14  2  0
 16 15  1  0
 17 16  1  0
 17 18  1  1
 19 17  1  0
 19 20  1  1
 21 22  1  0
 21 19  1  0
 23 21  2  0
M  END
$$$$
