NCI.pdb
     RDKit          3D

 23 22  0  0  1  0  0  0  0  0999 V2000
    8.4059  -12.7389   16.8646 N   0  0  0  0  0  0  0  0  0  0  0  0
    7.8448  -14.0282   17.0572 C   0  0  0  0  0  0  0  0  0  0  0  0
    7.8036  -14.8323   16.1004 O   0  0  0  0  0  0  0  0  0  0  0  0
    7.2961  -14.4724   18.3628 C   0  0  0  0  0  0  0  0  0  0  0  0
    8.4213  -14.8838   19.3093 C   0  0  2  0  0  0  0  0  0  0  0  0
    9.0771  -16.0745   18.8628 N   0  0  0  0  0  0  0  0  0  0  0  0
    7.7626  -15.0982   20.6461 C   0  0  0  0  0  0  0  0  0  0  0  0
    7.0386  -14.2032   21.1468 O   0  0  0  0  0  0  0  0  0  0  0  0
    7.9323  -16.2990   21.3772 N   0  0  0  0  0  0  0  0  0  0  0  0
    7.3522  -16.4112   22.6945 C   0  0  1  0  0  0  0  0  0  0  0  0
    7.2167  -17.8869   23.0982 C   0  0  0  0  0  0  0  0  0  0  0  0
    6.6796  -18.0654   24.8002 S   0  0  0  0  0  0  0  0  0  0  0  0
    8.2051  -15.7495   23.7215 C   0  0  0  0  0  0  0  0  0  0  0  0
    9.4697  -15.8663   23.7350 O   0  0  0  0  0  0  0  0  0  0  0  0
    6.0515  -11.7755   27.4092 C   0  0  0  0  0  0  0  0  0  0  0  0
    6.3943  -13.0376   26.6551 C   0  0  0  0  0  0  0  0  0  0  0  0
    7.7672  -12.9024   26.0818 C   0  0  2  0  0  0  0  0  0  0  0  0
    7.7031  -12.0123   24.8630 C   0  0  0  0  0  0  0  0  0  0  0  0
    8.3857  -14.2357   25.7246 C   0  0  2  0  0  0  0  0  0  0  0  0
    7.6278  -14.9503   24.7405 N   0  0  0  0  0  0  0  0  0  0  0  0
    8.5538  -15.0622   26.9379 C   0  0  0  0  0  0  0  0  0  0  0  0
    7.8719  -16.2520   27.1018 O   0  0  0  0  0  0  0  0  0  0  0  0
    9.3288  -14.6854   27.8442 O   0  0  0  0  0  0  0  0  0  0  0  0
  2  1  1  0
  3  2  2  0
  4  2  1  0
  5  6  1  6
  5  4  1  0
  7  8  2  0
  7  5  1  0
  9  7  1  0
 10  9  1  0
 10 13  1  0
 10 11  1  1
 12 11  1  0
 13 20  1  0
 13 14  2  0
 16 15  1  0
 17 16  1  0
 17 18  1  6
 19 17  1  0
 19 20  1  6
 21 22  1  0
 21 19  1  0
 23 21  2  0
M  END
$$$$
