NCI.pdb
     RDKit          3D

 23 22  0  0  1  0  0  0  0  0999 V2000
   12.8512  -14.3381   18.2927 N   0  0  0  0  0  0  0  0  0  0  0  0
   12.3989  -14.9967   19.4656 C   0  0  0  0  0  0  0  0  0  0  0  0
   13.2029  -15.6758   20.1409 O   0  0  0  0  0  0  0  0  0  0  0  0
   10.9929  -14.9150   19.9344 C   0  0  0  0  0  0  0  0  0  0  0  0
   10.3569  -16.3023   19.9777 C   0  0  2  0  0  0  0  0  0  0  0  0
    9.8462  -16.6884   18.6981 N   0  0  0  0  0  0  0  0  0  0  0  0
    9.2506  -16.2048   20.9943 C   0  0  0  0  0  0  0  0  0  0  0  0
    8.2698  -15.4476   20.7929 O   0  0  0  0  0  0  0  0  0  0  0  0
    9.2746  -16.9521   22.1968 N   0  0  0  0  0  0  0  0  0  0  0  0
    8.1828  -16.8194   23.1322 C   0  0  1  0  0  0  0  0  0  0  0  0
    7.5690  -18.1932   23.4401 C   0  0  0  0  0  0  0  0  0  0  0  0
    7.6969  -18.6051   25.1811 S   0  0  0  0  0  0  0  0  0  0  0  0
    8.6436  -16.2421   24.4262 C   0  0  0  0  0  0  0  0  0  0  0  0
    9.7753  -16.5197   24.9315 O   0  0  0  0  0  0  0  0  0  0  0  0
    5.7323  -11.8183   25.9726 C   0  0  0  0  0  0  0  0  0  0  0  0
    6.9910  -12.5805   25.6356 C   0  0  0  0  0  0  0  0  0  0  0  0
    7.2801  -13.5499   26.7348 C   0  0  2  0  0  0  0  0  0  0  0  0
    7.8160  -12.7926   27.9269 C   0  0  0  0  0  0  0  0  0  0  0  0
    8.2536  -14.6309   26.3204 C   0  0  2  0  0  0  0  0  0  0  0  0
    7.8224  -15.3456   25.1556 N   0  0  0  0  0  0  0  0  0  0  0  0
    8.4814  -15.5690   27.4391 C   0  0  0  0  0  0  0  0  0  0  0  0
    9.4963  -15.3692   28.3543 O   0  0  0  0  0  0  0  0  0  0  0  0
    7.7444  -16.5708   27.5703 O   0  0  0  0  0  0  0  0  0  0  0  0
  2  1  1  0
  3  2  2  0
  4  2  1  0
  5  6  1  6
  5  4  1  0
  7  8  2  0
  7  5  1  0
  9  7  1  0
 10  9  1  0
 10 13  1  0
 10 11  1  1
 12 11  1  0
 13 20  1  0
 13 14  2  0
 16 15  1  0
 17 16  1  0
 17 18  1  1
 19 17  1  0
 19 20  1  6
 21 22  1  0
 21 19  1  0
 23 21  2  0
M  END
$$$$
