NCI.pdb
     RDKit          3D

 23 22  0  0  1  0  0  0  0  0999 V2000
    9.4209  -17.6666   17.1934 N   0  0  0  0  0  0  0  0  0  0  0  0
    8.0113  -17.5786   17.3323 C   0  0  0  0  0  0  0  0  0  0  0  0
    7.2901  -17.5684   16.3107 O   0  0  0  0  0  0  0  0  0  0  0  0
    7.3436  -17.4968   18.6555 C   0  0  0  0  0  0  0  0  0  0  0  0
    8.3758  -17.3845   19.7748 C   0  0  2  0  0  0  0  0  0  0  0  0
    9.0471  -18.6279   19.9997 N   0  0  0  0  0  0  0  0  0  0  0  0
    7.6008  -16.9604   20.9939 C   0  0  0  0  0  0  0  0  0  0  0  0
    6.9265  -15.9015   20.9796 O   0  0  0  0  0  0  0  0  0  0  0  0
    7.6032  -17.7281   22.1838 N   0  0  0  0  0  0  0  0  0  0  0  0
    6.9148  -17.2258   23.3492 C   0  0  1  0  0  0  0  0  0  0  0  0
    6.4202  -18.3875   24.2236 C   0  0  0  0  0  0  0  0  0  0  0  0
    6.4314  -19.9441   23.3324 S   0  0  0  0  0  0  0  0  0  0  0  0
    7.8147  -16.3904   24.1933 C   0  0  0  0  0  0  0  0  0  0  0  0
    9.0803  -16.4787   24.1339 O   0  0  0  0  0  0  0  0  0  0  0  0
    5.5325  -11.8895   26.4296 C   0  0  0  0  0  0  0  0  0  0  0  0
    6.6069  -12.6668   25.7081 C   0  0  0  0  0  0  0  0  0  0  0  0
    7.2916  -13.5677   26.6834 C   0  0  2  0  0  0  0  0  0  0  0  0
    8.1969  -12.7384   27.5635 C   0  0  0  0  0  0  0  0  0  0  0  0
    8.0811  -14.6676   26.0091 C   0  0  2  0  0  0  0  0  0  0  0  0
    7.2836  -15.4491   25.1109 N   0  0  0  0  0  0  0  0  0  0  0  0
    8.7104  -15.5395   27.0226 C   0  0  0  0  0  0  0  0  0  0  0  0
   10.0409  -15.4033   27.3671 O   0  0  0  0  0  0  0  0  0  0  0  0
    8.0321  -16.4249   27.5883 O   0  0  0  0  0  0  0  0  0  0  0  0
  2  1  1  0
  3  2  2  0
  4  2  1  0
  5  6  1  1
  5  4  1  0
  7  8  2  0
  7  5  1  0
  9  7  1  0
 10  9  1  0
 10 13  1  0
 10 11  1  1
 12 11  1  0
 13 20  1  0
 13 14  2  0
 16 15  1  0
 17 16  1  0
 17 18  1  6
 19 17  1  0
 19 20  1  1
 21 22  1  0
 21 19  1  0
 23 21  2  0
M  END
$$$$
