NCI.pdb
     RDKit          3D

 23 22  0  0  1  0  0  0  0  0999 V2000
    9.6357  -16.8602   16.8117 N   0  0  0  0  0  0  0  0  0  0  0  0
    9.5224  -17.7873   17.8802 C   0  0  0  0  0  0  0  0  0  0  0  0
   10.1894  -18.8447   17.8529 O   0  0  0  0  0  0  0  0  0  0  0  0
    8.6343  -17.5554   19.0467 C   0  0  0  0  0  0  0  0  0  0  0  0
    9.4557  -17.3197   20.3119 C   0  0  2  0  0  0  0  0  0  0  0  0
   10.0055  -18.5397   20.8186 N   0  0  0  0  0  0  0  0  0  0  0  0
    8.5013  -16.7050   21.3009 C   0  0  0  0  0  0  0  0  0  0  0  0
    8.0659  -15.5412   21.1224 O   0  0  0  0  0  0  0  0  0  0  0  0
    8.0657  -17.4059   22.4517 N   0  0  0  0  0  0  0  0  0  0  0  0
    7.2562  -16.7206   23.4312 C   0  0  1  0  0  0  0  0  0  0  0  0
    6.6799  -17.7191   24.4459 C   0  0  0  0  0  0  0  0  0  0  0  0
    5.7350  -16.8952   25.7286 S   0  0  0  0  0  0  0  0  0  0  0  0
    8.0579  -15.7258   24.1979 C   0  0  0  0  0  0  0  0  0  0  0  0
    8.3573  -14.5845   23.7280 O   0  0  0  0  0  0  0  0  0  0  0  0
    7.1899  -11.8908   25.9786 C   0  0  0  0  0  0  0  0  0  0  0  0
    8.0884  -13.0167   25.5269 C   0  0  0  0  0  0  0  0  0  0  0  0
    8.4074  -13.8835   26.7009 C   0  0  2  0  0  0  0  0  0  0  0  0
    9.1250  -13.0549   27.7404 C   0  0  0  0  0  0  0  0  0  0  0  0
    9.2393  -15.0905   26.3279 C   0  0  2  0  0  0  0  0  0  0  0  0
    8.5252  -16.0202   25.5037 N   0  0  0  0  0  0  0  0  0  0  0  0
    9.7352  -15.7649   27.5456 C   0  0  0  0  0  0  0  0  0  0  0  0
   10.8855  -15.3466   28.1856 O   0  0  0  0  0  0  0  0  0  0  0  0
    9.1070  -16.7382   28.0167 O   0  0  0  0  0  0  0  0  0  0  0  0
  2  1  1  0
  3  2  2  0
  4  2  1  0
  5  6  1  1
  5  4  1  0
  7  8  2  0
  7  5  1  0
  9  7  1  0
 10  9  1  0
 10 13  1  0
 10 11  1  1
 12 11  1  0
 13 20  1  0
 13 14  2  0
 16 15  1  0
 17 16  1  0
 17 18  1  1
 19 17  1  0
 19 20  1  1
 21 22  1  0
 21 19  1  0
 23 21  2  0
M  END
$$$$
