NCI.pdb
     RDKit          3D

 23 22  0  0  1  0  0  0  0  0999 V2000
    9.9396  -16.6097   15.7909 N   0  0  0  0  0  0  0  0  0  0  0  0
   10.2232  -16.5888   17.1812 C   0  0  0  0  0  0  0  0  0  0  0  0
   11.4120  -16.5637   17.5682 O   0  0  0  0  0  0  0  0  0  0  0  0
    9.1562  -16.5956   18.2131 C   0  0  0  0  0  0  0  0  0  0  0  0
    9.3615  -17.7473   19.1942 C   0  0  2  0  0  0  0  0  0  0  0  0
    9.0041  -19.0050   18.6132 N   0  0  0  0  0  0  0  0  0  0  0  0
    8.4843  -17.4288   20.3757 C   0  0  0  0  0  0  0  0  0  0  0  0
    7.2388  -17.3531   20.2383 O   0  0  0  0  0  0  0  0  0  0  0  0
    9.0230  -17.2063   21.6662 N   0  0  0  0  0  0  0  0  0  0  0  0
    8.1304  -16.9168   22.7634 C   0  0  1  0  0  0  0  0  0  0  0  0
    7.8195  -18.1956   23.5552 C   0  0  0  0  0  0  0  0  0  0  0  0
    9.3154  -19.0292   24.0887 S   0  0  0  0  0  0  0  0  0  0  0  0
    8.7378  -15.9451   23.7157 C   0  0  0  0  0  0  0  0  0  0  0  0
    9.9932  -15.7767   23.8090 O   0  0  0  0  0  0  0  0  0  0  0  0
    6.8924  -10.9431   26.8344 C   0  0  0  0  0  0  0  0  0  0  0  0
    7.9669  -11.9792   26.6083 C   0  0  0  0  0  0  0  0  0  0  0  0
    7.4132  -13.0741   25.7561 C   0  0  2  0  0  0  0  0  0  0  0  0
    6.2075  -13.6685   26.4452 C   0  0  0  0  0  0  0  0  0  0  0  0
    8.4299  -14.1531   25.4564 C   0  0  2  0  0  0  0  0  0  0  0  0
    7.9238  -15.1579   24.5689 N   0  0  0  0  0  0  0  0  0  0  0  0
    8.9021  -14.7726   26.7120 C   0  0  0  0  0  0  0  0  0  0  0  0
    9.7992  -14.1296   27.5423 O   0  0  0  0  0  0  0  0  0  0  0  0
    8.4865  -15.9053   27.0410 O   0  0  0  0  0  0  0  0  0  0  0  0
  2  1  1  0
  3  2  2  0
  4  2  1  0
  5  6  1  6
  5  4  1  0
  7  8  2  0
  7  5  1  0
  9  7  1  0
 10  9  1  0
 10 13  1  0
 10 11  1  1
 12 11  1  0
 13 20  1  0
 13 14  2  0
 16 15  1  0
 17 16  1  0
 17 18  1  1
 19 17  1  0
 19 20  1  6
 21 22  1  0
 21 19  1  0
 23 21  2  0
M  END
$$$$
