NCI.pdb
     RDKit          3D

 23 22  0  0  1  0  0  0  0  0999 V2000
   -4.8477  -27.9960   23.0352 N   0  0  0  0  0  0  0  0  0  0  0  0
   -5.6189  -26.8320   22.7817 C   0  0  0  0  0  0  0  0  0  0  0  0
   -5.3626  -26.1281   21.7803 O   0  0  0  0  0  0  0  0  0  0  0  0
   -6.7330  -26.4052   23.6647 C   0  0  0  0  0  0  0  0  0  0  0  0
   -6.9651  -27.4286   24.7737 C   0  0  2  0  0  0  0  0  0  0  0  0
   -7.9968  -28.3572   24.4269 N   0  0  0  0  0  0  0  0  0  0  0  0
   -7.3473  -26.6244   25.9878 C   0  0  0  0  0  0  0  0  0  0  0  0
   -8.5536  -26.3713   26.2264 O   0  0  0  0  0  0  0  0  0  0  0  0
   -6.3757  -26.1312   26.8921 N   0  0  0  0  0  0  0  0  0  0  0  0
   -6.8075  -25.4605   28.0955 C   0  0  1  0  0  0  0  0  0  0  0  0
   -7.6004  -26.4228   28.9922 C   0  0  0  0  0  0  0  0  0  0  0  0
   -6.6629  -27.9036   29.3735 S   0  0  0  0  0  0  0  0  0  0  0  0
   -5.6463  -24.9719   28.8912 C   0  0  0  0  0  0  0  0  0  0  0  0
   -4.5882  -25.6577   29.0439 O   0  0  0  0  0  0  0  0  0  0  0  0
   -3.8697  -20.0618   28.0535 C   0  0  0  0  0  0  0  0  0  0  0  0
   -4.0081  -21.5312   28.3711 C   0  0  0  0  0  0  0  0  0  0  0  0
   -4.3148  -21.6864   29.8249 C   0  0  2  0  0  0  0  0  0  0  0  0
   -3.1700  -21.1181   30.6301 C   0  0  0  0  0  0  0  0  0  0  0  0
   -4.5688  -23.1246   30.2188 C   0  0  2  0  0  0  0  0  0  0  0  0
   -5.6786  -23.7012   29.5191 N   0  0  0  0  0  0  0  0  0  0  0  0
   -4.7782  -23.2249   31.6781 C   0  0  0  0  0  0  0  0  0  0  0  0
   -6.0273  -23.4706   32.2136 O   0  0  0  0  0  0  0  0  0  0  0  0
   -3.8090  -23.0858   32.4561 O   0  0  0  0  0  0  0  0  0  0  0  0
  2  1  1  0
  3  2  2  0
  4  2  1  0
  5  6  1  6
  5  4  1  0
  7  8  2  0
  7  5  1  0
  9  7  1  0
 10  9  1  0
 10 13  1  0
 10 11  1  1
 12 11  1  0
 13 20  1  0
 13 14  2  0
 16 15  1  0
 17 16  1  0
 17 18  1  1
 19 17  1  0
 19 20  1  6
 21 22  1  0
 21 19  1  0
 23 21  2  0
M  END
$$$$
