KWT.pdb
     RDKit          3D

 31 32  0  0  1  0  0  0  0  0999 V2000
   27.6416  -19.6955  -14.3136 N   0  0  0  0  0  0  0  0  0  0  0  0
   27.2060  -21.0489  -14.2194 C   0  0  1  0  0  0  0  0  0  0  0  0
   28.1790  -22.0923  -14.6290 C   0  0  0  0  0  0  0  0  0  0  0  0
   28.9457  -21.8498  -15.8753 C   0  0  0  0  0  0  0  0  0  0  0  0
   28.7519  -20.4801  -16.4644 C   0  0  0  0  0  0  0  0  0  0  0  0
   29.5991  -20.3697  -17.7317 C   0  0  0  0  0  0  0  0  0  0  0  0
   29.5140  -19.0432  -18.3096 N   0  0  0  0  0  0  0  0  0  0  0  0
   26.7456  -21.3004  -12.8193 C   0  0  0  0  0  0  0  0  0  0  0  0
   26.3923  -22.4489  -12.4494 O   0  0  0  0  0  0  0  0  0  0  0  0
   26.7069  -20.2250  -11.8951 N   0  0  0  0  0  0  0  0  0  0  0  0
   25.9193  -20.2482  -10.6983 C   0  0  1  0  0  0  0  0  0  0  0  0
   26.5092  -19.4154   -9.5846 C   0  0  0  0  0  0  0  0  0  0  0  0
   26.6015  -20.1639   -8.3239 C   0  0  0  0  0  0  0  0  0  0  0  0
   26.1214  -21.4285   -8.0572 C   0  0  0  0  0  0  0  0  0  0  0  0
   26.4204  -21.7305   -6.7809 N   0  0  0  0  0  0  0  0  0  0  0  0
   27.0853  -20.7068   -6.1870 C   0  0  0  0  0  0  0  0  0  0  0  0
   27.5933  -20.5528   -4.9041 C   0  0  0  0  0  0  0  0  0  0  0  0
   28.2289  -19.3869   -4.5866 C   0  0  0  0  0  0  0  0  0  0  0  0
   28.3683  -18.3750   -5.5171 C   0  0  0  0  0  0  0  0  0  0  0  0
   27.8513  -18.5654   -6.7780 C   0  0  0  0  0  0  0  0  0  0  0  0
   27.1969  -19.7320   -7.1503 C   0  0  0  0  0  0  0  0  0  0  0  0
   24.5001  -19.8825  -10.9613 C   0  0  0  0  0  0  0  0  0  0  0  0
   24.1480  -18.6779  -11.1864 O   0  0  0  0  0  0  0  0  0  0  0  0
   22.0336  -22.7430  -12.8233 C   0  0  0  0  0  0  0  0  0  0  0  0
   21.9215  -21.2475  -12.8505 C   0  0  1  0  0  0  0  0  0  0  0  0
   20.6667  -20.9125  -13.3139 O   0  0  0  0  0  0  0  0  0  0  0  0
   22.1469  -20.5888  -11.5191 C   0  0  2  0  0  0  0  0  0  0  0  0
   23.4569  -20.8461  -10.9779 N   0  0  0  0  0  0  0  0  0  0  0  0
   21.0633  -20.8578  -10.5418 C   0  0  0  0  0  0  0  0  0  0  0  0
   21.2704  -21.3188   -9.3878 O   0  0  0  0  0  0  0  0  0  0  0  0
   19.7269  -20.6136  -10.8438 O   0  0  0  0  0  0  0  0  0  0  0  0
  2  1  1  1
  2  3  1  0
  4  3  1  0
  5  6  1  0
  5  4  1  0
  7  6  1  0
  8  2  1  0
  8  9  2  0
 10  8  1  0
 11 10  1  0
 11 12  1  1
 13 14  2  0
 13 12  1  0
 15 14  1  0
 16 21  2  0
 16 15  1  0
 17 16  1  0
 18 19  1  0
 18 17  2  0
 19 20  2  0
 20 21  1  0
 21 13  1  0
 22 11  1  0
 23 22  2  0
 25 24  1  1
 26 25  1  0
 27 25  1  0
 27 28  1  1
 28 22  1  0
 29 27  1  0
 30 29  2  0
 31 29  1  0
M  END
$$$$
