KWT.pdb
     RDKit          3D

 31 32  0  0  1  0  0  0  0  0999 V2000
   28.7354  -23.8705  -16.3430 N   0  0  0  0  0  0  0  0  0  0  0  0
   28.1369  -22.5815  -16.4458 C   0  0  1  0  0  0  0  0  0  0  0  0
   27.4722  -22.2559  -17.7325 C   0  0  0  0  0  0  0  0  0  0  0  0
   28.3066  -22.3118  -18.9575 C   0  0  0  0  0  0  0  0  0  0  0  0
   29.3612  -21.2430  -19.0372 C   0  0  0  0  0  0  0  0  0  0  0  0
   30.1237  -21.4070  -20.3516 C   0  0  0  0  0  0  0  0  0  0  0  0
   31.1525  -20.3961  -20.4946 N   0  0  0  0  0  0  0  0  0  0  0  0
   27.1715  -22.4177  -15.3159 C   0  0  0  0  0  0  0  0  0  0  0  0
   26.4165  -23.3603  -14.9662 O   0  0  0  0  0  0  0  0  0  0  0  0
   27.1074  -21.1784  -14.6288 N   0  0  0  0  0  0  0  0  0  0  0  0
   26.2599  -20.9537  -13.4954 C   0  0  1  0  0  0  0  0  0  0  0  0
   26.7474  -19.8362  -12.6035 C   0  0  0  0  0  0  0  0  0  0  0  0
   27.7474  -20.3000  -11.6325 C   0  0  0  0  0  0  0  0  0  0  0  0
   28.9991  -20.8160  -11.8928 C   0  0  0  0  0  0  0  0  0  0  0  0
   29.5831  -21.1137  -10.7180 N   0  0  0  0  0  0  0  0  0  0  0  0
   28.7601  -20.8125   -9.6813 C   0  0  0  0  0  0  0  0  0  0  0  0
   28.9168  -20.9381   -8.3076 C   0  0  0  0  0  0  0  0  0  0  0  0
   27.8952  -20.5427   -7.4926 C   0  0  0  0  0  0  0  0  0  0  0  0
   26.7251  -20.0268   -8.0159 C   0  0  0  0  0  0  0  0  0  0  0  0
   26.6077  -19.9181   -9.3825 C   0  0  0  0  0  0  0  0  0  0  0  0
   27.6171  -20.3058  -10.2536 C   0  0  0  0  0  0  0  0  0  0  0  0
   24.8398  -20.7534  -13.8958 C   0  0  0  0  0  0  0  0  0  0  0  0
   24.5072  -19.9051  -14.7876 O   0  0  0  0  0  0  0  0  0  0  0  0
   20.1749  -22.3571  -14.1684 C   0  0  0  0  0  0  0  0  0  0  0  0
   21.6368  -22.5488  -13.8927 C   0  0  1  0  0  0  0  0  0  0  0  0
   22.2021  -23.1995  -14.9689 O   0  0  0  0  0  0  0  0  0  0  0  0
   22.3879  -21.2726  -13.6388 C   0  0  2  0  0  0  0  0  0  0  0  0
   23.7743  -21.4900  -13.3135 N   0  0  0  0  0  0  0  0  0  0  0  0
   21.7089  -20.3762  -12.6707 C   0  0  0  0  0  0  0  0  0  0  0  0
   22.0144  -20.3171  -11.4499 O   0  0  0  0  0  0  0  0  0  0  0  0
   20.6739  -19.5298  -13.0570 O   0  0  0  0  0  0  0  0  0  0  0  0
  2  1  1  6
  2  3  1  0
  4  3  1  0
  5  6  1  0
  5  4  1  0
  7  6  1  0
  8  2  1  0
  8  9  2  0
 10  8  1  0
 11 10  1  0
 11 12  1  6
 13 14  2  0
 13 12  1  0
 15 14  1  0
 16 21  2  0
 16 15  1  0
 17 16  1  0
 18 19  1  0
 18 17  2  0
 19 20  2  0
 20 21  1  0
 21 13  1  0
 22 11  1  0
 23 22  2  0
 25 24  1  6
 26 25  1  0
 27 25  1  0
 27 28  1  1
 28 22  1  0
 29 27  1  0
 30 29  2  0
 31 29  1  0
M  END
$$$$
