KWT.pdb
     RDKit          3D

 31 32  0  0  1  0  0  0  0  0999 V2000
   28.3425  -20.9783  -14.6376 N   0  0  0  0  0  0  0  0  0  0  0  0
   27.1021  -21.4621  -15.1452 C   0  0  1  0  0  0  0  0  0  0  0  0
   27.1639  -22.6456  -16.0390 C   0  0  0  0  0  0  0  0  0  0  0  0
   27.6779  -22.4286  -17.4133 C   0  0  0  0  0  0  0  0  0  0  0  0
   29.1759  -22.3398  -17.5068 C   0  0  0  0  0  0  0  0  0  0  0  0
   29.5577  -22.0476  -18.9576 C   0  0  0  0  0  0  0  0  0  0  0  0
   30.9772  -21.7844  -19.0871 N   0  0  0  0  0  0  0  0  0  0  0  0
   26.1955  -21.7411  -13.9894 C   0  0  0  0  0  0  0  0  0  0  0  0
   25.6120  -22.8490  -13.8756 O   0  0  0  0  0  0  0  0  0  0  0  0
   25.9912  -20.7387  -13.0068 N   0  0  0  0  0  0  0  0  0  0  0  0
   25.1150  -20.9074  -11.8856 C   0  0  1  0  0  0  0  0  0  0  0  0
   25.6047  -20.2066  -10.6403 C   0  0  0  0  0  0  0  0  0  0  0  0
   26.9016  -20.7267  -10.1871 C   0  0  0  0  0  0  0  0  0  0  0  0
   27.7211  -21.6277  -10.8333 C   0  0  0  0  0  0  0  0  0  0  0  0
   28.8095  -21.8286  -10.0687 N   0  0  0  0  0  0  0  0  0  0  0  0
   28.7424  -21.0898   -8.9319 C   0  0  0  0  0  0  0  0  0  0  0  0
   29.6113  -20.9638   -7.8564 C   0  0  0  0  0  0  0  0  0  0  0  0
   29.2709  -20.1257   -6.8336 C   0  0  0  0  0  0  0  0  0  0  0  0
   28.0872  -19.4134   -6.8600 C   0  0  0  0  0  0  0  0  0  0  0  0
   27.2524  -19.5651   -7.9432 C   0  0  0  0  0  0  0  0  0  0  0  0
   27.5529  -20.4042   -9.0079 C   0  0  0  0  0  0  0  0  0  0  0  0
   23.7142  -20.5233  -12.2138 C   0  0  0  0  0  0  0  0  0  0  0  0
   23.3696  -19.3048  -12.3623 O   0  0  0  0  0  0  0  0  0  0  0  0
   21.8811  -21.6342  -15.2415 C   0  0  0  0  0  0  0  0  0  0  0  0
   20.9561  -21.8683  -14.0842 C   0  0  1  0  0  0  0  0  0  0  0  0
   20.9033  -23.2235  -13.8351 O   0  0  0  0  0  0  0  0  0  0  0  0
   21.3520  -21.1511  -12.8247 C   0  0  2  0  0  0  0  0  0  0  0  0
   22.6816  -21.4838  -12.3811 N   0  0  0  0  0  0  0  0  0  0  0  0
   20.3438  -21.2685  -11.7425 C   0  0  0  0  0  0  0  0  0  0  0  0
   19.1863  -20.7769  -11.8182 O   0  0  0  0  0  0  0  0  0  0  0  0
   20.6180  -21.9406  -10.5551 O   0  0  0  0  0  0  0  0  0  0  0  0
  2  1  1  1
  2  3  1  0
  4  3  1  0
  5  6  1  0
  5  4  1  0
  7  6  1  0
  8  2  1  0
  8  9  2  0
 10  8  1  0
 11 10  1  0
 11 12  1  1
 13 14  2  0
 13 12  1  0
 15 14  1  0
 16 21  2  0
 16 15  1  0
 17 16  1  0
 18 19  1  0
 18 17  2  0
 19 20  2  0
 20 21  1  0
 21 13  1  0
 22 11  1  0
 23 22  2  0
 25 24  1  6
 26 25  1  0
 27 25  1  0
 27 28  1  1
 28 22  1  0
 29 27  1  0
 30 29  2  0
 31 29  1  0
M  END
$$$$
