KWT.pdb
     RDKit          3D

 31 32  0  0  1  0  0  0  0  0999 V2000
   28.0031  -21.9680  -15.3391 N   0  0  0  0  0  0  0  0  0  0  0  0
   27.9905  -20.8240  -14.4899 C   0  0  1  0  0  0  0  0  0  0  0  0
   27.4551  -19.5678  -15.0717 C   0  0  0  0  0  0  0  0  0  0  0  0
   28.3879  -18.7462  -15.8809 C   0  0  0  0  0  0  0  0  0  0  0  0
   28.7993  -19.3777  -17.1819 C   0  0  0  0  0  0  0  0  0  0  0  0
   29.6367  -18.3707  -17.9698 C   0  0  0  0  0  0  0  0  0  0  0  0
   30.0665  -18.9207  -19.2401 N   0  0  0  0  0  0  0  0  0  0  0  0
   27.2416  -21.1699  -13.2429 C   0  0  0  0  0  0  0  0  0  0  0  0
   26.1672  -21.8211  -13.2914 O   0  0  0  0  0  0  0  0  0  0  0  0
   27.7524  -20.7556  -11.9861 N   0  0  0  0  0  0  0  0  0  0  0  0
   27.0142  -20.8714  -10.7634 C   0  0  1  0  0  0  0  0  0  0  0  0
   27.8307  -20.5180   -9.5427 C   0  0  0  0  0  0  0  0  0  0  0  0
   27.0338  -20.5725   -8.3098 C   0  0  0  0  0  0  0  0  0  0  0  0
   25.7341  -21.0089   -8.1647 C   0  0  0  0  0  0  0  0  0  0  0  0
   25.3932  -20.8889   -6.8689 N   0  0  0  0  0  0  0  0  0  0  0  0
   26.4249  -20.3859   -6.1442 C   0  0  0  0  0  0  0  0  0  0  0  0
   26.5507  -20.0900   -4.7936 C   0  0  0  0  0  0  0  0  0  0  0  0
   27.7353  -19.5840   -4.3411 C   0  0  0  0  0  0  0  0  0  0  0  0
   28.7933  -19.3673   -5.2030 C   0  0  0  0  0  0  0  0  0  0  0  0
   28.6298  -19.6731   -6.5346 C   0  0  0  0  0  0  0  0  0  0  0  0
   27.4459  -20.1896   -7.0441 C   0  0  0  0  0  0  0  0  0  0  0  0
   25.7399  -20.1026  -10.8100 C   0  0  0  0  0  0  0  0  0  0  0  0
   25.7250  -18.8366  -10.9613 O   0  0  0  0  0  0  0  0  0  0  0  0
   23.5579  -20.7782  -13.5617 C   0  0  0  0  0  0  0  0  0  0  0  0
   23.3086  -19.6734  -12.5784 C   0  0  1  0  0  0  0  0  0  0  0  0
   22.1229  -19.0529  -12.9107 O   0  0  0  0  0  0  0  0  0  0  0  0
   23.2433  -20.1261  -11.1472 C   0  0  2  0  0  0  0  0  0  0  0  0
   24.4700  -20.7270  -10.6899 N   0  0  0  0  0  0  0  0  0  0  0  0
   22.0538  -20.9622  -10.8513 C   0  0  0  0  0  0  0  0  0  0  0  0
   22.1268  -22.1263  -10.3751 O   0  0  0  0  0  0  0  0  0  0  0  0
   20.7602  -20.5053  -11.0852 O   0  0  0  0  0  0  0  0  0  0  0  0
  2  1  1  6
  2  3  1  0
  4  3  1  0
  5  6  1  0
  5  4  1  0
  7  6  1  0
  8  2  1  0
  8  9  2  0
 10  8  1  0
 11 10  1  0
 11 12  1  1
 13 14  2  0
 13 12  1  0
 15 14  1  0
 16 21  2  0
 16 15  1  0
 17 16  1  0
 18 19  1  0
 18 17  2  0
 19 20  2  0
 20 21  1  0
 21 13  1  0
 22 11  1  0
 23 22  2  0
 25 24  1  6
 26 25  1  0
 27 25  1  0
 27 28  1  6
 28 22  1  0
 29 27  1  0
 30 29  2  0
 31 29  1  0
M  END
$$$$
