KWT.pdb
     RDKit          3D

 31 32  0  0  1  0  0  0  0  0999 V2000
   29.0300  -21.4804  -15.3559 N   0  0  0  0  0  0  0  0  0  0  0  0
   27.7321  -21.1895  -15.8668 C   0  0  1  0  0  0  0  0  0  0  0  0
   27.3906  -21.7711  -17.1891 C   0  0  0  0  0  0  0  0  0  0  0  0
   28.3559  -21.5519  -18.2937 C   0  0  0  0  0  0  0  0  0  0  0  0
   28.2082  -20.2281  -18.9911 C   0  0  0  0  0  0  0  0  0  0  0  0
   29.2706  -20.1321  -20.0856 C   0  0  0  0  0  0  0  0  0  0  0  0
   29.2635  -18.8264  -20.7149 N   0  0  0  0  0  0  0  0  0  0  0  0
   26.7196  -21.6054  -14.8484 C   0  0  0  0  0  0  0  0  0  0  0  0
   25.5896  -22.0341  -15.1949 O   0  0  0  0  0  0  0  0  0  0  0  0
   27.0404  -21.5140  -13.4696 N   0  0  0  0  0  0  0  0  0  0  0  0
   26.1486  -21.9304  -12.4282 C   0  0  1  0  0  0  0  0  0  0  0  0
   26.8472  -22.1697  -11.1105 C   0  0  0  0  0  0  0  0  0  0  0  0
   26.4475  -21.1940  -10.0876 C   0  0  0  0  0  0  0  0  0  0  0  0
   25.2716  -20.4776  -10.0197 C   0  0  0  0  0  0  0  0  0  0  0  0
   25.3165  -19.6997   -8.9232 N   0  0  0  0  0  0  0  0  0  0  0  0
   26.4862  -19.8743   -8.2567 C   0  0  0  0  0  0  0  0  0  0  0  0
   26.9829  -19.3039   -7.0925 C   0  0  0  0  0  0  0  0  0  0  0  0
   28.2187  -19.6830   -6.6525 C   0  0  0  0  0  0  0  0  0  0  0  0
   28.9669  -20.6150   -7.3458 C   0  0  0  0  0  0  0  0  0  0  0  0
   28.4402  -21.1576   -8.4954 C   0  0  0  0  0  0  0  0  0  0  0  0
   27.1891  -20.8057   -8.9841 C   0  0  0  0  0  0  0  0  0  0  0  0
   24.9993  -20.9960  -12.2757 C   0  0  0  0  0  0  0  0  0  0  0  0
   25.1587  -19.7310  -12.2721 O   0  0  0  0  0  0  0  0  0  0  0  0
   23.8351  -19.4684  -14.2935 C   0  0  0  0  0  0  0  0  0  0  0  0
   22.5819  -20.2186  -13.9523 C   0  0  1  0  0  0  0  0  0  0  0  0
   22.4857  -21.3106  -14.7886 O   0  0  0  0  0  0  0  0  0  0  0  0
   22.5118  -20.6834  -12.5253 C   0  0  2  0  0  0  0  0  0  0  0  0
   23.6627  -21.4523  -12.1261 N   0  0  0  0  0  0  0  0  0  0  0  0
   21.2325  -21.3565  -12.1909 C   0  0  0  0  0  0  0  0  0  0  0  0
   21.1539  -22.5700  -11.8620 O   0  0  0  0  0  0  0  0  0  0  0  0
   20.0178  -20.6778  -12.2202 O   0  0  0  0  0  0  0  0  0  0  0  0
  2  1  1  1
  2  3  1  0
  4  3  1  0
  5  6  1  0
  5  4  1  0
  7  6  1  0
  8  2  1  0
  8  9  2  0
 10  8  1  0
 11 10  1  0
 11 12  1  1
 13 14  2  0
 13 12  1  0
 15 14  1  0
 16 21  2  0
 16 15  1  0
 17 16  1  0
 18 19  1  0
 18 17  2  0
 19 20  2  0
 20 21  1  0
 21 13  1  0
 22 11  1  0
 23 22  2  0
 25 24  1  1
 26 25  1  0
 27 25  1  0
 27 28  1  6
 28 22  1  0
 29 27  1  0
 30 29  2  0
 31 29  1  0
M  END
$$$$
