KWT.pdb
     RDKit          3D

 31 32  0  0  1  0  0  0  0  0999 V2000
   28.1363  -21.7056  -15.2861 N   0  0  0  0  0  0  0  0  0  0  0  0
   28.1818  -20.6547  -14.3249 C   0  0  1  0  0  0  0  0  0  0  0  0
   27.7159  -19.3191  -14.7748 C   0  0  0  0  0  0  0  0  0  0  0  0
   27.9127  -18.9813  -16.2056 C   0  0  0  0  0  0  0  0  0  0  0  0
   29.2911  -18.4824  -16.5397 C   0  0  0  0  0  0  0  0  0  0  0  0
   29.3120  -18.0518  -18.0060 C   0  0  0  0  0  0  0  0  0  0  0  0
   28.4517  -16.9074  -18.2324 N   0  0  0  0  0  0  0  0  0  0  0  0
   27.4114  -21.0851  -13.1179 C   0  0  0  0  0  0  0  0  0  0  0  0
   26.3622  -21.7691  -13.2283 O   0  0  0  0  0  0  0  0  0  0  0  0
   27.8725  -20.7146  -11.8287 N   0  0  0  0  0  0  0  0  0  0  0  0
   27.0527  -20.7776  -10.6551 C   0  0  1  0  0  0  0  0  0  0  0  0
   27.6997  -20.1445   -9.4458 C   0  0  0  0  0  0  0  0  0  0  0  0
   26.8873  -20.3114   -8.2333 C   0  0  0  0  0  0  0  0  0  0  0  0
   25.5938  -20.7796   -8.1430 C   0  0  0  0  0  0  0  0  0  0  0  0
   25.2333  -20.7701   -6.8470 N   0  0  0  0  0  0  0  0  0  0  0  0
   26.2461  -20.3100   -6.0690 C   0  0  0  0  0  0  0  0  0  0  0  0
   26.3483  -20.1219   -4.6972 C   0  0  0  0  0  0  0  0  0  0  0  0
   27.5176  -19.6343   -4.1880 C   0  0  0  0  0  0  0  0  0  0  0  0
   28.5831  -19.3313   -5.0140 C   0  0  0  0  0  0  0  0  0  0  0  0
   28.4430  -19.5315   -6.3681 C   0  0  0  0  0  0  0  0  0  0  0  0
   27.2754  -20.0249   -6.9349 C   0  0  0  0  0  0  0  0  0  0  0  0
   25.6917  -20.2251  -10.8990 C   0  0  0  0  0  0  0  0  0  0  0  0
   25.4893  -18.9731  -11.0306 O   0  0  0  0  0  0  0  0  0  0  0  0
   21.4454  -20.7311  -13.1781 C   0  0  0  0  0  0  0  0  0  0  0  0
   22.8218  -21.1447  -12.7489 C   0  0  1  0  0  0  0  0  0  0  0  0
   23.7173  -20.7579  -13.7235 O   0  0  0  0  0  0  0  0  0  0  0  0
   23.2531  -20.5719  -11.4285 C   0  0  2  0  0  0  0  0  0  0  0  0
   24.5418  -21.0524  -11.0000 N   0  0  0  0  0  0  0  0  0  0  0  0
   22.2189  -20.6937  -10.3717 C   0  0  0  0  0  0  0  0  0  0  0  0
   22.3504  -21.4262   -9.3552 O   0  0  0  0  0  0  0  0  0  0  0  0
   21.0175  -19.9943  -10.4379 O   0  0  0  0  0  0  0  0  0  0  0  0
  2  1  1  6
  2  3  1  0
  4  3  1  0
  5  6  1  0
  5  4  1  0
  7  6  1  0
  8  2  1  0
  8  9  2  0
 10  8  1  0
 11 10  1  0
 11 12  1  1
 13 14  2  0
 13 12  1  0
 15 14  1  0
 16 21  2  0
 16 15  1  0
 17 16  1  0
 18 19  1  0
 18 17  2  0
 19 20  2  0
 20 21  1  0
 21 13  1  0
 22 11  1  0
 23 22  2  0
 25 24  1  6
 26 25  1  0
 27 25  1  0
 27 28  1  1
 28 22  1  0
 29 27  1  0
 30 29  2  0
 31 29  1  0
M  END
$$$$
