KWT.pdb
     RDKit          3D

 31 32  0  0  1  0  0  0  0  0999 V2000
   27.6095  -22.9335  -15.2838 N   0  0  0  0  0  0  0  0  0  0  0  0
   27.0744  -21.6755  -14.8820 C   0  0  1  0  0  0  0  0  0  0  0  0
   26.3671  -20.8888  -15.9232 C   0  0  0  0  0  0  0  0  0  0  0  0
   27.1709  -19.9066  -16.6908 C   0  0  0  0  0  0  0  0  0  0  0  0
   28.3130  -20.5088  -17.4612 C   0  0  0  0  0  0  0  0  0  0  0  0
   29.0118  -19.3985  -18.2453 C   0  0  0  0  0  0  0  0  0  0  0  0
   30.1840  -19.8978  -18.9365 N   0  0  0  0  0  0  0  0  0  0  0  0
   26.1738  -21.8983  -13.7096 C   0  0  0  0  0  0  0  0  0  0  0  0
   25.4978  -22.9530  -13.6023 O   0  0  0  0  0  0  0  0  0  0  0  0
   26.0812  -20.9027  -12.7033 N   0  0  0  0  0  0  0  0  0  0  0  0
   25.1319  -20.9577  -11.6315 C   0  0  1  0  0  0  0  0  0  0  0  0
   25.5839  -20.2077  -10.4006 C   0  0  0  0  0  0  0  0  0  0  0  0
   26.8929  -20.6707   -9.9207 C   0  0  0  0  0  0  0  0  0  0  0  0
   27.8034  -21.4626  -10.5875 C   0  0  0  0  0  0  0  0  0  0  0  0
   28.8675  -21.6457   -9.7851 N   0  0  0  0  0  0  0  0  0  0  0  0
   28.6958  -21.0006   -8.6031 C   0  0  0  0  0  0  0  0  0  0  0  0
   29.5036  -20.8967   -7.4787 C   0  0  0  0  0  0  0  0  0  0  0  0
   29.0577  -20.1630   -6.4171 C   0  0  0  0  0  0  0  0  0  0  0  0
   27.8285  -19.5330   -6.4522 C   0  0  0  0  0  0  0  0  0  0  0  0
   27.0569  -19.6596   -7.5845 C   0  0  0  0  0  0  0  0  0  0  0  0
   27.4649  -20.3939   -8.6900 C   0  0  0  0  0  0  0  0  0  0  0  0
   23.7762  -20.5240  -12.0686 C   0  0  0  0  0  0  0  0  0  0  0  0
   23.4774  -19.2921  -12.2060 O   0  0  0  0  0  0  0  0  0  0  0  0
   21.9549  -21.0769  -15.2192 C   0  0  0  0  0  0  0  0  0  0  0  0
   21.0398  -21.5469  -14.1277 C   0  0  1  0  0  0  0  0  0  0  0  0
   21.0347  -22.9258  -14.1264 O   0  0  0  0  0  0  0  0  0  0  0  0
   21.4117  -21.0545  -12.7578 C   0  0  2  0  0  0  0  0  0  0  0  0
   22.7382  -21.4490  -12.3582 N   0  0  0  0  0  0  0  0  0  0  0  0
   20.3900  -21.3637  -11.7272 C   0  0  0  0  0  0  0  0  0  0  0  0
   20.6220  -22.0753  -10.7139 O   0  0  0  0  0  0  0  0  0  0  0  0
   19.0886  -20.8786  -11.8167 O   0  0  0  0  0  0  0  0  0  0  0  0
  2  1  1  6
  2  3  1  0
  4  3  1  0
  5  6  1  0
  5  4  1  0
  7  6  1  0
  8  2  1  0
  8  9  2  0
 10  8  1  0
 11 10  1  0
 11 12  1  1
 13 14  2  0
 13 12  1  0
 15 14  1  0
 16 21  2  0
 16 15  1  0
 17 16  1  0
 18 19  1  0
 18 17  2  0
 19 20  2  0
 20 21  1  0
 21 13  1  0
 22 11  1  0
 23 22  2  0
 25 24  1  6
 26 25  1  0
 27 25  1  0
 27 28  1  1
 28 22  1  0
 29 27  1  0
 30 29  2  0
 31 29  1  0
M  END
$$$$
