KWT.pdb
     RDKit          3D

 31 32  0  0  1  0  0  0  0  0999 V2000
   28.3643  -21.8365  -14.9537 N   0  0  0  0  0  0  0  0  0  0  0  0
   27.4552  -20.7824  -14.6491 C   0  0  1  0  0  0  0  0  0  0  0  0
   26.7764  -20.1345  -15.7993 C   0  0  0  0  0  0  0  0  0  0  0  0
   27.6408  -19.5120  -16.8312 C   0  0  0  0  0  0  0  0  0  0  0  0
   28.5646  -18.4485  -16.3053 C   0  0  0  0  0  0  0  0  0  0  0  0
   29.6490  -18.1844  -17.3494 C   0  0  0  0  0  0  0  0  0  0  0  0
   29.6800  -16.7879  -17.7366 N   0  0  0  0  0  0  0  0  0  0  0  0
   26.4397  -21.2996  -13.6812 C   0  0  0  0  0  0  0  0  0  0  0  0
   25.8110  -22.3645  -13.9082 O   0  0  0  0  0  0  0  0  0  0  0  0
   26.1824  -20.5760  -12.4886 N   0  0  0  0  0  0  0  0  0  0  0  0
   25.1518  -20.9359  -11.5605 C   0  0  1  0  0  0  0  0  0  0  0  0
   25.3720  -20.3643  -10.1797 C   0  0  0  0  0  0  0  0  0  0  0  0
   26.6777  -20.7457   -9.6252 C   0  0  0  0  0  0  0  0  0  0  0  0
   27.6380  -21.5476  -10.2046 C   0  0  0  0  0  0  0  0  0  0  0  0
   28.6781  -21.6369   -9.3563 N   0  0  0  0  0  0  0  0  0  0  0  0
   28.4423  -20.9195   -8.2282 C   0  0  0  0  0  0  0  0  0  0  0  0
   29.2051  -20.7100   -7.0873 C   0  0  0  0  0  0  0  0  0  0  0  0
   28.6967  -19.9224   -6.0946 C   0  0  0  0  0  0  0  0  0  0  0  0
   27.4489  -19.3414   -6.2145 C   0  0  0  0  0  0  0  0  0  0  0  0
   26.7233  -19.5726   -7.3605 C   0  0  0  0  0  0  0  0  0  0  0  0
   27.1955  -20.3652   -8.3982 C   0  0  0  0  0  0  0  0  0  0  0  0
   23.7966  -20.6031  -12.0801 C   0  0  0  0  0  0  0  0  0  0  0  0
   23.4305  -19.3976  -12.2764 O   0  0  0  0  0  0  0  0  0  0  0  0
   19.6463  -22.1612  -14.3795 C   0  0  0  0  0  0  0  0  0  0  0  0
   21.0072  -22.4236  -13.8061 C   0  0  1  0  0  0  0  0  0  0  0  0
   21.8822  -22.6532  -14.8468 O   0  0  0  0  0  0  0  0  0  0  0  0
   21.5405  -21.3091  -12.9511 C   0  0  2  0  0  0  0  0  0  0  0  0
   22.8338  -21.6007  -12.3877 N   0  0  0  0  0  0  0  0  0  0  0  0
   20.5693  -20.8352  -11.9344 C   0  0  0  0  0  0  0  0  0  0  0  0
   20.5459  -21.2595  -10.7484 O   0  0  0  0  0  0  0  0  0  0  0  0
   19.6064  -19.8755  -12.2320 O   0  0  0  0  0  0  0  0  0  0  0  0
  2  1  1  6
  2  3  1  0
  4  3  1  0
  5  6  1  0
  5  4  1  0
  7  6  1  0
  8  2  1  0
  8  9  2  0
 10  8  1  0
 11 10  1  0
 11 12  1  1
 13 14  2  0
 13 12  1  0
 15 14  1  0
 16 21  2  0
 16 15  1  0
 17 16  1  0
 18 19  1  0
 18 17  2  0
 19 20  2  0
 20 21  1  0
 21 13  1  0
 22 11  1  0
 23 22  2  0
 25 24  1  6
 26 25  1  0
 27 25  1  0
 27 28  1  1
 28 22  1  0
 29 27  1  0
 30 29  2  0
 31 29  1  0
M  END
$$$$
