KWT.pdb
     RDKit          3D

 31 32  0  0  1  0  0  0  0  0999 V2000
   23.4276  -22.4097  -12.5443 N   0  0  0  0  0  0  0  0  0  0  0  0
   23.0481  -21.0883  -12.1701 C   0  0  1  0  0  0  0  0  0  0  0  0
   21.8066  -20.9532  -11.3678 C   0  0  0  0  0  0  0  0  0  0  0  0
   20.8390  -22.0759  -11.4255 C   0  0  0  0  0  0  0  0  0  0  0  0
   19.8031  -21.9451  -12.5074 C   0  0  0  0  0  0  0  0  0  0  0  0
   18.4551  -22.4009  -11.9498 C   0  0  0  0  0  0  0  0  0  0  0  0
   17.4138  -22.3207  -12.9549 N   0  0  0  0  0  0  0  0  0  0  0  0
   24.1943  -20.4541  -11.4492 C   0  0  0  0  0  0  0  0  0  0  0  0
   24.1068  -19.2858  -10.9930 O   0  0  0  0  0  0  0  0  0  0  0  0
   25.3989  -21.1834  -11.2784 N   0  0  0  0  0  0  0  0  0  0  0  0
   26.6417  -20.5698  -10.9150 C   0  0  1  0  0  0  0  0  0  0  0  0
   27.3690  -21.3095   -9.8170 C   0  0  0  0  0  0  0  0  0  0  0  0
   26.9930  -20.8260   -8.4817 C   0  0  0  0  0  0  0  0  0  0  0  0
   25.7250  -20.5744   -8.0024 C   0  0  0  0  0  0  0  0  0  0  0  0
   25.8338  -20.1463   -6.7317 N   0  0  0  0  0  0  0  0  0  0  0  0
   27.1351  -20.1042   -6.3476 C   0  0  0  0  0  0  0  0  0  0  0  0
   27.7364  -19.7363   -5.1516 C   0  0  0  0  0  0  0  0  0  0  0  0
   29.0970  -19.7979   -5.0560 C   0  0  0  0  0  0  0  0  0  0  0  0
   29.8681  -20.2167   -6.1233 C   0  0  0  0  0  0  0  0  0  0  0  0
   29.2352  -20.5730   -7.2920 C   0  0  0  0  0  0  0  0  0  0  0  0
   27.8553  -20.5281   -7.4396 C   0  0  0  0  0  0  0  0  0  0  0  0
   27.5180  -20.3489  -12.0984 C   0  0  0  0  0  0  0  0  0  0  0  0
   28.7655  -20.6105  -12.0680 O   0  0  0  0  0  0  0  0  0  0  0  0
   29.3349  -21.6236  -13.8076 C   0  0  0  0  0  0  0  0  0  0  0  0
   28.4769  -21.0440  -14.8927 C   0  0  1  0  0  0  0  0  0  0  0  0
   27.5086  -21.9681  -15.2237 O   0  0  0  0  0  0  0  0  0  0  0  0
   27.8144  -19.7460  -14.5266 C   0  0  2  0  0  0  0  0  0  0  0  0
   27.0224  -19.8366  -13.3268 N   0  0  0  0  0  0  0  0  0  0  0  0
   27.0733  -19.1286  -15.6540 C   0  0  0  0  0  0  0  0  0  0  0  0
   25.8527  -18.8223  -15.5950 O   0  0  0  0  0  0  0  0  0  0  0  0
   27.6904  -18.8441  -16.8685 O   0  0  0  0  0  0  0  0  0  0  0  0
  2  1  1  1
  2  3  1  0
  4  3  1  0
  5  6  1  0
  5  4  1  0
  7  6  1  0
  8  2  1  0
  8  9  2  0
 10  8  1  0
 11 10  1  0
 11 12  1  1
 13 14  2  0
 13 12  1  0
 15 14  1  0
 16 21  2  0
 16 15  1  0
 17 16  1  0
 18 19  1  0
 18 17  2  0
 19 20  2  0
 20 21  1  0
 21 13  1  0
 22 11  1  0
 23 22  2  0
 25 24  1  1
 26 25  1  0
 27 25  1  0
 27 28  1  1
 28 22  1  0
 29 27  1  0
 30 29  2  0
 31 29  1  0
M  END
$$$$
