KWT.pdb
     RDKit          3D

 31 32  0  0  1  0  0  0  0  0999 V2000
   23.4395  -11.2526  -19.8761 N   0  0  0  0  0  0  0  0  0  0  0  0
   22.7130  -10.0331  -19.9991 C   0  0  1  0  0  0  0  0  0  0  0  0
   21.3282  -10.1322  -20.5243 C   0  0  0  0  0  0  0  0  0  0  0  0
   21.1201  -10.9746  -21.7272 C   0  0  0  0  0  0  0  0  0  0  0  0
   19.9565  -11.9214  -21.6259 C   0  0  0  0  0  0  0  0  0  0  0  0
   19.8628  -12.7202  -22.9256 C   0  0  0  0  0  0  0  0  0  0  0  0
   19.7198  -11.8462  -24.0730 N   0  0  0  0  0  0  0  0  0  0  0  0
   22.7077   -9.3504  -18.6690 C   0  0  0  0  0  0  0  0  0  0  0  0
   22.3555   -9.9612  -17.6280 O   0  0  0  0  0  0  0  0  0  0  0  0
   23.1062   -7.9918  -18.5818 N   0  0  0  0  0  0  0  0  0  0  0  0
   23.1431   -7.2635  -17.3483 C   0  0  1  0  0  0  0  0  0  0  0  0
   24.4716   -6.5896  -17.0977 C   0  0  0  0  0  0  0  0  0  0  0  0
   25.5650   -7.5598  -16.9523 C   0  0  0  0  0  0  0  0  0  0  0  0
   26.7258   -7.6390  -17.6919 C   0  0  0  0  0  0  0  0  0  0  0  0
   27.4498   -8.6732  -17.2274 N   0  0  0  0  0  0  0  0  0  0  0  0
   26.8085   -9.2872  -16.2005 C   0  0  0  0  0  0  0  0  0  0  0  0
   27.1519  -10.3786  -15.4142 C   0  0  0  0  0  0  0  0  0  0  0  0
   26.2895  -10.7771  -14.4336 C   0  0  0  0  0  0  0  0  0  0  0  0
   25.0964  -10.1133  -14.2210 C   0  0  0  0  0  0  0  0  0  0  0  0
   24.7916   -9.0361  -15.0211 C   0  0  0  0  0  0  0  0  0  0  0  0
   25.6345   -8.5917  -16.0310 C   0  0  0  0  0  0  0  0  0  0  0  0
   22.0125   -6.3007  -17.2387 C   0  0  0  0  0  0  0  0  0  0  0  0
   21.8108   -5.3995  -18.1178 O   0  0  0  0  0  0  0  0  0  0  0  0
   18.6017   -7.0753  -17.6887 C   0  0  0  0  0  0  0  0  0  0  0  0
   19.0758   -5.6828  -17.3956 C   0  0  1  0  0  0  0  0  0  0  0  0
   17.9760   -4.8547  -17.3186 O   0  0  0  0  0  0  0  0  0  0  0  0
   19.8756   -5.5584  -16.1298 C   0  0  2  0  0  0  0  0  0  0  0  0
   21.0942   -6.3261  -16.1557 N   0  0  0  0  0  0  0  0  0  0  0  0
   19.0745   -5.8013  -14.9047 C   0  0  0  0  0  0  0  0  0  0  0  0
   19.3665   -6.6787  -14.0491 O   0  0  0  0  0  0  0  0  0  0  0  0
   17.9302   -5.0625  -14.6189 O   0  0  0  0  0  0  0  0  0  0  0  0
  2  1  1  1
  2  3  1  0
  4  3  1  0
  5  6  1  0
  5  4  1  0
  7  6  1  0
  8  2  1  0
  8  9  2  0
 10  8  1  0
 11 10  1  0
 11 12  1  6
 13 14  2  0
 13 12  1  0
 15 14  1  0
 16 21  2  0
 16 15  1  0
 17 16  1  0
 18 19  1  0
 18 17  2  0
 19 20  2  0
 20 21  1  0
 21 13  1  0
 22 11  1  0
 23 22  2  0
 25 24  1  1
 26 25  1  0
 27 25  1  0
 27 28  1  6
 28 22  1  0
 29 27  1  0
 30 29  2  0
 31 29  1  0
M  END
$$$$
