KWT.pdb
     RDKit          3D

 31 32  0  0  1  0  0  0  0  0999 V2000
   24.5325  -25.7260  -15.5854 N   0  0  0  0  0  0  0  0  0  0  0  0
   25.2631  -24.5143  -15.7535 C   0  0  1  0  0  0  0  0  0  0  0  0
   25.8936  -24.2946  -17.0793 C   0  0  0  0  0  0  0  0  0  0  0  0
   26.9433  -25.2559  -17.4962 C   0  0  0  0  0  0  0  0  0  0  0  0
   28.1044  -25.3548  -16.5461 C   0  0  0  0  0  0  0  0  0  0  0  0
   29.0874  -26.3944  -17.0836 C   0  0  0  0  0  0  0  0  0  0  0  0
   30.2535  -26.5089  -16.2304 N   0  0  0  0  0  0  0  0  0  0  0  0
   24.3615  -23.3692  -15.4200 C   0  0  0  0  0  0  0  0  0  0  0  0
   23.1229  -23.5373  -15.2841 O   0  0  0  0  0  0  0  0  0  0  0  0
   24.9138  -22.0731  -15.2550 N   0  0  0  0  0  0  0  0  0  0  0  0
   24.1438  -20.9412  -14.8316 C   0  0  1  0  0  0  0  0  0  0  0  0
   24.9191  -19.9954  -13.9450 C   0  0  0  0  0  0  0  0  0  0  0  0
   24.6388  -20.2183  -12.5203 C   0  0  0  0  0  0  0  0  0  0  0  0
   23.4214  -20.1395  -11.8782 C   0  0  0  0  0  0  0  0  0  0  0  0
   23.6147  -20.4168  -10.5761 N   0  0  0  0  0  0  0  0  0  0  0  0
   24.9235  -20.6783  -10.3287 C   0  0  0  0  0  0  0  0  0  0  0  0
   25.5972  -21.0099   -9.1610 C   0  0  0  0  0  0  0  0  0  0  0  0
   26.9449  -21.2209   -9.2193 C   0  0  0  0  0  0  0  0  0  0  0  0
   27.6328  -21.1087  -10.4123 C   0  0  0  0  0  0  0  0  0  0  0  0
   26.9298  -20.7783  -11.5481 C   0  0  0  0  0  0  0  0  0  0  0  0
   25.5596  -20.5540  -11.5415 C   0  0  0  0  0  0  0  0  0  0  0  0
   23.5266  -20.2280  -15.9838 C   0  0  0  0  0  0  0  0  0  0  0  0
   24.2316  -19.5951  -16.8371 O   0  0  0  0  0  0  0  0  0  0  0  0
   21.8460  -21.3788  -19.0136 C   0  0  0  0  0  0  0  0  0  0  0  0
   20.8701  -20.4960  -18.2939 C   0  0  1  0  0  0  0  0  0  0  0  0
   19.9707  -21.2968  -17.6222 O   0  0  0  0  0  0  0  0  0  0  0  0
   21.5037  -19.5431  -17.3203 C   0  0  2  0  0  0  0  0  0  0  0  0
   22.1236  -20.2085  -16.2031 N   0  0  0  0  0  0  0  0  0  0  0  0
   20.5968  -18.4468  -16.8995 C   0  0  0  0  0  0  0  0  0  0  0  0
   20.2107  -18.2852  -15.7112 O   0  0  0  0  0  0  0  0  0  0  0  0
   20.1069  -17.5119  -17.8066 O   0  0  0  0  0  0  0  0  0  0  0  0
  2  1  1  6
  2  3  1  0
  4  3  1  0
  5  6  1  0
  5  4  1  0
  7  6  1  0
  8  2  1  0
  8  9  2  0
 10  8  1  0
 11 10  1  0
 11 12  1  6
 13 14  2  0
 13 12  1  0
 15 14  1  0
 16 21  2  0
 16 15  1  0
 17 16  1  0
 18 19  1  0
 18 17  2  0
 19 20  2  0
 20 21  1  0
 21 13  1  0
 22 11  1  0
 23 22  2  0
 25 24  1  1
 26 25  1  0
 27 25  1  0
 27 28  1  1
 28 22  1  0
 29 27  1  0
 30 29  2  0
 31 29  1  0
M  END
$$$$
