KWT.pdb
     RDKit          3D

 31 32  0  0  1  0  0  0  0  0999 V2000
   19.2163  -13.5976  -17.4175 N   0  0  0  0  0  0  0  0  0  0  0  0
   18.2190  -12.5999  -17.2168 C   0  0  1  0  0  0  0  0  0  0  0  0
   17.4136  -12.7029  -15.9742 C   0  0  0  0  0  0  0  0  0  0  0  0
   16.5236  -13.8820  -15.8413 C   0  0  0  0  0  0  0  0  0  0  0  0
   15.2359  -13.7751  -16.6100 C   0  0  0  0  0  0  0  0  0  0  0  0
   14.4212  -15.0470  -16.3764 C   0  0  0  0  0  0  0  0  0  0  0  0
   13.2059  -15.0480  -17.1664 N   0  0  0  0  0  0  0  0  0  0  0  0
   18.8723  -11.2572  -17.2928 C   0  0  0  0  0  0  0  0  0  0  0  0
   20.1095  -11.1269  -17.1107 O   0  0  0  0  0  0  0  0  0  0  0  0
   18.0824  -10.1132  -17.5745 N   0  0  0  0  0  0  0  0  0  0  0  0
   18.6378   -8.8081  -17.7778 C   0  0  1  0  0  0  0  0  0  0  0  0
   17.8566   -7.9798  -18.7705 C   0  0  0  0  0  0  0  0  0  0  0  0
   17.9380   -8.5261  -20.1317 C   0  0  0  0  0  0  0  0  0  0  0  0
   19.0673   -8.9288  -20.8123 C   0  0  0  0  0  0  0  0  0  0  0  0
   18.6917   -9.3635  -22.0287 N   0  0  0  0  0  0  0  0  0  0  0  0
   17.3466   -9.2636  -22.1816 C   0  0  0  0  0  0  0  0  0  0  0  0
   16.5086   -9.5823  -23.2416 C   0  0  0  0  0  0  0  0  0  0  0  0
   15.1671   -9.3690  -23.1034 C   0  0  0  0  0  0  0  0  0  0  0  0
   14.6451   -8.8465  -21.9357 C   0  0  0  0  0  0  0  0  0  0  0  0
   15.5080   -8.5433  -20.9076 C   0  0  0  0  0  0  0  0  0  0  0  0
   16.8793   -8.7416  -20.9984 C   0  0  0  0  0  0  0  0  0  0  0  0
   18.8317   -8.0816  -16.4926 C   0  0  0  0  0  0  0  0  0  0  0  0
   17.8444   -7.7028  -15.7801 O   0  0  0  0  0  0  0  0  0  0  0  0
   20.3108   -9.4795  -13.5689 C   0  0  0  0  0  0  0  0  0  0  0  0
   21.0243   -8.1710  -13.7373 C   0  0  1  0  0  0  0  0  0  0  0  0
   22.2978   -8.4250  -14.2010 O   0  0  0  0  0  0  0  0  0  0  0  0
   20.3416   -7.2133  -14.6722 C   0  0  2  0  0  0  0  0  0  0  0  0
   20.1197   -7.7676  -15.9832 N   0  0  0  0  0  0  0  0  0  0  0  0
   20.9891   -5.8791  -14.7193 C   0  0  0  0  0  0  0  0  0  0  0  0
   21.4414   -5.3659  -15.7772 O   0  0  0  0  0  0  0  0  0  0  0  0
   21.1401   -5.0971  -13.5780 O   0  0  0  0  0  0  0  0  0  0  0  0
  2  1  1  1
  2  3  1  0
  4  3  1  0
  5  6  1  0
  5  4  1  0
  7  6  1  0
  8  2  1  0
  8  9  2  0
 10  8  1  0
 11 10  1  0
 11 12  1  6
 13 14  2  0
 13 12  1  0
 15 14  1  0
 16 21  2  0
 16 15  1  0
 17 16  1  0
 18 19  1  0
 18 17  2  0
 19 20  2  0
 20 21  1  0
 21 13  1  0
 22 11  1  0
 23 22  2  0
 25 24  1  6
 26 25  1  0
 27 25  1  0
 27 28  1  6
 28 22  1  0
 29 27  1  0
 30 29  2  0
 31 29  1  0
M  END
$$$$
