KWT.pdb
     RDKit          3D

 31 32  0  0  1  0  0  0  0  0999 V2000
   29.2049  -21.9223  -14.8858 N   0  0  0  0  0  0  0  0  0  0  0  0
   27.8493  -21.5782  -15.1580 C   0  0  1  0  0  0  0  0  0  0  0  0
   27.1573  -22.3718  -16.2043 C   0  0  0  0  0  0  0  0  0  0  0  0
   27.9297  -22.6958  -17.4283 C   0  0  0  0  0  0  0  0  0  0  0  0
   28.7883  -21.5701  -17.9344 C   0  0  0  0  0  0  0  0  0  0  0  0
   30.0467  -22.1630  -18.5676 C   0  0  0  0  0  0  0  0  0  0  0  0
   29.7872  -22.6387  -19.9120 N   0  0  0  0  0  0  0  0  0  0  0  0
   27.0802  -21.6397  -13.8773 C   0  0  0  0  0  0  0  0  0  0  0  0
   25.9280  -22.1413  -13.8363 O   0  0  0  0  0  0  0  0  0  0  0  0
   27.6609  -21.1230  -12.6907 N   0  0  0  0  0  0  0  0  0  0  0  0
   26.9816  -21.1055  -11.4292 C   0  0  1  0  0  0  0  0  0  0  0  0
   27.8675  -20.6709  -10.2853 C   0  0  0  0  0  0  0  0  0  0  0  0
   27.1412  -20.6278   -9.0091 C   0  0  0  0  0  0  0  0  0  0  0  0
   25.8268  -20.9717   -8.7751 C   0  0  0  0  0  0  0  0  0  0  0  0
   25.5695  -20.7825   -7.4684 N   0  0  0  0  0  0  0  0  0  0  0  0
   26.6714  -20.3229   -6.8224 C   0  0  0  0  0  0  0  0  0  0  0  0
   26.8936  -19.9872   -5.4937 C   0  0  0  0  0  0  0  0  0  0  0  0
   28.1324  -19.5446   -5.1279 C   0  0  0  0  0  0  0  0  0  0  0  0
   29.1505  -19.4298   -6.0549 C   0  0  0  0  0  0  0  0  0  0  0  0
   28.8912  -19.7722   -7.3622 C   0  0  0  0  0  0  0  0  0  0  0  0
   27.6493  -20.2273   -7.7844 C   0  0  0  0  0  0  0  0  0  0  0  0
   25.7285  -20.3032  -11.4852 C   0  0  0  0  0  0  0  0  0  0  0  0
   25.7491  -19.0316  -11.5763 O   0  0  0  0  0  0  0  0  0  0  0  0
   23.7597  -19.6650  -14.0740 C   0  0  0  0  0  0  0  0  0  0  0  0
   22.7630  -20.2114  -13.0954 C   0  0  1  0  0  0  0  0  0  0  0  0
   22.4807  -21.5157  -13.4425 O   0  0  0  0  0  0  0  0  0  0  0  0
   23.2190  -20.1702  -11.6644 C   0  0  2  0  0  0  0  0  0  0  0  0
   24.4406  -20.9002  -11.4411 N   0  0  0  0  0  0  0  0  0  0  0  0
   22.1524  -20.5345  -10.6993 C   0  0  0  0  0  0  0  0  0  0  0  0
   22.2426  -21.5055   -9.9017 O   0  0  0  0  0  0  0  0  0  0  0  0
   20.9648  -19.8142  -10.6131 O   0  0  0  0  0  0  0  0  0  0  0  0
  2  1  1  1
  2  3  1  0
  4  3  1  0
  5  6  1  0
  5  4  1  0
  7  6  1  0
  8  2  1  0
  8  9  2  0
 10  8  1  0
 11 10  1  0
 11 12  1  1
 13 14  2  0
 13 12  1  0
 15 14  1  0
 16 21  2  0
 16 15  1  0
 17 16  1  0
 18 19  1  0
 18 17  2  0
 19 20  2  0
 20 21  1  0
 21 13  1  0
 22 11  1  0
 23 22  2  0
 25 24  1  6
 26 25  1  0
 27 25  1  0
 27 28  1  6
 28 22  1  0
 29 27  1  0
 30 29  2  0
 31 29  1  0
M  END
$$$$
