MWM.pdb
     RDKit          3D

 31 32  0  0  1  0  0  0  0  0999 V2000
   27.1567  -25.3785  -20.3685 C   0  0  0  0  0  0  0  0  0  0  0  0
   28.3447  -24.0493  -20.0348 S   0  0  0  0  0  0  0  0  0  0  0  0
   27.4764  -22.5559  -19.4719 C   0  0  0  0  0  0  0  0  0  0  0  0
   26.9627  -22.7707  -18.0455 C   0  0  0  0  0  0  0  0  0  0  0  0
   28.0039  -22.3124  -17.0433 C   0  0  2  0  0  0  0  0  0  0  0  0
   29.1652  -23.1635  -17.0547 N   0  0  0  0  0  0  0  0  0  0  0  0
   27.3282  -22.3276  -15.7072 C   0  0  0  0  0  0  0  0  0  0  0  0
   26.8225  -23.3571  -15.2264 O   0  0  0  0  0  0  0  0  0  0  0  0
   27.2673  -21.1384  -14.9788 N   0  0  0  0  0  0  0  0  0  0  0  0
   26.7389  -21.0247  -13.6011 C   0  0  1  0  0  0  0  0  0  0  0  0
   27.5466  -20.0642  -12.8327 C   0  0  0  0  0  0  0  0  0  0  0  0
   28.0764  -20.5111  -11.5400 C   0  0  0  0  0  0  0  0  0  0  0  0
   29.3502  -21.0594  -11.3641 C   0  0  0  0  0  0  0  0  0  0  0  0
   29.4530  -21.3651  -10.0671 N   0  0  0  0  0  0  0  0  0  0  0  0
   28.3377  -21.0538   -9.3891 C   0  0  0  0  0  0  0  0  0  0  0  0
   27.9928  -21.1751   -8.0383 C   0  0  0  0  0  0  0  0  0  0  0  0
   26.7335  -20.7325   -7.6426 C   0  0  0  0  0  0  0  0  0  0  0  0
   25.8874  -20.2005   -8.5794 C   0  0  0  0  0  0  0  0  0  0  0  0
   26.2053  -20.0715   -9.9172 C   0  0  0  0  0  0  0  0  0  0  0  0
   27.4526  -20.5135  -10.2929 C   0  0  0  0  0  0  0  0  0  0  0  0
   25.3018  -20.8945  -13.7103 C   0  0  0  0  0  0  0  0  0  0  0  0
   24.8167  -20.0765  -14.5860 O   0  0  0  0  0  0  0  0  0  0  0  0
   20.8807  -25.3030  -14.2948 C   0  0  0  0  0  0  0  0  0  0  0  0
   19.7892  -24.1101  -13.4771 S   0  0  0  0  0  0  0  0  0  0  0  0
   20.6220  -22.5190  -13.3856 C   0  0  0  0  0  0  0  0  0  0  0  0
   22.0916  -22.5825  -13.1361 C   0  0  0  0  0  0  0  0  0  0  0  0
   22.8570  -21.3294  -13.1817 C   0  0  2  0  0  0  0  0  0  0  0  0
   24.3008  -21.5796  -12.9611 N   0  0  0  0  0  0  0  0  0  0  0  0
   22.4243  -20.1858  -12.3820 C   0  0  0  0  0  0  0  0  0  0  0  0
   21.5609  -19.2099  -12.8095 O   0  0  0  0  0  0  0  0  0  0  0  0
   22.8633  -20.0392  -11.1891 O   0  0  0  0  0  0  0  0  0  0  0  0
  1  2  1  0
  3  2  1  0
  4  3  1  0
  5  4  1  0
  5  6  1  1
  7  5  1  0
  8  7  2  0
  9  7  1  0
 10  9  1  0
 11 12  1  0
 10 11  1  6
 12 13  2  0
 12 20  1  0
 13 14  1  0
 14 15  1  0
 15 16  2  0
 16 17  1  0
 18 17  2  0
 19 18  1  0
 20 19  2  0
 20 15  1  0
 21 10  1  0
 21 22  2  0
 23 24  1  0
 24 25  1  0
 25 26  1  0
 27 26  1  1
 27 28  1  0
 28 21  1  0
 29 27  1  0
 30 29  1  0
 31 29  2  0
M  END
$$$$
