MWM.pdb
     RDKit          3D

 31 32  0  0  1  0  0  0  0  0999 V2000
   29.6081  -17.2110  -19.2284 C   0  0  0  0  0  0  0  0  0  0  0  0
   28.6802  -18.0501  -17.9153 S   0  0  0  0  0  0  0  0  0  0  0  0
   27.6175  -19.3427  -18.6231 C   0  0  0  0  0  0  0  0  0  0  0  0
   26.8512  -20.0460  -17.4992 C   0  0  0  0  0  0  0  0  0  0  0  0
   27.8230  -20.7094  -16.5432 C   0  0  2  0  0  0  0  0  0  0  0  0
   28.4484  -21.8635  -17.1350 N   0  0  0  0  0  0  0  0  0  0  0  0
   27.0247  -21.0812  -15.3323 C   0  0  0  0  0  0  0  0  0  0  0  0
   26.4401  -22.1738  -15.2274 O   0  0  0  0  0  0  0  0  0  0  0  0
   26.9376  -20.1624  -14.2849 N   0  0  0  0  0  0  0  0  0  0  0  0
   26.3231  -20.4463  -12.9689 C   0  0  1  0  0  0  0  0  0  0  0  0
   26.8692  -19.5319  -11.9536 C   0  0  0  0  0  0  0  0  0  0  0  0
   27.7139  -20.1151  -10.9057 C   0  0  0  0  0  0  0  0  0  0  0  0
   28.8931  -20.8232  -11.1554 C   0  0  0  0  0  0  0  0  0  0  0  0
   29.3567  -21.2150   -9.9647 N   0  0  0  0  0  0  0  0  0  0  0  0
   28.5634  -20.8112   -8.9607 C   0  0  0  0  0  0  0  0  0  0  0  0
   28.6477  -20.9692   -7.5728 C   0  0  0  0  0  0  0  0  0  0  0  0
   27.6479  -20.4012   -6.7880 C   0  0  0  0  0  0  0  0  0  0  0  0
   26.6292  -19.7163   -7.3961 C   0  0  0  0  0  0  0  0  0  0  0  0
   26.5245  -19.5482   -8.7629 C   0  0  0  0  0  0  0  0  0  0  0  0
   27.5195  -20.1153   -9.5250 C   0  0  0  0  0  0  0  0  0  0  0  0
   24.8987  -20.5765  -13.1883 C   0  0  0  0  0  0  0  0  0  0  0  0
   24.2899  -19.6662  -13.8754 O   0  0  0  0  0  0  0  0  0  0  0  0
   18.5281  -24.8501  -14.8311 C   0  0  0  0  0  0  0  0  0  0  0  0
   20.2486  -24.8444  -14.2627 S   0  0  0  0  0  0  0  0  0  0  0  0
   20.7038  -23.1714  -13.7858 C   0  0  0  0  0  0  0  0  0  0  0  0
   22.1346  -22.9838  -13.4069 C   0  0  0  0  0  0  0  0  0  0  0  0
   22.5908  -21.6282  -13.0717 C   0  0  2  0  0  0  0  0  0  0  0  0
   24.0353  -21.6194  -12.7414 N   0  0  0  0  0  0  0  0  0  0  0  0
   21.8530  -20.8368  -12.0899 C   0  0  0  0  0  0  0  0  0  0  0  0
   22.3723  -20.3629  -10.9125 O   0  0  0  0  0  0  0  0  0  0  0  0
   20.6249  -20.5449  -12.2993 O   0  0  0  0  0  0  0  0  0  0  0  0
  1  2  1  0
  3  2  1  0
  4  3  1  0
  5  4  1  0
  5  6  1  6
  7  5  1  0
  8  7  2  0
  9  7  1  0
 10  9  1  0
 11 12  1  0
 10 11  1  1
 12 13  2  0
 12 20  1  0
 13 14  1  0
 14 15  1  0
 15 16  2  0
 16 17  1  0
 18 17  2  0
 19 18  1  0
 20 19  2  0
 20 15  1  0
 21 10  1  0
 21 22  2  0
 23 24  1  0
 24 25  1  0
 25 26  1  0
 27 26  1  1
 27 28  1  0
 28 21  1  0
 29 27  1  0
 30 29  1  0
 31 29  2  0
M  END
$$$$
