MWM.pdb
     RDKit          3D

 31 32  0  0  1  0  0  0  0  0999 V2000
   20.1072  -30.3001  -12.1167 C   0  0  0  0  0  0  0  0  0  0  0  0
   19.9199  -29.1496  -10.7273 S   0  0  0  0  0  0  0  0  0  0  0  0
   18.8986  -27.7297  -11.2193 C   0  0  0  0  0  0  0  0  0  0  0  0
   19.5458  -27.0248  -12.4147 C   0  0  0  0  0  0  0  0  0  0  0  0
   20.3383  -25.8217  -11.9422 C   0  0  2  0  0  0  0  0  0  0  0  0
   19.4891  -24.8281  -11.3384 N   0  0  0  0  0  0  0  0  0  0  0  0
   21.0348  -25.2826  -13.1530 C   0  0  0  0  0  0  0  0  0  0  0  0
   20.5795  -24.3363  -13.8193 O   0  0  0  0  0  0  0  0  0  0  0  0
   22.2402  -25.8684  -13.5433 N   0  0  0  0  0  0  0  0  0  0  0  0
   23.0580  -25.4192  -14.6921 C   0  0  1  0  0  0  0  0  0  0  0  0
   24.4876  -25.5763  -14.3808 C   0  0  0  0  0  0  0  0  0  0  0  0
   25.4510  -25.1030  -15.3805 C   0  0  0  0  0  0  0  0  0  0  0  0
   25.3914  -23.8468  -15.9909 C   0  0  0  0  0  0  0  0  0  0  0  0
   26.4119  -23.7977  -16.8525 N   0  0  0  0  0  0  0  0  0  0  0  0
   27.1296  -24.9314  -16.8441 C   0  0  0  0  0  0  0  0  0  0  0  0
   28.2704  -25.3283  -17.5508 C   0  0  0  0  0  0  0  0  0  0  0  0
   28.7922  -26.5931  -17.2932 C   0  0  0  0  0  0  0  0  0  0  0  0
   28.1767  -27.3941  -16.3680 C   0  0  0  0  0  0  0  0  0  0  0  0
   27.0503  -27.0246  -15.6594 C   0  0  0  0  0  0  0  0  0  0  0  0
   26.5463  -25.7724  -15.9251 C   0  0  0  0  0  0  0  0  0  0  0  0
   22.4698  -25.9989  -15.8803 C   0  0  0  0  0  0  0  0  0  0  0  0
   22.0077  -27.2048  -15.8201 O   0  0  0  0  0  0  0  0  0  0  0  0
   19.9961  -23.6362  -22.2559 C   0  0  0  0  0  0  0  0  0  0  0  0
   18.9873  -24.5707  -21.0760 S   0  0  0  0  0  0  0  0  0  0  0  0
   20.0355  -25.7478  -20.2104 C   0  0  0  0  0  0  0  0  0  0  0  0
   20.7416  -25.2104  -19.0110 C   0  0  0  0  0  0  0  0  0  0  0  0
   21.6460  -26.1075  -18.2794 C   0  0  2  0  0  0  0  0  0  0  0  0
   22.3124  -25.3966  -17.1630 N   0  0  0  0  0  0  0  0  0  0  0  0
   22.6250  -26.9063  -19.0130 C   0  0  0  0  0  0  0  0  0  0  0  0
   22.3721  -28.1253  -19.5879 O   0  0  0  0  0  0  0  0  0  0  0  0
   23.8234  -26.4788  -19.1492 O   0  0  0  0  0  0  0  0  0  0  0  0
  1  2  1  0
  3  2  1  0
  4  3  1  0
  5  4  1  0
  5  6  1  6
  7  5  1  0
  8  7  2  0
  9  7  1  0
 10  9  1  0
 11 12  1  0
 10 11  1  1
 12 13  2  0
 12 20  1  0
 13 14  1  0
 14 15  1  0
 15 16  2  0
 16 17  1  0
 18 17  2  0
 19 18  1  0
 20 19  2  0
 20 15  1  0
 21 10  1  0
 21 22  2  0
 23 24  1  0
 24 25  1  0
 25 26  1  0
 27 26  1  6
 27 28  1  0
 28 21  1  0
 29 27  1  0
 30 29  1  0
 31 29  2  0
M  END
$$$$
