MWM.pdb
     RDKit          3D

 31 32  0  0  1  0  0  0  0  0999 V2000
   21.3599  -32.8107  -11.2802 C   0  0  0  0  0  0  0  0  0  0  0  0
   20.2315  -32.6775  -12.6938 S   0  0  0  0  0  0  0  0  0  0  0  0
   21.0155  -33.3463  -14.1901 C   0  0  0  0  0  0  0  0  0  0  0  0
   22.4089  -33.8778  -13.8427 C   0  0  0  0  0  0  0  0  0  0  0  0
   23.4040  -33.4642  -14.9091 C   0  0  2  0  0  0  0  0  0  0  0  0
   23.0760  -34.0299  -16.1919 N   0  0  0  0  0  0  0  0  0  0  0  0
   24.7430  -33.9336  -14.4311 C   0  0  0  0  0  0  0  0  0  0  0  0
   25.0231  -35.1390  -14.3075 O   0  0  0  0  0  0  0  0  0  0  0  0
   25.7091  -32.9771  -14.1139 N   0  0  0  0  0  0  0  0  0  0  0  0
   27.0656  -33.2896  -13.6116 C   0  0  1  0  0  0  0  0  0  0  0  0
   28.0738  -32.5907  -14.4244 C   0  0  0  0  0  0  0  0  0  0  0  0
   28.3041  -33.0866  -15.7855 C   0  0  0  0  0  0  0  0  0  0  0  0
   27.4982  -34.0376  -16.4183 C   0  0  0  0  0  0  0  0  0  0  0  0
   28.0392  -34.2489  -17.6220 N   0  0  0  0  0  0  0  0  0  0  0  0
   29.1374  -33.5027  -17.8156 C   0  0  0  0  0  0  0  0  0  0  0  0
   30.0107  -33.3777  -18.9019 C   0  0  0  0  0  0  0  0  0  0  0  0
   31.0704  -32.4817  -18.7894 C   0  0  0  0  0  0  0  0  0  0  0  0
   31.2181  -31.7634  -17.6324 C   0  0  0  0  0  0  0  0  0  0  0  0
   30.3700  -31.8705  -16.5476 C   0  0  0  0  0  0  0  0  0  0  0  0
   29.3281  -32.7599  -16.6737 C   0  0  0  0  0  0  0  0  0  0  0  0
   27.0229  -33.1553  -12.1714 C   0  0  0  0  0  0  0  0  0  0  0  0
   26.7043  -32.0100  -11.6632 O   0  0  0  0  0  0  0  0  0  0  0  0
   23.0017  -32.2204   -8.7836 C   0  0  0  0  0  0  0  0  0  0  0  0
   24.3381  -31.7230   -7.6657 S   0  0  0  0  0  0  0  0  0  0  0  0
   25.7779  -32.7546   -7.9762 C   0  0  0  0  0  0  0  0  0  0  0  0
   26.0809  -33.0094   -9.4147 C   0  0  0  0  0  0  0  0  0  0  0  0
   27.2376  -33.8544   -9.7402 C   0  0  2  0  0  0  0  0  0  0  0  0
   27.2851  -34.1559  -11.1902 N   0  0  0  0  0  0  0  0  0  0  0  0
   27.4848  -35.0726   -8.9723 C   0  0  0  0  0  0  0  0  0  0  0  0
   27.9035  -35.1071   -7.6669 O   0  0  0  0  0  0  0  0  0  0  0  0
   27.3170  -36.2167   -9.5201 O   0  0  0  0  0  0  0  0  0  0  0  0
  1  2  1  0
  3  2  1  0
  4  3  1  0
  5  4  1  0
  5  6  1  6
  7  5  1  0
  8  7  2  0
  9  7  1  0
 10  9  1  0
 11 12  1  0
 10 11  1  6
 12 13  2  0
 12 20  1  0
 13 14  1  0
 14 15  1  0
 15 16  2  0
 16 17  1  0
 18 17  2  0
 19 18  1  0
 20 19  2  0
 20 15  1  0
 21 10  1  0
 21 22  2  0
 23 24  1  0
 24 25  1  0
 25 26  1  0
 27 26  1  1
 27 28  1  0
 28 21  1  0
 29 27  1  0
 30 29  1  0
 31 29  2  0
M  END
$$$$
