MWM.pdb
     RDKit          3D

 31 32  0  0  1  0  0  0  0  0999 V2000
   26.6299  -16.0578  -15.8186 C   0  0  0  0  0  0  0  0  0  0  0  0
   28.1498  -16.9259  -16.2936 S   0  0  0  0  0  0  0  0  0  0  0  0
   27.7615  -18.6035  -16.8734 C   0  0  0  0  0  0  0  0  0  0  0  0
   27.0055  -19.3604  -15.7778 C   0  0  0  0  0  0  0  0  0  0  0  0
   27.8801  -20.4594  -15.2069 C   0  0  2  0  0  0  0  0  0  0  0  0
   28.1614  -21.4783  -16.1845 N   0  0  0  0  0  0  0  0  0  0  0  0
   27.1329  -21.0173  -14.0354 C   0  0  0  0  0  0  0  0  0  0  0  0
   26.2731  -21.9081  -14.1545 O   0  0  0  0  0  0  0  0  0  0  0  0
   27.4168  -20.5148  -12.7644 N   0  0  0  0  0  0  0  0  0  0  0  0
   26.7189  -20.9242  -11.5254 C   0  0  1  0  0  0  0  0  0  0  0  0
   27.5518  -20.6087  -10.3539 C   0  0  0  0  0  0  0  0  0  0  0  0
   26.8860  -20.5563   -9.0480 C   0  0  0  0  0  0  0  0  0  0  0  0
   25.5389  -20.8690   -8.8437 C   0  0  0  0  0  0  0  0  0  0  0  0
   25.3007  -20.6773   -7.5426 N   0  0  0  0  0  0  0  0  0  0  0  0
   26.3966  -20.2636   -6.8883 C   0  0  0  0  0  0  0  0  0  0  0  0
   26.6293  -19.9547   -5.5434 C   0  0  0  0  0  0  0  0  0  0  0  0
   27.9134  -19.5627   -5.1751 C   0  0  0  0  0  0  0  0  0  0  0  0
   28.8914  -19.4942   -6.1319 C   0  0  0  0  0  0  0  0  0  0  0  0
   28.6853  -19.7932   -7.4644 C   0  0  0  0  0  0  0  0  0  0  0  0
   27.4116  -20.1785   -7.8129 C   0  0  0  0  0  0  0  0  0  0  0  0
   25.3539  -20.4569  -11.6365 C   0  0  0  0  0  0  0  0  0  0  0  0
   25.1431  -19.1998  -11.8526 O   0  0  0  0  0  0  0  0  0  0  0  0
   21.7774  -22.2201  -15.9321 C   0  0  0  0  0  0  0  0  0  0  0  0
   20.4212  -21.2925  -15.1682 S   0  0  0  0  0  0  0  0  0  0  0  0
   20.9628  -20.6696  -13.5706 C   0  0  0  0  0  0  0  0  0  0  0  0
   22.3185  -21.1180  -13.1381 C   0  0  0  0  0  0  0  0  0  0  0  0
   22.8301  -20.6338  -11.8490 C   0  0  2  0  0  0  0  0  0  0  0  0
   24.1554  -21.2239  -11.5470 N   0  0  0  0  0  0  0  0  0  0  0  0
   21.9793  -20.6927  -10.6627 C   0  0  0  0  0  0  0  0  0  0  0  0
   21.0036  -19.7814  -10.3495 O   0  0  0  0  0  0  0  0  0  0  0  0
   22.1240  -21.6456   -9.8210 O   0  0  0  0  0  0  0  0  0  0  0  0
  1  2  1  0
  3  2  1  0
  4  3  1  0
  5  4  1  0
  5  6  1  6
  7  5  1  0
  8  7  2  0
  9  7  1  0
 10  9  1  0
 11 12  1  0
 10 11  1  1
 12 13  2  0
 12 20  1  0
 13 14  1  0
 14 15  1  0
 15 16  2  0
 16 17  1  0
 18 17  2  0
 19 18  1  0
 20 19  2  0
 20 15  1  0
 21 10  1  0
 21 22  2  0
 23 24  1  0
 24 25  1  0
 25 26  1  0
 27 26  1  6
 27 28  1  0
 28 21  1  0
 29 27  1  0
 30 29  1  0
 31 29  2  0
M  END
$$$$
