MWM.pdb
     RDKit          3D

 31 32  0  0  1  0  0  0  0  0999 V2000
   31.6188  -22.6311   -9.9571 C   0  0  0  0  0  0  0  0  0  0  0  0
   32.5444  -21.9638  -11.3668 S   0  0  0  0  0  0  0  0  0  0  0  0
   31.4140  -21.5767  -12.7355 C   0  0  0  0  0  0  0  0  0  0  0  0
   30.1143  -20.9925  -12.1749 C   0  0  0  0  0  0  0  0  0  0  0  0
   29.1364  -20.7236  -13.3019 C   0  0  2  0  0  0  0  0  0  0  0  0
   29.6407  -19.7363  -14.2205 N   0  0  0  0  0  0  0  0  0  0  0  0
   27.8683  -20.2665  -12.6501 C   0  0  0  0  0  0  0  0  0  0  0  0
   27.6604  -19.0764  -12.3551 O   0  0  0  0  0  0  0  0  0  0  0  0
   26.8862  -21.2170  -12.3658 N   0  0  0  0  0  0  0  0  0  0  0  0
   25.6646  -20.9499  -11.5743 C   0  0  1  0  0  0  0  0  0  0  0  0
   24.4912  -21.5167  -12.2579 C   0  0  0  0  0  0  0  0  0  0  0  0
   24.0047  -20.8186  -13.4526 C   0  0  0  0  0  0  0  0  0  0  0  0
   24.5250  -21.0092  -14.7361 C   0  0  0  0  0  0  0  0  0  0  0  0
   23.8491  -20.1855  -15.5428 N   0  0  0  0  0  0  0  0  0  0  0  0
   22.9273  -19.4751  -14.8751 C   0  0  0  0  0  0  0  0  0  0  0  0
   21.9934  -18.5192  -15.2903 C   0  0  0  0  0  0  0  0  0  0  0  0
   21.1487  -17.9696  -14.3296 C   0  0  0  0  0  0  0  0  0  0  0  0
   21.2616  -18.3798  -13.0274 C   0  0  0  0  0  0  0  0  0  0  0  0
   22.1755  -19.3203  -12.5943 C   0  0  0  0  0  0  0  0  0  0  0  0
   23.0032  -19.8538  -13.5548 C   0  0  0  0  0  0  0  0  0  0  0  0
   25.9744  -21.2750  -10.1986 C   0  0  0  0  0  0  0  0  0  0  0  0
   26.4856  -22.4325   -9.9336 O   0  0  0  0  0  0  0  0  0  0  0  0
   29.6403  -19.4384   -4.6969 C   0  0  0  0  0  0  0  0  0  0  0  0
   27.8484  -19.1710   -4.7232 S   0  0  0  0  0  0  0  0  0  0  0  0
   27.2896  -19.1057   -6.4312 C   0  0  0  0  0  0  0  0  0  0  0  0
   27.3462  -20.4006   -7.1701 C   0  0  0  0  0  0  0  0  0  0  0  0
   26.0889  -20.9622   -7.6817 C   0  0  2  0  0  0  0  0  0  0  0  0
   25.7963  -20.4578   -9.0440 N   0  0  0  0  0  0  0  0  0  0  0  0
   24.8814  -20.9031   -6.8613 C   0  0  0  0  0  0  0  0  0  0  0  0
   23.6725  -20.4069   -7.2770 O   0  0  0  0  0  0  0  0  0  0  0  0
   24.9085  -21.3296   -5.6552 O   0  0  0  0  0  0  0  0  0  0  0  0
  1  2  1  0
  3  2  1  0
  4  3  1  0
  5  4  1  0
  5  6  1  6
  7  5  1  0
  8  7  2  0
  9  7  1  0
 10  9  1  0
 11 12  1  0
 10 11  1  6
 12 13  2  0
 12 20  1  0
 13 14  1  0
 14 15  1  0
 15 16  2  0
 16 17  1  0
 18 17  2  0
 19 18  1  0
 20 19  2  0
 20 15  1  0
 21 10  1  0
 21 22  2  0
 23 24  1  0
 24 25  1  0
 25 26  1  0
 27 26  1  1
 27 28  1  0
 28 21  1  0
 29 27  1  0
 30 29  1  0
 31 29  2  0
M  END
$$$$
