MWM.pdb
     RDKit          3D

 31 32  0  0  1  0  0  0  0  0999 V2000
   32.0749  -20.9349  -19.0767 C   0  0  0  0  0  0  0  0  0  0  0  0
   30.9760  -22.1833  -19.7999 S   0  0  0  0  0  0  0  0  0  0  0  0
   29.3148  -22.0550  -19.0753 C   0  0  0  0  0  0  0  0  0  0  0  0
   29.4314  -21.7070  -17.5887 C   0  0  0  0  0  0  0  0  0  0  0  0
   28.2958  -22.3468  -16.8142 C   0  0  2  0  0  0  0  0  0  0  0  0
   27.1528  -22.5961  -17.6534 N   0  0  0  0  0  0  0  0  0  0  0  0
   27.9632  -21.3969  -15.7056 C   0  0  0  0  0  0  0  0  0  0  0  0
   28.8281  -20.9327  -14.9419 O   0  0  0  0  0  0  0  0  0  0  0  0
   26.6303  -21.0219  -15.5281 N   0  0  0  0  0  0  0  0  0  0  0  0
   26.1680  -19.9993  -14.5635 C   0  0  1  0  0  0  0  0  0  0  0  0
   25.5031  -18.8993  -15.2801 C   0  0  0  0  0  0  0  0  0  0  0  0
   26.2984  -17.6990  -15.5596 C   0  0  0  0  0  0  0  0  0  0  0  0
   26.3268  -16.5701  -14.7354 C   0  0  0  0  0  0  0  0  0  0  0  0
   27.1336  -15.6878  -15.3327 N   0  0  0  0  0  0  0  0  0  0  0  0
   27.6311  -16.1635  -16.4845 C   0  0  0  0  0  0  0  0  0  0  0  0
   28.5100  -15.6175  -17.4267 C   0  0  0  0  0  0  0  0  0  0  0  0
   28.8497  -16.3941  -18.5312 C   0  0  0  0  0  0  0  0  0  0  0  0
   28.3170  -17.6501  -18.6541 C   0  0  0  0  0  0  0  0  0  0  0  0
   27.4476  -18.2094  -17.7382 C   0  0  0  0  0  0  0  0  0  0  0  0
   27.1212  -17.4299  -16.6527 C   0  0  0  0  0  0  0  0  0  0  0  0
   25.5173  -20.7051  -13.4807 C   0  0  0  0  0  0  0  0  0  0  0  0
   24.6959  -21.6614  -13.7671 O   0  0  0  0  0  0  0  0  0  0  0  0
   27.1138  -19.5988   -7.5616 C   0  0  0  0  0  0  0  0  0  0  0  0
   27.7656  -21.1629   -8.2033 S   0  0  0  0  0  0  0  0  0  0  0  0
   26.9376  -21.5531   -9.7511 C   0  0  0  0  0  0  0  0  0  0  0  0
   25.4742  -21.2644   -9.7813 C   0  0  0  0  0  0  0  0  0  0  0  0
   24.8107  -21.1830  -11.0894 C   0  0  2  0  0  0  0  0  0  0  0  0
   25.6690  -20.4908  -12.0793 N   0  0  0  0  0  0  0  0  0  0  0  0
   23.4433  -20.6762  -11.1787 C   0  0  0  0  0  0  0  0  0  0  0  0
   22.3264  -21.3501  -10.7557 O   0  0  0  0  0  0  0  0  0  0  0  0
   23.2225  -19.5237  -11.6889 O   0  0  0  0  0  0  0  0  0  0  0  0
  1  2  1  0
  3  2  1  0
  4  3  1  0
  5  4  1  0
  5  6  1  6
  7  5  1  0
  8  7  2  0
  9  7  1  0
 10  9  1  0
 11 12  1  0
 10 11  1  6
 12 13  2  0
 12 20  1  0
 13 14  1  0
 14 15  1  0
 15 16  2  0
 16 17  1  0
 18 17  2  0
 19 18  1  0
 20 19  2  0
 20 15  1  0
 21 10  1  0
 21 22  2  0
 23 24  1  0
 24 25  1  0
 25 26  1  0
 27 26  1  1
 27 28  1  0
 28 21  1  0
 29 27  1  0
 30 29  1  0
 31 29  2  0
M  END
$$$$
