MWM.pdb
     RDKit          3D

 31 32  0  0  1  0  0  0  0  0999 V2000
   26.2834  -30.0199  -17.2884 C   0  0  0  0  0  0  0  0  0  0  0  0
   26.9013  -28.4504  -16.6218 S   0  0  0  0  0  0  0  0  0  0  0  0
   25.5424  -27.2547  -16.4651 C   0  0  0  0  0  0  0  0  0  0  0  0
   26.0721  -25.9578  -15.8468 C   0  0  0  0  0  0  0  0  0  0  0  0
   25.8943  -24.8079  -16.8188 C   0  0  2  0  0  0  0  0  0  0  0  0
   26.7096  -24.9727  -17.9939 N   0  0  0  0  0  0  0  0  0  0  0  0
   26.2649  -23.5677  -16.0661 C   0  0  0  0  0  0  0  0  0  0  0  0
   27.3840  -23.0347  -16.1669 O   0  0  0  0  0  0  0  0  0  0  0  0
   25.3138  -22.9929  -15.2212 N   0  0  0  0  0  0  0  0  0  0  0  0
   25.4609  -21.6735  -14.5674 C   0  0  1  0  0  0  0  0  0  0  0  0
   24.6310  -20.6757  -15.2611 C   0  0  0  0  0  0  0  0  0  0  0  0
   24.9215  -19.2612  -15.0038 C   0  0  0  0  0  0  0  0  0  0  0  0
   23.9797  -18.3427  -14.5308 C   0  0  0  0  0  0  0  0  0  0  0  0
   24.6079  -17.1657  -14.4517 N   0  0  0  0  0  0  0  0  0  0  0  0
   25.8896  -17.2550  -14.8386 C   0  0  0  0  0  0  0  0  0  0  0  0
   26.9188  -16.3096  -14.9110 C   0  0  0  0  0  0  0  0  0  0  0  0
   28.1697  -16.7368  -15.3482 C   0  0  0  0  0  0  0  0  0  0  0  0
   28.3454  -18.0521  -15.6881 C   0  0  0  0  0  0  0  0  0  0  0  0
   27.3451  -19.0024  -15.6257 C   0  0  0  0  0  0  0  0  0  0  0  0
   26.1149  -18.5651  -15.1922 C   0  0  0  0  0  0  0  0  0  0  0  0
   25.3517  -21.8951  -13.1416 C   0  0  0  0  0  0  0  0  0  0  0  0
   24.4012  -22.6528  -12.7014 O   0  0  0  0  0  0  0  0  0  0  0  0
   27.0916  -19.3539   -5.7621 C   0  0  0  0  0  0  0  0  0  0  0  0
   27.6679  -19.5504   -7.4687 S   0  0  0  0  0  0  0  0  0  0  0  0
   26.3686  -20.3244   -8.4416 C   0  0  0  0  0  0  0  0  0  0  0  0
   26.7150  -20.5936   -9.8676 C   0  0  0  0  0  0  0  0  0  0  0  0
   25.7137  -21.2618  -10.7098 C   0  0  2  0  0  0  0  0  0  0  0  0
   26.1885  -21.3802  -12.1084 N   0  0  0  0  0  0  0  0  0  0  0  0
   24.3280  -20.7992  -10.6942 C   0  0  0  0  0  0  0  0  0  0  0  0
   23.3634  -21.2364   -9.8230 O   0  0  0  0  0  0  0  0  0  0  0  0
   23.9379  -19.9251  -11.5435 O   0  0  0  0  0  0  0  0  0  0  0  0
  1  2  1  0
  3  2  1  0
  4  3  1  0
  5  4  1  0
  5  6  1  6
  7  5  1  0
  8  7  2  0
  9  7  1  0
 10  9  1  0
 11 12  1  0
 10 11  1  6
 12 13  2  0
 12 20  1  0
 13 14  1  0
 14 15  1  0
 15 16  2  0
 16 17  1  0
 18 17  2  0
 19 18  1  0
 20 19  2  0
 20 15  1  0
 21 10  1  0
 21 22  2  0
 23 24  1  0
 24 25  1  0
 25 26  1  0
 27 26  1  1
 27 28  1  0
 28 21  1  0
 29 27  1  0
 30 29  1  0
 31 29  2  0
M  END
$$$$
