MWM.pdb
     RDKit          3D

 31 32  0  0  1  0  0  0  0  0999 V2000
   24.1894  -17.3587  -18.4602 C   0  0  0  0  0  0  0  0  0  0  0  0
   25.6876  -17.1557  -19.4619 S   0  0  0  0  0  0  0  0  0  0  0  0
   26.3850  -18.7786  -19.8873 C   0  0  0  0  0  0  0  0  0  0  0  0
   26.2119  -19.7349  -18.7040 C   0  0  0  0  0  0  0  0  0  0  0  0
   27.5651  -20.0876  -18.1182 C   0  0  2  0  0  0  0  0  0  0  0  0
   28.3179  -20.9462  -18.9952 N   0  0  0  0  0  0  0  0  0  0  0  0
   27.2880  -20.7540  -16.8064 C   0  0  0  0  0  0  0  0  0  0  0  0
   27.0057  -21.9620  -16.7175 O   0  0  0  0  0  0  0  0  0  0  0  0
   27.3506  -19.9851  -15.6430 N   0  0  0  0  0  0  0  0  0  0  0  0
   27.1538  -20.5153  -14.2755 C   0  0  1  0  0  0  0  0  0  0  0  0
   27.9970  -19.7735  -13.3246 C   0  0  0  0  0  0  0  0  0  0  0  0
   28.0760  -20.2853  -11.9522 C   0  0  0  0  0  0  0  0  0  0  0  0
   29.1359  -21.0552  -11.4644 C   0  0  0  0  0  0  0  0  0  0  0  0
   28.8352  -21.3495  -10.1958 N   0  0  0  0  0  0  0  0  0  0  0  0
   27.6569  -20.8251   -9.8257 C   0  0  0  0  0  0  0  0  0  0  0  0
   26.9516  -20.8547   -8.6174 C   0  0  0  0  0  0  0  0  0  0  0  0
   25.7353  -20.1802   -8.5534 C   0  0  0  0  0  0  0  0  0  0  0  0
   25.2783  -19.5198   -9.6631 C   0  0  0  0  0  0  0  0  0  0  0  0
   25.9560  -19.4774  -10.8658 C   0  0  0  0  0  0  0  0  0  0  0  0
   27.1558  -20.1487  -10.9136 C   0  0  0  0  0  0  0  0  0  0  0  0
   25.7269  -20.6547  -14.0789 C   0  0  0  0  0  0  0  0  0  0  0  0
   24.9398  -19.7626  -14.5849 O   0  0  0  0  0  0  0  0  0  0  0  0
   24.9278  -25.2968  -16.7544 C   0  0  0  0  0  0  0  0  0  0  0  0
   24.6585  -24.7482  -15.0487 S   0  0  0  0  0  0  0  0  0  0  0  0
   23.3613  -23.5030  -15.0303 C   0  0  0  0  0  0  0  0  0  0  0  0
   22.9969  -22.9824  -13.6804 C   0  0  0  0  0  0  0  0  0  0  0  0
   23.5588  -21.6916  -13.2605 C   0  0  2  0  0  0  0  0  0  0  0  0
   25.0355  -21.6891  -13.3827 N   0  0  0  0  0  0  0  0  0  0  0  0
   23.1666  -21.1128  -11.9777 C   0  0  0  0  0  0  0  0  0  0  0  0
   21.8971  -20.7078  -11.6537 O   0  0  0  0  0  0  0  0  0  0  0  0
   24.0416  -20.9465  -11.0590 O   0  0  0  0  0  0  0  0  0  0  0  0
  1  2  1  0
  3  2  1  0
  4  3  1  0
  5  4  1  0
  5  6  1  6
  7  5  1  0
  8  7  2  0
  9  7  1  0
 10  9  1  0
 11 12  1  0
 10 11  1  1
 12 13  2  0
 12 20  1  0
 13 14  1  0
 14 15  1  0
 15 16  2  0
 16 17  1  0
 18 17  2  0
 19 18  1  0
 20 19  2  0
 20 15  1  0
 21 10  1  0
 21 22  2  0
 23 24  1  0
 24 25  1  0
 25 26  1  0
 27 26  1  1
 27 28  1  0
 28 21  1  0
 29 27  1  0
 30 29  1  0
 31 29  2  0
M  END
$$$$
