MWM.pdb
     RDKit          3D

 31 32  0  0  1  0  0  0  0  0999 V2000
   28.1709  -25.6741  -17.6089 C   0  0  0  0  0  0  0  0  0  0  0  0
   28.3292  -23.9836  -18.2463 S   0  0  0  0  0  0  0  0  0  0  0  0
   29.0135  -22.8901  -16.9668 C   0  0  0  0  0  0  0  0  0  0  0  0
   28.1618  -22.9926  -15.6984 C   0  0  0  0  0  0  0  0  0  0  0  0
   27.0933  -21.9170  -15.7012 C   0  0  2  0  0  0  0  0  0  0  0  0
   27.6500  -20.6137  -15.9553 N   0  0  0  0  0  0  0  0  0  0  0  0
   26.4392  -21.9790  -14.3558 C   0  0  0  0  0  0  0  0  0  0  0  0
   25.9433  -23.0254  -13.9019 O   0  0  0  0  0  0  0  0  0  0  0  0
   26.3874  -20.8151  -13.5868 N   0  0  0  0  0  0  0  0  0  0  0  0
   25.6851  -20.6975  -12.2895 C   0  0  1  0  0  0  0  0  0  0  0  0
   26.4254  -19.7886  -11.3999 C   0  0  0  0  0  0  0  0  0  0  0  0
   27.5174  -20.3630  -10.6068 C   0  0  0  0  0  0  0  0  0  0  0  0
   28.5620  -21.1195  -11.1462 C   0  0  0  0  0  0  0  0  0  0  0  0
   29.3331  -21.4845  -10.1175 N   0  0  0  0  0  0  0  0  0  0  0  0
   28.8643  -21.0185   -8.9498 C   0  0  0  0  0  0  0  0  0  0  0  0
   29.3326  -21.1301   -7.6358 C   0  0  0  0  0  0  0  0  0  0  0  0
   28.6076  -20.5008   -6.6275 C   0  0  0  0  0  0  0  0  0  0  0  0
   27.4749  -19.8034   -6.9546 C   0  0  0  0  0  0  0  0  0  0  0  0
   26.9933  -19.6802   -8.2431 C   0  0  0  0  0  0  0  0  0  0  0  0
   27.7200  -20.3077   -9.2283 C   0  0  0  0  0  0  0  0  0  0  0  0
   24.2830  -20.4971  -12.5860 C   0  0  0  0  0  0  0  0  0  0  0  0
   23.9610  -19.8294  -13.6451 O   0  0  0  0  0  0  0  0  0  0  0  0
   18.9130  -21.9812  -16.9560 C   0  0  0  0  0  0  0  0  0  0  0  0
   20.5460  -22.1444  -16.1880 S   0  0  0  0  0  0  0  0  0  0  0  0
   20.4685  -21.5165  -14.5048 C   0  0  0  0  0  0  0  0  0  0  0  0
   21.7733  -21.4656  -13.7830 C   0  0  0  0  0  0  0  0  0  0  0  0
   21.7877  -20.9330  -12.4140 C   0  0  2  0  0  0  0  0  0  0  0  0
   23.1561  -20.9617  -11.8463 N   0  0  0  0  0  0  0  0  0  0  0  0
   20.8321  -21.4361  -11.4300 C   0  0  0  0  0  0  0  0  0  0  0  0
   21.1434  -22.2725  -10.3888 O   0  0  0  0  0  0  0  0  0  0  0  0
   19.5993  -21.1026  -11.5099 O   0  0  0  0  0  0  0  0  0  0  0  0
  1  2  1  0
  3  2  1  0
  4  3  1  0
  5  4  1  0
  5  6  1  1
  7  5  1  0
  8  7  2  0
  9  7  1  0
 10  9  1  0
 11 12  1  0
 10 11  1  6
 12 13  2  0
 12 20  1  0
 13 14  1  0
 14 15  1  0
 15 16  2  0
 16 17  1  0
 18 17  2  0
 19 18  1  0
 20 19  2  0
 20 15  1  0
 21 10  1  0
 21 22  2  0
 23 24  1  0
 24 25  1  0
 25 26  1  0
 27 26  1  6
 27 28  1  0
 28 21  1  0
 29 27  1  0
 30 29  1  0
 31 29  2  0
M  END
$$$$
