MWM.pdb
     RDKit          3D

 31 32  0  0  1  0  0  0  0  0999 V2000
   19.8801  -17.0893  -20.3532 C   0  0  0  0  0  0  0  0  0  0  0  0
   21.6290  -17.3727  -20.7409 S   0  0  0  0  0  0  0  0  0  0  0  0
   21.8574  -19.0342  -21.4398 C   0  0  0  0  0  0  0  0  0  0  0  0
   21.4522  -20.0849  -20.4022 C   0  0  0  0  0  0  0  0  0  0  0  0
   22.3650  -20.0021  -19.1945 C   0  0  2  0  0  0  0  0  0  0  0  0
   23.6976  -20.4521  -19.5021 N   0  0  0  0  0  0  0  0  0  0  0  0
   21.7316  -20.8522  -18.1371 C   0  0  0  0  0  0  0  0  0  0  0  0
   21.2746  -21.9841  -18.3752 O   0  0  0  0  0  0  0  0  0  0  0  0
   21.6544  -20.3496  -16.8370 N   0  0  0  0  0  0  0  0  0  0  0  0
   21.0249  -21.0574  -15.7001 C   0  0  1  0  0  0  0  0  0  0  0  0
   21.6395  -20.6210  -14.4363 C   0  0  0  0  0  0  0  0  0  0  0  0
   21.0679  -21.1467  -13.1919 C   0  0  0  0  0  0  0  0  0  0  0  0
   20.9525  -22.5086  -12.8984 C   0  0  0  0  0  0  0  0  0  0  0  0
   20.3643  -22.5874  -11.7009 N   0  0  0  0  0  0  0  0  0  0  0  0
   20.0907  -21.3745  -11.1963 C   0  0  0  0  0  0  0  0  0  0  0  0
   19.5047  -20.9662   -9.9930 C   0  0  0  0  0  0  0  0  0  0  0  0
   19.3769  -19.5998   -9.7584 C   0  0  0  0  0  0  0  0  0  0  0  0
   19.8242  -18.7148  -10.7035 C   0  0  0  0  0  0  0  0  0  0  0  0
   20.4046  -19.0941  -11.8980 C   0  0  0  0  0  0  0  0  0  0  0  0
   20.5236  -20.4472  -12.1155 C   0  0  0  0  0  0  0  0  0  0  0  0
   19.5941  -21.0019  -15.9093 C   0  0  0  0  0  0  0  0  0  0  0  0
   19.0691  -19.8955  -16.3237 O   0  0  0  0  0  0  0  0  0  0  0  0
   15.3151  -24.9205  -18.6079 C   0  0  0  0  0  0  0  0  0  0  0  0
   14.2354  -24.3201  -17.2824 S   0  0  0  0  0  0  0  0  0  0  0  0
   14.9975  -22.8871  -16.5082 C   0  0  0  0  0  0  0  0  0  0  0  0
   16.4715  -22.9845  -16.2987 C   0  0  0  0  0  0  0  0  0  0  0  0
   17.1834  -21.7930  -15.8174 C   0  0  2  0  0  0  0  0  0  0  0  0
   18.6405  -22.0454  -15.7238 N   0  0  0  0  0  0  0  0  0  0  0  0
   16.7203  -21.1090  -14.6123 C   0  0  0  0  0  0  0  0  0  0  0  0
   15.7970  -20.0953  -14.5899 O   0  0  0  0  0  0  0  0  0  0  0  0
   17.1888  -21.4433  -13.4695 O   0  0  0  0  0  0  0  0  0  0  0  0
  1  2  1  0
  3  2  1  0
  4  3  1  0
  5  4  1  0
  5  6  1  6
  7  5  1  0
  8  7  2  0
  9  7  1  0
 10  9  1  0
 11 12  1  0
 10 11  1  1
 12 13  2  0
 12 20  1  0
 13 14  1  0
 14 15  1  0
 15 16  2  0
 16 17  1  0
 18 17  2  0
 19 18  1  0
 20 19  2  0
 20 15  1  0
 21 10  1  0
 21 22  2  0
 23 24  1  0
 24 25  1  0
 25 26  1  0
 27 26  1  1
 27 28  1  0
 28 21  1  0
 29 27  1  0
 30 29  1  0
 31 29  2  0
M  END
$$$$
