MWM.pdb
     RDKit          3D

 31 32  0  0  1  0  0  0  0  0999 V2000
   26.1116  -26.1559  -17.4890 C   0  0  0  0  0  0  0  0  0  0  0  0
   26.4934  -24.5445  -18.2286 S   0  0  0  0  0  0  0  0  0  0  0  0
   27.8952  -23.7732  -17.3679 C   0  0  0  0  0  0  0  0  0  0  0  0
   27.5107  -23.4957  -15.9119 C   0  0  0  0  0  0  0  0  0  0  0  0
   26.3791  -22.4882  -15.8559 C   0  0  2  0  0  0  0  0  0  0  0  0
   26.7896  -21.1983  -16.3467 N   0  0  0  0  0  0  0  0  0  0  0  0
   25.9571  -22.4180  -14.4210 C   0  0  0  0  0  0  0  0  0  0  0  0
   25.6819  -23.4320  -13.7556 O   0  0  0  0  0  0  0  0  0  0  0  0
   25.8716  -21.1643  -13.8131 N   0  0  0  0  0  0  0  0  0  0  0  0
   25.4503  -20.9382  -12.4126 C   0  0  1  0  0  0  0  0  0  0  0  0
   26.3555  -19.9742  -11.7669 C   0  0  0  0  0  0  0  0  0  0  0  0
   27.3414  -20.5055  -10.8197 C   0  0  0  0  0  0  0  0  0  0  0  0
   28.4224  -21.3125  -11.1863 C   0  0  0  0  0  0  0  0  0  0  0  0
   29.0681  -21.6139  -10.0556 N   0  0  0  0  0  0  0  0  0  0  0  0
   28.4841  -21.0597   -8.9822 C   0  0  0  0  0  0  0  0  0  0  0  0
   28.8030  -21.0839   -7.6198 C   0  0  0  0  0  0  0  0  0  0  0  0
   27.9854  -20.3747   -6.7441 C   0  0  0  0  0  0  0  0  0  0  0  0
   26.9105  -19.6871   -7.2423 C   0  0  0  0  0  0  0  0  0  0  0  0
   26.5758  -19.6493   -8.5817 C   0  0  0  0  0  0  0  0  0  0  0  0
   27.3927  -20.3551   -9.4344 C   0  0  0  0  0  0  0  0  0  0  0  0
   24.0168  -20.7418  -12.4303 C   0  0  0  0  0  0  0  0  0  0  0  0
   23.4758  -20.2055  -13.4749 O   0  0  0  0  0  0  0  0  0  0  0  0
   21.1432  -24.0841   -7.2346 C   0  0  0  0  0  0  0  0  0  0  0  0
   20.3732  -22.6910   -8.1003 S   0  0  0  0  0  0  0  0  0  0  0  0
   21.2925  -22.3571   -9.6093 C   0  0  0  0  0  0  0  0  0  0  0  0
   20.8939  -21.1172  -10.3371 C   0  0  0  0  0  0  0  0  0  0  0  0
   21.6336  -20.7604  -11.5552 C   0  0  2  0  0  0  0  0  0  0  0  0
   23.0736  -21.0807  -11.4162 N   0  0  0  0  0  0  0  0  0  0  0  0
   21.4757  -19.4290  -12.1357 C   0  0  0  0  0  0  0  0  0  0  0  0
   22.2702  -18.3483  -11.8506 O   0  0  0  0  0  0  0  0  0  0  0  0
   20.5345  -19.2062  -12.9734 O   0  0  0  0  0  0  0  0  0  0  0  0
  1  2  1  0
  3  2  1  0
  4  3  1  0
  5  4  1  0
  5  6  1  1
  7  5  1  0
  8  7  2  0
  9  7  1  0
 10  9  1  0
 11 12  1  0
 10 11  1  6
 12 13  2  0
 12 20  1  0
 13 14  1  0
 14 15  1  0
 15 16  2  0
 16 17  1  0
 18 17  2  0
 19 18  1  0
 20 19  2  0
 20 15  1  0
 21 10  1  0
 21 22  2  0
 23 24  1  0
 24 25  1  0
 25 26  1  0
 27 26  1  1
 27 28  1  0
 28 21  1  0
 29 27  1  0
 30 29  1  0
 31 29  2  0
M  END
$$$$
