MWM.pdb
     RDKit          3D

 31 32  0  0  1  0  0  0  0  0999 V2000
   26.2947  -17.2409  -16.5500 C   0  0  0  0  0  0  0  0  0  0  0  0
   28.1075  -17.2025  -16.5895 S   0  0  0  0  0  0  0  0  0  0  0  0
   28.7816  -18.8263  -16.1315 C   0  0  0  0  0  0  0  0  0  0  0  0
   27.8592  -19.4914  -15.1060 C   0  0  0  0  0  0  0  0  0  0  0  0
   28.5953  -20.6079  -14.3917 C   0  0  2  0  0  0  0  0  0  0  0  0
   28.8982  -21.6999  -15.2799 N   0  0  0  0  0  0  0  0  0  0  0  0
   27.7007  -21.0451  -13.2734 C   0  0  0  0  0  0  0  0  0  0  0  0
   26.6486  -21.6788  -13.4686 O   0  0  0  0  0  0  0  0  0  0  0  0
   28.0673  -20.7265  -11.9646 N   0  0  0  0  0  0  0  0  0  0  0  0
   27.2359  -20.9981  -10.7709 C   0  0  1  0  0  0  0  0  0  0  0  0
   27.9613  -20.5996   -9.5542 C   0  0  0  0  0  0  0  0  0  0  0  0
   27.2057  -20.5725   -8.2973 C   0  0  0  0  0  0  0  0  0  0  0  0
   25.8264  -20.7825   -8.2093 C   0  0  0  0  0  0  0  0  0  0  0  0
   25.5072  -20.6526   -6.9180 N   0  0  0  0  0  0  0  0  0  0  0  0
   26.5804  -20.3743   -6.1622 C   0  0  0  0  0  0  0  0  0  0  0  0
   26.7352  -20.1704   -4.7864 C   0  0  0  0  0  0  0  0  0  0  0  0
   28.0152  -19.9119   -4.3036 C   0  0  0  0  0  0  0  0  0  0  0  0
   29.0646  -19.8668   -5.1829 C   0  0  0  0  0  0  0  0  0  0  0  0
   28.9360  -20.0639   -6.5438 C   0  0  0  0  0  0  0  0  0  0  0  0
   27.6654  -20.3179   -7.0058 C   0  0  0  0  0  0  0  0  0  0  0  0
   25.9074  -20.5032  -11.0612 C   0  0  0  0  0  0  0  0  0  0  0  0
   25.7761  -19.2914  -11.4921 O   0  0  0  0  0  0  0  0  0  0  0  0
   19.8761  -21.2495  -15.6562 C   0  0  0  0  0  0  0  0  0  0  0  0
   21.4122  -21.8895  -14.9393 S   0  0  0  0  0  0  0  0  0  0  0  0
   21.7710  -20.9919  -13.4230 C   0  0  0  0  0  0  0  0  0  0  0  0
   23.0602  -21.3479  -12.7618 C   0  0  0  0  0  0  0  0  0  0  0  0
   23.4142  -20.6555  -11.5154 C   0  0  2  0  0  0  0  0  0  0  0  0
   24.6683  -21.1985  -10.9428 N   0  0  0  0  0  0  0  0  0  0  0  0
   22.4138  -20.5023  -10.4617 C   0  0  0  0  0  0  0  0  0  0  0  0
   21.3132  -19.6875  -10.5356 O   0  0  0  0  0  0  0  0  0  0  0  0
   22.5361  -21.1532   -9.3668 O   0  0  0  0  0  0  0  0  0  0  0  0
  1  2  1  0
  3  2  1  0
  4  3  1  0
  5  4  1  0
  5  6  1  6
  7  5  1  0
  8  7  2  0
  9  7  1  0
 10  9  1  0
 11 12  1  0
 10 11  1  1
 12 13  2  0
 12 20  1  0
 13 14  1  0
 14 15  1  0
 15 16  2  0
 16 17  1  0
 18 17  2  0
 19 18  1  0
 20 19  2  0
 20 15  1  0
 21 10  1  0
 21 22  2  0
 23 24  1  0
 24 25  1  0
 25 26  1  0
 27 26  1  6
 27 28  1  0
 28 21  1  0
 29 27  1  0
 30 29  1  0
 31 29  2  0
M  END
$$$$
