MWM.pdb
     RDKit          3D

 31 32  0  0  1  0  0  0  0  0999 V2000
   22.1129  -20.7092  -16.1732 C   0  0  0  0  0  0  0  0  0  0  0  0
   23.2812  -19.5616  -16.9525 S   0  0  0  0  0  0  0  0  0  0  0  0
   24.9279  -19.7356  -16.2046 C   0  0  0  0  0  0  0  0  0  0  0  0
   24.8836  -20.8124  -15.1168 C   0  0  0  0  0  0  0  0  0  0  0  0
   26.2358  -20.9238  -14.4401 C   0  0  2  0  0  0  0  0  0  0  0  0
   27.0782  -21.8942  -15.0895 N   0  0  0  0  0  0  0  0  0  0  0  0
   25.9580  -21.3050  -13.0191 C   0  0  0  0  0  0  0  0  0  0  0  0
   25.7415  -22.4798  -12.6729 O   0  0  0  0  0  0  0  0  0  0  0  0
   25.9432  -20.2993  -12.0510 N   0  0  0  0  0  0  0  0  0  0  0  0
   25.7629  -20.5335  -10.6010 C   0  0  1  0  0  0  0  0  0  0  0  0
   26.6648  -19.6575   -9.8363 C   0  0  0  0  0  0  0  0  0  0  0  0
   27.2672  -20.2089   -8.6179 C   0  0  0  0  0  0  0  0  0  0  0  0
   27.7501  -21.5161   -8.5066 C   0  0  0  0  0  0  0  0  0  0  0  0
   28.1907  -21.6494   -7.2519 N   0  0  0  0  0  0  0  0  0  0  0  0
   28.0291  -20.5225   -6.5418 C   0  0  0  0  0  0  0  0  0  0  0  0
   28.3464  -20.1893   -5.2202 C   0  0  0  0  0  0  0  0  0  0  0  0
   28.0585  -18.8989   -4.7839 C   0  0  0  0  0  0  0  0  0  0  0  0
   27.4814  -18.0125   -5.6543 C   0  0  0  0  0  0  0  0  0  0  0  0
   27.1587  -18.3186   -6.9618 C   0  0  0  0  0  0  0  0  0  0  0  0
   27.4488  -19.5972   -7.3781 C   0  0  0  0  0  0  0  0  0  0  0  0
   24.3375  -20.5609  -10.3526 C   0  0  0  0  0  0  0  0  0  0  0  0
   23.5544  -19.9171  -11.1549 O   0  0  0  0  0  0  0  0  0  0  0  0
   17.9476  -23.5234   -6.5642 C   0  0  0  0  0  0  0  0  0  0  0  0
   19.7518  -23.5362   -6.7313 S   0  0  0  0  0  0  0  0  0  0  0  0
   20.2326  -22.3514   -7.9957 C   0  0  0  0  0  0  0  0  0  0  0  0
   21.7025  -22.2059   -8.2066 C   0  0  0  0  0  0  0  0  0  0  0  0
   22.1639  -21.3109   -9.2762 C   0  0  2  0  0  0  0  0  0  0  0  0
   23.6435  -21.2364   -9.3063 N   0  0  0  0  0  0  0  0  0  0  0  0
   21.5976  -19.9692   -9.3939 C   0  0  0  0  0  0  0  0  0  0  0  0
   20.5623  -19.6234  -10.2240 O   0  0  0  0  0  0  0  0  0  0  0  0
   22.0762  -19.0114   -8.6932 O   0  0  0  0  0  0  0  0  0  0  0  0
  1  2  1  0
  3  2  1  0
  4  3  1  0
  5  4  1  0
  5  6  1  6
  7  5  1  0
  8  7  2  0
  9  7  1  0
 10  9  1  0
 11 12  1  0
 10 11  1  1
 12 13  2  0
 12 20  1  0
 13 14  1  0
 14 15  1  0
 15 16  2  0
 16 17  1  0
 18 17  2  0
 19 18  1  0
 20 19  2  0
 20 15  1  0
 21 10  1  0
 21 22  2  0
 23 24  1  0
 24 25  1  0
 25 26  1  0
 27 26  1  1
 27 28  1  0
 28 21  1  0
 29 27  1  0
 30 29  1  0
 31 29  2  0
M  END
$$$$
