MWM.pdb
     RDKit          3D

 31 32  0  0  1  0  0  0  0  0999 V2000
   26.0340  -17.6783  -16.8297 C   0  0  0  0  0  0  0  0  0  0  0  0
   27.8395  -17.5160  -16.7736 S   0  0  0  0  0  0  0  0  0  0  0  0
   28.5856  -19.0219  -16.0832 C   0  0  0  0  0  0  0  0  0  0  0  0
   27.6289  -19.6440  -15.0621 C   0  0  0  0  0  0  0  0  0  0  0  0
   28.2140  -20.9332  -14.5196 C   0  0  2  0  0  0  0  0  0  0  0  0
   28.2065  -21.9794  -15.5088 N   0  0  0  0  0  0  0  0  0  0  0  0
   27.3802  -21.2989  -13.3310 C   0  0  0  0  0  0  0  0  0  0  0  0
   26.3259  -21.9511  -13.4300 O   0  0  0  0  0  0  0  0  0  0  0  0
   27.8080  -20.8896  -12.0668 N   0  0  0  0  0  0  0  0  0  0  0  0
   27.0141  -21.0316  -10.8260 C   0  0  1  0  0  0  0  0  0  0  0  0
   27.8712  -20.7952   -9.6533 C   0  0  0  0  0  0  0  0  0  0  0  0
   27.2095  -20.6573   -8.3516 C   0  0  0  0  0  0  0  0  0  0  0  0
   25.8370  -20.8301   -8.1496 C   0  0  0  0  0  0  0  0  0  0  0  0
   25.6147  -20.5965   -6.8526 N   0  0  0  0  0  0  0  0  0  0  0  0
   26.7444  -20.2856   -6.1987 C   0  0  0  0  0  0  0  0  0  0  0  0
   27.0022  -19.9822   -4.8572 C   0  0  0  0  0  0  0  0  0  0  0  0
   28.3179  -19.7160   -4.4880 C   0  0  0  0  0  0  0  0  0  0  0  0
   29.3012  -19.7599   -5.4408 C   0  0  0  0  0  0  0  0  0  0  0  0
   29.0708  -20.0560   -6.7699 C   0  0  0  0  0  0  0  0  0  0  0  0
   27.7660  -20.3164   -7.1194 C   0  0  0  0  0  0  0  0  0  0  0  0
   25.7822  -20.2996  -11.0278 C   0  0  0  0  0  0  0  0  0  0  0  0
   25.8374  -19.1280  -11.5714 O   0  0  0  0  0  0  0  0  0  0  0  0
   23.6121  -21.9297  -15.8876 C   0  0  0  0  0  0  0  0  0  0  0  0
   23.1993  -20.1739  -15.7143 S   0  0  0  0  0  0  0  0  0  0  0  0
   22.7851  -19.8348  -13.9976 C   0  0  0  0  0  0  0  0  0  0  0  0
   23.6313  -20.5348  -12.9877 C   0  0  0  0  0  0  0  0  0  0  0  0
   23.3020  -20.3601  -11.5668 C   0  0  2  0  0  0  0  0  0  0  0  0
   24.4558  -20.7117  -10.7061 N   0  0  0  0  0  0  0  0  0  0  0  0
   22.0814  -20.9545  -11.0268 C   0  0  0  0  0  0  0  0  0  0  0  0
   20.8391  -20.3756  -11.0717 O   0  0  0  0  0  0  0  0  0  0  0  0
   22.1284  -22.0979  -10.4542 O   0  0  0  0  0  0  0  0  0  0  0  0
  1  2  1  0
  3  2  1  0
  4  3  1  0
  5  4  1  0
  5  6  1  6
  7  5  1  0
  8  7  2  0
  9  7  1  0
 10  9  1  0
 11 12  1  0
 10 11  1  1
 12 13  2  0
 12 20  1  0
 13 14  1  0
 14 15  1  0
 15 16  2  0
 16 17  1  0
 18 17  2  0
 19 18  1  0
 20 19  2  0
 20 15  1  0
 21 10  1  0
 21 22  2  0
 23 24  1  0
 24 25  1  0
 25 26  1  0
 27 26  1  6
 27 28  1  0
 28 21  1  0
 29 27  1  0
 30 29  1  0
 31 29  2  0
M  END
$$$$
