HWQ.pdb
     RDKit          3D

 34 36  0  0  1  0  0  0  0  0999 V2000
    9.2602  -18.1812   19.9409 N   0  0  0  0  0  0  0  0  0  0  0  0
   10.1121  -17.0484   20.2070 C   0  0  1  0  0  0  0  0  0  0  0  0
    9.8464  -15.9401   19.2384 C   0  0  0  0  0  0  0  0  0  0  0  0
   10.0324  -16.4629   17.8601 C   0  0  0  0  0  0  0  0  0  0  0  0
   11.2473  -16.7467   17.2478 C   0  0  0  0  0  0  0  0  0  0  0  0
   11.0340  -17.2023   16.0034 N   0  0  0  0  0  0  0  0  0  0  0  0
    9.7072  -17.2131   15.8140 C   0  0  0  0  0  0  0  0  0  0  0  0
    9.0889  -16.7675   16.9314 N   0  0  0  0  0  0  0  0  0  0  0  0
   10.0329  -16.6084   21.6213 C   0  0  0  0  0  0  0  0  0  0  0  0
   10.8407  -15.7217   22.0063 O   0  0  0  0  0  0  0  0  0  0  0  0
    9.0793  -17.1703   22.5032 N   0  0  0  0  0  0  0  0  0  0  0  0
    9.0802  -16.7855   23.8840 C   0  0  1  0  0  0  0  0  0  0  0  0
    7.6558  -16.5009   24.2675 C   0  0  0  0  0  0  0  0  0  0  0  0
    7.3052  -15.0708   24.2349 C   0  0  0  0  0  0  0  0  0  0  0  0
    6.7385  -14.4222   23.1247 C   0  0  0  0  0  0  0  0  0  0  0  0
    6.5090  -13.1370   23.4177 N   0  0  0  0  0  0  0  0  0  0  0  0
    6.9056  -12.8928   24.6998 C   0  0  0  0  0  0  0  0  0  0  0  0
    6.8852  -11.7467   25.4568 C   0  0  0  0  0  0  0  0  0  0  0  0
    7.3555  -11.7527   26.7410 C   0  0  0  0  0  0  0  0  0  0  0  0
    7.8477  -12.9243   27.2569 C   0  0  0  0  0  0  0  0  0  0  0  0
    7.8645  -14.0680   26.4921 C   0  0  0  0  0  0  0  0  0  0  0  0
    7.3974  -14.1012   25.1927 C   0  0  0  0  0  0  0  0  0  0  0  0
    9.8387  -17.6386   24.7866 C   0  0  0  0  0  0  0  0  0  0  0  0
    9.5625  -18.8869   24.7514 O   0  0  0  0  0  0  0  0  0  0  0  0
   15.7453  -18.8439   25.6309 N   0  0  0  0  0  0  0  0  0  0  0  0
   14.9903  -19.4508   26.6514 C   0  0  0  0  0  0  0  0  0  0  0  0
   15.3352  -20.6271   27.0195 O   0  0  0  0  0  0  0  0  0  0  0  0
   13.8420  -18.8143   27.3194 C   0  0  0  0  0  0  0  0  0  0  0  0
   12.9649  -17.9645   26.4996 C   0  0  0  0  0  0  0  0  0  0  0  0
   11.4924  -18.2404   26.5558 C   0  0  2  0  0  0  0  0  0  0  0  0
   10.8285  -17.2152   25.6767 N   0  0  0  0  0  0  0  0  0  0  0  0
   10.8827  -18.1643   27.8828 C   0  0  0  0  0  0  0  0  0  0  0  0
   10.3010  -17.1516   28.3295 O   0  0  0  0  0  0  0  0  0  0  0  0
   10.9250  -19.2716   28.7508 O   0  0  0  0  0  0  0  0  0  0  0  0
  2  1  1  1
  2  9  1  0
  2  3  1  0
  3  4  1  0
  4  8  1  0
  5  6  1  0
  5  4  2  0
  6  7  1  0
  7  8  2  0
  9 10  2  0
 11 12  1  0
 11  9  1  0
 13 14  1  0
 12 13  1  1
 14 15  2  0
 16 15  1  0
 17 16  1  0
 18 17  2  0
 19 18  1  0
 20 19  2  0
 20 21  1  0
 21 22  2  0
 22 17  1  0
 22 14  1  0
 23 24  2  0
 23 12  1  0
 25 26  1  0
 26 28  1  0
 26 27  2  0
 28 29  1  0
 30 29  1  1
 30 32  1  0
 30 31  1  0
 31 23  1  0
 32 34  1  0
 33 32  2  0
M  END
$$$$
