HWQ.pdb
     RDKit          3D

 34 36  0  0  1  0  0  0  0  0999 V2000
   11.4257  -16.5125   18.6654 N   0  0  0  0  0  0  0  0  0  0  0  0
   10.5429  -17.2046   19.5718 C   0  0  1  0  0  0  0  0  0  0  0  0
   11.0062  -18.6080   19.8023 C   0  0  0  0  0  0  0  0  0  0  0  0
   10.6348  -19.4279   18.6201 C   0  0  0  0  0  0  0  0  0  0  0  0
    9.6140  -19.1515   17.7185 C   0  0  0  0  0  0  0  0  0  0  0  0
    9.5673  -20.1072   16.7773 N   0  0  0  0  0  0  0  0  0  0  0  0
   10.5389  -20.9850   17.0640 C   0  0  0  0  0  0  0  0  0  0  0  0
   11.1930  -20.5849   18.1783 N   0  0  0  0  0  0  0  0  0  0  0  0
   10.3340  -16.4527   20.8332 C   0  0  0  0  0  0  0  0  0  0  0  0
   11.3460  -15.9534   21.3933 O   0  0  0  0  0  0  0  0  0  0  0  0
    9.0386  -16.3053   21.3835 N   0  0  0  0  0  0  0  0  0  0  0  0
    8.8866  -15.7444   22.6937 C   0  0  1  0  0  0  0  0  0  0  0  0
    7.4183  -15.5123   22.9109 C   0  0  0  0  0  0  0  0  0  0  0  0
    7.0996  -14.8887   24.2065 C   0  0  0  0  0  0  0  0  0  0  0  0
    6.6001  -15.5887   25.3178 C   0  0  0  0  0  0  0  0  0  0  0  0
    6.4425  -14.7510   26.3491 N   0  0  0  0  0  0  0  0  0  0  0  0
    6.8216  -13.4971   25.9688 C   0  0  0  0  0  0  0  0  0  0  0  0
    6.8419  -12.3053   26.6516 C   0  0  0  0  0  0  0  0  0  0  0  0
    7.2657  -11.1589   26.0378 C   0  0  0  0  0  0  0  0  0  0  0  0
    7.6690  -11.2230   24.7285 C   0  0  0  0  0  0  0  0  0  0  0  0
    7.6458  -12.4208   24.0517 C   0  0  0  0  0  0  0  0  0  0  0  0
    7.2257  -13.5987   24.6378 C   0  0  0  0  0  0  0  0  0  0  0  0
    9.6042  -16.4171   23.7663 C   0  0  0  0  0  0  0  0  0  0  0  0
    9.6841  -17.6907   23.6819 O   0  0  0  0  0  0  0  0  0  0  0  0
   11.9995  -15.8969   29.7943 N   0  0  0  0  0  0  0  0  0  0  0  0
   10.8496  -15.2695   29.2809 C   0  0  0  0  0  0  0  0  0  0  0  0
   10.0630  -14.7047   30.1179 O   0  0  0  0  0  0  0  0  0  0  0  0
   10.5055  -15.2187   27.8495 C   0  0  0  0  0  0  0  0  0  0  0  0
   11.5027  -15.7232   26.8930 C   0  0  0  0  0  0  0  0  0  0  0  0
   11.0154  -16.6408   25.8122 C   0  0  2  0  0  0  0  0  0  0  0  0
   10.2041  -15.7981   24.8655 N   0  0  0  0  0  0  0  0  0  0  0  0
   10.1813  -17.7571   26.2555 C   0  0  0  0  0  0  0  0  0  0  0  0
   10.6317  -18.8559   26.6468 O   0  0  0  0  0  0  0  0  0  0  0  0
    8.7786  -17.6397   26.2621 O   0  0  0  0  0  0  0  0  0  0  0  0
  2  1  1  6
  2  9  1  0
  2  3  1  0
  3  4  1  0
  4  8  1  0
  5  6  1  0
  5  4  2  0
  6  7  1  0
  7  8  2  0
  9 10  2  0
 11 12  1  0
 11  9  1  0
 13 14  1  0
 12 13  1  1
 14 15  2  0
 16 15  1  0
 17 16  1  0
 18 17  2  0
 19 18  1  0
 20 19  2  0
 20 21  1  0
 21 22  2  0
 22 17  1  0
 22 14  1  0
 23 24  2  0
 23 12  1  0
 25 26  1  0
 26 28  1  0
 26 27  2  0
 28 29  1  0
 30 29  1  1
 30 32  1  0
 30 31  1  0
 31 23  1  0
 32 34  1  0
 33 32  2  0
M  END
$$$$
