HWQ.pdb
     RDKit          3D

 34 36  0  0  1  0  0  0  0  0999 V2000
    9.7592  -16.7281   18.3844 N   0  0  0  0  0  0  0  0  0  0  0  0
    9.0423  -17.4012   19.4393 C   0  0  1  0  0  0  0  0  0  0  0  0
    9.4192  -18.8472   19.5039 C   0  0  0  0  0  0  0  0  0  0  0  0
    8.9343  -19.5172   18.2696 C   0  0  0  0  0  0  0  0  0  0  0  0
    7.7585  -19.2278   17.5874 C   0  0  0  0  0  0  0  0  0  0  0  0
    7.6443  -20.0299   16.5174 N   0  0  0  0  0  0  0  0  0  0  0  0
    8.7249  -20.8229   16.5071 C   0  0  0  0  0  0  0  0  0  0  0  0
    9.5144  -20.5223   17.5634 N   0  0  0  0  0  0  0  0  0  0  0  0
    9.1861  -16.7098   20.7436 C   0  0  0  0  0  0  0  0  0  0  0  0
   10.3422  -16.3522   21.0941 O   0  0  0  0  0  0  0  0  0  0  0  0
    8.0582  -16.4635   21.5620 N   0  0  0  0  0  0  0  0  0  0  0  0
    8.2451  -15.9566   22.8897 C   0  0  1  0  0  0  0  0  0  0  0  0
    6.8914  -15.5675   23.4122 C   0  0  0  0  0  0  0  0  0  0  0  0
    6.9108  -15.0578   24.7939 C   0  0  0  0  0  0  0  0  0  0  0  0
    6.8012  -15.8690   25.9360 C   0  0  0  0  0  0  0  0  0  0  0  0
    6.8836  -15.1151   27.0383 N   0  0  0  0  0  0  0  0  0  0  0  0
    7.0463  -13.8100   26.6764 C   0  0  0  0  0  0  0  0  0  0  0  0
    7.1736  -12.6660   27.4262 C   0  0  0  0  0  0  0  0  0  0  0  0
    7.3203  -11.4492   26.8194 C   0  0  0  0  0  0  0  0  0  0  0  0
    7.3372  -11.3941   25.4491 C   0  0  0  0  0  0  0  0  0  0  0  0
    7.2092  -12.5446   24.7053 C   0  0  0  0  0  0  0  0  0  0  0  0
    7.0605  -13.7908   25.2820 C   0  0  0  0  0  0  0  0  0  0  0  0
    9.0759  -16.7621   23.7723 C   0  0  0  0  0  0  0  0  0  0  0  0
    8.8776  -18.0251   23.7396 O   0  0  0  0  0  0  0  0  0  0  0  0
   14.7986  -15.7624   24.0739 N   0  0  0  0  0  0  0  0  0  0  0  0
   13.9975  -16.5833   23.2590 C   0  0  0  0  0  0  0  0  0  0  0  0
   14.3786  -16.7659   22.0508 O   0  0  0  0  0  0  0  0  0  0  0  0
   12.7619  -17.2443   23.7131 C   0  0  0  0  0  0  0  0  0  0  0  0
   12.3175  -16.9809   25.0904 C   0  0  0  0  0  0  0  0  0  0  0  0
   10.8830  -17.2696   25.4167 C   0  0  2  0  0  0  0  0  0  0  0  0
   10.0574  -16.2790   24.6410 N   0  0  0  0  0  0  0  0  0  0  0  0
   10.5185  -17.1582   26.8284 C   0  0  0  0  0  0  0  0  0  0  0  0
    9.7112  -16.3164   27.2792 O   0  0  0  0  0  0  0  0  0  0  0  0
   11.0821  -18.0283   27.7805 O   0  0  0  0  0  0  0  0  0  0  0  0
  2  1  1  6
  2  9  1  0
  2  3  1  0
  3  4  1  0
  4  8  1  0
  5  6  1  0
  5  4  2  0
  6  7  1  0
  7  8  2  0
  9 10  2  0
 11 12  1  0
 11  9  1  0
 13 14  1  0
 12 13  1  1
 14 15  2  0
 16 15  1  0
 17 16  1  0
 18 17  2  0
 19 18  1  0
 20 19  2  0
 20 21  1  0
 21 22  2  0
 22 17  1  0
 22 14  1  0
 23 24  2  0
 23 12  1  0
 25 26  1  0
 26 28  1  0
 26 27  2  0
 28 29  1  0
 30 29  1  1
 30 32  1  0
 30 31  1  0
 31 23  1  0
 32 34  1  0
 33 32  2  0
M  END
$$$$
