HWQ.pdb
     RDKit          3D

 34 36  0  0  1  0  0  0  0  0999 V2000
   10.9442  -16.7250   18.6630 N   0  0  0  0  0  0  0  0  0  0  0  0
    9.8851  -17.2175   19.5090 C   0  0  1  0  0  0  0  0  0  0  0  0
    9.9665  -18.7036   19.6575 C   0  0  0  0  0  0  0  0  0  0  0  0
    9.6441  -19.3273   18.3480 C   0  0  0  0  0  0  0  0  0  0  0  0
    9.0716  -18.6887   17.2544 C   0  0  0  0  0  0  0  0  0  0  0  0
    8.9257  -19.5600   16.2440 N   0  0  0  0  0  0  0  0  0  0  0  0
    9.3945  -20.7393   16.6750 C   0  0  0  0  0  0  0  0  0  0  0  0
    9.8328  -20.6118   17.9482 N   0  0  0  0  0  0  0  0  0  0  0  0
    9.8350  -16.5105   20.8120 C   0  0  0  0  0  0  0  0  0  0  0  0
   10.9264  -16.1437   21.3232 O   0  0  0  0  0  0  0  0  0  0  0  0
    8.5989  -16.2600   21.4539 N   0  0  0  0  0  0  0  0  0  0  0  0
    8.5884  -15.7283   22.7850 C   0  0  1  0  0  0  0  0  0  0  0  0
    7.1811  -15.2922   23.0789 C   0  0  0  0  0  0  0  0  0  0  0  0
    6.9868  -14.7943   24.4513 C   0  0  0  0  0  0  0  0  0  0  0  0
    6.5243  -15.5824   25.5187 C   0  0  0  0  0  0  0  0  0  0  0  0
    6.4848  -14.8519   26.6390 N   0  0  0  0  0  0  0  0  0  0  0  0
    6.9084  -13.5852   26.3622 C   0  0  0  0  0  0  0  0  0  0  0  0
    7.0429  -12.4750   27.1599 C   0  0  0  0  0  0  0  0  0  0  0  0
    7.4892  -11.2927   26.6372 C   0  0  0  0  0  0  0  0  0  0  0  0
    7.7990  -11.2376   25.3023 C   0  0  0  0  0  0  0  0  0  0  0  0
    7.6616  -12.3542   24.5101 C   0  0  0  0  0  0  0  0  0  0  0  0
    7.2154  -13.5653   25.0018 C   0  0  0  0  0  0  0  0  0  0  0  0
    9.2452  -16.5349   23.8027 C   0  0  0  0  0  0  0  0  0  0  0  0
    8.9126  -17.7689   23.8486 O   0  0  0  0  0  0  0  0  0  0  0  0
   14.5287  -16.7847   22.3435 N   0  0  0  0  0  0  0  0  0  0  0  0
   14.0644  -16.5668   23.6538 C   0  0  0  0  0  0  0  0  0  0  0  0
   14.5559  -15.5745   24.2957 O   0  0  0  0  0  0  0  0  0  0  0  0
   13.0502  -17.4016   24.3203 C   0  0  0  0  0  0  0  0  0  0  0  0
   12.3550  -16.8273   25.4824 C   0  0  0  0  0  0  0  0  0  0  0  0
   10.8836  -17.0892   25.6015 C   0  0  2  0  0  0  0  0  0  0  0  0
   10.1945  -16.0814   24.7217 N   0  0  0  0  0  0  0  0  0  0  0  0
   10.3254  -16.9739   26.9480 C   0  0  0  0  0  0  0  0  0  0  0  0
    9.7518  -15.9516   27.3835 O   0  0  0  0  0  0  0  0  0  0  0  0
   10.4119  -18.0511   27.8499 O   0  0  0  0  0  0  0  0  0  0  0  0
  2  1  1  1
  2  9  1  0
  2  3  1  0
  3  4  1  0
  4  8  1  0
  5  6  1  0
  5  4  2  0
  6  7  1  0
  7  8  2  0
  9 10  2  0
 11 12  1  0
 11  9  1  0
 13 14  1  0
 12 13  1  1
 14 15  2  0
 16 15  1  0
 17 16  1  0
 18 17  2  0
 19 18  1  0
 20 19  2  0
 20 21  1  0
 21 22  2  0
 22 17  1  0
 22 14  1  0
 23 24  2  0
 23 12  1  0
 25 26  1  0
 26 28  1  0
 26 27  2  0
 28 29  1  0
 30 29  1  1
 30 32  1  0
 30 31  1  0
 31 23  1  0
 32 34  1  0
 33 32  2  0
M  END
$$$$
