HWQ.pdb
     RDKit          3D

 34 36  0  0  1  0  0  0  0  0999 V2000
    9.4126  -18.1033   19.0063 N   0  0  0  0  0  0  0  0  0  0  0  0
    8.3813  -17.9350   20.0002 C   0  0  1  0  0  0  0  0  0  0  0  0
    7.6575  -19.2211   20.2431 C   0  0  0  0  0  0  0  0  0  0  0  0
    6.6570  -19.4113   19.1611 C   0  0  0  0  0  0  0  0  0  0  0  0
    6.4199  -18.5436   18.1018 C   0  0  0  0  0  0  0  0  0  0  0  0
    5.4472  -19.0364   17.3192 N   0  0  0  0  0  0  0  0  0  0  0  0
    5.0623  -20.2002   17.8613 C   0  0  0  0  0  0  0  0  0  0  0  0
    5.7876  -20.4389   18.9777 N   0  0  0  0  0  0  0  0  0  0  0  0
    8.9004  -17.3221   21.2472 C   0  0  0  0  0  0  0  0  0  0  0  0
   10.1031  -17.5405   21.5522 O   0  0  0  0  0  0  0  0  0  0  0  0
    8.0669  -16.5201   22.0625 N   0  0  0  0  0  0  0  0  0  0  0  0
    8.5925  -15.9534   23.2697 C   0  0  1  0  0  0  0  0  0  0  0  0
    7.8813  -14.6495   23.4957 C   0  0  0  0  0  0  0  0  0  0  0  0
    8.1012  -14.0759   24.8343 C   0  0  0  0  0  0  0  0  0  0  0  0
    9.2442  -14.3128   25.6165 C   0  0  0  0  0  0  0  0  0  0  0  0
    9.1599  -13.6282   26.7630 N   0  0  0  0  0  0  0  0  0  0  0  0
    7.9878  -12.9309   26.7825 C   0  0  0  0  0  0  0  0  0  0  0  0
    7.4407  -12.0953   27.7256 C   0  0  0  0  0  0  0  0  0  0  0  0
    6.2234  -11.5091   27.5134 C   0  0  0  0  0  0  0  0  0  0  0  0
    5.5606  -11.7722   26.3419 C   0  0  0  0  0  0  0  0  0  0  0  0
    6.1156  -12.6102   25.4022 C   0  0  0  0  0  0  0  0  0  0  0  0
    7.3425  -13.2193   25.5802 C   0  0  0  0  0  0  0  0  0  0  0  0
    8.6843  -16.8505   24.4120 C   0  0  0  0  0  0  0  0  0  0  0  0
    7.5909  -17.3912   24.7963 O   0  0  0  0  0  0  0  0  0  0  0  0
   13.1834  -18.9571   23.9048 N   0  0  0  0  0  0  0  0  0  0  0  0
   12.0552  -19.7466   23.6155 C   0  0  0  0  0  0  0  0  0  0  0  0
   12.0387  -20.3621   22.4935 O   0  0  0  0  0  0  0  0  0  0  0  0
   10.9067  -19.9102   24.5233 C   0  0  0  0  0  0  0  0  0  0  0  0
   10.9487  -19.1943   25.8076 C   0  0  0  0  0  0  0  0  0  0  0  0
    9.8019  -18.2818   26.1235 C   0  0  2  0  0  0  0  0  0  0  0  0
    9.8494  -17.1658   25.1150 N   0  0  0  0  0  0  0  0  0  0  0  0
    9.8130  -17.6877   27.4596 C   0  0  0  0  0  0  0  0  0  0  0  0
    9.9338  -16.4629   27.6807 O   0  0  0  0  0  0  0  0  0  0  0  0
    9.6830  -18.5001   28.6016 O   0  0  0  0  0  0  0  0  0  0  0  0
  2  1  1  6
  2  9  1  0
  2  3  1  0
  3  4  1  0
  4  8  1  0
  5  6  1  0
  5  4  2  0
  6  7  1  0
  7  8  2  0
  9 10  2  0
 11 12  1  0
 11  9  1  0
 13 14  1  0
 12 13  1  1
 14 15  2  0
 16 15  1  0
 17 16  1  0
 18 17  2  0
 19 18  1  0
 20 19  2  0
 20 21  1  0
 21 22  2  0
 22 17  1  0
 22 14  1  0
 23 24  2  0
 23 12  1  0
 25 26  1  0
 26 28  1  0
 26 27  2  0
 28 29  1  0
 30 29  1  1
 30 32  1  0
 30 31  1  0
 31 23  1  0
 32 34  1  0
 33 32  2  0
M  END
$$$$
