HWQ.pdb
     RDKit          3D

 34 36  0  0  1  0  0  0  0  0999 V2000
    9.8489  -17.0022   18.4598 N   0  0  0  0  0  0  0  0  0  0  0  0
    8.7892  -17.2156   19.4144 C   0  0  1  0  0  0  0  0  0  0  0  0
    8.4424  -18.6673   19.5128 C   0  0  0  0  0  0  0  0  0  0  0  0
    7.8008  -19.0866   18.2399 C   0  0  0  0  0  0  0  0  0  0  0  0
    7.6541  -18.3060   17.0995 C   0  0  0  0  0  0  0  0  0  0  0  0
    7.0287  -19.0105   16.1434 N   0  0  0  0  0  0  0  0  0  0  0  0
    6.7757  -20.2233   16.6549 C   0  0  0  0  0  0  0  0  0  0  0  0
    7.2384  -20.2824   17.9245 N   0  0  0  0  0  0  0  0  0  0  0  0
    9.0915  -16.6053   20.7321 C   0  0  0  0  0  0  0  0  0  0  0  0
   10.2950  -16.5758   21.1031 O   0  0  0  0  0  0  0  0  0  0  0  0
    8.0575  -16.0759   21.5403 N   0  0  0  0  0  0  0  0  0  0  0  0
    8.3778  -15.5106   22.8179 C   0  0  1  0  0  0  0  0  0  0  0  0
    7.1655  -14.7584   23.2884 C   0  0  0  0  0  0  0  0  0  0  0  0
    7.2236  -14.3628   24.7059 C   0  0  0  0  0  0  0  0  0  0  0  0
    7.5276  -15.2422   25.7589 C   0  0  0  0  0  0  0  0  0  0  0  0
    7.5315  -14.5767   26.9197 N   0  0  0  0  0  0  0  0  0  0  0  0
    7.2373  -13.2656   26.6846 C   0  0  0  0  0  0  0  0  0  0  0  0
    7.1154  -12.1931   27.5342 C   0  0  0  0  0  0  0  0  0  0  0  0
    6.7984  -10.9541   27.0495 C   0  0  0  0  0  0  0  0  0  0  0  0
    6.6046  -10.8044   25.7000 C   0  0  0  0  0  0  0  0  0  0  0  0
    6.7287  -11.8838   24.8558 C   0  0  0  0  0  0  0  0  0  0  0  0
    7.0485  -13.1492   25.3078 C   0  0  0  0  0  0  0  0  0  0  0  0
    8.9989  -16.4096   23.7792 C   0  0  0  0  0  0  0  0  0  0  0  0
    8.4578  -17.5612   23.9086 O   0  0  0  0  0  0  0  0  0  0  0  0
   14.3215  -18.2583   22.8667 N   0  0  0  0  0  0  0  0  0  0  0  0
   14.2815  -18.6098   24.2285 C   0  0  0  0  0  0  0  0  0  0  0  0
   15.1585  -19.4422   24.6483 O   0  0  0  0  0  0  0  0  0  0  0  0
   13.3033  -18.0750   25.1914 C   0  0  0  0  0  0  0  0  0  0  0  0
   12.3155  -17.1075   24.6895 C   0  0  0  0  0  0  0  0  0  0  0  0
   10.8981  -17.2713   25.1494 C   0  0  2  0  0  0  0  0  0  0  0  0
   10.1199  -16.1248   24.5624 N   0  0  0  0  0  0  0  0  0  0  0  0
   10.6958  -17.2634   26.5977 C   0  0  0  0  0  0  0  0  0  0  0  0
   10.1231  -16.3425   27.2201 O   0  0  0  0  0  0  0  0  0  0  0  0
   11.1548  -18.3347   27.3869 O   0  0  0  0  0  0  0  0  0  0  0  0
  2  1  1  6
  2  9  1  0
  2  3  1  0
  3  4  1  0
  4  8  1  0
  5  6  1  0
  5  4  2  0
  6  7  1  0
  7  8  2  0
  9 10  2  0
 11 12  1  0
 11  9  1  0
 13 14  1  0
 12 13  1  1
 14 15  2  0
 16 15  1  0
 17 16  1  0
 18 17  2  0
 19 18  1  0
 20 19  2  0
 20 21  1  0
 21 22  2  0
 22 17  1  0
 22 14  1  0
 23 24  2  0
 23 12  1  0
 25 26  1  0
 26 28  1  0
 26 27  2  0
 28 29  1  0
 30 29  1  1
 30 32  1  0
 30 31  1  0
 31 23  1  0
 32 34  1  0
 33 32  2  0
M  END
$$$$
