HWQ.pdb
     RDKit          3D

 34 36  0  0  1  0  0  0  0  0999 V2000
   12.0732  -16.8098   19.1464 N   0  0  0  0  0  0  0  0  0  0  0  0
   10.9779  -17.4364   19.8447 C   0  0  1  0  0  0  0  0  0  0  0  0
   11.2611  -18.8836   20.0948 C   0  0  0  0  0  0  0  0  0  0  0  0
   10.9850  -19.6412   18.8467 C   0  0  0  0  0  0  0  0  0  0  0  0
   10.5986  -19.0990   17.6269 C   0  0  0  0  0  0  0  0  0  0  0  0
   10.4389  -20.0789   16.7237 N   0  0  0  0  0  0  0  0  0  0  0  0
   10.7164  -21.2327   17.3467 C   0  0  0  0  0  0  0  0  0  0  0  0
   11.0487  -20.9813   18.6336 N   0  0  0  0  0  0  0  0  0  0  0  0
   10.6064  -16.7009   21.0780 C   0  0  0  0  0  0  0  0  0  0  0  0
   11.5380  -16.2970   21.8237 O   0  0  0  0  0  0  0  0  0  0  0  0
    9.2489  -16.4644   21.4002 N   0  0  0  0  0  0  0  0  0  0  0  0
    8.9082  -15.9528   22.6951 C   0  0  1  0  0  0  0  0  0  0  0  0
    7.4677  -15.5297   22.6415 C   0  0  0  0  0  0  0  0  0  0  0  0
    6.9442  -15.0361   23.9267 C   0  0  0  0  0  0  0  0  0  0  0  0
    6.2038  -15.8176   24.8298 C   0  0  0  0  0  0  0  0  0  0  0  0
    5.9007  -15.0943   25.9139 N   0  0  0  0  0  0  0  0  0  0  0  0
    6.4154  -13.8391   25.7724 C   0  0  0  0  0  0  0  0  0  0  0  0
    6.3729  -12.7393   26.5944 C   0  0  0  0  0  0  0  0  0  0  0  0
    6.9698  -11.5672   26.2198 C   0  0  0  0  0  0  0  0  0  0  0  0
    7.6105  -11.5119   25.0084 C   0  0  0  0  0  0  0  0  0  0  0  0
    7.6486  -12.6180   24.1909 C   0  0  0  0  0  0  0  0  0  0  0  0
    7.0589  -13.8186   24.5352 C   0  0  0  0  0  0  0  0  0  0  0  0
    9.3038  -16.7707   23.8319 C   0  0  0  0  0  0  0  0  0  0  0  0
    9.2534  -18.0374   23.6627 O   0  0  0  0  0  0  0  0  0  0  0  0
   11.1528  -13.3754   28.7313 N   0  0  0  0  0  0  0  0  0  0  0  0
   10.7505  -14.7079   28.9368 C   0  0  0  0  0  0  0  0  0  0  0  0
   10.9815  -15.2227   30.0857 O   0  0  0  0  0  0  0  0  0  0  0  0
   10.0789  -15.5344   27.9191 C   0  0  0  0  0  0  0  0  0  0  0  0
   10.9055  -16.4911   27.1675 C   0  0  0  0  0  0  0  0  0  0  0  0
   10.2294  -17.2863   26.0912 C   0  0  2  0  0  0  0  0  0  0  0  0
    9.7272  -16.2959   25.0755 N   0  0  0  0  0  0  0  0  0  0  0  0
    9.0989  -18.1068   26.5235 C   0  0  0  0  0  0  0  0  0  0  0  0
    7.9050  -17.8539   26.2508 O   0  0  0  0  0  0  0  0  0  0  0  0
    9.3125  -19.2636   27.2963 O   0  0  0  0  0  0  0  0  0  0  0  0
  2  1  1  1
  2  9  1  0
  2  3  1  0
  3  4  1  0
  4  8  1  0
  5  6  1  0
  5  4  2  0
  6  7  1  0
  7  8  2  0
  9 10  2  0
 11 12  1  0
 11  9  1  0
 13 14  1  0
 12 13  1  6
 14 15  2  0
 16 15  1  0
 17 16  1  0
 18 17  2  0
 19 18  1  0
 20 19  2  0
 20 21  1  0
 21 22  2  0
 22 17  1  0
 22 14  1  0
 23 24  2  0
 23 12  1  0
 25 26  1  0
 26 28  1  0
 26 27  2  0
 28 29  1  0
 30 29  1  1
 30 32  1  0
 30 31  1  0
 31 23  1  0
 32 34  1  0
 33 32  2  0
M  END
$$$$
