HWQ.pdb
     RDKit          3D

 34 36  0  0  1  0  0  0  0  0999 V2000
   11.1612  -15.5398   18.6674 N   0  0  0  0  0  0  0  0  0  0  0  0
    9.8139  -15.3911   19.1597 C   0  0  1  0  0  0  0  0  0  0  0  0
    8.8965  -16.3808   18.5147 C   0  0  0  0  0  0  0  0  0  0  0  0
    8.4875  -15.8507   17.1883 C   0  0  0  0  0  0  0  0  0  0  0  0
    8.1461  -14.5345   16.9010 C   0  0  0  0  0  0  0  0  0  0  0  0
    7.8313  -14.4195   15.6014 N   0  0  0  0  0  0  0  0  0  0  0  0
    7.9663  -15.6373   15.0580 C   0  0  0  0  0  0  0  0  0  0  0  0
    8.3634  -16.5134   16.0089 N   0  0  0  0  0  0  0  0  0  0  0  0
    9.7519  -15.4289   20.6412 C   0  0  0  0  0  0  0  0  0  0  0  0
   10.7896  -15.7799   21.2634 O   0  0  0  0  0  0  0  0  0  0  0  0
    8.5634  -15.0813   21.3263 N   0  0  0  0  0  0  0  0  0  0  0  0
    8.5686  -15.0062   22.7577 C   0  0  1  0  0  0  0  0  0  0  0  0
    7.3120  -14.2938   23.1706 C   0  0  0  0  0  0  0  0  0  0  0  0
    7.1217  -14.2197   24.6292 C   0  0  0  0  0  0  0  0  0  0  0  0
    6.8163  -15.3241   25.4424 C   0  0  0  0  0  0  0  0  0  0  0  0
    6.7375  -14.9386   26.7213 N   0  0  0  0  0  0  0  0  0  0  0  0
    6.9810  -13.5988   26.8003 C   0  0  0  0  0  0  0  0  0  0  0  0
    7.0100  -12.7400   27.8721 C   0  0  0  0  0  0  0  0  0  0  0  0
    7.2750  -11.4105   27.6914 C   0  0  0  0  0  0  0  0  0  0  0  0
    7.5103  -10.9524   26.4203 C   0  0  0  0  0  0  0  0  0  0  0  0
    7.4795  -11.8192   25.3521 C   0  0  0  0  0  0  0  0  0  0  0  0
    7.2168  -13.1676   25.4951 C   0  0  0  0  0  0  0  0  0  0  0  0
    8.8778  -16.2409   23.4633 C   0  0  0  0  0  0  0  0  0  0  0  0
    8.1044  -17.2331   23.2333 O   0  0  0  0  0  0  0  0  0  0  0  0
   13.0286  -19.6858   21.6962 N   0  0  0  0  0  0  0  0  0  0  0  0
   13.0529  -19.1042   22.9772 C   0  0  0  0  0  0  0  0  0  0  0  0
   13.9328  -19.5324   23.8021 O   0  0  0  0  0  0  0  0  0  0  0  0
   12.1386  -18.0363   23.4171 C   0  0  0  0  0  0  0  0  0  0  0  0
   11.5852  -18.1334   24.7765 C   0  0  0  0  0  0  0  0  0  0  0  0
   10.1346  -17.7987   24.9535 C   0  0  2  0  0  0  0  0  0  0  0  0
    9.9328  -16.4311   24.3589 N   0  0  0  0  0  0  0  0  0  0  0  0
    9.6540  -17.7692   26.3343 C   0  0  0  0  0  0  0  0  0  0  0  0
    9.2687  -16.7338   26.9200 O   0  0  0  0  0  0  0  0  0  0  0  0
    9.6014  -18.9519   27.0957 O   0  0  0  0  0  0  0  0  0  0  0  0
  2  1  1  1
  2  9  1  0
  2  3  1  0
  3  4  1  0
  4  8  1  0
  5  6  1  0
  5  4  2  0
  6  7  1  0
  7  8  2  0
  9 10  2  0
 11 12  1  0
 11  9  1  0
 13 14  1  0
 12 13  1  1
 14 15  2  0
 16 15  1  0
 17 16  1  0
 18 17  2  0
 19 18  1  0
 20 19  2  0
 20 21  1  0
 21 22  2  0
 22 17  1  0
 22 14  1  0
 23 24  2  0
 23 12  1  0
 25 26  1  0
 26 28  1  0
 26 27  2  0
 28 29  1  0
 30 29  1  1
 30 32  1  0
 30 31  1  0
 31 23  1  0
 32 34  1  0
 33 32  2  0
M  END
$$$$
