HWQ.pdb
     RDKit          3D

 34 36  0  0  1  0  0  0  0  0999 V2000
   10.6249  -16.5505   18.3025 N   0  0  0  0  0  0  0  0  0  0  0  0
   10.5903  -17.3944   19.4714 C   0  0  1  0  0  0  0  0  0  0  0  0
   11.8558  -18.1811   19.6008 C   0  0  0  0  0  0  0  0  0  0  0  0
   12.0094  -19.0305   18.3914 C   0  0  0  0  0  0  0  0  0  0  0  0
   11.0024  -19.7549   17.7649 C   0  0  0  0  0  0  0  0  0  0  0  0
   11.5030  -20.4045   16.7023 N   0  0  0  0  0  0  0  0  0  0  0  0
   12.8083  -20.1063   16.6423 C   0  0  0  0  0  0  0  0  0  0  0  0
   13.1278  -19.2746   17.6600 N   0  0  0  0  0  0  0  0  0  0  0  0
   10.2564  -16.6346   20.7008 C   0  0  0  0  0  0  0  0  0  0  0  0
   11.0565  -15.7341   21.0697 O   0  0  0  0  0  0  0  0  0  0  0  0
    9.0770  -16.9171   21.4300 N   0  0  0  0  0  0  0  0  0  0  0  0
    8.8136  -16.2115   22.6496 C   0  0  1  0  0  0  0  0  0  0  0  0
    7.3216  -16.1004   22.7861 C   0  0  0  0  0  0  0  0  0  0  0  0
    6.8869  -15.3705   23.9893 C   0  0  0  0  0  0  0  0  0  0  0  0
    6.2963  -15.9777   25.1104 C   0  0  0  0  0  0  0  0  0  0  0  0
    6.0439  -15.0554   26.0463 N   0  0  0  0  0  0  0  0  0  0  0  0
    6.4472  -13.8344   25.5912 C   0  0  0  0  0  0  0  0  0  0  0  0
    6.4004  -12.5874   26.1655 C   0  0  0  0  0  0  0  0  0  0  0  0
    6.8694  -11.4933   25.4922 C   0  0  0  0  0  0  0  0  0  0  0  0
    7.3862  -11.6658   24.2335 C   0  0  0  0  0  0  0  0  0  0  0  0
    7.4296  -12.9183   23.6654 C   0  0  0  0  0  0  0  0  0  0  0  0
    6.9670  -14.0463   24.3145 C   0  0  0  0  0  0  0  0  0  0  0  0
    9.5419  -16.6674   23.8241 C   0  0  0  0  0  0  0  0  0  0  0  0
    9.7782  -17.9225   23.8916 O   0  0  0  0  0  0  0  0  0  0  0  0
   10.5219  -13.7489   29.5278 N   0  0  0  0  0  0  0  0  0  0  0  0
   10.8791  -15.1045   29.6479 C   0  0  0  0  0  0  0  0  0  0  0  0
   11.0720  -15.5607   30.8281 O   0  0  0  0  0  0  0  0  0  0  0  0
   11.0349  -16.0221   28.5061 C   0  0  0  0  0  0  0  0  0  0  0  0
   10.5564  -15.5609   27.1940 C   0  0  0  0  0  0  0  0  0  0  0  0
   10.6675  -16.5191   26.0463 C   0  0  2  0  0  0  0  0  0  0  0  0
    9.9976  -15.8615   24.8701 N   0  0  0  0  0  0  0  0  0  0  0  0
   10.0470  -17.8275   26.2496 C   0  0  0  0  0  0  0  0  0  0  0  0
    8.8240  -18.0511   26.1161 O   0  0  0  0  0  0  0  0  0  0  0  0
   10.8296  -18.9376   26.6190 O   0  0  0  0  0  0  0  0  0  0  0  0
  2  1  1  6
  2  9  1  0
  2  3  1  0
  3  4  1  0
  4  8  1  0
  5  6  1  0
  5  4  2  0
  6  7  1  0
  7  8  2  0
  9 10  2  0
 11 12  1  0
 11  9  1  0
 13 14  1  0
 12 13  1  1
 14 15  2  0
 16 15  1  0
 17 16  1  0
 18 17  2  0
 19 18  1  0
 20 19  2  0
 20 21  1  0
 21 22  2  0
 22 17  1  0
 22 14  1  0
 23 24  2  0
 23 12  1  0
 25 26  1  0
 26 28  1  0
 26 27  2  0
 28 29  1  0
 30 29  1  1
 30 32  1  0
 30 31  1  0
 31 23  1  0
 32 34  1  0
 33 32  2  0
M  END
$$$$
