HWQ.pdb
     RDKit          3D

 34 36  0  0  1  0  0  0  0  0999 V2000
   11.1372  -15.9724   18.4334 N   0  0  0  0  0  0  0  0  0  0  0  0
    9.9393  -16.3493   19.1424 C   0  0  1  0  0  0  0  0  0  0  0  0
    9.7160  -17.8264   19.0678 C   0  0  0  0  0  0  0  0  0  0  0  0
    9.3545  -18.1792   17.6705 C   0  0  0  0  0  0  0  0  0  0  0  0
    8.9457  -17.2935   16.6807 C   0  0  0  0  0  0  0  0  0  0  0  0
    8.7034  -17.9630   15.5429 N   0  0  0  0  0  0  0  0  0  0  0  0
    8.9505  -19.2567   15.7914 C   0  0  0  0  0  0  0  0  0  0  0  0
    9.3457  -19.4011   17.0769 N   0  0  0  0  0  0  0  0  0  0  0  0
    9.9268  -15.8346   20.5334 C   0  0  0  0  0  0  0  0  0  0  0  0
   11.0070  -15.8667   21.1809 O   0  0  0  0  0  0  0  0  0  0  0  0
    8.7376  -15.3261   21.1078 N   0  0  0  0  0  0  0  0  0  0  0  0
    8.6450  -15.1820   22.5309 C   0  0  1  0  0  0  0  0  0  0  0  0
    7.2366  -14.7643   22.8452 C   0  0  0  0  0  0  0  0  0  0  0  0
    6.9921  -14.5267   24.2781 C   0  0  0  0  0  0  0  0  0  0  0  0
    6.5103  -15.5009   25.1687 C   0  0  0  0  0  0  0  0  0  0  0  0
    6.4244  -14.9871   26.4011 N   0  0  0  0  0  0  0  0  0  0  0  0
    6.8353  -13.6866   26.3731 C   0  0  0  0  0  0  0  0  0  0  0  0
    6.9269  -12.7389   27.3632 C   0  0  0  0  0  0  0  0  0  0  0  0
    7.3693  -11.4764   27.0791 C   0  0  0  0  0  0  0  0  0  0  0  0
    7.7188  -11.1758   25.7873 C   0  0  0  0  0  0  0  0  0  0  0  0
    7.6243  -12.1310   24.8014 C   0  0  0  0  0  0  0  0  0  0  0  0
    7.1833  -13.4161   25.0499 C   0  0  0  0  0  0  0  0  0  0  0  0
    9.1915  -16.2739   23.3226 C   0  0  0  0  0  0  0  0  0  0  0  0
    9.0183  -17.4524   22.8571 O   0  0  0  0  0  0  0  0  0  0  0  0
   15.1416  -18.7344   25.8248 N   0  0  0  0  0  0  0  0  0  0  0  0
   14.0684  -18.6894   24.9160 C   0  0  0  0  0  0  0  0  0  0  0  0
   14.3504  -18.7374   23.6684 O   0  0  0  0  0  0  0  0  0  0  0  0
   12.6528  -18.5988   25.3130 C   0  0  0  0  0  0  0  0  0  0  0  0
   11.8487  -17.5194   24.7196 C   0  0  0  0  0  0  0  0  0  0  0  0
   10.4290  -17.3861   25.1824 C   0  0  2  0  0  0  0  0  0  0  0  0
    9.8790  -16.1456   24.5319 N   0  0  0  0  0  0  0  0  0  0  0  0
   10.2415  -17.2627   26.6273 C   0  0  0  0  0  0  0  0  0  0  0  0
    9.7686  -16.2502   27.1885 O   0  0  0  0  0  0  0  0  0  0  0  0
   10.5989  -18.3200   27.4850 O   0  0  0  0  0  0  0  0  0  0  0  0
  2  1  1  1
  2  9  1  0
  2  3  1  0
  3  4  1  0
  4  8  1  0
  5  6  1  0
  5  4  2  0
  6  7  1  0
  7  8  2  0
  9 10  2  0
 11 12  1  0
 11  9  1  0
 13 14  1  0
 12 13  1  6
 14 15  2  0
 16 15  1  0
 17 16  1  0
 18 17  2  0
 19 18  1  0
 20 19  2  0
 20 21  1  0
 21 22  2  0
 22 17  1  0
 22 14  1  0
 23 24  2  0
 23 12  1  0
 25 26  1  0
 26 28  1  0
 26 27  2  0
 28 29  1  0
 30 29  1  1
 30 32  1  0
 30 31  1  0
 31 23  1  0
 32 34  1  0
 33 32  2  0
M  END
$$$$
