HWQ.pdb
     RDKit          3D

 34 36  0  0  1  0  0  0  0  0999 V2000
    9.5316  -15.9662   17.8111 N   0  0  0  0  0  0  0  0  0  0  0  0
    8.8149  -16.7695   18.7707 C   0  0  1  0  0  0  0  0  0  0  0  0
    9.1903  -18.2121   18.6473 C   0  0  0  0  0  0  0  0  0  0  0  0
    8.7928  -18.6895   17.2976 C   0  0  0  0  0  0  0  0  0  0  0  0
    9.5873  -18.6796   16.1575 C   0  0  0  0  0  0  0  0  0  0  0  0
    8.9017  -19.1862   15.1208 N   0  0  0  0  0  0  0  0  0  0  0  0
    7.6872  -19.5175   15.5809 C   0  0  0  0  0  0  0  0  0  0  0  0
    7.6083  -19.2216   16.8984 N   0  0  0  0  0  0  0  0  0  0  0  0
    8.9608  -16.2528   20.1534 C   0  0  0  0  0  0  0  0  0  0  0  0
   10.1228  -15.9869   20.5612 O   0  0  0  0  0  0  0  0  0  0  0  0
    7.8283  -16.0673   20.9815 N   0  0  0  0  0  0  0  0  0  0  0  0
    8.0081  -15.6680   22.3463 C   0  0  1  0  0  0  0  0  0  0  0  0
    6.6452  -15.3800   22.9090 C   0  0  0  0  0  0  0  0  0  0  0  0
    6.6538  -15.0297   24.3395 C   0  0  0  0  0  0  0  0  0  0  0  0
    6.5855  -15.9688   25.3825 C   0  0  0  0  0  0  0  0  0  0  0  0
    6.6452  -15.3418   26.5630 N   0  0  0  0  0  0  0  0  0  0  0  0
    6.7519  -13.9985   26.3511 C   0  0  0  0  0  0  0  0  0  0  0  0
    6.8380  -12.9426   27.2255 C   0  0  0  0  0  0  0  0  0  0  0  0
    6.9306  -11.6598   26.7602 C   0  0  0  0  0  0  0  0  0  0  0  0
    6.9354  -11.4492   25.4050 C   0  0  0  0  0  0  0  0  0  0  0  0
    6.8489  -12.5125   24.5358 C   0  0  0  0  0  0  0  0  0  0  0  0
    6.7553  -13.8210   24.9678 C   0  0  0  0  0  0  0  0  0  0  0  0
    8.8791  -16.5111   23.1515 C   0  0  0  0  0  0  0  0  0  0  0  0
    8.8507  -17.7634   22.8939 O   0  0  0  0  0  0  0  0  0  0  0  0
   14.6202  -15.2269   22.7699 N   0  0  0  0  0  0  0  0  0  0  0  0
   14.5709  -16.4824   23.4032 C   0  0  0  0  0  0  0  0  0  0  0  0
   15.6165  -17.2176   23.3364 O   0  0  0  0  0  0  0  0  0  0  0  0
   13.4002  -16.9916   24.1380 C   0  0  0  0  0  0  0  0  0  0  0  0
   12.0867  -16.4208   23.8024 C   0  0  0  0  0  0  0  0  0  0  0  0
   10.8984  -16.9431   24.5525 C   0  0  2  0  0  0  0  0  0  0  0  0
    9.7312  -16.0744   24.1687 N   0  0  0  0  0  0  0  0  0  0  0  0
   11.0131  -16.9320   26.0103 C   0  0  0  0  0  0  0  0  0  0  0  0
   11.7041  -17.7429   26.6649 O   0  0  0  0  0  0  0  0  0  0  0  0
   10.3236  -15.9697   26.7718 O   0  0  0  0  0  0  0  0  0  0  0  0
  2  1  1  6
  2  9  1  0
  2  3  1  0
  3  4  1  0
  4  8  1  0
  5  6  1  0
  5  4  2  0
  6  7  1  0
  7  8  2  0
  9 10  2  0
 11 12  1  0
 11  9  1  0
 13 14  1  0
 12 13  1  1
 14 15  2  0
 16 15  1  0
 17 16  1  0
 18 17  2  0
 19 18  1  0
 20 19  2  0
 20 21  1  0
 21 22  2  0
 22 17  1  0
 22 14  1  0
 23 24  2  0
 23 12  1  0
 25 26  1  0
 26 28  1  0
 26 27  2  0
 28 29  1  0
 30 29  1  6
 30 32  1  0
 30 31  1  0
 31 23  1  0
 32 34  1  0
 33 32  2  0
M  END
$$$$
