HWQ.pdb
     RDKit          3D

 34 36  0  0  1  0  0  0  0  0999 V2000
    7.9506  -16.2680   20.4878 N   0  0  0  0  0  0  0  0  0  0  0  0
    9.0554  -15.4373   20.8988 C   0  0  1  0  0  0  0  0  0  0  0  0
    8.8002  -14.0026   20.5616 C   0  0  0  0  0  0  0  0  0  0  0  0
    8.4952  -13.9056   19.1106 C   0  0  0  0  0  0  0  0  0  0  0  0
    7.2785  -13.5337   18.5516 C   0  0  0  0  0  0  0  0  0  0  0  0
    7.3673  -13.5562   17.2125 N   0  0  0  0  0  0  0  0  0  0  0  0
    8.6170  -13.9352   16.9108 C   0  0  0  0  0  0  0  0  0  0  0  0
    9.3106  -14.1500   18.0519 N   0  0  0  0  0  0  0  0  0  0  0  0
    9.4076  -15.6396   22.3253 C   0  0  0  0  0  0  0  0  0  0  0  0
   10.3790  -14.9849   22.7887 O   0  0  0  0  0  0  0  0  0  0  0  0
    8.6728  -16.5398   23.1330 N   0  0  0  0  0  0  0  0  0  0  0  0
    8.9525  -16.6206   24.5365 C   0  0  1  0  0  0  0  0  0  0  0  0
    7.6621  -16.3672   25.2628 C   0  0  0  0  0  0  0  0  0  0  0  0
    7.1102  -15.0195   25.0429 C   0  0  0  0  0  0  0  0  0  0  0  0
    6.2055  -14.6947   24.0180 C   0  0  0  0  0  0  0  0  0  0  0  0
    5.8691  -13.4023   24.1017 N   0  0  0  0  0  0  0  0  0  0  0  0
    6.5222  -12.8376   25.1577 C   0  0  0  0  0  0  0  0  0  0  0  0
    6.5181  -11.5556   25.6512 C   0  0  0  0  0  0  0  0  0  0  0  0
    7.2789  -11.2264   26.7390 C   0  0  0  0  0  0  0  0  0  0  0  0
    8.0452  -12.2006   27.3262 C   0  0  0  0  0  0  0  0  0  0  0  0
    8.0436  -13.4824   26.8259 C   0  0  0  0  0  0  0  0  0  0  0  0
    7.2880  -13.8527   25.7306 C   0  0  0  0  0  0  0  0  0  0  0  0
    9.7274  -17.7735   24.9704 C   0  0  0  0  0  0  0  0  0  0  0  0
    9.1767  -18.9171   24.8135 O   0  0  0  0  0  0  0  0  0  0  0  0
   15.8816  -20.5785   24.3965 N   0  0  0  0  0  0  0  0  0  0  0  0
   15.3194  -20.0963   25.5928 C   0  0  0  0  0  0  0  0  0  0  0  0
   16.1125  -19.5599   26.4423 O   0  0  0  0  0  0  0  0  0  0  0  0
   13.8843  -20.1652   25.9180 C   0  0  0  0  0  0  0  0  0  0  0  0
   13.0510  -19.0064   25.5627 C   0  0  0  0  0  0  0  0  0  0  0  0
   11.6194  -19.0273   26.0074 C   0  0  2  0  0  0  0  0  0  0  0  0
   11.0037  -17.7372   25.5369 N   0  0  0  0  0  0  0  0  0  0  0  0
   11.4045  -19.1338   27.4499 C   0  0  0  0  0  0  0  0  0  0  0  0
   11.1363  -18.1637   28.1918 O   0  0  0  0  0  0  0  0  0  0  0  0
   11.4931  -20.3827   28.0930 O   0  0  0  0  0  0  0  0  0  0  0  0
  2  1  1  1
  2  9  1  0
  2  3  1  0
  3  4  1  0
  4  8  1  0
  5  6  1  0
  5  4  2  0
  6  7  1  0
  7  8  2  0
  9 10  2  0
 11 12  1  0
 11  9  1  0
 13 14  1  0
 12 13  1  1
 14 15  2  0
 16 15  1  0
 17 16  1  0
 18 17  2  0
 19 18  1  0
 20 19  2  0
 20 21  1  0
 21 22  2  0
 22 17  1  0
 22 14  1  0
 23 24  2  0
 23 12  1  0
 25 26  1  0
 26 28  1  0
 26 27  2  0
 28 29  1  0
 30 29  1  1
 30 32  1  0
 30 31  1  0
 31 23  1  0
 32 34  1  0
 33 32  2  0
M  END
$$$$
