HWQ.pdb
     RDKit          3D

 34 36  0  0  1  0  0  0  0  0999 V2000
   12.1564  -13.5476   19.3549 N   0  0  0  0  0  0  0  0  0  0  0  0
   10.8394  -14.1062   19.5369 C   0  0  1  0  0  0  0  0  0  0  0  0
   10.6514  -15.3211   18.6848 C   0  0  0  0  0  0  0  0  0  0  0  0
    9.8483  -14.9424   17.4934 C   0  0  0  0  0  0  0  0  0  0  0  0
    9.4052  -13.6641   17.1757 C   0  0  0  0  0  0  0  0  0  0  0  0
    8.7097  -13.6958   16.0282 N   0  0  0  0  0  0  0  0  0  0  0  0
    8.7028  -14.9696   15.6114 C   0  0  0  0  0  0  0  0  0  0  0  0
    9.3892  -15.7351   16.4902 N   0  0  0  0  0  0  0  0  0  0  0  0
   10.5279  -14.3516   20.9661 C   0  0  0  0  0  0  0  0  0  0  0  0
   11.4937  -14.4470   21.7694 O   0  0  0  0  0  0  0  0  0  0  0  0
    9.1884  -14.4735   21.4058 N   0  0  0  0  0  0  0  0  0  0  0  0
    8.9170  -14.6772   22.7985 C   0  0  1  0  0  0  0  0  0  0  0  0
    7.4617  -14.3748   23.0172 C   0  0  0  0  0  0  0  0  0  0  0  0
    7.0420  -14.4578   24.4265 C   0  0  0  0  0  0  0  0  0  0  0  0
    6.4684  -15.5984   25.0133 C   0  0  0  0  0  0  0  0  0  0  0  0
    6.2268  -15.3697   26.3093 N   0  0  0  0  0  0  0  0  0  0  0  0
    6.6209  -14.1015   26.6208 C   0  0  0  0  0  0  0  0  0  0  0  0
    6.5792  -13.3986   27.8003 C   0  0  0  0  0  0  0  0  0  0  0  0
    7.0362  -12.1110   27.8594 C   0  0  0  0  0  0  0  0  0  0  0  0
    7.5360  -11.5362   26.7188 C   0  0  0  0  0  0  0  0  0  0  0  0
    7.5745  -12.2472   25.5414 C   0  0  0  0  0  0  0  0  0  0  0  0
    7.1235  -13.5490   25.4430 C   0  0  0  0  0  0  0  0  0  0  0  0
    9.4174  -15.9164   23.3745 C   0  0  0  0  0  0  0  0  0  0  0  0
    9.0623  -16.9966   22.7891 O   0  0  0  0  0  0  0  0  0  0  0  0
   15.0250  -17.6027   24.5244 N   0  0  0  0  0  0  0  0  0  0  0  0
   14.1567  -17.4634   23.4261 C   0  0  0  0  0  0  0  0  0  0  0  0
   14.6864  -17.3629   22.2652 O   0  0  0  0  0  0  0  0  0  0  0  0
   12.6878  -17.4345   23.5326 C   0  0  0  0  0  0  0  0  0  0  0  0
   12.1032  -17.5033   24.8806 C   0  0  0  0  0  0  0  0  0  0  0  0
   10.6117  -17.3977   24.9890 C   0  0  2  0  0  0  0  0  0  0  0  0
   10.2406  -16.0244   24.4978 N   0  0  0  0  0  0  0  0  0  0  0  0
   10.0596  -17.5641   26.3328 C   0  0  0  0  0  0  0  0  0  0  0  0
   10.2252  -18.5841   27.0368 O   0  0  0  0  0  0  0  0  0  0  0  0
    9.2868  -16.5429   26.9171 O   0  0  0  0  0  0  0  0  0  0  0  0
  2  1  1  1
  2  9  1  0
  2  3  1  0
  3  4  1  0
  4  8  1  0
  5  6  1  0
  5  4  2  0
  6  7  1  0
  7  8  2  0
  9 10  2  0
 11 12  1  0
 11  9  1  0
 13 14  1  0
 12 13  1  6
 14 15  2  0
 16 15  1  0
 17 16  1  0
 18 17  2  0
 19 18  1  0
 20 19  2  0
 20 21  1  0
 21 22  2  0
 22 17  1  0
 22 14  1  0
 23 24  2  0
 23 12  1  0
 25 26  1  0
 26 28  1  0
 26 27  2  0
 28 29  1  0
 30 29  1  1
 30 32  1  0
 30 31  1  0
 31 23  1  0
 32 34  1  0
 33 32  2  0
M  END
$$$$
