HVD.pdb
     RDKit          3D

 26 26  0  0  1  0  0  0  0  0999 V2000
   20.7388  -14.2325  -18.9184 N   0  0  0  0  0  0  0  0  0  0  0  0
   20.8088  -12.8147  -19.1573 C   0  0  1  0  0  0  0  0  0  0  0  0
   19.7572  -12.3866  -20.1880 C   0  0  0  0  0  0  0  0  0  0  0  0
   20.0835  -13.0319  -21.4688 C   0  0  0  0  0  0  0  0  0  0  0  0
   21.2442  -12.8875  -22.2342 C   0  0  0  0  0  0  0  0  0  0  0  0
   21.1220  -13.6543  -23.3240 N   0  0  0  0  0  0  0  0  0  0  0  0
   19.9304  -14.2741  -23.2725 C   0  0  0  0  0  0  0  0  0  0  0  0
   19.2959  -13.8938  -22.1391 N   0  0  0  0  0  0  0  0  0  0  0  0
   20.6920  -12.0377  -17.9027 C   0  0  0  0  0  0  0  0  0  0  0  0
   19.7088  -12.2045  -17.1134 O   0  0  0  0  0  0  0  0  0  0  0  0
   23.9873  -10.3299  -15.7972 C   0  0  0  0  0  0  0  0  0  0  0  0
   22.6241  -10.6266  -15.2747 C   0  0  1  0  0  0  0  0  0  0  0  0
   22.4390   -9.8247  -14.0007 C   0  0  0  0  0  0  0  0  0  0  0  0
   21.5125  -10.3263  -16.2334 C   0  0  2  0  0  0  0  0  0  0  0  0
   21.6410  -11.0603  -17.4752 N   0  0  0  0  0  0  0  0  0  0  0  0
   21.3370   -8.8968  -16.5213 C   0  0  0  0  0  0  0  0  0  0  0  0
   22.0794   -8.2319  -17.2917 O   0  0  0  0  0  0  0  0  0  0  0  0
   20.2715   -8.1815  -15.9101 N   0  0  0  0  0  0  0  0  0  0  0  0
   20.0544   -6.7246  -16.1983 C   0  0  1  0  0  0  0  0  0  0  0  0
   18.5831   -6.4677  -16.1639 C   0  0  0  0  0  0  0  0  0  0  0  0
   17.8061   -7.2113  -17.1146 C   0  0  0  0  0  0  0  0  0  0  0  0
   17.9797   -7.1725  -18.3414 O   0  0  0  0  0  0  0  0  0  0  0  0
   20.8651   -5.9411  -15.2640 C   0  0  0  0  0  0  0  0  0  0  0  0
   21.2947   -6.4216  -14.2096 O   0  0  0  0  0  0  0  0  0  0  0  0
   16.7702   -8.0510  -16.6669 O   0  0  0  0  0  0  0  0  0  0  0  0
   21.1994   -4.5953  -15.5174 O   0  0  0  0  0  0  0  0  0  0  0  0
  2  1  1  1
  3  2  1  0
  4  3  1  0
  5  4  2  0
  6  7  1  0
  6  5  1  0
  7  8  2  0
  8  4  1  0
  9  2  1  0
  9 10  2  0
 12 11  1  6
 12 14  1  0
 12 13  1  0
 14 15  1  6
 15  9  1  0
 16 14  1  0
 17 16  2  0
 18 16  1  0
 19 18  1  0
 19 20  1  1
 20 21  1  0
 21 22  2  0
 23 19  1  0
 24 23  2  0
 25 21  1  0
 26 23  1  0
M  END
$$$$
