HVD.pdb
     RDKit          3D

 26 26  0  0  1  0  0  0  0  0999 V2000
-9511151.0000-3181364.5000-12422619.0000 N   0  0  0  0  0  0  0  0  0  0  0  0
-9511151.0000-3181363.7500-12422620.0000 C   0  0  1  0  0  0  0  0  0  0  0  0
-9511149.0000-3181364.0000-12422619.0000 C   0  0  0  0  0  0  0  0  0  0  0  0
-9511148.0000-3181364.0000-12422618.0000 C   0  0  0  0  0  0  0  0  0  0  0  0
-9511148.0000-3181361.2500-12422616.0000 C   0  0  0  0  0  0  0  0  0  0  0  0
-9511150.0000-3181363.7500-12422615.0000 N   0  0  0  0  0  0  0  0  0  0  0  0
-9511150.0000-3181363.5000-12422615.0000 C   0  0  0  0  0  0  0  0  0  0  0  0
-9511145.0000-3181365.7500-12422617.0000 N   0  0  0  0  0  0  0  0  0  0  0  0
-9511150.0000-3181363.0000-12422621.0000 C   0  0  0  0  0  0  0  0  0  0  0  0
-9511147.0000-3181362.7500-12422620.0000 O   0  0  0  0  0  0  0  0  0  0  0  0
-9511148.0000-3181359.5000-12422619.0000 C   0  0  0  0  0  0  0  0  0  0  0  0
-9511147.0000-3181360.5000-12422620.0000 C   0  0  1  0  0  0  0  0  0  0  0  0
-9511148.0000-3181360.5000-12422620.0000 C   0  0  0  0  0  0  0  0  0  0  0  0
-9511148.0000-3181360.2500-12422621.0000 C   0  0  0  0  0  0  0  0  0  0  0  0
-9511146.0000-3181361.7500-12422619.0000 N   0  0  0  0  0  0  0  0  0  0  0  0
-9511146.0000-3181359.7500-12422619.0000 C   0  0  0  0  0  0  0  0  0  0  0  0
-9511146.0000-3181358.7500-12422619.0000 O   0  0  0  0  0  0  0  0  0  0  0  0
-9511145.0000-3181359.7500-12422619.0000 N   0  0  0  0  0  0  0  0  0  0  0  0
-9511143.0000-3181360.5000-12422618.0000 C   0  0  1  0  0  0  0  0  0  0  0  0
-9511144.0000-3181361.5000-12422621.0000 C   0  0  0  0  0  0  0  0  0  0  0  0
-9511144.0000-3181362.0000-12422620.0000 C   0  0  0  0  0  0  0  0  0  0  0  0
-9511141.0000-3181362.2500-12422620.0000 O   0  0  0  0  0  0  0  0  0  0  0  0
-9511142.0000-3181360.0000-12422617.0000 C   0  0  0  0  0  0  0  0  0  0  0  0
-9511143.0000-3181358.7500-12422619.0000 O   0  0  0  0  0  0  0  0  0  0  0  0
-9511144.0000-3181362.0000-12422620.0000 O   0  0  0  0  0  0  0  0  0  0  0  0
-9511141.0000-3181359.5000-12422617.0000 O   0  0  0  0  0  0  0  0  0  0  0  0
  2  1  1  6
  3  2  1  0
  4  3  1  0
  5  4  2  0
  6  7  1  0
  6  5  1  0
  7  8  2  0
  8  4  1  0
  9  2  1  0
  9 10  2  0
 12 11  1  1
 12 14  1  0
 12 13  1  0
 14 15  1  6
 15  9  1  0
 16 14  1  0
 17 16  2  0
 18 16  1  0
 19 18  1  0
 19 20  1  6
 20 21  1  0
 21 22  2  0
 23 19  1  0
 24 23  2  0
 25 21  1  0
 26 23  1  0
M  END
$$$$
