HVD.pdb
     RDKit          3D

 26 26  0  0  1  0  0  0  0  0999 V2000
   18.9985  -13.7058  -17.3772 N   0  0  0  0  0  0  0  0  0  0  0  0
   19.2504  -12.3213  -17.6797 C   0  0  1  0  0  0  0  0  0  0  0  0
   17.9667  -11.6277  -18.1517 C   0  0  0  0  0  0  0  0  0  0  0  0
   17.5841  -12.2082  -19.4479 C   0  0  0  0  0  0  0  0  0  0  0  0
   17.8854  -11.7316  -20.7269 C   0  0  0  0  0  0  0  0  0  0  0  0
   17.3398  -12.5648  -21.6206 N   0  0  0  0  0  0  0  0  0  0  0  0
   16.7080  -13.5454  -20.9527 C   0  0  0  0  0  0  0  0  0  0  0  0
   16.8573  -13.3275  -19.6253 N   0  0  0  0  0  0  0  0  0  0  0  0
   19.8664  -11.6105  -16.5365 C   0  0  0  0  0  0  0  0  0  0  0  0
   19.3046  -11.5857  -15.3958 O   0  0  0  0  0  0  0  0  0  0  0  0
   24.0368  -10.5666  -16.1919 C   0  0  0  0  0  0  0  0  0  0  0  0
   23.0235  -10.6439  -15.1025 C   0  0  1  0  0  0  0  0  0  0  0  0
   23.5450   -9.8278  -13.9353 C   0  0  0  0  0  0  0  0  0  0  0  0
   21.6573  -10.1661  -15.4900 C   0  0  2  0  0  0  0  0  0  0  0  0
   21.1083  -10.9092  -16.6052 N   0  0  0  0  0  0  0  0  0  0  0  0
   21.5816   -8.7266  -15.7714 C   0  0  0  0  0  0  0  0  0  0  0  0
   21.6698   -8.2231  -16.9227 O   0  0  0  0  0  0  0  0  0  0  0  0
   21.3973   -7.8092  -14.7014 N   0  0  0  0  0  0  0  0  0  0  0  0
   21.3524   -6.3299  -14.9519 C   0  0  1  0  0  0  0  0  0  0  0  0
   19.9678   -5.9846  -15.3941 C   0  0  0  0  0  0  0  0  0  0  0  0
   19.7049   -4.5828  -15.5559 C   0  0  0  0  0  0  0  0  0  0  0  0
   20.5286   -3.7629  -15.9872 O   0  0  0  0  0  0  0  0  0  0  0  0
   21.8339   -5.6416  -13.7527 C   0  0  0  0  0  0  0  0  0  0  0  0
   21.7462   -6.1481  -12.6288 O   0  0  0  0  0  0  0  0  0  0  0  0
   18.4426   -4.0642  -15.2147 O   0  0  0  0  0  0  0  0  0  0  0  0
   22.4240   -4.3629  -13.8157 O   0  0  0  0  0  0  0  0  0  0  0  0
  2  1  1  1
  3  2  1  0
  4  3  1  0
  5  4  2  0
  6  7  1  0
  6  5  1  0
  7  8  2  0
  8  4  1  0
  9  2  1  0
  9 10  2  0
 12 11  1  6
 12 14  1  0
 12 13  1  0
 14 15  1  6
 15  9  1  0
 16 14  1  0
 17 16  2  0
 18 16  1  0
 19 18  1  0
 19 20  1  1
 20 21  1  0
 21 22  2  0
 23 19  1  0
 24 23  2  0
 25 21  1  0
 26 23  1  0
M  END
$$$$
