HVD.pdb
     RDKit          3D

 26 26  0  0  1  0  0  0  0  0999 V2000
   19.8630  -13.2657  -17.1418 N   0  0  0  0  0  0  0  0  0  0  0  0
   19.9965  -11.8774  -17.4976 C   0  0  1  0  0  0  0  0  0  0  0  0
   18.6556  -11.3102  -17.9790 C   0  0  0  0  0  0  0  0  0  0  0  0
   18.2553  -12.0471  -19.1873 C   0  0  0  0  0  0  0  0  0  0  0  0
   17.2194  -12.9753  -19.3257 C   0  0  0  0  0  0  0  0  0  0  0  0
   17.2092  -13.4013  -20.5942 N   0  0  0  0  0  0  0  0  0  0  0  0
   18.1978  -12.7770  -21.2571 C   0  0  0  0  0  0  0  0  0  0  0  0
   18.8369  -11.9496  -20.3976 N   0  0  0  0  0  0  0  0  0  0  0  0
   20.5619  -11.0760  -16.3887 C   0  0  0  0  0  0  0  0  0  0  0  0
   20.0025  -11.0438  -15.2470 O   0  0  0  0  0  0  0  0  0  0  0  0
   23.6108  -11.4234  -14.4812 C   0  0  0  0  0  0  0  0  0  0  0  0
   23.6048  -10.0004  -14.9219 C   0  0  1  0  0  0  0  0  0  0  0  0
   24.6337   -9.8605  -16.0274 C   0  0  0  0  0  0  0  0  0  0  0  0
   22.2737   -9.5029  -15.3969 C   0  0  2  0  0  0  0  0  0  0  0  0
   21.7494  -10.2900  -16.4935 N   0  0  0  0  0  0  0  0  0  0  0  0
   22.2588   -8.0798  -15.7598 C   0  0  0  0  0  0  0  0  0  0  0  0
   22.2368   -7.6497  -16.9436 O   0  0  0  0  0  0  0  0  0  0  0  0
   22.2694   -7.0926  -14.7371 N   0  0  0  0  0  0  0  0  0  0  0  0
   22.2236   -5.6308  -15.0747 C   0  0  1  0  0  0  0  0  0  0  0  0
   20.9984   -5.3909  -15.8952 C   0  0  0  0  0  0  0  0  0  0  0  0
   20.7274   -4.0168  -16.2096 C   0  0  0  0  0  0  0  0  0  0  0  0
   19.8624   -3.3292  -15.6477 O   0  0  0  0  0  0  0  0  0  0  0  0
   22.3240   -4.8642  -13.8313 C   0  0  0  0  0  0  0  0  0  0  0  0
   22.4234   -3.6324  -13.8292 O   0  0  0  0  0  0  0  0  0  0  0  0
   21.4694   -3.3701  -17.2146 O   0  0  0  0  0  0  0  0  0  0  0  0
   22.3128   -5.4907  -12.5686 O   0  0  0  0  0  0  0  0  0  0  0  0
  2  1  1  1
  3  2  1  0
  4  3  1  0
  5  4  2  0
  6  7  1  0
  6  5  1  0
  7  8  2  0
  8  4  1  0
  9  2  1  0
  9 10  2  0
 12 11  1  6
 12 14  1  0
 12 13  1  0
 14 15  1  6
 15  9  1  0
 16 14  1  0
 17 16  2  0
 18 16  1  0
 19 18  1  0
 19 20  1  1
 20 21  1  0
 21 22  2  0
 23 19  1  0
 24 23  2  0
 25 21  1  0
 26 23  1  0
M  END
$$$$
