HVD.pdb
     RDKit          3D

 26 26  0  0  1  0  0  0  0  0999 V2000
   16.1081  -10.9724  -14.0938 N   0  0  0  0  0  0  0  0  0  0  0  0
   16.8536  -10.1767  -15.0336 C   0  0  1  0  0  0  0  0  0  0  0  0
   15.9517   -9.1216  -15.6853 C   0  0  0  0  0  0  0  0  0  0  0  0
   14.9322   -9.8212  -16.4819 C   0  0  0  0  0  0  0  0  0  0  0  0
   15.0706  -10.3843  -17.7538 C   0  0  0  0  0  0  0  0  0  0  0  0
   13.8942  -10.9180  -18.1028 N   0  0  0  0  0  0  0  0  0  0  0  0
   13.0232  -10.7121  -17.1001 C   0  0  0  0  0  0  0  0  0  0  0  0
   13.6573  -10.0420  -16.1098 N   0  0  0  0  0  0  0  0  0  0  0  0
   18.0490   -9.5642  -14.4113 C   0  0  0  0  0  0  0  0  0  0  0  0
   17.9716   -8.9482  -13.3013 O   0  0  0  0  0  0  0  0  0  0  0  0
   22.0881  -10.0154  -16.0087 C   0  0  0  0  0  0  0  0  0  0  0  0
   21.7727   -9.7066  -14.5858 C   0  0  1  0  0  0  0  0  0  0  0  0
   22.9408   -8.9225  -14.0191 C   0  0  0  0  0  0  0  0  0  0  0  0
   20.4991   -8.9437  -14.3834 C   0  0  2  0  0  0  0  0  0  0  0  0
   19.3580   -9.6061  -14.9802 N   0  0  0  0  0  0  0  0  0  0  0  0
   20.5548   -7.5492  -14.8408 C   0  0  0  0  0  0  0  0  0  0  0  0
   20.2377   -7.1692  -15.9991 O   0  0  0  0  0  0  0  0  0  0  0  0
   20.9899   -6.5325  -13.9476 N   0  0  0  0  0  0  0  0  0  0  0  0
   21.1228   -5.1089  -14.4043 C   0  0  1  0  0  0  0  0  0  0  0  0
   19.9118   -4.3669  -13.9408 C   0  0  0  0  0  0  0  0  0  0  0  0
   19.8762   -2.9729  -14.2814 C   0  0  0  0  0  0  0  0  0  0  0  0
   20.7235   -2.4040  -14.9853 O   0  0  0  0  0  0  0  0  0  0  0  0
   22.4106   -4.5908  -13.9388 C   0  0  0  0  0  0  0  0  0  0  0  0
   22.7678   -4.6910  -12.7599 O   0  0  0  0  0  0  0  0  0  0  0  0
   18.8285   -2.1636  -13.8062 O   0  0  0  0  0  0  0  0  0  0  0  0
   23.3132   -3.9492  -14.8111 O   0  0  0  0  0  0  0  0  0  0  0  0
  2  1  1  1
  3  2  1  0
  4  3  1  0
  5  4  2  0
  6  7  1  0
  6  5  1  0
  7  8  2  0
  8  4  1  0
  9  2  1  0
  9 10  2  0
 12 11  1  6
 12 14  1  0
 12 13  1  0
 14 15  1  6
 15  9  1  0
 16 14  1  0
 17 16  2  0
 18 16  1  0
 19 18  1  0
 19 20  1  1
 20 21  1  0
 21 22  2  0
 23 19  1  0
 24 23  2  0
 25 21  1  0
 26 23  1  0
M  END
$$$$
