HVD.pdb
     RDKit          3D

 26 26  0  0  1  0  0  0  0  0999 V2000
   20.3532  -13.3416  -17.0331 N   0  0  0  0  0  0  0  0  0  0  0  0
   20.0819  -11.9569  -17.3178 C   0  0  1  0  0  0  0  0  0  0  0  0
   18.5840  -11.7376  -17.5625 C   0  0  0  0  0  0  0  0  0  0  0  0
   18.2114  -12.4577  -18.7897 C   0  0  0  0  0  0  0  0  0  0  0  0
   17.6494  -13.7326  -18.9026 C   0  0  0  0  0  0  0  0  0  0  0  0
   17.4742  -13.9963  -20.2027 N   0  0  0  0  0  0  0  0  0  0  0  0
   17.9039  -12.9372  -20.9100 C   0  0  0  0  0  0  0  0  0  0  0  0
   18.3544  -11.9972  -20.0467 N   0  0  0  0  0  0  0  0  0  0  0  0
   20.5981  -11.0642  -16.2556 C   0  0  0  0  0  0  0  0  0  0  0  0
   20.1274  -11.1041  -15.0748 O   0  0  0  0  0  0  0  0  0  0  0  0
   23.8540  -10.9040  -14.6372 C   0  0  0  0  0  0  0  0  0  0  0  0
   23.5628   -9.5056  -15.0602 C   0  0  1  0  0  0  0  0  0  0  0  0
   24.4366   -9.2008  -16.2618 C   0  0  0  0  0  0  0  0  0  0  0  0
   22.1258   -9.2442  -15.3941 C   0  0  2  0  0  0  0  0  0  0  0  0
   21.6388  -10.1063  -16.4509 N   0  0  0  0  0  0  0  0  0  0  0  0
   21.8309   -7.8439  -15.7246 C   0  0  0  0  0  0  0  0  0  0  0  0
   21.9089   -7.3569  -16.8837 O   0  0  0  0  0  0  0  0  0  0  0  0
   21.4281   -6.9481  -14.6971 N   0  0  0  0  0  0  0  0  0  0  0  0
   21.1965   -5.4938  -14.9877 C   0  0  1  0  0  0  0  0  0  0  0  0
   19.7207   -5.2618  -15.0029 C   0  0  0  0  0  0  0  0  0  0  0  0
   19.3140   -3.8973  -15.1851 C   0  0  0  0  0  0  0  0  0  0  0  0
   19.3287   -3.3034  -16.2731 O   0  0  0  0  0  0  0  0  0  0  0  0
   21.9613   -4.7006  -14.0237 C   0  0  0  0  0  0  0  0  0  0  0  0
   22.0808   -3.4755  -14.1340 O   0  0  0  0  0  0  0  0  0  0  0  0
   18.8623   -3.1492  -14.0828 O   0  0  0  0  0  0  0  0  0  0  0  0
   22.6032   -5.2922  -12.9168 O   0  0  0  0  0  0  0  0  0  0  0  0
  2  1  1  1
  3  2  1  0
  4  3  1  0
  5  4  2  0
  6  7  1  0
  6  5  1  0
  7  8  2  0
  8  4  1  0
  9  2  1  0
  9 10  2  0
 12 11  1  6
 12 14  1  0
 12 13  1  0
 14 15  1  6
 15  9  1  0
 16 14  1  0
 17 16  2  0
 18 16  1  0
 19 18  1  0
 19 20  1  1
 20 21  1  0
 21 22  2  0
 23 19  1  0
 24 23  2  0
 25 21  1  0
 26 23  1  0
M  END
$$$$
