HVD.pdb
     RDKit          3D

 26 26  0  0  1  0  0  0  0  0999 V2000
   27.2109  -33.6265   -2.3592 N   0  0  0  0  0  0  0  0  0  0  0  0
   26.6873  -34.2578   -1.1763 C   0  0  1  0  0  0  0  0  0  0  0  0
   27.2076  -35.6952   -1.0540 C   0  0  0  0  0  0  0  0  0  0  0  0
   26.5965  -36.4950   -2.1265 C   0  0  0  0  0  0  0  0  0  0  0  0
   25.3419  -37.1112   -2.1324 C   0  0  0  0  0  0  0  0  0  0  0  0
   25.1904  -37.7353   -3.3063 N   0  0  0  0  0  0  0  0  0  0  0  0
   26.3005  -37.5350   -4.0372 C   0  0  0  0  0  0  0  0  0  0  0  0
   27.1596  -36.7772   -3.3164 N   0  0  0  0  0  0  0  0  0  0  0  0
   26.9732  -33.4680    0.0427 C   0  0  0  0  0  0  0  0  0  0  0  0
   28.1461  -33.0451    0.2940 O   0  0  0  0  0  0  0  0  0  0  0  0
   23.8391  -31.9724    2.6819 C   0  0  0  0  0  0  0  0  0  0  0  0
   25.1612  -31.3222    2.4613 C   0  0  1  0  0  0  0  0  0  0  0  0
   25.4882  -30.5189    3.7055 C   0  0  0  0  0  0  0  0  0  0  0  0
   26.2786  -32.2736    2.1592 C   0  0  2  0  0  0  0  0  0  0  0  0
   25.9913  -33.1183    1.0185 N   0  0  0  0  0  0  0  0  0  0  0  0
   26.6841  -33.1057    3.2995 C   0  0  0  0  0  0  0  0  0  0  0  0
   26.1480  -34.2047    3.6020 O   0  0  0  0  0  0  0  0  0  0  0  0
   27.7468  -32.6771    4.1406 N   0  0  0  0  0  0  0  0  0  0  0  0
   28.1806  -33.5018    5.3173 C   0  0  1  0  0  0  0  0  0  0  0  0
   29.6490  -33.2969    5.5007 C   0  0  0  0  0  0  0  0  0  0  0  0
   30.2234  -33.9482    6.6437 C   0  0  0  0  0  0  0  0  0  0  0  0
   29.5970  -34.6940    7.4107 O   0  0  0  0  0  0  0  0  0  0  0  0
   27.3361  -33.1562    6.4624 C   0  0  0  0  0  0  0  0  0  0  0  0
   27.0549  -33.9803    7.3394 O   0  0  0  0  0  0  0  0  0  0  0  0
   31.5828  -33.7545    6.9490 O   0  0  0  0  0  0  0  0  0  0  0  0
   26.7978  -31.8637    6.6262 O   0  0  0  0  0  0  0  0  0  0  0  0
  2  1  1  6
  3  2  1  0
  4  3  1  0
  5  4  2  0
  6  7  1  0
  6  5  1  0
  7  8  2  0
  8  4  1  0
  9  2  1  0
  9 10  2  0
 12 11  1  1
 12 14  1  0
 12 13  1  0
 14 15  1  6
 15  9  1  0
 16 14  1  0
 17 16  2  0
 18 16  1  0
 19 18  1  0
 19 20  1  1
 20 21  1  0
 21 22  2  0
 23 19  1  0
 24 23  2  0
 25 21  1  0
 26 23  1  0
M  END
$$$$
