HVD.pdb
     RDKit          3D

 26 26  0  0  1  0  0  0  0  0999 V2000
   17.3769  -12.6212  -17.9681 N   0  0  0  0  0  0  0  0  0  0  0  0
   18.1242  -11.9171  -16.9593 C   0  0  1  0  0  0  0  0  0  0  0  0
   19.5051  -12.5550  -16.7644 C   0  0  0  0  0  0  0  0  0  0  0  0
   19.3092  -13.9678  -16.4055 C   0  0  0  0  0  0  0  0  0  0  0  0
   18.6705  -14.4884  -15.2763 C   0  0  0  0  0  0  0  0  0  0  0  0
   18.7206  -15.8237  -15.3485 N   0  0  0  0  0  0  0  0  0  0  0  0
   19.3656  -16.1614  -16.4784 C   0  0  0  0  0  0  0  0  0  0  0  0
   19.7251  -15.0275  -17.1241 N   0  0  0  0  0  0  0  0  0  0  0  0
   18.2280  -10.4711  -17.2586 C   0  0  0  0  0  0  0  0  0  0  0  0
   18.8170  -10.0556  -18.3064 O   0  0  0  0  0  0  0  0  0  0  0  0
   15.7736   -8.0399  -18.2526 C   0  0  0  0  0  0  0  0  0  0  0  0
   16.4578   -7.4301  -17.0782 C   0  0  1  0  0  0  0  0  0  0  0  0
   15.5266   -7.5616  -15.8883 C   0  0  0  0  0  0  0  0  0  0  0  0
   17.7902   -8.0335  -16.7532 C   0  0  2  0  0  0  0  0  0  0  0  0
   17.6939   -9.4411  -16.4264 N   0  0  0  0  0  0  0  0  0  0  0  0
   18.5260   -7.3305  -15.6943 C   0  0  0  0  0  0  0  0  0  0  0  0
   18.4552   -7.6183  -14.4699 O   0  0  0  0  0  0  0  0  0  0  0  0
   19.3842   -6.2490  -16.0326 N   0  0  0  0  0  0  0  0  0  0  0  0
   20.0707   -5.4457  -14.9666 C   0  0  1  0  0  0  0  0  0  0  0  0
   21.5398   -5.6882  -15.0885 C   0  0  0  0  0  0  0  0  0  0  0  0
   22.3663   -4.9189  -14.2023 C   0  0  0  0  0  0  0  0  0  0  0  0
   22.1916   -4.8388  -12.9776 O   0  0  0  0  0  0  0  0  0  0  0  0
   19.6380   -4.0520  -15.0852 C   0  0  0  0  0  0  0  0  0  0  0  0
   19.3531   -3.5467  -16.1764 O   0  0  0  0  0  0  0  0  0  0  0  0
   23.4566   -4.1938  -14.7161 O   0  0  0  0  0  0  0  0  0  0  0  0
   19.5229   -3.2108  -13.9598 O   0  0  0  0  0  0  0  0  0  0  0  0
  2  1  1  6
  3  2  1  0
  4  3  1  0
  5  4  2  0
  6  7  1  0
  6  5  1  0
  7  8  2  0
  8  4  1  0
  9  2  1  0
  9 10  2  0
 12 11  1  6
 12 14  1  0
 12 13  1  0
 14 15  1  1
 15  9  1  0
 16 14  1  0
 17 16  2  0
 18 16  1  0
 19 18  1  0
 19 20  1  6
 20 21  1  0
 21 22  2  0
 23 19  1  0
 24 23  2  0
 25 21  1  0
 26 23  1  0
M  END
$$$$
