HVD.pdb
     RDKit          3D

 26 26  0  0  1  0  0  0  0  0999 V2000
   19.0075  -12.9700  -17.8836 N   0  0  0  0  0  0  0  0  0  0  0  0
   19.4822  -11.6286  -18.1007 C   0  0  1  0  0  0  0  0  0  0  0  0
   18.4437  -10.8047  -18.8718 C   0  0  0  0  0  0  0  0  0  0  0  0
   18.2794  -11.4076  -20.2033 C   0  0  0  0  0  0  0  0  0  0  0  0
   17.1443  -12.0281  -20.7330 C   0  0  0  0  0  0  0  0  0  0  0  0
   17.4336  -12.4345  -21.9747 N   0  0  0  0  0  0  0  0  0  0  0  0
   18.7054  -12.0934  -22.2449 C   0  0  0  0  0  0  0  0  0  0  0  0
   19.2221  -11.4660  -21.1626 N   0  0  0  0  0  0  0  0  0  0  0  0
   19.8707  -10.9693  -16.8335 C   0  0  0  0  0  0  0  0  0  0  0  0
   19.1069  -10.9934  -15.8169 O   0  0  0  0  0  0  0  0  0  0  0  0
   23.8092  -10.4222  -15.4761 C   0  0  0  0  0  0  0  0  0  0  0  0
   22.5619  -10.2680  -14.6762 C   0  0  1  0  0  0  0  0  0  0  0  0
   22.9144   -9.4822  -13.4278 C   0  0  0  0  0  0  0  0  0  0  0  0
   21.4373   -9.5955  -15.4027 C   0  0  2  0  0  0  0  0  0  0  0  0
   21.0992  -10.2676  -16.6401 N   0  0  0  0  0  0  0  0  0  0  0  0
   21.6586   -8.1669  -15.6620 C   0  0  0  0  0  0  0  0  0  0  0  0
   22.3213   -7.7165  -16.6340 O   0  0  0  0  0  0  0  0  0  0  0  0
   21.1053   -7.1979  -14.7814 N   0  0  0  0  0  0  0  0  0  0  0  0
   21.3306   -5.7313  -15.0075 C   0  0  1  0  0  0  0  0  0  0  0  0
   20.0022   -5.1024  -15.2754 C   0  0  0  0  0  0  0  0  0  0  0  0
   20.0175   -3.6759  -15.4348 C   0  0  0  0  0  0  0  0  0  0  0  0
   19.5897   -2.8742  -14.5915 O   0  0  0  0  0  0  0  0  0  0  0  0
   22.0766   -5.1954  -13.8673 C   0  0  0  0  0  0  0  0  0  0  0  0
   21.9658   -5.6711  -12.7321 O   0  0  0  0  0  0  0  0  0  0  0  0
   20.5438   -3.1093  -16.6098 O   0  0  0  0  0  0  0  0  0  0  0  0
   22.9620   -4.1070  -14.0033 O   0  0  0  0  0  0  0  0  0  0  0  0
  2  1  1  1
  3  2  1  0
  4  3  1  0
  5  4  2  0
  6  7  1  0
  6  5  1  0
  7  8  2  0
  8  4  1  0
  9  2  1  0
  9 10  2  0
 12 11  1  6
 12 14  1  0
 12 13  1  0
 14 15  1  6
 15  9  1  0
 16 14  1  0
 17 16  2  0
 18 16  1  0
 19 18  1  0
 19 20  1  1
 20 21  1  0
 21 22  2  0
 23 19  1  0
 24 23  2  0
 25 21  1  0
 26 23  1  0
M  END
$$$$
