HVD.pdb
     RDKit          3D

 26 26  0  0  1  0  0  0  0  0999 V2000
   19.5321  -13.3484  -16.4930 N   0  0  0  0  0  0  0  0  0  0  0  0
   19.3511  -11.9713  -16.8708 C   0  0  1  0  0  0  0  0  0  0  0  0
   17.8607  -11.6409  -17.0161 C   0  0  0  0  0  0  0  0  0  0  0  0
   17.3091  -12.4810  -18.0900 C   0  0  0  0  0  0  0  0  0  0  0  0
   16.3872  -13.5257  -17.9781 C   0  0  0  0  0  0  0  0  0  0  0  0
   16.1640  -14.0167  -19.2027 N   0  0  0  0  0  0  0  0  0  0  0  0
   16.9096  -13.3212  -20.0786 C   0  0  0  0  0  0  0  0  0  0  0  0
   17.6092  -12.3830  -19.3988 N   0  0  0  0  0  0  0  0  0  0  0  0
   20.0260  -11.0483  -15.9304 C   0  0  0  0  0  0  0  0  0  0  0  0
   19.6873  -10.9914  -14.7059 O   0  0  0  0  0  0  0  0  0  0  0  0
   23.4702  -11.1412  -14.8252 C   0  0  0  0  0  0  0  0  0  0  0  0
   23.2377   -9.7227  -15.2166 C   0  0  1  0  0  0  0  0  0  0  0  0
   23.9488   -9.4907  -16.5360 C   0  0  0  0  0  0  0  0  0  0  0  0
   21.7941   -9.3412  -15.3403 C   0  0  2  0  0  0  0  0  0  0  0  0
   21.0855  -10.1646  -16.2981 N   0  0  0  0  0  0  0  0  0  0  0  0
   21.5718   -7.9228  -15.6497 C   0  0  0  0  0  0  0  0  0  0  0  0
   21.5834   -7.4400  -16.8131 O   0  0  0  0  0  0  0  0  0  0  0  0
   21.3244   -7.0028  -14.5946 N   0  0  0  0  0  0  0  0  0  0  0  0
   21.2086   -5.5310  -14.8650 C   0  0  1  0  0  0  0  0  0  0  0  0
   19.7767   -5.1456  -14.6828 C   0  0  0  0  0  0  0  0  0  0  0  0
   19.4964   -3.7431  -14.8048 C   0  0  0  0  0  0  0  0  0  0  0  0
   20.1653   -2.9540  -15.4880 O   0  0  0  0  0  0  0  0  0  0  0  0
   22.1756   -4.8268  -14.0208 C   0  0  0  0  0  0  0  0  0  0  0  0
   22.6463   -5.3390  -12.9994 O   0  0  0  0  0  0  0  0  0  0  0  0
   18.4000   -3.1871  -14.1211 O   0  0  0  0  0  0  0  0  0  0  0  0
   22.6221   -3.5255  -14.3281 O   0  0  0  0  0  0  0  0  0  0  0  0
  2  1  1  1
  3  2  1  0
  4  3  1  0
  5  4  2  0
  6  7  1  0
  6  5  1  0
  7  8  2  0
  8  4  1  0
  9  2  1  0
  9 10  2  0
 12 11  1  6
 12 14  1  0
 12 13  1  0
 14 15  1  6
 15  9  1  0
 16 14  1  0
 17 16  2  0
 18 16  1  0
 19 18  1  0
 19 20  1  1
 20 21  1  0
 21 22  2  0
 23 19  1  0
 24 23  2  0
 25 21  1  0
 26 23  1  0
M  END
$$$$
