HVD.pdb
     RDKit          3D

 26 26  0  0  1  0  0  0  0  0999 V2000
   21.5119  -13.6753  -16.0087 N   0  0  0  0  0  0  0  0  0  0  0  0
   21.5179  -12.4432  -16.7529 C   0  0  1  0  0  0  0  0  0  0  0  0
   20.1045  -12.0951  -17.2354 C   0  0  0  0  0  0  0  0  0  0  0  0
   19.6460  -13.1745  -18.1230 C   0  0  0  0  0  0  0  0  0  0  0  0
   18.4358  -13.8724  -18.0753 C   0  0  0  0  0  0  0  0  0  0  0  0
   18.4334  -14.7695  -19.0682 N   0  0  0  0  0  0  0  0  0  0  0  0
   19.5943  -14.6619  -19.7371 C   0  0  0  0  0  0  0  0  0  0  0  0
   20.3351  -13.6874  -19.1595 N   0  0  0  0  0  0  0  0  0  0  0  0
   22.1192  -11.3342  -15.9784 C   0  0  0  0  0  0  0  0  0  0  0  0
   21.6703  -11.0109  -14.8332 O   0  0  0  0  0  0  0  0  0  0  0  0
   25.6839  -10.9802  -14.8511 C   0  0  0  0  0  0  0  0  0  0  0  0
   25.2927   -9.6755  -15.4545 C   0  0  1  0  0  0  0  0  0  0  0  0
   25.9965   -9.5624  -16.7933 C   0  0  0  0  0  0  0  0  0  0  0  0
   23.8167   -9.4930  -15.6363 C   0  0  2  0  0  0  0  0  0  0  0  0
   23.2233  -10.5492  -16.4296 N   0  0  0  0  0  0  0  0  0  0  0  0
   23.4366   -8.1870  -16.1904 C   0  0  0  0  0  0  0  0  0  0  0  0
   23.3835   -7.9269  -17.4218 O   0  0  0  0  0  0  0  0  0  0  0  0
   23.0996   -7.1212  -15.3123 N   0  0  0  0  0  0  0  0  0  0  0  0
   22.7723   -5.7565  -15.8447 C   0  0  1  0  0  0  0  0  0  0  0  0
   21.5377   -5.2809  -15.1507 C   0  0  0  0  0  0  0  0  0  0  0  0
   21.1126   -3.9530  -15.4919 C   0  0  0  0  0  0  0  0  0  0  0  0
   21.0196   -3.5258  -16.6519 O   0  0  0  0  0  0  0  0  0  0  0  0
   23.9563   -4.9070  -15.7028 C   0  0  0  0  0  0  0  0  0  0  0  0
   24.0010   -3.7646  -16.1721 O   0  0  0  0  0  0  0  0  0  0  0  0
   20.7695   -3.0454  -14.4735 O   0  0  0  0  0  0  0  0  0  0  0  0
   25.1100   -5.3470  -15.0228 O   0  0  0  0  0  0  0  0  0  0  0  0
  2  1  1  1
  3  2  1  0
  4  3  1  0
  5  4  2  0
  6  7  1  0
  6  5  1  0
  7  8  2  0
  8  4  1  0
  9  2  1  0
  9 10  2  0
 12 11  1  6
 12 14  1  0
 12 13  1  0
 14 15  1  6
 15  9  1  0
 16 14  1  0
 17 16  2  0
 18 16  1  0
 19 18  1  0
 19 20  1  1
 20 21  1  0
 21 22  2  0
 23 19  1  0
 24 23  2  0
 25 21  1  0
 26 23  1  0
M  END
$$$$
