HVD.pdb
     RDKit          3D

 26 26  0  0  1  0  0  0  0  0999 V2000
   20.0467  -13.1141  -18.5935 N   0  0  0  0  0  0  0  0  0  0  0  0
   20.3595  -11.7109  -18.6664 C   0  0  1  0  0  0  0  0  0  0  0  0
   19.2832  -10.9564  -19.4563 C   0  0  0  0  0  0  0  0  0  0  0  0
   19.4003  -11.3418  -20.8709 C   0  0  0  0  0  0  0  0  0  0  0  0
   20.4842  -11.9503  -21.5103 C   0  0  0  0  0  0  0  0  0  0  0  0
   20.1652  -12.1205  -22.7986 N   0  0  0  0  0  0  0  0  0  0  0  0
   18.9240  -11.6428  -22.9928 C   0  0  0  0  0  0  0  0  0  0  0  0
   18.4566  -11.1671  -21.8150 N   0  0  0  0  0  0  0  0  0  0  0  0
   20.5657  -11.1216  -17.3242 C   0  0  0  0  0  0  0  0  0  0  0  0
   19.7811  -11.3887  -16.3595 O   0  0  0  0  0  0  0  0  0  0  0  0
   24.2677   -9.9537  -15.6398 C   0  0  0  0  0  0  0  0  0  0  0  0
   22.9644  -10.1511  -14.9457 C   0  0  1  0  0  0  0  0  0  0  0  0
   23.0642   -9.4819  -13.5883 C   0  0  0  0  0  0  0  0  0  0  0  0
   21.7775   -9.6209  -15.6907 C   0  0  2  0  0  0  0  0  0  0  0  0
   21.6298  -10.2273  -16.9975 N   0  0  0  0  0  0  0  0  0  0  0  0
   21.7537   -8.1581  -15.8202 C   0  0  0  0  0  0  0  0  0  0  0  0
   22.4297   -7.5093  -16.6622 O   0  0  0  0  0  0  0  0  0  0  0  0
   20.9267   -7.3886  -14.9573 N   0  0  0  0  0  0  0  0  0  0  0  0
   20.9590   -5.8884  -14.9926 C   0  0  1  0  0  0  0  0  0  0  0  0
   19.5565   -5.4068  -15.1741 C   0  0  0  0  0  0  0  0  0  0  0  0
   19.3851   -3.9822  -15.1359 C   0  0  0  0  0  0  0  0  0  0  0  0
   19.9888   -3.1861  -15.8698 O   0  0  0  0  0  0  0  0  0  0  0  0
   21.6519   -5.4111  -13.7943 C   0  0  0  0  0  0  0  0  0  0  0  0
   21.6454   -6.0510  -12.7371 O   0  0  0  0  0  0  0  0  0  0  0  0
   18.4826   -3.4108  -14.2206 O   0  0  0  0  0  0  0  0  0  0  0  0
   22.3643   -4.1947  -13.7823 O   0  0  0  0  0  0  0  0  0  0  0  0
  2  1  1  1
  3  2  1  0
  4  3  1  0
  5  4  2  0
  6  7  1  0
  6  5  1  0
  7  8  2  0
  8  4  1  0
  9  2  1  0
  9 10  2  0
 12 11  1  6
 12 14  1  0
 12 13  1  0
 14 15  1  6
 15  9  1  0
 16 14  1  0
 17 16  2  0
 18 16  1  0
 19 18  1  0
 19 20  1  1
 20 21  1  0
 21 22  2  0
 23 19  1  0
 24 23  2  0
 25 21  1  0
 26 23  1  0
M  END
$$$$
