MVC.pdb
     RDKit          3D

 22 21  0  0  1  0  0  0  0  0999 V2000
   26.0310  -14.4359  -16.6725 C   0  0  0  0  0  0  0  0  0  0  0  0
   25.1196  -14.0044  -15.1719 S   0  0  0  0  0  0  0  0  0  0  0  0
   23.3520  -13.8621  -15.5093 C   0  0  0  0  0  0  0  0  0  0  0  0
   23.0886  -12.4900  -16.0872 C   0  0  0  0  0  0  0  0  0  0  0  0
   21.6116  -12.3591  -16.3318 C   0  0  2  0  0  0  0  0  0  0  0  0
   21.1071  -13.2199  -17.3706 N   0  0  0  0  0  0  0  0  0  0  0  0
   21.3549  -10.9317  -16.7183 C   0  0  0  0  0  0  0  0  0  0  0  0
   21.6480  -10.5614  -17.8811 O   0  0  0  0  0  0  0  0  0  0  0  0
   18.2365   -9.5380  -17.2147 C   0  0  0  0  0  0  0  0  0  0  0  0
   18.9509   -8.6001  -16.3170 C   0  0  1  0  0  0  0  0  0  0  0  0
   18.5383   -8.7472  -14.8461 C   0  0  0  0  0  0  0  0  0  0  0  0
   20.4500   -8.6577  -16.3438 C   0  0  2  0  0  0  0  0  0  0  0  0
   20.7966   -9.9831  -15.8300 N   0  0  0  0  0  0  0  0  0  0  0  0
   21.1244   -7.5927  -15.5812 C   0  0  0  0  0  0  0  0  0  0  0  0
   21.3013   -7.8132  -14.3336 O   0  0  0  0  0  0  0  0  0  0  0  0
   21.5947   -6.3716  -16.0581 N   0  0  0  0  0  0  0  0  0  0  0  0
   22.3471   -5.4804  -15.2405 C   0  0  1  0  0  0  0  0  0  0  0  0
   23.1785   -4.4926  -16.0187 C   0  0  0  0  0  0  0  0  0  0  0  0
   24.2787   -5.3496  -17.1821 S   0  0  0  0  0  0  0  0  0  0  0  0
   21.4359   -4.7306  -14.3369 C   0  0  0  0  0  0  0  0  0  0  0  0
   20.2031   -4.7120  -14.5801 O   0  0  0  0  0  0  0  0  0  0  0  0
   21.8851   -4.0436  -13.2268 O   0  0  0  0  0  0  0  0  0  0  0  0
  2  1  1  0
  3  2  1  0
  3  4  1  0
  4  5  1  0
  5  7  1  0
  5  6  1  6
  7  8  2  0
 10  9  1  6
 10 12  1  0
 10 11  1  0
 12 14  1  0
 13  7  1  0
 12 13  1  1
 14 16  1  0
 15 14  2  0
 16 17  1  0
 17 18  1  6
 18 19  1  0
 20 22  1  0
 20 17  1  0
 21 20  2  0
M  END
$$$$
