MVC.pdb
     RDKit          3D

 22 21  0  0  1  0  0  0  0  0999 V2000
   27.6313  -18.1030   -6.0383 C   0  0  0  0  0  0  0  0  0  0  0  0
   28.5434  -19.6332   -5.7292 S   0  0  0  0  0  0  0  0  0  0  0  0
   28.1650  -20.8744   -6.9841 C   0  0  0  0  0  0  0  0  0  0  0  0
   27.4546  -20.1892   -8.1295 C   0  0  0  0  0  0  0  0  0  0  0  0
   27.2408  -21.1997   -9.2212 C   0  0  2  0  0  0  0  0  0  0  0  0
   28.4574  -21.7306   -9.7801 N   0  0  0  0  0  0  0  0  0  0  0  0
   26.4667  -20.5141  -10.3091 C   0  0  0  0  0  0  0  0  0  0  0  0
   27.0284  -19.6029  -10.9643 O   0  0  0  0  0  0  0  0  0  0  0  0
   26.7399  -20.8411  -13.0504 C   0  0  0  0  0  0  0  0  0  0  0  0
   25.2740  -21.0448  -12.9750 C   0  0  1  0  0  0  0  0  0  0  0  0
   24.8798  -22.5237  -12.8615 C   0  0  0  0  0  0  0  0  0  0  0  0
   24.5540  -20.3289  -11.8704 C   0  0  2  0  0  0  0  0  0  0  0  0
   25.1306  -20.8492  -10.6303 N   0  0  0  0  0  0  0  0  0  0  0  0
   23.0886  -20.4804  -11.8862 C   0  0  0  0  0  0  0  0  0  0  0  0
   22.5992  -21.3495  -11.0853 O   0  0  0  0  0  0  0  0  0  0  0  0
   22.1698  -19.7873  -12.6706 N   0  0  0  0  0  0  0  0  0  0  0  0
   20.7645  -19.9718  -12.5290 C   0  0  1  0  0  0  0  0  0  0  0  0
   19.9418  -18.8241  -13.0567 C   0  0  0  0  0  0  0  0  0  0  0  0
   20.3846  -17.2740  -12.2203 S   0  0  0  0  0  0  0  0  0  0  0  0
   20.3450  -21.2183  -13.2213 C   0  0  0  0  0  0  0  0  0  0  0  0
   21.0341  -21.6554  -14.1770 O   0  0  0  0  0  0  0  0  0  0  0  0
   19.2184  -21.9296  -12.8598 O   0  0  0  0  0  0  0  0  0  0  0  0
  2  1  1  0
  3  2  1  0
  3  4  1  0
  4  5  1  0
  5  7  1  0
  5  6  1  6
  7  8  2  0
 10  9  1  1
 10 12  1  0
 10 11  1  0
 12 14  1  0
 13  7  1  0
 12 13  1  1
 14 16  1  0
 15 14  2  0
 16 17  1  0
 17 18  1  6
 18 19  1  0
 20 22  1  0
 20 17  1  0
 21 20  2  0
M  END
$$$$
