MVC.pdb
     RDKit          3D

 22 21  0  0  1  0  0  0  0  0999 V2000
   21.9858  -28.7186  -13.7920 C   0  0  0  0  0  0  0  0  0  0  0  0
   20.5008  -27.6978  -13.6451 S   0  0  0  0  0  0  0  0  0  0  0  0
   20.8097  -26.0208  -14.2374 C   0  0  0  0  0  0  0  0  0  0  0  0
   21.8717  -26.0855  -15.3116 C   0  0  0  0  0  0  0  0  0  0  0  0
   22.1509  -24.6853  -15.7809 C   0  0  2  0  0  0  0  0  0  0  0  0
   21.0298  -24.0415  -16.4157 N   0  0  0  0  0  0  0  0  0  0  0  0
   23.2819  -24.7686  -16.7640 C   0  0  0  0  0  0  0  0  0  0  0  0
   23.0565  -25.2500  -17.9009 O   0  0  0  0  0  0  0  0  0  0  0  0
   25.8387  -21.9168  -17.2143 C   0  0  0  0  0  0  0  0  0  0  0  0
   25.6801  -23.0669  -18.1352 C   0  0  1  0  0  0  0  0  0  0  0  0
   26.7788  -23.1339  -19.2047 C   0  0  0  0  0  0  0  0  0  0  0  0
   25.6197  -24.4269  -17.5046 C   0  0  2  0  0  0  0  0  0  0  0  0
   24.5928  -24.3282  -16.4670 N   0  0  0  0  0  0  0  0  0  0  0  0
   26.8969  -24.9105  -16.9520 C   0  0  0  0  0  0  0  0  0  0  0  0
   27.3371  -24.2970  -15.9194 O   0  0  0  0  0  0  0  0  0  0  0  0
   27.6839  -25.9599  -17.4203 N   0  0  0  0  0  0  0  0  0  0  0  0
   28.9027  -26.3325  -16.7841 C   0  0  1  0  0  0  0  0  0  0  0  0
   29.2595  -27.7874  -16.9527 C   0  0  0  0  0  0  0  0  0  0  0  0
   27.9629  -28.8546  -16.2610 S   0  0  0  0  0  0  0  0  0  0  0  0
   30.0203  -25.5030  -17.3055 C   0  0  0  0  0  0  0  0  0  0  0  0
   29.8375  -24.7919  -18.3254 O   0  0  0  0  0  0  0  0  0  0  0  0
   31.2678  -25.4756  -16.7147 O   0  0  0  0  0  0  0  0  0  0  0  0
  2  1  1  0
  3  2  1  0
  3  4  1  0
  4  5  1  0
  5  7  1  0
  5  6  1  6
  7  8  2  0
 10  9  1  1
 10 12  1  0
 10 11  1  0
 12 14  1  0
 13  7  1  0
 12 13  1  1
 14 16  1  0
 15 14  2  0
 16 17  1  0
 17 18  1  6
 18 19  1  0
 20 22  1  0
 20 17  1  0
 21 20  2  0
M  END
$$$$
