MVC.pdb
     RDKit          3D

 22 21  0  0  1  0  0  0  0  0999 V2000
   22.4133  -17.3395  -14.7565 C   0  0  0  0  0  0  0  0  0  0  0  0
   23.3310  -15.7824  -14.7096 S   0  0  0  0  0  0  0  0  0  0  0  0
   22.7812  -14.6700  -16.0206 C   0  0  0  0  0  0  0  0  0  0  0  0
   23.5144  -13.3567  -15.8665 C   0  0  0  0  0  0  0  0  0  0  0  0
   23.1407  -12.4719  -17.0224 C   0  0  2  0  0  0  0  0  0  0  0  0
   23.7845  -12.8189  -18.2631 N   0  0  0  0  0  0  0  0  0  0  0  0
   23.5322  -11.0719  -16.6486 C   0  0  0  0  0  0  0  0  0  0  0  0
   24.2342  -10.8972  -15.6230 O   0  0  0  0  0  0  0  0  0  0  0  0
   25.3738   -8.4471  -18.6282 C   0  0  0  0  0  0  0  0  0  0  0  0
   24.1047   -7.8997  -18.0935 C   0  0  1  0  0  0  0  0  0  0  0  0
   22.9943   -7.8204  -19.1500 C   0  0  0  0  0  0  0  0  0  0  0  0
   23.5141   -8.6100  -16.9112 C   0  0  2  0  0  0  0  0  0  0  0  0
   23.1454   -9.9385  -17.4011 N   0  0  0  0  0  0  0  0  0  0  0  0
   22.3650   -7.9286  -16.2900 C   0  0  0  0  0  0  0  0  0  0  0  0
   21.2232   -8.1370  -16.8277 O   0  0  0  0  0  0  0  0  0  0  0  0
   22.3735   -7.0831  -15.1833 N   0  0  0  0  0  0  0  0  0  0  0  0
   21.1880   -6.4577  -14.7013 C   0  0  1  0  0  0  0  0  0  0  0  0
   20.6274   -7.0913  -13.4536 C   0  0  0  0  0  0  0  0  0  0  0  0
   19.2252   -6.1296  -12.8151 S   0  0  0  0  0  0  0  0  0  0  0  0
   21.4481   -5.0194  -14.4312 C   0  0  0  0  0  0  0  0  0  0  0  0
   22.6028   -4.6532  -14.0969 O   0  0  0  0  0  0  0  0  0  0  0  0
   20.4680   -4.0524  -14.5314 O   0  0  0  0  0  0  0  0  0  0  0  0
  2  1  1  0
  3  2  1  0
  3  4  1  0
  4  5  1  0
  5  7  1  0
  5  6  1  6
  7  8  2  0
 10  9  1  6
 10 12  1  0
 10 11  1  0
 12 14  1  0
 13  7  1  0
 12 13  1  6
 14 16  1  0
 15 14  2  0
 16 17  1  0
 17 18  1  1
 18 19  1  0
 20 22  1  0
 20 17  1  0
 21 20  2  0
M  END
$$$$
