MVC.pdb
     RDKit          3D

 22 21  0  0  1  0  0  0  0  0999 V2000
   26.8907  -14.8547  -14.3055 C   0  0  0  0  0  0  0  0  0  0  0  0
   25.9242  -13.5479  -15.0974 S   0  0  0  0  0  0  0  0  0  0  0  0
   26.8062  -12.8622  -16.5153 C   0  0  0  0  0  0  0  0  0  0  0  0
   26.0631  -11.6327  -16.9865 C   0  0  0  0  0  0  0  0  0  0  0  0
   24.6788  -12.0494  -17.3974 C   0  0  2  0  0  0  0  0  0  0  0  0
   24.6417  -12.9299  -18.5366 N   0  0  0  0  0  0  0  0  0  0  0  0
   23.9229  -10.7959  -17.7292 C   0  0  0  0  0  0  0  0  0  0  0  0
   24.2801  -10.1245  -18.7276 O   0  0  0  0  0  0  0  0  0  0  0  0
   20.8830  -10.2920  -19.0776 C   0  0  0  0  0  0  0  0  0  0  0  0
   20.8789   -9.3890  -17.9026 C   0  0  1  0  0  0  0  0  0  0  0  0
   20.0163   -9.9139  -16.7468 C   0  0  0  0  0  0  0  0  0  0  0  0
   22.2165   -9.0509  -17.3128 C   0  0  2  0  0  0  0  0  0  0  0  0
   22.8240  -10.3362  -16.9666 N   0  0  0  0  0  0  0  0  0  0  0  0
   22.1699   -8.1480  -16.1495 C   0  0  0  0  0  0  0  0  0  0  0  0
   22.0239   -8.7028  -15.0061 O   0  0  0  0  0  0  0  0  0  0  0  0
   22.2675   -6.7587  -16.1460 N   0  0  0  0  0  0  0  0  0  0  0  0
   22.3297   -6.0088  -14.9366 C   0  0  1  0  0  0  0  0  0  0  0  0
   23.0723   -4.7032  -15.0653 C   0  0  0  0  0  0  0  0  0  0  0  0
   24.7648   -4.9792  -15.6635 S   0  0  0  0  0  0  0  0  0  0  0  0
   20.9560   -5.7303  -14.4421 C   0  0  0  0  0  0  0  0  0  0  0  0
   19.9753   -5.9195  -15.2047 O   0  0  0  0  0  0  0  0  0  0  0  0
   20.7019   -5.2671  -13.1667 O   0  0  0  0  0  0  0  0  0  0  0  0
  2  1  1  0
  3  2  1  0
  3  4  1  0
  4  5  1  0
  5  7  1  0
  5  6  1  6
  7  8  2  0
 10  9  1  6
 10 12  1  0
 10 11  1  0
 12 14  1  0
 13  7  1  0
 12 13  1  1
 14 16  1  0
 15 14  2  0
 16 17  1  0
 17 18  1  6
 18 19  1  0
 20 22  1  0
 20 17  1  0
 21 20  2  0
M  END
$$$$
