MVC.pdb
     RDKit          3D

 22 21  0  0  1  0  0  0  0  0999 V2000
   10.4384  -13.2066   -9.6093 C   0  0  0  0  0  0  0  0  0  0  0  0
   10.2955  -12.0923  -11.0260 S   0  0  0  0  0  0  0  0  0  0  0  0
   11.8518  -12.0032  -11.9361 C   0  0  0  0  0  0  0  0  0  0  0  0
   12.8902  -11.3688  -11.0387 C   0  0  0  0  0  0  0  0  0  0  0  0
   14.2031  -11.3641  -11.7701 C   0  0  2  0  0  0  0  0  0  0  0  0
   14.8571  -12.6465  -11.8164 N   0  0  0  0  0  0  0  0  0  0  0  0
   15.0976  -10.3895  -11.0609 C   0  0  0  0  0  0  0  0  0  0  0  0
   15.6467  -10.7461   -9.9903 O   0  0  0  0  0  0  0  0  0  0  0  0
   18.1766   -9.0030  -12.3449 C   0  0  0  0  0  0  0  0  0  0  0  0
   17.3593   -7.8829  -11.8218 C   0  0  1  0  0  0  0  0  0  0  0  0
   16.6600   -7.0833  -12.9295 C   0  0  0  0  0  0  0  0  0  0  0  0
   16.2986   -8.2375  -10.8217 C   0  0  2  0  0  0  0  0  0  0  0  0
   15.3505   -9.0849  -11.5456 N   0  0  0  0  0  0  0  0  0  0  0  0
   15.6230   -7.0850  -10.2005 C   0  0  0  0  0  0  0  0  0  0  0  0
   14.5612   -6.6695  -10.7803 O   0  0  0  0  0  0  0  0  0  0  0  0
   16.0030   -6.3927   -9.0533 N   0  0  0  0  0  0  0  0  0  0  0  0
   15.2882   -5.2520   -8.5877 C   0  0  1  0  0  0  0  0  0  0  0  0
   15.1019   -5.2168   -7.0921 C   0  0  0  0  0  0  0  0  0  0  0  0
   14.2555   -3.6927   -6.5826 S   0  0  0  0  0  0  0  0  0  0  0  0
   15.9853   -4.0097   -9.0116 C   0  0  0  0  0  0  0  0  0  0  0  0
   17.2412   -3.9882   -9.0475 O   0  0  0  0  0  0  0  0  0  0  0  0
   15.3096   -2.8614   -9.3732 O   0  0  0  0  0  0  0  0  0  0  0  0
  2  1  1  0
  3  2  1  0
  3  4  1  0
  4  5  1  0
  5  7  1  0
  5  6  1  1
  7  8  2  0
 10  9  1  6
 10 12  1  0
 10 11  1  0
 12 14  1  0
 13  7  1  0
 12 13  1  6
 14 16  1  0
 15 14  2  0
 16 17  1  0
 17 18  1  1
 18 19  1  0
 20 22  1  0
 20 17  1  0
 21 20  2  0
M  END
$$$$
