MVC.pdb
     RDKit          3D

 22 21  0  0  1  0  0  0  0  0999 V2000
   25.2217  -15.5241  -15.1484 C   0  0  0  0  0  0  0  0  0  0  0  0
   26.8738  -15.4292  -15.8767 S   0  0  0  0  0  0  0  0  0  0  0  0
   27.8098  -16.9380  -15.5515 C   0  0  0  0  0  0  0  0  0  0  0  0
   26.8450  -18.0018  -15.0786 C   0  0  0  0  0  0  0  0  0  0  0  0
   27.6418  -19.2035  -14.6549 C   0  0  2  0  0  0  0  0  0  0  0  0
   28.3525  -19.8486  -15.7288 N   0  0  0  0  0  0  0  0  0  0  0  0
   26.6748  -20.1833  -14.0568 C   0  0  0  0  0  0  0  0  0  0  0  0
   26.2711  -21.1382  -14.7641 O   0  0  0  0  0  0  0  0  0  0  0  0
   26.9040  -21.4094  -10.3501 C   0  0  0  0  0  0  0  0  0  0  0  0
   25.5000  -21.1847  -10.7678 C   0  0  1  0  0  0  0  0  0  0  0  0
   24.8796  -19.9322  -10.1340 C   0  0  0  0  0  0  0  0  0  0  0  0
   25.2483  -21.0815  -12.2433 C   0  0  2  0  0  0  0  0  0  0  0  0
   26.1971  -20.0793  -12.7295 N   0  0  0  0  0  0  0  0  0  0  0  0
   23.8648  -20.7351  -12.6127 C   0  0  0  0  0  0  0  0  0  0  0  0
   23.4930  -19.5374  -12.3605 O   0  0  0  0  0  0  0  0  0  0  0  0
   22.9110  -21.5581  -13.2066 N   0  0  0  0  0  0  0  0  0  0  0  0
   21.6332  -21.0696  -13.6032 C   0  0  1  0  0  0  0  0  0  0  0  0
   21.0180  -21.8298  -14.7505 C   0  0  0  0  0  0  0  0  0  0  0  0
   22.1982  -21.9970  -16.1208 S   0  0  0  0  0  0  0  0  0  0  0  0
   20.6968  -21.1058  -12.4495 C   0  0  0  0  0  0  0  0  0  0  0  0
   21.0229  -21.7307  -11.4092 O   0  0  0  0  0  0  0  0  0  0  0  0
   19.4680  -20.4766  -12.4660 O   0  0  0  0  0  0  0  0  0  0  0  0
  2  1  1  0
  3  2  1  0
  3  4  1  0
  4  5  1  0
  5  7  1  0
  5  6  1  6
  7  8  2  0
 10  9  1  6
 10 12  1  0
 10 11  1  0
 12 14  1  0
 13  7  1  0
 12 13  1  1
 14 16  1  0
 15 14  2  0
 16 17  1  0
 17 18  1  6
 18 19  1  0
 20 22  1  0
 20 17  1  0
 21 20  2  0
M  END
$$$$
