MVC.pdb
     RDKit          3D

 22 21  0  0  1  0  0  0  0  0999 V2000
   29.9632  -21.3193  -11.9966 C   0  0  0  0  0  0  0  0  0  0  0  0
   29.3583  -21.1206  -10.3044 S   0  0  0  0  0  0  0  0  0  0  0  0
   27.7701  -21.9502  -10.0855 C   0  0  0  0  0  0  0  0  0  0  0  0
   26.9015  -21.6345  -11.2821 C   0  0  0  0  0  0  0  0  0  0  0  0
   26.2092  -20.3252  -11.0274 C   0  0  2  0  0  0  0  0  0  0  0  0
   25.1654  -20.3927  -10.0372 N   0  0  0  0  0  0  0  0  0  0  0  0
   25.6118  -19.8830  -12.3314 C   0  0  0  0  0  0  0  0  0  0  0  0
   24.3721  -19.9927  -12.4931 O   0  0  0  0  0  0  0  0  0  0  0  0
   28.1431  -17.9248  -14.9401 C   0  0  0  0  0  0  0  0  0  0  0  0
   26.7661  -17.4300  -14.7057 C   0  0  1  0  0  0  0  0  0  0  0  0
   26.2025  -16.6408  -15.8952 C   0  0  0  0  0  0  0  0  0  0  0  0
   25.7342  -18.4611  -14.3547 C   0  0  2  0  0  0  0  0  0  0  0  0
   26.3840  -19.3470  -13.3883 N   0  0  0  0  0  0  0  0  0  0  0  0
   25.1990  -19.2167  -15.5007 C   0  0  0  0  0  0  0  0  0  0  0  0
   26.0583  -19.8046  -16.2439 O   0  0  0  0  0  0  0  0  0  0  0  0
   23.8652  -19.3686  -15.8717 N   0  0  0  0  0  0  0  0  0  0  0  0
   23.4762  -20.1772  -16.9779 C   0  0  1  0  0  0  0  0  0  0  0  0
   22.1783  -20.9149  -16.7684 C   0  0  0  0  0  0  0  0  0  0  0  0
   22.2199  -21.8689  -15.2236 S   0  0  0  0  0  0  0  0  0  0  0  0
   23.3580  -19.3401  -18.2004 C   0  0  0  0  0  0  0  0  0  0  0  0
   23.3486  -18.0881  -18.0926 O   0  0  0  0  0  0  0  0  0  0  0  0
   23.2564  -19.8797  -19.4671 O   0  0  0  0  0  0  0  0  0  0  0  0
  2  1  1  0
  3  2  1  0
  3  4  1  0
  4  5  1  0
  5  7  1  0
  5  6  1  1
  7  8  2  0
 10  9  1  6
 10 12  1  0
 10 11  1  0
 12 14  1  0
 13  7  1  0
 12 13  1  1
 14 16  1  0
 15 14  2  0
 16 17  1  0
 17 18  1  1
 18 19  1  0
 20 22  1  0
 20 17  1  0
 21 20  2  0
M  END
$$$$
