MVC.pdb
     RDKit          3D

 22 21  0  0  1  0  0  0  0  0999 V2000
   21.1378  -24.4435  -16.8292 C   0  0  0  0  0  0  0  0  0  0  0  0
   20.5365  -22.8738  -17.4950 S   0  0  0  0  0  0  0  0  0  0  0  0
   21.8963  -21.7104  -17.7319 C   0  0  0  0  0  0  0  0  0  0  0  0
   22.9857  -22.0460  -16.7387 C   0  0  0  0  0  0  0  0  0  0  0  0
   24.2672  -21.4256  -17.2199 C   0  0  2  0  0  0  0  0  0  0  0  0
   24.8558  -22.0917  -18.3532 N   0  0  0  0  0  0  0  0  0  0  0  0
   25.2355  -21.4722  -16.0740 C   0  0  0  0  0  0  0  0  0  0  0  0
   25.8883  -22.5265  -15.8807 O   0  0  0  0  0  0  0  0  0  0  0  0
   27.9165  -18.8552  -15.5320 C   0  0  0  0  0  0  0  0  0  0  0  0
   27.2356  -19.1719  -14.2544 C   0  0  1  0  0  0  0  0  0  0  0  0
   26.2330  -18.0919  -13.8261 C   0  0  0  0  0  0  0  0  0  0  0  0
   26.5019  -20.4792  -14.1924 C   0  0  2  0  0  0  0  0  0  0  0  0
   25.4462  -20.3798  -15.2006 N   0  0  0  0  0  0  0  0  0  0  0  0
   25.9503  -20.8176  -12.8688 C   0  0  0  0  0  0  0  0  0  0  0  0
   24.6763  -20.9007  -12.7893 O   0  0  0  0  0  0  0  0  0  0  0  0
   26.6527  -21.0596  -11.6907 N   0  0  0  0  0  0  0  0  0  0  0  0
   25.9968  -21.1866  -10.4327 C   0  0  1  0  0  0  0  0  0  0  0  0
   26.9209  -21.0670   -9.2475 C   0  0  0  0  0  0  0  0  0  0  0  0
   25.9935  -21.1894   -7.6908 S   0  0  0  0  0  0  0  0  0  0  0  0
   24.9297  -20.1592  -10.3119 C   0  0  0  0  0  0  0  0  0  0  0  0
   25.1971  -18.9583  -10.5683 O   0  0  0  0  0  0  0  0  0  0  0  0
   23.6399  -20.4649   -9.9259 O   0  0  0  0  0  0  0  0  0  0  0  0
  2  1  1  0
  3  2  1  0
  3  4  1  0
  4  5  1  0
  5  7  1  0
  5  6  1  6
  7  8  2  0
 10  9  1  6
 10 12  1  0
 10 11  1  0
 12 14  1  0
 13  7  1  0
 12 13  1  6
 14 16  1  0
 15 14  2  0
 16 17  1  0
 17 18  1  1
 18 19  1  0
 20 22  1  0
 20 17  1  0
 21 20  2  0
M  END
$$$$
