MVC.pdb
     RDKit          3D

 22 21  0  0  1  0  0  0  0  0999 V2000
   10.3522  -14.5822  -12.5227 C   0  0  0  0  0  0  0  0  0  0  0  0
   11.4635  -13.3337  -11.8334 S   0  0  0  0  0  0  0  0  0  0  0  0
   12.9003  -13.0903  -12.8988 C   0  0  0  0  0  0  0  0  0  0  0  0
   13.8658  -12.1682  -12.1892 C   0  0  0  0  0  0  0  0  0  0  0  0
   15.0787  -11.9982  -13.0602 C   0  0  2  0  0  0  0  0  0  0  0  0
   15.8520  -13.2006  -13.2359 N   0  0  0  0  0  0  0  0  0  0  0  0
   15.9432  -10.9569  -12.4113 C   0  0  0  0  0  0  0  0  0  0  0  0
   16.6736  -11.2961  -11.4487 O   0  0  0  0  0  0  0  0  0  0  0  0
   18.7000   -9.2355  -13.9287 C   0  0  0  0  0  0  0  0  0  0  0  0
   17.8163   -8.2186  -13.3113 C   0  0  1  0  0  0  0  0  0  0  0  0
   16.9089   -7.5157  -14.3301 C   0  0  0  0  0  0  0  0  0  0  0  0
   16.9219   -8.6920  -12.2036 C   0  0  2  0  0  0  0  0  0  0  0  0
   15.9724   -9.6081  -12.8362 N   0  0  0  0  0  0  0  0  0  0  0  0
   16.2266   -7.6211  -11.4686 C   0  0  0  0  0  0  0  0  0  0  0  0
   15.1465   -7.1810  -11.9940 O   0  0  0  0  0  0  0  0  0  0  0  0
   16.6054   -7.0299  -10.2657 N   0  0  0  0  0  0  0  0  0  0  0  0
   15.8147   -6.0271   -9.6349 C   0  0  1  0  0  0  0  0  0  0  0  0
   15.8968   -6.0421   -8.1297 C   0  0  0  0  0  0  0  0  0  0  0  0
   15.5372   -7.6995   -7.4799 S   0  0  0  0  0  0  0  0  0  0  0  0
   16.2193   -4.6824  -10.1219 C   0  0  0  0  0  0  0  0  0  0  0  0
   17.2637   -4.5638  -10.8106 O   0  0  0  0  0  0  0  0  0  0  0  0
   15.4923   -3.5406   -9.8502 O   0  0  0  0  0  0  0  0  0  0  0  0
  2  1  1  0
  3  2  1  0
  3  4  1  0
  4  5  1  0
  5  7  1  0
  5  6  1  1
  7  8  2  0
 10  9  1  6
 10 12  1  0
 10 11  1  0
 12 14  1  0
 13  7  1  0
 12 13  1  6
 14 16  1  0
 15 14  2  0
 16 17  1  0
 17 18  1  1
 18 19  1  0
 20 22  1  0
 20 17  1  0
 21 20  2  0
M  END
$$$$
