MVC.pdb
     RDKit          3D

 22 21  0  0  1  0  0  0  0  0999 V2000
   19.6568  -11.3383  -22.4042 C   0  0  0  0  0  0  0  0  0  0  0  0
   18.3900  -12.4374  -21.7288 S   0  0  0  0  0  0  0  0  0  0  0  0
   18.9550  -13.2090  -20.1979 C   0  0  0  0  0  0  0  0  0  0  0  0
   19.1968  -12.1188  -19.1787 C   0  0  0  0  0  0  0  0  0  0  0  0
   19.8457  -12.7386  -17.9731 C   0  0  2  0  0  0  0  0  0  0  0  0
   19.1013  -13.8292  -17.3979 N   0  0  0  0  0  0  0  0  0  0  0  0
   19.9889  -11.6545  -16.9449 C   0  0  0  0  0  0  0  0  0  0  0  0
   19.0225  -11.4203  -16.1792 O   0  0  0  0  0  0  0  0  0  0  0  0
   22.7678  -11.6613  -14.4953 C   0  0  0  0  0  0  0  0  0  0  0  0
   22.5964  -10.2874  -15.0234 C   0  0  1  0  0  0  0  0  0  0  0  0
   23.6713   -9.9012  -16.0486 C   0  0  0  0  0  0  0  0  0  0  0  0
   21.2737   -9.9738  -15.6585 C   0  0  2  0  0  0  0  0  0  0  0  0
   21.1657  -10.8835  -16.7994 N   0  0  0  0  0  0  0  0  0  0  0  0
   21.1027   -8.5703  -16.0725 C   0  0  0  0  0  0  0  0  0  0  0  0
   21.7827   -8.1912  -17.0876 O   0  0  0  0  0  0  0  0  0  0  0  0
   20.2858   -7.6045  -15.4898 N   0  0  0  0  0  0  0  0  0  0  0  0
   20.1441   -6.3002  -16.0444 C   0  0  1  0  0  0  0  0  0  0  0  0
   18.7253   -5.9413  -16.4061 C   0  0  0  0  0  0  0  0  0  0  0  0
   17.9937   -7.2074  -17.4834 S   0  0  0  0  0  0  0  0  0  0  0  0
   20.6654   -5.2854  -15.0917 C   0  0  0  0  0  0  0  0  0  0  0  0
   21.0196   -5.6440  -13.9406 O   0  0  0  0  0  0  0  0  0  0  0  0
   20.7809   -3.9483  -15.4153 O   0  0  0  0  0  0  0  0  0  0  0  0
  2  1  1  0
  3  2  1  0
  3  4  1  0
  4  5  1  0
  5  7  1  0
  5  6  1  1
  7  8  2  0
 10  9  1  6
 10 12  1  0
 10 11  1  0
 12 14  1  0
 13  7  1  0
 12 13  1  6
 14 16  1  0
 15 14  2  0
 16 17  1  0
 17 18  1  1
 18 19  1  0
 20 22  1  0
 20 17  1  0
 21 20  2  0
M  END
$$$$
