MVC.pdb
     RDKit          3D

 22 21  0  0  1  0  0  0  0  0999 V2000
   26.1859  -18.7121   -6.6676 C   0  0  0  0  0  0  0  0  0  0  0  0
   27.6513  -19.7709   -6.6881 S   0  0  0  0  0  0  0  0  0  0  0  0
   27.5509  -20.9854   -8.0199 C   0  0  0  0  0  0  0  0  0  0  0  0
   27.0219  -20.2920   -9.2549 C   0  0  0  0  0  0  0  0  0  0  0  0
   26.9391  -21.3043  -10.3626 C   0  0  2  0  0  0  0  0  0  0  0  0
   28.2130  -21.8393  -10.7692 N   0  0  0  0  0  0  0  0  0  0  0  0
   26.3043  -20.6191  -11.5375 C   0  0  0  0  0  0  0  0  0  0  0  0
   26.9911  -19.8068  -12.2033 O   0  0  0  0  0  0  0  0  0  0  0  0
   26.2379  -22.4814  -14.0297 C   0  0  0  0  0  0  0  0  0  0  0  0
   24.8351  -22.0065  -13.9780 C   0  0  1  0  0  0  0  0  0  0  0  0
   23.8939  -22.9939  -13.2748 C   0  0  0  0  0  0  0  0  0  0  0  0
   24.6033  -20.6704  -13.3359 C   0  0  2  0  0  0  0  0  0  0  0  0
   24.9646  -20.8480  -11.9292 N   0  0  0  0  0  0  0  0  0  0  0  0
   23.2341  -20.1449  -13.4766 C   0  0  0  0  0  0  0  0  0  0  0  0
   22.3961  -20.4965  -12.5763 O   0  0  0  0  0  0  0  0  0  0  0  0
   22.7422  -19.3077  -14.4750 N   0  0  0  0  0  0  0  0  0  0  0  0
   21.4098  -18.8046  -14.4505 C   0  0  1  0  0  0  0  0  0  0  0  0
   21.1345  -17.7542  -15.4963 C   0  0  0  0  0  0  0  0  0  0  0  0
   22.2774  -16.3536  -15.3212 S   0  0  0  0  0  0  0  0  0  0  0  0
   20.4439  -19.9201  -14.6280 C   0  0  0  0  0  0  0  0  0  0  0  0
   20.7785  -20.9245  -15.3051 O   0  0  0  0  0  0  0  0  0  0  0  0
   19.1782  -19.9059  -14.0768 O   0  0  0  0  0  0  0  0  0  0  0  0
  2  1  1  0
  3  2  1  0
  3  4  1  0
  4  5  1  0
  5  7  1  0
  5  6  1  6
  7  8  2  0
 10  9  1  1
 10 12  1  0
 10 11  1  0
 12 14  1  0
 13  7  1  0
 12 13  1  1
 14 16  1  0
 15 14  2  0
 16 17  1  0
 17 18  1  6
 18 19  1  0
 20 22  1  0
 20 17  1  0
 21 20  2  0
M  END
$$$$
