MVC.pdb
     RDKit          3D

 22 21  0  0  1  0  0  0  0  0999 V2000
   28.6475  -12.6283  -16.3987 C   0  0  0  0  0  0  0  0  0  0  0  0
   27.9590  -13.8930  -15.3053 S   0  0  0  0  0  0  0  0  0  0  0  0
   26.3900  -14.5146  -15.9458 C   0  0  0  0  0  0  0  0  0  0  0  0
   25.3665  -13.4058  -15.8509 C   0  0  0  0  0  0  0  0  0  0  0  0
   24.0941  -13.8852  -16.4911 C   0  0  2  0  0  0  0  0  0  0  0  0
   24.2836  -14.9111  -17.4841 N   0  0  0  0  0  0  0  0  0  0  0  0
   23.4535  -12.6938  -17.1417 C   0  0  0  0  0  0  0  0  0  0  0  0
   23.8740  -12.3231  -18.2645 O   0  0  0  0  0  0  0  0  0  0  0  0
   20.2911  -12.3898  -18.5630 C   0  0  0  0  0  0  0  0  0  0  0  0
   20.4258  -11.2516  -17.6237 C   0  0  1  0  0  0  0  0  0  0  0  0
   19.6955  -11.4827  -16.2938 C   0  0  0  0  0  0  0  0  0  0  0  0
   21.8235  -10.8347  -17.2722 C   0  0  2  0  0  0  0  0  0  0  0  0
   22.3955  -11.9687  -16.5456 N   0  0  0  0  0  0  0  0  0  0  0  0
   21.9202   -9.5908  -16.4886 C   0  0  0  0  0  0  0  0  0  0  0  0
   21.7707   -9.7042  -15.2233 O   0  0  0  0  0  0  0  0  0  0  0  0
   22.1569   -8.3027  -16.9624 N   0  0  0  0  0  0  0  0  0  0  0  0
   22.2728   -7.1851  -16.0870 C   0  0  1  0  0  0  0  0  0  0  0  0
   23.0100   -6.0143  -16.6857 C   0  0  0  0  0  0  0  0  0  0  0  0
   24.6684   -6.5090  -17.2366 S   0  0  0  0  0  0  0  0  0  0  0  0
   20.9223   -6.7325  -15.6621 C   0  0  0  0  0  0  0  0  0  0  0  0
   19.9070   -7.1835  -16.2495 O   0  0  0  0  0  0  0  0  0  0  0  0
   20.7267   -5.8274  -14.6381 O   0  0  0  0  0  0  0  0  0  0  0  0
  2  1  1  0
  3  2  1  0
  3  4  1  0
  4  5  1  0
  5  7  1  0
  5  6  1  6
  7  8  2  0
 10  9  1  6
 10 12  1  0
 10 11  1  0
 12 14  1  0
 13  7  1  0
 12 13  1  1
 14 16  1  0
 15 14  2  0
 16 17  1  0
 17 18  1  6
 18 19  1  0
 20 22  1  0
 20 17  1  0
 21 20  2  0
M  END
$$$$
