MVC.pdb
     RDKit          3D

 22 21  0  0  1  0  0  0  0  0999 V2000
   27.7970  -15.9105  -16.7988 C   0  0  0  0  0  0  0  0  0  0  0  0
   27.1900  -15.9834  -15.0973 S   0  0  0  0  0  0  0  0  0  0  0  0
   25.4204  -16.3376  -15.0584 C   0  0  0  0  0  0  0  0  0  0  0  0
   24.6858  -15.1465  -15.6308 C   0  0  0  0  0  0  0  0  0  0  0  0
   23.2208  -15.4779  -15.6807 C   0  0  2  0  0  0  0  0  0  0  0  0
   22.9109  -16.6708  -16.4260 N   0  0  0  0  0  0  0  0  0  0  0  0
   22.5280  -14.3117  -16.3232 C   0  0  0  0  0  0  0  0  0  0  0  0
   22.5887  -14.1888  -17.5707 O   0  0  0  0  0  0  0  0  0  0  0  0
   19.4709  -13.7593  -17.2792 C   0  0  0  0  0  0  0  0  0  0  0  0
   19.7722  -12.5535  -16.4722 C   0  0  1  0  0  0  0  0  0  0  0  0
   19.1691  -12.6102  -15.0621 C   0  0  0  0  0  0  0  0  0  0  0  0
   21.2220  -12.2083  -16.2989 C   0  0  2  0  0  0  0  0  0  0  0  0
   21.8084  -13.3431  -15.5852 N   0  0  0  0  0  0  0  0  0  0  0  0
   21.4767  -10.9403  -15.5932 C   0  0  0  0  0  0  0  0  0  0  0  0
   21.4965  -10.9962  -14.3154 O   0  0  0  0  0  0  0  0  0  0  0  0
   21.7003   -9.6848  -16.1530 N   0  0  0  0  0  0  0  0  0  0  0  0
   21.9708   -8.5380  -15.3526 C   0  0  1  0  0  0  0  0  0  0  0  0
   22.5238   -7.3691  -16.1276 C   0  0  0  0  0  0  0  0  0  0  0  0
   23.9697   -7.8693  -17.1062 S   0  0  0  0  0  0  0  0  0  0  0  0
   20.7327   -8.1049  -14.6536 C   0  0  0  0  0  0  0  0  0  0  0  0
   19.6129   -8.3979  -15.1430 O   0  0  0  0  0  0  0  0  0  0  0  0
   20.7538   -7.3857  -13.4754 O   0  0  0  0  0  0  0  0  0  0  0  0
  2  1  1  0
  3  2  1  0
  3  4  1  0
  4  5  1  0
  5  7  1  0
  5  6  1  6
  7  8  2  0
 10  9  1  1
 10 12  1  0
 10 11  1  0
 12 14  1  0
 13  7  1  0
 12 13  1  1
 14 16  1  0
 15 14  2  0
 16 17  1  0
 17 18  1  6
 18 19  1  0
 20 22  1  0
 20 17  1  0
 21 20  2  0
M  END
$$$$
