EML.pdb
     RDKit          3D

 26 25  0  0  1  0  0  0  0  0999 V2000
    9.1472  -18.4475   20.7665 N   0  0  0  0  0  0  0  0  0  0  0  0
   10.2301  -17.6000   20.8393 C   0  0  1  0  0  0  0  0  0  0  0  0
   10.4309  -16.7087   19.6520 C   0  0  0  0  0  0  0  0  0  0  0  0
   11.7034  -16.9163   18.9030 C   0  0  0  0  0  0  0  0  0  0  0  0
   11.4931  -17.4123   17.5524 C   0  0  0  0  0  0  0  0  0  0  0  0
   11.6986  -18.5932   17.2115 O   0  0  0  0  0  0  0  0  0  0  0  0
   10.1351  -16.7273   22.0810 C   0  0  0  0  0  0  0  0  0  0  0  0
   11.0892  -15.9573   22.2929 O   0  0  0  0  0  0  0  0  0  0  0  0
   11.0295  -16.5121   16.5633 O   0  0  0  0  0  0  0  0  0  0  0  0
    6.3850  -12.0046   25.5214 C   0  0  0  0  0  0  0  0  0  0  0  0
    6.7081  -13.7618   25.8101 S   0  0  0  0  0  0  0  0  0  0  0  0
    7.0265  -14.5525   24.1688 C   0  0  0  0  0  0  0  0  0  0  0  0
    7.3254  -15.9960   24.4884 C   0  0  0  0  0  0  0  0  0  0  0  0
    8.7854  -16.2488   24.1662 C   0  0  2  0  0  0  0  0  0  0  0  0
    8.9939  -16.8396   22.9027 N   0  0  0  0  0  0  0  0  0  0  0  0
    9.5543  -16.8681   25.2329 C   0  0  0  0  0  0  0  0  0  0  0  0
   10.1818  -17.9623   25.0986 O   0  0  0  0  0  0  0  0  0  0  0  0
   11.4510  -13.6736   27.6919 C   0  0  0  0  0  0  0  0  0  0  0  0
   10.3140  -14.3125   28.3996 C   0  0  2  0  0  0  0  0  0  0  0  0
    9.8843  -13.4932   29.6346 C   0  0  0  0  0  0  0  0  0  0  0  0
   10.3962  -15.7497   28.7160 C   0  0  0  0  0  0  0  0  0  0  0  0
   10.3757  -16.7495   27.6389 C   0  0  2  0  0  0  0  0  0  0  0  0
    9.6053  -16.2170   26.4862 N   0  0  0  0  0  0  0  0  0  0  0  0
    9.9690  -18.1186   27.9048 C   0  0  0  0  0  0  0  0  0  0  0  0
   10.7262  -19.1117   28.4685 O   0  0  0  0  0  0  0  0  0  0  0  0
    8.7772  -18.4672   27.5809 O   0  0  0  0  0  0  0  0  0  0  0  0
  2  1  1  6
  3  2  1  0
  4  3  1  0
  5  4  1  0
  6  5  2  0
  7  2  1  0
  7  8  2  0
  9  5  1  0
 11 12  1  0
 11 10  1  0
 12 13  1  0
 14 13  1  1
 14 15  1  0
 15  7  1  0
 16 14  1  0
 17 16  2  0
 19 18  1  1
 19 21  1  0
 20 19  1  0
 22 21  1  1
 22 23  1  0
 22 24  1  0
 23 16  1  0
 24 25  1  0
 26 24  2  0
M  END
$$$$
