EML.pdb
     RDKit          3D

 26 25  0  0  1  0  0  0  0  0999 V2000
    9.0643  -17.9849   20.8125 N   0  0  0  0  0  0  0  0  0  0  0  0
   10.3196  -17.4276   20.9113 C   0  0  1  0  0  0  0  0  0  0  0  0
   10.7999  -16.7028   19.6913 C   0  0  0  0  0  0  0  0  0  0  0  0
   11.6293  -17.5103   18.7515 C   0  0  0  0  0  0  0  0  0  0  0  0
   11.3322  -17.2382   17.3543 C   0  0  0  0  0  0  0  0  0  0  0  0
   10.9090  -18.0990   16.5588 O   0  0  0  0  0  0  0  0  0  0  0  0
   10.3807  -16.4698   22.0909 C   0  0  0  0  0  0  0  0  0  0  0  0
   11.4485  -15.8508   22.2489 O   0  0  0  0  0  0  0  0  0  0  0  0
   11.5312  -15.9264   16.8611 O   0  0  0  0  0  0  0  0  0  0  0  0
    6.7847  -12.4467   25.9631 C   0  0  0  0  0  0  0  0  0  0  0  0
    6.0528  -13.2303   24.5050 S   0  0  0  0  0  0  0  0  0  0  0  0
    7.3966  -14.1457   23.6240 C   0  0  0  0  0  0  0  0  0  0  0  0
    7.7798  -15.2634   24.5617 C   0  0  0  0  0  0  0  0  0  0  0  0
    9.1744  -15.7252   24.1859 C   0  0  2  0  0  0  0  0  0  0  0  0
    9.2463  -16.3418   22.9196 N   0  0  0  0  0  0  0  0  0  0  0  0
    9.8864  -16.4477   25.2269 C   0  0  0  0  0  0  0  0  0  0  0  0
   10.5271  -17.5227   25.0194 O   0  0  0  0  0  0  0  0  0  0  0  0
   11.5466  -13.5794   27.9193 C   0  0  0  0  0  0  0  0  0  0  0  0
   10.4555  -14.2430   28.6747 C   0  0  2  0  0  0  0  0  0  0  0  0
   10.1775  -13.5270   30.0131 C   0  0  0  0  0  0  0  0  0  0  0  0
   10.5073  -15.7052   28.8535 C   0  0  0  0  0  0  0  0  0  0  0  0
   10.5313  -16.5957   27.6845 C   0  0  2  0  0  0  0  0  0  0  0  0
    9.8634  -15.9253   26.5398 N   0  0  0  0  0  0  0  0  0  0  0  0
   10.0619  -17.9668   27.7863 C   0  0  0  0  0  0  0  0  0  0  0  0
    8.9418  -18.5027   27.2073 O   0  0  0  0  0  0  0  0  0  0  0  0
   10.7477  -18.7876   28.4953 O   0  0  0  0  0  0  0  0  0  0  0  0
  2  1  1  6
  3  2  1  0
  4  3  1  0
  5  4  1  0
  6  5  2  0
  7  2  1  0
  7  8  2  0
  9  5  1  0
 11 12  1  0
 11 10  1  0
 12 13  1  0
 14 13  1  1
 14 15  1  0
 15  7  1  0
 16 14  1  0
 17 16  2  0
 19 18  1  1
 19 21  1  0
 20 19  1  0
 22 21  1  1
 22 23  1  0
 22 24  1  0
 23 16  1  0
 24 25  1  0
 26 24  2  0
M  END
$$$$
