EML.pdb
     RDKit          3D

 26 25  0  0  1  0  0  0  0  0999 V2000
   11.0931  -16.2952   19.5610 N   0  0  0  0  0  0  0  0  0  0  0  0
   10.4584  -16.9906   20.5659 C   0  0  1  0  0  0  0  0  0  0  0  0
   11.0151  -18.3503   20.8587 C   0  0  0  0  0  0  0  0  0  0  0  0
   11.8391  -18.9528   19.7718 C   0  0  0  0  0  0  0  0  0  0  0  0
   12.1840  -20.3426   20.0244 C   0  0  0  0  0  0  0  0  0  0  0  0
   11.8121  -20.9733   21.0328 O   0  0  0  0  0  0  0  0  0  0  0  0
   10.4680  -16.1830   21.8543 C   0  0  0  0  0  0  0  0  0  0  0  0
   11.5733  -15.7557   22.2337 O   0  0  0  0  0  0  0  0  0  0  0  0
   12.9857  -21.0256   19.0787 O   0  0  0  0  0  0  0  0  0  0  0  0
    6.1704  -11.9610   26.7807 C   0  0  0  0  0  0  0  0  0  0  0  0
    6.1130  -13.1016   25.3766 S   0  0  0  0  0  0  0  0  0  0  0  0
    7.7426  -13.9717   25.2914 C   0  0  0  0  0  0  0  0  0  0  0  0
    7.7288  -14.6856   23.9626 C   0  0  0  0  0  0  0  0  0  0  0  0
    9.0619  -15.3902   23.8019 C   0  0  2  0  0  0  0  0  0  0  0  0
    9.2480  -15.9699   22.5298 N   0  0  0  0  0  0  0  0  0  0  0  0
    9.4332  -16.2658   24.9010 C   0  0  0  0  0  0  0  0  0  0  0  0
    9.3156  -17.5283   24.8602 O   0  0  0  0  0  0  0  0  0  0  0  0
   11.3937  -13.3006   27.3034 C   0  0  0  0  0  0  0  0  0  0  0  0
   10.5989  -14.1527   28.2220 C   0  0  2  0  0  0  0  0  0  0  0  0
   10.5084  -13.5329   29.6322 C   0  0  0  0  0  0  0  0  0  0  0  0
   10.9043  -15.5931   28.2917 C   0  0  0  0  0  0  0  0  0  0  0  0
   10.5912  -16.4742   27.1578 C   0  0  2  0  0  0  0  0  0  0  0  0
    9.9524  -15.6800   26.0776 N   0  0  0  0  0  0  0  0  0  0  0  0
    9.8494  -17.7070   27.3587 C   0  0  0  0  0  0  0  0  0  0  0  0
    8.6022  -18.0094   26.8789 O   0  0  0  0  0  0  0  0  0  0  0  0
   10.3942  -18.6301   28.0644 O   0  0  0  0  0  0  0  0  0  0  0  0
  2  1  1  6
  3  2  1  0
  4  3  1  0
  5  4  1  0
  6  5  2  0
  7  2  1  0
  7  8  2  0
  9  5  1  0
 11 12  1  0
 11 10  1  0
 12 13  1  0
 14 13  1  1
 14 15  1  0
 15  7  1  0
 16 14  1  0
 17 16  2  0
 19 18  1  6
 19 21  1  0
 20 19  1  0
 22 21  1  1
 22 23  1  0
 22 24  1  0
 23 16  1  0
 24 25  1  0
 26 24  2  0
M  END
$$$$
