EML.pdb
     RDKit          3D

 26 25  0  0  1  0  0  0  0  0999 V2000
    9.2122  -17.9058   20.4514 N   0  0  0  0  0  0  0  0  0  0  0  0
   10.3893  -17.7624   21.1516 C   0  0  1  0  0  0  0  0  0  0  0  0
   11.5356  -17.1923   20.3736 C   0  0  0  0  0  0  0  0  0  0  0  0
   11.5294  -17.4901   18.9126 C   0  0  0  0  0  0  0  0  0  0  0  0
   12.8271  -17.9165   18.4142 C   0  0  0  0  0  0  0  0  0  0  0  0
   13.8373  -18.0356   19.1340 O   0  0  0  0  0  0  0  0  0  0  0  0
   10.1696  -16.8964   22.3821 C   0  0  0  0  0  0  0  0  0  0  0  0
   11.1648  -16.2918   22.8205 O   0  0  0  0  0  0  0  0  0  0  0  0
   12.9605  -18.2153   17.0370 O   0  0  0  0  0  0  0  0  0  0  0  0
    6.6231  -12.2276   26.2969 C   0  0  0  0  0  0  0  0  0  0  0  0
    6.9525  -13.3106   24.8847 S   0  0  0  0  0  0  0  0  0  0  0  0
    6.7852  -15.0585   25.4650 C   0  0  0  0  0  0  0  0  0  0  0  0
    7.0121  -15.8970   24.2317 C   0  0  0  0  0  0  0  0  0  0  0  0
    8.4948  -16.2032   24.1465 C   0  0  2  0  0  0  0  0  0  0  0  0
    8.8767  -16.8308   22.9427 N   0  0  0  0  0  0  0  0  0  0  0  0
    9.0663  -16.8203   25.3319 C   0  0  0  0  0  0  0  0  0  0  0  0
    9.0262  -18.0676   25.5597 O   0  0  0  0  0  0  0  0  0  0  0  0
   10.7094  -13.3073   26.9765 C   0  0  0  0  0  0  0  0  0  0  0  0
   10.2288  -14.0881   28.1432 C   0  0  2  0  0  0  0  0  0  0  0  0
   10.2647  -13.2498   29.4382 C   0  0  0  0  0  0  0  0  0  0  0  0
   10.7797  -15.4369   28.3663 C   0  0  0  0  0  0  0  0  0  0  0  0
   10.5014  -16.5197   27.4122 C   0  0  2  0  0  0  0  0  0  0  0  0
    9.6997  -15.9869   26.2813 N   0  0  0  0  0  0  0  0  0  0  0  0
    9.9307  -17.7774   27.8628 C   0  0  0  0  0  0  0  0  0  0  0  0
    8.6527  -18.2265   27.6574 O   0  0  0  0  0  0  0  0  0  0  0  0
   10.6803  -18.5729   28.5353 O   0  0  0  0  0  0  0  0  0  0  0  0
  2  1  1  6
  3  2  1  0
  4  3  1  0
  5  4  1  0
  6  5  2  0
  7  2  1  0
  7  8  2  0
  9  5  1  0
 11 12  1  0
 11 10  1  0
 12 13  1  0
 14 13  1  1
 14 15  1  0
 15  7  1  0
 16 14  1  0
 17 16  2  0
 19 18  1  6
 19 21  1  0
 20 19  1  0
 22 21  1  1
 22 23  1  0
 22 24  1  0
 23 16  1  0
 24 25  1  0
 26 24  2  0
M  END
$$$$
