EML.pdb
     RDKit          3D

 26 25  0  0  1  0  0  0  0  0999 V2000
    8.7649  -17.3812   21.4826 N   0  0  0  0  0  0  0  0  0  0  0  0
   10.0707  -17.2113   21.8856 C   0  0  1  0  0  0  0  0  0  0  0  0
   10.9915  -16.6305   20.8564 C   0  0  0  0  0  0  0  0  0  0  0  0
   10.9317  -17.2687   19.5102 C   0  0  0  0  0  0  0  0  0  0  0  0
   11.7817  -16.6104   18.5312 C   0  0  0  0  0  0  0  0  0  0  0  0
   13.0011  -16.4142   18.6972 O   0  0  0  0  0  0  0  0  0  0  0  0
   10.1303  -16.3363   23.1279 C   0  0  0  0  0  0  0  0  0  0  0  0
   11.2645  -16.0275   23.5357 O   0  0  0  0  0  0  0  0  0  0  0  0
   11.2016  -16.1642   17.3195 O   0  0  0  0  0  0  0  0  0  0  0  0
    6.3392  -10.8711   25.7973 C   0  0  0  0  0  0  0  0  0  0  0  0
    5.8745  -12.5891   26.1261 S   0  0  0  0  0  0  0  0  0  0  0  0
    7.4300  -13.5853   26.2170 C   0  0  0  0  0  0  0  0  0  0  0  0
    7.4647  -14.3636   24.9254 C   0  0  0  0  0  0  0  0  0  0  0  0
    8.7616  -15.1488   24.8928 C   0  0  2  0  0  0  0  0  0  0  0  0
    8.9207  -15.9343   23.7325 N   0  0  0  0  0  0  0  0  0  0  0  0
    9.0876  -15.8526   26.1220 C   0  0  0  0  0  0  0  0  0  0  0  0
    8.9679  -15.3383   27.2755 O   0  0  0  0  0  0  0  0  0  0  0  0
    9.5200  -21.2320   25.1122 C   0  0  0  0  0  0  0  0  0  0  0  0
   10.2130  -20.1170   25.8037 C   0  0  2  0  0  0  0  0  0  0  0  0
   11.6485  -20.5095   26.2115 C   0  0  0  0  0  0  0  0  0  0  0  0
    9.5167  -19.4261   26.9040 C   0  0  0  0  0  0  0  0  0  0  0  0
    9.8319  -18.0254   27.2185 C   0  0  2  0  0  0  0  0  0  0  0  0
    9.5634  -17.1799   26.0274 N   0  0  0  0  0  0  0  0  0  0  0  0
   11.1173  -17.6646   27.7913 C   0  0  0  0  0  0  0  0  0  0  0  0
   12.0494  -16.8123   27.2604 O   0  0  0  0  0  0  0  0  0  0  0  0
   11.4460  -18.1915   28.9143 O   0  0  0  0  0  0  0  0  0  0  0  0
  2  1  1  6
  3  2  1  0
  4  3  1  0
  5  4  1  0
  6  5  2  0
  7  2  1  0
  7  8  2  0
  9  5  1  0
 11 12  1  0
 11 10  1  0
 12 13  1  0
 14 13  1  1
 14 15  1  0
 15  7  1  0
 16 14  1  0
 17 16  2  0
 19 18  1  1
 19 21  1  0
 20 19  1  0
 22 21  1  6
 22 23  1  0
 22 24  1  0
 23 16  1  0
 24 25  1  0
 26 24  2  0
M  END
$$$$
