EML.pdb
     RDKit          3D

 26 25  0  0  1  0  0  0  0  0999 V2000
    9.5415  -19.5291   21.4232 N   0  0  0  0  0  0  0  0  0  0  0  0
   10.7068  -18.9433   20.9813 C   0  0  1  0  0  0  0  0  0  0  0  0
   11.0306  -19.1650   19.5355 C   0  0  0  0  0  0  0  0  0  0  0  0
    9.9890  -18.7131   18.5691 C   0  0  0  0  0  0  0  0  0  0  0  0
   10.3833  -18.8969   17.1817 C   0  0  0  0  0  0  0  0  0  0  0  0
    9.6040  -18.7590   16.2190 O   0  0  0  0  0  0  0  0  0  0  0  0
   10.6755  -17.4450   21.2394 C   0  0  0  0  0  0  0  0  0  0  0  0
   11.6305  -16.7845   20.7924 O   0  0  0  0  0  0  0  0  0  0  0  0
   11.7239  -19.2521   16.8984 O   0  0  0  0  0  0  0  0  0  0  0  0
    7.6570  -11.0054   20.1539 C   0  0  0  0  0  0  0  0  0  0  0  0
    7.4549  -12.8037   20.1897 S   0  0  0  0  0  0  0  0  0  0  0  0
    8.3087  -13.4358   21.7035 C   0  0  0  0  0  0  0  0  0  0  0  0
    8.1622  -14.9354   21.6302 C   0  0  0  0  0  0  0  0  0  0  0  0
    9.3749  -15.5522   22.2997 C   0  0  2  0  0  0  0  0  0  0  0  0
    9.5876  -16.9032   21.9557 N   0  0  0  0  0  0  0  0  0  0  0  0
    9.4943  -15.2880   23.7240 C   0  0  0  0  0  0  0  0  0  0  0  0
   10.5352  -14.7997   24.2601 O   0  0  0  0  0  0  0  0  0  0  0  0
    7.6688  -12.2955   26.5258 C   0  0  0  0  0  0  0  0  0  0  0  0
    6.8373  -13.4261   26.0439 C   0  0  2  0  0  0  0  0  0  0  0  0
    5.3323  -13.1415   26.2315 C   0  0  0  0  0  0  0  0  0  0  0  0
    7.1798  -14.7916   26.4806 C   0  0  0  0  0  0  0  0  0  0  0  0
    8.4281  -15.4238   26.0310 C   0  0  2  0  0  0  0  0  0  0  0  0
    8.3928  -15.5914   24.5558 N   0  0  0  0  0  0  0  0  0  0  0  0
    8.9033  -16.6499   26.6486 C   0  0  0  0  0  0  0  0  0  0  0  0
    9.1540  -17.8454   26.0279 O   0  0  0  0  0  0  0  0  0  0  0  0
    9.1141  -16.6449   27.9144 O   0  0  0  0  0  0  0  0  0  0  0  0
  2  1  1  6
  3  2  1  0
  4  3  1  0
  5  4  1  0
  6  5  2  0
  7  2  1  0
  7  8  2  0
  9  5  1  0
 11 12  1  0
 11 10  1  0
 12 13  1  0
 14 13  1  1
 14 15  1  0
 15  7  1  0
 16 14  1  0
 17 16  2  0
 19 18  1  1
 19 21  1  0
 20 19  1  0
 22 21  1  1
 22 23  1  0
 22 24  1  0
 23 16  1  0
 24 25  1  0
 26 24  2  0
M  END
$$$$
