EML.pdb
     RDKit          3D

 26 25  0  0  1  0  0  0  0  0999 V2000
    9.1951  -16.6688   19.4746 N   0  0  0  0  0  0  0  0  0  0  0  0
    9.6871  -17.3418   20.5706 C   0  0  1  0  0  0  0  0  0  0  0  0
   10.9802  -18.0667   20.3537 C   0  0  0  0  0  0  0  0  0  0  0  0
   11.4831  -18.8434   21.5229 C   0  0  0  0  0  0  0  0  0  0  0  0
   12.7209  -19.5533   21.2434 C   0  0  0  0  0  0  0  0  0  0  0  0
   12.9267  -20.1945   20.1948 O   0  0  0  0  0  0  0  0  0  0  0  0
    9.8654  -16.3868   21.7405 C   0  0  0  0  0  0  0  0  0  0  0  0
   10.8841  -15.6726   21.7240 O   0  0  0  0  0  0  0  0  0  0  0  0
   13.7553  -19.5201   22.2091 O   0  0  0  0  0  0  0  0  0  0  0  0
    6.3505  -11.6777   26.6991 C   0  0  0  0  0  0  0  0  0  0  0  0
    6.2826  -12.7150   25.2175 S   0  0  0  0  0  0  0  0  0  0  0  0
    7.7328  -13.8617   25.2664 C   0  0  0  0  0  0  0  0  0  0  0  0
    7.6194  -14.6799   24.0043 C   0  0  0  0  0  0  0  0  0  0  0  0
    8.8568  -15.5505   23.9043 C   0  0  2  0  0  0  0  0  0  0  0  0
    8.8852  -16.3671   22.7548 N   0  0  0  0  0  0  0  0  0  0  0  0
    9.2186  -16.2509   25.1254 C   0  0  0  0  0  0  0  0  0  0  0  0
    8.4818  -17.1249   25.6752 O   0  0  0  0  0  0  0  0  0  0  0  0
   11.7659  -13.6489   27.9206 C   0  0  0  0  0  0  0  0  0  0  0  0
   10.4348  -14.2736   28.1197 C   0  0  2  0  0  0  0  0  0  0  0  0
    9.6943  -13.6554   29.3240 C   0  0  0  0  0  0  0  0  0  0  0  0
   10.3394  -15.7444   28.1334 C   0  0  0  0  0  0  0  0  0  0  0  0
   10.8903  -16.5347   27.0234 C   0  0  2  0  0  0  0  0  0  0  0  0
   10.4567  -15.9416   25.7328 N   0  0  0  0  0  0  0  0  0  0  0  0
   10.7144  -17.9761   26.9798 C   0  0  0  0  0  0  0  0  0  0  0  0
   11.1124  -18.8281   25.9833 O   0  0  0  0  0  0  0  0  0  0  0  0
   10.1184  -18.5408   27.9660 O   0  0  0  0  0  0  0  0  0  0  0  0
  2  1  1  6
  3  2  1  0
  4  3  1  0
  5  4  1  0
  6  5  2  0
  7  2  1  0
  7  8  2  0
  9  5  1  0
 11 12  1  0
 11 10  1  0
 12 13  1  0
 14 13  1  1
 14 15  1  0
 15  7  1  0
 16 14  1  0
 17 16  2  0
 19 18  1  1
 19 21  1  0
 20 19  1  0
 22 21  1  1
 22 23  1  0
 22 24  1  0
 23 16  1  0
 24 25  1  0
 26 24  2  0
M  END
$$$$
