EML.pdb
     RDKit          3D

 26 25  0  0  1  0  0  0  0  0999 V2000
    9.0470  -18.7877   21.6020 N   0  0  0  0  0  0  0  0  0  0  0  0
   10.2023  -18.0391   21.5675 C   0  0  1  0  0  0  0  0  0  0  0  0
   10.6471  -17.6043   20.2046 C   0  0  0  0  0  0  0  0  0  0  0  0
   10.1042  -18.4029   19.0685 C   0  0  0  0  0  0  0  0  0  0  0  0
   10.5103  -17.8914   17.7694 C   0  0  0  0  0  0  0  0  0  0  0  0
   11.6995  -17.7469   17.4259 O   0  0  0  0  0  0  0  0  0  0  0  0
   10.0561  -16.8019   22.4395 C   0  0  0  0  0  0  0  0  0  0  0  0
   10.9894  -15.9800   22.3983 O   0  0  0  0  0  0  0  0  0  0  0  0
    9.5071  -17.5352   16.8364 O   0  0  0  0  0  0  0  0  0  0  0  0
    6.2477  -12.5849   23.4130 C   0  0  0  0  0  0  0  0  0  0  0  0
    7.3778  -12.8682   24.7980 S   0  0  0  0  0  0  0  0  0  0  0  0
    6.9462  -14.5010   25.5515 C   0  0  0  0  0  0  0  0  0  0  0  0
    7.1030  -15.4965   24.4291 C   0  0  0  0  0  0  0  0  0  0  0  0
    8.5821  -15.6110   24.1151 C   0  0  2  0  0  0  0  0  0  0  0  0
    8.8945  -16.6614   23.2275 N   0  0  0  0  0  0  0  0  0  0  0  0
    9.4646  -15.5405   25.2678 C   0  0  0  0  0  0  0  0  0  0  0  0
    9.9929  -14.4633   25.6796 O   0  0  0  0  0  0  0  0  0  0  0  0
   11.7843  -13.9078   27.8267 C   0  0  0  0  0  0  0  0  0  0  0  0
   10.3804  -14.3627   27.9802 C   0  0  2  0  0  0  0  0  0  0  0  0
    9.6259  -13.5237   29.0329 C   0  0  0  0  0  0  0  0  0  0  0  0
   10.1194  -15.8022   28.1596 C   0  0  0  0  0  0  0  0  0  0  0  0
   10.6131  -16.7747   27.1744 C   0  0  2  0  0  0  0  0  0  0  0  0
    9.7496  -16.7353   25.9668 N   0  0  0  0  0  0  0  0  0  0  0  0
   10.8569  -18.1560   27.5530 C   0  0  0  0  0  0  0  0  0  0  0  0
   10.3275  -19.2785   26.9726 O   0  0  0  0  0  0  0  0  0  0  0  0
   11.6455  -18.3802   28.5403 O   0  0  0  0  0  0  0  0  0  0  0  0
  2  1  1  6
  3  2  1  0
  4  3  1  0
  5  4  1  0
  6  5  2  0
  7  2  1  0
  7  8  2  0
  9  5  1  0
 11 12  1  0
 11 10  1  0
 12 13  1  0
 14 13  1  1
 14 15  1  0
 15  7  1  0
 16 14  1  0
 17 16  2  0
 19 18  1  1
 19 21  1  0
 20 19  1  0
 22 21  1  1
 22 23  1  0
 22 24  1  0
 23 16  1  0
 24 25  1  0
 26 24  2  0
M  END
$$$$
