EML.pdb
     RDKit          3D

 26 25  0  0  1  0  0  0  0  0999 V2000
    7.5853  -18.4444   21.7309 N   0  0  0  0  0  0  0  0  0  0  0  0
    8.9565  -18.5312   21.8238 C   0  0  1  0  0  0  0  0  0  0  0  0
    9.6720  -18.8161   20.5388 C   0  0  0  0  0  0  0  0  0  0  0  0
    9.3051  -17.9359   19.3925 C   0  0  0  0  0  0  0  0  0  0  0  0
   10.1169  -18.1751   18.2101 C   0  0  0  0  0  0  0  0  0  0  0  0
    9.9822  -17.5469   17.1423 O   0  0  0  0  0  0  0  0  0  0  0  0
    9.5277  -17.2520   22.4151 C   0  0  0  0  0  0  0  0  0  0  0  0
   10.7378  -17.0407   22.2170 O   0  0  0  0  0  0  0  0  0  0  0  0
   11.1181  -19.1742   18.2650 O   0  0  0  0  0  0  0  0  0  0  0  0
    5.3571  -13.2476   25.1187 C   0  0  0  0  0  0  0  0  0  0  0  0
    6.8297  -12.3514   25.6700 S   0  0  0  0  0  0  0  0  0  0  0  0
    8.2972  -13.1213   24.8492 C   0  0  0  0  0  0  0  0  0  0  0  0
    7.8333  -14.4981   24.4438 C   0  0  0  0  0  0  0  0  0  0  0  0
    9.0200  -15.2294   23.8469 C   0  0  2  0  0  0  0  0  0  0  0  0
    8.6695  -16.3974   23.1384 N   0  0  0  0  0  0  0  0  0  0  0  0
   10.1488  -15.4093   24.7446 C   0  0  0  0  0  0  0  0  0  0  0  0
   11.1892  -14.6841   24.7145 O   0  0  0  0  0  0  0  0  0  0  0  0
    9.6386  -13.5596   28.3791 C   0  0  0  0  0  0  0  0  0  0  0  0
   10.1368  -14.9552   28.4538 C   0  0  2  0  0  0  0  0  0  0  0  0
   10.4490  -15.3672   29.9078 C   0  0  0  0  0  0  0  0  0  0  0  0
   11.2155  -15.3705   27.5392 C   0  0  0  0  0  0  0  0  0  0  0  0
   11.0991  -16.6189   26.7723 C   0  0  2  0  0  0  0  0  0  0  0  0
   10.0844  -16.4473   25.7015 N   0  0  0  0  0  0  0  0  0  0  0  0
   10.8840  -17.8872   27.4473 C   0  0  0  0  0  0  0  0  0  0  0  0
   11.7277  -18.5074   28.3309 O   0  0  0  0  0  0  0  0  0  0  0  0
    9.7960  -18.5227   27.2040 O   0  0  0  0  0  0  0  0  0  0  0  0
  2  1  1  6
  3  2  1  0
  4  3  1  0
  5  4  1  0
  6  5  2  0
  7  2  1  0
  7  8  2  0
  9  5  1  0
 11 12  1  0
 11 10  1  0
 12 13  1  0
 14 13  1  1
 14 15  1  0
 15  7  1  0
 16 14  1  0
 17 16  2  0
 19 18  1  1
 19 21  1  0
 20 19  1  0
 22 21  1  1
 22 23  1  0
 22 24  1  0
 23 16  1  0
 24 25  1  0
 26 24  2  0
M  END
$$$$
