EML.pdb
     RDKit          3D

 26 25  0  0  1  0  0  0  0  0999 V2000
    8.4198  -18.5588   21.7164 N   0  0  0  0  0  0  0  0  0  0  0  0
    9.6683  -18.0466   21.4419 C   0  0  1  0  0  0  0  0  0  0  0  0
    9.9892  -17.8772   19.9883 C   0  0  0  0  0  0  0  0  0  0  0  0
    8.8151  -17.6690   19.0931 C   0  0  0  0  0  0  0  0  0  0  0  0
    9.1836  -17.5477   17.6918 C   0  0  0  0  0  0  0  0  0  0  0  0
    9.4136  -16.4590   17.1308 O   0  0  0  0  0  0  0  0  0  0  0  0
    9.8511  -16.7035   22.1311 C   0  0  0  0  0  0  0  0  0  0  0  0
   10.8194  -16.0160   21.7595 O   0  0  0  0  0  0  0  0  0  0  0  0
    9.2898  -18.7253   16.9136 O   0  0  0  0  0  0  0  0  0  0  0  0
    6.1434  -11.1350   26.1828 C   0  0  0  0  0  0  0  0  0  0  0  0
    6.0246  -12.6822   25.2512 S   0  0  0  0  0  0  0  0  0  0  0  0
    7.7446  -13.2922   24.9517 C   0  0  0  0  0  0  0  0  0  0  0  0
    7.5708  -14.5479   24.1340 C   0  0  0  0  0  0  0  0  0  0  0  0
    8.9454  -15.1463   23.9069 C   0  0  2  0  0  0  0  0  0  0  0  0
    8.9309  -16.3236   23.1306 N   0  0  0  0  0  0  0  0  0  0  0  0
    9.7806  -15.2407   25.0926 C   0  0  0  0  0  0  0  0  0  0  0  0
   10.1657  -14.2325   25.7593 O   0  0  0  0  0  0  0  0  0  0  0  0
   10.5096  -14.8136   30.0141 C   0  0  0  0  0  0  0  0  0  0  0  0
   10.4855  -14.9058   28.5333 C   0  0  2  0  0  0  0  0  0  0  0  0
    9.7278  -13.7174   27.9049 C   0  0  0  0  0  0  0  0  0  0  0  0
   10.0867  -16.1809   27.9109 C   0  0  0  0  0  0  0  0  0  0  0  0
   10.8830  -16.7541   26.8166 C   0  0  2  0  0  0  0  0  0  0  0  0
   10.1858  -16.5235   25.5258 N   0  0  0  0  0  0  0  0  0  0  0  0
   11.3489  -18.1288   26.8789 C   0  0  0  0  0  0  0  0  0  0  0  0
   10.7104  -19.2411   26.3970 O   0  0  0  0  0  0  0  0  0  0  0  0
   12.4760  -18.3580   27.4480 O   0  0  0  0  0  0  0  0  0  0  0  0
  2  1  1  6
  3  2  1  0
  4  3  1  0
  5  4  1  0
  6  5  2  0
  7  2  1  0
  7  8  2  0
  9  5  1  0
 11 12  1  0
 11 10  1  0
 12 13  1  0
 14 13  1  1
 14 15  1  0
 15  7  1  0
 16 14  1  0
 17 16  2  0
 19 18  1  1
 19 21  1  0
 20 19  1  0
 22 21  1  1
 22 23  1  0
 22 24  1  0
 23 16  1  0
 24 25  1  0
 26 24  2  0
M  END
$$$$
