EML.pdb
     RDKit          3D

 26 25  0  0  1  0  0  0  0  0999 V2000
    9.7580  -18.0606   20.5309 N   0  0  0  0  0  0  0  0  0  0  0  0
   10.7966  -17.1573   20.5718 C   0  0  1  0  0  0  0  0  0  0  0  0
   10.9422  -16.2885   19.3600 C   0  0  0  0  0  0  0  0  0  0  0  0
   11.6184  -16.9246   18.1932 C   0  0  0  0  0  0  0  0  0  0  0  0
   10.8223  -17.9745   17.5782 C   0  0  0  0  0  0  0  0  0  0  0  0
    9.6756  -17.7946   17.1247 O   0  0  0  0  0  0  0  0  0  0  0  0
   10.6667  -16.2582   21.7913 C   0  0  0  0  0  0  0  0  0  0  0  0
   11.5737  -15.4244   21.9655 O   0  0  0  0  0  0  0  0  0  0  0  0
   11.3712  -19.2759   17.4846 O   0  0  0  0  0  0  0  0  0  0  0  0
    6.1643  -12.2986   26.5520 C   0  0  0  0  0  0  0  0  0  0  0  0
    6.2419  -13.4212   25.1345 S   0  0  0  0  0  0  0  0  0  0  0  0
    7.8661  -14.3028   25.2030 C   0  0  0  0  0  0  0  0  0  0  0  0
    7.9446  -15.0668   23.9047 C   0  0  0  0  0  0  0  0  0  0  0  0
    9.2929  -15.7589   23.8557 C   0  0  2  0  0  0  0  0  0  0  0  0
    9.5483  -16.4190   22.6359 N   0  0  0  0  0  0  0  0  0  0  0  0
    9.6216  -16.5531   25.0278 C   0  0  0  0  0  0  0  0  0  0  0  0
    9.6817  -17.8202   25.0199 O   0  0  0  0  0  0  0  0  0  0  0  0
   11.2048  -13.4183   29.5215 C   0  0  0  0  0  0  0  0  0  0  0  0
   10.6838  -14.2100   28.3797 C   0  0  2  0  0  0  0  0  0  0  0  0
    9.5128  -13.4895   27.6794 C   0  0  0  0  0  0  0  0  0  0  0  0
   10.3824  -15.6377   28.5887 C   0  0  0  0  0  0  0  0  0  0  0  0
   10.3899  -16.5719   27.4541 C   0  0  2  0  0  0  0  0  0  0  0  0
    9.8879  -15.8783   26.2406 N   0  0  0  0  0  0  0  0  0  0  0  0
    9.7613  -17.8770   27.5633 C   0  0  0  0  0  0  0  0  0  0  0  0
   10.2948  -19.0077   28.1239 O   0  0  0  0  0  0  0  0  0  0  0  0
    8.5789  -18.0186   27.0851 O   0  0  0  0  0  0  0  0  0  0  0  0
  2  1  1  6
  3  2  1  0
  4  3  1  0
  5  4  1  0
  6  5  2  0
  7  2  1  0
  7  8  2  0
  9  5  1  0
 11 12  1  0
 11 10  1  0
 12 13  1  0
 14 13  1  1
 14 15  1  0
 15  7  1  0
 16 14  1  0
 17 16  2  0
 19 18  1  1
 19 21  1  0
 20 19  1  0
 22 21  1  1
 22 23  1  0
 22 24  1  0
 23 16  1  0
 24 25  1  0
 26 24  2  0
M  END
$$$$
