EML.pdb
     RDKit          3D

 26 25  0  0  1  0  0  0  0  0999 V2000
    7.9455  -18.7877   21.7233 N   0  0  0  0  0  0  0  0  0  0  0  0
    9.3044  -18.5772   21.6507 C   0  0  1  0  0  0  0  0  0  0  0  0
    9.8693  -18.4907   20.2658 C   0  0  0  0  0  0  0  0  0  0  0  0
   11.3408  -18.2635   20.1872 C   0  0  0  0  0  0  0  0  0  0  0  0
   11.8462  -18.2807   18.8239 C   0  0  0  0  0  0  0  0  0  0  0  0
   11.4232  -19.0517   17.9410 O   0  0  0  0  0  0  0  0  0  0  0  0
    9.6833  -17.3099   22.4010 C   0  0  0  0  0  0  0  0  0  0  0  0
   10.8884  -17.0003   22.3949 O   0  0  0  0  0  0  0  0  0  0  0  0
   12.8754  -17.3755   18.4702 O   0  0  0  0  0  0  0  0  0  0  0  0
    6.4445  -11.4897   26.6784 C   0  0  0  0  0  0  0  0  0  0  0  0
    6.1788  -13.0511   25.8025 S   0  0  0  0  0  0  0  0  0  0  0  0
    7.8170  -13.6238   25.1636 C   0  0  0  0  0  0  0  0  0  0  0  0
    7.5112  -14.8863   24.3968 C   0  0  0  0  0  0  0  0  0  0  0  0
    8.8130  -15.4003   23.8133 C   0  0  2  0  0  0  0  0  0  0  0  0
    8.6669  -16.5748   23.0464 N   0  0  0  0  0  0  0  0  0  0  0  0
    9.9296  -15.4466   24.7425 C   0  0  0  0  0  0  0  0  0  0  0  0
   10.8774  -14.6034   24.7399 O   0  0  0  0  0  0  0  0  0  0  0  0
    9.9565  -13.2647   28.1703 C   0  0  0  0  0  0  0  0  0  0  0  0
   10.0924  -14.7422   28.1537 C   0  0  2  0  0  0  0  0  0  0  0  0
    9.9835  -15.3362   29.5737 C   0  0  0  0  0  0  0  0  0  0  0  0
   11.2164  -15.3403   27.4109 C   0  0  0  0  0  0  0  0  0  0  0  0
   11.0445  -16.6191   26.7072 C   0  0  2  0  0  0  0  0  0  0  0  0
    9.9617  -16.4860   25.6995 N   0  0  0  0  0  0  0  0  0  0  0  0
   10.8697  -17.8563   27.4483 C   0  0  0  0  0  0  0  0  0  0  0  0
    9.8488  -18.7608   27.3190 O   0  0  0  0  0  0  0  0  0  0  0  0
   11.7490  -18.1585   28.3328 O   0  0  0  0  0  0  0  0  0  0  0  0
  2  1  1  6
  3  2  1  0
  4  3  1  0
  5  4  1  0
  6  5  2  0
  7  2  1  0
  7  8  2  0
  9  5  1  0
 11 12  1  0
 11 10  1  0
 12 13  1  0
 14 13  1  1
 14 15  1  0
 15  7  1  0
 16 14  1  0
 17 16  2  0
 19 18  1  1
 19 21  1  0
 20 19  1  0
 22 21  1  1
 22 23  1  0
 22 24  1  0
 23 16  1  0
 24 25  1  0
 26 24  2  0
M  END
$$$$
