LAI.pdb
     RDKit          3D

 22 21  0  0  1  0  0  0  0  0999 V2000
   22.6699  -19.6708  -14.5162 C   0  0  0  0  0  0  0  0  0  0  0  0
   23.8527  -19.0955  -13.8095 C   0  0  2  0  0  0  0  0  0  0  0  0
   24.9635  -18.9060  -14.7918 C   0  0  0  0  0  0  0  0  0  0  0  0
   24.2354  -19.9043  -12.6116 C   0  0  0  0  0  0  0  0  0  0  0  0
   25.1516  -21.0446  -12.8963 C   0  0  2  0  0  0  0  0  0  0  0  0
   24.4403  -22.2051  -13.3645 N   0  0  0  0  0  0  0  0  0  0  0  0
   25.8902  -21.3442  -11.6176 C   0  0  0  0  0  0  0  0  0  0  0  0
   25.2815  -21.8673  -10.6493 O   0  0  0  0  0  0  0  0  0  0  0  0
   29.4782  -21.4089  -10.6343 C   0  0  0  0  0  0  0  0  0  0  0  0
   28.0077  -21.4779  -10.2702 C   0  0  2  0  0  0  0  0  0  0  0  0
   27.2620  -21.0618  -11.4451 N   0  0  0  0  0  0  0  0  0  0  0  0
   27.7016  -20.6104   -9.1214 C   0  0  0  0  0  0  0  0  0  0  0  0
   27.1593  -19.5094   -9.3065 O   0  0  0  0  0  0  0  0  0  0  0  0
   26.3085  -22.3234   -4.0962 C   0  0  0  0  0  0  0  0  0  0  0  0
   26.4283  -21.4906   -5.3367 C   0  0  0  0  0  0  0  0  0  0  0  0
   27.7707  -20.7867   -5.3963 C   0  0  2  0  0  0  0  0  0  0  0  0
   27.8834  -19.7673   -4.2816 C   0  0  0  0  0  0  0  0  0  0  0  0
   27.8792  -20.0462   -6.7275 C   0  0  2  0  0  0  0  0  0  0  0  0
   28.0156  -21.0095   -7.7989 N   0  0  0  0  0  0  0  0  0  0  0  0
   29.0473  -19.1324   -6.7143 C   0  0  0  0  0  0  0  0  0  0  0  0
   30.1871  -19.5675   -7.0137 O   0  0  0  0  0  0  0  0  0  0  0  0
   28.8673  -17.7920   -6.3676 O   0  0  0  0  0  0  0  0  0  0  0  0
  2  1  1  6
  2  3  1  0
  4  5  1  0
  4  2  1  0
  5  6  1  1
  7  5  1  0
  8  7  2  0
 10  9  1  6
 10 12  1  0
 10 11  1  0
 11  7  1  0
 12 19  1  0
 13 12  2  0
 14 15  1  0
 16 17  1  1
 16 15  1  0
 18 16  1  0
 18 19  1  6
 20 22  1  0
 20 18  1  0
 21 20  2  0
M  END
$$$$
