LAI.pdb
     RDKit          3D

 22 21  0  0  1  0  0  0  0  0999 V2000
   23.0031  -19.4018  -13.7803 C   0  0  0  0  0  0  0  0  0  0  0  0
   22.5056  -20.5249  -12.9315 C   0  0  2  0  0  0  0  0  0  0  0  0
   21.2950  -20.0703  -12.1813 C   0  0  0  0  0  0  0  0  0  0  0  0
   23.5828  -21.0857  -12.0595 C   0  0  0  0  0  0  0  0  0  0  0  0
   24.8488  -21.4209  -12.7706 C   0  0  2  0  0  0  0  0  0  0  0  0
   24.6989  -22.5662  -13.6295 N   0  0  0  0  0  0  0  0  0  0  0  0
   25.8927  -21.6726  -11.7135 C   0  0  0  0  0  0  0  0  0  0  0  0
   25.7852  -22.6657  -10.9495 O   0  0  0  0  0  0  0  0  0  0  0  0
   29.2579  -20.3091  -10.9228 C   0  0  0  0  0  0  0  0  0  0  0  0
   28.0136  -21.0698  -10.5070 C   0  0  2  0  0  0  0  0  0  0  0  0
   27.0117  -20.8322  -11.5314 N   0  0  0  0  0  0  0  0  0  0  0  0
   27.5316  -20.6242   -9.1898 C   0  0  0  0  0  0  0  0  0  0  0  0
   26.4738  -19.9806   -9.1049 O   0  0  0  0  0  0  0  0  0  0  0  0
   28.9191  -20.9370   -3.1419 C   0  0  0  0  0  0  0  0  0  0  0  0
   28.0767  -20.4691   -4.2899 C   0  0  0  0  0  0  0  0  0  0  0  0
   28.6532  -20.9291   -5.6155 C   0  0  2  0  0  0  0  0  0  0  0  0
   30.0451  -20.3645   -5.8114 C   0  0  0  0  0  0  0  0  0  0  0  0
   27.7675  -20.4071   -6.7448 C   0  0  2  0  0  0  0  0  0  0  0  0
   28.2559  -20.9172   -8.0081 N   0  0  0  0  0  0  0  0  0  0  0  0
   27.7732  -18.9241   -6.7596 C   0  0  0  0  0  0  0  0  0  0  0  0
   27.0751  -18.2862   -5.9326 O   0  0  0  0  0  0  0  0  0  0  0  0
   28.5578  -18.2492   -7.6966 O   0  0  0  0  0  0  0  0  0  0  0  0
  2  1  1  1
  2  3  1  0
  4  5  1  0
  4  2  1  0
  5  6  1  1
  7  5  1  0
  8  7  2  0
 10  9  1  6
 10 12  1  0
 10 11  1  0
 11  7  1  0
 12 19  1  0
 13 12  2  0
 14 15  1  0
 16 17  1  6
 16 15  1  0
 18 16  1  0
 18 19  1  6
 20 22  1  0
 20 18  1  0
 21 20  2  0
M  END
$$$$
