LAI.pdb
     RDKit          3D

 22 21  0  0  1  0  0  0  0  0999 V2000
   23.6377  -19.5960  -13.9873 C   0  0  0  0  0  0  0  0  0  0  0  0
   22.9203  -20.3152  -12.8931 C   0  0  2  0  0  0  0  0  0  0  0  0
   21.8165  -19.4472  -12.3803 C   0  0  0  0  0  0  0  0  0  0  0  0
   23.8576  -20.7933  -11.8309 C   0  0  0  0  0  0  0  0  0  0  0  0
   25.0828  -21.4718  -12.3400 C   0  0  2  0  0  0  0  0  0  0  0  0
   24.7799  -22.7258  -12.9786 N   0  0  0  0  0  0  0  0  0  0  0  0
   25.9954  -21.6750  -11.1584 C   0  0  0  0  0  0  0  0  0  0  0  0
   25.6070  -22.3568  -10.1756 O   0  0  0  0  0  0  0  0  0  0  0  0
   29.5748  -20.9345  -10.4229 C   0  0  0  0  0  0  0  0  0  0  0  0
   28.1889  -21.3553   -9.9736 C   0  0  2  0  0  0  0  0  0  0  0  0
   27.2944  -21.1272  -11.0950 N   0  0  0  0  0  0  0  0  0  0  0  0
   27.7554  -20.5897   -8.7939 C   0  0  0  0  0  0  0  0  0  0  0  0
   26.9207  -19.6799   -8.9209 O   0  0  0  0  0  0  0  0  0  0  0  0
   28.5700  -22.5308   -3.6299 C   0  0  0  0  0  0  0  0  0  0  0  0
   27.8526  -21.8323   -4.7453 C   0  0  0  0  0  0  0  0  0  0  0  0
   28.5507  -20.5388   -5.1202 C   0  0  2  0  0  0  0  0  0  0  0  0
   28.3594  -19.5004   -4.0341 C   0  0  0  0  0  0  0  0  0  0  0  0
   27.9285  -19.9987   -6.4061 C   0  0  2  0  0  0  0  0  0  0  0  0
   28.2753  -20.8721   -7.5067 N   0  0  0  0  0  0  0  0  0  0  0  0
   28.4156  -18.6241   -6.6756 C   0  0  0  0  0  0  0  0  0  0  0  0
   27.6557  -17.6416   -6.4881 O   0  0  0  0  0  0  0  0  0  0  0  0
   29.7197  -18.4354   -7.1371 O   0  0  0  0  0  0  0  0  0  0  0  0
  2  1  1  6
  2  3  1  0
  4  5  1  0
  4  2  1  0
  5  6  1  1
  7  5  1  0
  8  7  2  0
 10  9  1  6
 10 12  1  0
 10 11  1  0
 11  7  1  0
 12 19  1  0
 13 12  2  0
 14 15  1  0
 16 17  1  1
 16 15  1  0
 18 16  1  0
 18 19  1  6
 20 22  1  0
 20 18  1  0
 21 20  2  0
M  END
$$$$
