LAI.pdb
     RDKit          3D

 22 21  0  0  1  0  0  0  0  0999 V2000
   26.8233  -16.7885  -15.8523 C   0  0  0  0  0  0  0  0  0  0  0  0
   27.7371  -17.8476  -15.3302 C   0  0  2  0  0  0  0  0  0  0  0  0
   29.1132  -17.6117  -15.8645 C   0  0  0  0  0  0  0  0  0  0  0  0
   27.2108  -19.2211  -15.5984 C   0  0  0  0  0  0  0  0  0  0  0  0
   27.7867  -20.2891  -14.7332 C   0  0  2  0  0  0  0  0  0  0  0  0
   28.4577  -21.3040  -15.5024 N   0  0  0  0  0  0  0  0  0  0  0  0
   26.6460  -20.8770  -13.9434 C   0  0  0  0  0  0  0  0  0  0  0  0
   25.8061  -21.6201  -14.5126 O   0  0  0  0  0  0  0  0  0  0  0  0
   25.6287  -20.8784  -10.3457 C   0  0  0  0  0  0  0  0  0  0  0  0
   25.3630  -21.1926  -11.8053 C   0  0  2  0  0  0  0  0  0  0  0  0
   26.4664  -20.6317  -12.5653 N   0  0  0  0  0  0  0  0  0  0  0  0
   24.0798  -20.6243  -12.2480 C   0  0  0  0  0  0  0  0  0  0  0  0
   23.9752  -19.4003  -12.4255 O   0  0  0  0  0  0  0  0  0  0  0  0
   22.1099  -21.4584  -16.6100 C   0  0  0  0  0  0  0  0  0  0  0  0
   22.4013  -20.9334  -15.2367 C   0  0  0  0  0  0  0  0  0  0  0  0
   21.3109  -21.3254  -14.2577 C   0  0  2  0  0  0  0  0  0  0  0  0
   19.9996  -20.6677  -14.6352 C   0  0  0  0  0  0  0  0  0  0  0  0
   21.7016  -20.8367  -12.8646 C   0  0  2  0  0  0  0  0  0  0  0  0
   22.9531  -21.4519  -12.4774 N   0  0  0  0  0  0  0  0  0  0  0  0
   20.6429  -21.1785  -11.8837 C   0  0  0  0  0  0  0  0  0  0  0  0
   20.5066  -22.3657  -11.4965 O   0  0  0  0  0  0  0  0  0  0  0  0
   19.8050  -20.1726  -11.3987 O   0  0  0  0  0  0  0  0  0  0  0  0
  2  1  1  6
  2  3  1  0
  4  5  1  0
  4  2  1  0
  5  6  1  6
  7  5  1  0
  8  7  2  0
 10  9  1  1
 10 12  1  0
 10 11  1  0
 11  7  1  0
 12 19  1  0
 13 12  2  0
 14 15  1  0
 16 17  1  6
 16 15  1  0
 18 16  1  0
 18 19  1  1
 20 22  1  0
 20 18  1  0
 21 20  2  0
M  END
$$$$
