LAI.pdb
     RDKit          3D

 22 21  0  0  1  0  0  0  0  0999 V2000
   15.9845   -9.7232  -15.8085 C   0  0  0  0  0  0  0  0  0  0  0  0
   17.0536  -10.3382  -14.9670 C   0  0  2  0  0  0  0  0  0  0  0  0
   16.9568  -11.8267  -15.0662 C   0  0  0  0  0  0  0  0  0  0  0  0
   17.0264   -9.8220  -13.5641 C   0  0  0  0  0  0  0  0  0  0  0  0
   17.0450   -8.3365  -13.4462 C   0  0  2  0  0  0  0  0  0  0  0  0
   18.3190   -7.7810  -13.8208 N   0  0  0  0  0  0  0  0  0  0  0  0
   16.7123   -8.0056  -12.0143 C   0  0  0  0  0  0  0  0  0  0  0  0
   15.6560   -8.4504  -11.4967 O   0  0  0  0  0  0  0  0  0  0  0  0
   18.4359   -6.3691   -9.1553 C   0  0  0  0  0  0  0  0  0  0  0  0
   17.1611   -6.7718   -9.8710 C   0  0  2  0  0  0  0  0  0  0  0  0
   17.5438   -7.2033  -11.2041 N   0  0  0  0  0  0  0  0  0  0  0  0
   16.2095   -5.6511   -9.9365 C   0  0  0  0  0  0  0  0  0  0  0  0
   16.1103   -4.9856  -10.9795 O   0  0  0  0  0  0  0  0  0  0  0  0
   11.6558   -5.7629   -6.9294 C   0  0  0  0  0  0  0  0  0  0  0  0
   12.6432   -5.5605   -8.0388 C   0  0  0  0  0  0  0  0  0  0  0  0
   13.4367   -4.2832   -7.8394 C   0  0  2  0  0  0  0  0  0  0  0  0
   12.5312   -3.0744   -7.9554 C   0  0  0  0  0  0  0  0  0  0  0  0
   14.4971   -4.1869   -8.9342 C   0  0  2  0  0  0  0  0  0  0  0  0
   15.3985   -5.3139   -8.8250 N   0  0  0  0  0  0  0  0  0  0  0  0
   15.2535   -2.9175   -8.8077 C   0  0  0  0  0  0  0  0  0  0  0  0
   16.1789   -2.8205   -7.9636 O   0  0  0  0  0  0  0  0  0  0  0  0
   14.9279   -1.8385   -9.6316 O   0  0  0  0  0  0  0  0  0  0  0  0
  2  1  1  6
  2  3  1  0
  4  5  1  0
  4  2  1  0
  5  6  1  1
  7  5  1  0
  8  7  2  0
 10  9  1  1
 10 12  1  0
 10 11  1  0
 11  7  1  0
 12 19  1  0
 13 12  2  0
 14 15  1  0
 16 17  1  6
 16 15  1  0
 18 16  1  0
 18 19  1  1
 20 22  1  0
 20 18  1  0
 21 20  2  0
M  END
$$$$
