LAI.pdb
     RDKit          3D

 22 21  0  0  1  0  0  0  0  0999 V2000
   17.5317  -16.6143  -15.3636 C   0  0  0  0  0  0  0  0  0  0  0  0
   17.3815  -16.2829  -16.8117 C   0  0  2  0  0  0  0  0  0  0  0  0
   17.9673  -17.3893  -17.6287 C   0  0  0  0  0  0  0  0  0  0  0  0
   17.9350  -14.9324  -17.1359 C   0  0  0  0  0  0  0  0  0  0  0  0
   17.3572  -13.8141  -16.3384 C   0  0  2  0  0  0  0  0  0  0  0  0
   15.9539  -13.6315  -16.6020 N   0  0  0  0  0  0  0  0  0  0  0  0
   18.1378  -12.5743  -16.6907 C   0  0  0  0  0  0  0  0  0  0  0  0
   19.3910  -12.5708  -16.5848 O   0  0  0  0  0  0  0  0  0  0  0  0
   17.3031   -9.2352  -18.1467 C   0  0  0  0  0  0  0  0  0  0  0  0
   18.2741  -10.1935  -17.4846 C   0  0  2  0  0  0  0  0  0  0  0  0
   17.5219  -11.3885  -17.1442 N   0  0  0  0  0  0  0  0  0  0  0  0
   18.8783   -9.5952  -16.2834 C   0  0  0  0  0  0  0  0  0  0  0  0
   18.3119   -9.7101  -15.1850 O   0  0  0  0  0  0  0  0  0  0  0  0
   23.3713  -11.0430  -14.6849 C   0  0  0  0  0  0  0  0  0  0  0  0
   22.0081  -10.4332  -14.8129 C   0  0  0  0  0  0  0  0  0  0  0  0
   22.0947   -8.9272  -14.9735 C   0  0  2  0  0  0  0  0  0  0  0  0
   22.7102   -8.2983  -13.7406 C   0  0  0  0  0  0  0  0  0  0  0  0
   20.6829   -8.3678  -15.1355 C   0  0  2  0  0  0  0  0  0  0  0  0
   20.1023   -8.8856  -16.3558 N   0  0  0  0  0  0  0  0  0  0  0  0
   20.7186   -6.8858  -15.1790 C   0  0  0  0  0  0  0  0  0  0  0  0
   20.8666   -6.2308  -14.1174 O   0  0  0  0  0  0  0  0  0  0  0  0
   20.5867   -6.2310  -16.4050 O   0  0  0  0  0  0  0  0  0  0  0  0
  2  1  1  1
  2  3  1  0
  4  5  1  0
  4  2  1  0
  5  6  1  6
  7  5  1  0
  8  7  2  0
 10  9  1  1
 10 12  1  0
 10 11  1  0
 11  7  1  0
 12 19  1  0
 13 12  2  0
 14 15  1  0
 16 17  1  1
 16 15  1  0
 18 16  1  0
 18 19  1  6
 20 22  1  0
 20 18  1  0
 21 20  2  0
M  END
$$$$
