LAI.pdb
     RDKit          3D

 22 21  0  0  1  0  0  0  0  0999 V2000
   23.0661  -12.0086  -15.2025 C   0  0  0  0  0  0  0  0  0  0  0  0
   23.5086  -10.6299  -15.5666 C   0  0  2  0  0  0  0  0  0  0  0  0
   25.0003  -10.5613  -15.4950 C   0  0  0  0  0  0  0  0  0  0  0  0
   22.8148   -9.5869  -14.7504 C   0  0  0  0  0  0  0  0  0  0  0  0
   21.3281   -9.6031  -14.8517 C   0  0  2  0  0  0  0  0  0  0  0  0
   20.8798   -9.5855  -16.2194 N   0  0  0  0  0  0  0  0  0  0  0  0
   20.8238   -8.3965  -14.1032 C   0  0  0  0  0  0  0  0  0  0  0  0
   21.3071   -8.1088  -12.9783 O   0  0  0  0  0  0  0  0  0  0  0  0
   19.1684   -5.2719  -14.8838 C   0  0  0  0  0  0  0  0  0  0  0  0
   19.3135   -6.3998  -13.8806 C   0  0  2  0  0  0  0  0  0  0  0  0
   19.8134   -7.5519  -14.6104 N   0  0  0  0  0  0  0  0  0  0  0  0
   18.0277   -6.7072  -13.2342 C   0  0  0  0  0  0  0  0  0  0  0  0
   17.3155   -7.6209  -13.6797 O   0  0  0  0  0  0  0  0  0  0  0  0
   15.0861   -7.5884   -8.1958 C   0  0  0  0  0  0  0  0  0  0  0  0
   15.0132   -7.0101   -9.5767 C   0  0  0  0  0  0  0  0  0  0  0  0
   16.3991   -6.7393  -10.1309 C   0  0  2  0  0  0  0  0  0  0  0  0
   17.0877   -5.6555   -9.3274 C   0  0  0  0  0  0  0  0  0  0  0  0
   16.2658   -6.2486  -11.5709 C   0  0  2  0  0  0  0  0  0  0  0  0
   17.5829   -5.9759  -12.1053 N   0  0  0  0  0  0  0  0  0  0  0  0
   15.4334   -5.0221  -11.6215 C   0  0  0  0  0  0  0  0  0  0  0  0
   15.9813   -3.8917  -11.6148 O   0  0  0  0  0  0  0  0  0  0  0  0
   14.0431   -5.1371  -11.6763 O   0  0  0  0  0  0  0  0  0  0  0  0
  2  1  1  1
  2  3  1  0
  4  5  1  0
  4  2  1  0
  5  6  1  6
  7  5  1  0
  8  7  2  0
 10  9  1  6
 10 12  1  0
 10 11  1  0
 11  7  1  0
 12 19  1  0
 13 12  2  0
 14 15  1  0
 16 17  1  1
 16 15  1  0
 18 16  1  0
 18 19  1  1
 20 22  1  0
 20 18  1  0
 21 20  2  0
M  END
$$$$
