LAI.pdb
     RDKit          3D

 22 21  0  0  1  0  0  0  0  0999 V2000
   24.3297  -25.1223  -14.8560 C   0  0  0  0  0  0  0  0  0  0  0  0
   25.1117  -24.9645  -16.1180 C   0  0  2  0  0  0  0  0  0  0  0  0
   26.3705  -25.7644  -16.0153 C   0  0  0  0  0  0  0  0  0  0  0  0
   25.3347  -23.5265  -16.4609 C   0  0  0  0  0  0  0  0  0  0  0  0
   24.1003  -22.6918  -16.4807 C   0  0  2  0  0  0  0  0  0  0  0  0
   23.3291  -22.8967  -17.6788 N   0  0  0  0  0  0  0  0  0  0  0  0
   24.5394  -21.2554  -16.3611 C   0  0  0  0  0  0  0  0  0  0  0  0
   25.7038  -20.9249  -16.7026 O   0  0  0  0  0  0  0  0  0  0  0  0
   22.8830  -18.0202  -15.5283 C   0  0  0  0  0  0  0  0  0  0  0  0
   24.1310  -18.8619  -15.7120 C   0  0  2  0  0  0  0  0  0  0  0  0
   23.6925  -20.2371  -15.8743 N   0  0  0  0  0  0  0  0  0  0  0  0
   25.0354  -18.7334  -14.5582 C   0  0  0  0  0  0  0  0  0  0  0  0
   25.5312  -17.6295  -14.2823 O   0  0  0  0  0  0  0  0  0  0  0  0
   25.7568  -20.2053   -8.8770 C   0  0  0  0  0  0  0  0  0  0  0  0
   26.4604  -19.9132  -10.1679 C   0  0  0  0  0  0  0  0  0  0  0  0
   25.5601  -20.1898  -11.3570 C   0  0  2  0  0  0  0  0  0  0  0  0
   25.3430  -21.6799  -11.5208 C   0  0  0  0  0  0  0  0  0  0  0  0
   26.2408  -19.6689  -12.6210 C   0  0  2  0  0  0  0  0  0  0  0  0
   25.3540  -19.8524  -13.7500 N   0  0  0  0  0  0  0  0  0  0  0  0
   27.5153  -20.3908  -12.8538 C   0  0  0  0  0  0  0  0  0  0  0  0
   28.5365  -20.0911  -12.1864 O   0  0  0  0  0  0  0  0  0  0  0  0
   27.5672  -21.4006  -13.8165 O   0  0  0  0  0  0  0  0  0  0  0  0
  2  1  1  1
  2  3  1  0
  4  5  1  0
  4  2  1  0
  5  6  1  6
  7  5  1  0
  8  7  2  0
 10  9  1  1
 10 12  1  0
 10 11  1  0
 11  7  1  0
 12 19  1  0
 13 12  2  0
 14 15  1  0
 16 17  1  6
 16 15  1  0
 18 16  1  0
 18 19  1  6
 20 22  1  0
 20 18  1  0
 21 20  2  0
M  END
$$$$
