LAI.pdb
     RDKit          3D

 22 21  0  0  1  0  0  0  0  0999 V2000
   28.2375  -17.1255  -18.1486 C   0  0  0  0  0  0  0  0  0  0  0  0
   27.2228  -16.2857  -17.4455 C   0  0  2  0  0  0  0  0  0  0  0  0
   27.5339  -14.8429  -17.6836 C   0  0  0  0  0  0  0  0  0  0  0  0
   27.1023  -16.6484  -16.0001 C   0  0  0  0  0  0  0  0  0  0  0  0
   26.9077  -18.1021  -15.7364 C   0  0  2  0  0  0  0  0  0  0  0  0
   26.1625  -18.7463  -16.7860 N   0  0  0  0  0  0  0  0  0  0  0  0
   26.1896  -18.2167  -14.4167 C   0  0  0  0  0  0  0  0  0  0  0  0
   26.7039  -17.7283  -13.3781 O   0  0  0  0  0  0  0  0  0  0  0  0
   22.8142  -19.3926  -13.3413 C   0  0  0  0  0  0  0  0  0  0  0  0
   24.2168  -18.9120  -13.0231 C   0  0  2  0  0  0  0  0  0  0  0  0
   24.9403  -18.8588  -14.2815 N   0  0  0  0  0  0  0  0  0  0  0  0
   24.8864  -19.8135  -12.0719 C   0  0  0  0  0  0  0  0  0  0  0  0
   25.6046  -20.7335  -12.4943 O   0  0  0  0  0  0  0  0  0  0  0  0
   27.1763  -17.8837   -7.7082 C   0  0  0  0  0  0  0  0  0  0  0  0
   26.8074  -18.7172   -8.8981 C   0  0  0  0  0  0  0  0  0  0  0  0
   25.8269  -19.8105   -8.5181 C   0  0  2  0  0  0  0  0  0  0  0  0
   26.4785  -20.8012   -7.5755 C   0  0  0  0  0  0  0  0  0  0  0  0
   25.4133  -20.5614   -9.7820 C   0  0  2  0  0  0  0  0  0  0  0  0
   24.7267  -19.6515  -10.6737 N   0  0  0  0  0  0  0  0  0  0  0  0
   24.5275  -21.6999   -9.4374 C   0  0  0  0  0  0  0  0  0  0  0  0
   23.2844  -21.5304   -9.3742 O   0  0  0  0  0  0  0  0  0  0  0  0
   25.0870  -22.9541   -9.1857 O   0  0  0  0  0  0  0  0  0  0  0  0
  2  1  1  1
  2  3  1  0
  4  5  1  0
  4  2  1  0
  5  6  1  6
  7  5  1  0
  8  7  2  0
 10  9  1  6
 10 12  1  0
 10 11  1  0
 11  7  1  0
 12 19  1  0
 13 12  2  0
 14 15  1  0
 16 17  1  1
 16 15  1  0
 18 16  1  0
 18 19  1  6
 20 22  1  0
 20 18  1  0
 21 20  2  0
M  END
$$$$
