LAI.pdb
     RDKit          3D

 22 21  0  0  1  0  0  0  0  0999 V2000
   20.7632  -19.2053  -18.2243 C   0  0  0  0  0  0  0  0  0  0  0  0
   21.0740  -20.6593  -18.3612 C   0  0  2  0  0  0  0  0  0  0  0  0
   20.1049  -21.2775  -19.3171 C   0  0  0  0  0  0  0  0  0  0  0  0
   21.1358  -21.3446  -17.0339 C   0  0  0  0  0  0  0  0  0  0  0  0
   22.0629  -20.7166  -16.0507 C   0  0  2  0  0  0  0  0  0  0  0  0
   23.4429  -20.8951  -16.4194 N   0  0  0  0  0  0  0  0  0  0  0  0
   21.7764  -21.3468  -14.7124 C   0  0  0  0  0  0  0  0  0  0  0  0
   22.2216  -22.4935  -14.4507 O   0  0  0  0  0  0  0  0  0  0  0  0
   20.0595  -20.2642  -11.5727 C   0  0  0  0  0  0  0  0  0  0  0  0
   20.6954  -21.3305  -12.4434 C   0  0  2  0  0  0  0  0  0  0  0  0
   21.0164  -20.7024  -13.7131 N   0  0  0  0  0  0  0  0  0  0  0  0
   19.7865  -22.4714  -12.6386 C   0  0  0  0  0  0  0  0  0  0  0  0
   19.0843  -22.5335  -13.6601 O   0  0  0  0  0  0  0  0  0  0  0  0
   21.2066  -27.5020  -11.2980 C   0  0  0  0  0  0  0  0  0  0  0  0
   20.6390  -26.2561  -11.9082 C   0  0  0  0  0  0  0  0  0  0  0  0
   19.3329  -25.8661  -11.2424 C   0  0  2  0  0  0  0  0  0  0  0  0
   18.3065  -26.9681  -11.4053 C   0  0  0  0  0  0  0  0  0  0  0  0
   18.7907  -24.6101  -11.9211 C   0  0  2  0  0  0  0  0  0  0  0  0
   19.6962  -23.5079  -11.6771 N   0  0  0  0  0  0  0  0  0  0  0  0
   17.4416  -24.2844  -11.3981 C   0  0  0  0  0  0  0  0  0  0  0  0
   16.4216  -24.5695  -12.0736 O   0  0  0  0  0  0  0  0  0  0  0  0
   17.3186  -23.6614  -10.1548 O   0  0  0  0  0  0  0  0  0  0  0  0
  2  1  1  1
  2  3  1  0
  4  5  1  0
  4  2  1  0
  5  6  1  6
  7  5  1  0
  8  7  2  0
 10  9  1  1
 10 12  1  0
 10 11  1  0
 11  7  1  0
 12 19  1  0
 13 12  2  0
 14 15  1  0
 16 17  1  6
 16 15  1  0
 18 16  1  0
 18 19  1  1
 20 22  1  0
 20 18  1  0
 21 20  2  0
M  END
$$$$
