LAI.pdb
     RDKit          3D

 22 21  0  0  1  0  0  0  0  0999 V2000
   22.6723  -18.7710  -14.1603 C   0  0  0  0  0  0  0  0  0  0  0  0
   21.8137  -19.2718  -13.0462 C   0  0  2  0  0  0  0  0  0  0  0  0
   20.9669  -18.1486  -12.5399 C   0  0  0  0  0  0  0  0  0  0  0  0
   22.6172  -19.9506  -11.9836 C   0  0  0  0  0  0  0  0  0  0  0  0
   23.6228  -20.9265  -12.4906 C   0  0  2  0  0  0  0  0  0  0  0  0
   23.0065  -22.1313  -12.9812 N   0  0  0  0  0  0  0  0  0  0  0  0
   24.5586  -21.2261  -11.3483 C   0  0  0  0  0  0  0  0  0  0  0  0
   24.1387  -21.8502  -10.3404 O   0  0  0  0  0  0  0  0  0  0  0  0
   28.2421  -21.1182  -10.9150 C   0  0  0  0  0  0  0  0  0  0  0  0
   26.8526  -21.2477  -10.3215 C   0  0  2  0  0  0  0  0  0  0  0  0
   25.9142  -20.8338  -11.3499 N   0  0  0  0  0  0  0  0  0  0  0  0
   26.7083  -20.4164   -9.1157 C   0  0  0  0  0  0  0  0  0  0  0  0
   26.1143  -19.3287   -9.1832 O   0  0  0  0  0  0  0  0  0  0  0  0
   28.2594  -20.2332   -3.1068 C   0  0  0  0  0  0  0  0  0  0  0  0
   27.5221  -19.7160   -4.3049 C   0  0  0  0  0  0  0  0  0  0  0  0
   27.7066  -20.6328   -5.4993 C   0  0  2  0  0  0  0  0  0  0  0  0
   29.1745  -20.9454   -5.7044 C   0  0  0  0  0  0  0  0  0  0  0  0
   27.1953  -19.9205   -6.7497 C   0  0  2  0  0  0  0  0  0  0  0  0
   27.2374  -20.8356   -7.8702 N   0  0  0  0  0  0  0  0  0  0  0  0
   28.0263  -18.7263   -7.0378 C   0  0  0  0  0  0  0  0  0  0  0  0
   28.9979  -18.8147   -7.8291 O   0  0  0  0  0  0  0  0  0  0  0  0
   27.7188  -17.5108   -6.4236 O   0  0  0  0  0  0  0  0  0  0  0  0
  2  1  1  6
  2  3  1  0
  4  5  1  0
  4  2  1  0
  5  6  1  1
  7  5  1  0
  8  7  2  0
 10  9  1  6
 10 12  1  0
 10 11  1  0
 11  7  1  0
 12 19  1  0
 13 12  2  0
 14 15  1  0
 16 17  1  6
 16 15  1  0
 18 16  1  0
 18 19  1  6
 20 22  1  0
 20 18  1  0
 21 20  2  0
M  END
$$$$
