LAI.pdb
     RDKit          3D

 22 21  0  0  1  0  0  0  0  0999 V2000
   30.4114  -20.6544  -19.0071 C   0  0  0  0  0  0  0  0  0  0  0  0
   29.2102  -21.3775  -18.4937 C   0  0  2  0  0  0  0  0  0  0  0  0
   28.2574  -21.6044  -19.6231 C   0  0  0  0  0  0  0  0  0  0  0  0
   28.6009  -20.6836  -17.3178 C   0  0  0  0  0  0  0  0  0  0  0  0
   28.1856  -21.5868  -16.2076 C   0  0  2  0  0  0  0  0  0  0  0  0
   27.2040  -22.5497  -16.6332 N   0  0  0  0  0  0  0  0  0  0  0  0
   27.6407  -20.7107  -15.1094 C   0  0  0  0  0  0  0  0  0  0  0  0
   28.3555  -19.7978  -14.6221 O   0  0  0  0  0  0  0  0  0  0  0  0
   24.5269  -19.3753  -14.1532 C   0  0  0  0  0  0  0  0  0  0  0  0
   25.7907  -19.9800  -13.5729 C   0  0  2  0  0  0  0  0  0  0  0  0
   26.3392  -20.8644  -14.5862 N   0  0  0  0  0  0  0  0  0  0  0  0
   25.5074  -20.7180  -12.3316 C   0  0  0  0  0  0  0  0  0  0  0  0
   25.3252  -21.9452  -12.3708 O   0  0  0  0  0  0  0  0  0  0  0  0
   27.6844  -19.0399   -7.7217 C   0  0  0  0  0  0  0  0  0  0  0  0
   27.1421  -19.9758   -8.7594 C   0  0  0  0  0  0  0  0  0  0  0  0
   25.6317  -20.0813   -8.6661 C   0  0  2  0  0  0  0  0  0  0  0  0
   25.2318  -20.8776   -7.4412 C   0  0  0  0  0  0  0  0  0  0  0  0
   25.1129  -20.8175   -9.8994 C   0  0  2  0  0  0  0  0  0  0  0  0
   25.4379  -20.0514  -11.0835 N   0  0  0  0  0  0  0  0  0  0  0  0
   23.6452  -21.0084   -9.8051 C   0  0  0  0  0  0  0  0  0  0  0  0
   23.1798  -21.9862   -9.1685 O   0  0  0  0  0  0  0  0  0  0  0  0
   22.7920  -20.0953  -10.4276 O   0  0  0  0  0  0  0  0  0  0  0  0
  2  1  1  6
  2  3  1  0
  4  5  1  0
  4  2  1  0
  5  6  1  6
  7  5  1  0
  8  7  2  0
 10  9  1  6
 10 12  1  0
 10 11  1  0
 11  7  1  0
 12 19  1  0
 13 12  2  0
 14 15  1  0
 16 17  1  1
 16 15  1  0
 18 16  1  0
 18 19  1  6
 20 22  1  0
 20 18  1  0
 21 20  2  0
M  END
$$$$
