LAI.pdb
     RDKit          3D

 22 21  0  0  1  0  0  0  0  0999 V2000
   22.1349  -19.0005  -13.3448 C   0  0  0  0  0  0  0  0  0  0  0  0
   21.6676  -20.0652  -12.4082 C   0  0  2  0  0  0  0  0  0  0  0  0
   20.5523  -19.5247  -11.5723 C   0  0  0  0  0  0  0  0  0  0  0  0
   22.7942  -20.6438  -11.6135 C   0  0  0  0  0  0  0  0  0  0  0  0
   23.9983  -21.0074  -12.4126 C   0  0  2  0  0  0  0  0  0  0  0  0
   23.7571  -22.1398  -13.2680 N   0  0  0  0  0  0  0  0  0  0  0  0
   25.1047  -21.2983  -11.4320 C   0  0  0  0  0  0  0  0  0  0  0  0
   25.0034  -22.2720  -10.6425 O   0  0  0  0  0  0  0  0  0  0  0  0
   28.6167  -20.1826  -11.0305 C   0  0  0  0  0  0  0  0  0  0  0  0
   27.3759  -20.8399  -10.4579 C   0  0  2  0  0  0  0  0  0  0  0  0
   26.2768  -20.5167  -11.3508 N   0  0  0  0  0  0  0  0  0  0  0  0
   27.1003  -20.3613   -9.0938 C   0  0  0  0  0  0  0  0  0  0  0  0
   26.2151  -19.5120   -8.9046 O   0  0  0  0  0  0  0  0  0  0  0  0
   28.9371  -21.1150   -3.2060 C   0  0  0  0  0  0  0  0  0  0  0  0
   28.1014  -20.4626   -4.2656 C   0  0  0  0  0  0  0  0  0  0  0  0
   28.4324  -21.0127   -5.6400 C   0  0  2  0  0  0  0  0  0  0  0  0
   29.8974  -20.7954   -5.9580 C   0  0  0  0  0  0  0  0  0  0  0  0
   27.6056  -20.2627   -6.6822 C   0  0  2  0  0  0  0  0  0  0  0  0
   27.8301  -20.8538   -7.9840 N   0  0  0  0  0  0  0  0  0  0  0  0
   27.9832  -18.8286   -6.7036 C   0  0  0  0  0  0  0  0  0  0  0  0
   27.4982  -18.0398   -5.8547 O   0  0  0  0  0  0  0  0  0  0  0  0
   28.8777  -18.3680   -7.6715 O   0  0  0  0  0  0  0  0  0  0  0  0
  2  1  1  1
  2  3  1  0
  4  5  1  0
  4  2  1  0
  5  6  1  1
  7  5  1  0
  8  7  2  0
 10  9  1  6
 10 12  1  0
 10 11  1  0
 11  7  1  0
 12 19  1  0
 13 12  2  0
 14 15  1  0
 16 17  1  6
 16 15  1  0
 18 16  1  0
 18 19  1  6
 20 22  1  0
 20 18  1  0
 21 20  2  0
M  END
$$$$
