LAI.pdb
     RDKit          3D

 22 21  0  0  1  0  0  0  0  0999 V2000
   18.6117  -13.3547  -19.7380 C   0  0  0  0  0  0  0  0  0  0  0  0
   18.8913  -14.0180  -18.4299 C   0  0  2  0  0  0  0  0  0  0  0  0
   17.6655  -14.7460  -17.9800 C   0  0  0  0  0  0  0  0  0  0  0  0
   19.4289  -13.0560  -17.4195 C   0  0  0  0  0  0  0  0  0  0  0  0
   20.6570  -12.3268  -17.8450 C   0  0  2  0  0  0  0  0  0  0  0  0
   21.7279  -13.2260  -18.1866 N   0  0  0  0  0  0  0  0  0  0  0  0
   21.0517  -11.4275  -16.7023 C   0  0  0  0  0  0  0  0  0  0  0  0
   20.1895  -10.6937  -16.1547 O   0  0  0  0  0  0  0  0  0  0  0  0
   24.1638  -10.8807  -14.7064 C   0  0  0  0  0  0  0  0  0  0  0  0
   22.7504  -10.4974  -15.1003 C   0  0  2  0  0  0  0  0  0  0  0  0
   22.3698  -11.3636  -16.2023 N   0  0  0  0  0  0  0  0  0  0  0  0
   22.6724   -9.0820  -15.4958 C   0  0  0  0  0  0  0  0  0  0  0  0
   22.9953   -8.7436  -16.6455 O   0  0  0  0  0  0  0  0  0  0  0  0
   19.2638   -4.9093  -16.8614 C   0  0  0  0  0  0  0  0  0  0  0  0
   20.5434   -5.1097  -16.1071 C   0  0  0  0  0  0  0  0  0  0  0  0
   20.7169   -6.5602  -15.6985 C   0  0  2  0  0  0  0  0  0  0  0  0
   19.6657   -6.9525  -14.6809 C   0  0  0  0  0  0  0  0  0  0  0  0
   22.0893   -6.7279  -15.0499 C   0  0  2  0  0  0  0  0  0  0  0  0
   22.2331   -8.0906  -14.5842 N   0  0  0  0  0  0  0  0  0  0  0  0
   22.2408   -5.7848  -13.9153 C   0  0  0  0  0  0  0  0  0  0  0  0
   22.4522   -4.5664  -14.1367 O   0  0  0  0  0  0  0  0  0  0  0  0
   22.1464   -6.2629  -12.6070 O   0  0  0  0  0  0  0  0  0  0  0  0
  2  1  1  6
  2  3  1  0
  4  5  1  0
  4  2  1  0
  5  6  1  1
  7  5  1  0
  8  7  2  0
 10  9  1  6
 10 12  1  0
 10 11  1  0
 11  7  1  0
 12 19  1  0
 13 12  2  0
 14 15  1  0
 16 17  1  1
 16 15  1  0
 18 16  1  0
 18 19  1  1
 20 22  1  0
 20 18  1  0
 21 20  2  0
M  END
$$$$
