FDR.pdb
     RDKit          3D

 31 31  0  0  1  0  0  0  0  0999 V2000
   29.0916  -21.4302   -9.0549 N   0  0  0  0  0  0  0  0  0  0  0  0
   27.7212  -20.9510   -9.0975 C   0  0  1  0  0  0  0  0  0  0  0  0
   27.5699  -19.6109   -8.4320 C   0  0  0  0  0  0  0  0  0  0  0  0
   27.9832  -19.8140   -7.0054 C   0  0  0  0  0  0  0  0  0  0  0  0
   27.0709  -20.3898   -6.1354 C   0  0  0  0  0  0  0  0  0  0  0  0
   27.4245  -20.5850   -4.8097 C   0  0  0  0  0  0  0  0  0  0  0  0
   28.6555  -20.2236   -4.3317 C   0  0  0  0  0  0  0  0  0  0  0  0
   29.5562  -19.6502   -5.2099 C   0  0  0  0  0  0  0  0  0  0  0  0
   29.2160  -19.4517   -6.5284 C   0  0  0  0  0  0  0  0  0  0  0  0
   27.2839  -20.9692  -10.5124 C   0  0  0  0  0  0  0  0  0  0  0  0
   28.0246  -20.4988  -11.4383 O   0  0  0  0  0  0  0  0  0  0  0  0
   26.0234  -21.5213  -10.8286 N   0  0  0  0  0  0  0  0  0  0  0  0
   25.5733  -21.6048  -12.1950 C   0  0  1  0  0  0  0  0  0  0  0  0
   24.8473  -22.9394  -12.3293 C   0  0  0  0  0  0  0  0  0  0  0  0
   24.3862  -23.0997  -13.7570 C   0  0  0  0  0  0  0  0  0  0  0  0
   24.7953  -22.2936  -14.6396 O   0  0  0  0  0  0  0  0  0  0  0  0
   24.5170  -20.5482  -12.3807 C   0  0  0  0  0  0  0  0  0  0  0  0
   23.7058  -20.2833  -11.4479 O   0  0  0  0  0  0  0  0  0  0  0  0
   23.5235  -24.1122  -14.1247 O   0  0  0  0  0  0  0  0  0  0  0  0
   19.5095  -15.5256  -15.6775 N   0  0  0  0  0  0  0  0  0  0  0  0
   20.1576  -15.5618  -16.9373 C   0  0  0  0  0  0  0  0  0  0  0  0
   19.8730  -14.6883  -17.8382 N   0  0  0  0  0  0  0  0  0  0  0  0
   21.1389  -16.5445  -17.2740 N   0  0  0  0  0  0  0  0  0  0  0  0
   21.5849  -17.5588  -16.3419 C   0  0  0  0  0  0  0  0  0  0  0  0
   22.7025  -17.1131  -15.4659 C   0  0  0  0  0  0  0  0  0  0  0  0
   23.6817  -18.2370  -15.2403 C   0  0  0  0  0  0  0  0  0  0  0  0
   23.4290  -18.9977  -13.9604 C   0  0  2  0  0  0  0  0  0  0  0  0
   24.5045  -19.8983  -13.6357 N   0  0  0  0  0  0  0  0  0  0  0  0
   22.1501  -19.7499  -14.1779 C   0  0  0  0  0  0  0  0  0  0  0  0
   21.0066  -19.3330  -13.5499 O   0  0  0  0  0  0  0  0  0  0  0  0
   22.1568  -20.7375  -14.9247 O   0  0  0  0  0  0  0  0  0  0  0  0
  2  1  1  6
  2 10  1  0
  3  2  1  0
  3  4  1  0
  4  5  2  0
  4  9  1  0
  5  6  1  0
  6  7  2  0
  8  7  1  0
  9  8  2  0
 10 11  2  0
 12 10  1  0
 12 13  1  0
 13 14  1  1
 13 17  1  0
 15 14  1  0
 16 15  2  0
 17 18  2  0
 19 15  1  0
 20 21  1  0
 21 22  2  0
 21 23  1  0
 23 24  1  0
 24 25  1  0
 25 26  1  0
 27 26  1  6
 27 29  1  0
 28 27  1  0
 28 17  1  0
 29 31  2  0
 29 30  1  0
M  END
$$$$
