FDR.pdb
     RDKit          3D

 31 31  0  0  1  0  0  0  0  0999 V2000
   29.0971  -19.3999  -11.7289 N   0  0  0  0  0  0  0  0  0  0  0  0
   29.1015  -20.4682  -12.7129 C   0  0  1  0  0  0  0  0  0  0  0  0
   29.0290  -21.8270  -12.0726 C   0  0  0  0  0  0  0  0  0  0  0  0
   30.3116  -21.9904  -11.3140 C   0  0  0  0  0  0  0  0  0  0  0  0
   30.2837  -21.8256   -9.9382 C   0  0  0  0  0  0  0  0  0  0  0  0
   31.4557  -21.9661   -9.2121 C   0  0  0  0  0  0  0  0  0  0  0  0
   32.6468  -22.2647   -9.8175 C   0  0  0  0  0  0  0  0  0  0  0  0
   32.6608  -22.4265  -11.1905 C   0  0  0  0  0  0  0  0  0  0  0  0
   31.5032  -22.2894  -11.9215 C   0  0  0  0  0  0  0  0  0  0  0  0
   28.0050  -20.1990  -13.6714 C   0  0  0  0  0  0  0  0  0  0  0  0
   26.8835  -19.7354  -13.2782 O   0  0  0  0  0  0  0  0  0  0  0  0
   28.2183  -20.4629  -15.0420 N   0  0  0  0  0  0  0  0  0  0  0  0
   27.2556  -20.0544  -16.0334 C   0  0  1  0  0  0  0  0  0  0  0  0
   27.9433  -20.1975  -17.3872 C   0  0  0  0  0  0  0  0  0  0  0  0
   27.0578  -19.5913  -18.4479 C   0  0  0  0  0  0  0  0  0  0  0  0
   27.4255  -19.6145  -19.6564 O   0  0  0  0  0  0  0  0  0  0  0  0
   26.1514  -21.0779  -16.0294 C   0  0  0  0  0  0  0  0  0  0  0  0
   26.4233  -22.3125  -16.0316 O   0  0  0  0  0  0  0  0  0  0  0  0
   25.8481  -19.0090  -18.1283 O   0  0  0  0  0  0  0  0  0  0  0  0
   20.2451  -20.4040  -11.4557 N   0  0  0  0  0  0  0  0  0  0  0  0
   19.4722  -21.4640  -11.9918 C   0  0  0  0  0  0  0  0  0  0  0  0
   18.2185  -21.5556  -11.7169 N   0  0  0  0  0  0  0  0  0  0  0  0
   20.0238  -22.4680  -12.8460 N   0  0  0  0  0  0  0  0  0  0  0  0
   21.3959  -22.4376  -13.3075 C   0  0  0  0  0  0  0  0  0  0  0  0
   21.5460  -21.9271  -14.6975 C   0  0  0  0  0  0  0  0  0  0  0  0
   22.7555  -21.0338  -14.8079 C   0  0  0  0  0  0  0  0  0  0  0  0
   23.7209  -21.4709  -15.8839 C   0  0  2  0  0  0  0  0  0  0  0  0
   24.8335  -20.5675  -16.0228 N   0  0  0  0  0  0  0  0  0  0  0  0
   22.9209  -21.5312  -17.1508 C   0  0  0  0  0  0  0  0  0  0  0  0
   22.0037  -22.5336  -17.3229 O   0  0  0  0  0  0  0  0  0  0  0  0
   23.1089  -20.6680  -18.0184 O   0  0  0  0  0  0  0  0  0  0  0  0
  2  1  1  1
  2 10  1  0
  3  2  1  0
  3  4  1  0
  4  5  2  0
  4  9  1  0
  5  6  1  0
  6  7  2  0
  8  7  1  0
  9  8  2  0
 10 11  2  0
 12 10  1  0
 12 13  1  0
 13 14  1  6
 13 17  1  0
 15 14  1  0
 16 15  2  0
 17 18  2  0
 19 15  1  0
 20 21  1  0
 21 22  2  0
 21 23  1  0
 23 24  1  0
 24 25  1  0
 25 26  1  0
 27 26  1  1
 27 29  1  0
 28 27  1  0
 28 17  1  0
 29 31  2  0
 29 30  1  0
M  END
$$$$
