FDR.pdb
     RDKit          3D

 31 31  0  0  1  0  0  0  0  0999 V2000
   26.4509  -15.6483  -14.1113 N   0  0  0  0  0  0  0  0  0  0  0  0
   26.3618  -16.3039  -15.4043 C   0  0  1  0  0  0  0  0  0  0  0  0
   27.5416  -15.9869  -16.2814 C   0  0  0  0  0  0  0  0  0  0  0  0
   27.5116  -14.5022  -16.4860 C   0  0  0  0  0  0  0  0  0  0  0  0
   28.6326  -13.7696  -16.1291 C   0  0  0  0  0  0  0  0  0  0  0  0
   28.6308  -12.3947  -16.3028 C   0  0  0  0  0  0  0  0  0  0  0  0
   27.5480  -11.7353  -16.8197 C   0  0  0  0  0  0  0  0  0  0  0  0
   26.4362  -12.4778  -17.1716 C   0  0  0  0  0  0  0  0  0  0  0  0
   26.4269  -13.8435  -17.0036 C   0  0  0  0  0  0  0  0  0  0  0  0
   26.1697  -17.7520  -15.1602 C   0  0  0  0  0  0  0  0  0  0  0  0
   26.1335  -18.5850  -16.1256 O   0  0  0  0  0  0  0  0  0  0  0  0
   26.0270  -18.2054  -13.8307 N   0  0  0  0  0  0  0  0  0  0  0  0
   25.7434  -19.5895  -13.5468 C   0  0  1  0  0  0  0  0  0  0  0  0
   26.3679  -19.8879  -12.1877 C   0  0  0  0  0  0  0  0  0  0  0  0
   26.1098  -21.3336  -11.8417 C   0  0  0  0  0  0  0  0  0  0  0  0
   25.5021  -22.0740  -12.6655 O   0  0  0  0  0  0  0  0  0  0  0  0
   24.2561  -19.7062  -13.3440 C   0  0  0  0  0  0  0  0  0  0  0  0
   23.7726  -19.7736  -12.1778 O   0  0  0  0  0  0  0  0  0  0  0  0
   26.5246  -21.8706  -10.6399 O   0  0  0  0  0  0  0  0  0  0  0  0
   17.5215  -18.3597  -11.6882 N   0  0  0  0  0  0  0  0  0  0  0  0
   18.0263  -19.2076  -10.6710 C   0  0  0  0  0  0  0  0  0  0  0  0
   17.2237  -19.7639   -9.8331 N   0  0  0  0  0  0  0  0  0  0  0  0
   19.4193  -19.4876  -10.5184 N   0  0  0  0  0  0  0  0  0  0  0  0
   20.4255  -18.9784  -11.4265 C   0  0  0  0  0  0  0  0  0  0  0  0
   20.1933  -19.3579  -12.8468 C   0  0  0  0  0  0  0  0  0  0  0  0
   21.3208  -18.8673  -13.7192 C   0  0  0  0  0  0  0  0  0  0  0  0
   22.0559  -19.9828  -14.4236 C   0  0  2  0  0  0  0  0  0  0  0  0
   23.4708  -19.7333  -14.5188 N   0  0  0  0  0  0  0  0  0  0  0  0
   21.4386  -20.0820  -15.7867 C   0  0  0  0  0  0  0  0  0  0  0  0
   22.0232  -19.4327  -16.8414 O   0  0  0  0  0  0  0  0  0  0  0  0
   20.4075  -20.7525  -15.9287 O   0  0  0  0  0  0  0  0  0  0  0  0
  2  1  1  1
  2 10  1  0
  3  2  1  0
  3  4  1  0
  4  5  2  0
  4  9  1  0
  5  6  1  0
  6  7  2  0
  8  7  1  0
  9  8  2  0
 10 11  2  0
 12 10  1  0
 12 13  1  0
 13 14  1  1
 13 17  1  0
 15 14  1  0
 16 15  2  0
 17 18  2  0
 19 15  1  0
 20 21  1  0
 21 22  2  0
 21 23  1  0
 23 24  1  0
 24 25  1  0
 25 26  1  0
 27 26  1  1
 27 29  1  0
 28 27  1  0
 28 17  1  0
 29 31  2  0
 29 30  1  0
M  END
$$$$
