FDR.pdb
     RDKit          3D

 31 31  0  0  1  0  0  0  0  0999 V2000
   25.4556  -20.1112  -14.6190 N   0  0  0  0  0  0  0  0  0  0  0  0
   25.0168  -20.5846  -13.3179 C   0  0  1  0  0  0  0  0  0  0  0  0
   25.6913  -19.8504  -12.1921 C   0  0  0  0  0  0  0  0  0  0  0  0
   27.1553  -20.1397  -12.3346 C   0  0  0  0  0  0  0  0  0  0  0  0
   27.6875  -21.1945  -11.6102 C   0  0  0  0  0  0  0  0  0  0  0  0
   29.0390  -21.4814  -11.7189 C   0  0  0  0  0  0  0  0  0  0  0  0
   29.8682  -20.7493  -12.5257 C   0  0  0  0  0  0  0  0  0  0  0  0
   29.3247  -19.6998  -13.2428 C   0  0  0  0  0  0  0  0  0  0  0  0
   27.9842  -19.4059  -13.1427 C   0  0  0  0  0  0  0  0  0  0  0  0
   23.5384  -20.5011  -13.2859 C   0  0  0  0  0  0  0  0  0  0  0  0
   22.9451  -19.4111  -12.9905 O   0  0  0  0  0  0  0  0  0  0  0  0
   22.7843  -21.6550  -13.5914 N   0  0  0  0  0  0  0  0  0  0  0  0
   21.3482  -21.6542  -13.4721 C   0  0  1  0  0  0  0  0  0  0  0  0
   20.7983  -21.8634  -14.8793 C   0  0  0  0  0  0  0  0  0  0  0  0
   21.0947  -20.6352  -15.7040 C   0  0  0  0  0  0  0  0  0  0  0  0
   20.8163  -19.4919  -15.2439 O   0  0  0  0  0  0  0  0  0  0  0  0
   20.9653  -22.8884  -12.6996 C   0  0  0  0  0  0  0  0  0  0  0  0
   21.5802  -23.9770  -12.8869 O   0  0  0  0  0  0  0  0  0  0  0  0
   21.6668  -20.7307  -16.9563 O   0  0  0  0  0  0  0  0  0  0  0  0
   19.0823  -25.0758   -5.9128 N   0  0  0  0  0  0  0  0  0  0  0  0
   17.7904  -25.6477   -6.0229 C   0  0  0  0  0  0  0  0  0  0  0  0
   17.4130  -26.5604   -5.1981 N   0  0  0  0  0  0  0  0  0  0  0  0
   16.8548  -25.2565   -7.0297 N   0  0  0  0  0  0  0  0  0  0  0  0
   17.1367  -24.2219   -8.0025 C   0  0  0  0  0  0  0  0  0  0  0  0
   18.0113  -24.6752   -9.1182 C   0  0  0  0  0  0  0  0  0  0  0  0
   18.4452  -23.5043   -9.9629 C   0  0  0  0  0  0  0  0  0  0  0  0
   19.4398  -23.8810  -11.0351 C   0  0  2  0  0  0  0  0  0  0  0  0
   19.9019  -22.7392  -11.7806 N   0  0  0  0  0  0  0  0  0  0  0  0
   18.7277  -24.8505  -11.9305 C   0  0  0  0  0  0  0  0  0  0  0  0
   17.7997  -24.3870  -12.8248 O   0  0  0  0  0  0  0  0  0  0  0  0
   18.9961  -26.0559  -11.8404 O   0  0  0  0  0  0  0  0  0  0  0  0
  2  1  1  6
  2 10  1  0
  3  2  1  0
  3  4  1  0
  4  5  2  0
  4  9  1  0
  5  6  1  0
  6  7  2  0
  8  7  1  0
  9  8  2  0
 10 11  2  0
 12 10  1  0
 12 13  1  0
 13 14  1  6
 13 17  1  0
 15 14  1  0
 16 15  2  0
 17 18  2  0
 19 15  1  0
 20 21  1  0
 21 22  2  0
 21 23  1  0
 23 24  1  0
 24 25  1  0
 25 26  1  0
 27 26  1  1
 27 29  1  0
 28 27  1  0
 28 17  1  0
 29 31  2  0
 29 30  1  0
M  END
$$$$
