FDR.pdb
     RDKit          3D

 31 31  0  0  1  0  0  0  0  0999 V2000
   24.8209  -16.3265  -17.4306 N   0  0  0  0  0  0  0  0  0  0  0  0
   24.8364  -17.1538  -16.2369 C   0  0  1  0  0  0  0  0  0  0  0  0
   25.7659  -16.6126  -15.1859 C   0  0  0  0  0  0  0  0  0  0  0  0
   27.1517  -16.8302  -15.7144 C   0  0  0  0  0  0  0  0  0  0  0  0
   27.8340  -15.7398  -16.2303 C   0  0  0  0  0  0  0  0  0  0  0  0
   29.1149  -15.9129  -16.7302 C   0  0  0  0  0  0  0  0  0  0  0  0
   29.7294  -17.1363  -16.7293 C   0  0  0  0  0  0  0  0  0  0  0  0
   29.0377  -18.2158  -16.2119 C   0  0  0  0  0  0  0  0  0  0  0  0
   27.7655  -18.0556  -15.7128 C   0  0  0  0  0  0  0  0  0  0  0  0
   23.4364  -17.3040  -15.7777 C   0  0  0  0  0  0  0  0  0  0  0  0
   22.7078  -16.2850  -15.5369 O   0  0  0  0  0  0  0  0  0  0  0  0
   22.9106  -18.6035  -15.6091 N   0  0  0  0  0  0  0  0  0  0  0  0
   21.5636  -18.8019  -15.1372 C   0  0  1  0  0  0  0  0  0  0  0  0
   20.7745  -19.3716  -16.3116 C   0  0  0  0  0  0  0  0  0  0  0  0
   19.3481  -19.5971  -15.8743 C   0  0  0  0  0  0  0  0  0  0  0  0
   18.8076  -20.7232  -16.0635 O   0  0  0  0  0  0  0  0  0  0  0  0
   21.6098  -19.9005  -14.1088 C   0  0  0  0  0  0  0  0  0  0  0  0
   22.3821  -20.8894  -14.2631 O   0  0  0  0  0  0  0  0  0  0  0  0
   18.6151  -18.5970  -15.2684 O   0  0  0  0  0  0  0  0  0  0  0  0
   18.7606  -24.4263   -9.7345 N   0  0  0  0  0  0  0  0  0  0  0  0
   19.0069  -23.9541   -8.4213 C   0  0  0  0  0  0  0  0  0  0  0  0
   19.2377  -24.7849   -7.4662 N   0  0  0  0  0  0  0  0  0  0  0  0
   19.0126  -22.5646   -8.0877 N   0  0  0  0  0  0  0  0  0  0  0  0
   19.1044  -21.5190   -9.0851 C   0  0  0  0  0  0  0  0  0  0  0  0
   20.4999  -21.2176   -9.5059 C   0  0  0  0  0  0  0  0  0  0  0  0
   20.5133  -20.1746  -10.5944 C   0  0  0  0  0  0  0  0  0  0  0  0
   20.7231  -20.7561  -11.9723 C   0  0  2  0  0  0  0  0  0  0  0  0
   20.7521  -19.7444  -12.9963 N   0  0  0  0  0  0  0  0  0  0  0  0
   19.5840  -21.7061  -12.1926 C   0  0  0  0  0  0  0  0  0  0  0  0
   18.3390  -21.2124  -12.4791 O   0  0  0  0  0  0  0  0  0  0  0  0
   19.7958  -22.9232  -12.1098 O   0  0  0  0  0  0  0  0  0  0  0  0
  2  1  1  6
  2 10  1  0
  3  2  1  0
  3  4  1  0
  4  5  2  0
  4  9  1  0
  5  6  1  0
  6  7  2  0
  8  7  1  0
  9  8  2  0
 10 11  2  0
 12 10  1  0
 12 13  1  0
 13 14  1  6
 13 17  1  0
 15 14  1  0
 16 15  2  0
 17 18  2  0
 19 15  1  0
 20 21  1  0
 21 22  2  0
 21 23  1  0
 23 24  1  0
 24 25  1  0
 25 26  1  0
 27 26  1  1
 27 29  1  0
 28 27  1  0
 28 17  1  0
 29 31  2  0
 29 30  1  0
M  END
$$$$
