FDR.pdb
     RDKit          3D

 31 31  0  0  1  0  0  0  0  0999 V2000
   25.3358  -19.3576   -8.0655 N   0  0  0  0  0  0  0  0  0  0  0  0
   26.3036  -20.2388   -8.6952 C   0  0  1  0  0  0  0  0  0  0  0  0
   26.6752  -21.3957   -7.8092 C   0  0  0  0  0  0  0  0  0  0  0  0
   27.2318  -20.7889   -6.5565 C   0  0  0  0  0  0  0  0  0  0  0  0
   26.5797  -21.0434   -5.3604 C   0  0  0  0  0  0  0  0  0  0  0  0
   27.0695  -20.4913   -4.1874 C   0  0  0  0  0  0  0  0  0  0  0  0
   28.1849  -19.6976   -4.1756 C   0  0  0  0  0  0  0  0  0  0  0  0
   28.8260  -19.4515   -5.3755 C   0  0  0  0  0  0  0  0  0  0  0  0
   28.3486  -19.9946   -6.5463 C   0  0  0  0  0  0  0  0  0  0  0  0
   25.7524  -20.6440  -10.0088 C   0  0  0  0  0  0  0  0  0  0  0  0
   26.3085  -21.5570  -10.7047 O   0  0  0  0  0  0  0  0  0  0  0  0
   24.5893  -20.0017  -10.4867 N   0  0  0  0  0  0  0  0  0  0  0  0
   24.0344  -20.3365  -11.7738 C   0  0  1  0  0  0  0  0  0  0  0  0
   22.5435  -20.0244  -11.6953 C   0  0  0  0  0  0  0  0  0  0  0  0
   21.8369  -21.1902  -11.0487 C   0  0  0  0  0  0  0  0  0  0  0  0
   22.1526  -22.3697  -11.3730 O   0  0  0  0  0  0  0  0  0  0  0  0
   24.6011  -19.3601  -12.7700 C   0  0  0  0  0  0  0  0  0  0  0  0
   24.3555  -18.1244  -12.6657 O   0  0  0  0  0  0  0  0  0  0  0  0
   20.8482  -20.9982  -10.1051 O   0  0  0  0  0  0  0  0  0  0  0  0
   28.7944  -17.6121  -18.7860 N   0  0  0  0  0  0  0  0  0  0  0  0
   29.9432  -17.1946  -18.0688 C   0  0  0  0  0  0  0  0  0  0  0  0
   30.6739  -16.2348  -18.5168 N   0  0  0  0  0  0  0  0  0  0  0  0
   30.3486  -17.7986  -16.8388 N   0  0  0  0  0  0  0  0  0  0  0  0
   29.5620  -18.8106  -16.1654 C   0  0  0  0  0  0  0  0  0  0  0  0
   28.1405  -18.4208  -15.9588 C   0  0  0  0  0  0  0  0  0  0  0  0
   27.4851  -19.3206  -14.9419 C   0  0  0  0  0  0  0  0  0  0  0  0
   26.0097  -19.0478  -14.7703 C   0  0  2  0  0  0  0  0  0  0  0  0
   25.4013  -19.9145  -13.7947 N   0  0  0  0  0  0  0  0  0  0  0  0
   25.3962  -19.2534  -16.1232 C   0  0  0  0  0  0  0  0  0  0  0  0
   25.4192  -18.2333  -17.0368 O   0  0  0  0  0  0  0  0  0  0  0  0
   24.8790  -20.3474  -16.3853 O   0  0  0  0  0  0  0  0  0  0  0  0
  2  1  1  1
  2 10  1  0
  3  2  1  0
  3  4  1  0
  4  5  2  0
  4  9  1  0
  5  6  1  0
  6  7  2  0
  8  7  1  0
  9  8  2  0
 10 11  2  0
 12 10  1  0
 12 13  1  0
 13 14  1  1
 13 17  1  0
 15 14  1  0
 16 15  2  0
 17 18  2  0
 19 15  1  0
 20 21  1  0
 21 22  2  0
 21 23  1  0
 23 24  1  0
 24 25  1  0
 25 26  1  0
 27 26  1  6
 27 29  1  0
 28 27  1  0
 28 17  1  0
 29 31  2  0
 29 30  1  0
M  END
$$$$
