FDR.pdb
     RDKit          3D

 31 31  0  0  1  0  0  0  0  0999 V2000
   24.1921  -10.3267  -14.8560 N   0  0  0  0  0  0  0  0  0  0  0  0
   23.0560   -9.7825  -15.5790 C   0  0  1  0  0  0  0  0  0  0  0  0
   22.0257  -10.8338  -15.8871 C   0  0  0  0  0  0  0  0  0  0  0  0
   22.6373  -11.7098  -16.9386 C   0  0  0  0  0  0  0  0  0  0  0  0
   23.1586  -12.9334  -16.5490 C   0  0  0  0  0  0  0  0  0  0  0  0
   23.7344  -13.7615  -17.4994 C   0  0  0  0  0  0  0  0  0  0  0  0
   23.8036  -13.4042  -18.8192 C   0  0  0  0  0  0  0  0  0  0  0  0
   23.2800  -12.1810  -19.1946 C   0  0  0  0  0  0  0  0  0  0  0  0
   22.7058  -11.3508  -18.2595 C   0  0  0  0  0  0  0  0  0  0  0  0
   22.5305   -8.6414  -14.7946 C   0  0  0  0  0  0  0  0  0  0  0  0
   22.3960   -8.7170  -13.5284 O   0  0  0  0  0  0  0  0  0  0  0  0
   22.1777   -7.4541  -15.4724 N   0  0  0  0  0  0  0  0  0  0  0  0
   21.5185   -6.3749  -14.7814 C   0  0  1  0  0  0  0  0  0  0  0  0
   22.3845   -5.1367  -14.9892 C   0  0  0  0  0  0  0  0  0  0  0  0
   21.7242   -3.9627  -14.3094 C   0  0  0  0  0  0  0  0  0  0  0  0
   22.2496   -2.8168  -14.3921 O   0  0  0  0  0  0  0  0  0  0  0  0
   20.2325   -6.0977  -15.5136 C   0  0  0  0  0  0  0  0  0  0  0  0
   20.2192   -6.0154  -16.7750 O   0  0  0  0  0  0  0  0  0  0  0  0
   20.5524   -4.1110  -13.5955 O   0  0  0  0  0  0  0  0  0  0  0  0
   11.8904   -8.4951  -13.6205 N   0  0  0  0  0  0  0  0  0  0  0  0
   11.8439   -7.6521  -14.7586 C   0  0  0  0  0  0  0  0  0  0  0  0
   10.7270   -7.4352  -15.3596 N   0  0  0  0  0  0  0  0  0  0  0  0
   13.0033   -7.0102  -15.2933 N   0  0  0  0  0  0  0  0  0  0  0  0
   14.3256   -7.1833  -14.7295 C   0  0  0  0  0  0  0  0  0  0  0  0
   15.3590   -6.3145  -15.3560 C   0  0  0  0  0  0  0  0  0  0  0  0
   16.7034   -6.5383  -14.7115 C   0  0  0  0  0  0  0  0  0  0  0  0
   17.8040   -5.7086  -15.3288 C   0  0  2  0  0  0  0  0  0  0  0  0
   19.0818   -5.9425  -14.7077 N   0  0  0  0  0  0  0  0  0  0  0  0
   17.3821   -4.2795  -15.1600 C   0  0  0  0  0  0  0  0  0  0  0  0
   16.5526   -3.7066  -16.0870 O   0  0  0  0  0  0  0  0  0  0  0  0
   17.7960   -3.6456  -14.1803 O   0  0  0  0  0  0  0  0  0  0  0  0
  2  1  1  1
  2 10  1  0
  3  2  1  0
  3  4  1  0
  4  5  2  0
  4  9  1  0
  5  6  1  0
  6  7  2  0
  8  7  1  0
  9  8  2  0
 10 11  2  0
 12 10  1  0
 12 13  1  0
 13 14  1  6
 13 17  1  0
 15 14  1  0
 16 15  2  0
 17 18  2  0
 19 15  1  0
 20 21  1  0
 21 22  2  0
 21 23  1  0
 23 24  1  0
 24 25  1  0
 25 26  1  0
 27 26  1  1
 27 29  1  0
 28 27  1  0
 28 17  1  0
 29 31  2  0
 29 30  1  0
M  END
$$$$
