FDR.pdb
     RDKit          3D

 31 31  0  0  1  0  0  0  0  0999 V2000
   29.0841  -21.0566   -8.9706 N   0  0  0  0  0  0  0  0  0  0  0  0
   27.6920  -20.6616   -8.8461 C   0  0  1  0  0  0  0  0  0  0  0  0
   27.5380  -19.3550   -8.1176 C   0  0  0  0  0  0  0  0  0  0  0  0
   28.0479  -19.5986   -6.7291 C   0  0  0  0  0  0  0  0  0  0  0  0
   29.2697  -19.0486   -6.3748 C   0  0  0  0  0  0  0  0  0  0  0  0
   29.7676  -19.2617   -5.0992 C   0  0  0  0  0  0  0  0  0  0  0  0
   29.0840  -20.0037   -4.1737 C   0  0  0  0  0  0  0  0  0  0  0  0
   27.8665  -20.5468   -4.5399 C   0  0  0  0  0  0  0  0  0  0  0  0
   27.3624  -20.3416   -5.8037 C   0  0  0  0  0  0  0  0  0  0  0  0
   27.1028  -20.6621  -10.2049 C   0  0  0  0  0  0  0  0  0  0  0  0
   27.7677  -20.2504  -11.2128 O   0  0  0  0  0  0  0  0  0  0  0  0
   25.7818  -21.1308  -10.3743 N   0  0  0  0  0  0  0  0  0  0  0  0
   25.1193  -21.0333  -11.6503 C   0  0  1  0  0  0  0  0  0  0  0  0
   25.2715  -22.3948  -12.3207 C   0  0  0  0  0  0  0  0  0  0  0  0
   24.7233  -22.3091  -13.7238 C   0  0  0  0  0  0  0  0  0  0  0  0
   24.2611  -21.2124  -14.1477 O   0  0  0  0  0  0  0  0  0  0  0  0
   23.6469  -20.8787  -11.3764 C   0  0  0  0  0  0  0  0  0  0  0  0
   23.1116  -21.4760  -10.3992 O   0  0  0  0  0  0  0  0  0  0  0  0
   24.7151  -23.4063  -14.5609 O   0  0  0  0  0  0  0  0  0  0  0  0
   19.6826  -15.7519  -16.2281 N   0  0  0  0  0  0  0  0  0  0  0  0
   20.9846  -16.2835  -16.4026 C   0  0  0  0  0  0  0  0  0  0  0  0
   21.8978  -15.5854  -16.9809 N   0  0  0  0  0  0  0  0  0  0  0  0
   21.3514  -17.5916  -15.9596 N   0  0  0  0  0  0  0  0  0  0  0  0
   20.3809  -18.5698  -15.5148 C   0  0  0  0  0  0  0  0  0  0  0  0
   20.9246  -19.5429  -14.5286 C   0  0  0  0  0  0  0  0  0  0  0  0
   20.9215  -18.9519  -13.1416 C   0  0  0  0  0  0  0  0  0  0  0  0
   21.5153  -19.8724  -12.1019 C   0  0  2  0  0  0  0  0  0  0  0  0
   22.9356  -20.0422  -12.2663 N   0  0  0  0  0  0  0  0  0  0  0  0
   20.7996  -21.1809  -12.2582 C   0  0  0  0  0  0  0  0  0  0  0  0
   19.6606  -21.4178  -11.5355 O   0  0  0  0  0  0  0  0  0  0  0  0
   21.2576  -22.0230  -13.0418 O   0  0  0  0  0  0  0  0  0  0  0  0
  2  1  1  6
  2 10  1  0
  3  2  1  0
  3  4  1  0
  4  5  2  0
  4  9  1  0
  5  6  1  0
  6  7  2  0
  8  7  1  0
  9  8  2  0
 10 11  2  0
 12 10  1  0
 12 13  1  0
 13 14  1  6
 13 17  1  0
 15 14  1  0
 16 15  2  0
 17 18  2  0
 19 15  1  0
 20 21  1  0
 21 22  2  0
 21 23  1  0
 23 24  1  0
 24 25  1  0
 25 26  1  0
 27 26  1  6
 27 29  1  0
 28 27  1  0
 28 17  1  0
 29 31  2  0
 29 30  1  0
M  END
$$$$
