FDR.pdb
     RDKit          3D

 31 31  0  0  1  0  0  0  0  0999 V2000
   28.5865  -21.2621  -11.3923 N   0  0  0  0  0  0  0  0  0  0  0  0
   27.2463  -21.2167  -10.8342 C   0  0  1  0  0  0  0  0  0  0  0  0
   27.1141  -20.1664   -9.7661 C   0  0  0  0  0  0  0  0  0  0  0  0
   28.0610  -20.5700   -8.6763 C   0  0  0  0  0  0  0  0  0  0  0  0
   27.7608  -20.1949   -7.3764 C   0  0  0  0  0  0  0  0  0  0  0  0
   28.6211  -20.5503   -6.3496 C   0  0  0  0  0  0  0  0  0  0  0  0
   29.7652  -21.2651   -6.5833 C   0  0  0  0  0  0  0  0  0  0  0  0
   30.0529  -21.6329   -7.8845 C   0  0  0  0  0  0  0  0  0  0  0  0
   29.2059  -21.2856   -8.9118 C   0  0  0  0  0  0  0  0  0  0  0  0
   26.2979  -21.0487  -11.9593 C   0  0  0  0  0  0  0  0  0  0  0  0
   26.4887  -20.1625  -12.8567 O   0  0  0  0  0  0  0  0  0  0  0  0
   25.1676  -21.8920  -12.0288 N   0  0  0  0  0  0  0  0  0  0  0  0
   24.2115  -21.7621  -13.0991 C   0  0  1  0  0  0  0  0  0  0  0  0
   23.7547  -23.1759  -13.4437 C   0  0  0  0  0  0  0  0  0  0  0  0
   24.7753  -23.8063  -14.3588 C   0  0  0  0  0  0  0  0  0  0  0  0
   25.1691  -23.1783  -15.3818 O   0  0  0  0  0  0  0  0  0  0  0  0
   22.9999  -21.0715  -12.5317 C   0  0  0  0  0  0  0  0  0  0  0  0
   22.6577  -21.2640  -11.3301 O   0  0  0  0  0  0  0  0  0  0  0  0
   25.2928  -25.0600  -14.1037 O   0  0  0  0  0  0  0  0  0  0  0  0
   16.2441  -18.2597  -14.2812 N   0  0  0  0  0  0  0  0  0  0  0  0
   16.3877  -16.8637  -14.0847 C   0  0  0  0  0  0  0  0  0  0  0  0
   15.3604  -16.1383  -13.8120 N   0  0  0  0  0  0  0  0  0  0  0  0
   17.6475  -16.1955  -14.1759 N   0  0  0  0  0  0  0  0  0  0  0  0
   18.8735  -16.8787  -14.5321 C   0  0  0  0  0  0  0  0  0  0  0  0
   19.2856  -17.9158  -13.5473 C   0  0  0  0  0  0  0  0  0  0  0  0
   20.5612  -18.5887  -13.9864 C   0  0  0  0  0  0  0  0  0  0  0  0
   21.0761  -19.5967  -12.9866 C   0  0  2  0  0  0  0  0  0  0  0  0
   22.3001  -20.2209  -13.4173 N   0  0  0  0  0  0  0  0  0  0  0  0
   19.9843  -20.6131  -12.8319 C   0  0  0  0  0  0  0  0  0  0  0  0
   19.9974  -21.7412  -13.6084 O   0  0  0  0  0  0  0  0  0  0  0  0
   19.0898  -20.4080  -12.0008 O   0  0  0  0  0  0  0  0  0  0  0  0
  2  1  1  6
  2 10  1  0
  3  2  1  0
  3  4  1  0
  4  5  2  0
  4  9  1  0
  5  6  1  0
  6  7  2  0
  8  7  1  0
  9  8  2  0
 10 11  2  0
 12 10  1  0
 12 13  1  0
 13 14  1  1
 13 17  1  0
 15 14  1  0
 16 15  2  0
 17 18  2  0
 19 15  1  0
 20 21  1  0
 21 22  2  0
 21 23  1  0
 23 24  1  0
 24 25  1  0
 25 26  1  0
 27 26  1  6
 27 29  1  0
 28 27  1  0
 28 17  1  0
 29 31  2  0
 29 30  1  0
M  END
$$$$
