FDR.pdb
     RDKit          3D

 31 31  0  0  1  0  0  0  0  0999 V2000
   28.7778  -21.8146  -10.7845 N   0  0  0  0  0  0  0  0  0  0  0  0
   27.6108  -20.9767  -10.5714 C   0  0  1  0  0  0  0  0  0  0  0  0
   27.9508  -19.7102   -9.8353 C   0  0  0  0  0  0  0  0  0  0  0  0
   28.1340  -20.1073   -8.4015 C   0  0  0  0  0  0  0  0  0  0  0  0
   29.4260  -20.2753   -7.9289 C   0  0  0  0  0  0  0  0  0  0  0  0
   29.6247  -20.6469   -6.6087 C   0  0  0  0  0  0  0  0  0  0  0  0
   28.5763  -20.8541   -5.7529 C   0  0  0  0  0  0  0  0  0  0  0  0
   27.2926  -20.6834   -6.2370 C   0  0  0  0  0  0  0  0  0  0  0  0
   27.0834  -20.3144   -7.5460 C   0  0  0  0  0  0  0  0  0  0  0  0
   26.9750  -20.7502  -11.8898 C   0  0  0  0  0  0  0  0  0  0  0  0
   27.5701  -20.0903  -12.8049 O   0  0  0  0  0  0  0  0  0  0  0  0
   25.6880  -21.2810  -12.1254 N   0  0  0  0  0  0  0  0  0  0  0  0
   24.8776  -20.8018  -13.2164 C   0  0  1  0  0  0  0  0  0  0  0  0
   24.9546  -21.8627  -14.3095 C   0  0  0  0  0  0  0  0  0  0  0  0
   24.5871  -23.1999  -13.7150 C   0  0  0  0  0  0  0  0  0  0  0  0
   25.4386  -23.8341  -13.0303 O   0  0  0  0  0  0  0  0  0  0  0  0
   23.4478  -20.8086  -12.7448 C   0  0  0  0  0  0  0  0  0  0  0  0
   23.0804  -21.5965  -11.8270 O   0  0  0  0  0  0  0  0  0  0  0  0
   23.3353  -23.7502  -13.9016 O   0  0  0  0  0  0  0  0  0  0  0  0
   22.4210  -19.7187  -17.7939 N   0  0  0  0  0  0  0  0  0  0  0  0
   21.2492  -19.1054  -18.3028 C   0  0  0  0  0  0  0  0  0  0  0  0
   20.9103  -19.2750  -19.5325 N   0  0  0  0  0  0  0  0  0  0  0  0
   20.3970  -18.2833  -17.5028 N   0  0  0  0  0  0  0  0  0  0  0  0
   20.6386  -18.0385  -16.0963 C   0  0  0  0  0  0  0  0  0  0  0  0
   20.1082  -19.1066  -15.2058 C   0  0  0  0  0  0  0  0  0  0  0  0
   20.4196  -18.7990  -13.7631 C   0  0  0  0  0  0  0  0  0  0  0  0
   21.1751  -19.9071  -13.0688 C   0  0  2  0  0  0  0  0  0  0  0  0
   22.5795  -19.8966  -13.3864 N   0  0  0  0  0  0  0  0  0  0  0  0
   20.5348  -21.1849  -13.5227 C   0  0  0  0  0  0  0  0  0  0  0  0
   19.9495  -22.0113  -12.6006 O   0  0  0  0  0  0  0  0  0  0  0  0
   20.5500  -21.4660  -14.7284 O   0  0  0  0  0  0  0  0  0  0  0  0
  2  1  1  6
  2 10  1  0
  3  2  1  0
  3  4  1  0
  4  5  2  0
  4  9  1  0
  5  6  1  0
  6  7  2  0
  8  7  1  0
  9  8  2  0
 10 11  2  0
 12 10  1  0
 12 13  1  0
 13 14  1  6
 13 17  1  0
 15 14  1  0
 16 15  2  0
 17 18  2  0
 19 15  1  0
 20 21  1  0
 21 22  2  0
 21 23  1  0
 23 24  1  0
 24 25  1  0
 25 26  1  0
 27 26  1  6
 27 29  1  0
 28 27  1  0
 28 17  1  0
 29 31  2  0
 29 30  1  0
M  END
$$$$
