FDR.pdb
     RDKit          3D

 31 31  0  0  1  0  0  0  0  0999 V2000
   28.7440  -21.0769   -8.8474 N   0  0  0  0  0  0  0  0  0  0  0  0
   27.3522  -20.6738   -8.7489 C   0  0  1  0  0  0  0  0  0  0  0  0
   27.1844  -19.4115   -7.9490 C   0  0  0  0  0  0  0  0  0  0  0  0
   27.7387  -19.7126   -6.5891 C   0  0  0  0  0  0  0  0  0  0  0  0
   28.9694  -19.1731   -6.2500 C   0  0  0  0  0  0  0  0  0  0  0  0
   29.5082  -19.4390   -5.0011 C   0  0  0  0  0  0  0  0  0  0  0  0
   28.8565  -20.2233   -4.0876 C   0  0  0  0  0  0  0  0  0  0  0  0
   27.6297  -20.7554   -4.4385 C   0  0  0  0  0  0  0  0  0  0  0  0
   27.0851  -20.4980   -5.6756 C   0  0  0  0  0  0  0  0  0  0  0  0
   26.8127  -20.5860  -10.1255 C   0  0  0  0  0  0  0  0  0  0  0  0
   27.5838  -20.4130  -11.1268 O   0  0  0  0  0  0  0  0  0  0  0  0
   25.4187  -20.6992  -10.3191 N   0  0  0  0  0  0  0  0  0  0  0  0
   24.8455  -20.6186  -11.6388 C   0  0  1  0  0  0  0  0  0  0  0  0
   25.2906  -21.8750  -12.3801 C   0  0  0  0  0  0  0  0  0  0  0  0
   25.9613  -21.4666  -13.6685 C   0  0  0  0  0  0  0  0  0  0  0  0
   25.3273  -20.7672  -14.5082 O   0  0  0  0  0  0  0  0  0  0  0  0
   23.3533  -20.7464  -11.4841 C   0  0  0  0  0  0  0  0  0  0  0  0
   22.8631  -21.5953  -10.6859 O   0  0  0  0  0  0  0  0  0  0  0  0
   27.2590  -21.8401  -13.9536 O   0  0  0  0  0  0  0  0  0  0  0  0
   21.5443  -15.5696  -16.4085 N   0  0  0  0  0  0  0  0  0  0  0  0
   21.5575  -16.9512  -16.7232 C   0  0  0  0  0  0  0  0  0  0  0  0
   22.3222  -17.3960  -17.6577 N   0  0  0  0  0  0  0  0  0  0  0  0
   20.7440  -17.9076  -16.0409 N   0  0  0  0  0  0  0  0  0  0  0  0
   19.8907  -17.5571  -14.9249 C   0  0  0  0  0  0  0  0  0  0  0  0
   20.4350  -17.9751  -13.6042 C   0  0  0  0  0  0  0  0  0  0  0  0
   20.4867  -19.4784  -13.5024 C   0  0  0  0  0  0  0  0  0  0  0  0
   21.1353  -19.9660  -12.2286 C   0  0  2  0  0  0  0  0  0  0  0  0
   22.5715  -19.8730  -12.2737 N   0  0  0  0  0  0  0  0  0  0  0  0
   20.6975  -21.3910  -12.0667 C   0  0  0  0  0  0  0  0  0  0  0  0
   21.2015  -22.3513  -12.9032 O   0  0  0  0  0  0  0  0  0  0  0  0
   19.8847  -21.6692  -11.1750 O   0  0  0  0  0  0  0  0  0  0  0  0
  2  1  1  6
  2 10  1  0
  3  2  1  0
  3  4  1  0
  4  5  2  0
  4  9  1  0
  5  6  1  0
  6  7  2  0
  8  7  1  0
  9  8  2  0
 10 11  2  0
 12 10  1  0
 12 13  1  0
 13 14  1  6
 13 17  1  0
 15 14  1  0
 16 15  2  0
 17 18  2  0
 19 15  1  0
 20 21  1  0
 21 22  2  0
 21 23  1  0
 23 24  1  0
 24 25  1  0
 25 26  1  0
 27 26  1  6
 27 29  1  0
 28 27  1  0
 28 17  1  0
 29 31  2  0
 29 30  1  0
M  END
$$$$
