FDR.pdb
     RDKit          3D

 31 31  0  0  1  0  0  0  0  0999 V2000
   20.6341  -12.1580  -17.2376 N   0  0  0  0  0  0  0  0  0  0  0  0
   20.6091  -10.8615  -17.8918 C   0  0  1  0  0  0  0  0  0  0  0  0
   19.8604  -10.9004  -19.1954 C   0  0  0  0  0  0  0  0  0  0  0  0
   20.6691  -11.7751  -20.1054 C   0  0  0  0  0  0  0  0  0  0  0  0
   21.8873  -11.2963  -20.5610 C   0  0  0  0  0  0  0  0  0  0  0  0
   22.6536  -12.0817  -21.4074 C   0  0  0  0  0  0  0  0  0  0  0  0
   22.2402  -13.3237  -21.8088 C   0  0  0  0  0  0  0  0  0  0  0  0
   21.0231  -13.7893  -21.3472 C   0  0  0  0  0  0  0  0  0  0  0  0
   20.2539  -13.0182  -20.5063 C   0  0  0  0  0  0  0  0  0  0  0  0
   20.0709   -9.8804  -16.9216 C   0  0  0  0  0  0  0  0  0  0  0  0
   19.0374  -10.1432  -16.2216 O   0  0  0  0  0  0  0  0  0  0  0  0
   20.7237   -8.6368  -16.7775 N   0  0  0  0  0  0  0  0  0  0  0  0
   20.2154   -7.6337  -15.8763 C   0  0  1  0  0  0  0  0  0  0  0  0
   21.3140   -7.3799  -14.8492 C   0  0  0  0  0  0  0  0  0  0  0  0
   21.1956   -8.4050  -13.7484 C   0  0  0  0  0  0  0  0  0  0  0  0
   22.1069   -9.2667  -13.5968 O   0  0  0  0  0  0  0  0  0  0  0  0
   20.0898   -6.3543  -16.6600 C   0  0  0  0  0  0  0  0  0  0  0  0
   21.0284   -5.9719  -17.4155 O   0  0  0  0  0  0  0  0  0  0  0  0
   20.1094   -8.4239  -12.8971 O   0  0  0  0  0  0  0  0  0  0  0  0
   16.3477   -6.8226  -15.0383 N   0  0  0  0  0  0  0  0  0  0  0  0
   16.2177   -7.6740  -16.1636 C   0  0  0  0  0  0  0  0  0  0  0  0
   16.4722   -8.9310  -16.0584 N   0  0  0  0  0  0  0  0  0  0  0  0
   15.8081   -7.2007  -17.4482 N   0  0  0  0  0  0  0  0  0  0  0  0
   15.4448   -5.8212  -17.6963 C   0  0  0  0  0  0  0  0  0  0  0  0
   16.5096   -5.0384  -18.3809 C   0  0  0  0  0  0  0  0  0  0  0  0
   17.1974   -4.1135  -17.4090 C   0  0  0  0  0  0  0  0  0  0  0  0
   18.6646   -4.4238  -17.2300 C   0  0  2  0  0  0  0  0  0  0  0  0
   18.8820   -5.6400  -16.4905 N   0  0  0  0  0  0  0  0  0  0  0  0
   19.2455   -3.2469  -16.5046 C   0  0  0  0  0  0  0  0  0  0  0  0
   20.1679   -2.4540  -17.1342 O   0  0  0  0  0  0  0  0  0  0  0  0
   18.8761   -3.0171  -15.3454 O   0  0  0  0  0  0  0  0  0  0  0  0
  2  1  1  1
  2 10  1  0
  3  2  1  0
  3  4  1  0
  4  5  2  0
  4  9  1  0
  5  6  1  0
  6  7  2  0
  8  7  1  0
  9  8  2  0
 10 11  2  0
 12 10  1  0
 12 13  1  0
 13 14  1  1
 13 17  1  0
 15 14  1  0
 16 15  2  0
 17 18  2  0
 19 15  1  0
 20 21  1  0
 21 22  2  0
 21 23  1  0
 23 24  1  0
 24 25  1  0
 25 26  1  0
 27 26  1  1
 27 29  1  0
 28 27  1  0
 28 17  1  0
 29 31  2  0
 29 30  1  0
M  END
$$$$
