FDR.pdb
     RDKit          3D

 31 31  0  0  1  0  0  0  0  0999 V2000
   28.4702  -21.4577  -13.2343 N   0  0  0  0  0  0  0  0  0  0  0  0
   27.7133  -21.1185  -12.0420 C   0  0  1  0  0  0  0  0  0  0  0  0
   28.5042  -20.2576  -11.0961 C   0  0  0  0  0  0  0  0  0  0  0  0
   29.7217  -21.0555  -10.7380 C   0  0  0  0  0  0  0  0  0  0  0  0
   29.7202  -21.7486   -9.5378 C   0  0  0  0  0  0  0  0  0  0  0  0
   30.8344  -22.4906   -9.1791 C   0  0  0  0  0  0  0  0  0  0  0  0
   31.9426  -22.5593   -9.9801 C   0  0  0  0  0  0  0  0  0  0  0  0
   31.9312  -21.8632  -11.1745 C   0  0  0  0  0  0  0  0  0  0  0  0
   30.8304  -21.1233  -11.5409 C   0  0  0  0  0  0  0  0  0  0  0  0
   26.4364  -20.5093  -12.4801 C   0  0  0  0  0  0  0  0  0  0  0  0
   26.3866  -19.3009  -12.8857 O   0  0  0  0  0  0  0  0  0  0  0  0
   25.2613  -21.2912  -12.4450 N   0  0  0  0  0  0  0  0  0  0  0  0
   23.9963  -20.7463  -12.8685 C   0  0  1  0  0  0  0  0  0  0  0  0
   24.0825  -20.5818  -14.3824 C   0  0  0  0  0  0  0  0  0  0  0  0
   22.8190  -19.9177  -14.8713 C   0  0  0  0  0  0  0  0  0  0  0  0
   21.8374  -19.7886  -14.0865 O   0  0  0  0  0  0  0  0  0  0  0  0
   22.9543  -21.8076  -12.6348 C   0  0  0  0  0  0  0  0  0  0  0  0
   23.0801  -22.9534  -13.1540 O   0  0  0  0  0  0  0  0  0  0  0  0
   22.7090  -19.4441  -16.1629 O   0  0  0  0  0  0  0  0  0  0  0  0
   19.1679  -25.1033   -6.3952 N   0  0  0  0  0  0  0  0  0  0  0  0
   18.1178  -25.2811   -7.3300 C   0  0  0  0  0  0  0  0  0  0  0  0
   17.1872  -26.1406   -7.1040 N   0  0  0  0  0  0  0  0  0  0  0  0
   18.0320  -24.5375   -8.5473 N   0  0  0  0  0  0  0  0  0  0  0  0
   18.8770  -23.3963   -8.8302 C   0  0  0  0  0  0  0  0  0  0  0  0
   18.7370  -22.8810  -10.2195 C   0  0  0  0  0  0  0  0  0  0  0  0
   19.8260  -21.8855  -10.5294 C   0  0  0  0  0  0  0  0  0  0  0  0
   20.8074  -22.3811  -11.5648 C   0  0  2  0  0  0  0  0  0  0  0  0
   21.8629  -21.4351  -11.8176 N   0  0  0  0  0  0  0  0  0  0  0  0
   20.0024  -22.6271  -12.8059 C   0  0  0  0  0  0  0  0  0  0  0  0
   19.7701  -23.9130  -13.2160 O   0  0  0  0  0  0  0  0  0  0  0  0
   19.5635  -21.6559  -13.4362 O   0  0  0  0  0  0  0  0  0  0  0  0
  2  1  1  6
  2 10  1  0
  3  2  1  0
  3  4  1  0
  4  5  2  0
  4  9  1  0
  5  6  1  0
  6  7  2  0
  8  7  1  0
  9  8  2  0
 10 11  2  0
 12 10  1  0
 12 13  1  0
 13 14  1  6
 13 17  1  0
 15 14  1  0
 16 15  2  0
 17 18  2  0
 19 15  1  0
 20 21  1  0
 21 22  2  0
 21 23  1  0
 23 24  1  0
 24 25  1  0
 25 26  1  0
 27 26  1  1
 27 29  1  0
 28 27  1  0
 28 17  1  0
 29 31  2  0
 29 30  1  0
M  END
$$$$
