GIC.pdb
     RDKit          3D

 19 18  0  0  1  0  0  0  0  0999 V2000
    4.8997  -19.2246   23.9906 N   0  0  0  0  0  0  0  0  0  0  0  0
    5.3350  -18.3919   25.1102 C   0  0  0  0  0  0  0  0  0  0  0  0
    6.1308  -17.2523   24.5881 C   0  0  0  0  0  0  0  0  0  0  0  0
    6.4544  -17.2404   23.3854 O   0  0  0  0  0  0  0  0  0  0  0  0
    5.8842  -12.3566   27.0741 C   0  0  0  0  0  0  0  0  0  0  0  0
    6.0946  -13.3451   25.9584 C   0  0  0  0  0  0  0  0  0  0  0  0
    7.4479  -13.9660   25.9124 C   0  0  2  0  0  0  0  0  0  0  0  0
    8.5375  -12.9641   25.5774 C   0  0  0  0  0  0  0  0  0  0  0  0
    7.5642  -15.2365   25.1153 C   0  0  2  0  0  0  0  0  0  0  0  0
    6.5284  -16.1836   25.4227 N   0  0  0  0  0  0  0  0  0  0  0  0
    8.9111  -15.8015   25.1583 C   0  0  0  0  0  0  0  0  0  0  0  0
    9.4012  -16.2254   26.2280 O   0  0  0  0  0  0  0  0  0  0  0  0
    9.6966  -15.8849   23.9919 N   0  0  0  0  0  0  0  0  0  0  0  0
   11.0099  -16.5039   24.0278 C   0  0  1  0  0  0  0  0  0  0  0  0
   11.0440  -17.5810   22.9315 C   0  0  0  0  0  0  0  0  0  0  0  0
    9.7756  -18.7976   23.3696 S   0  0  0  0  0  0  0  0  0  0  0  0
   12.0980  -15.5460   23.8637 C   0  0  0  0  0  0  0  0  0  0  0  0
   13.4052  -15.9433   24.0379 O   0  0  0  0  0  0  0  0  0  0  0  0
   11.8604  -14.3587   23.5645 O   0  0  0  0  0  0  0  0  0  0  0  0
  2  1  1  0
  3  2  1  0
  4  3  2  0
  5  6  1  0
  7  6  1  0
  7  8  1  6
  9 10  1  1
  9  7  1  0
 10  3  1  0
 11  9  1  0
 12 11  2  0
 13 11  1  0
 14 15  1  6
 14 13  1  0
 16 15  1  0
 17 18  1  0
 17 14  1  0
 19 17  2  0
M  END
$$$$
