GIC.pdb
     RDKit          3D

 19 18  0  0  1  0  0  0  0  0999 V2000
    5.5916  -17.3331   21.4798 N   0  0  0  0  0  0  0  0  0  0  0  0
    5.3932  -16.9927   22.8872 C   0  0  0  0  0  0  0  0  0  0  0  0
    6.5742  -16.2369   23.3759 C   0  0  0  0  0  0  0  0  0  0  0  0
    7.6399  -16.2981   22.7343 O   0  0  0  0  0  0  0  0  0  0  0  0
    5.9630  -11.6716   26.4941 C   0  0  0  0  0  0  0  0  0  0  0  0
    6.4621  -12.7199   25.5360 C   0  0  0  0  0  0  0  0  0  0  0  0
    7.3188  -13.7751   26.1455 C   0  0  2  0  0  0  0  0  0  0  0  0
    8.5361  -13.2032   26.8485 C   0  0  0  0  0  0  0  0  0  0  0  0
    7.6568  -14.9436   25.2603 C   0  0  2  0  0  0  0  0  0  0  0  0
    6.5164  -15.4520   24.5494 N   0  0  0  0  0  0  0  0  0  0  0  0
    8.4211  -15.9728   25.9615 C   0  0  0  0  0  0  0  0  0  0  0  0
    7.8511  -16.8361   26.6642 O   0  0  0  0  0  0  0  0  0  0  0  0
    9.8257  -16.0210   25.8642 N   0  0  0  0  0  0  0  0  0  0  0  0
   10.5269  -17.2918   25.9137 C   0  0  1  0  0  0  0  0  0  0  0  0
   10.0785  -18.1157   24.6959 C   0  0  0  0  0  0  0  0  0  0  0  0
   10.9111  -19.7189   24.8278 S   0  0  0  0  0  0  0  0  0  0  0  0
   11.9778  -17.1431   25.9478 C   0  0  0  0  0  0  0  0  0  0  0  0
   12.7411  -17.9603   26.7519 O   0  0  0  0  0  0  0  0  0  0  0  0
   12.5450  -16.2771   25.2519 O   0  0  0  0  0  0  0  0  0  0  0  0
  2  1  1  0
  3  2  1  0
  4  3  2  0
  5  6  1  0
  7  6  1  0
  7  8  1  6
  9 10  1  1
  9  7  1  0
 10  3  1  0
 11  9  1  0
 12 11  2  0
 13 11  1  0
 14 15  1  6
 14 13  1  0
 16 15  1  0
 17 18  1  0
 17 14  1  0
 19 17  2  0
M  END
$$$$
