GIC.pdb
     RDKit          3D

 19 18  0  0  1  0  0  0  0  0999 V2000
    6.6645  -19.3271   23.5342 N   0  0  0  0  0  0  0  0  0  0  0  0
    6.2561  -18.3507   24.5422 C   0  0  0  0  0  0  0  0  0  0  0  0
    7.0850  -17.1272   24.3982 C   0  0  0  0  0  0  0  0  0  0  0  0
    8.0880  -17.1589   23.6605 O   0  0  0  0  0  0  0  0  0  0  0  0
    6.8157  -11.0467   26.0193 C   0  0  0  0  0  0  0  0  0  0  0  0
    7.5240  -12.2294   25.4148 C   0  0  0  0  0  0  0  0  0  0  0  0
    6.8372  -13.5383   25.5998 C   0  0  2  0  0  0  0  0  0  0  0  0
    6.2999  -13.7205   27.0074 C   0  0  0  0  0  0  0  0  0  0  0  0
    7.5786  -14.7487   25.1015 C   0  0  2  0  0  0  0  0  0  0  0  0
    6.7624  -15.9308   25.0773 N   0  0  0  0  0  0  0  0  0  0  0  0
    8.8629  -14.9329   25.7737 C   0  0  0  0  0  0  0  0  0  0  0  0
    9.7977  -14.1167   25.6183 O   0  0  0  0  0  0  0  0  0  0  0  0
    9.0835  -16.0385   26.6185 N   0  0  0  0  0  0  0  0  0  0  0  0
   10.2353  -16.0751   27.5025 C   0  0  1  0  0  0  0  0  0  0  0  0
    9.9428  -15.1349   28.6830 C   0  0  0  0  0  0  0  0  0  0  0  0
   10.8006  -13.5804   28.3240 S   0  0  0  0  0  0  0  0  0  0  0  0
   10.5589  -17.4206   27.9642 C   0  0  0  0  0  0  0  0  0  0  0  0
   11.6144  -17.6244   28.8252 O   0  0  0  0  0  0  0  0  0  0  0  0
    9.8867  -18.4013   27.5871 O   0  0  0  0  0  0  0  0  0  0  0  0
  2  1  1  0
  3  2  1  0
  4  3  2  0
  5  6  1  0
  7  6  1  0
  7  8  1  1
  9 10  1  1
  9  7  1  0
 10  3  1  0
 11  9  1  0
 12 11  2  0
 13 11  1  0
 14 15  1  1
 14 13  1  0
 16 15  1  0
 17 18  1  0
 17 14  1  0
 19 17  2  0
M  END
$$$$
