GIC.pdb
     RDKit          3D

 19 18  0  0  1  0  0  0  0  0999 V2000
    7.0654  -15.0704   19.5544 N   0  0  0  0  0  0  0  0  0  0  0  0
    6.3578  -15.1512   20.8306 C   0  0  0  0  0  0  0  0  0  0  0  0
    7.3167  -14.8967   21.9354 C   0  0  0  0  0  0  0  0  0  0  0  0
    8.5356  -15.0403   21.7241 O   0  0  0  0  0  0  0  0  0  0  0  0
    7.3279  -12.0457   27.5200 C   0  0  0  0  0  0  0  0  0  0  0  0
    7.9829  -12.9395   26.5011 C   0  0  0  0  0  0  0  0  0  0  0  0
    7.0951  -13.3890   25.3926 C   0  0  2  0  0  0  0  0  0  0  0  0
    5.7759  -13.9480   25.8928 C   0  0  0  0  0  0  0  0  0  0  0  0
    7.7349  -14.2615   24.3473 C   0  0  2  0  0  0  0  0  0  0  0  0
    6.8786  -14.4964   23.2178 N   0  0  0  0  0  0  0  0  0  0  0  0
    8.3117  -15.4790   24.9129 C   0  0  0  0  0  0  0  0  0  0  0  0
    7.5855  -16.4255   25.2882 O   0  0  0  0  0  0  0  0  0  0  0  0
    9.7066  -15.6206   25.0507 N   0  0  0  0  0  0  0  0  0  0  0  0
   10.2867  -16.8990   25.4228 C   0  0  1  0  0  0  0  0  0  0  0  0
   11.5796  -17.0747   24.6102 C   0  0  0  0  0  0  0  0  0  0  0  0
   12.6298  -15.6528   25.0053 S   0  0  0  0  0  0  0  0  0  0  0  0
   10.5406  -17.0163   26.8547 C   0  0  0  0  0  0  0  0  0  0  0  0
   11.0009  -18.2018   27.3836 O   0  0  0  0  0  0  0  0  0  0  0  0
   10.3451  -16.0484   27.6168 O   0  0  0  0  0  0  0  0  0  0  0  0
  2  1  1  0
  3  2  1  0
  4  3  2  0
  5  6  1  0
  7  6  1  0
  7  8  1  1
  9 10  1  6
  9  7  1  0
 10  3  1  0
 11  9  1  0
 12 11  2  0
 13 11  1  0
 14 15  1  6
 14 13  1  0
 16 15  1  0
 17 18  1  0
 17 14  1  0
 19 17  2  0
M  END
$$$$
