GIC.pdb
     RDKit          3D

 19 18  0  0  1  0  0  0  0  0999 V2000
    5.8883  -18.3513   22.6489 N   0  0  0  0  0  0  0  0  0  0  0  0
    5.6146  -17.6768   23.9163 C   0  0  0  0  0  0  0  0  0  0  0  0
    6.7450  -16.7697   24.2386 C   0  0  0  0  0  0  0  0  0  0  0  0
    7.8011  -16.8627   23.5850 O   0  0  0  0  0  0  0  0  0  0  0  0
    5.7466  -11.8291   26.4491 C   0  0  0  0  0  0  0  0  0  0  0  0
    6.4278  -12.9243   25.6729 C   0  0  0  0  0  0  0  0  0  0  0  0
    7.3436  -13.7871   26.4704 C   0  0  2  0  0  0  0  0  0  0  0  0
    8.5190  -13.0164   27.0426 C   0  0  0  0  0  0  0  0  0  0  0  0
    7.7582  -15.0818   25.8262 C   0  0  2  0  0  0  0  0  0  0  0  0
    6.6501  -15.8057   25.2674 N   0  0  0  0  0  0  0  0  0  0  0  0
    8.6121  -15.8893   26.6944 C   0  0  0  0  0  0  0  0  0  0  0  0
    8.1388  -16.5109   27.6710 O   0  0  0  0  0  0  0  0  0  0  0  0
    9.9965  -15.9904   26.4539 N   0  0  0  0  0  0  0  0  0  0  0  0
   10.8318  -16.8366   27.2878 C   0  0  1  0  0  0  0  0  0  0  0  0
   12.0520  -17.2520   26.4502 C   0  0  0  0  0  0  0  0  0  0  0  0
   11.4017  -18.0234   24.9459 S   0  0  0  0  0  0  0  0  0  0  0  0
   11.2376  -16.1911   28.5316 C   0  0  0  0  0  0  0  0  0  0  0  0
   11.9706  -16.8863   29.4679 O   0  0  0  0  0  0  0  0  0  0  0  0
   10.9276  -15.0054   28.7635 O   0  0  0  0  0  0  0  0  0  0  0  0
  2  1  1  0
  3  2  1  0
  4  3  2  0
  5  6  1  0
  7  6  1  0
  7  8  1  6
  9 10  1  1
  9  7  1  0
 10  3  1  0
 11  9  1  0
 12 11  2  0
 13 11  1  0
 14 15  1  6
 14 13  1  0
 16 15  1  0
 17 18  1  0
 17 14  1  0
 19 17  2  0
M  END
$$$$
