GIC.pdb
     RDKit          3D

 19 18  0  0  1  0  0  0  0  0999 V2000
    5.2078  -18.2359   22.4211 N   0  0  0  0  0  0  0  0  0  0  0  0
    5.2243  -17.6619   23.7652 C   0  0  0  0  0  0  0  0  0  0  0  0
    6.3410  -16.6884   23.8646 C   0  0  0  0  0  0  0  0  0  0  0  0
    7.2319  -16.6981   22.9944 O   0  0  0  0  0  0  0  0  0  0  0  0
    5.7801  -11.8400   26.6282 C   0  0  0  0  0  0  0  0  0  0  0  0
    6.1761  -12.9348   25.6741 C   0  0  0  0  0  0  0  0  0  0  0  0
    7.2793  -13.8164   26.1481 C   0  0  2  0  0  0  0  0  0  0  0  0
    8.5223  -13.0368   26.5360 C   0  0  0  0  0  0  0  0  0  0  0  0
    7.5892  -15.0083   25.2841 C   0  0  2  0  0  0  0  0  0  0  0  0
    6.4156  -15.7536   24.9216 N   0  0  0  0  0  0  0  0  0  0  0  0
    8.6641  -15.8318   25.8332 C   0  0  0  0  0  0  0  0  0  0  0  0
    8.4448  -16.6572   26.7469 O   0  0  0  0  0  0  0  0  0  0  0  0
    9.9812  -15.7184   25.3462 N   0  0  0  0  0  0  0  0  0  0  0  0
   10.7796  -16.9045   25.0909 C   0  0  1  0  0  0  0  0  0  0  0  0
   10.0589  -17.7233   24.0078 C   0  0  0  0  0  0  0  0  0  0  0  0
   11.0167  -19.2459   23.7951 S   0  0  0  0  0  0  0  0  0  0  0  0
   12.1506  -16.5969   24.6984 C   0  0  0  0  0  0  0  0  0  0  0  0
   12.4077  -15.5644   23.8238 O   0  0  0  0  0  0  0  0  0  0  0  0
   13.1053  -17.2622   25.1477 O   0  0  0  0  0  0  0  0  0  0  0  0
  2  1  1  0
  3  2  1  0
  4  3  2  0
  5  6  1  0
  7  6  1  0
  7  8  1  6
  9 10  1  1
  9  7  1  0
 10  3  1  0
 11  9  1  0
 12 11  2  0
 13 11  1  0
 14 15  1  6
 14 13  1  0
 16 15  1  0
 17 18  1  0
 17 14  1  0
 19 17  2  0
M  END
$$$$
