GIC.pdb
     RDKit          3D

 19 18  0  0  1  0  0  0  0  0999 V2000
    7.0013  -15.0522   19.7079 N   0  0  0  0  0  0  0  0  0  0  0  0
    6.4014  -15.2503   21.0258 C   0  0  0  0  0  0  0  0  0  0  0  0
    7.3756  -14.8435   22.0699 C   0  0  0  0  0  0  0  0  0  0  0  0
    8.5942  -14.9342   21.8290 O   0  0  0  0  0  0  0  0  0  0  0  0
    7.5471  -11.6348   27.4403 C   0  0  0  0  0  0  0  0  0  0  0  0
    8.1411  -12.6531   26.5042 C   0  0  0  0  0  0  0  0  0  0  0  0
    7.2240  -13.1382   25.4353 C   0  0  2  0  0  0  0  0  0  0  0  0
    5.8858  -13.6008   25.9815 C   0  0  0  0  0  0  0  0  0  0  0  0
    7.8145  -14.1094   24.4498 C   0  0  2  0  0  0  0  0  0  0  0  0
    6.9526  -14.3569   23.3272 N   0  0  0  0  0  0  0  0  0  0  0  0
    8.3097  -15.3250   25.0920 C   0  0  0  0  0  0  0  0  0  0  0  0
    7.5225  -16.1976   25.5199 O   0  0  0  0  0  0  0  0  0  0  0  0
    9.6920  -15.5480   25.2466 N   0  0  0  0  0  0  0  0  0  0  0  0
   10.1811  -16.7913   25.8160 C   0  0  1  0  0  0  0  0  0  0  0  0
   11.5557  -17.0779   25.1903 C   0  0  0  0  0  0  0  0  0  0  0  0
   12.1776  -18.5808   25.9875 S   0  0  0  0  0  0  0  0  0  0  0  0
   10.2575  -16.7618   27.2726 C   0  0  0  0  0  0  0  0  0  0  0  0
    9.9306  -17.8795   28.0080 O   0  0  0  0  0  0  0  0  0  0  0  0
   10.6186  -15.7280   27.8698 O   0  0  0  0  0  0  0  0  0  0  0  0
  2  1  1  0
  3  2  1  0
  4  3  2  0
  5  6  1  0
  7  6  1  0
  7  8  1  1
  9 10  1  6
  9  7  1  0
 10  3  1  0
 11  9  1  0
 12 11  2  0
 13 11  1  0
 14 15  1  6
 14 13  1  0
 16 15  1  0
 17 18  1  0
 17 14  1  0
 19 17  2  0
M  END
$$$$
