GIC.pdb
     RDKit          3D

 19 18  0  0  1  0  0  0  0  0999 V2000
    8.4364  -20.2769   19.5478 N   0  0  0  0  0  0  0  0  0  0  0  0
    7.7290  -19.2810   20.3504 C   0  0  0  0  0  0  0  0  0  0  0  0
    8.5310  -18.0321   20.3933 C   0  0  0  0  0  0  0  0  0  0  0  0
    9.7739  -18.1111   20.4091 O   0  0  0  0  0  0  0  0  0  0  0  0
    7.6364  -11.8310   19.8381 C   0  0  0  0  0  0  0  0  0  0  0  0
    8.5025  -13.0288   20.1228 C   0  0  0  0  0  0  0  0  0  0  0  0
    7.7702  -14.3188   20.2589 C   0  0  2  0  0  0  0  0  0  0  0  0
    6.5204  -14.1922   21.1103 C   0  0  0  0  0  0  0  0  0  0  0  0
    8.6042  -15.5152   20.6283 C   0  0  2  0  0  0  0  0  0  0  0  0
    7.9177  -16.7594   20.4164 N   0  0  0  0  0  0  0  0  0  0  0  0
    9.2023  -15.3907   21.9556 C   0  0  0  0  0  0  0  0  0  0  0  0
   10.0420  -14.4983   22.2060 O   0  0  0  0  0  0  0  0  0  0  0  0
    8.8477  -16.2752   22.9932 N   0  0  0  0  0  0  0  0  0  0  0  0
    9.3093  -16.0451   24.3508 C   0  0  1  0  0  0  0  0  0  0  0  0
    8.0834  -15.6699   25.1991 C   0  0  0  0  0  0  0  0  0  0  0  0
    7.9637  -13.8631   25.1547 S   0  0  0  0  0  0  0  0  0  0  0  0
   10.0150  -17.1899   24.9164 C   0  0  0  0  0  0  0  0  0  0  0  0
   10.5373  -17.1242   26.1891 O   0  0  0  0  0  0  0  0  0  0  0  0
   10.1545  -18.2399   24.2577 O   0  0  0  0  0  0  0  0  0  0  0  0
  2  1  1  0
  3  2  1  0
  4  3  2  0
  5  6  1  0
  7  6  1  0
  7  8  1  1
  9 10  1  1
  9  7  1  0
 10  3  1  0
 11  9  1  0
 12 11  2  0
 13 11  1  0
 14 15  1  1
 14 13  1  0
 16 15  1  0
 17 18  1  0
 17 14  1  0
 19 17  2  0
M  END
$$$$
