GIC.pdb
     RDKit          3D

 19 18  0  0  1  0  0  0  0  0999 V2000
    4.9611  -18.9654   22.2695 N   0  0  0  0  0  0  0  0  0  0  0  0
    5.0214  -18.3242   23.5815 C   0  0  0  0  0  0  0  0  0  0  0  0
    6.1311  -17.3377   23.5902 C   0  0  0  0  0  0  0  0  0  0  0  0
    6.9750  -17.3678   22.6748 O   0  0  0  0  0  0  0  0  0  0  0  0
    7.8068  -11.9985   26.4070 C   0  0  0  0  0  0  0  0  0  0  0  0
    8.1631  -13.2593   25.6658 C   0  0  0  0  0  0  0  0  0  0  0  0
    7.0638  -14.2584   25.5556 C   0  0  2  0  0  0  0  0  0  0  0  0
    6.3728  -14.5132   26.8825 C   0  0  0  0  0  0  0  0  0  0  0  0
    7.3980  -15.5292   24.8231 C   0  0  2  0  0  0  0  0  0  0  0  0
    6.2509  -16.3679   24.6109 N   0  0  0  0  0  0  0  0  0  0  0  0
    8.5389  -16.2285   25.4100 C   0  0  0  0  0  0  0  0  0  0  0  0
    8.4243  -16.8738   26.4752 O   0  0  0  0  0  0  0  0  0  0  0  0
    9.8032  -16.1953   24.7895 N   0  0  0  0  0  0  0  0  0  0  0  0
   10.8296  -17.1570   25.1510 C   0  0  1  0  0  0  0  0  0  0  0  0
   11.7095  -17.3831   23.9109 C   0  0  0  0  0  0  0  0  0  0  0  0
   12.3059  -15.7503   23.4019 S   0  0  0  0  0  0  0  0  0  0  0  0
   11.6278  -16.7372   26.2978 C   0  0  0  0  0  0  0  0  0  0  0  0
   12.5494  -17.5962   26.8544 O   0  0  0  0  0  0  0  0  0  0  0  0
   11.4872  -15.5989   26.7881 O   0  0  0  0  0  0  0  0  0  0  0  0
  2  1  1  0
  3  2  1  0
  4  3  2  0
  5  6  1  0
  7  6  1  0
  7  8  1  1
  9 10  1  1
  9  7  1  0
 10  3  1  0
 11  9  1  0
 12 11  2  0
 13 11  1  0
 14 15  1  6
 14 13  1  0
 16 15  1  0
 17 18  1  0
 17 14  1  0
 19 17  2  0
M  END
$$$$
