SID.pdb
     RDKit          3D

 23 22  0  0  1  0  0  0  0  0999 V2000
    6.6435  -16.9641   21.9527 O   0  0  0  0  0  0  0  0  0  0  0  0
    7.1315  -16.3269   20.7970 C   0  0  0  0  0  0  0  0  0  0  0  0
    6.9573  -14.8185   21.0050 C   0  0  2  0  0  0  0  0  0  0  0  0
    7.5496  -14.1857   19.8416 N   0  0  0  0  0  0  0  0  0  0  0  0
    7.7169  -14.4862   22.2394 C   0  0  0  0  0  0  0  0  0  0  0  0
    8.9672  -14.3622   22.1206 O   0  0  0  0  0  0  0  0  0  0  0  0
    5.9274  -11.2405   26.2753 C   0  0  0  0  0  0  0  0  0  0  0  0
    6.8782  -11.9210   25.2742 C   0  0  0  0  0  0  0  0  0  0  0  0
    7.1680  -13.3143   25.7266 C   0  0  2  0  0  0  0  0  0  0  0  0
    7.9015  -13.1822   27.0582 C   0  0  0  0  0  0  0  0  0  0  0  0
    7.8692  -14.1894   24.7511 C   0  0  2  0  0  0  0  0  0  0  0  0
    7.1185  -14.3064   23.5120 N   0  0  0  0  0  0  0  0  0  0  0  0
    8.3144  -15.4939   25.2547 C   0  0  0  0  0  0  0  0  0  0  0  0
    7.4647  -16.3677   25.5502 O   0  0  0  0  0  0  0  0  0  0  0  0
    9.6867  -15.8551   25.4394 N   0  0  0  0  0  0  0  0  0  0  0  0
   10.0993  -17.1869   25.8042 C   0  0  1  0  0  0  0  0  0  0  0  0
   11.3274  -17.6378   25.0457 C   0  0  0  0  0  0  0  0  0  0  0  0
   11.7690  -18.9909   25.4624 C   0  0  0  0  0  0  0  0  0  0  0  0
   10.9117  -19.8587   25.7572 O   0  0  0  0  0  0  0  0  0  0  0  0
   10.4395  -17.2189   27.2362 C   0  0  0  0  0  0  0  0  0  0  0  0
   10.6012  -16.1643   27.8691 O   0  0  0  0  0  0  0  0  0  0  0  0
   13.1021  -19.3525   25.5443 O   0  0  0  0  0  0  0  0  0  0  0  0
   10.5768  -18.4302   27.8680 O   0  0  0  0  0  0  0  0  0  0  0  0
  2  1  1  0
  3  2  1  0
  3  4  1  6
  5  3  1  0
  5  6  2  0
  7  8  1  0
  8  9  1  0
  9 11  1  0
  9 10  1  1
 11 12  1  6
 11 13  1  0
 12  5  1  0
 13 15  1  0
 14 13  2  0
 15 16  1  0
 16 20  1  0
 17 18  1  0
 16 17  1  6
 18 22  1  0
 19 18  2  0
 20 21  2  0
 20 23  1  0
M  END
$$$$
