SID.pdb
     RDKit          3D

 23 22  0  0  1  0  0  0  0  0999 V2000
    5.9468  -20.3449   25.9452 O   0  0  0  0  0  0  0  0  0  0  0  0
    6.7248  -19.2654   25.4875 C   0  0  0  0  0  0  0  0  0  0  0  0
    5.7689  -18.2708   24.8196 C   0  0  2  0  0  0  0  0  0  0  0  0
    5.3318  -18.9043   23.5898 N   0  0  0  0  0  0  0  0  0  0  0  0
    6.5767  -17.0549   24.5371 C   0  0  0  0  0  0  0  0  0  0  0  0
    7.1692  -17.0129   23.4236 O   0  0  0  0  0  0  0  0  0  0  0  0
    5.6087  -12.1612   26.8340 C   0  0  0  0  0  0  0  0  0  0  0  0
    6.0767  -13.0954   25.7035 C   0  0  0  0  0  0  0  0  0  0  0  0
    7.3778  -13.7241   26.0798 C   0  0  2  0  0  0  0  0  0  0  0  0
    8.4252  -12.6187   25.9821 C   0  0  0  0  0  0  0  0  0  0  0  0
    7.7504  -14.9572   25.3384 C   0  0  2  0  0  0  0  0  0  0  0  0
    6.7099  -15.9672   25.4367 N   0  0  0  0  0  0  0  0  0  0  0  0
    9.0825  -15.5045   25.6201 C   0  0  0  0  0  0  0  0  0  0  0  0
    9.3443  -15.9407   26.7664 O   0  0  0  0  0  0  0  0  0  0  0  0
   10.1373  -15.5806   24.6560 N   0  0  0  0  0  0  0  0  0  0  0  0
   11.3280  -16.3655   24.8644 C   0  0  1  0  0  0  0  0  0  0  0  0
   11.0299  -17.8429   24.9886 C   0  0  0  0  0  0  0  0  0  0  0  0
   12.2666  -18.6448   25.1526 C   0  0  0  0  0  0  0  0  0  0  0  0
   13.3542  -18.0646   25.3885 O   0  0  0  0  0  0  0  0  0  0  0  0
   12.2300  -16.2017   23.7126 C   0  0  0  0  0  0  0  0  0  0  0  0
   11.7717  -16.0226   22.5739 O   0  0  0  0  0  0  0  0  0  0  0  0
   12.2835  -20.0251   25.0572 O   0  0  0  0  0  0  0  0  0  0  0  0
   13.5880  -16.2489   23.9097 O   0  0  0  0  0  0  0  0  0  0  0  0
  2  1  1  0
  3  2  1  0
  3  4  1  6
  5  3  1  0
  5  6  2  0
  7  8  1  0
  8  9  1  0
  9 11  1  0
  9 10  1  6
 11 12  1  1
 11 13  1  0
 12  5  1  0
 13 15  1  0
 14 13  2  0
 15 16  1  0
 16 20  1  0
 17 18  1  0
 16 17  1  6
 18 22  1  0
 19 18  2  0
 20 21  2  0
 20 23  1  0
M  END
$$$$
