SID.pdb
     RDKit          3D

 23 22  0  0  1  0  0  0  0  0999 V2000
    7.5562  -16.7807   21.0710 O   0  0  0  0  0  0  0  0  0  0  0  0
    6.4239  -15.9455   21.0834 C   0  0  0  0  0  0  0  0  0  0  0  0
    6.9282  -14.5024   21.1934 C   0  0  2  0  0  0  0  0  0  0  0  0
    7.7654  -14.2841   20.0289 N   0  0  0  0  0  0  0  0  0  0  0  0
    7.7277  -14.4436   22.4456 C   0  0  0  0  0  0  0  0  0  0  0  0
    8.9833  -14.4592   22.3189 O   0  0  0  0  0  0  0  0  0  0  0  0
    5.8071  -11.5226   26.5867 C   0  0  0  0  0  0  0  0  0  0  0  0
    6.8105  -12.0884   25.5655 C   0  0  0  0  0  0  0  0  0  0  0  0
    7.2390  -13.4548   25.9889 C   0  0  2  0  0  0  0  0  0  0  0  0
    8.0446  -13.2666   27.2712 C   0  0  0  0  0  0  0  0  0  0  0  0
    7.9427  -14.2696   24.9643 C   0  0  2  0  0  0  0  0  0  0  0  0
    7.1611  -14.3725   23.7433 N   0  0  0  0  0  0  0  0  0  0  0  0
    8.4495  -15.5729   25.4094 C   0  0  0  0  0  0  0  0  0  0  0  0
    7.6490  -16.5216   25.5883 O   0  0  0  0  0  0  0  0  0  0  0  0
    9.8303  -15.8513   25.6623 N   0  0  0  0  0  0  0  0  0  0  0  0
   10.2907  -17.1259   26.1529 C   0  0  1  0  0  0  0  0  0  0  0  0
   11.6555  -17.4919   25.6141 C   0  0  0  0  0  0  0  0  0  0  0  0
   11.6826  -17.4936   24.1313 C   0  0  0  0  0  0  0  0  0  0  0  0
   10.8373  -18.1708   23.4972 O   0  0  0  0  0  0  0  0  0  0  0  0
   10.4046  -17.0736   27.6196 C   0  0  0  0  0  0  0  0  0  0  0  0
   10.2681  -15.9991   28.2243 O   0  0  0  0  0  0  0  0  0  0  0  0
   12.6087  -16.7738   23.3974 O   0  0  0  0  0  0  0  0  0  0  0  0
   10.6641  -18.2283   28.3158 O   0  0  0  0  0  0  0  0  0  0  0  0
  2  1  1  0
  3  2  1  0
  3  4  1  6
  5  3  1  0
  5  6  2  0
  7  8  1  0
  8  9  1  0
  9 11  1  0
  9 10  1  1
 11 12  1  6
 11 13  1  0
 12  5  1  0
 13 15  1  0
 14 13  2  0
 15 16  1  0
 16 20  1  0
 17 18  1  0
 16 17  1  6
 18 22  1  0
 19 18  2  0
 20 21  2  0
 20 23  1  0
M  END
$$$$
