SID.pdb
     RDKit          3D

 23 22  0  0  1  0  0  0  0  0999 V2000
    8.8171  -19.7805   18.3423 O   0  0  0  0  0  0  0  0  0  0  0  0
    7.8240  -18.9529   17.7867 C   0  0  0  0  0  0  0  0  0  0  0  0
    8.5347  -17.7352   17.1858 C   0  0  2  0  0  0  0  0  0  0  0  0
    9.5937  -18.2663   16.3484 N   0  0  0  0  0  0  0  0  0  0  0  0
    9.0925  -16.9783   18.3377 C   0  0  0  0  0  0  0  0  0  0  0  0
   10.3472  -16.9929   18.4727 O   0  0  0  0  0  0  0  0  0  0  0  0
    6.4495  -12.4649   20.1931 C   0  0  0  0  0  0  0  0  0  0  0  0
    7.6241  -13.3427   19.7250 C   0  0  0  0  0  0  0  0  0  0  0  0
    7.9158  -14.3811   20.7577 C   0  0  2  0  0  0  0  0  0  0  0  0
    8.3670  -13.6235   22.0031 C   0  0  0  0  0  0  0  0  0  0  0  0
    8.8507  -15.4640   20.3548 C   0  0  2  0  0  0  0  0  0  0  0  0
    8.3016  -16.2587   19.2687 N   0  0  0  0  0  0  0  0  0  0  0  0
    9.3808  -16.2986   21.4391 C   0  0  0  0  0  0  0  0  0  0  0  0
    8.7126  -17.2759   21.8531 O   0  0  0  0  0  0  0  0  0  0  0  0
   10.6410  -16.0747   22.0791 N   0  0  0  0  0  0  0  0  0  0  0  0
   11.2020  -16.9934   23.0375 C   0  0  1  0  0  0  0  0  0  0  0  0
   12.7092  -16.8962   23.1150 C   0  0  0  0  0  0  0  0  0  0  0  0
   13.2687  -17.7950   24.1536 C   0  0  0  0  0  0  0  0  0  0  0  0
   13.9791  -18.7711   23.8106 O   0  0  0  0  0  0  0  0  0  0  0  0
   10.6791  -16.6822   24.3779 C   0  0  0  0  0  0  0  0  0  0  0  0
   10.5797  -17.5710   25.2375 O   0  0  0  0  0  0  0  0  0  0  0  0
   13.0436  -17.6095   25.5061 O   0  0  0  0  0  0  0  0  0  0  0  0
   10.3009  -15.3950   24.6702 O   0  0  0  0  0  0  0  0  0  0  0  0
  2  1  1  0
  3  2  1  0
  3  4  1  6
  5  3  1  0
  5  6  2  0
  7  8  1  0
  8  9  1  0
  9 11  1  0
  9 10  1  1
 11 12  1  6
 11 13  1  0
 12  5  1  0
 13 15  1  0
 14 13  2  0
 15 16  1  0
 16 20  1  0
 17 18  1  0
 16 17  1  1
 18 22  1  0
 19 18  2  0
 20 21  2  0
 20 23  1  0
M  END
$$$$
