SID.pdb
     RDKit          3D

 23 22  0  0  1  0  0  0  0  0999 V2000
    5.7521  -16.8650   20.7138 O   0  0  0  0  0  0  0  0  0  0  0  0
    7.1360  -16.6109   20.7008 C   0  0  0  0  0  0  0  0  0  0  0  0
    7.3159  -15.0888   20.7029 C   0  0  2  0  0  0  0  0  0  0  0  0
    8.1267  -14.7827   19.5395 N   0  0  0  0  0  0  0  0  0  0  0  0
    8.0408  -14.7651   21.9602 C   0  0  0  0  0  0  0  0  0  0  0  0
    9.2986  -14.8631   21.9317 O   0  0  0  0  0  0  0  0  0  0  0  0
    7.2618  -11.6625   27.2370 C   0  0  0  0  0  0  0  0  0  0  0  0
    8.1012  -12.7270   26.5077 C   0  0  0  0  0  0  0  0  0  0  0  0
    7.3845  -13.1721   25.2756 C   0  0  2  0  0  0  0  0  0  0  0  0
    6.0123  -13.6552   25.7361 C   0  0  0  0  0  0  0  0  0  0  0  0
    8.0988  -14.1541   24.4185 C   0  0  2  0  0  0  0  0  0  0  0  0
    7.4021  -14.3616   23.1600 N   0  0  0  0  0  0  0  0  0  0  0  0
    8.4749  -15.4196   25.0591 C   0  0  0  0  0  0  0  0  0  0  0  0
    7.6410  -16.3540   25.1238 O   0  0  0  0  0  0  0  0  0  0  0  0
    9.7607  -15.6757   25.6328 N   0  0  0  0  0  0  0  0  0  0  0  0
   10.1966  -16.9969   26.0091 C   0  0  1  0  0  0  0  0  0  0  0  0
   11.5499  -17.3439   25.4303 C   0  0  0  0  0  0  0  0  0  0  0  0
   12.0355  -18.6605   25.9101 C   0  0  0  0  0  0  0  0  0  0  0  0
   11.5171  -19.7123   25.4629 O   0  0  0  0  0  0  0  0  0  0  0  0
   10.3205  -17.0726   27.4741 C   0  0  0  0  0  0  0  0  0  0  0  0
   10.2371  -16.0472   28.1673 O   0  0  0  0  0  0  0  0  0  0  0  0
   13.0494  -18.7914   26.8425 O   0  0  0  0  0  0  0  0  0  0  0  0
   10.5299  -18.2921   28.0693 O   0  0  0  0  0  0  0  0  0  0  0  0
  2  1  1  0
  3  2  1  0
  3  4  1  6
  5  3  1  0
  5  6  2  0
  7  8  1  0
  8  9  1  0
  9 11  1  0
  9 10  1  1
 11 12  1  6
 11 13  1  0
 12  5  1  0
 13 15  1  0
 14 13  2  0
 15 16  1  0
 16 20  1  0
 17 18  1  0
 16 17  1  6
 18 22  1  0
 19 18  2  0
 20 21  2  0
 20 23  1  0
M  END
$$$$
