SID.pdb
     RDKit          3D

 23 22  0  0  1  0  0  0  0  0999 V2000
    6.7175  -17.5913   20.6601 O   0  0  0  0  0  0  0  0  0  0  0  0
    7.5941  -17.0710   21.6299 C   0  0  0  0  0  0  0  0  0  0  0  0
    7.4752  -15.5440   21.5737 C   0  0  2  0  0  0  0  0  0  0  0  0
    8.1668  -15.1357   20.3656 N   0  0  0  0  0  0  0  0  0  0  0  0
    8.1703  -15.0354   22.7858 C   0  0  0  0  0  0  0  0  0  0  0  0
    9.4196  -14.8785   22.7000 O   0  0  0  0  0  0  0  0  0  0  0  0
    5.7152  -11.6989   26.3288 C   0  0  0  0  0  0  0  0  0  0  0  0
    6.8759  -12.2611   25.4883 C   0  0  0  0  0  0  0  0  0  0  0  0
    7.3765  -13.5243   26.1076 C   0  0  2  0  0  0  0  0  0  0  0  0
    8.0782  -13.1127   27.3987 C   0  0  0  0  0  0  0  0  0  0  0  0
    8.2063  -14.3985   25.2379 C   0  0  2  0  0  0  0  0  0  0  0  0
    7.5130  -14.7260   24.0033 N   0  0  0  0  0  0  0  0  0  0  0  0
    8.7883  -15.5837   25.8780 C   0  0  0  0  0  0  0  0  0  0  0  0
    8.0387  -16.5146   26.2580 O   0  0  0  0  0  0  0  0  0  0  0  0
   10.1893  -15.7630   26.1081 N   0  0  0  0  0  0  0  0  0  0  0  0
   10.7283  -16.9283   26.7629 C   0  0  1  0  0  0  0  0  0  0  0  0
   12.1973  -17.1290   26.4648 C   0  0  0  0  0  0  0  0  0  0  0  0
   12.4203  -18.2355   25.5029 C   0  0  0  0  0  0  0  0  0  0  0  0
   13.1528  -19.2011   25.8285 O   0  0  0  0  0  0  0  0  0  0  0  0
   10.6002  -16.7735   28.2212 C   0  0  0  0  0  0  0  0  0  0  0  0
   10.2468  -15.6900   28.7112 O   0  0  0  0  0  0  0  0  0  0  0  0
   11.8519  -18.2585   24.2415 O   0  0  0  0  0  0  0  0  0  0  0  0
   10.8761  -17.8422   29.0379 O   0  0  0  0  0  0  0  0  0  0  0  0
  2  1  1  0
  3  2  1  0
  3  4  1  6
  5  3  1  0
  5  6  2  0
  7  8  1  0
  8  9  1  0
  9 11  1  0
  9 10  1  1
 11 12  1  6
 11 13  1  0
 12  5  1  0
 13 15  1  0
 14 13  2  0
 15 16  1  0
 16 20  1  0
 17 18  1  0
 16 17  1  1
 18 22  1  0
 19 18  2  0
 20 21  2  0
 20 23  1  0
M  END
$$$$
