SID.pdb
     RDKit          3D

 23 22  0  0  1  0  0  0  0  0999 V2000
    5.9139  -17.7507   23.4653 O   0  0  0  0  0  0  0  0  0  0  0  0
    6.2960  -17.4968   22.1351 C   0  0  0  0  0  0  0  0  0  0  0  0
    6.2542  -15.9778   21.9352 C   0  0  2  0  0  0  0  0  0  0  0  0
    6.6992  -15.7436   20.5744 N   0  0  0  0  0  0  0  0  0  0  0  0
    7.2154  -15.4101   22.9175 C   0  0  0  0  0  0  0  0  0  0  0  0
    8.4350  -15.4275   22.5936 O   0  0  0  0  0  0  0  0  0  0  0  0
    5.6130  -11.4069   26.4133 C   0  0  0  0  0  0  0  0  0  0  0  0
    6.4520  -12.1768   25.3775 C   0  0  0  0  0  0  0  0  0  0  0  0
    7.1185  -13.3390   26.0371 C   0  0  2  0  0  0  0  0  0  0  0  0
    8.0613  -12.7484   27.0815 C   0  0  0  0  0  0  0  0  0  0  0  0
    7.7775  -14.3180   25.1337 C   0  0  2  0  0  0  0  0  0  0  0  0
    6.8365  -14.8635   24.1696 N   0  0  0  0  0  0  0  0  0  0  0  0
    8.5743  -15.3648   25.7839 C   0  0  0  0  0  0  0  0  0  0  0  0
    8.0702  -16.0421   26.7113 O   0  0  0  0  0  0  0  0  0  0  0  0
    9.9240  -15.6808   25.4287 N   0  0  0  0  0  0  0  0  0  0  0  0
   10.5848  -16.8829   25.8709 C   0  0  1  0  0  0  0  0  0  0  0  0
    9.8643  -18.1347   25.4229 C   0  0  0  0  0  0  0  0  0  0  0  0
   10.6059  -19.3634   25.7964 C   0  0  0  0  0  0  0  0  0  0  0  0
   11.1127  -19.4572   26.9407 O   0  0  0  0  0  0  0  0  0  0  0  0
   11.9399  -16.9355   25.2981 C   0  0  0  0  0  0  0  0  0  0  0  0
   12.2858  -16.1274   24.4228 O   0  0  0  0  0  0  0  0  0  0  0  0
   10.7711  -20.4314   24.9323 O   0  0  0  0  0  0  0  0  0  0  0  0
   12.8214  -17.8900   25.7422 O   0  0  0  0  0  0  0  0  0  0  0  0
  2  1  1  0
  3  2  1  0
  3  4  1  6
  5  3  1  0
  5  6  2  0
  7  8  1  0
  8  9  1  0
  9 11  1  0
  9 10  1  1
 11 12  1  1
 11 13  1  0
 12  5  1  0
 13 15  1  0
 14 13  2  0
 15 16  1  0
 16 20  1  0
 17 18  1  0
 16 17  1  6
 18 22  1  0
 19 18  2  0
 20 21  2  0
 20 23  1  0
M  END
$$$$
