SID.pdb
     RDKit          3D

 23 22  0  0  1  0  0  0  0  0999 V2000
    6.8844  -17.2587   21.6867 O   0  0  0  0  0  0  0  0  0  0  0  0
    7.5212  -16.6741   20.5765 C   0  0  0  0  0  0  0  0  0  0  0  0
    7.3991  -15.1544   20.7340 C   0  0  2  0  0  0  0  0  0  0  0  0
    8.0801  -14.5801   19.5890 N   0  0  0  0  0  0  0  0  0  0  0  0
    8.1032  -14.8172   21.9996 C   0  0  0  0  0  0  0  0  0  0  0  0
    9.3625  -14.7521   21.9487 O   0  0  0  0  0  0  0  0  0  0  0  0
    7.2987  -11.6809   27.1769 C   0  0  0  0  0  0  0  0  0  0  0  0
    8.1011  -12.8270   26.5349 C   0  0  0  0  0  0  0  0  0  0  0  0
    7.4278  -13.2659   25.2764 C   0  0  2  0  0  0  0  0  0  0  0  0
    6.0106  -13.6686   25.6737 C   0  0  0  0  0  0  0  0  0  0  0  0
    8.1347  -14.3032   24.4804 C   0  0  2  0  0  0  0  0  0  0  0  0
    7.4436  -14.5714   23.2303 N   0  0  0  0  0  0  0  0  0  0  0  0
    8.4899  -15.5358   25.1930 C   0  0  0  0  0  0  0  0  0  0  0  0
    7.6190  -16.4196   25.3758 O   0  0  0  0  0  0  0  0  0  0  0  0
    9.7947  -15.8141   25.7105 N   0  0  0  0  0  0  0  0  0  0  0  0
   10.1456  -17.0827   26.2976 C   0  0  1  0  0  0  0  0  0  0  0  0
   11.5862  -17.4604   26.0351 C   0  0  0  0  0  0  0  0  0  0  0  0
   11.9008  -17.4678   24.5859 C   0  0  0  0  0  0  0  0  0  0  0  0
   11.1484  -18.0832   23.7919 O   0  0  0  0  0  0  0  0  0  0  0  0
    9.9770  -17.0094   27.7582 C   0  0  0  0  0  0  0  0  0  0  0  0
    9.7078  -15.9305   28.3081 O   0  0  0  0  0  0  0  0  0  0  0  0
   13.0013  -16.8193   24.0541 O   0  0  0  0  0  0  0  0  0  0  0  0
   10.1208  -18.1493   28.5100 O   0  0  0  0  0  0  0  0  0  0  0  0
  2  1  1  0
  3  2  1  0
  3  4  1  6
  5  3  1  0
  5  6  2  0
  7  8  1  0
  8  9  1  0
  9 11  1  0
  9 10  1  1
 11 12  1  6
 11 13  1  0
 12  5  1  0
 13 15  1  0
 14 13  2  0
 15 16  1  0
 16 20  1  0
 17 18  1  0
 16 17  1  1
 18 22  1  0
 19 18  2  0
 20 21  2  0
 20 23  1  0
M  END
$$$$
