SID.pdb
     RDKit          3D

 23 22  0  0  1  0  0  0  0  0999 V2000
    7.2157  -14.7896   18.9687 O   0  0  0  0  0  0  0  0  0  0  0  0
    7.7935  -14.3878   20.1872 C   0  0  0  0  0  0  0  0  0  0  0  0
    7.5541  -15.5174   21.1950 C   0  0  2  0  0  0  0  0  0  0  0  0
    6.1162  -15.5940   21.3721 N   0  0  0  0  0  0  0  0  0  0  0  0
    8.2259  -15.0926   22.4517 C   0  0  0  0  0  0  0  0  0  0  0  0
    9.4530  -14.8088   22.3715 O   0  0  0  0  0  0  0  0  0  0  0  0
    5.7132  -11.9107   25.9379 C   0  0  0  0  0  0  0  0  0  0  0  0
    6.8479  -12.5154   25.0915 C   0  0  0  0  0  0  0  0  0  0  0  0
    7.3849  -13.7324   25.7701 C   0  0  2  0  0  0  0  0  0  0  0  0
    8.0766  -13.2388   27.0376 C   0  0  0  0  0  0  0  0  0  0  0  0
    8.2377  -14.6243   24.9417 C   0  0  2  0  0  0  0  0  0  0  0  0
    7.5701  -14.9936   23.7047 N   0  0  0  0  0  0  0  0  0  0  0  0
    8.8174  -15.7854   25.6267 C   0  0  0  0  0  0  0  0  0  0  0  0
    8.0682  -16.7102   26.0220 O   0  0  0  0  0  0  0  0  0  0  0  0
   10.2156  -15.9469   25.8854 N   0  0  0  0  0  0  0  0  0  0  0  0
   10.7763  -17.1710   26.3994 C   0  0  1  0  0  0  0  0  0  0  0  0
   12.2256  -17.3505   26.0067 C   0  0  0  0  0  0  0  0  0  0  0  0
   12.4709  -18.6758   25.3879 C   0  0  0  0  0  0  0  0  0  0  0  0
   11.6173  -19.5868   25.5163 O   0  0  0  0  0  0  0  0  0  0  0  0
   10.7261  -17.1524   27.8706 C   0  0  0  0  0  0  0  0  0  0  0  0
   10.8169  -18.2069   28.5176 O   0  0  0  0  0  0  0  0  0  0  0  0
   13.6135  -18.9650   24.6630 O   0  0  0  0  0  0  0  0  0  0  0  0
   10.5773  -15.9536   28.5234 O   0  0  0  0  0  0  0  0  0  0  0  0
  2  1  1  0
  3  2  1  0
  3  4  1  1
  5  3  1  0
  5  6  2  0
  7  8  1  0
  8  9  1  0
  9 11  1  0
  9 10  1  1
 11 12  1  6
 11 13  1  0
 12  5  1  0
 13 15  1  0
 14 13  2  0
 15 16  1  0
 16 20  1  0
 17 18  1  0
 16 17  1  1
 18 22  1  0
 19 18  2  0
 20 21  2  0
 20 23  1  0
M  END
$$$$
