SID.pdb
     RDKit          3D

 23 22  0  0  1  0  0  0  0  0999 V2000
    7.1401  -16.9673   19.8428 O   0  0  0  0  0  0  0  0  0  0  0  0
    6.7833  -16.5149   21.1265 C   0  0  0  0  0  0  0  0  0  0  0  0
    6.9580  -14.9923   21.1337 C   0  0  2  0  0  0  0  0  0  0  0  0
    7.6735  -14.6685   19.9139 N   0  0  0  0  0  0  0  0  0  0  0  0
    7.7787  -14.6810   22.3339 C   0  0  0  0  0  0  0  0  0  0  0  0
    9.0165  -14.5184   22.1487 O   0  0  0  0  0  0  0  0  0  0  0  0
    5.9677  -11.5576   26.3761 C   0  0  0  0  0  0  0  0  0  0  0  0
    6.9039  -12.1920   25.3318 C   0  0  0  0  0  0  0  0  0  0  0  0
    7.3866  -13.5145   25.8297 C   0  0  2  0  0  0  0  0  0  0  0  0
    8.2421  -13.2169   27.0578 C   0  0  0  0  0  0  0  0  0  0  0  0
    8.0663  -14.3833   24.8336 C   0  0  2  0  0  0  0  0  0  0  0  0
    7.2504  -14.5611   23.6440 N   0  0  0  0  0  0  0  0  0  0  0  0
    8.5952  -15.6558   25.3382 C   0  0  0  0  0  0  0  0  0  0  0  0
    7.8022  -16.5641   25.6829 O   0  0  0  0  0  0  0  0  0  0  0  0
    9.9900  -15.9471   25.4703 N   0  0  0  0  0  0  0  0  0  0  0  0
   10.4793  -17.2243   25.9249 C   0  0  1  0  0  0  0  0  0  0  0  0
   11.9630  -17.3916   25.6850 C   0  0  0  0  0  0  0  0  0  0  0  0
   12.2908  -17.4098   24.2388 C   0  0  0  0  0  0  0  0  0  0  0  0
   13.4811  -17.2562   23.8715 O   0  0  0  0  0  0  0  0  0  0  0  0
   10.2596  -17.3444   27.3756 C   0  0  0  0  0  0  0  0  0  0  0  0
   10.0372  -18.4512   27.8897 O   0  0  0  0  0  0  0  0  0  0  0  0
   11.3344  -17.5906   23.2553 O   0  0  0  0  0  0  0  0  0  0  0  0
   10.3031  -16.2169   28.1581 O   0  0  0  0  0  0  0  0  0  0  0  0
  2  1  1  0
  3  2  1  0
  3  4  1  6
  5  3  1  0
  5  6  2  0
  7  8  1  0
  8  9  1  0
  9 11  1  0
  9 10  1  1
 11 12  1  6
 11 13  1  0
 12  5  1  0
 13 15  1  0
 14 13  2  0
 15 16  1  0
 16 20  1  0
 17 18  1  0
 16 17  1  1
 18 22  1  0
 19 18  2  0
 20 21  2  0
 20 23  1  0
M  END
$$$$
