SID.pdb
     RDKit          3D

 23 22  0  0  1  0  0  0  0  0999 V2000
    5.7326  -17.1815   20.2201 O   0  0  0  0  0  0  0  0  0  0  0  0
    6.6480  -16.7497   21.1975 C   0  0  0  0  0  0  0  0  0  0  0  0
    6.5415  -15.2226   21.2731 C   0  0  2  0  0  0  0  0  0  0  0  0
    7.0516  -14.7256   20.0092 N   0  0  0  0  0  0  0  0  0  0  0  0
    7.4149  -14.8077   22.4027 C   0  0  0  0  0  0  0  0  0  0  0  0
    8.6317  -14.6065   22.1353 O   0  0  0  0  0  0  0  0  0  0  0  0
    5.7890  -11.5432   26.4640 C   0  0  0  0  0  0  0  0  0  0  0  0
    6.6506  -12.2040   25.3729 C   0  0  0  0  0  0  0  0  0  0  0  0
    7.1784  -13.5082   25.8731 C   0  0  2  0  0  0  0  0  0  0  0  0
    8.0768  -13.1732   27.0602 C   0  0  0  0  0  0  0  0  0  0  0  0
    7.8339  -14.3818   24.8650 C   0  0  2  0  0  0  0  0  0  0  0  0
    6.9572  -14.6317   23.7330 N   0  0  0  0  0  0  0  0  0  0  0  0
    8.4447  -15.6145   25.3757 C   0  0  0  0  0  0  0  0  0  0  0  0
    7.7120  -16.5528   25.7700 O   0  0  0  0  0  0  0  0  0  0  0  0
    9.8564  -15.8334   25.4601 N   0  0  0  0  0  0  0  0  0  0  0  0
   10.4261  -17.0638   25.9487 C   0  0  1  0  0  0  0  0  0  0  0  0
   11.8670  -17.2400   25.5248 C   0  0  0  0  0  0  0  0  0  0  0  0
   11.9969  -17.3876   24.0548 C   0  0  0  0  0  0  0  0  0  0  0  0
   11.0899  -17.9654   23.4078 O   0  0  0  0  0  0  0  0  0  0  0  0
   10.4056  -17.0619   27.4207 C   0  0  0  0  0  0  0  0  0  0  0  0
   10.1276  -16.0270   28.0457 O   0  0  0  0  0  0  0  0  0  0  0  0
   13.0866  -16.9122   23.3469 O   0  0  0  0  0  0  0  0  0  0  0  0
   10.6977  -18.2195   28.0990 O   0  0  0  0  0  0  0  0  0  0  0  0
  2  1  1  0
  3  2  1  0
  3  4  1  6
  5  3  1  0
  5  6  2  0
  7  8  1  0
  8  9  1  0
  9 11  1  0
  9 10  1  1
 11 12  1  6
 11 13  1  0
 12  5  1  0
 13 15  1  0
 14 13  2  0
 15 16  1  0
 16 20  1  0
 17 18  1  0
 16 17  1  1
 18 22  1  0
 19 18  2  0
 20 21  2  0
 20 23  1  0
M  END
$$$$
