SID.pdb
     RDKit          3D

 23 22  0  0  1  0  0  0  0  0999 V2000
    6.8239  -19.8532   17.1226 O   0  0  0  0  0  0  0  0  0  0  0  0
    7.9001  -19.2193   17.7704 C   0  0  0  0  0  0  0  0  0  0  0  0
    8.0732  -17.8434   17.1178 C   0  0  2  0  0  0  0  0  0  0  0  0
    8.9218  -18.0563   15.9605 N   0  0  0  0  0  0  0  0  0  0  0  0
    8.7534  -16.9936   18.1308 C   0  0  0  0  0  0  0  0  0  0  0  0
   10.0151  -17.0188   18.1380 O   0  0  0  0  0  0  0  0  0  0  0  0
    6.6237  -12.2405   20.0574 C   0  0  0  0  0  0  0  0  0  0  0  0
    7.6678  -13.2449   19.5372 C   0  0  0  0  0  0  0  0  0  0  0  0
    7.9252  -14.2839   20.5784 C   0  0  2  0  0  0  0  0  0  0  0  0
    8.5269  -13.5466   21.7713 C   0  0  0  0  0  0  0  0  0  0  0  0
    8.7239  -15.4612   20.1484 C   0  0  2  0  0  0  0  0  0  0  0  0
    8.0692  -16.1766   19.0659 N   0  0  0  0  0  0  0  0  0  0  0  0
    9.1750  -16.3623   21.2151 C   0  0  0  0  0  0  0  0  0  0  0  0
    8.3462  -17.1086   21.7886 O   0  0  0  0  0  0  0  0  0  0  0  0
   10.5306  -16.4566   21.6639 N   0  0  0  0  0  0  0  0  0  0  0  0
   10.9662  -17.4373   22.6260 C   0  0  1  0  0  0  0  0  0  0  0  0
   12.0812  -18.3100   22.0949 C   0  0  0  0  0  0  0  0  0  0  0  0
   12.5502  -19.2859   23.1083 C   0  0  0  0  0  0  0  0  0  0  0  0
   11.7461  -19.7205   23.9683 O   0  0  0  0  0  0  0  0  0  0  0  0
   11.4849  -16.7530   23.8218 C   0  0  0  0  0  0  0  0  0  0  0  0
   11.9652  -15.6124   23.7365 O   0  0  0  0  0  0  0  0  0  0  0  0
   13.8526  -19.7507   23.1553 O   0  0  0  0  0  0  0  0  0  0  0  0
   11.4325  -17.3899   25.0371 O   0  0  0  0  0  0  0  0  0  0  0  0
  2  1  1  0
  3  2  1  0
  3  4  1  6
  5  3  1  0
  5  6  2  0
  7  8  1  0
  8  9  1  0
  9 11  1  0
  9 10  1  1
 11 12  1  6
 11 13  1  0
 12  5  1  0
 13 15  1  0
 14 13  2  0
 15 16  1  0
 16 20  1  0
 17 18  1  0
 16 17  1  6
 18 22  1  0
 19 18  2  0
 20 21  2  0
 20 23  1  0
M  END
$$$$
