SID.pdb
     RDKit          3D

 23 22  0  0  1  0  0  0  0  0999 V2000
    5.8115  -17.0128   21.2320 O   0  0  0  0  0  0  0  0  0  0  0  0
    7.1132  -16.5084   21.0566 C   0  0  0  0  0  0  0  0  0  0  0  0
    7.0486  -14.9966   21.3000 C   0  0  2  0  0  0  0  0  0  0  0  0
    7.6662  -14.3805   20.1408 N   0  0  0  0  0  0  0  0  0  0  0  0
    7.8481  -14.7462   22.5284 C   0  0  0  0  0  0  0  0  0  0  0  0
    9.1011  -14.6897   22.3886 O   0  0  0  0  0  0  0  0  0  0  0  0
    6.1426  -11.4054   26.4158 C   0  0  0  0  0  0  0  0  0  0  0  0
    7.0705  -12.1374   25.4295 C   0  0  0  0  0  0  0  0  0  0  0  0
    7.4277  -13.4789   25.9797 C   0  0  2  0  0  0  0  0  0  0  0  0
    8.2620  -13.2144   27.2297 C   0  0  0  0  0  0  0  0  0  0  0  0
    8.0687  -14.4281   25.0324 C   0  0  2  0  0  0  0  0  0  0  0  0
    7.2841  -14.5722   23.8174 N   0  0  0  0  0  0  0  0  0  0  0  0
    8.4722  -15.7246   25.5887 C   0  0  0  0  0  0  0  0  0  0  0  0
    7.5950  -16.5430   25.9543 O   0  0  0  0  0  0  0  0  0  0  0  0
    9.8327  -16.1383   25.7501 N   0  0  0  0  0  0  0  0  0  0  0  0
   10.1969  -17.4400   26.2502 C   0  0  1  0  0  0  0  0  0  0  0  0
   11.5462  -17.8958   25.7418 C   0  0  0  0  0  0  0  0  0  0  0  0
   11.6221  -17.8547   24.2612 C   0  0  0  0  0  0  0  0  0  0  0  0
   10.7383  -18.4286   23.5796 O   0  0  0  0  0  0  0  0  0  0  0  0
   10.2814  -17.3939   27.7192 C   0  0  0  0  0  0  0  0  0  0  0  0
   10.2555  -16.3078   28.3180 O   0  0  0  0  0  0  0  0  0  0  0  0
   12.6357  -17.2042   23.5801 O   0  0  0  0  0  0  0  0  0  0  0  0
   10.3893  -18.5674   28.4239 O   0  0  0  0  0  0  0  0  0  0  0  0
  2  1  1  0
  3  2  1  0
  3  4  1  6
  5  3  1  0
  5  6  2  0
  7  8  1  0
  8  9  1  0
  9 11  1  0
  9 10  1  1
 11 12  1  6
 11 13  1  0
 12  5  1  0
 13 15  1  0
 14 13  2  0
 15 16  1  0
 16 20  1  0
 17 18  1  0
 16 17  1  6
 18 22  1  0
 19 18  2  0
 20 21  2  0
 20 23  1  0
M  END
$$$$
