SID.pdb
     RDKit          3D

 23 22  0  0  1  0  0  0  0  0999 V2000
    6.2390  -16.9642   20.1483 O   0  0  0  0  0  0  0  0  0  0  0  0
    7.1168  -16.5456   21.1652 C   0  0  0  0  0  0  0  0  0  0  0  0
    6.9620  -15.0266   21.2986 C   0  0  2  0  0  0  0  0  0  0  0  0
    7.5398  -14.4608   20.0942 N   0  0  0  0  0  0  0  0  0  0  0  0
    7.7470  -14.6402   22.5009 C   0  0  0  0  0  0  0  0  0  0  0  0
    8.9830  -14.4476   22.3342 O   0  0  0  0  0  0  0  0  0  0  0  0
    5.7824  -11.5468   26.5305 C   0  0  0  0  0  0  0  0  0  0  0  0
    6.7770  -12.1360   25.5140 C   0  0  0  0  0  0  0  0  0  0  0  0
    7.2579  -13.4648   25.9965 C   0  0  2  0  0  0  0  0  0  0  0  0
    8.0738  -13.1871   27.2558 C   0  0  0  0  0  0  0  0  0  0  0  0
    7.9753  -14.3047   25.0020 C   0  0  2  0  0  0  0  0  0  0  0  0
    7.1871  -14.4817   23.7937 N   0  0  0  0  0  0  0  0  0  0  0  0
    8.5207  -15.5732   25.4988 C   0  0  0  0  0  0  0  0  0  0  0  0
    7.7419  -16.5141   25.7836 O   0  0  0  0  0  0  0  0  0  0  0  0
    9.9165  -15.8253   25.6884 N   0  0  0  0  0  0  0  0  0  0  0  0
   10.4195  -17.0733   26.2046 C   0  0  1  0  0  0  0  0  0  0  0  0
   11.8341  -17.3564   25.7506 C   0  0  0  0  0  0  0  0  0  0  0  0
   11.9546  -17.3386   24.2726 C   0  0  0  0  0  0  0  0  0  0  0  0
   11.2283  -18.0947   23.5828 O   0  0  0  0  0  0  0  0  0  0  0  0
   10.4396  -17.0220   27.6756 C   0  0  0  0  0  0  0  0  0  0  0  0
   10.6523  -18.0484   28.3391 O   0  0  0  0  0  0  0  0  0  0  0  0
   12.8430  -16.5161   23.6026 O   0  0  0  0  0  0  0  0  0  0  0  0
   10.2202  -15.8242   28.3100 O   0  0  0  0  0  0  0  0  0  0  0  0
  2  1  1  0
  3  2  1  0
  3  4  1  6
  5  3  1  0
  5  6  2  0
  7  8  1  0
  8  9  1  0
  9 11  1  0
  9 10  1  1
 11 12  1  6
 11 13  1  0
 12  5  1  0
 13 15  1  0
 14 13  2  0
 15 16  1  0
 16 20  1  0
 17 18  1  0
 16 17  1  6
 18 22  1  0
 19 18  2  0
 20 21  2  0
 20 23  1  0
M  END
$$$$
