PMH.pdb
     RDKit          3D

 26 27  0  0  1  0  0  0  0  0999 V2000
    7.1616  -15.1758   20.2181 N   0  0  0  0  0  0  0  0  0  0  0  0
    6.7332  -14.7308   18.8919 C   0  0  0  0  0  0  0  0  0  0  0  0
    7.2576  -13.3324   18.8174 C   0  0  0  0  0  0  0  0  0  0  0  0
    8.3992  -13.2240   19.8040 C   0  0  0  0  0  0  0  0  0  0  0  0
    8.4979  -14.6350   20.3363 C   0  0  1  0  0  0  0  0  0  0  0  0
    8.8892  -14.6380   21.7834 C   0  0  0  0  0  0  0  0  0  0  0  0
   10.0900  -14.4649   22.0526 O   0  0  0  0  0  0  0  0  0  0  0  0
    7.8371  -11.3805   27.7452 C   0  0  0  0  0  0  0  0  0  0  0  0
    6.5764  -12.2982   26.8294 S   0  0  0  0  0  0  0  0  0  0  0  0
    7.1930  -13.9839   26.4463 C   0  0  0  0  0  0  0  0  0  0  0  0
    6.9436  -14.2047   24.9903 C   0  0  0  0  0  0  0  0  0  0  0  0
    8.1670  -14.6957   24.2254 C   0  0  2  0  0  0  0  0  0  0  0  0
    7.9382  -14.8295   22.8101 N   0  0  0  0  0  0  0  0  0  0  0  0
    8.5654  -15.9784   24.8276 C   0  0  0  0  0  0  0  0  0  0  0  0
    7.7751  -16.9680   24.7901 O   0  0  0  0  0  0  0  0  0  0  0  0
    9.8215  -16.1423   25.4559 N   0  0  0  0  0  0  0  0  0  0  0  0
   10.2209  -17.4435   25.9936 C   0  0  1  0  0  0  0  0  0  0  0  0
   11.6385  -17.7633   25.6362 C   0  0  0  0  0  0  0  0  0  0  0  0
   11.8213  -17.7126   24.1727 C   0  0  0  0  0  0  0  0  0  0  0  0
   11.0243  -18.1896   23.1475 C   0  0  0  0  0  0  0  0  0  0  0  0
   11.5794  -17.9486   21.9694 N   0  0  0  0  0  0  0  0  0  0  0  0
   12.7401  -17.3151   22.1981 C   0  0  0  0  0  0  0  0  0  0  0  0
   12.8976  -17.1667   23.5237 N   0  0  0  0  0  0  0  0  0  0  0  0
    9.9701  -17.5138   27.4410 C   0  0  0  0  0  0  0  0  0  0  0  0
    9.5035  -16.5793   28.1321 O   0  0  0  0  0  0  0  0  0  0  0  0
   10.2733  -18.7177   28.1126 O   0  0  0  0  0  0  0  0  0  0  0  0
  1  2  1  0
  3  2  1  0
  4  5  1  0
  4  3  1  0
  5  1  1  0
  5  6  1  1
  6  7  2  0
  9  8  1  0
 10  9  1  0
 12 11  1  1
 11 10  1  0
 12 14  1  0
 13  6  1  0
 13 12  1  0
 14 15  2  0
 16 17  1  0
 16 14  1  0
 17 24  1  0
 17 18  1  1
 19 18  1  0
 20 19  2  0
 21 20  1  0
 22 21  1  0
 22 23  2  0
 23 19  1  0
 24 25  2  0
 24 26  1  0
M  END
$$$$
