PMH.pdb
     RDKit          3D

 26 27  0  0  1  0  0  0  0  0999 V2000
    7.1145  -14.7244   20.3047 N   0  0  0  0  0  0  0  0  0  0  0  0
    6.7098  -14.1035   19.0433 C   0  0  0  0  0  0  0  0  0  0  0  0
    7.1891  -12.6946   19.1896 C   0  0  0  0  0  0  0  0  0  0  0  0
    8.2975  -12.6981   20.2190 C   0  0  0  0  0  0  0  0  0  0  0  0
    8.4280  -14.1682   20.5445 C   0  0  1  0  0  0  0  0  0  0  0  0
    8.7774  -14.3708   21.9880 C   0  0  0  0  0  0  0  0  0  0  0  0
    9.9538  -14.1595   22.3280 O   0  0  0  0  0  0  0  0  0  0  0  0
    6.2715  -11.0275   26.7604 C   0  0  0  0  0  0  0  0  0  0  0  0
    7.0600  -12.6312   26.4834 S   0  0  0  0  0  0  0  0  0  0  0  0
    6.1132  -13.5788   25.2287 C   0  0  0  0  0  0  0  0  0  0  0  0
    6.7391  -14.9331   25.1606 C   0  0  0  0  0  0  0  0  0  0  0  0
    8.0268  -14.9740   24.3462 C   0  0  2  0  0  0  0  0  0  0  0  0
    7.8145  -14.7858   22.9347 N   0  0  0  0  0  0  0  0  0  0  0  0
    8.6710  -16.2682   24.6236 C   0  0  0  0  0  0  0  0  0  0  0  0
    8.1225  -17.3436   24.2392 O   0  0  0  0  0  0  0  0  0  0  0  0
    9.9011  -16.3489   25.3161 N   0  0  0  0  0  0  0  0  0  0  0  0
   10.6474  -17.6069   25.3639 C   0  0  1  0  0  0  0  0  0  0  0  0
   11.9347  -17.5001   24.6082 C   0  0  0  0  0  0  0  0  0  0  0  0
   12.6409  -18.7960   24.6144 C   0  0  0  0  0  0  0  0  0  0  0  0
   12.1862  -20.0691   24.9079 C   0  0  0  0  0  0  0  0  0  0  0  0
   13.1677  -20.9530   24.8105 N   0  0  0  0  0  0  0  0  0  0  0  0
   14.2741  -20.2820   24.4547 C   0  0  0  0  0  0  0  0  0  0  0  0
   13.9693  -18.9795   24.3333 N   0  0  0  0  0  0  0  0  0  0  0  0
   10.8389  -18.0523   26.7524 C   0  0  0  0  0  0  0  0  0  0  0  0
   11.4995  -19.0595   27.0955 O   0  0  0  0  0  0  0  0  0  0  0  0
   10.2392  -17.2977   27.7834 O   0  0  0  0  0  0  0  0  0  0  0  0
  1  2  1  0
  3  2  1  0
  4  5  1  0
  4  3  1  0
  5  1  1  0
  5  6  1  1
  6  7  2  0
  9  8  1  0
 10  9  1  0
 12 11  1  1
 11 10  1  0
 12 14  1  0
 13  6  1  0
 13 12  1  0
 14 15  2  0
 16 17  1  0
 16 14  1  0
 17 24  1  0
 17 18  1  1
 19 18  1  0
 20 19  2  0
 21 20  1  0
 22 21  1  0
 22 23  2  0
 23 19  1  0
 24 25  2  0
 24 26  1  0
M  END
$$$$
