PMH.pdb
     RDKit          3D

 26 27  0  0  1  0  0  0  0  0999 V2000
    7.1156  -15.1432   20.2739 N   0  0  0  0  0  0  0  0  0  0  0  0
    6.7260  -14.7243   18.9275 C   0  0  0  0  0  0  0  0  0  0  0  0
    7.3719  -13.3828   18.7892 C   0  0  0  0  0  0  0  0  0  0  0  0
    8.5202  -13.3298   19.7725 C   0  0  0  0  0  0  0  0  0  0  0  0
    8.4947  -14.7177   20.3701 C   0  0  1  0  0  0  0  0  0  0  0  0
    8.8867  -14.6880   21.8167 C   0  0  0  0  0  0  0  0  0  0  0  0
   10.0933  -14.5510   22.0807 O   0  0  0  0  0  0  0  0  0  0  0  0
    8.7466  -11.4758   27.5426 C   0  0  0  0  0  0  0  0  0  0  0  0
    7.3081  -11.9913   26.5755 S   0  0  0  0  0  0  0  0  0  0  0  0
    7.2630  -13.8225   26.4600 C   0  0  0  0  0  0  0  0  0  0  0  0
    6.9678  -14.1491   25.0328 C   0  0  0  0  0  0  0  0  0  0  0  0
    8.1723  -14.6758   24.2616 C   0  0  2  0  0  0  0  0  0  0  0  0
    7.9300  -14.8100   22.8487 N   0  0  0  0  0  0  0  0  0  0  0  0
    8.5411  -15.9657   24.8673 C   0  0  0  0  0  0  0  0  0  0  0  0
    7.6774  -16.8869   24.9699 O   0  0  0  0  0  0  0  0  0  0  0  0
    9.8490  -16.2116   25.3450 N   0  0  0  0  0  0  0  0  0  0  0  0
   10.2325  -17.5443   25.8127 C   0  0  1  0  0  0  0  0  0  0  0  0
   11.6781  -17.8176   25.5382 C   0  0  0  0  0  0  0  0  0  0  0  0
   11.9465  -17.7446   24.0888 C   0  0  0  0  0  0  0  0  0  0  0  0
   11.2713  -18.3018   23.0176 C   0  0  0  0  0  0  0  0  0  0  0  0
   11.8708  -18.0004   21.8758 N   0  0  0  0  0  0  0  0  0  0  0  0
   12.9405  -17.2470   22.1743 C   0  0  0  0  0  0  0  0  0  0  0  0
   12.9972  -17.0855   23.5065 N   0  0  0  0  0  0  0  0  0  0  0  0
    9.8786  -17.7268   27.2285 C   0  0  0  0  0  0  0  0  0  0  0  0
    9.3140  -16.8654   27.9411 O   0  0  0  0  0  0  0  0  0  0  0  0
   10.1931  -18.9590   27.8409 O   0  0  0  0  0  0  0  0  0  0  0  0
  1  2  1  0
  3  2  1  0
  4  5  1  0
  4  3  1  0
  5  1  1  0
  5  6  1  1
  6  7  2  0
  9  8  1  0
 10  9  1  0
 12 11  1  1
 11 10  1  0
 12 14  1  0
 13  6  1  0
 13 12  1  0
 14 15  2  0
 16 17  1  0
 16 14  1  0
 17 24  1  0
 17 18  1  1
 19 18  1  0
 20 19  2  0
 21 20  1  0
 22 21  1  0
 22 23  2  0
 23 19  1  0
 24 25  2  0
 24 26  1  0
M  END
$$$$
