PMH.pdb
     RDKit          3D

 26 27  0  0  1  0  0  0  0  0999 V2000
    7.1972  -15.0458   20.5603 N   0  0  0  0  0  0  0  0  0  0  0  0
    6.6824  -14.5130   19.2988 C   0  0  0  0  0  0  0  0  0  0  0  0
    7.0729  -13.0707   19.3551 C   0  0  0  0  0  0  0  0  0  0  0  0
    8.2343  -12.9534   20.3173 C   0  0  0  0  0  0  0  0  0  0  0  0
    8.4815  -14.3948   20.6985 C   0  0  1  0  0  0  0  0  0  0  0  0
    8.9231  -14.5055   22.1267 C   0  0  0  0  0  0  0  0  0  0  0  0
   10.1094  -14.2376   22.3820 O   0  0  0  0  0  0  0  0  0  0  0  0
    6.2329  -10.9191   27.1371 C   0  0  0  0  0  0  0  0  0  0  0  0
    6.7866  -12.6402   27.0992 S   0  0  0  0  0  0  0  0  0  0  0  0
    6.6301  -13.3041   25.3953 C   0  0  0  0  0  0  0  0  0  0  0  0
    7.1175  -14.7151   25.4447 C   0  0  0  0  0  0  0  0  0  0  0  0
    8.3293  -14.9774   24.5583 C   0  0  2  0  0  0  0  0  0  0  0  0
    8.0337  -14.8984   23.1514 N   0  0  0  0  0  0  0  0  0  0  0  0
    8.8504  -16.3049   24.9230 C   0  0  0  0  0  0  0  0  0  0  0  0
    8.1202  -17.3311   24.7864 O   0  0  0  0  0  0  0  0  0  0  0  0
   10.1604  -16.4720   25.4285 N   0  0  0  0  0  0  0  0  0  0  0  0
   10.6237  -17.7862   25.8759 C   0  0  1  0  0  0  0  0  0  0  0  0
   12.0622  -18.0004   25.5231 C   0  0  0  0  0  0  0  0  0  0  0  0
   12.2232  -18.0824   24.0584 C   0  0  0  0  0  0  0  0  0  0  0  0
   11.2819  -18.0558   23.0449 C   0  0  0  0  0  0  0  0  0  0  0  0
   11.8621  -18.1804   21.8609 N   0  0  0  0  0  0  0  0  0  0  0  0
   13.1825  -18.2901   22.0740 C   0  0  0  0  0  0  0  0  0  0  0  0
   13.4132  -18.2324   23.3959 N   0  0  0  0  0  0  0  0  0  0  0  0
   10.3554  -17.9785   27.3090 C   0  0  0  0  0  0  0  0  0  0  0  0
    9.8421  -17.1193   28.0620 O   0  0  0  0  0  0  0  0  0  0  0  0
   10.6969  -19.2183   27.8908 O   0  0  0  0  0  0  0  0  0  0  0  0
  1  2  1  0
  3  2  1  0
  4  5  1  0
  4  3  1  0
  5  1  1  0
  5  6  1  1
  6  7  2  0
  9  8  1  0
 10  9  1  0
 12 11  1  1
 11 10  1  0
 12 14  1  0
 13  6  1  0
 13 12  1  0
 14 15  2  0
 16 17  1  0
 16 14  1  0
 17 24  1  0
 17 18  1  1
 19 18  1  0
 20 19  2  0
 21 20  1  0
 22 21  1  0
 22 23  2  0
 23 19  1  0
 24 25  2  0
 24 26  1  0
M  END
$$$$
