PMH.pdb
     RDKit          3D

 26 27  0  0  1  0  0  0  0  0999 V2000
    6.9553  -14.9580   20.5708 N   0  0  0  0  0  0  0  0  0  0  0  0
    6.4640  -14.4237   19.3006 C   0  0  0  0  0  0  0  0  0  0  0  0
    7.0942  -13.0693   19.2358 C   0  0  0  0  0  0  0  0  0  0  0  0
    8.3135  -13.0940   20.1308 C   0  0  0  0  0  0  0  0  0  0  0  0
    8.3367  -14.5301   20.6012 C   0  0  1  0  0  0  0  0  0  0  0  0
    8.8369  -14.6265   22.0110 C   0  0  0  0  0  0  0  0  0  0  0  0
   10.0442  -14.4070   22.2069 O   0  0  0  0  0  0  0  0  0  0  0  0
    7.1179  -10.6772   26.7801 C   0  0  0  0  0  0  0  0  0  0  0  0
    7.5714  -12.4278   26.7759 S   0  0  0  0  0  0  0  0  0  0  0  0
    6.7714  -13.2717   25.3558 C   0  0  0  0  0  0  0  0  0  0  0  0
    7.1962  -14.7022   25.4200 C   0  0  0  0  0  0  0  0  0  0  0  0
    8.3407  -15.0458   24.4740 C   0  0  2  0  0  0  0  0  0  0  0  0
    7.9779  -14.9536   23.0837 N   0  0  0  0  0  0  0  0  0  0  0  0
    8.7937  -16.4027   24.8210 C   0  0  0  0  0  0  0  0  0  0  0  0
    7.9986  -17.3829   24.7116 O   0  0  0  0  0  0  0  0  0  0  0  0
   10.1085  -16.6490   25.2794 N   0  0  0  0  0  0  0  0  0  0  0  0
   10.5453  -18.0105   25.5914 C   0  0  1  0  0  0  0  0  0  0  0  0
   12.0155  -18.1715   25.3628 C   0  0  0  0  0  0  0  0  0  0  0  0
   12.3417  -17.9351   23.9430 C   0  0  0  0  0  0  0  0  0  0  0  0
   11.5203  -17.8287   22.8349 C   0  0  0  0  0  0  0  0  0  0  0  0
   12.2350  -17.6351   21.7368 N   0  0  0  0  0  0  0  0  0  0  0  0
   13.5264  -17.6113   22.1011 C   0  0  0  0  0  0  0  0  0  0  0  0
   13.6040  -17.7912   23.4298 N   0  0  0  0  0  0  0  0  0  0  0  0
   10.1361  -18.3956   26.9505 C   0  0  0  0  0  0  0  0  0  0  0  0
    9.5109  -17.6567   27.7453 O   0  0  0  0  0  0  0  0  0  0  0  0
   10.4662  -19.6907   27.4044 O   0  0  0  0  0  0  0  0  0  0  0  0
  1  2  1  0
  3  2  1  0
  4  5  1  0
  4  3  1  0
  5  1  1  0
  5  6  1  1
  6  7  2  0
  9  8  1  0
 10  9  1  0
 12 11  1  1
 11 10  1  0
 12 14  1  0
 13  6  1  0
 13 12  1  0
 14 15  2  0
 16 17  1  0
 16 14  1  0
 17 24  1  0
 17 18  1  1
 19 18  1  0
 20 19  2  0
 21 20  1  0
 22 21  1  0
 22 23  2  0
 23 19  1  0
 24 25  2  0
 24 26  1  0
M  END
$$$$
