PMH.pdb
     RDKit          3D

 26 27  0  0  1  0  0  0  0  0999 V2000
    7.2738  -15.0772   20.5998 N   0  0  0  0  0  0  0  0  0  0  0  0
    6.7972  -14.6332   19.2899 C   0  0  0  0  0  0  0  0  0  0  0  0
    7.2078  -13.1959   19.2487 C   0  0  0  0  0  0  0  0  0  0  0  0
    8.3476  -13.0226   20.2281 C   0  0  0  0  0  0  0  0  0  0  0  0
    8.5640  -14.4347   20.7212 C   0  0  1  0  0  0  0  0  0  0  0  0
    8.9698  -14.4445   22.1642 C   0  0  0  0  0  0  0  0  0  0  0  0
   10.1569  -14.1880   22.4274 O   0  0  0  0  0  0  0  0  0  0  0  0
    7.7561  -10.9168   27.1177 C   0  0  0  0  0  0  0  0  0  0  0  0
    6.5299  -12.2323   26.9282 S   0  0  0  0  0  0  0  0  0  0  0  0
    6.6814  -12.9853   25.2612 C   0  0  0  0  0  0  0  0  0  0  0  0
    7.1381  -14.3915   25.4722 C   0  0  0  0  0  0  0  0  0  0  0  0
    8.3274  -14.7875   24.6051 C   0  0  2  0  0  0  0  0  0  0  0  0
    8.0468  -14.7329   23.1940 N   0  0  0  0  0  0  0  0  0  0  0  0
    8.7309  -16.1410   25.0195 C   0  0  0  0  0  0  0  0  0  0  0  0
    7.8627  -17.0585   25.1169 O   0  0  0  0  0  0  0  0  0  0  0  0
   10.0777  -16.4531   25.3165 N   0  0  0  0  0  0  0  0  0  0  0  0
   10.4576  -17.8096   25.7132 C   0  0  1  0  0  0  0  0  0  0  0  0
   11.8282  -18.1526   25.2198 C   0  0  0  0  0  0  0  0  0  0  0  0
   11.8955  -18.0065   23.7528 C   0  0  0  0  0  0  0  0  0  0  0  0
   10.9901  -18.3618   22.7689 C   0  0  0  0  0  0  0  0  0  0  0  0
   11.4627  -18.0682   21.5670 N   0  0  0  0  0  0  0  0  0  0  0  0
   12.6756  -17.5202   21.7388 C   0  0  0  0  0  0  0  0  0  0  0  0
   12.9482  -17.4775   23.0533 N   0  0  0  0  0  0  0  0  0  0  0  0
   10.3142  -17.9924   27.1654 C   0  0  0  0  0  0  0  0  0  0  0  0
   10.5622  -19.0550   27.7802 O   0  0  0  0  0  0  0  0  0  0  0  0
    9.8649  -16.8973   27.9342 O   0  0  0  0  0  0  0  0  0  0  0  0
  1  2  1  0
  3  2  1  0
  4  5  1  0
  4  3  1  0
  5  1  1  0
  5  6  1  1
  6  7  2  0
  9  8  1  0
 10  9  1  0
 12 11  1  1
 11 10  1  0
 12 14  1  0
 13  6  1  0
 13 12  1  0
 14 15  2  0
 16 17  1  0
 16 14  1  0
 17 24  1  0
 17 18  1  1
 19 18  1  0
 20 19  2  0
 21 20  1  0
 22 21  1  0
 22 23  2  0
 23 19  1  0
 24 25  2  0
 24 26  1  0
M  END
$$$$
