PMH.pdb
     RDKit          3D

 26 27  0  0  1  0  0  0  0  0999 V2000
    7.2372  -15.0246   19.9438 N   0  0  0  0  0  0  0  0  0  0  0  0
    6.7324  -14.6641   18.6189 C   0  0  0  0  0  0  0  0  0  0  0  0
    7.2096  -13.2578   18.4450 C   0  0  0  0  0  0  0  0  0  0  0  0
    8.3933  -13.0642   19.3668 C   0  0  0  0  0  0  0  0  0  0  0  0
    8.5605  -14.4411   19.9671 C   0  0  1  0  0  0  0  0  0  0  0  0
    9.0206  -14.3548   21.3912 C   0  0  0  0  0  0  0  0  0  0  0  0
   10.1771  -13.9487   21.5961 O   0  0  0  0  0  0  0  0  0  0  0  0
    6.8263  -11.6853   28.2159 C   0  0  0  0  0  0  0  0  0  0  0  0
    6.3344  -12.3957   26.6274 S   0  0  0  0  0  0  0  0  0  0  0  0
    7.6159  -13.5779   26.0538 C   0  0  0  0  0  0  0  0  0  0  0  0
    7.3012  -13.8827   24.6259 C   0  0  0  0  0  0  0  0  0  0  0  0
    8.4538  -14.5313   23.8682 C   0  0  2  0  0  0  0  0  0  0  0  0
    8.1806  -14.7186   22.4671 N   0  0  0  0  0  0  0  0  0  0  0  0
    8.7406  -15.8121   24.5345 C   0  0  0  0  0  0  0  0  0  0  0  0
    7.8241  -16.6771   24.6650 O   0  0  0  0  0  0  0  0  0  0  0  0
   10.0267  -16.1110   25.0406 N   0  0  0  0  0  0  0  0  0  0  0  0
   10.2642  -17.3472   25.7871 C   0  0  1  0  0  0  0  0  0  0  0  0
   11.6257  -17.8981   25.5000 C   0  0  0  0  0  0  0  0  0  0  0  0
   11.7758  -18.1654   24.0564 C   0  0  0  0  0  0  0  0  0  0  0  0
   10.8801  -18.0123   23.0132 C   0  0  0  0  0  0  0  0  0  0  0  0
   11.4231  -18.3946   21.8674 N   0  0  0  0  0  0  0  0  0  0  0  0
   12.6733  -18.8020   22.1354 C   0  0  0  0  0  0  0  0  0  0  0  0
   12.8982  -18.6686   23.4528 N   0  0  0  0  0  0  0  0  0  0  0  0
   10.0231  -17.1484   27.2242 C   0  0  0  0  0  0  0  0  0  0  0  0
   10.0978  -18.0475   28.0928 O   0  0  0  0  0  0  0  0  0  0  0  0
    9.6816  -15.8535   27.6701 O   0  0  0  0  0  0  0  0  0  0  0  0
  1  2  1  0
  3  2  1  0
  4  5  1  0
  4  3  1  0
  5  1  1  0
  5  6  1  1
  6  7  2  0
  9  8  1  0
 10  9  1  0
 12 11  1  1
 11 10  1  0
 12 14  1  0
 13  6  1  0
 13 12  1  0
 14 15  2  0
 16 17  1  0
 16 14  1  0
 17 24  1  0
 17 18  1  1
 19 18  1  0
 20 19  2  0
 21 20  1  0
 22 21  1  0
 22 23  2  0
 23 19  1  0
 24 25  2  0
 24 26  1  0
M  END
$$$$
