PMH.pdb
     RDKit          3D

 26 27  0  0  1  0  0  0  0  0999 V2000
    7.0752  -14.9815   20.6292 N   0  0  0  0  0  0  0  0  0  0  0  0
    6.5362  -14.5309   19.3459 C   0  0  0  0  0  0  0  0  0  0  0  0
    7.1571  -13.1818   19.1721 C   0  0  0  0  0  0  0  0  0  0  0  0
    8.4076  -13.1460   20.0225 C   0  0  0  0  0  0  0  0  0  0  0  0
    8.4546  -14.5489   20.5825 C   0  0  1  0  0  0  0  0  0  0  0  0
    9.0053  -14.5536   21.9767 C   0  0  0  0  0  0  0  0  0  0  0  0
   10.2121  -14.2926   22.1171 O   0  0  0  0  0  0  0  0  0  0  0  0
    5.8216  -12.0250   27.6203 C   0  0  0  0  0  0  0  0  0  0  0  0
    7.3631  -11.9130   26.6815 S   0  0  0  0  0  0  0  0  0  0  0  0
    7.2009  -12.8472   25.1100 C   0  0  0  0  0  0  0  0  0  0  0  0
    7.5643  -14.2624   25.4198 C   0  0  0  0  0  0  0  0  0  0  0  0
    8.6061  -14.8497   24.4750 C   0  0  2  0  0  0  0  0  0  0  0  0
    8.1929  -14.8421   23.0957 N   0  0  0  0  0  0  0  0  0  0  0  0
    8.8896  -16.2164   24.9422 C   0  0  0  0  0  0  0  0  0  0  0  0
    7.9714  -17.0894   24.9402 O   0  0  0  0  0  0  0  0  0  0  0  0
   10.1742  -16.5902   25.3999 N   0  0  0  0  0  0  0  0  0  0  0  0
   10.4039  -17.9180   25.9709 C   0  0  1  0  0  0  0  0  0  0  0  0
   11.7285  -18.4679   25.5431 C   0  0  0  0  0  0  0  0  0  0  0  0
   11.8078  -18.5242   24.0705 C   0  0  0  0  0  0  0  0  0  0  0  0
   11.3208  -17.6585   23.1076 C   0  0  0  0  0  0  0  0  0  0  0  0
   11.5981  -18.1038   21.8915 N   0  0  0  0  0  0  0  0  0  0  0  0
   12.2657  -19.2593   22.0331 C   0  0  0  0  0  0  0  0  0  0  0  0
   12.3987  -19.5239   23.3432 N   0  0  0  0  0  0  0  0  0  0  0  0
   10.2427  -17.8970   27.4325 C   0  0  0  0  0  0  0  0  0  0  0  0
   10.1067  -16.8603   28.1220 O   0  0  0  0  0  0  0  0  0  0  0  0
   10.2393  -19.1293   28.1207 O   0  0  0  0  0  0  0  0  0  0  0  0
  1  2  1  0
  3  2  1  0
  4  5  1  0
  4  3  1  0
  5  1  1  0
  5  6  1  1
  6  7  2  0
  9  8  1  0
 10  9  1  0
 12 11  1  1
 11 10  1  0
 12 14  1  0
 13  6  1  0
 13 12  1  0
 14 15  2  0
 16 17  1  0
 16 14  1  0
 17 24  1  0
 17 18  1  1
 19 18  1  0
 20 19  2  0
 21 20  1  0
 22 21  1  0
 22 23  2  0
 23 19  1  0
 24 25  2  0
 24 26  1  0
M  END
$$$$
