PMH.pdb
     RDKit          3D

 26 27  0  0  1  0  0  0  0  0999 V2000
    7.0786  -14.8048   20.2747 N   0  0  0  0  0  0  0  0  0  0  0  0
    6.5607  -14.3144   18.9974 C   0  0  0  0  0  0  0  0  0  0  0  0
    7.2072  -12.9729   18.8617 C   0  0  0  0  0  0  0  0  0  0  0  0
    8.4495  -12.9798   19.7248 C   0  0  0  0  0  0  0  0  0  0  0  0
    8.4659  -14.3962   20.2517 C   0  0  1  0  0  0  0  0  0  0  0  0
    9.0022  -14.4437   21.6507 C   0  0  0  0  0  0  0  0  0  0  0  0
   10.2250  -14.2811   21.8014 O   0  0  0  0  0  0  0  0  0  0  0  0
    5.8102  -11.6750   26.7240 C   0  0  0  0  0  0  0  0  0  0  0  0
    7.5607  -12.1011   26.8803 S   0  0  0  0  0  0  0  0  0  0  0  0
    7.8061  -13.8731   26.4699 C   0  0  0  0  0  0  0  0  0  0  0  0
    7.4126  -14.0342   25.0382 C   0  0  0  0  0  0  0  0  0  0  0  0
    8.5304  -14.5689   24.1506 C   0  0  2  0  0  0  0  0  0  0  0  0
    8.1595  -14.6642   22.7627 N   0  0  0  0  0  0  0  0  0  0  0  0
    8.9206  -15.8806   24.6927 C   0  0  0  0  0  0  0  0  0  0  0  0
    8.1388  -16.8709   24.5782 O   0  0  0  0  0  0  0  0  0  0  0  0
   10.1595  -16.0719   25.3468 N   0  0  0  0  0  0  0  0  0  0  0  0
   10.5093  -17.3754   25.9126 C   0  0  1  0  0  0  0  0  0  0  0  0
   11.9538  -17.6931   25.6846 C   0  0  0  0  0  0  0  0  0  0  0  0
   12.1920  -17.9988   24.2605 C   0  0  0  0  0  0  0  0  0  0  0  0
   11.3042  -18.2877   23.2397 C   0  0  0  0  0  0  0  0  0  0  0  0
   11.9500  -18.5238   22.1078 N   0  0  0  0  0  0  0  0  0  0  0  0
   13.2612  -18.3955   22.3631 C   0  0  0  0  0  0  0  0  0  0  0  0
   13.4203  -18.0789   23.6586 N   0  0  0  0  0  0  0  0  0  0  0  0
   10.1275  -17.4526   27.3308 C   0  0  0  0  0  0  0  0  0  0  0  0
    9.6564  -16.5026   27.9972 O   0  0  0  0  0  0  0  0  0  0  0  0
   10.2999  -18.6825   28.0017 O   0  0  0  0  0  0  0  0  0  0  0  0
  1  2  1  0
  3  2  1  0
  4  5  1  0
  4  3  1  0
  5  1  1  0
  5  6  1  1
  6  7  2  0
  9  8  1  0
 10  9  1  0
 12 11  1  1
 11 10  1  0
 12 14  1  0
 13  6  1  0
 13 12  1  0
 14 15  2  0
 16 17  1  0
 16 14  1  0
 17 24  1  0
 17 18  1  1
 19 18  1  0
 20 19  2  0
 21 20  1  0
 22 21  1  0
 22 23  2  0
 23 19  1  0
 24 25  2  0
 24 26  1  0
M  END
$$$$
