PMH.pdb
     RDKit          3D

 26 27  0  0  1  0  0  0  0  0999 V2000
    7.2951  -14.8687   20.2769 N   0  0  0  0  0  0  0  0  0  0  0  0
    6.8969  -14.3056   18.9866 C   0  0  0  0  0  0  0  0  0  0  0  0
    7.1870  -12.8477   19.1487 C   0  0  0  0  0  0  0  0  0  0  0  0
    8.2198  -12.7108   20.2455 C   0  0  0  0  0  0  0  0  0  0  0  0
    8.5113  -14.1525   20.5929 C   0  0  1  0  0  0  0  0  0  0  0  0
    8.7911  -14.3070   22.0575 C   0  0  0  0  0  0  0  0  0  0  0  0
    9.9812  -14.3584   22.4112 O   0  0  0  0  0  0  0  0  0  0  0  0
    6.6747  -11.9479   27.9535 C   0  0  0  0  0  0  0  0  0  0  0  0
    7.4332  -11.8030   26.3183 S   0  0  0  0  0  0  0  0  0  0  0  0
    6.4037  -12.6801   25.0776 C   0  0  0  0  0  0  0  0  0  0  0  0
    6.6990  -14.1356   25.2360 C   0  0  0  0  0  0  0  0  0  0  0  0
    7.8980  -14.6107   24.4236 C   0  0  2  0  0  0  0  0  0  0  0  0
    7.7498  -14.3921   23.0082 N   0  0  0  0  0  0  0  0  0  0  0  0
    8.0867  -16.0382   24.7288 C   0  0  0  0  0  0  0  0  0  0  0  0
    7.3145  -16.9025   24.2171 O   0  0  0  0  0  0  0  0  0  0  0  0
    9.1187  -16.4808   25.5882 N   0  0  0  0  0  0  0  0  0  0  0  0
    9.8866  -17.6855   25.2707 C   0  0  1  0  0  0  0  0  0  0  0  0
   10.4314  -17.6271   23.8780 C   0  0  0  0  0  0  0  0  0  0  0  0
   11.2923  -18.7967   23.6157 C   0  0  0  0  0  0  0  0  0  0  0  0
   11.6650  -19.8446   24.4386 C   0  0  0  0  0  0  0  0  0  0  0  0
   12.4752  -20.6768   23.8022 N   0  0  0  0  0  0  0  0  0  0  0  0
   12.6475  -20.1945   22.5618 C   0  0  0  0  0  0  0  0  0  0  0  0
   11.9389  -19.0604   22.4368 N   0  0  0  0  0  0  0  0  0  0  0  0
   10.9296  -17.9254   26.2793 C   0  0  0  0  0  0  0  0  0  0  0  0
   11.4030  -19.0492   26.5650 O   0  0  0  0  0  0  0  0  0  0  0  0
   11.4433  -16.8157   26.9843 O   0  0  0  0  0  0  0  0  0  0  0  0
  1  2  1  0
  3  2  1  0
  4  5  1  0
  4  3  1  0
  5  1  1  0
  5  6  1  1
  6  7  2  0
  9  8  1  0
 10  9  1  0
 12 11  1  1
 11 10  1  0
 12 14  1  0
 13  6  1  0
 13 12  1  0
 14 15  2  0
 16 17  1  0
 16 14  1  0
 17 24  1  0
 17 18  1  6
 19 18  1  0
 20 19  2  0
 21 20  1  0
 22 21  1  0
 22 23  2  0
 23 19  1  0
 24 25  2  0
 24 26  1  0
M  END
$$$$
