PMH.pdb
     RDKit          3D

 26 27  0  0  1  0  0  0  0  0999 V2000
    7.0773  -15.1659   20.3662 N   0  0  0  0  0  0  0  0  0  0  0  0
    6.7303  -14.7849   18.9971 C   0  0  0  0  0  0  0  0  0  0  0  0
    7.2675  -13.3939   18.8854 C   0  0  0  0  0  0  0  0  0  0  0  0
    8.3500  -13.2415   19.9310 C   0  0  0  0  0  0  0  0  0  0  0  0
    8.4080  -14.6251   20.5364 C   0  0  1  0  0  0  0  0  0  0  0  0
    8.7139  -14.5586   22.0023 C   0  0  0  0  0  0  0  0  0  0  0  0
    9.8642  -14.2245   22.3331 O   0  0  0  0  0  0  0  0  0  0  0  0
    7.5016  -10.7357   27.8165 C   0  0  0  0  0  0  0  0  0  0  0  0
    7.1839  -11.4142   26.1706 S   0  0  0  0  0  0  0  0  0  0  0  0
    6.8699  -13.2183   26.2941 C   0  0  0  0  0  0  0  0  0  0  0  0
    6.6772  -13.7106   24.8972 C   0  0  0  0  0  0  0  0  0  0  0  0
    7.8227  -14.5778   24.3885 C   0  0  2  0  0  0  0  0  0  0  0  0
    7.7399  -14.8619   22.9794 N   0  0  0  0  0  0  0  0  0  0  0  0
    7.8137  -15.8148   25.1862 C   0  0  0  0  0  0  0  0  0  0  0  0
    6.7565  -16.5084   25.2670 O   0  0  0  0  0  0  0  0  0  0  0  0
    8.9657  -16.2592   25.8752 N   0  0  0  0  0  0  0  0  0  0  0  0
    9.4294  -17.6404   25.7371 C   0  0  1  0  0  0  0  0  0  0  0  0
    9.7535  -17.9611   24.3117 C   0  0  0  0  0  0  0  0  0  0  0  0
    8.6788  -18.7768   23.7135 C   0  0  0  0  0  0  0  0  0  0  0  0
    7.4898  -19.2360   24.2513 C   0  0  0  0  0  0  0  0  0  0  0  0
    6.8219  -19.9599   23.3660 N   0  0  0  0  0  0  0  0  0  0  0  0
    7.5539  -19.9888   22.2416 C   0  0  0  0  0  0  0  0  0  0  0  0
    8.6767  -19.2787   22.4385 N   0  0  0  0  0  0  0  0  0  0  0  0
   10.5500  -17.9127   26.6497 C   0  0  0  0  0  0  0  0  0  0  0  0
   10.6273  -18.9040   27.4112 O   0  0  0  0  0  0  0  0  0  0  0  0
   11.6238  -16.9970   26.6790 O   0  0  0  0  0  0  0  0  0  0  0  0
  1  2  1  0
  3  2  1  0
  4  5  1  0
  4  3  1  0
  5  1  1  0
  5  6  1  1
  6  7  2  0
  9  8  1  0
 10  9  1  0
 12 11  1  1
 11 10  1  0
 12 14  1  0
 13  6  1  0
 13 12  1  0
 14 15  2  0
 16 17  1  0
 16 14  1  0
 17 24  1  0
 17 18  1  6
 19 18  1  0
 20 19  2  0
 21 20  1  0
 22 21  1  0
 22 23  2  0
 23 19  1  0
 24 25  2  0
 24 26  1  0
M  END
$$$$
