PMH.pdb
     RDKit          3D

 26 27  0  0  1  0  0  0  0  0999 V2000
    7.0770  -15.0552   19.9805 N   0  0  0  0  0  0  0  0  0  0  0  0
    6.6219  -14.6415   18.6530 C   0  0  0  0  0  0  0  0  0  0  0  0
    7.1327  -13.2407   18.5405 C   0  0  0  0  0  0  0  0  0  0  0  0
    8.2901  -13.1021   19.5047 C   0  0  0  0  0  0  0  0  0  0  0  0
    8.4103  -14.5009   20.0642 C   0  0  1  0  0  0  0  0  0  0  0  0
    8.8266  -14.4705   21.5039 C   0  0  0  0  0  0  0  0  0  0  0  0
   10.0370  -14.3300   21.7476 O   0  0  0  0  0  0  0  0  0  0  0  0
    6.8595  -11.8795   28.4601 C   0  0  0  0  0  0  0  0  0  0  0  0
    6.4595  -12.2235   26.7304 S   0  0  0  0  0  0  0  0  0  0  0  0
    7.2322  -13.8078   26.2190 C   0  0  0  0  0  0  0  0  0  0  0  0
    6.9606  -13.9586   24.7581 C   0  0  0  0  0  0  0  0  0  0  0  0
    8.1551  -14.4694   23.9610 C   0  0  2  0  0  0  0  0  0  0  0  0
    7.8877  -14.5958   22.5519 N   0  0  0  0  0  0  0  0  0  0  0  0
    8.5460  -15.7603   24.5505 C   0  0  0  0  0  0  0  0  0  0  0  0
    7.7505  -16.7452   24.5019 O   0  0  0  0  0  0  0  0  0  0  0  0
    9.8005  -15.9373   25.1784 N   0  0  0  0  0  0  0  0  0  0  0  0
   10.2172  -17.2586   25.6500 C   0  0  1  0  0  0  0  0  0  0  0  0
   11.5304  -17.6558   25.0521 C   0  0  0  0  0  0  0  0  0  0  0  0
   11.9333  -18.9886   25.5414 C   0  0  0  0  0  0  0  0  0  0  0  0
   11.1838  -20.1276   25.7754 C   0  0  0  0  0  0  0  0  0  0  0  0
   11.9474  -21.1062   26.2373 N   0  0  0  0  0  0  0  0  0  0  0  0
   13.2002  -20.6313   26.3143 C   0  0  0  0  0  0  0  0  0  0  0  0
   13.2048  -19.3546   25.8972 N   0  0  0  0  0  0  0  0  0  0  0  0
   10.2216  -17.3152   27.1195 C   0  0  0  0  0  0  0  0  0  0  0  0
   10.0689  -16.3269   27.8736 O   0  0  0  0  0  0  0  0  0  0  0  0
   10.4108  -18.5698   27.7379 O   0  0  0  0  0  0  0  0  0  0  0  0
  1  2  1  0
  3  2  1  0
  4  5  1  0
  4  3  1  0
  5  1  1  0
  5  6  1  1
  6  7  2  0
  9  8  1  0
 10  9  1  0
 12 11  1  1
 11 10  1  0
 12 14  1  0
 13  6  1  0
 13 12  1  0
 14 15  2  0
 16 17  1  0
 16 14  1  0
 17 24  1  0
 17 18  1  1
 19 18  1  0
 20 19  2  0
 21 20  1  0
 22 21  1  0
 22 23  2  0
 23 19  1  0
 24 25  2  0
 24 26  1  0
M  END
$$$$
