PMH.pdb
     RDKit          3D

 26 27  0  0  1  0  0  0  0  0999 V2000
    6.9565  -14.6507   20.5323 N   0  0  0  0  0  0  0  0  0  0  0  0
    6.5684  -14.0981   19.2345 C   0  0  0  0  0  0  0  0  0  0  0  0
    7.2444  -12.7644   19.2179 C   0  0  0  0  0  0  0  0  0  0  0  0
    8.3996  -12.8302   20.1923 C   0  0  0  0  0  0  0  0  0  0  0  0
    8.3456  -14.2674   20.6568 C   0  0  1  0  0  0  0  0  0  0  0  0
    8.7470  -14.3829   22.0964 C   0  0  0  0  0  0  0  0  0  0  0  0
    9.9506  -14.2372   22.3692 O   0  0  0  0  0  0  0  0  0  0  0  0
    7.3758  -11.3235   27.4992 C   0  0  0  0  0  0  0  0  0  0  0  0
    5.9695  -11.8876   26.5121 S   0  0  0  0  0  0  0  0  0  0  0  0
    6.5734  -12.7059   24.9842 C   0  0  0  0  0  0  0  0  0  0  0  0
    6.9345  -14.1036   25.3675 C   0  0  0  0  0  0  0  0  0  0  0  0
    8.0587  -14.6994   24.5284 C   0  0  2  0  0  0  0  0  0  0  0  0
    7.8020  -14.6471   23.1126 N   0  0  0  0  0  0  0  0  0  0  0  0
    8.2514  -16.0846   24.9876 C   0  0  0  0  0  0  0  0  0  0  0  0
    7.2655  -16.8788   25.0347 O   0  0  0  0  0  0  0  0  0  0  0  0
    9.5218  -16.5627   25.3835 N   0  0  0  0  0  0  0  0  0  0  0  0
    9.6808  -17.9298   25.8812 C   0  0  1  0  0  0  0  0  0  0  0  0
    9.2793  -18.9319   24.8447 C   0  0  0  0  0  0  0  0  0  0  0  0
   10.0797  -18.7486   23.6184 C   0  0  0  0  0  0  0  0  0  0  0  0
   10.9623  -17.7457   23.2593 C   0  0  0  0  0  0  0  0  0  0  0  0
   11.4519  -17.9617   22.0479 N   0  0  0  0  0  0  0  0  0  0  0  0
   10.9042  -19.0997   21.5941 C   0  0  0  0  0  0  0  0  0  0  0  0
   10.0744  -19.5842   22.5325 N   0  0  0  0  0  0  0  0  0  0  0  0
   11.0442  -18.1502   26.3866 C   0  0  0  0  0  0  0  0  0  0  0  0
   11.4624  -19.2276   26.8692 O   0  0  0  0  0  0  0  0  0  0  0  0
   11.9584  -17.0763   26.3290 O   0  0  0  0  0  0  0  0  0  0  0  0
  1  2  1  0
  3  2  1  0
  4  5  1  0
  4  3  1  0
  5  1  1  0
  5  6  1  1
  6  7  2  0
  9  8  1  0
 10  9  1  0
 12 11  1  1
 11 10  1  0
 12 14  1  0
 13  6  1  0
 13 12  1  0
 14 15  2  0
 16 17  1  0
 16 14  1  0
 17 24  1  0
 17 18  1  6
 19 18  1  0
 20 19  2  0
 21 20  1  0
 22 21  1  0
 22 23  2  0
 23 19  1  0
 24 25  2  0
 24 26  1  0
M  END
$$$$
