PMH.pdb
     RDKit          3D

 26 27  0  0  1  0  0  0  0  0999 V2000
    6.9781  -14.5242   20.7360 N   0  0  0  0  0  0  0  0  0  0  0  0
    6.3707  -14.0180   19.5052 C   0  0  0  0  0  0  0  0  0  0  0  0
    7.2205  -12.8343   19.1694 C   0  0  0  0  0  0  0  0  0  0  0  0
    8.5568  -13.0285   19.8513 C   0  0  0  0  0  0  0  0  0  0  0  0
    8.3968  -14.3896   20.4884 C   0  0  1  0  0  0  0  0  0  0  0  0
    9.1203  -14.4583   21.7995 C   0  0  0  0  0  0  0  0  0  0  0  0
   10.3626  -14.4554   21.7692 O   0  0  0  0  0  0  0  0  0  0  0  0
    6.5828  -11.5559   27.2068 C   0  0  0  0  0  0  0  0  0  0  0  0
    5.9152  -13.1344   26.6301 S   0  0  0  0  0  0  0  0  0  0  0  0
    6.7224  -13.6091   25.0516 C   0  0  0  0  0  0  0  0  0  0  0  0
    8.1946  -13.5634   25.2990 C   0  0  0  0  0  0  0  0  0  0  0  0
    9.0049  -14.4319   24.3439 C   0  0  2  0  0  0  0  0  0  0  0  0
    8.4270  -14.5243   23.0284 N   0  0  0  0  0  0  0  0  0  0  0  0
    9.1298  -15.7587   24.9690 C   0  0  0  0  0  0  0  0  0  0  0  0
    8.2166  -16.6222   24.8094 O   0  0  0  0  0  0  0  0  0  0  0  0
   10.2544  -16.1039   25.7536 N   0  0  0  0  0  0  0  0  0  0  0  0
   10.4821  -17.4918   26.1583 C   0  0  1  0  0  0  0  0  0  0  0  0
   11.7415  -18.0303   25.5554 C   0  0  0  0  0  0  0  0  0  0  0  0
   11.5091  -18.4257   24.1527 C   0  0  0  0  0  0  0  0  0  0  0  0
   10.3668  -18.3607   23.3750 C   0  0  0  0  0  0  0  0  0  0  0  0
   10.5940  -18.8466   22.1641 N   0  0  0  0  0  0  0  0  0  0  0  0
   11.8777  -19.2360   22.1257 C   0  0  0  0  0  0  0  0  0  0  0  0
   12.4407  -18.9873   23.3195 N   0  0  0  0  0  0  0  0  0  0  0  0
   10.4513  -17.6244   27.6227 C   0  0  0  0  0  0  0  0  0  0  0  0
   10.4030  -16.6652   28.4266 O   0  0  0  0  0  0  0  0  0  0  0  0
   10.4774  -18.9229   28.1753 O   0  0  0  0  0  0  0  0  0  0  0  0
  1  2  1  0
  3  2  1  0
  4  5  1  0
  4  3  1  0
  5  1  1  0
  5  6  1  1
  6  7  2  0
  9  8  1  0
 10  9  1  0
 12 11  1  1
 11 10  1  0
 12 14  1  0
 13  6  1  0
 13 12  1  0
 14 15  2  0
 16 17  1  0
 16 14  1  0
 17 24  1  0
 17 18  1  1
 19 18  1  0
 20 19  2  0
 21 20  1  0
 22 21  1  0
 22 23  2  0
 23 19  1  0
 24 25  2  0
 24 26  1  0
M  END
$$$$
