PMH.pdb
     RDKit          3D

 26 27  0  0  1  0  0  0  0  0999 V2000
    7.8857  -15.6162   19.4166 N   0  0  0  0  0  0  0  0  0  0  0  0
    7.1653  -16.4224   18.4310 C   0  0  0  0  0  0  0  0  0  0  0  0
    6.8171  -17.6601   19.1943 C   0  0  0  0  0  0  0  0  0  0  0  0
    6.8367  -17.3056   20.6648 C   0  0  0  0  0  0  0  0  0  0  0  0
    7.1316  -15.8236   20.6333 C   0  0  1  0  0  0  0  0  0  0  0  0
    7.9830  -15.4196   21.7990 C   0  0  0  0  0  0  0  0  0  0  0  0
    9.2146  -15.4117   21.6336 O   0  0  0  0  0  0  0  0  0  0  0  0
    7.7965  -11.5223   27.4543 C   0  0  0  0  0  0  0  0  0  0  0  0
    6.3232  -11.8903   26.4723 S   0  0  0  0  0  0  0  0  0  0  0  0
    6.8088  -12.7483   24.9242 C   0  0  0  0  0  0  0  0  0  0  0  0
    7.2831  -14.1068   25.3245 C   0  0  0  0  0  0  0  0  0  0  0  0
    8.1332  -14.7973   24.2645 C   0  0  2  0  0  0  0  0  0  0  0  0
    7.4180  -15.0595   23.0426 N   0  0  0  0  0  0  0  0  0  0  0  0
    8.6435  -16.0408   24.8644 C   0  0  0  0  0  0  0  0  0  0  0  0
    7.8428  -16.9787   25.1550 O   0  0  0  0  0  0  0  0  0  0  0  0
   10.0203  -16.2233   25.1301 N   0  0  0  0  0  0  0  0  0  0  0  0
   10.5160  -17.4995   25.6472 C   0  0  1  0  0  0  0  0  0  0  0  0
   11.8910  -17.7924   25.1342 C   0  0  0  0  0  0  0  0  0  0  0  0
   11.8591  -17.9989   23.6732 C   0  0  0  0  0  0  0  0  0  0  0  0
   10.7907  -18.1353   22.8051 C   0  0  0  0  0  0  0  0  0  0  0  0
   11.2140  -18.3275   21.5650 N   0  0  0  0  0  0  0  0  0  0  0  0
   12.5556  -18.3209   21.5967 C   0  0  0  0  0  0  0  0  0  0  0  0
   12.9571  -18.1235   22.8631 N   0  0  0  0  0  0  0  0  0  0  0  0
   10.4369  -17.5385   27.1152 C   0  0  0  0  0  0  0  0  0  0  0  0
   10.7695  -18.5165   27.8234 O   0  0  0  0  0  0  0  0  0  0  0  0
    9.9522  -16.3960   27.7874 O   0  0  0  0  0  0  0  0  0  0  0  0
  1  2  1  0
  3  2  1  0
  4  5  1  0
  4  3  1  0
  5  1  1  0
  5  6  1  1
  6  7  2  0
  9  8  1  0
 10  9  1  0
 12 11  1  1
 11 10  1  0
 12 14  1  0
 13  6  1  0
 13 12  1  0
 14 15  2  0
 16 17  1  0
 16 14  1  0
 17 24  1  0
 17 18  1  1
 19 18  1  0
 20 19  2  0
 21 20  1  0
 22 21  1  0
 22 23  2  0
 23 19  1  0
 24 25  2  0
 24 26  1  0
M  END
$$$$
