SGC.pdb
     RDKit          3D

 17 16  0  0  1  0  0  0  0  0999 V2000
    7.9215  -19.9760   26.6240 O   0  0  0  0  0  0  0  0  0  0  0  0
    7.7997  -18.7325   25.9969 C   0  0  0  0  0  0  0  0  0  0  0  0
    7.0205  -18.9097   24.6918 C   0  0  2  0  0  0  0  0  0  0  0  0
    7.4257  -20.1401   24.0378 N   0  0  0  0  0  0  0  0  0  0  0  0
    7.2990  -17.7727   23.7841 C   0  0  0  0  0  0  0  0  0  0  0  0
    8.1044  -17.8837   22.8207 O   0  0  0  0  0  0  0  0  0  0  0  0
    6.6599  -16.5315   23.9848 N   0  0  0  0  0  0  0  0  0  0  0  0
    6.9434  -15.3585   23.1856 C   0  0  0  0  0  0  0  0  0  0  0  0
    7.4390  -14.2927   24.0577 C   0  0  0  0  0  0  0  0  0  0  0  0
    7.8477  -13.2143   23.5577 O   0  0  0  0  0  0  0  0  0  0  0  0
    7.4755  -14.4356   25.4749 N   0  0  0  0  0  0  0  0  0  0  0  0
    8.2362  -13.4980   26.2447 C   0  0  1  0  0  0  0  0  0  0  0  0
    7.2475  -12.7219   27.1067 C   0  0  0  0  0  0  0  0  0  0  0  0
    5.6837  -12.5692   26.2023 S   0  0  0  0  0  0  0  0  0  0  0  0
    9.2422  -14.1811   27.1209 C   0  0  0  0  0  0  0  0  0  0  0  0
    9.3563  -15.4256   27.1841 O   0  0  0  0  0  0  0  0  0  0  0  0
   10.0704  -13.3942   27.8842 O   0  0  0  0  0  0  0  0  0  0  0  0
  2  1  1  0
  3  2  1  0
  3  4  1  6
  5  3  1  0
  6  5  2  0
  7  5  1  0
  8  7  1  0
  9  8  1  0
  9 11  1  0
 10  9  2  0
 12 11  1  0
 12 15  1  0
 12 13  1  1
 14 13  1  0
 15 17  1  0
 16 15  2  0
M  END
$$$$
