SGC.pdb
     RDKit          3D

 17 16  0  0  1  0  0  0  0  0999 V2000
    2.8314  -19.0780   21.5211 O   0  0  0  0  0  0  0  0  0  0  0  0
    3.6721  -18.0257   21.1468 C   0  0  0  0  0  0  0  0  0  0  0  0
    5.0196  -18.1927   21.8528 C   0  0  2  0  0  0  0  0  0  0  0  0
    4.8293  -18.1736   23.2913 N   0  0  0  0  0  0  0  0  0  0  0  0
    5.9232  -17.0809   21.4762 C   0  0  0  0  0  0  0  0  0  0  0  0
    6.5188  -17.0665   20.3653 O   0  0  0  0  0  0  0  0  0  0  0  0
    6.1351  -16.0066   22.3652 N   0  0  0  0  0  0  0  0  0  0  0  0
    6.9452  -14.8541   22.0329 C   0  0  0  0  0  0  0  0  0  0  0  0
    8.0358  -14.7393   23.0022 C   0  0  0  0  0  0  0  0  0  0  0  0
    8.9464  -13.8918   22.8220 O   0  0  0  0  0  0  0  0  0  0  0  0
    8.1035  -15.5662   24.1605 N   0  0  0  0  0  0  0  0  0  0  0  0
    8.5958  -15.0051   25.3824 C   0  0  1  0  0  0  0  0  0  0  0  0
    7.5370  -14.0305   25.8845 C   0  0  0  0  0  0  0  0  0  0  0  0
    8.1517  -13.2306   27.3908 S   0  0  0  0  0  0  0  0  0  0  0  0
    8.8451  -16.0579   26.4196 C   0  0  0  0  0  0  0  0  0  0  0  0
    8.1665  -17.1060   26.5025 O   0  0  0  0  0  0  0  0  0  0  0  0
    9.8677  -15.8511   27.3136 O   0  0  0  0  0  0  0  0  0  0  0  0
  2  1  1  0
  3  2  1  0
  3  4  1  1
  5  3  1  0
  6  5  2  0
  7  5  1  0
  8  7  1  0
  9  8  1  0
  9 11  1  0
 10  9  2  0
 12 11  1  0
 12 15  1  0
 12 13  1  1
 14 13  1  0
 15 17  1  0
 16 15  2  0
M  END
$$$$
