SGC.pdb
     RDKit          3D

 17 16  0  0  1  0  0  0  0  0999 V2000
    9.0872  -14.5300   14.3545 O   0  0  0  0  0  0  0  0  0  0  0  0
    8.3980  -13.9565   15.4270 C   0  0  0  0  0  0  0  0  0  0  0  0
    8.9393  -14.5410   16.7336 C   0  0  2  0  0  0  0  0  0  0  0  0
    8.8132  -15.9865   16.7177 N   0  0  0  0  0  0  0  0  0  0  0  0
    8.1665  -14.0071   17.8790 C   0  0  0  0  0  0  0  0  0  0  0  0
    7.0711  -14.5231   18.2295 O   0  0  0  0  0  0  0  0  0  0  0  0
    8.6491  -12.8988   18.6057 N   0  0  0  0  0  0  0  0  0  0  0  0
    7.9399  -12.3194   19.7266 C   0  0  0  0  0  0  0  0  0  0  0  0
    8.2345  -13.0946   20.9325 C   0  0  0  0  0  0  0  0  0  0  0  0
    7.8754  -12.6630   22.0571 O   0  0  0  0  0  0  0  0  0  0  0  0
    8.9243  -14.3401   20.8769 N   0  0  0  0  0  0  0  0  0  0  0  0
    9.2925  -14.9815   22.1030 C   0  0  1  0  0  0  0  0  0  0  0  0
    8.5865  -16.3319   22.1300 C   0  0  0  0  0  0  0  0  0  0  0  0
    6.8375  -16.0650   22.5257 S   0  0  0  0  0  0  0  0  0  0  0  0
   10.7741  -15.1844   22.2038 C   0  0  0  0  0  0  0  0  0  0  0  0
   11.5598  -14.9445   21.2599 O   0  0  0  0  0  0  0  0  0  0  0  0
   11.2798  -15.6555   23.3913 O   0  0  0  0  0  0  0  0  0  0  0  0
  2  1  1  0
  3  2  1  0
  3  4  1  6
  5  3  1  0
  6  5  2  0
  7  5  1  0
  8  7  1  0
  9  8  1  0
  9 11  1  0
 10  9  2  0
 12 11  1  0
 12 15  1  0
 12 13  1  6
 14 13  1  0
 15 17  1  0
 16 15  2  0
M  END
$$$$
