SGC.pdb
     RDKit          3D

 17 16  0  0  1  0  0  0  0  0999 V2000
    7.7180  -17.9945   19.5406 O   0  0  0  0  0  0  0  0  0  0  0  0
    8.9851  -17.4119   19.4449 C   0  0  0  0  0  0  0  0  0  0  0  0
    9.5669  -17.2567   20.8519 C   0  0  2  0  0  0  0  0  0  0  0  0
    9.6187  -18.5489   21.5101 N   0  0  0  0  0  0  0  0  0  0  0  0
    8.7112  -16.3484   21.6501 C   0  0  0  0  0  0  0  0  0  0  0  0
    8.5727  -15.1348   21.3390 O   0  0  0  0  0  0  0  0  0  0  0  0
    8.0286  -16.8322   22.7856 N   0  0  0  0  0  0  0  0  0  0  0  0
    7.0510  -16.0505   23.5124 C   0  0  0  0  0  0  0  0  0  0  0  0
    7.7457  -15.0578   24.3334 C   0  0  0  0  0  0  0  0  0  0  0  0
    9.0013  -15.0008   24.3174 O   0  0  0  0  0  0  0  0  0  0  0  0
    7.0393  -14.1394   25.1627 N   0  0  0  0  0  0  0  0  0  0  0  0
    7.7738  -13.1135   25.8397 C   0  0  1  0  0  0  0  0  0  0  0  0
    6.7819  -12.0101   26.1879 C   0  0  0  0  0  0  0  0  0  0  0  0
    5.3897  -12.7435   27.0882 S   0  0  0  0  0  0  0  0  0  0  0  0
    8.4212  -13.6239   27.0914 C   0  0  0  0  0  0  0  0  0  0  0  0
    9.1765  -12.9231   27.8015 O   0  0  0  0  0  0  0  0  0  0  0  0
    8.1657  -14.9210   27.4652 O   0  0  0  0  0  0  0  0  0  0  0  0
  2  1  1  0
  3  2  1  0
  3  4  1  1
  5  3  1  0
  6  5  2  0
  7  5  1  0
  8  7  1  0
  9  8  1  0
  9 11  1  0
 10  9  2  0
 12 11  1  0
 12 15  1  0
 12 13  1  1
 14 13  1  0
 15 17  1  0
 16 15  2  0
M  END
$$$$
