SGC.pdb
     RDKit          3D

 17 16  0  0  1  0  0  0  0  0999 V2000
    6.4937  -19.5863   21.7024 O   0  0  0  0  0  0  0  0  0  0  0  0
    6.1222  -19.7832   23.0356 C   0  0  0  0  0  0  0  0  0  0  0  0
    6.0425  -18.4238   23.7340 C   0  0  2  0  0  0  0  0  0  0  0  0
    4.9525  -17.6451   23.1761 N   0  0  0  0  0  0  0  0  0  0  0  0
    7.3096  -17.6831   23.5338 C   0  0  0  0  0  0  0  0  0  0  0  0
    8.3972  -18.1006   24.0152 O   0  0  0  0  0  0  0  0  0  0  0  0
    7.3206  -16.4835   22.7921 N   0  0  0  0  0  0  0  0  0  0  0  0
    8.5352  -15.7660   22.4680 C   0  0  0  0  0  0  0  0  0  0  0  0
    8.8515  -14.8422   23.5583 C   0  0  0  0  0  0  0  0  0  0  0  0
    9.9558  -14.2420   23.5692 O   0  0  0  0  0  0  0  0  0  0  0  0
    7.9388  -14.5951   24.6241 N   0  0  0  0  0  0  0  0  0  0  0  0
    8.3168  -13.6815   25.6599 C   0  0  1  0  0  0  0  0  0  0  0  0
    7.0886  -12.8386   25.9818 C   0  0  0  0  0  0  0  0  0  0  0  0
    5.7394  -13.9435   26.4771 S   0  0  0  0  0  0  0  0  0  0  0  0
    8.7762  -14.3965   26.8945 C   0  0  0  0  0  0  0  0  0  0  0  0
    9.2098  -13.7995   27.9052 O   0  0  0  0  0  0  0  0  0  0  0  0
    8.7133  -15.7689   26.9043 O   0  0  0  0  0  0  0  0  0  0  0  0
  2  1  1  0
  3  2  1  0
  3  4  1  6
  5  3  1  0
  6  5  2  0
  7  5  1  0
  8  7  1  0
  9  8  1  0
  9 11  1  0
 10  9  2  0
 12 11  1  0
 12 15  1  0
 12 13  1  1
 14 13  1  0
 15 17  1  0
 16 15  2  0
M  END
$$$$
