SGC.pdb
     RDKit          3D

 17 16  0  0  1  0  0  0  0  0999 V2000
    7.5498  -14.5764   18.2937 O   0  0  0  0  0  0  0  0  0  0  0  0
    7.3030  -13.2391   18.6179 C   0  0  0  0  0  0  0  0  0  0  0  0
    8.1865  -12.8453   19.8038 C   0  0  2  0  0  0  0  0  0  0  0  0
    9.5619  -13.2278   19.5434 N   0  0  0  0  0  0  0  0  0  0  0  0
    7.7215  -13.5394   21.0269 C   0  0  0  0  0  0  0  0  0  0  0  0
    6.5880  -13.3029   21.5253 O   0  0  0  0  0  0  0  0  0  0  0  0
    8.5491  -14.4884   21.6624 N   0  0  0  0  0  0  0  0  0  0  0  0
    8.1178  -15.2812   22.7939 C   0  0  0  0  0  0  0  0  0  0  0  0
    8.4981  -14.5976   24.0309 C   0  0  0  0  0  0  0  0  0  0  0  0
    9.6059  -14.0083   24.1050 O   0  0  0  0  0  0  0  0  0  0  0  0
    7.6448  -14.5755   25.1717 N   0  0  0  0  0  0  0  0  0  0  0  0
    8.1009  -13.9260   26.3635 C   0  0  1  0  0  0  0  0  0  0  0  0
    6.9012  -13.2042   26.9657 C   0  0  0  0  0  0  0  0  0  0  0  0
    6.2448  -12.0440   25.7370 S   0  0  0  0  0  0  0  0  0  0  0  0
    8.6520  -14.9042   27.3564 C   0  0  0  0  0  0  0  0  0  0  0  0
    9.1343  -14.5575   28.4578 O   0  0  0  0  0  0  0  0  0  0  0  0
    8.6204  -16.2386   27.0306 O   0  0  0  0  0  0  0  0  0  0  0  0
  2  1  1  0
  3  2  1  0
  3  4  1  6
  5  3  1  0
  6  5  2  0
  7  5  1  0
  8  7  1  0
  9  8  1  0
  9 11  1  0
 10  9  2  0
 12 11  1  0
 12 15  1  0
 12 13  1  1
 14 13  1  0
 15 17  1  0
 16 15  2  0
M  END
$$$$
