SGC.pdb
     RDKit          3D

 17 16  0  0  1  0  0  0  0  0999 V2000
    7.6829  -17.8961   18.2488 O   0  0  0  0  0  0  0  0  0  0  0  0
    8.7307  -17.0153   18.5327 C   0  0  0  0  0  0  0  0  0  0  0  0
    9.2083  -17.2586   19.9661 C   0  0  2  0  0  0  0  0  0  0  0  0
    9.6120  -18.6435   20.1239 N   0  0  0  0  0  0  0  0  0  0  0  0
    8.1085  -16.9710   20.9158 C   0  0  0  0  0  0  0  0  0  0  0  0
    7.0487  -17.6536   20.9193 O   0  0  0  0  0  0  0  0  0  0  0  0
    8.2299  -15.9156   21.8436 N   0  0  0  0  0  0  0  0  0  0  0  0
    7.2250  -15.6230   22.8434 C   0  0  0  0  0  0  0  0  0  0  0  0
    7.6645  -14.4795   23.6443 C   0  0  0  0  0  0  0  0  0  0  0  0
    8.8783  -14.1530   23.6553 O   0  0  0  0  0  0  0  0  0  0  0  0
    6.7522  -13.7113   24.4238 N   0  0  0  0  0  0  0  0  0  0  0  0
    7.2551  -12.9573   25.5324 C   0  0  1  0  0  0  0  0  0  0  0  0
    6.0683  -12.2288   26.1518 C   0  0  0  0  0  0  0  0  0  0  0  0
    6.6834  -11.0950   27.4257 S   0  0  0  0  0  0  0  0  0  0  0  0
    7.8993  -13.8377   26.5601 C   0  0  0  0  0  0  0  0  0  0  0  0
    7.5235  -15.0101   26.7840 O   0  0  0  0  0  0  0  0  0  0  0  0
    8.9486  -13.3225   27.2821 O   0  0  0  0  0  0  0  0  0  0  0  0
  2  1  1  0
  3  2  1  0
  3  4  1  6
  5  3  1  0
  6  5  2  0
  7  5  1  0
  8  7  1  0
  9  8  1  0
  9 11  1  0
 10  9  2  0
 12 11  1  0
 12 15  1  0
 12 13  1  1
 14 13  1  0
 15 17  1  0
 16 15  2  0
M  END
$$$$
