SGC.pdb
     RDKit          3D

 17 16  0  0  1  0  0  0  0  0999 V2000
    9.4734  -18.9075   21.1554 O   0  0  0  0  0  0  0  0  0  0  0  0
    8.9765  -18.2515   20.0253 C   0  0  0  0  0  0  0  0  0  0  0  0
    9.0798  -16.7403   20.2439 C   0  0  2  0  0  0  0  0  0  0  0  0
   10.4351  -16.3879   20.6245 N   0  0  0  0  0  0  0  0  0  0  0  0
    8.1573  -16.3268   21.3267 C   0  0  0  0  0  0  0  0  0  0  0  0
    6.9070  -16.4173   21.1941 O   0  0  0  0  0  0  0  0  0  0  0  0
    8.6686  -15.8187   22.5390 N   0  0  0  0  0  0  0  0  0  0  0  0
    7.8255  -15.4043   23.6401 C   0  0  0  0  0  0  0  0  0  0  0  0
    8.6690  -14.9199   24.7337 C   0  0  0  0  0  0  0  0  0  0  0  0
    9.9170  -15.0542   24.6678 O   0  0  0  0  0  0  0  0  0  0  0  0
    8.1181  -14.2919   25.8879 N   0  0  0  0  0  0  0  0  0  0  0  0
    9.0067  -13.7940   26.8942 C   0  0  1  0  0  0  0  0  0  0  0  0
    8.2121  -12.8094   27.7439 C   0  0  0  0  0  0  0  0  0  0  0  0
    7.2142  -11.7679   26.6456 S   0  0  0  0  0  0  0  0  0  0  0  0
    9.5400  -14.8937   27.7618 C   0  0  0  0  0  0  0  0  0  0  0  0
    9.1154  -16.0695   27.7083 O   0  0  0  0  0  0  0  0  0  0  0  0
   10.5400  -14.5838   28.6516 O   0  0  0  0  0  0  0  0  0  0  0  0
  2  1  1  0
  3  2  1  0
  3  4  1  1
  5  3  1  0
  6  5  2  0
  7  5  1  0
  8  7  1  0
  9  8  1  0
  9 11  1  0
 10  9  2  0
 12 11  1  0
 12 15  1  0
 12 13  1  1
 14 13  1  0
 15 17  1  0
 16 15  2  0
M  END
$$$$
