SGC.pdb
     RDKit          3D

 17 16  0  0  1  0  0  0  0  0999 V2000
    9.2999  -16.7125   13.9575 O   0  0  0  0  0  0  0  0  0  0  0  0
    8.0582  -16.5189   14.5698 C   0  0  0  0  0  0  0  0  0  0  0  0
    8.2224  -15.5223   15.7195 C   0  0  2  0  0  0  0  0  0  0  0  0
    8.9444  -14.3510   15.2585 N   0  0  0  0  0  0  0  0  0  0  0  0
    8.9868  -16.1509   16.8216 C   0  0  0  0  0  0  0  0  0  0  0  0
    8.5260  -17.1331   17.4634 O   0  0  0  0  0  0  0  0  0  0  0  0
   10.2588  -15.6549   17.1760 N   0  0  0  0  0  0  0  0  0  0  0  0
   11.0230  -16.1666   18.2936 C   0  0  0  0  0  0  0  0  0  0  0  0
   10.6074  -15.4753   19.5149 C   0  0  0  0  0  0  0  0  0  0  0  0
   11.3622  -15.4725   20.5200 O   0  0  0  0  0  0  0  0  0  0  0  0
    9.3588  -14.7951   19.6070 N   0  0  0  0  0  0  0  0  0  0  0  0
    9.0286  -14.1186   20.8251 C   0  0  1  0  0  0  0  0  0  0  0  0
    7.8071  -13.2535   20.5383 C   0  0  0  0  0  0  0  0  0  0  0  0
    8.2225  -12.0811   19.2194 S   0  0  0  0  0  0  0  0  0  0  0  0
    8.7173  -15.0808   21.9313 C   0  0  0  0  0  0  0  0  0  0  0  0
    8.5924  -16.3123   21.7473 O   0  0  0  0  0  0  0  0  0  0  0  0
    8.5645  -14.5755   23.1998 O   0  0  0  0  0  0  0  0  0  0  0  0
  2  1  1  0
  3  2  1  0
  3  4  1  6
  5  3  1  0
  6  5  2  0
  7  5  1  0
  8  7  1  0
  9  8  1  0
  9 11  1  0
 10  9  2  0
 12 11  1  0
 12 15  1  0
 12 13  1  6
 14 13  1  0
 15 17  1  0
 16 15  2  0
M  END
$$$$
