SGC.pdb
     RDKit          3D

 17 16  0  0  1  0  0  0  0  0999 V2000
    9.3963  -14.4860   18.8094 O   0  0  0  0  0  0  0  0  0  0  0  0
    8.0869  -14.2145   18.4019 C   0  0  0  0  0  0  0  0  0  0  0  0
    7.3565  -13.4869   19.5329 C   0  0  2  0  0  0  0  0  0  0  0  0
    8.1785  -12.4007   20.0332 N   0  0  0  0  0  0  0  0  0  0  0  0
    7.0855  -14.4304   20.6422 C   0  0  0  0  0  0  0  0  0  0  0  0
    6.3347  -15.4306   20.4848 O   0  0  0  0  0  0  0  0  0  0  0  0
    7.6701  -14.2229   21.9090 N   0  0  0  0  0  0  0  0  0  0  0  0
    7.4653  -15.1159   23.0295 C   0  0  0  0  0  0  0  0  0  0  0  0
    8.1123  -14.5529   24.2155 C   0  0  0  0  0  0  0  0  0  0  0  0
    9.3656  -14.4711   24.2650 O   0  0  0  0  0  0  0  0  0  0  0  0
    7.3612  -14.0871   25.3330 N   0  0  0  0  0  0  0  0  0  0  0  0
    8.0625  -13.6056   26.4848 C   0  0  1  0  0  0  0  0  0  0  0  0
    7.0470  -12.8690   27.3503 C   0  0  0  0  0  0  0  0  0  0  0  0
    6.0334  -11.8107   26.2830 S   0  0  0  0  0  0  0  0  0  0  0  0
    8.6793  -14.7230   27.2705 C   0  0  0  0  0  0  0  0  0  0  0  0
    8.4402  -15.9296   27.0406 O   0  0  0  0  0  0  0  0  0  0  0  0
    9.5443  -14.3945   28.2861 O   0  0  0  0  0  0  0  0  0  0  0  0
  2  1  1  0
  3  2  1  0
  3  4  1  1
  5  3  1  0
  6  5  2  0
  7  5  1  0
  8  7  1  0
  9  8  1  0
  9 11  1  0
 10  9  2  0
 12 11  1  0
 12 15  1  0
 12 13  1  1
 14 13  1  0
 15 17  1  0
 16 15  2  0
M  END
$$$$
