SGC.pdb
     RDKit          3D

 17 16  0  0  1  0  0  0  0  0999 V2000
    9.9012  -17.2153   18.8374 O   0  0  0  0  0  0  0  0  0  0  0  0
    9.4334  -18.1014   19.8122 C   0  0  0  0  0  0  0  0  0  0  0  0
    9.8618  -17.5932   21.1907 C   0  0  2  0  0  0  0  0  0  0  0  0
    9.4530  -18.5374   22.2140 N   0  0  0  0  0  0  0  0  0  0  0  0
    9.2207  -16.2861   21.4638 C   0  0  0  0  0  0  0  0  0  0  0  0
    9.6409  -15.2244   20.9297 O   0  0  0  0  0  0  0  0  0  0  0  0
    8.1158  -16.2063   22.3368 N   0  0  0  0  0  0  0  0  0  0  0  0
    7.4124  -14.9712   22.6102 C   0  0  0  0  0  0  0  0  0  0  0  0
    7.9947  -14.3404   23.7956 C   0  0  0  0  0  0  0  0  0  0  0  0
    9.2438  -14.2691   23.9166 O   0  0  0  0  0  0  0  0  0  0  0  0
    7.1844  -13.7959   24.8333 N   0  0  0  0  0  0  0  0  0  0  0  0
    7.8004  -12.9774   25.8338 C   0  0  1  0  0  0  0  0  0  0  0  0
    6.8127  -11.8673   26.1727 C   0  0  0  0  0  0  0  0  0  0  0  0
    5.2559  -12.6209   26.7160 S   0  0  0  0  0  0  0  0  0  0  0  0
    8.1262  -13.7582   27.0710 C   0  0  0  0  0  0  0  0  0  0  0  0
    8.7609  -13.2735   28.0343 O   0  0  0  0  0  0  0  0  0  0  0  0
    7.7034  -15.0638   27.1379 O   0  0  0  0  0  0  0  0  0  0  0  0
  2  1  1  0
  3  2  1  0
  3  4  1  1
  5  3  1  0
  6  5  2  0
  7  5  1  0
  8  7  1  0
  9  8  1  0
  9 11  1  0
 10  9  2  0
 12 11  1  0
 12 15  1  0
 12 13  1  1
 14 13  1  0
 15 17  1  0
 16 15  2  0
M  END
$$$$
