SGC.pdb
     RDKit          3D

 17 16  0  0  1  0  0  0  0  0999 V2000
   -1.9063  -25.8721   25.2570 O   0  0  0  0  0  0  0  0  0  0  0  0
   -2.5766  -24.6697   25.5005 C   0  0  0  0  0  0  0  0  0  0  0  0
   -3.9571  -24.9809   26.0831 C   0  0  2  0  0  0  0  0  0  0  0  0
   -4.7490  -25.7135   25.1126 N   0  0  0  0  0  0  0  0  0  0  0  0
   -4.6570  -23.7181   26.4144 C   0  0  0  0  0  0  0  0  0  0  0  0
   -4.2774  -22.9882   27.3695 O   0  0  0  0  0  0  0  0  0  0  0  0
   -5.7735  -23.3059   25.6575 N   0  0  0  0  0  0  0  0  0  0  0  0
   -6.5630  -22.1380   25.9856 C   0  0  0  0  0  0  0  0  0  0  0  0
   -7.5391  -22.4936   27.0166 C   0  0  0  0  0  0  0  0  0  0  0  0
   -8.5510  -23.1742   26.7120 O   0  0  0  0  0  0  0  0  0  0  0  0
   -7.3813  -22.0898   28.3738 N   0  0  0  0  0  0  0  0  0  0  0  0
   -8.3281  -22.5477   29.3456 C   0  0  1  0  0  0  0  0  0  0  0  0
   -7.9646  -23.9900   29.6780 C   0  0  0  0  0  0  0  0  0  0  0  0
   -6.2714  -24.0279   30.3247 S   0  0  0  0  0  0  0  0  0  0  0  0
   -8.2931  -21.7179   30.5933 C   0  0  0  0  0  0  0  0  0  0  0  0
   -9.0665  -21.9073   31.5586 O   0  0  0  0  0  0  0  0  0  0  0  0
   -7.3656  -20.7071   30.6680 O   0  0  0  0  0  0  0  0  0  0  0  0
  2  1  1  0
  3  2  1  0
  3  4  1  6
  5  3  1  0
  6  5  2  0
  7  5  1  0
  8  7  1  0
  9  8  1  0
  9 11  1  0
 10  9  2  0
 12 11  1  0
 12 15  1  0
 12 13  1  1
 14 13  1  0
 15 17  1  0
 16 15  2  0
M  END
$$$$
