SGC.pdb
     RDKit          3D

 17 16  0  0  1  0  0  0  0  0999 V2000
    8.1036  -19.3310   18.8986 O   0  0  0  0  0  0  0  0  0  0  0  0
    7.5518  -18.0647   19.1140 C   0  0  0  0  0  0  0  0  0  0  0  0
    8.4256  -17.3072   20.1163 C   0  0  2  0  0  0  0  0  0  0  0  0
    9.6293  -18.0680   20.3960 N   0  0  0  0  0  0  0  0  0  0  0  0
    7.6807  -17.1105   21.3814 C   0  0  0  0  0  0  0  0  0  0  0  0
    6.6513  -17.7870   21.6492 O   0  0  0  0  0  0  0  0  0  0  0  0
    8.1158  -16.1511   22.3193 N   0  0  0  0  0  0  0  0  0  0  0  0
    7.7398  -16.1849   23.7166 C   0  0  0  0  0  0  0  0  0  0  0  0
    8.3722  -15.0620   24.4104 C   0  0  0  0  0  0  0  0  0  0  0  0
    9.6159  -14.8983   24.3316 O   0  0  0  0  0  0  0  0  0  0  0  0
    7.6173  -14.1334   25.1836 N   0  0  0  0  0  0  0  0  0  0  0  0
    8.2998  -13.3133   26.1386 C   0  0  1  0  0  0  0  0  0  0  0  0
    7.3810  -12.1396   26.4567 C   0  0  0  0  0  0  0  0  0  0  0  0
    5.7162  -12.7778   26.7853 S   0  0  0  0  0  0  0  0  0  0  0  0
    8.6131  -14.0646   27.3970 C   0  0  0  0  0  0  0  0  0  0  0  0
    8.1790  -15.2151   27.6289 O   0  0  0  0  0  0  0  0  0  0  0  0
    9.4139  -13.4516   28.3300 O   0  0  0  0  0  0  0  0  0  0  0  0
  2  1  1  0
  3  2  1  0
  3  4  1  1
  5  3  1  0
  6  5  2  0
  7  5  1  0
  8  7  1  0
  9  8  1  0
  9 11  1  0
 10  9  2  0
 12 11  1  0
 12 15  1  0
 12 13  1  1
 14 13  1  0
 15 17  1  0
 16 15  2  0
M  END
$$$$
