SGC.pdb
     RDKit          3D

 17 16  0  0  1  0  0  0  0  0999 V2000
    4.8293  -19.7217   22.4402 O   0  0  0  0  0  0  0  0  0  0  0  0
    5.9271  -19.0320   21.9174 C   0  0  0  0  0  0  0  0  0  0  0  0
    6.7231  -18.4191   23.0719 C   0  0  2  0  0  0  0  0  0  0  0  0
    5.8486  -18.1872   24.2065 N   0  0  0  0  0  0  0  0  0  0  0  0
    7.3065  -17.1256   22.6468 C   0  0  0  0  0  0  0  0  0  0  0  0
    8.2692  -17.0749   21.8346 O   0  0  0  0  0  0  0  0  0  0  0  0
    6.7883  -15.9140   23.1497 N   0  0  0  0  0  0  0  0  0  0  0  0
    7.3139  -14.6166   22.7816 C   0  0  0  0  0  0  0  0  0  0  0  0
    7.8541  -13.9625   23.9743 C   0  0  0  0  0  0  0  0  0  0  0  0
    8.5851  -12.9471   23.8541 O   0  0  0  0  0  0  0  0  0  0  0  0
    7.5770  -14.4427   25.2868 N   0  0  0  0  0  0  0  0  0  0  0  0
    8.2670  -13.8575   26.3967 C   0  0  1  0  0  0  0  0  0  0  0  0
    7.2255  -13.1244   27.2337 C   0  0  0  0  0  0  0  0  0  0  0  0
    6.0810  -12.2691   26.1178 S   0  0  0  0  0  0  0  0  0  0  0  0
    8.9521  -14.8927   27.2368 C   0  0  0  0  0  0  0  0  0  0  0  0
    8.9028  -16.1170   26.9827 O   0  0  0  0  0  0  0  0  0  0  0  0
    9.6628  -14.4652   28.3321 O   0  0  0  0  0  0  0  0  0  0  0  0
  2  1  1  0
  3  2  1  0
  3  4  1  1
  5  3  1  0
  6  5  2  0
  7  5  1  0
  8  7  1  0
  9  8  1  0
  9 11  1  0
 10  9  2  0
 12 11  1  0
 12 15  1  0
 12 13  1  1
 14 13  1  0
 15 17  1  0
 16 15  2  0
M  END
$$$$
