SGC.pdb
     RDKit          3D

 17 16  0  0  1  0  0  0  0  0999 V2000
   -2.0501  -27.0983   31.4195 O   0  0  0  0  0  0  0  0  0  0  0  0
   -2.4196  -25.8236   30.9803 C   0  0  0  0  0  0  0  0  0  0  0  0
   -3.7709  -25.9171   30.2682 C   0  0  2  0  0  0  0  0  0  0  0  0
   -3.6145  -26.6053   29.0002 N   0  0  0  0  0  0  0  0  0  0  0  0
   -4.2965  -24.5563   30.0109 C   0  0  0  0  0  0  0  0  0  0  0  0
   -4.5444  -23.7589   30.9551 O   0  0  0  0  0  0  0  0  0  0  0  0
   -4.5311  -24.1245   28.6888 N   0  0  0  0  0  0  0  0  0  0  0  0
   -5.1618  -22.8612   28.3704 C   0  0  0  0  0  0  0  0  0  0  0  0
   -6.5758  -23.0932   28.0723 C   0  0  0  0  0  0  0  0  0  0  0  0
   -7.1261  -24.1612   28.4419 O   0  0  0  0  0  0  0  0  0  0  0  0
   -7.3632  -22.1375   27.3674 N   0  0  0  0  0  0  0  0  0  0  0  0
   -8.7152  -22.4687   27.0317 C   0  0  1  0  0  0  0  0  0  0  0  0
   -9.5226  -22.4120   28.3231 C   0  0  0  0  0  0  0  0  0  0  0  0
   -8.4277  -21.8892   29.6701 S   0  0  0  0  0  0  0  0  0  0  0  0
   -9.2927  -21.5119   26.0329 C   0  0  0  0  0  0  0  0  0  0  0  0
   -8.6723  -20.5097   25.6127 O   0  0  0  0  0  0  0  0  0  0  0  0
  -10.5611  -21.7574   25.5655 O   0  0  0  0  0  0  0  0  0  0  0  0
  2  1  1  0
  3  2  1  0
  3  4  1  6
  5  3  1  0
  6  5  2  0
  7  5  1  0
  8  7  1  0
  9  8  1  0
  9 11  1  0
 10  9  2  0
 12 11  1  0
 12 15  1  0
 12 13  1  1
 14 13  1  0
 15 17  1  0
 16 15  2  0
M  END
$$$$
