YST.pdb
     RDKit          3D

 26 26  0  0  1  0  0  0  0  0999 V2000
   10.7247  -15.7849   30.3287 O   0  0  0  0  0  0  0  0  0  0  0  0
   10.2118  -15.2861   29.1205 C   0  0  0  0  0  0  0  0  0  0  0  0
   10.1560  -16.0500   27.9789 C   0  0  0  0  0  0  0  0  0  0  0  0
    9.6378  -15.4892   26.8284 C   0  0  0  0  0  0  0  0  0  0  0  0
    9.1888  -14.1964   26.8277 C   0  0  0  0  0  0  0  0  0  0  0  0
    8.6413  -13.5966   25.6047 C   0  0  0  0  0  0  0  0  0  0  0  0
    7.2248  -14.0855   25.4005 C   0  0  2  0  0  0  0  0  0  0  0  0
    6.7378  -14.6410   26.6793 N   0  0  0  0  0  0  0  0  0  0  0  0
    7.1565  -15.1265   24.3542 C   0  0  0  0  0  0  0  0  0  0  0  0
    6.7955  -16.3064   24.5485 O   0  0  0  0  0  0  0  0  0  0  0  0
    9.2530  -13.4510   27.9767 C   0  0  0  0  0  0  0  0  0  0  0  0
    9.7641  -13.9761   29.1463 C   0  0  0  0  0  0  0  0  0  0  0  0
    8.3291  -14.1926   20.3763 O   0  0  0  0  0  0  0  0  0  0  0  0
    7.0829  -14.7695   20.6836 C   0  0  0  0  0  0  0  0  0  0  0  0
    7.3190  -15.6706   21.9016 C   0  0  2  0  0  0  0  0  0  0  0  0
    7.5281  -14.7650   23.0240 N   0  0  0  0  0  0  0  0  0  0  0  0
    8.5429  -16.4578   21.6459 C   0  0  0  0  0  0  0  0  0  0  0  0
    8.6023  -17.2891   20.7095 O   0  0  0  0  0  0  0  0  0  0  0  0
   11.5920  -15.9635   20.3231 C   0  0  0  0  0  0  0  0  0  0  0  0
   11.9212  -16.3222   21.7605 C   0  0  1  0  0  0  0  0  0  0  0  0
   12.1023  -15.1540   22.4824 O   0  0  0  0  0  0  0  0  0  0  0  0
   10.7979  -17.1410   22.3758 C   0  0  2  0  0  0  0  0  0  0  0  0
    9.6618  -16.2570   22.4846 N   0  0  0  0  0  0  0  0  0  0  0  0
   11.1795  -17.7002   23.6813 C   0  0  0  0  0  0  0  0  0  0  0  0
   12.1485  -18.6677   23.7665 O   0  0  0  0  0  0  0  0  0  0  0  0
   10.6111  -17.2847   24.7161 O   0  0  0  0  0  0  0  0  0  0  0  0
  2  3  2  0
  2  1  1  0
  4  3  1  0
  5  4  2  0
  6  5  1  0
  7  6  1  0
  7  9  1  0
  7  8  1  1
  9 16  1  0
  9 10  2  0
 11  5  1  0
 11 12  2  0
 12  2  1  0
 14 13  1  0
 15 14  1  6
 16 15  1  0
 17 15  1  0
 17 18  2  0
 20 19  1  6
 20 21  1  0
 20 22  1  0
 22 23  1  1
 23 17  1  0
 24 22  1  0
 25 24  1  0
 26 24  2  0
M  END
$$$$
