YST.pdb
     RDKit          3D

 26 26  0  0  1  0  0  0  0  0999 V2000
    8.1776  -12.5822   17.0093 O   0  0  0  0  0  0  0  0  0  0  0  0
    8.0724  -13.0974   18.3112 C   0  0  0  0  0  0  0  0  0  0  0  0
    9.1766  -13.4584   19.0463 C   0  0  0  0  0  0  0  0  0  0  0  0
    8.9928  -13.9577   20.3205 C   0  0  0  0  0  0  0  0  0  0  0  0
    7.7332  -14.0899   20.8393 C   0  0  0  0  0  0  0  0  0  0  0  0
    7.5350  -14.6245   22.1921 C   0  0  0  0  0  0  0  0  0  0  0  0
    7.5437  -16.1358   22.1372 C   0  0  2  0  0  0  0  0  0  0  0  0
    6.1844  -16.5944   21.7866 N   0  0  0  0  0  0  0  0  0  0  0  0
    7.9419  -16.7228   23.4333 C   0  0  0  0  0  0  0  0  0  0  0  0
    7.2223  -16.7451   24.4540 O   0  0  0  0  0  0  0  0  0  0  0  0
    6.6447  -13.7242   20.0901 C   0  0  0  0  0  0  0  0  0  0  0  0
    6.7877  -13.2211   18.8128 C   0  0  0  0  0  0  0  0  0  0  0  0
   11.5288  -19.0452   25.6988 O   0  0  0  0  0  0  0  0  0  0  0  0
   11.0505  -18.5357   24.4775 C   0  0  0  0  0  0  0  0  0  0  0  0
    9.7867  -17.7357   24.8149 C   0  0  2  0  0  0  0  0  0  0  0  0
    9.2403  -17.3079   23.5334 N   0  0  0  0  0  0  0  0  0  0  0  0
   10.1990  -16.5616   25.6115 C   0  0  0  0  0  0  0  0  0  0  0  0
   10.7416  -15.5661   25.0766 O   0  0  0  0  0  0  0  0  0  0  0  0
    9.6330  -13.3094   28.7741 C   0  0  0  0  0  0  0  0  0  0  0  0
    9.2585  -14.5052   27.9180 C   0  0  1  0  0  0  0  0  0  0  0  0
    8.9023  -14.0577   26.6564 O   0  0  0  0  0  0  0  0  0  0  0  0
   10.4271  -15.4716   27.8125 C   0  0  2  0  0  0  0  0  0  0  0  0
    9.9696  -16.5776   27.0053 N   0  0  0  0  0  0  0  0  0  0  0  0
   10.8899  -15.9179   29.1352 C   0  0  0  0  0  0  0  0  0  0  0  0
   10.8119  -17.2412   29.4888 O   0  0  0  0  0  0  0  0  0  0  0  0
   11.3567  -15.0777   29.9370 O   0  0  0  0  0  0  0  0  0  0  0  0
  2  3  2  0
  2  1  1  0
  4  3  1  0
  5  4  2  0
  6  5  1  0
  7  6  1  0
  7  9  1  0
  7  8  1  1
  9 16  1  0
  9 10  2  0
 11  5  1  0
 11 12  2  0
 12  2  1  0
 14 13  1  0
 15 14  1  6
 16 15  1  0
 17 15  1  0
 17 18  2  0
 20 19  1  1
 20 21  1  0
 20 22  1  0
 22 23  1  6
 23 17  1  0
 24 22  1  0
 25 24  1  0
 26 24  2  0
M  END
$$$$
