YST.pdb
     RDKit          3D

 26 26  0  0  1  0  0  0  0  0999 V2000
    8.1346  -12.3232   16.5668 O   0  0  0  0  0  0  0  0  0  0  0  0
    8.0349  -12.8976   17.8442 C   0  0  0  0  0  0  0  0  0  0  0  0
    9.1282  -13.0554   18.6625 C   0  0  0  0  0  0  0  0  0  0  0  0
    8.9507  -13.6292   19.9058 C   0  0  0  0  0  0  0  0  0  0  0  0
    7.7080  -14.0327   20.3132 C   0  0  0  0  0  0  0  0  0  0  0  0
    7.5175  -14.6469   21.6330 C   0  0  0  0  0  0  0  0  0  0  0  0
    8.1264  -16.0312   21.6312 C   0  0  2  0  0  0  0  0  0  0  0  0
    7.4145  -16.8490   20.6286 N   0  0  0  0  0  0  0  0  0  0  0  0
    8.0164  -16.6731   22.9574 C   0  0  0  0  0  0  0  0  0  0  0  0
    7.1230  -17.4831   23.2827 O   0  0  0  0  0  0  0  0  0  0  0  0
    6.6301  -13.8666   19.4823 C   0  0  0  0  0  0  0  0  0  0  0  0
    6.7672  -13.2972   18.2325 C   0  0  0  0  0  0  0  0  0  0  0  0
    9.8768  -19.2752   25.8451 O   0  0  0  0  0  0  0  0  0  0  0  0
    9.6866  -18.5065   24.6820 C   0  0  0  0  0  0  0  0  0  0  0  0
    9.1563  -17.1466   25.1516 C   0  0  2  0  0  0  0  0  0  0  0  0
    8.9980  -16.3491   23.9422 N   0  0  0  0  0  0  0  0  0  0  0  0
   10.1813  -16.5449   26.0293 C   0  0  0  0  0  0  0  0  0  0  0  0
   11.3153  -16.2351   25.5937 O   0  0  0  0  0  0  0  0  0  0  0  0
    9.9440  -13.4533   27.7016 C   0  0  0  0  0  0  0  0  0  0  0  0
   10.1998  -14.4542   28.8132 C   0  0  1  0  0  0  0  0  0  0  0  0
    8.9943  -14.7662   29.4198 O   0  0  0  0  0  0  0  0  0  0  0  0
   10.8401  -15.7158   28.2570 C   0  0  2  0  0  0  0  0  0  0  0  0
    9.8601  -16.3204   27.3865 N   0  0  0  0  0  0  0  0  0  0  0  0
   11.2590  -16.6345   29.3263 C   0  0  0  0  0  0  0  0  0  0  0  0
   12.2608  -16.2802   30.1941 O   0  0  0  0  0  0  0  0  0  0  0  0
   10.6921  -17.7448   29.4377 O   0  0  0  0  0  0  0  0  0  0  0  0
  2  3  2  0
  2  1  1  0
  4  3  1  0
  5  4  2  0
  6  5  1  0
  7  6  1  0
  7  9  1  0
  7  8  1  6
  9 16  1  0
  9 10  2  0
 11  5  1  0
 11 12  2  0
 12  2  1  0
 14 13  1  0
 15 14  1  6
 16 15  1  0
 17 15  1  0
 17 18  2  0
 20 19  1  6
 20 21  1  0
 20 22  1  0
 22 23  1  6
 23 17  1  0
 24 22  1  0
 25 24  1  0
 26 24  2  0
M  END
$$$$
