YST.pdb
     RDKit          3D

 26 26  0  0  1  0  0  0  0  0999 V2000
    7.8697  -13.4419   16.1027 O   0  0  0  0  0  0  0  0  0  0  0  0
    7.7617  -13.6932   17.4799 C   0  0  0  0  0  0  0  0  0  0  0  0
    7.0347  -12.8802   18.3169 C   0  0  0  0  0  0  0  0  0  0  0  0
    6.9753  -13.1925   19.6606 C   0  0  0  0  0  0  0  0  0  0  0  0
    7.6292  -14.2918   20.1474 C   0  0  0  0  0  0  0  0  0  0  0  0
    7.5710  -14.6235   21.5763 C   0  0  0  0  0  0  0  0  0  0  0  0
    7.4334  -16.1212   21.7352 C   0  0  2  0  0  0  0  0  0  0  0  0
    6.0916  -16.5158   21.2613 N   0  0  0  0  0  0  0  0  0  0  0  0
    7.5985  -16.5339   23.1443 C   0  0  0  0  0  0  0  0  0  0  0  0
    6.6709  -16.6019   23.9779 O   0  0  0  0  0  0  0  0  0  0  0  0
    8.3490  -15.0901   19.2963 C   0  0  0  0  0  0  0  0  0  0  0  0
    8.4321  -14.8111   17.9471 C   0  0  0  0  0  0  0  0  0  0  0  0
   11.0969  -18.2319   24.0143 O   0  0  0  0  0  0  0  0  0  0  0  0
   10.0232  -18.5602   24.8626 C   0  0  0  0  0  0  0  0  0  0  0  0
    9.1599  -17.2971   24.9657 C   0  0  2  0  0  0  0  0  0  0  0  0
    8.9090  -16.8811   23.5917 N   0  0  0  0  0  0  0  0  0  0  0  0
    9.9515  -16.2699   25.6736 C   0  0  0  0  0  0  0  0  0  0  0  0
   10.7743  -15.5448   25.0665 O   0  0  0  0  0  0  0  0  0  0  0  0
    9.1294  -13.2929   26.8642 C   0  0  0  0  0  0  0  0  0  0  0  0
    9.5949  -13.9976   28.1250 C   0  0  1  0  0  0  0  0  0  0  0  0
    8.4885  -14.4959   28.7930 O   0  0  0  0  0  0  0  0  0  0  0  0
   10.5451  -15.1331   27.7806 C   0  0  2  0  0  0  0  0  0  0  0  0
    9.7648  -16.1145   27.0652 N   0  0  0  0  0  0  0  0  0  0  0  0
   11.1719  -15.7059   28.9814 C   0  0  0  0  0  0  0  0  0  0  0  0
   11.9716  -14.9324   29.7842 O   0  0  0  0  0  0  0  0  0  0  0  0
   10.9688  -16.9080   29.2649 O   0  0  0  0  0  0  0  0  0  0  0  0
  2  3  2  0
  2  1  1  0
  4  3  1  0
  5  4  2  0
  6  5  1  0
  7  6  1  0
  7  9  1  0
  7  8  1  1
  9 16  1  0
  9 10  2  0
 11  5  1  0
 11 12  2  0
 12  2  1  0
 14 13  1  0
 15 14  1  6
 16 15  1  0
 17 15  1  0
 17 18  2  0
 20 19  1  6
 20 21  1  0
 20 22  1  0
 22 23  1  1
 23 17  1  0
 24 22  1  0
 25 24  1  0
 26 24  2  0
M  END
$$$$
