YST.pdb
     RDKit          3D

 26 26  0  0  1  0  0  0  0  0999 V2000
    4.9531  -27.6631   23.0599 O   0  0  0  0  0  0  0  0  0  0  0  0
    5.2080  -26.2937   22.8835 C   0  0  0  0  0  0  0  0  0  0  0  0
    6.2873  -25.6700   23.4633 C   0  0  0  0  0  0  0  0  0  0  0  0
    6.4718  -24.3194   23.2434 C   0  0  0  0  0  0  0  0  0  0  0  0
    5.5946  -23.6171   22.4621 C   0  0  0  0  0  0  0  0  0  0  0  0
    5.7863  -22.1801   22.2303 C   0  0  0  0  0  0  0  0  0  0  0  0
    5.2848  -21.4101   23.4315 C   0  0  2  0  0  0  0  0  0  0  0  0
    3.8111  -21.5008   23.4575 N   0  0  0  0  0  0  0  0  0  0  0  0
    5.6893  -19.9902   23.3722 C   0  0  0  0  0  0  0  0  0  0  0  0
    4.9299  -19.0475   23.0646 O   0  0  0  0  0  0  0  0  0  0  0  0
    4.5243  -24.2574   21.8927 C   0  0  0  0  0  0  0  0  0  0  0  0
    4.3062  -25.6061   22.0889 C   0  0  0  0  0  0  0  0  0  0  0  0
    7.3496  -18.5892   26.1061 O   0  0  0  0  0  0  0  0  0  0  0  0
    6.8948  -17.7387   25.0814 C   0  0  0  0  0  0  0  0  0  0  0  0
    7.4938  -18.2825   23.7788 C   0  0  2  0  0  0  0  0  0  0  0  0
    7.0432  -19.6654   23.6880 N   0  0  0  0  0  0  0  0  0  0  0  0
    8.9649  -18.2323   23.9069 C   0  0  0  0  0  0  0  0  0  0  0  0
    9.6183  -19.2142   24.3317 O   0  0  0  0  0  0  0  0  0  0  0  0
   12.7638  -16.0576   21.7645 C   0  0  0  0  0  0  0  0  0  0  0  0
   11.3095  -16.0301   22.1972 C   0  0  1  0  0  0  0  0  0  0  0  0
   10.5097  -16.2701   21.0921 O   0  0  0  0  0  0  0  0  0  0  0  0
   11.0504  -17.0843   23.2614 C   0  0  2  0  0  0  0  0  0  0  0  0
    9.6342  -17.0442   23.5382 N   0  0  0  0  0  0  0  0  0  0  0  0
   11.8490  -16.8470   24.4733 C   0  0  0  0  0  0  0  0  0  0  0  0
   13.0576  -17.4738   24.6430 O   0  0  0  0  0  0  0  0  0  0  0  0
   11.4153  -16.0663   25.3503 O   0  0  0  0  0  0  0  0  0  0  0  0
  2  3  2  0
  2  1  1  0
  4  3  1  0
  5  4  2  0
  6  5  1  0
  7  6  1  0
  7  9  1  0
  7  8  1  6
  9 16  1  0
  9 10  2  0
 11  5  1  0
 11 12  2  0
 12  2  1  0
 14 13  1  0
 15 14  1  1
 16 15  1  0
 17 15  1  0
 17 18  2  0
 20 19  1  6
 20 21  1  0
 20 22  1  0
 22 23  1  1
 23 17  1  0
 24 22  1  0
 25 24  1  0
 26 24  2  0
M  END
$$$$
