YST.pdb
     RDKit          3D

 26 26  0  0  1  0  0  0  0  0999 V2000
    5.1502  -10.8524   28.2768 O   0  0  0  0  0  0  0  0  0  0  0  0
    5.8130  -11.7483   27.4226 C   0  0  0  0  0  0  0  0  0  0  0  0
    5.2535  -12.1866   26.2459 C   0  0  0  0  0  0  0  0  0  0  0  0
    5.9670  -13.0681   25.4582 C   0  0  0  0  0  0  0  0  0  0  0  0
    7.2083  -13.4959   25.8446 C   0  0  0  0  0  0  0  0  0  0  0  0
    7.9672  -14.4363   25.0109 C   0  0  0  0  0  0  0  0  0  0  0  0
    7.0479  -15.5429   24.5445 C   0  0  2  0  0  0  0  0  0  0  0  0
    6.6848  -16.3674   25.7146 N   0  0  0  0  0  0  0  0  0  0  0  0
    7.6973  -16.3936   23.5258 C   0  0  0  0  0  0  0  0  0  0  0  0
    8.1311  -17.5461   23.7345 O   0  0  0  0  0  0  0  0  0  0  0  0
    7.7491  -13.0470   27.0218 C   0  0  0  0  0  0  0  0  0  0  0  0
    7.0669  -12.1657   27.8360 C   0  0  0  0  0  0  0  0  0  0  0  0
    8.9482  -14.6899   19.9892 O   0  0  0  0  0  0  0  0  0  0  0  0
    8.1624  -15.8484   19.8461 C   0  0  0  0  0  0  0  0  0  0  0  0
    8.3831  -16.6733   21.1197 C   0  0  2  0  0  0  0  0  0  0  0  0
    7.8428  -15.8670   22.2069 N   0  0  0  0  0  0  0  0  0  0  0  0
    9.8397  -16.8513   21.2913 C   0  0  0  0  0  0  0  0  0  0  0  0
   10.5089  -16.0916   22.0307 O   0  0  0  0  0  0  0  0  0  0  0  0
   13.4499  -20.1195   21.0155 C   0  0  0  0  0  0  0  0  0  0  0  0
   11.9995  -19.7110   20.8357 C   0  0  1  0  0  0  0  0  0  0  0  0
   11.2467  -20.2763   21.8517 O   0  0  0  0  0  0  0  0  0  0  0  0
   11.8639  -18.1974   20.8730 C   0  0  2  0  0  0  0  0  0  0  0  0
   10.4767  -17.9057   20.6000 N   0  0  0  0  0  0  0  0  0  0  0  0
   12.7583  -17.5434   19.9060 C   0  0  0  0  0  0  0  0  0  0  0  0
   13.9552  -17.0123   20.3152 O   0  0  0  0  0  0  0  0  0  0  0  0
   12.4169  -17.4755   18.7037 O   0  0  0  0  0  0  0  0  0  0  0  0
  2  3  2  0
  2  1  1  0
  4  3  1  0
  5  4  2  0
  6  5  1  0
  7  6  1  0
  7  9  1  0
  7  8  1  1
  9 16  1  0
  9 10  2  0
 11  5  1  0
 11 12  2  0
 12  2  1  0
 14 13  1  0
 15 14  1  6
 16 15  1  0
 17 15  1  0
 17 18  2  0
 20 19  1  1
 20 21  1  0
 20 22  1  0
 22 23  1  6
 23 17  1  0
 24 22  1  0
 25 24  1  0
 26 24  2  0
M  END
$$$$
