YST.pdb
     RDKit          3D

 26 26  0  0  1  0  0  0  0  0999 V2000
   16.7254  -14.8805   18.7481 O   0  0  0  0  0  0  0  0  0  0  0  0
   15.3926  -14.6146   19.1008 C   0  0  0  0  0  0  0  0  0  0  0  0
   14.6293  -13.6888   18.4299 C   0  0  0  0  0  0  0  0  0  0  0  0
   13.3257  -13.4825   18.8356 C   0  0  0  0  0  0  0  0  0  0  0  0
   12.8058  -14.1881   19.8868 C   0  0  0  0  0  0  0  0  0  0  0  0
   11.4214  -13.9674   20.3227 C   0  0  0  0  0  0  0  0  0  0  0  0
   10.6534  -15.2662   20.2201 C   0  0  2  0  0  0  0  0  0  0  0  0
   10.2585  -15.4606   18.8105 N   0  0  0  0  0  0  0  0  0  0  0  0
    9.4459  -15.2503   21.0715 C   0  0  0  0  0  0  0  0  0  0  0  0
    8.3574  -14.7286   20.7507 O   0  0  0  0  0  0  0  0  0  0  0  0
   13.5834  -15.1071   20.5430 C   0  0  0  0  0  0  0  0  0  0  0  0
   14.8906  -15.3415   20.1672 C   0  0  0  0  0  0  0  0  0  0  0  0
    9.3810  -17.5566   24.5548 O   0  0  0  0  0  0  0  0  0  0  0  0
    8.2339  -17.2701   23.7917 C   0  0  0  0  0  0  0  0  0  0  0  0
    8.4048  -15.8317   23.2888 C   0  0  2  0  0  0  0  0  0  0  0  0
    9.5216  -15.8740   22.3535 N   0  0  0  0  0  0  0  0  0  0  0  0
    8.7454  -14.9876   24.4526 C   0  0  0  0  0  0  0  0  0  0  0  0
    9.9367  -14.7458   24.7590 O   0  0  0  0  0  0  0  0  0  0  0  0
    6.7201  -11.7213   25.6581 C   0  0  0  0  0  0  0  0  0  0  0  0
    6.8089  -12.8165   26.7049 C   0  0  1  0  0  0  0  0  0  0  0  0
    5.6404  -13.5597   26.6744 O   0  0  0  0  0  0  0  0  0  0  0  0
    8.0020  -13.7182   26.4325 C   0  0  2  0  0  0  0  0  0  0  0  0
    7.6935  -14.4490   25.2264 N   0  0  0  0  0  0  0  0  0  0  0  0
    8.2752  -14.6207   27.5611 C   0  0  0  0  0  0  0  0  0  0  0  0
    8.1478  -15.9786   27.4117 O   0  0  0  0  0  0  0  0  0  0  0  0
    8.6259  -14.1379   28.6613 O   0  0  0  0  0  0  0  0  0  0  0  0
  2  3  2  0
  2  1  1  0
  4  3  1  0
  5  4  2  0
  6  5  1  0
  7  6  1  0
  7  9  1  0
  7  8  1  6
  9 16  1  0
  9 10  2  0
 11  5  1  0
 11 12  2  0
 12  2  1  0
 14 13  1  0
 15 14  1  1
 16 15  1  0
 17 15  1  0
 17 18  2  0
 20 19  1  6
 20 21  1  0
 20 22  1  0
 22 23  1  6
 23 17  1  0
 24 22  1  0
 25 24  1  0
 26 24  2  0
M  END
$$$$
