YST.pdb
     RDKit          3D

 26 26  0  0  1  0  0  0  0  0999 V2000
    6.6501  -13.3444   16.7190 O   0  0  0  0  0  0  0  0  0  0  0  0
    7.0883  -13.8656   17.9470 C   0  0  0  0  0  0  0  0  0  0  0  0
    7.4827  -13.0563   18.9860 C   0  0  0  0  0  0  0  0  0  0  0  0
    7.9014  -13.6430   20.1637 C   0  0  0  0  0  0  0  0  0  0  0  0
    7.9224  -15.0054   20.2914 C   0  0  0  0  0  0  0  0  0  0  0  0
    8.3712  -15.6317   21.5412 C   0  0  0  0  0  0  0  0  0  0  0  0
    9.8338  -15.3155   21.7600 C   0  0  2  0  0  0  0  0  0  0  0  0
   10.6095  -15.9299   20.6638 N   0  0  0  0  0  0  0  0  0  0  0  0
   10.3133  -15.8394   23.0556 C   0  0  0  0  0  0  0  0  0  0  0  0
   11.0541  -16.8363   23.1884 O   0  0  0  0  0  0  0  0  0  0  0  0
    7.5250  -15.7953   19.2435 C   0  0  0  0  0  0  0  0  0  0  0  0
    7.1001  -15.2463   18.0507 C   0  0  0  0  0  0  0  0  0  0  0  0
   10.1717  -14.9874   27.8258 O   0  0  0  0  0  0  0  0  0  0  0  0
    9.6033  -14.7216   26.5662 C   0  0  0  0  0  0  0  0  0  0  0  0
   10.3821  -15.5754   25.5583 C   0  0  2  0  0  0  0  0  0  0  0  0
    9.9049  -15.1629   24.2446 N   0  0  0  0  0  0  0  0  0  0  0  0
   10.0349  -16.9899   25.8066 C   0  0  0  0  0  0  0  0  0  0  0  0
    8.9457  -17.4740   25.4181 O   0  0  0  0  0  0  0  0  0  0  0  0
   11.4681  -21.4931   26.3775 C   0  0  0  0  0  0  0  0  0  0  0  0
   11.6454  -20.0257   26.0335 C   0  0  1  0  0  0  0  0  0  0  0  0
   11.4812  -19.8638   24.6677 O   0  0  0  0  0  0  0  0  0  0  0  0
   10.6291  -19.1769   26.7802 C   0  0  2  0  0  0  0  0  0  0  0  0
   10.9619  -17.8008   26.4984 N   0  0  0  0  0  0  0  0  0  0  0  0
   10.6390  -19.4547   28.2243 C   0  0  0  0  0  0  0  0  0  0  0  0
    9.8685  -20.4644   28.7432 O   0  0  0  0  0  0  0  0  0  0  0  0
   11.3582  -18.7603   28.9774 O   0  0  0  0  0  0  0  0  0  0  0  0
  2  3  2  0
  2  1  1  0
  4  3  1  0
  5  4  2  0
  6  5  1  0
  7  6  1  0
  7  9  1  0
  7  8  1  6
  9 16  1  0
  9 10  2  0
 11  5  1  0
 11 12  2  0
 12  2  1  0
 14 13  1  0
 15 14  1  1
 16 15  1  0
 17 15  1  0
 17 18  2  0
 20 19  1  6
 20 21  1  0
 20 22  1  0
 22 23  1  1
 23 17  1  0
 24 22  1  0
 25 24  1  0
 26 24  2  0
M  END
$$$$
