YST.pdb
     RDKit          3D

 26 26  0  0  1  0  0  0  0  0999 V2000
    5.2588  -10.3480   26.9691 O   0  0  0  0  0  0  0  0  0  0  0  0
    6.0102  -11.4942   26.6638 C   0  0  0  0  0  0  0  0  0  0  0  0
    5.9028  -12.6548   27.3928 C   0  0  0  0  0  0  0  0  0  0  0  0
    6.6751  -13.7408   27.0313 C   0  0  0  0  0  0  0  0  0  0  0  0
    7.5310  -13.6603   25.9664 C   0  0  0  0  0  0  0  0  0  0  0  0
    8.3562  -14.8123   25.5827 C   0  0  0  0  0  0  0  0  0  0  0  0
    7.5684  -15.6998   24.6452 C   0  0  2  0  0  0  0  0  0  0  0  0
    6.5738  -16.4469   25.4411 N   0  0  0  0  0  0  0  0  0  0  0  0
    8.4465  -16.6527   23.9353 C   0  0  0  0  0  0  0  0  0  0  0  0
    8.7617  -17.7828   24.3638 O   0  0  0  0  0  0  0  0  0  0  0  0
    7.6235  -12.4938   25.2519 C   0  0  0  0  0  0  0  0  0  0  0  0
    6.8682  -11.3869   25.5822 C   0  0  0  0  0  0  0  0  0  0  0  0
   10.4218  -15.1966   20.6719 O   0  0  0  0  0  0  0  0  0  0  0  0
    9.9704  -16.5206   20.5196 C   0  0  0  0  0  0  0  0  0  0  0  0
    9.9008  -17.1125   21.9324 C   0  0  2  0  0  0  0  0  0  0  0  0
    8.9760  -16.2604   22.6689 N   0  0  0  0  0  0  0  0  0  0  0  0
   11.2532  -17.0267   22.5212 C   0  0  0  0  0  0  0  0  0  0  0  0
   11.5630  -16.1090   23.3172 O   0  0  0  0  0  0  0  0  0  0  0  0
   15.2820  -19.6074   23.5404 C   0  0  0  0  0  0  0  0  0  0  0  0
   13.8727  -19.4847   22.9911 C   0  0  1  0  0  0  0  0  0  0  0  0
   12.9969  -20.1095   23.8636 O   0  0  0  0  0  0  0  0  0  0  0  0
   13.4883  -18.0226   22.8320 C   0  0  2  0  0  0  0  0  0  0  0  0
   12.2061  -18.0083   22.1690 N   0  0  0  0  0  0  0  0  0  0  0  0
   14.5004  -17.2694   22.0762 C   0  0  0  0  0  0  0  0  0  0  0  0
   15.4361  -16.5108   22.7329 O   0  0  0  0  0  0  0  0  0  0  0  0
   14.5005  -17.3268   20.8259 O   0  0  0  0  0  0  0  0  0  0  0  0
  2  3  2  0
  2  1  1  0
  4  3  1  0
  5  4  2  0
  6  5  1  0
  7  6  1  0
  7  9  1  0
  7  8  1  1
  9 16  1  0
  9 10  2  0
 11  5  1  0
 11 12  2  0
 12  2  1  0
 14 13  1  0
 15 14  1  6
 16 15  1  0
 17 15  1  0
 17 18  2  0
 20 19  1  1
 20 21  1  0
 20 22  1  0
 22 23  1  6
 23 17  1  0
 24 22  1  0
 25 24  1  0
 26 24  2  0
M  END
$$$$
