YST.pdb
     RDKit          3D

 26 26  0  0  1  0  0  0  0  0999 V2000
   10.9338  -14.7776   30.1756 O   0  0  0  0  0  0  0  0  0  0  0  0
   10.0943  -14.6932   29.0532 C   0  0  0  0  0  0  0  0  0  0  0  0
    9.7471  -13.4888   28.4886 C   0  0  0  0  0  0  0  0  0  0  0  0
    8.9168  -13.4865   27.3853 C   0  0  0  0  0  0  0  0  0  0  0  0
    8.4494  -14.6633   26.8658 C   0  0  0  0  0  0  0  0  0  0  0  0
    7.5631  -14.6633   25.6955 C   0  0  0  0  0  0  0  0  0  0  0  0
    8.2201  -15.4342   24.5725 C   0  0  2  0  0  0  0  0  0  0  0  0
    9.5642  -14.8662   24.3453 N   0  0  0  0  0  0  0  0  0  0  0  0
    7.4332  -15.3501   23.3248 C   0  0  0  0  0  0  0  0  0  0  0  0
    6.1986  -15.5241   23.2505 O   0  0  0  0  0  0  0  0  0  0  0  0
    8.8073  -15.8541   27.4435 C   0  0  0  0  0  0  0  0  0  0  0  0
    9.6353  -15.8975   28.5469 C   0  0  0  0  0  0  0  0  0  0  0  0
    9.0030  -13.7309   19.8704 O   0  0  0  0  0  0  0  0  0  0  0  0
    7.6291  -13.9813   20.0432 C   0  0  0  0  0  0  0  0  0  0  0  0
    7.5302  -15.3058   20.8095 C   0  0  2  0  0  0  0  0  0  0  0  0
    8.1270  -15.0489   22.1140 N   0  0  0  0  0  0  0  0  0  0  0  0
    8.3254  -16.3099   20.0731 C   0  0  0  0  0  0  0  0  0  0  0  0
    9.5498  -16.4645   20.2937 O   0  0  0  0  0  0  0  0  0  0  0  0
    6.6223  -19.7876   18.7913 C   0  0  0  0  0  0  0  0  0  0  0  0
    7.4068  -19.0279   17.7375 C   0  0  1  0  0  0  0  0  0  0  0  0
    6.5240  -18.2809   16.9752 O   0  0  0  0  0  0  0  0  0  0  0  0
    8.4282  -18.1115   18.3914 C   0  0  2  0  0  0  0  0  0  0  0  0
    7.6764  -17.1051   19.1025 N   0  0  0  0  0  0  0  0  0  0  0  0
    9.3394  -17.5138   17.4038 C   0  0  0  0  0  0  0  0  0  0  0  0
   10.3844  -18.2412   16.8928 O   0  0  0  0  0  0  0  0  0  0  0  0
    9.1524  -16.3332   17.0328 O   0  0  0  0  0  0  0  0  0  0  0  0
  2  3  2  0
  2  1  1  0
  4  3  1  0
  5  4  2  0
  6  5  1  0
  7  6  1  0
  7  9  1  0
  7  8  1  6
  9 16  1  0
  9 10  2  0
 11  5  1  0
 11 12  2  0
 12  2  1  0
 14 13  1  0
 15 14  1  6
 16 15  1  0
 17 15  1  0
 17 18  2  0
 20 19  1  1
 20 21  1  0
 20 22  1  0
 22 23  1  6
 23 17  1  0
 24 22  1  0
 25 24  1  0
 26 24  2  0
M  END
$$$$
