YST.pdb
     RDKit          3D

 26 26  0  0  1  0  0  0  0  0999 V2000
    5.1285  -10.3848   26.9615 O   0  0  0  0  0  0  0  0  0  0  0  0
    5.9999  -11.4130   26.5676 C   0  0  0  0  0  0  0  0  0  0  0  0
    6.9134  -11.9686   27.4316 C   0  0  0  0  0  0  0  0  0  0  0  0
    7.7369  -12.9765   26.9706 C   0  0  0  0  0  0  0  0  0  0  0  0
    7.6431  -13.4122   25.6766 C   0  0  0  0  0  0  0  0  0  0  0  0
    8.5205  -14.4808   25.1828 C   0  0  0  0  0  0  0  0  0  0  0  0
    7.6743  -15.5959   24.6104 C   0  0  2  0  0  0  0  0  0  0  0  0
    6.8334  -16.1424   25.6944 N   0  0  0  0  0  0  0  0  0  0  0  0
    8.5105  -16.6749   24.0450 C   0  0  0  0  0  0  0  0  0  0  0  0
    8.7026  -17.7832   24.5879 O   0  0  0  0  0  0  0  0  0  0  0  0
    6.7254  -12.8452   24.8304 C   0  0  0  0  0  0  0  0  0  0  0  0
    5.8849  -11.8357   25.2540 C   0  0  0  0  0  0  0  0  0  0  0  0
   11.0005  -15.6830   20.9501 O   0  0  0  0  0  0  0  0  0  0  0  0
   10.3316  -16.9087   20.7754 C   0  0  0  0  0  0  0  0  0  0  0  0
   10.0270  -17.4327   22.1838 C   0  0  2  0  0  0  0  0  0  0  0  0
    9.1472  -16.4408   22.7889 N   0  0  0  0  0  0  0  0  0  0  0  0
   11.3046  -17.5003   22.9228 C   0  0  0  0  0  0  0  0  0  0  0  0
   11.7162  -16.5341   23.6074 O   0  0  0  0  0  0  0  0  0  0  0  0
   14.8058  -20.5481   24.5580 C   0  0  0  0  0  0  0  0  0  0  0  0
   13.4767  -20.2987   23.8694 C   0  0  1  0  0  0  0  0  0  0  0  0
   12.4596  -20.7965   24.6671 O   0  0  0  0  0  0  0  0  0  0  0  0
   13.2688  -18.8112   23.6353 C   0  0  2  0  0  0  0  0  0  0  0  0
   12.0669  -18.6871   22.8454 N   0  0  0  0  0  0  0  0  0  0  0  0
   14.4252  -18.1949   22.9677 C   0  0  0  0  0  0  0  0  0  0  0  0
   15.3697  -17.5183   23.6972 O   0  0  0  0  0  0  0  0  0  0  0  0
   14.5401  -18.2936   21.7252 O   0  0  0  0  0  0  0  0  0  0  0  0
  2  3  2  0
  2  1  1  0
  4  3  1  0
  5  4  2  0
  6  5  1  0
  7  6  1  0
  7  9  1  0
  7  8  1  1
  9 16  1  0
  9 10  2  0
 11  5  1  0
 11 12  2  0
 12  2  1  0
 14 13  1  0
 15 14  1  6
 16 15  1  0
 17 15  1  0
 17 18  2  0
 20 19  1  1
 20 21  1  0
 20 22  1  0
 22 23  1  6
 23 17  1  0
 24 22  1  0
 25 24  1  0
 26 24  2  0
M  END
$$$$
