YST.pdb
     RDKit          3D

 26 26  0  0  1  0  0  0  0  0999 V2000
    9.8850  -27.8119   35.1773 O   0  0  0  0  0  0  0  0  0  0  0  0
   10.1368  -27.2769   33.9038 C   0  0  0  0  0  0  0  0  0  0  0  0
    9.9209  -27.9965   32.7525 C   0  0  0  0  0  0  0  0  0  0  0  0
   10.1922  -27.4019   31.5361 C   0  0  0  0  0  0  0  0  0  0  0  0
   10.6675  -26.1197   31.4809 C   0  0  0  0  0  0  0  0  0  0  0  0
   10.9608  -25.4868   30.1891 C   0  0  0  0  0  0  0  0  0  0  0  0
    9.7458  -24.7151   29.7248 C   0  0  2  0  0  0  0  0  0  0  0  0
    8.6418  -25.6728   29.5135 N   0  0  0  0  0  0  0  0  0  0  0  0
   10.0140  -23.9881   28.4667 C   0  0  0  0  0  0  0  0  0  0  0  0
    9.4676  -24.2378   27.3717 O   0  0  0  0  0  0  0  0  0  0  0  0
   10.8762  -25.4187   32.6406 C   0  0  0  0  0  0  0  0  0  0  0  0
   10.6168  -25.9784   33.8752 C   0  0  0  0  0  0  0  0  0  0  0  0
   11.5322  -20.6276   29.0659 O   0  0  0  0  0  0  0  0  0  0  0  0
   11.1835  -20.6876   27.7039 C   0  0  0  0  0  0  0  0  0  0  0  0
   11.2957  -22.1624   27.2996 C   0  0  2  0  0  0  0  0  0  0  0  0
   10.9642  -22.9231   28.4976 N   0  0  0  0  0  0  0  0  0  0  0  0
   12.6976  -22.4139   26.9068 C   0  0  0  0  0  0  0  0  0  0  0  0
   13.5830  -22.6551   27.7609 O   0  0  0  0  0  0  0  0  0  0  0  0
   13.5223  -24.1281   23.3055 C   0  0  0  0  0  0  0  0  0  0  0  0
   14.3433  -22.8925   23.6251 C   0  0  1  0  0  0  0  0  0  0  0  0
   13.7723  -21.8005   22.9926 O   0  0  0  0  0  0  0  0  0  0  0  0
   14.3872  -22.6556   25.1260 C   0  0  2  0  0  0  0  0  0  0  0  0
   13.0307  -22.3780   25.5345 N   0  0  0  0  0  0  0  0  0  0  0  0
   15.2981  -21.5569   25.4807 C   0  0  0  0  0  0  0  0  0  0  0  0
   16.6567  -21.7215   25.3830 O   0  0  0  0  0  0  0  0  0  0  0  0
   14.8219  -20.4680   25.8732 O   0  0  0  0  0  0  0  0  0  0  0  0
  2  3  2  0
  2  1  1  0
  4  3  1  0
  5  4  2  0
  6  5  1  0
  7  6  1  0
  7  9  1  0
  7  8  1  6
  9 16  1  0
  9 10  2  0
 11  5  1  0
 11 12  2  0
 12  2  1  0
 14 13  1  0
 15 14  1  1
 16 15  1  0
 17 15  1  0
 17 18  2  0
 20 19  1  1
 20 21  1  0
 20 22  1  0
 22 23  1  6
 23 17  1  0
 24 22  1  0
 25 24  1  0
 26 24  2  0
M  END
$$$$
