YST.pdb
     RDKit          3D

 26 26  0  0  1  0  0  0  0  0999 V2000
    6.3029  -12.5406   28.0006 O   0  0  0  0  0  0  0  0  0  0  0  0
    6.6106  -13.0502   26.7289 C   0  0  0  0  0  0  0  0  0  0  0  0
    7.1751  -12.2722   25.7462 C   0  0  0  0  0  0  0  0  0  0  0  0
    7.4490  -12.8449   24.5200 C   0  0  0  0  0  0  0  0  0  0  0  0
    7.1626  -14.1634   24.2902 C   0  0  0  0  0  0  0  0  0  0  0  0
    7.4490  -14.7736   22.9860 C   0  0  0  0  0  0  0  0  0  0  0  0
    8.9435  -14.7758   22.7540 C   0  0  2  0  0  0  0  0  0  0  0  0
    9.1992  -15.2717   21.3868 N   0  0  0  0  0  0  0  0  0  0  0  0
    9.6417  -15.6389   23.7290 C   0  0  0  0  0  0  0  0  0  0  0  0
    9.9640  -16.8278   23.5222 O   0  0  0  0  0  0  0  0  0  0  0  0
    6.5997  -14.9226   25.2834 C   0  0  0  0  0  0  0  0  0  0  0  0
    6.3113  -14.3863   26.5220 C   0  0  0  0  0  0  0  0  0  0  0  0
   10.1429  -14.3607   27.6406 O   0  0  0  0  0  0  0  0  0  0  0  0
   11.3148  -14.6739   26.9274 C   0  0  0  0  0  0  0  0  0  0  0  0
   10.9159  -15.7380   25.8980 C   0  0  2  0  0  0  0  0  0  0  0  0
    9.9749  -15.0808   25.0001 N   0  0  0  0  0  0  0  0  0  0  0  0
   10.2459  -16.8359   26.6252 C   0  0  0  0  0  0  0  0  0  0  0  0
    9.0117  -16.8176   26.8445 O   0  0  0  0  0  0  0  0  0  0  0  0
    9.9136  -20.2063   25.6382 C   0  0  0  0  0  0  0  0  0  0  0  0
   10.6598  -20.2642   26.9584 C   0  0  1  0  0  0  0  0  0  0  0  0
   12.0161  -20.3763   26.7007 O   0  0  0  0  0  0  0  0  0  0  0  0
   10.3912  -19.0120   27.7774 C   0  0  2  0  0  0  0  0  0  0  0  0
   11.0278  -17.9224   27.0764 N   0  0  0  0  0  0  0  0  0  0  0  0
   10.8921  -19.1401   29.1541 C   0  0  0  0  0  0  0  0  0  0  0  0
   10.2927  -20.0054   30.0341 O   0  0  0  0  0  0  0  0  0  0  0  0
   11.8722  -18.4513   29.5166 O   0  0  0  0  0  0  0  0  0  0  0  0
  2  3  2  0
  2  1  1  0
  4  3  1  0
  5  4  2  0
  6  5  1  0
  7  6  1  0
  7  9  1  0
  7  8  1  6
  9 16  1  0
  9 10  2  0
 11  5  1  0
 11 12  2  0
 12  2  1  0
 14 13  1  0
 15 14  1  1
 16 15  1  0
 17 15  1  0
 17 18  2  0
 20 19  1  6
 20 21  1  0
 20 22  1  0
 22 23  1  6
 23 17  1  0
 24 22  1  0
 25 24  1  0
 26 24  2  0
M  END
$$$$
