IWC.pdb
     RDKit          3D

 29 30  0  0  1  0  0  0  0  0999 V2000
   30.1703  -23.3391  -18.8839 C   0  0  0  0  0  0  0  0  0  0  0  0
   29.3004  -22.1194  -18.9639 C   0  0  0  0  0  0  0  0  0  0  0  0
   28.9960  -21.5056  -17.6258 C   0  0  2  0  0  0  0  0  0  0  0  0
   28.4311  -22.5880  -16.7356 C   0  0  0  0  0  0  0  0  0  0  0  0
   28.0633  -20.3184  -17.7243 C   0  0  2  0  0  0  0  0  0  0  0  0
   28.7327  -19.2883  -18.4799 N   0  0  0  0  0  0  0  0  0  0  0  0
   27.6454  -19.8104  -16.4187 C   0  0  0  0  0  0  0  0  0  0  0  0
   28.4817  -19.1667  -15.7146 O   0  0  0  0  0  0  0  0  0  0  0  0
   26.3584  -19.9763  -15.8547 N   0  0  0  0  0  0  0  0  0  0  0  0
   25.9265  -19.4246  -14.6017 C   0  0  1  0  0  0  0  0  0  0  0  0
   24.9296  -18.3220  -14.7477 C   0  0  0  0  0  0  0  0  0  0  0  0
   25.4419  -17.0330  -15.1977 C   0  0  0  0  0  0  0  0  0  0  0  0
   26.5062  -16.3550  -14.6407 C   0  0  0  0  0  0  0  0  0  0  0  0
   26.6738  -15.2109  -15.3056 N   0  0  0  0  0  0  0  0  0  0  0  0
   25.7666  -15.0971  -16.2828 C   0  0  0  0  0  0  0  0  0  0  0  0
   25.5506  -14.1042  -17.2232 C   0  0  0  0  0  0  0  0  0  0  0  0
   24.5476  -14.2259  -18.1319 C   0  0  0  0  0  0  0  0  0  0  0  0
   23.7534  -15.3520  -18.0997 C   0  0  0  0  0  0  0  0  0  0  0  0
   23.9716  -16.3384  -17.1615 C   0  0  0  0  0  0  0  0  0  0  0  0
   24.9867  -16.2370  -16.2248 C   0  0  0  0  0  0  0  0  0  0  0  0
   25.5446  -20.4503  -13.6178 C   0  0  0  0  0  0  0  0  0  0  0  0
   24.8423  -21.4520  -13.9939 O   0  0  0  0  0  0  0  0  0  0  0  0
   25.8956  -20.4316  -12.2419 N   0  0  0  0  0  0  0  0  0  0  0  0
   25.3707  -21.4309  -11.3071 C   0  0  1  0  0  0  0  0  0  0  0  0
   26.1783  -21.3520  -10.0222 C   0  0  0  0  0  0  0  0  0  0  0  0
   25.6763  -19.8846   -9.0875 S   0  0  0  0  0  0  0  0  0  0  0  0
   23.9327  -21.2783  -11.1015 C   0  0  0  0  0  0  0  0  0  0  0  0
   23.2854  -20.0986  -11.5084 O   0  0  0  0  0  0  0  0  0  0  0  0
   23.2716  -22.1988  -10.5611 O   0  0  0  0  0  0  0  0  0  0  0  0
  2  1  1  0
  3  2  1  0
  3  4  1  1
  5  3  1  0
  5  6  1  1
  7  5  1  0
  8  7  2  0
  9  7  1  0
 10  9  1  0
 11 12  1  0
 10 11  1  6
 12 20  1  0
 12 13  2  0
 13 14  1  0
 15 14  1  0
 15 16  2  0
 17 16  1  0
 18 17  2  0
 19 18  1  0
 19 20  2  0
 20 15  1  0
 21 22  2  0
 21 10  1  0
 23 21  1  0
 24 23  1  0
 24 25  1  1
 26 25  1  0
 27 24  1  0
 28 27  1  0
 29 27  2  0
M  END
$$$$
