IWC.pdb
     RDKit          3D

 29 30  0  0  1  0  0  0  0  0999 V2000
   27.7036  -16.8392  -18.2723 C   0  0  0  0  0  0  0  0  0  0  0  0
   27.5407  -16.5834  -16.8030 C   0  0  0  0  0  0  0  0  0  0  0  0
   26.9643  -17.7481  -16.0472 C   0  0  2  0  0  0  0  0  0  0  0  0
   25.6667  -18.1394  -16.7152 C   0  0  0  0  0  0  0  0  0  0  0  0
   26.7698  -17.4534  -14.5760 C   0  0  2  0  0  0  0  0  0  0  0  0
   28.0188  -16.9567  -14.0530 N   0  0  0  0  0  0  0  0  0  0  0  0
   26.3192  -18.6174  -13.8149 C   0  0  0  0  0  0  0  0  0  0  0  0
   25.3889  -19.3379  -14.2893 O   0  0  0  0  0  0  0  0  0  0  0  0
   26.8406  -19.0235  -12.5639 N   0  0  0  0  0  0  0  0  0  0  0  0
   26.3325  -20.1040  -11.7668 C   0  0  1  0  0  0  0  0  0  0  0  0
   27.2661  -20.5369  -10.6844 C   0  0  0  0  0  0  0  0  0  0  0  0
   26.6741  -20.8033   -9.3785 C   0  0  0  0  0  0  0  0  0  0  0  0
   25.6178  -21.6568   -9.1367 C   0  0  0  0  0  0  0  0  0  0  0  0
   25.3457  -21.6338   -7.8311 N   0  0  0  0  0  0  0  0  0  0  0  0
   26.1759  -20.8014   -7.1916 C   0  0  0  0  0  0  0  0  0  0  0  0
   26.2801  -20.4573   -5.8547 C   0  0  0  0  0  0  0  0  0  0  0  0
   27.2292  -19.5753   -5.4450 C   0  0  0  0  0  0  0  0  0  0  0  0
   28.0822  -19.0325   -6.3819 C   0  0  0  0  0  0  0  0  0  0  0  0
   27.9749  -19.3776   -7.7124 C   0  0  0  0  0  0  0  0  0  0  0  0
   27.0157  -20.2736   -8.1544 C   0  0  0  0  0  0  0  0  0  0  0  0
   24.9490  -19.8885  -11.3131 C   0  0  0  0  0  0  0  0  0  0  0  0
   24.6165  -18.7525  -10.8265 O   0  0  0  0  0  0  0  0  0  0  0  0
   23.9124  -20.8577  -11.3675 N   0  0  0  0  0  0  0  0  0  0  0  0
   22.5221  -20.5052  -11.0666 C   0  0  1  0  0  0  0  0  0  0  0  0
   21.7545  -20.4335  -12.3762 C   0  0  0  0  0  0  0  0  0  0  0  0
   21.9595  -21.9906  -13.2775 S   0  0  0  0  0  0  0  0  0  0  0  0
   21.9295  -21.4192  -10.0935 C   0  0  0  0  0  0  0  0  0  0  0  0
   20.8160  -21.0151   -9.3366 O   0  0  0  0  0  0  0  0  0  0  0  0
   22.4126  -22.5665   -9.9301 O   0  0  0  0  0  0  0  0  0  0  0  0
  2  1  1  0
  3  2  1  0
  3  4  1  6
  5  3  1  0
  5  6  1  1
  7  5  1  0
  8  7  2  0
  9  7  1  0
 10  9  1  0
 11 12  1  0
 10 11  1  1
 12 20  1  0
 12 13  2  0
 13 14  1  0
 15 14  1  0
 15 16  2  0
 17 16  1  0
 18 17  2  0
 19 18  1  0
 19 20  2  0
 20 15  1  0
 21 22  2  0
 21 10  1  0
 23 21  1  0
 24 23  1  0
 24 25  1  6
 26 25  1  0
 27 24  1  0
 28 27  1  0
 29 27  2  0
M  END
$$$$
