IWC.pdb
     RDKit          3D

 29 30  0  0  1  0  0  0  0  0999 V2000
   27.9658  -19.3148  -17.7938 C   0  0  0  0  0  0  0  0  0  0  0  0
   28.4805  -18.9565  -16.4309 C   0  0  0  0  0  0  0  0  0  0  0  0
   27.5839  -19.4029  -15.3098 C   0  0  2  0  0  0  0  0  0  0  0  0
   27.4573  -18.2579  -14.3319 C   0  0  0  0  0  0  0  0  0  0  0  0
   28.0745  -20.6645  -14.6340 C   0  0  2  0  0  0  0  0  0  0  0  0
   27.9548  -21.7494  -15.5768 N   0  0  0  0  0  0  0  0  0  0  0  0
   27.3505  -20.9709  -13.4015 C   0  0  0  0  0  0  0  0  0  0  0  0
   26.1733  -21.4370  -13.4812 O   0  0  0  0  0  0  0  0  0  0  0  0
   27.8577  -20.7894  -12.0931 N   0  0  0  0  0  0  0  0  0  0  0  0
   27.1169  -21.0006  -10.8817 C   0  0  1  0  0  0  0  0  0  0  0  0
   27.9292  -20.8033   -9.6439 C   0  0  0  0  0  0  0  0  0  0  0  0
   27.1982  -20.7576   -8.3829 C   0  0  0  0  0  0  0  0  0  0  0  0
   25.8934  -21.1652   -8.1978 C   0  0  0  0  0  0  0  0  0  0  0  0
   25.5639  -20.9626   -6.9213 N   0  0  0  0  0  0  0  0  0  0  0  0
   26.5936  -20.4374   -6.2469 C   0  0  0  0  0  0  0  0  0  0  0  0
   26.7275  -20.0659   -4.9199 C   0  0  0  0  0  0  0  0  0  0  0  0
   27.9005  -19.5514   -4.4662 C   0  0  0  0  0  0  0  0  0  0  0  0
   28.9496  -19.4073   -5.3485 C   0  0  0  0  0  0  0  0  0  0  0  0
   28.8121  -19.7781   -6.6693 C   0  0  0  0  0  0  0  0  0  0  0  0
   27.6268  -20.3043   -7.1555 C   0  0  0  0  0  0  0  0  0  0  0  0
   25.8217  -20.3019  -10.8652 C   0  0  0  0  0  0  0  0  0  0  0  0
   25.7967  -19.0258  -10.7710 O   0  0  0  0  0  0  0  0  0  0  0  0
   24.5527  -20.9340  -10.9476 N   0  0  0  0  0  0  0  0  0  0  0  0
   23.3174  -20.1534  -11.0591 C   0  0  1  0  0  0  0  0  0  0  0  0
   23.0451  -19.9001  -12.5325 C   0  0  0  0  0  0  0  0  0  0  0  0
   22.9740  -21.4825  -13.4099 S   0  0  0  0  0  0  0  0  0  0  0  0
   22.2054  -20.7959  -10.3633 C   0  0  0  0  0  0  0  0  0  0  0  0
   20.9809  -20.1203  -10.2203 O   0  0  0  0  0  0  0  0  0  0  0  0
   22.3399  -21.9515   -9.8913 O   0  0  0  0  0  0  0  0  0  0  0  0
  2  1  1  0
  3  2  1  0
  3  4  1  1
  5  3  1  0
  5  6  1  6
  7  5  1  0
  8  7  2  0
  9  7  1  0
 10  9  1  0
 11 12  1  0
 10 11  1  1
 12 20  1  0
 12 13  2  0
 13 14  1  0
 15 14  1  0
 15 16  2  0
 17 16  1  0
 18 17  2  0
 19 18  1  0
 19 20  2  0
 20 15  1  0
 21 22  2  0
 21 10  1  0
 23 21  1  0
 24 23  1  0
 24 25  1  6
 26 25  1  0
 27 24  1  0
 28 27  1  0
 29 27  2  0
M  END
$$$$
