IWC.pdb
     RDKit          3D

 29 30  0  0  1  0  0  0  0  0999 V2000
   20.4414  -22.4975  -14.6497 C   0  0  0  0  0  0  0  0  0  0  0  0
   20.5114  -21.9795  -13.2434 C   0  0  0  0  0  0  0  0  0  0  0  0
   21.8691  -21.4627  -12.8567 C   0  0  2  0  0  0  0  0  0  0  0  0
   22.8600  -22.5917  -13.0200 C   0  0  0  0  0  0  0  0  0  0  0  0
   21.9006  -20.8883  -11.4574 C   0  0  2  0  0  0  0  0  0  0  0  0
   20.9170  -19.8358  -11.3863 N   0  0  0  0  0  0  0  0  0  0  0  0
   23.2197  -20.3871  -11.0752 C   0  0  0  0  0  0  0  0  0  0  0  0
   23.6701  -19.3476  -11.6463 O   0  0  0  0  0  0  0  0  0  0  0  0
   24.0616  -20.9724  -10.1003 N   0  0  0  0  0  0  0  0  0  0  0  0
   25.3933  -20.5366   -9.7875 C   0  0  1  0  0  0  0  0  0  0  0  0
   25.8241  -20.8842   -8.4003 C   0  0  0  0  0  0  0  0  0  0  0  0
   26.7062  -19.9340   -7.7325 C   0  0  0  0  0  0  0  0  0  0  0  0
   26.9437  -18.6380   -8.1406 C   0  0  0  0  0  0  0  0  0  0  0  0
   27.8112  -18.0804   -7.2946 N   0  0  0  0  0  0  0  0  0  0  0  0
   28.1622  -18.9494   -6.3393 C   0  0  0  0  0  0  0  0  0  0  0  0
   29.0177  -18.8278   -5.2576 C   0  0  0  0  0  0  0  0  0  0  0  0
   29.2064  -19.8737   -4.4108 C   0  0  0  0  0  0  0  0  0  0  0  0
   28.5326  -21.0525   -4.6484 C   0  0  0  0  0  0  0  0  0  0  0  0
   27.6818  -21.1696   -5.7270 C   0  0  0  0  0  0  0  0  0  0  0  0
   27.4734  -20.1183   -6.6042 C   0  0  0  0  0  0  0  0  0  0  0  0
   26.3764  -20.8874  -10.8250 C   0  0  0  0  0  0  0  0  0  0  0  0
   26.5535  -22.1168  -11.1336 O   0  0  0  0  0  0  0  0  0  0  0  0
   27.1744  -19.9561  -11.5410 N   0  0  0  0  0  0  0  0  0  0  0  0
   27.9904  -20.3717  -12.6852 C   0  0  1  0  0  0  0  0  0  0  0  0
   28.0102  -19.2354  -13.6941 C   0  0  0  0  0  0  0  0  0  0  0  0
   29.1294  -19.6596  -15.0530 S   0  0  0  0  0  0  0  0  0  0  0  0
   29.3220  -20.8068  -12.2718 C   0  0  0  0  0  0  0  0  0  0  0  0
   29.9303  -20.2324  -11.1421 O   0  0  0  0  0  0  0  0  0  0  0  0
   29.9265  -21.6935  -12.9236 O   0  0  0  0  0  0  0  0  0  0  0  0
  2  1  1  0
  3  2  1  0
  3  4  1  1
  5  3  1  0
  5  6  1  6
  7  5  1  0
  8  7  2  0
  9  7  1  0
 10  9  1  0
 11 12  1  0
 10 11  1  1
 12 20  1  0
 12 13  2  0
 13 14  1  0
 15 14  1  0
 15 16  2  0
 17 16  1  0
 18 17  2  0
 19 18  1  0
 19 20  2  0
 20 15  1  0
 21 22  2  0
 21 10  1  0
 23 21  1  0
 24 23  1  0
 24 25  1  6
 26 25  1  0
 27 24  1  0
 28 27  1  0
 29 27  2  0
M  END
$$$$
