IWC.pdb
     RDKit          3D

 29 30  0  0  1  0  0  0  0  0999 V2000
   19.6784  -22.4022  -15.1220 C   0  0  0  0  0  0  0  0  0  0  0  0
   20.2501  -22.3137  -13.7377 C   0  0  0  0  0  0  0  0  0  0  0  0
   21.5909  -21.6365  -13.6799 C   0  0  2  0  0  0  0  0  0  0  0  0
   22.5142  -22.3507  -14.6393 C   0  0  0  0  0  0  0  0  0  0  0  0
   22.1644  -21.5908  -12.2806 C   0  0  2  0  0  0  0  0  0  0  0  0
   21.2281  -20.8872  -11.4388 N   0  0  0  0  0  0  0  0  0  0  0  0
   23.4825  -20.9609  -12.2236 C   0  0  0  0  0  0  0  0  0  0  0  0
   23.5598  -19.6954  -12.2661 O   0  0  0  0  0  0  0  0  0  0  0  0
   24.7120  -21.6537  -12.1228 N   0  0  0  0  0  0  0  0  0  0  0  0
   26.0100  -21.0406  -12.1241 C   0  0  1  0  0  0  0  0  0  0  0  0
   26.9228  -21.5744  -11.0692 C   0  0  0  0  0  0  0  0  0  0  0  0
   26.8090  -20.9776   -9.7435 C   0  0  0  0  0  0  0  0  0  0  0  0
   25.6775  -20.3806   -9.2278 C   0  0  0  0  0  0  0  0  0  0  0  0
   25.9537  -19.9406   -7.9993 N   0  0  0  0  0  0  0  0  0  0  0  0
   27.2215  -20.2191   -7.6734 C   0  0  0  0  0  0  0  0  0  0  0  0
   27.9496  -19.9673   -6.5231 C   0  0  0  0  0  0  0  0  0  0  0  0
   29.2465  -20.3625   -6.4315 C   0  0  0  0  0  0  0  0  0  0  0  0
   29.8203  -21.0161   -7.5009 C   0  0  0  0  0  0  0  0  0  0  0  0
   29.0918  -21.2646   -8.6447 C   0  0  0  0  0  0  0  0  0  0  0  0
   27.7691  -20.8713   -8.7623 C   0  0  0  0  0  0  0  0  0  0  0  0
   26.6175  -20.9729  -13.4629 C   0  0  0  0  0  0  0  0  0  0  0  0
   26.5948  -22.0069  -14.2168 O   0  0  0  0  0  0  0  0  0  0  0  0
   27.2482  -19.8268  -14.0156 N   0  0  0  0  0  0  0  0  0  0  0  0
   27.6924  -19.7994  -15.4119 C   0  0  1  0  0  0  0  0  0  0  0  0
   28.2987  -18.4344  -15.6924 C   0  0  0  0  0  0  0  0  0  0  0  0
   28.7842  -18.3404  -17.4343 S   0  0  0  0  0  0  0  0  0  0  0  0
   28.5912  -20.9097  -15.7168 C   0  0  0  0  0  0  0  0  0  0  0  0
   28.4659  -21.6019  -16.9339 O   0  0  0  0  0  0  0  0  0  0  0  0
   29.4765  -21.2489  -14.8937 O   0  0  0  0  0  0  0  0  0  0  0  0
  2  1  1  0
  3  2  1  0
  3  4  1  6
  5  3  1  0
  5  6  1  1
  7  5  1  0
  8  7  2  0
  9  7  1  0
 10  9  1  0
 11 12  1  0
 10 11  1  1
 12 20  1  0
 12 13  2  0
 13 14  1  0
 15 14  1  0
 15 16  2  0
 17 16  1  0
 18 17  2  0
 19 18  1  0
 19 20  2  0
 20 15  1  0
 21 22  2  0
 21 10  1  0
 23 21  1  0
 24 23  1  0
 24 25  1  1
 26 25  1  0
 27 24  1  0
 28 27  1  0
 29 27  2  0
M  END
$$$$
