IWC.pdb
     RDKit          3D

 29 30  0  0  1  0  0  0  0  0999 V2000
   28.8956  -16.7629  -18.2675 C   0  0  0  0  0  0  0  0  0  0  0  0
   27.5826  -17.4712  -18.4264 C   0  0  0  0  0  0  0  0  0  0  0  0
   26.8481  -17.6798  -17.1315 C   0  0  2  0  0  0  0  0  0  0  0  0
   27.7853  -18.3765  -16.1725 C   0  0  0  0  0  0  0  0  0  0  0  0
   25.5560  -18.4469  -17.3078 C   0  0  2  0  0  0  0  0  0  0  0  0
   24.7284  -17.7166  -18.2362 N   0  0  0  0  0  0  0  0  0  0  0  0
   24.8464  -18.6678  -16.0488 C   0  0  0  0  0  0  0  0  0  0  0  0
   24.3659  -17.6687  -15.4321 O   0  0  0  0  0  0  0  0  0  0  0  0
   24.6420  -19.9286  -15.4402 N   0  0  0  0  0  0  0  0  0  0  0  0
   24.0766  -20.1367  -14.1371 C   0  0  1  0  0  0  0  0  0  0  0  0
   22.7377  -20.7978  -14.1666 C   0  0  0  0  0  0  0  0  0  0  0  0
   21.6287  -20.0544  -13.5799 C   0  0  0  0  0  0  0  0  0  0  0  0
   20.8500  -19.1250  -14.2376 C   0  0  0  0  0  0  0  0  0  0  0  0
   19.9474  -18.6464  -13.3801 N   0  0  0  0  0  0  0  0  0  0  0  0
   20.0908  -19.2173  -12.1782 C   0  0  0  0  0  0  0  0  0  0  0  0
   19.3951  -19.0482  -10.9932 C   0  0  0  0  0  0  0  0  0  0  0  0
   19.7356  -19.7637   -9.8893 C   0  0  0  0  0  0  0  0  0  0  0  0
   20.7819  -20.6572   -9.9719 C   0  0  0  0  0  0  0  0  0  0  0  0
   21.4724  -20.8225  -11.1537 C   0  0  0  0  0  0  0  0  0  0  0  0
   21.1447  -20.1046  -12.2919 C   0  0  0  0  0  0  0  0  0  0  0  0
   25.0220  -20.7419  -13.1852 C   0  0  0  0  0  0  0  0  0  0  0  0
   25.5298  -21.8875  -13.4455 O   0  0  0  0  0  0  0  0  0  0  0  0
   25.4381  -20.1520  -11.9622 N   0  0  0  0  0  0  0  0  0  0  0  0
   26.2927  -20.8768  -11.0176 C   0  0  1  0  0  0  0  0  0  0  0  0
   27.7136  -20.3588  -11.1663 C   0  0  0  0  0  0  0  0  0  0  0  0
   28.7495  -21.0664   -9.8605 S   0  0  0  0  0  0  0  0  0  0  0  0
   25.7825  -20.7941   -9.6515 C   0  0  0  0  0  0  0  0  0  0  0  0
   24.8261  -19.8201   -9.3158 O   0  0  0  0  0  0  0  0  0  0  0  0
   26.1966  -21.5911   -8.7742 O   0  0  0  0  0  0  0  0  0  0  0  0
  2  1  1  0
  3  2  1  0
  3  4  1  1
  5  3  1  0
  5  6  1  6
  7  5  1  0
  8  7  2  0
  9  7  1  0
 10  9  1  0
 11 12  1  0
 10 11  1  6
 12 20  1  0
 12 13  2  0
 13 14  1  0
 15 14  1  0
 15 16  2  0
 17 16  1  0
 18 17  2  0
 19 18  1  0
 19 20  2  0
 20 15  1  0
 21 22  2  0
 21 10  1  0
 23 21  1  0
 24 23  1  0
 24 25  1  1
 26 25  1  0
 27 24  1  0
 28 27  1  0
 29 27  2  0
M  END
$$$$
