IWC.pdb
     RDKit          3D

 29 30  0  0  1  0  0  0  0  0999 V2000
   27.6101  -18.3257  -17.3939 C   0  0  0  0  0  0  0  0  0  0  0  0
   28.3306  -18.4847  -16.0875 C   0  0  0  0  0  0  0  0  0  0  0  0
   27.4865  -19.0924  -15.0021 C   0  0  2  0  0  0  0  0  0  0  0  0
   27.2160  -18.0226  -13.9698 C   0  0  0  0  0  0  0  0  0  0  0  0
   28.1210  -20.3189  -14.3840 C   0  0  2  0  0  0  0  0  0  0  0  0
   28.1959  -21.3405  -15.3994 N   0  0  0  0  0  0  0  0  0  0  0  0
   27.3956  -20.8088  -13.2130 C   0  0  0  0  0  0  0  0  0  0  0  0
   26.3510  -21.5073  -13.3865 O   0  0  0  0  0  0  0  0  0  0  0  0
   27.7633  -20.5674  -11.8682 N   0  0  0  0  0  0  0  0  0  0  0  0
   27.0220  -20.9996  -10.7172 C   0  0  1  0  0  0  0  0  0  0  0  0
   27.8407  -21.0622   -9.4696 C   0  0  0  0  0  0  0  0  0  0  0  0
   27.1228  -20.9151   -8.2088 C   0  0  0  0  0  0  0  0  0  0  0  0
   25.8205  -21.3067   -7.9778 C   0  0  0  0  0  0  0  0  0  0  0  0
   25.5041  -21.0018   -6.7184 N   0  0  0  0  0  0  0  0  0  0  0  0
   26.5402  -20.4237   -6.0993 C   0  0  0  0  0  0  0  0  0  0  0  0
   26.6876  -19.9463   -4.8082 C   0  0  0  0  0  0  0  0  0  0  0  0
   27.8648  -19.3966   -4.4098 C   0  0  0  0  0  0  0  0  0  0  0  0
   28.9045  -19.3240   -5.3118 C   0  0  0  0  0  0  0  0  0  0  0  0
   28.7536  -19.8002   -6.5968 C   0  0  0  0  0  0  0  0  0  0  0  0
   27.5638  -20.3641   -7.0266 C   0  0  0  0  0  0  0  0  0  0  0  0
   25.7392  -20.2962  -10.5566 C   0  0  0  0  0  0  0  0  0  0  0  0
   25.7306  -19.0210  -10.4477 O   0  0  0  0  0  0  0  0  0  0  0  0
   24.4656  -20.9226  -10.5100 N   0  0  0  0  0  0  0  0  0  0  0  0
   23.2337  -20.1649  -10.7464 C   0  0  1  0  0  0  0  0  0  0  0  0
   23.2959  -19.5793  -12.1474 C   0  0  0  0  0  0  0  0  0  0  0  0
   23.2479  -20.9220  -13.3613 S   0  0  0  0  0  0  0  0  0  0  0  0
   22.0433  -20.9767  -10.5069 C   0  0  0  0  0  0  0  0  0  0  0  0
   20.7877  -20.3600  -10.3686 O   0  0  0  0  0  0  0  0  0  0  0  0
   22.1381  -22.2259  -10.4233 O   0  0  0  0  0  0  0  0  0  0  0  0
  2  1  1  0
  3  2  1  0
  3  4  1  1
  5  3  1  0
  5  6  1  6
  7  5  1  0
  8  7  2  0
  9  7  1  0
 10  9  1  0
 11 12  1  0
 10 11  1  1
 12 20  1  0
 12 13  2  0
 13 14  1  0
 15 14  1  0
 15 16  2  0
 17 16  1  0
 18 17  2  0
 19 18  1  0
 19 20  2  0
 20 15  1  0
 21 22  2  0
 21 10  1  0
 23 21  1  0
 24 23  1  0
 24 25  1  6
 26 25  1  0
 27 24  1  0
 28 27  1  0
 29 27  2  0
M  END
$$$$
