IWC.pdb
     RDKit          3D

 29 30  0  0  1  0  0  0  0  0999 V2000
   28.4593  -17.3618  -19.9115 C   0  0  0  0  0  0  0  0  0  0  0  0
   28.6028  -18.5095  -18.9559 C   0  0  0  0  0  0  0  0  0  0  0  0
   27.7044  -18.4112  -17.7545 C   0  0  2  0  0  0  0  0  0  0  0  0
   27.9886  -17.0956  -17.0679 C   0  0  0  0  0  0  0  0  0  0  0  0
   27.8611  -19.5815  -16.8085 C   0  0  2  0  0  0  0  0  0  0  0  0
   27.5642  -20.7882  -17.5407 N   0  0  0  0  0  0  0  0  0  0  0  0
   27.0116  -19.4759  -15.6234 C   0  0  0  0  0  0  0  0  0  0  0  0
   27.2016  -18.5159  -14.8161 O   0  0  0  0  0  0  0  0  0  0  0  0
   25.9694  -20.3716  -15.2867 N   0  0  0  0  0  0  0  0  0  0  0  0
   25.1405  -20.2753  -14.1185 C   0  0  1  0  0  0  0  0  0  0  0  0
   23.7173  -20.6559  -14.3640 C   0  0  0  0  0  0  0  0  0  0  0  0
   22.8226  -20.6176  -13.2130 C   0  0  0  0  0  0  0  0  0  0  0  0
   22.9784  -19.8130  -12.1035 C   0  0  0  0  0  0  0  0  0  0  0  0
   21.9780  -20.0615  -11.2569 N   0  0  0  0  0  0  0  0  0  0  0  0
   21.1614  -20.9975  -11.7548 C   0  0  0  0  0  0  0  0  0  0  0  0
   20.0062  -21.5700  -11.2501 C   0  0  0  0  0  0  0  0  0  0  0  0
   19.3404  -22.5156  -11.9636 C   0  0  0  0  0  0  0  0  0  0  0  0
   19.8350  -22.8918  -13.1940 C   0  0  0  0  0  0  0  0  0  0  0  0
   20.9858  -22.3196  -13.6929 C   0  0  0  0  0  0  0  0  0  0  0  0
   21.6823  -21.3545  -12.9845 C   0  0  0  0  0  0  0  0  0  0  0  0
   25.7345  -20.9130  -12.9324 C   0  0  0  0  0  0  0  0  0  0  0  0
   25.8239  -22.1888  -12.8828 O   0  0  0  0  0  0  0  0  0  0  0  0
   26.2356  -20.2203  -11.7985 N   0  0  0  0  0  0  0  0  0  0  0  0
   26.6479  -20.9361  -10.5881 C   0  0  1  0  0  0  0  0  0  0  0  0
   28.0264  -20.4382  -10.1863 C   0  0  0  0  0  0  0  0  0  0  0  0
   29.1890  -20.7316  -11.5432 S   0  0  0  0  0  0  0  0  0  0  0  0
   25.6538  -20.8198   -9.5243 C   0  0  0  0  0  0  0  0  0  0  0  0
   25.7821  -21.5892   -8.3548 O   0  0  0  0  0  0  0  0  0  0  0  0
   24.6830  -20.0338   -9.6513 O   0  0  0  0  0  0  0  0  0  0  0  0
  2  1  1  0
  3  2  1  0
  3  4  1  1
  5  3  1  0
  5  6  1  6
  7  5  1  0
  8  7  2  0
  9  7  1  0
 10  9  1  0
 11 12  1  0
 10 11  1  6
 12 20  1  0
 12 13  2  0
 13 14  1  0
 15 14  1  0
 15 16  2  0
 17 16  1  0
 18 17  2  0
 19 18  1  0
 19 20  2  0
 20 15  1  0
 21 22  2  0
 21 10  1  0
 23 21  1  0
 24 23  1  0
 24 25  1  1
 26 25  1  0
 27 24  1  0
 28 27  1  0
 29 27  2  0
M  END
$$$$
