IWC.pdb
     RDKit          3D

 29 30  0  0  1  0  0  0  0  0999 V2000
   25.4050  -13.9701  -19.4951 C   0  0  0  0  0  0  0  0  0  0  0  0
   26.4198  -14.9874  -19.0635 C   0  0  0  0  0  0  0  0  0  0  0  0
   25.8532  -16.0743  -18.1932 C   0  0  2  0  0  0  0  0  0  0  0  0
   25.2826  -15.4268  -16.9529 C   0  0  0  0  0  0  0  0  0  0  0  0
   26.8704  -17.1405  -17.8505 C   0  0  2  0  0  0  0  0  0  0  0  0
   27.3430  -17.7177  -19.0849 N   0  0  0  0  0  0  0  0  0  0  0  0
   26.3367  -18.1769  -16.9683 C   0  0  0  0  0  0  0  0  0  0  0  0
   25.4200  -18.9392  -17.4020 O   0  0  0  0  0  0  0  0  0  0  0  0
   26.7613  -18.4126  -15.6394 N   0  0  0  0  0  0  0  0  0  0  0  0
   26.2036  -19.3958  -14.7544 C   0  0  1  0  0  0  0  0  0  0  0  0
   27.0655  -19.6898  -13.5705 C   0  0  0  0  0  0  0  0  0  0  0  0
   26.5708  -20.6933  -12.6352 C   0  0  0  0  0  0  0  0  0  0  0  0
   26.3994  -22.0333  -12.9142 C   0  0  0  0  0  0  0  0  0  0  0  0
   25.9195  -22.6343  -11.8244 N   0  0  0  0  0  0  0  0  0  0  0  0
   25.7638  -21.7522  -10.8301 C   0  0  0  0  0  0  0  0  0  0  0  0
   25.3080  -21.9041   -9.5317 C   0  0  0  0  0  0  0  0  0  0  0  0
   25.2475  -20.8344   -8.6959 C   0  0  0  0  0  0  0  0  0  0  0  0
   25.6470  -19.6009   -9.1636 C   0  0  0  0  0  0  0  0  0  0  0  0
   26.1001  -19.4537  -10.4574 C   0  0  0  0  0  0  0  0  0  0  0  0
   26.1705  -20.5285  -11.3282 C   0  0  0  0  0  0  0  0  0  0  0  0
   24.7934  -19.1403  -14.4193 C   0  0  0  0  0  0  0  0  0  0  0  0
   24.4276  -17.9562  -14.0996 O   0  0  0  0  0  0  0  0  0  0  0  0
   23.7649  -20.1195  -14.4182 N   0  0  0  0  0  0  0  0  0  0  0  0
   22.3973  -19.7888  -14.0082 C   0  0  1  0  0  0  0  0  0  0  0  0
   21.7504  -18.9764  -15.1177 C   0  0  0  0  0  0  0  0  0  0  0  0
   19.9903  -18.7578  -14.7529 S   0  0  0  0  0  0  0  0  0  0  0  0
   21.6381  -20.9813  -13.6410 C   0  0  0  0  0  0  0  0  0  0  0  0
   20.5092  -20.8683  -12.8110 O   0  0  0  0  0  0  0  0  0  0  0  0
   21.9913  -22.1092  -14.0646 O   0  0  0  0  0  0  0  0  0  0  0  0
  2  1  1  0
  3  2  1  0
  3  4  1  1
  5  3  1  0
  5  6  1  6
  7  5  1  0
  8  7  2  0
  9  7  1  0
 10  9  1  0
 11 12  1  0
 10 11  1  1
 12 20  1  0
 12 13  2  0
 13 14  1  0
 15 14  1  0
 15 16  2  0
 17 16  1  0
 18 17  2  0
 19 18  1  0
 19 20  2  0
 20 15  1  0
 21 22  2  0
 21 10  1  0
 23 21  1  0
 24 23  1  0
 24 25  1  6
 26 25  1  0
 27 24  1  0
 28 27  1  0
 29 27  2  0
M  END
$$$$
