IWC.pdb
     RDKit          3D

 29 30  0  0  1  0  0  0  0  0999 V2000
   23.6543  -19.2725  -17.1562 C   0  0  0  0  0  0  0  0  0  0  0  0
   23.2044  -20.5234  -16.4605 C   0  0  0  0  0  0  0  0  0  0  0  0
   22.5788  -20.2753  -15.1163 C   0  0  2  0  0  0  0  0  0  0  0  0
   23.5144  -19.3920  -14.3240 C   0  0  0  0  0  0  0  0  0  0  0  0
   22.2553  -21.5543  -14.3756 C   0  0  2  0  0  0  0  0  0  0  0  0
   21.4210  -22.3638  -15.2294 N   0  0  0  0  0  0  0  0  0  0  0  0
   21.6018  -21.3198  -13.0891 C   0  0  0  0  0  0  0  0  0  0  0  0
   22.2077  -20.6360  -12.2089 O   0  0  0  0  0  0  0  0  0  0  0  0
   20.3208  -21.7995  -12.7275 N   0  0  0  0  0  0  0  0  0  0  0  0
   19.6655  -21.5470  -11.4754 C   0  0  1  0  0  0  0  0  0  0  0  0
   18.5861  -20.5186  -11.5639 C   0  0  0  0  0  0  0  0  0  0  0  0
   19.0144  -19.1337  -11.7228 C   0  0  0  0  0  0  0  0  0  0  0  0
   19.7015  -18.3945  -10.7824 C   0  0  0  0  0  0  0  0  0  0  0  0
   19.9074  -17.1716  -11.2736 N   0  0  0  0  0  0  0  0  0  0  0  0
   19.3870  -17.0637  -12.5018 C   0  0  0  0  0  0  0  0  0  0  0  0
   19.3565  -16.0070  -13.3958 C   0  0  0  0  0  0  0  0  0  0  0  0
   18.7607  -16.1510  -14.6086 C   0  0  0  0  0  0  0  0  0  0  0  0
   18.1902  -17.3639  -14.9301 C   0  0  0  0  0  0  0  0  0  0  0  0
   18.2225  -18.4136  -14.0369 C   0  0  0  0  0  0  0  0  0  0  0  0
   18.8231  -18.2913  -12.7949 C   0  0  0  0  0  0  0  0  0  0  0  0
   19.2644  -22.7767  -10.7731 C   0  0  0  0  0  0  0  0  0  0  0  0
   18.9816  -23.8246  -11.4513 O   0  0  0  0  0  0  0  0  0  0  0  0
   19.1587  -22.9135   -9.3635 N   0  0  0  0  0  0  0  0  0  0  0  0
   18.7811  -24.1883   -8.7470 C   0  0  1  0  0  0  0  0  0  0  0  0
   19.0082  -24.0788   -7.2484 C   0  0  0  0  0  0  0  0  0  0  0  0
   18.9061  -25.7265   -6.5044 S   0  0  0  0  0  0  0  0  0  0  0  0
   17.4197  -24.5803   -9.1027 C   0  0  0  0  0  0  0  0  0  0  0  0
   17.1129  -25.9343   -9.3237 O   0  0  0  0  0  0  0  0  0  0  0  0
   16.5211  -23.7104   -9.2123 O   0  0  0  0  0  0  0  0  0  0  0  0
  2  1  1  0
  3  2  1  0
  3  4  1  1
  5  3  1  0
  5  6  1  6
  7  5  1  0
  8  7  2  0
  9  7  1  0
 10  9  1  0
 11 12  1  0
 10 11  1  6
 12 20  1  0
 12 13  2  0
 13 14  1  0
 15 14  1  0
 15 16  2  0
 17 16  1  0
 18 17  2  0
 19 18  1  0
 19 20  2  0
 20 15  1  0
 21 22  2  0
 21 10  1  0
 23 21  1  0
 24 23  1  0
 24 25  1  1
 26 25  1  0
 27 24  1  0
 28 27  1  0
 29 27  2  0
M  END
$$$$
