IWC.pdb
     RDKit          3D

 29 30  0  0  1  0  0  0  0  0999 V2000
   25.8587  -17.7281  -16.1250 C   0  0  0  0  0  0  0  0  0  0  0  0
   26.5026  -18.9530  -15.5454 C   0  0  0  0  0  0  0  0  0  0  0  0
   27.6093  -18.6514  -14.5737 C   0  0  2  0  0  0  0  0  0  0  0  0
   28.6826  -17.8878  -15.3140 C   0  0  0  0  0  0  0  0  0  0  0  0
   28.1624  -19.8943  -13.9115 C   0  0  2  0  0  0  0  0  0  0  0  0
   28.6532  -20.7694  -14.9476 N   0  0  0  0  0  0  0  0  0  0  0  0
   27.1786  -20.5836  -13.0782 C   0  0  0  0  0  0  0  0  0  0  0  0
   26.7540  -21.7215  -13.4447 O   0  0  0  0  0  0  0  0  0  0  0  0
   26.6431  -20.0827  -11.8682 N   0  0  0  0  0  0  0  0  0  0  0  0
   25.6612  -20.7482  -11.0596 C   0  0  1  0  0  0  0  0  0  0  0  0
   25.7838  -20.4449   -9.6023 C   0  0  0  0  0  0  0  0  0  0  0  0
   27.0576  -20.7714   -8.9717 C   0  0  0  0  0  0  0  0  0  0  0  0
   28.0252  -21.5992   -9.5019 C   0  0  0  0  0  0  0  0  0  0  0  0
   29.0404  -21.6697   -8.6396 N   0  0  0  0  0  0  0  0  0  0  0  0
   28.7912  -20.9238   -7.5568 C   0  0  0  0  0  0  0  0  0  0  0  0
   29.5377  -20.6847   -6.4156 C   0  0  0  0  0  0  0  0  0  0  0  0
   29.0591  -19.8676   -5.4410 C   0  0  0  0  0  0  0  0  0  0  0  0
   27.8219  -19.2839   -5.6099 C   0  0  0  0  0  0  0  0  0  0  0  0
   27.0815  -19.5247   -6.7477 C   0  0  0  0  0  0  0  0  0  0  0  0
   27.5474  -20.3540   -7.7545 C   0  0  0  0  0  0  0  0  0  0  0  0
   24.2926  -20.6172  -11.5850 C   0  0  0  0  0  0  0  0  0  0  0  0
   23.6868  -19.4939  -11.4886 O   0  0  0  0  0  0  0  0  0  0  0  0
   23.5562  -21.6575  -12.2113 N   0  0  0  0  0  0  0  0  0  0  0  0
   22.2424  -21.4079  -12.8106 C   0  0  1  0  0  0  0  0  0  0  0  0
   21.9230  -22.5558  -13.7539 C   0  0  0  0  0  0  0  0  0  0  0  0
   21.5023  -24.0276  -12.7866 S   0  0  0  0  0  0  0  0  0  0  0  0
   21.2164  -21.1862  -11.7949 C   0  0  0  0  0  0  0  0  0  0  0  0
   19.9658  -20.6594  -12.1620 O   0  0  0  0  0  0  0  0  0  0  0  0
   21.4483  -21.4645  -10.5928 O   0  0  0  0  0  0  0  0  0  0  0  0
  2  1  1  0
  3  2  1  0
  3  4  1  6
  5  3  1  0
  5  6  1  6
  7  5  1  0
  8  7  2  0
  9  7  1  0
 10  9  1  0
 11 12  1  0
 10 11  1  1
 12 20  1  0
 12 13  2  0
 13 14  1  0
 15 14  1  0
 15 16  2  0
 17 16  1  0
 18 17  2  0
 19 18  1  0
 19 20  2  0
 20 15  1  0
 21 22  2  0
 21 10  1  0
 23 21  1  0
 24 23  1  0
 24 25  1  1
 26 25  1  0
 27 24  1  0
 28 27  1  0
 29 27  2  0
M  END
$$$$
