IWC.pdb
     RDKit          3D

 29 30  0  0  1  0  0  0  0  0999 V2000
   20.6080  -10.6936    6.8635 C   0  0  0  0  0  0  0  0  0  0  0  0
   19.6989  -11.2581    5.8118 C   0  0  0  0  0  0  0  0  0  0  0  0
   19.1782  -12.6304    6.1366 C   0  0  2  0  0  0  0  0  0  0  0  0
   20.3624  -13.5141    6.4527 C   0  0  0  0  0  0  0  0  0  0  0  0
   18.3264  -13.2110    5.0292 C   0  0  2  0  0  0  0  0  0  0  0  0
   17.1769  -12.3569    4.8579 N   0  0  0  0  0  0  0  0  0  0  0  0
   17.9106  -14.5880    5.2906 C   0  0  0  0  0  0  0  0  0  0  0  0
   17.0618  -14.8090    6.2072 O   0  0  0  0  0  0  0  0  0  0  0  0
   18.3820  -15.7265    4.5952 N   0  0  0  0  0  0  0  0  0  0  0  0
   18.1200  -17.0889    4.9641 C   0  0  1  0  0  0  0  0  0  0  0  0
   18.2273  -18.0468    3.8232 C   0  0  0  0  0  0  0  0  0  0  0  0
   16.9832  -18.4067    3.1528 C   0  0  0  0  0  0  0  0  0  0  0  0
   16.0336  -17.5174    2.6947 C   0  0  0  0  0  0  0  0  0  0  0  0
   15.0319  -18.2107    2.1514 N   0  0  0  0  0  0  0  0  0  0  0  0
   15.2732  -19.5249    2.2274 C   0  0  0  0  0  0  0  0  0  0  0  0
   14.5386  -20.6187    1.8025 C   0  0  0  0  0  0  0  0  0  0  0  0
   15.0105  -21.8786    1.9939 C   0  0  0  0  0  0  0  0  0  0  0  0
   16.2290  -22.0456    2.6162 C   0  0  0  0  0  0  0  0  0  0  0  0
   16.9573  -20.9537    3.0381 C   0  0  0  0  0  0  0  0  0  0  0  0
   16.4975  -19.6602    2.8550 C   0  0  0  0  0  0  0  0  0  0  0  0
   18.8474  -17.5124    6.1715 C   0  0  0  0  0  0  0  0  0  0  0  0
   20.1113  -17.3239    6.2428 O   0  0  0  0  0  0  0  0  0  0  0  0
   18.2565  -18.1319    7.3046 N   0  0  0  0  0  0  0  0  0  0  0  0
   19.0724  -18.6146    8.4222 C   0  0  1  0  0  0  0  0  0  0  0  0
   18.8745  -17.6729    9.5983 C   0  0  0  0  0  0  0  0  0  0  0  0
   19.6077  -18.4054   11.0831 S   0  0  0  0  0  0  0  0  0  0  0  0
   18.7853  -20.0111    8.7395 C   0  0  0  0  0  0  0  0  0  0  0  0
   19.6601  -20.7389    9.5648 O   0  0  0  0  0  0  0  0  0  0  0  0
   17.7581  -20.5649    8.2763 O   0  0  0  0  0  0  0  0  0  0  0  0
  2  1  1  0
  3  2  1  0
  3  4  1  6
  5  3  1  0
  5  6  1  1
  7  5  1  0
  8  7  2  0
  9  7  1  0
 10  9  1  0
 11 12  1  0
 10 11  1  6
 12 20  1  0
 12 13  2  0
 13 14  1  0
 15 14  1  0
 15 16  2  0
 17 16  1  0
 18 17  2  0
 19 18  1  0
 19 20  2  0
 20 15  1  0
 21 22  2  0
 21 10  1  0
 23 21  1  0
 24 23  1  0
 24 25  1  1
 26 25  1  0
 27 24  1  0
 28 27  1  0
 29 27  2  0
M  END
$$$$
