EYL.pdb
     RDKit          3D

 30 30  0  0  1  0  0  0  0  0999 V2000
   25.7082  -12.6155  -19.7349 N   0  0  0  0  0  0  0  0  0  0  0  0
   24.5461  -11.7234  -19.6484 C   0  0  1  0  0  0  0  0  0  0  0  0
   23.2840  -12.5348  -19.4198 C   0  0  0  0  0  0  0  0  0  0  0  0
   22.9299  -13.4297  -20.5595 C   0  0  0  0  0  0  0  0  0  0  0  0
   21.4541  -13.7101  -20.4501 C   0  0  0  0  0  0  0  0  0  0  0  0
   20.7401  -13.1837  -19.5634 O   0  0  0  0  0  0  0  0  0  0  0  0
   24.7960  -10.7180  -18.6118 C   0  0  0  0  0  0  0  0  0  0  0  0
   25.6261  -10.8669  -17.6761 O   0  0  0  0  0  0  0  0  0  0  0  0
   20.8546  -14.5722  -21.3480 O   0  0  0  0  0  0  0  0  0  0  0  0
   29.5722   -7.3348  -20.9737 O   0  0  0  0  0  0  0  0  0  0  0  0
   28.3523   -7.2915  -20.3162 C   0  0  0  0  0  0  0  0  0  0  0  0
   27.1685   -7.3346  -21.0076 C   0  0  0  0  0  0  0  0  0  0  0  0
   25.9704   -7.2904  -20.3343 C   0  0  0  0  0  0  0  0  0  0  0  0
   25.9360   -7.2013  -18.9381 C   0  0  0  0  0  0  0  0  0  0  0  0
   24.6492   -7.1289  -18.2315 C   0  0  0  0  0  0  0  0  0  0  0  0
   24.3341   -8.4423  -17.5904 C   0  0  2  0  0  0  0  0  0  0  0  0
   24.0749   -9.4692  -18.6200 N   0  0  0  0  0  0  0  0  0  0  0  0
   23.1106   -8.3463  -16.7678 C   0  0  0  0  0  0  0  0  0  0  0  0
   21.9422   -8.3463  -17.2729 O   0  0  0  0  0  0  0  0  0  0  0  0
   27.1280   -7.1588  -18.2591 C   0  0  0  0  0  0  0  0  0  0  0  0
   28.3554   -7.2029  -18.9303 C   0  0  0  0  0  0  0  0  0  0  0  0
   19.9901  -10.0962  -12.9274 C   0  0  0  0  0  0  0  0  0  0  0  0
   21.1083   -9.1482  -12.3514 C   0  0  1  0  0  0  0  0  0  0  0  0
   21.5099   -9.8343  -11.0816 C   0  0  0  0  0  0  0  0  0  0  0  0
   22.1043   -9.0775  -13.4322 C   0  0  0  0  0  0  0  0  0  0  0  0
   21.9273   -8.1510  -14.5651 C   0  0  2  0  0  0  0  0  0  0  0  0
   23.1721   -8.2490  -15.3708 N   0  0  0  0  0  0  0  0  0  0  0  0
   21.7175   -6.7563  -14.1881 C   0  0  0  0  0  0  0  0  0  0  0  0
   20.4263   -6.2556  -14.0357 O   0  0  0  0  0  0  0  0  0  0  0  0
   22.6562   -5.9746  -13.9917 O   0  0  0  0  0  0  0  0  0  0  0  0
  2  3  1  0
  2  1  1  1
  4  5  1  0
  4  3  1  0
  5  6  2  0
  7  2  1  0
  8  7  2  0
  9  5  1  0
 11 10  1  0
 11 21  2  0
 12 11  1  0
 13 12  2  0
 13 14  1  0
 14 20  2  0
 15 14  1  0
 16 15  1  6
 16 17  1  0
 17  7  1  0
 18 16  1  0
 18 19  2  0
 20 21  1  0
 23 22  1  6
 23 25  1  0
 24 23  1  0
 26 25  1  1
 26 27  1  0
 27 18  1  0
 28 29  1  0
 28 26  1  0
 30 28  2  0
M  END
$$$$
