EYL.pdb
     RDKit          3D

 30 30  0  0  1  0  0  0  0  0999 V2000
   18.2972  -21.7215  -15.5312 N   0  0  0  0  0  0  0  0  0  0  0  0
   17.8413  -20.4580  -14.9400 C   0  0  1  0  0  0  0  0  0  0  0  0
   16.8734  -20.7351  -13.8043 C   0  0  0  0  0  0  0  0  0  0  0  0
   16.2064  -22.0665  -13.8941 C   0  0  0  0  0  0  0  0  0  0  0  0
   15.2698  -22.1638  -12.7185 C   0  0  0  0  0  0  0  0  0  0  0  0
   15.5935  -22.7452  -11.6554 O   0  0  0  0  0  0  0  0  0  0  0  0
   19.0116  -19.6726  -14.5383 C   0  0  0  0  0  0  0  0  0  0  0  0
   18.9422  -18.5367  -13.9984 O   0  0  0  0  0  0  0  0  0  0  0  0
   14.0113  -21.5995  -12.7999 O   0  0  0  0  0  0  0  0  0  0  0  0
   19.4094  -20.6272   -8.4271 O   0  0  0  0  0  0  0  0  0  0  0  0
   20.1043  -20.5492   -9.6243 C   0  0  0  0  0  0  0  0  0  0  0  0
   20.1479  -21.6097  -10.4930 C   0  0  0  0  0  0  0  0  0  0  0  0
   20.8434  -21.5095  -11.6750 C   0  0  0  0  0  0  0  0  0  0  0  0
   21.5164  -20.3298  -12.0126 C   0  0  0  0  0  0  0  0  0  0  0  0
   22.2776  -20.2438  -13.2670 C   0  0  0  0  0  0  0  0  0  0  0  0
   21.5242  -19.4399  -14.2777 C   0  0  2  0  0  0  0  0  0  0  0  0
   20.3418  -20.1869  -14.7525 N   0  0  0  0  0  0  0  0  0  0  0  0
   22.3612  -19.1690  -15.4646 C   0  0  0  0  0  0  0  0  0  0  0  0
   23.5659  -18.7669  -15.3777 O   0  0  0  0  0  0  0  0  0  0  0  0
   21.4646  -19.2768  -11.1339 C   0  0  0  0  0  0  0  0  0  0  0  0
   20.7609  -19.3635   -9.9273 C   0  0  0  0  0  0  0  0  0  0  0  0
   25.5899  -19.7048  -18.9603 C   0  0  0  0  0  0  0  0  0  0  0  0
   24.2783  -20.4254  -19.4514 C   0  0  1  0  0  0  0  0  0  0  0  0
   24.7677  -21.7868  -19.8405 C   0  0  0  0  0  0  0  0  0  0  0  0
   23.3694  -20.3319  -18.2982 C   0  0  0  0  0  0  0  0  0  0  0  0
   22.7258  -19.0539  -17.9433 C   0  0  2  0  0  0  0  0  0  0  0  0
   21.8676  -19.3424  -16.7651 N   0  0  0  0  0  0  0  0  0  0  0  0
   21.9005  -18.4710  -18.9971 C   0  0  0  0  0  0  0  0  0  0  0  0
   22.4458  -17.5498  -19.8889 O   0  0  0  0  0  0  0  0  0  0  0  0
   20.7069  -18.7627  -19.1416 O   0  0  0  0  0  0  0  0  0  0  0  0
  2  3  1  0
  2  1  1  1
  4  5  1  0
  4  3  1  0
  5  6  2  0
  7  2  1  0
  8  7  2  0
  9  5  1  0
 11 10  1  0
 11 21  2  0
 12 11  1  0
 13 12  2  0
 13 14  1  0
 14 20  2  0
 15 14  1  0
 16 15  1  1
 16 17  1  0
 17  7  1  0
 18 16  1  0
 18 19  2  0
 20 21  1  0
 23 22  1  1
 23 25  1  0
 24 23  1  0
 26 25  1  6
 26 27  1  0
 27 18  1  0
 28 29  1  0
 28 26  1  0
 30 28  2  0
M  END
$$$$
