EYL.pdb
     RDKit          3D

 30 30  0  0  1  0  0  0  0  0999 V2000
   25.2783  -21.7626  -13.6129 N   0  0  0  0  0  0  0  0  0  0  0  0
   26.3886  -21.2127  -12.8264 C   0  0  1  0  0  0  0  0  0  0  0  0
   27.3318  -20.4391  -13.7295 C   0  0  0  0  0  0  0  0  0  0  0  0
   26.6446  -19.7176  -14.8397 C   0  0  0  0  0  0  0  0  0  0  0  0
   27.0205  -20.4241  -16.1158 C   0  0  0  0  0  0  0  0  0  0  0  0
   26.2633  -21.2622  -16.6610 O   0  0  0  0  0  0  0  0  0  0  0  0
   25.8410  -20.4156  -11.7253 C   0  0  0  0  0  0  0  0  0  0  0  0
   25.5141  -19.2037  -11.8317 O   0  0  0  0  0  0  0  0  0  0  0  0
   28.2345  -20.1499  -16.7155 O   0  0  0  0  0  0  0  0  0  0  0  0
   19.0194  -21.1802  -10.2062 O   0  0  0  0  0  0  0  0  0  0  0  0
   20.3329  -21.1236   -9.7659 C   0  0  0  0  0  0  0  0  0  0  0  0
   21.3144  -20.5402  -10.5259 C   0  0  0  0  0  0  0  0  0  0  0  0
   22.6105  -20.4954  -10.0688 C   0  0  0  0  0  0  0  0  0  0  0  0
   22.9513  -21.0413   -8.8261 C   0  0  0  0  0  0  0  0  0  0  0  0
   24.3449  -21.0101   -8.3598 C   0  0  0  0  0  0  0  0  0  0  0  0
   25.1840  -20.1890   -9.2856 C   0  0  2  0  0  0  0  0  0  0  0  0
   25.6460  -21.0076  -10.4249 N   0  0  0  0  0  0  0  0  0  0  0  0
   26.3948  -19.6938   -8.5988 C   0  0  0  0  0  0  0  0  0  0  0  0
   26.5143  -18.4908   -8.2002 O   0  0  0  0  0  0  0  0  0  0  0  0
   21.9592  -21.6222   -8.0763 C   0  0  0  0  0  0  0  0  0  0  0  0
   20.6356  -21.6753   -8.5279 C   0  0  0  0  0  0  0  0  0  0  0  0
   28.1988  -18.8529   -4.0055 C   0  0  0  0  0  0  0  0  0  0  0  0
   29.1300  -19.1989   -5.2278 C   0  0  1  0  0  0  0  0  0  0  0  0
   30.0866  -20.1967   -4.6502 C   0  0  0  0  0  0  0  0  0  0  0  0
   28.1962  -19.6702   -6.2626 C   0  0  0  0  0  0  0  0  0  0  0  0
   28.6763  -20.0241   -7.6108 C   0  0  2  0  0  0  0  0  0  0  0  0
   27.4893  -20.5324   -8.3463 N   0  0  0  0  0  0  0  0  0  0  0  0
   29.7217  -21.0427   -7.6404 C   0  0  0  0  0  0  0  0  0  0  0  0
   29.3886  -22.3887   -7.7761 O   0  0  0  0  0  0  0  0  0  0  0  0
   30.9231  -20.7619   -7.5482 O   0  0  0  0  0  0  0  0  0  0  0  0
  2  3  1  0
  2  1  1  6
  4  5  1  0
  4  3  1  0
  5  6  2  0
  7  2  1  0
  8  7  2  0
  9  5  1  0
 11 10  1  0
 11 21  2  0
 12 11  1  0
 13 12  2  0
 13 14  1  0
 14 20  2  0
 15 14  1  0
 16 15  1  1
 16 17  1  0
 17  7  1  0
 18 16  1  0
 18 19  2  0
 20 21  1  0
 23 22  1  1
 23 25  1  0
 24 23  1  0
 26 25  1  1
 26 27  1  0
 27 18  1  0
 28 29  1  0
 28 26  1  0
 30 28  2  0
M  END
$$$$
