EYL.pdb
     RDKit          3D

 30 30  0  0  1  0  0  0  0  0999 V2000
   27.7300  -23.3869  -17.8643 N   0  0  0  0  0  0  0  0  0  0  0  0
   27.4670  -22.0123  -17.4226 C   0  0  1  0  0  0  0  0  0  0  0  0
   26.7165  -21.2543  -18.5023 C   0  0  0  0  0  0  0  0  0  0  0  0
   27.4995  -21.0633  -19.7577 C   0  0  0  0  0  0  0  0  0  0  0  0
   28.5789  -20.0593  -19.4485 C   0  0  0  0  0  0  0  0  0  0  0  0
   29.4685  -20.2800  -18.5925 O   0  0  0  0  0  0  0  0  0  0  0  0
   26.7663  -22.0532  -16.1361 C   0  0  0  0  0  0  0  0  0  0  0  0
   25.8161  -22.8394  -15.8798 O   0  0  0  0  0  0  0  0  0  0  0  0
   28.6020  -18.8529  -20.1216 O   0  0  0  0  0  0  0  0  0  0  0  0
   24.3801  -20.2971   -7.8567 O   0  0  0  0  0  0  0  0  0  0  0  0
   25.0835  -20.3851   -9.0483 C   0  0  0  0  0  0  0  0  0  0  0  0
   25.6288  -21.5717   -9.4675 C   0  0  0  0  0  0  0  0  0  0  0  0
   26.3223  -21.6355  -10.6532 C   0  0  0  0  0  0  0  0  0  0  0  0
   26.4843  -20.4969  -11.4506 C   0  0  0  0  0  0  0  0  0  0  0  0
   27.2496  -20.5720  -12.7032 C   0  0  0  0  0  0  0  0  0  0  0  0
   26.4047  -21.1470  -13.7945 C   0  0  2  0  0  0  0  0  0  0  0  0
   27.1499  -21.1615  -15.0697 N   0  0  0  0  0  0  0  0  0  0  0  0
   25.1985  -20.3230  -14.0157 C   0  0  0  0  0  0  0  0  0  0  0  0
   25.2293  -19.2157  -14.6427 O   0  0  0  0  0  0  0  0  0  0  0  0
   25.9337  -19.3162  -11.0187 C   0  0  0  0  0  0  0  0  0  0  0  0
   25.2250  -19.2356   -9.8145 C   0  0  0  0  0  0  0  0  0  0  0  0
   20.5965  -20.9681  -16.0609 C   0  0  0  0  0  0  0  0  0  0  0  0
   22.1653  -21.0373  -15.9386 C   0  0  1  0  0  0  0  0  0  0  0  0
   22.6102  -21.1341  -17.3658 C   0  0  0  0  0  0  0  0  0  0  0  0
   22.5173  -19.8166  -15.1963 C   0  0  0  0  0  0  0  0  0  0  0  0
   22.7497  -19.8562  -13.7411 C   0  0  2  0  0  0  0  0  0  0  0  0
   23.9411  -20.7215  -13.5414 N   0  0  0  0  0  0  0  0  0  0  0  0
   21.6401  -20.3927  -12.9585 C   0  0  0  0  0  0  0  0  0  0  0  0
   20.4647  -19.6595  -12.8106 O   0  0  0  0  0  0  0  0  0  0  0  0
   21.6933  -21.4976  -12.4044 O   0  0  0  0  0  0  0  0  0  0  0  0
  2  3  1  0
  2  1  1  6
  4  5  1  0
  4  3  1  0
  5  6  2  0
  7  2  1  0
  8  7  2  0
  9  5  1  0
 11 10  1  0
 11 21  2  0
 12 11  1  0
 13 12  2  0
 13 14  1  0
 14 20  2  0
 15 14  1  0
 16 15  1  1
 16 17  1  0
 17  7  1  0
 18 16  1  0
 18 19  2  0
 20 21  1  0
 23 22  1  6
 23 25  1  0
 24 23  1  0
 26 25  1  6
 26 27  1  0
 27 18  1  0
 28 29  1  0
 28 26  1  0
 30 28  2  0
M  END
$$$$
