EYL.pdb
     RDKit          3D

 30 30  0  0  1  0  0  0  0  0999 V2000
   24.2111   -9.1921  -20.8612 N   0  0  0  0  0  0  0  0  0  0  0  0
   23.1526   -9.8613  -20.0960 C   0  0  1  0  0  0  0  0  0  0  0  0
   23.3067  -11.3674  -20.2035 C   0  0  0  0  0  0  0  0  0  0  0  0
   23.2003  -11.8846  -21.5987 C   0  0  0  0  0  0  0  0  0  0  0  0
   24.1581  -13.0420  -21.7077 C   0  0  0  0  0  0  0  0  0  0  0  0
   25.2932  -12.9206  -22.2270 O   0  0  0  0  0  0  0  0  0  0  0  0
   23.1764   -9.3635  -18.7178 C   0  0  0  0  0  0  0  0  0  0  0  0
   22.4235   -9.7932  -17.8039 O   0  0  0  0  0  0  0  0  0  0  0  0
   23.7877  -14.2822  -21.2246 O   0  0  0  0  0  0  0  0  0  0  0  0
   27.7837  -13.1444  -17.0930 O   0  0  0  0  0  0  0  0  0  0  0  0
   27.2677  -11.8673  -16.9344 C   0  0  0  0  0  0  0  0  0  0  0  0
   26.5589  -11.5196  -15.8128 C   0  0  0  0  0  0  0  0  0  0  0  0
   26.0565  -10.2469  -15.6770 C   0  0  0  0  0  0  0  0  0  0  0  0
   26.2578   -9.2869  -16.6752 C   0  0  0  0  0  0  0  0  0  0  0  0
   25.6939   -7.9373  -16.5300 C   0  0  0  0  0  0  0  0  0  0  0  0
   24.2504   -7.9328  -16.9192 C   0  0  2  0  0  0  0  0  0  0  0  0
   24.0975   -8.3218  -18.3359 N   0  0  0  0  0  0  0  0  0  0  0  0
   23.6734   -6.5794  -16.7850 C   0  0  0  0  0  0  0  0  0  0  0  0
   23.7201   -5.7174  -17.7204 O   0  0  0  0  0  0  0  0  0  0  0  0
   26.9686   -9.6485  -17.7922 C   0  0  0  0  0  0  0  0  0  0  0  0
   27.4862  -10.9399  -17.9447 C   0  0  0  0  0  0  0  0  0  0  0  0
   21.2020   -2.6866  -17.4347 C   0  0  0  0  0  0  0  0  0  0  0  0
   20.3367   -3.7722  -16.6907 C   0  0  1  0  0  0  0  0  0  0  0  0
   19.1690   -3.9601  -17.6102 C   0  0  0  0  0  0  0  0  0  0  0  0
   21.2595   -4.9056  -16.5209 C   0  0  0  0  0  0  0  0  0  0  0  0
   22.3558   -4.8482  -15.5370 C   0  0  2  0  0  0  0  0  0  0  0  0
   23.0361   -6.1675  -15.6063 N   0  0  0  0  0  0  0  0  0  0  0  0
   21.9313   -4.6078  -14.1610 C   0  0  0  0  0  0  0  0  0  0  0  0
   21.8370   -3.3068  -13.6713 O   0  0  0  0  0  0  0  0  0  0  0  0
   21.6429   -5.5281  -13.3861 O   0  0  0  0  0  0  0  0  0  0  0  0
  2  3  1  0
  2  1  1  6
  4  5  1  0
  4  3  1  0
  5  6  2  0
  7  2  1  0
  8  7  2  0
  9  5  1  0
 11 10  1  0
 11 21  2  0
 12 11  1  0
 13 12  2  0
 13 14  1  0
 14 20  2  0
 15 14  1  0
 16 15  1  6
 16 17  1  0
 17  7  1  0
 18 16  1  0
 18 19  2  0
 20 21  1  0
 23 22  1  6
 23 25  1  0
 24 23  1  0
 26 25  1  6
 26 27  1  0
 27 18  1  0
 28 29  1  0
 28 26  1  0
 30 28  2  0
M  END
$$$$
