EYL.pdb
     RDKit          3D

 30 30  0  0  1  0  0  0  0  0999 V2000
   25.7627  -21.9543  -12.0496 N   0  0  0  0  0  0  0  0  0  0  0  0
   25.4346  -22.4746  -13.3821 C   0  0  1  0  0  0  0  0  0  0  0  0
   24.8695  -23.8785  -13.2670 C   0  0  0  0  0  0  0  0  0  0  0  0
   24.4692  -24.4746  -14.5746 C   0  0  0  0  0  0  0  0  0  0  0  0
   23.1822  -25.2200  -14.3369 C   0  0  0  0  0  0  0  0  0  0  0  0
   23.1362  -26.2666  -13.6474 O   0  0  0  0  0  0  0  0  0  0  0  0
   24.5356  -21.5307  -14.0518 C   0  0  0  0  0  0  0  0  0  0  0  0
   24.1333  -21.6665  -15.2377 O   0  0  0  0  0  0  0  0  0  0  0  0
   22.0076  -24.7474  -14.8899 O   0  0  0  0  0  0  0  0  0  0  0  0
   19.2957  -22.3563   -9.8732 O   0  0  0  0  0  0  0  0  0  0  0  0
   20.0469  -21.4629  -10.6215 C   0  0  0  0  0  0  0  0  0  0  0  0
   21.0798  -20.7561  -10.0604 C   0  0  0  0  0  0  0  0  0  0  0  0
   21.8114  -19.8754  -10.8219 C   0  0  0  0  0  0  0  0  0  0  0  0
   21.5177  -19.6843  -12.1767 C   0  0  0  0  0  0  0  0  0  0  0  0
   22.2905  -18.7211  -12.9739 C   0  0  0  0  0  0  0  0  0  0  0  0
   23.1069  -19.4351  -14.0030 C   0  0  2  0  0  0  0  0  0  0  0  0
   24.0559  -20.3629  -13.3549 N   0  0  0  0  0  0  0  0  0  0  0  0
   23.9149  -18.4802  -14.7891 C   0  0  0  0  0  0  0  0  0  0  0  0
   24.4544  -17.4495  -14.2724 O   0  0  0  0  0  0  0  0  0  0  0  0
   20.4814  -20.3978  -12.7250 C   0  0  0  0  0  0  0  0  0  0  0  0
   19.7278  -21.2978  -11.9629 C   0  0  0  0  0  0  0  0  0  0  0  0
   28.8033  -18.1157  -15.9367 C   0  0  0  0  0  0  0  0  0  0  0  0
   27.6619  -17.5401  -16.8569 C   0  0  1  0  0  0  0  0  0  0  0  0
   28.0851  -17.9715  -18.2277 C   0  0  0  0  0  0  0  0  0  0  0  0
   26.4314  -18.1298  -16.3064 C   0  0  0  0  0  0  0  0  0  0  0  0
   25.1144  -17.8133  -16.8883 C   0  0  2  0  0  0  0  0  0  0  0  0
   24.1331  -18.6605  -16.1620 N   0  0  0  0  0  0  0  0  0  0  0  0
   24.9982  -18.0777  -18.3194 C   0  0  0  0  0  0  0  0  0  0  0  0
   25.2416  -17.0640  -19.2438 O   0  0  0  0  0  0  0  0  0  0  0  0
   24.6853  -19.1887  -18.7647 O   0  0  0  0  0  0  0  0  0  0  0  0
  2  3  1  0
  2  1  1  1
  4  5  1  0
  4  3  1  0
  5  6  2  0
  7  2  1  0
  8  7  2  0
  9  5  1  0
 11 10  1  0
 11 21  2  0
 12 11  1  0
 13 12  2  0
 13 14  1  0
 14 20  2  0
 15 14  1  0
 16 15  1  1
 16 17  1  0
 17  7  1  0
 18 16  1  0
 18 19  2  0
 20 21  1  0
 23 22  1  1
 23 25  1  0
 24 23  1  0
 26 25  1  1
 26 27  1  0
 27 18  1  0
 28 29  1  0
 28 26  1  0
 30 28  2  0
M  END
$$$$
