EYL.pdb
     RDKit          3D

 30 30  0  0  1  0  0  0  0  0999 V2000
   21.0807  -20.4155  -11.7393 N   0  0  0  0  0  0  0  0  0  0  0  0
   22.1242  -21.3570  -12.1616 C   0  0  1  0  0  0  0  0  0  0  0  0
   21.6721  -22.1138  -13.3971 C   0  0  0  0  0  0  0  0  0  0  0  0
   20.5026  -23.0090  -13.1594 C   0  0  0  0  0  0  0  0  0  0  0  0
   19.3241  -22.3786  -13.8539 C   0  0  0  0  0  0  0  0  0  0  0  0
   18.2955  -22.0233  -13.2306 O   0  0  0  0  0  0  0  0  0  0  0  0
   23.3789  -20.6227  -12.3468 C   0  0  0  0  0  0  0  0  0  0  0  0
   23.4386  -19.4012  -12.6486 O   0  0  0  0  0  0  0  0  0  0  0  0
   19.3638  -22.1794  -15.2205 O   0  0  0  0  0  0  0  0  0  0  0  0
   26.1453  -19.6400   -6.1863 O   0  0  0  0  0  0  0  0  0  0  0  0
   26.3698  -19.9952   -7.5076 C   0  0  0  0  0  0  0  0  0  0  0  0
   27.0495  -19.1655   -8.3626 C   0  0  0  0  0  0  0  0  0  0  0  0
   27.2607  -19.5387   -9.6691 C   0  0  0  0  0  0  0  0  0  0  0  0
   26.7887  -20.7657  -10.1490 C   0  0  0  0  0  0  0  0  0  0  0  0
   26.9983  -21.1420  -11.5543 C   0  0  0  0  0  0  0  0  0  0  0  0
   25.9143  -20.5721  -12.4119 C   0  0  2  0  0  0  0  0  0  0  0  0
   24.6454  -21.2932  -12.1853 N   0  0  0  0  0  0  0  0  0  0  0  0
   26.2412  -20.7259  -13.8445 C   0  0  0  0  0  0  0  0  0  0  0  0
   25.8439  -21.7176  -14.5366 O   0  0  0  0  0  0  0  0  0  0  0  0
   26.1100  -21.5858   -9.2826 C   0  0  0  0  0  0  0  0  0  0  0  0
   25.8874  -21.2199   -7.9502 C   0  0  0  0  0  0  0  0  0  0  0  0
   23.3810  -18.7494  -17.3260 C   0  0  0  0  0  0  0  0  0  0  0  0
   24.9225  -18.9777  -17.5555 C   0  0  1  0  0  0  0  0  0  0  0  0
   25.3412  -17.7385  -18.2859 C   0  0  0  0  0  0  0  0  0  0  0  0
   25.4562  -19.1827  -16.1997 C   0  0  0  0  0  0  0  0  0  0  0  0
   26.8588  -19.5857  -15.9913 C   0  0  2  0  0  0  0  0  0  0  0  0
   27.0153  -19.7765  -14.5260 N   0  0  0  0  0  0  0  0  0  0  0  0
   27.8488  -18.6155  -16.4494 C   0  0  0  0  0  0  0  0  0  0  0  0
   28.1022  -17.4648  -15.7058 O   0  0  0  0  0  0  0  0  0  0  0  0
   28.4924  -18.7687  -17.4949 O   0  0  0  0  0  0  0  0  0  0  0  0
  2  3  1  0
  2  1  1  6
  4  5  1  0
  4  3  1  0
  5  6  2  0
  7  2  1  0
  8  7  2  0
  9  5  1  0
 11 10  1  0
 11 21  2  0
 12 11  1  0
 13 12  2  0
 13 14  1  0
 14 20  2  0
 15 14  1  0
 16 15  1  1
 16 17  1  0
 17  7  1  0
 18 16  1  0
 18 19  2  0
 20 21  1  0
 23 22  1  1
 23 25  1  0
 24 23  1  0
 26 25  1  1
 26 27  1  0
 27 18  1  0
 28 29  1  0
 28 26  1  0
 30 28  2  0
M  END
$$$$
