EYL.pdb
     RDKit          3D

 30 30  0  0  1  0  0  0  0  0999 V2000
   21.3093  -14.9539  -16.3268 N   0  0  0  0  0  0  0  0  0  0  0  0
   20.9693  -13.6831  -16.9774 C   0  0  1  0  0  0  0  0  0  0  0  0
   19.4720  -13.4461  -16.9041 C   0  0  0  0  0  0  0  0  0  0  0  0
   18.6657  -14.4604  -17.6433 C   0  0  0  0  0  0  0  0  0  0  0  0
   18.7638  -14.1123  -19.1055 C   0  0  0  0  0  0  0  0  0  0  0  0
   18.8772  -12.9279  -19.5021 O   0  0  0  0  0  0  0  0  0  0  0  0
   21.7657  -12.6122  -16.3720 C   0  0  0  0  0  0  0  0  0  0  0  0
   22.1148  -12.5963  -15.1618 O   0  0  0  0  0  0  0  0  0  0  0  0
   18.7289  -15.1194  -20.0507 O   0  0  0  0  0  0  0  0  0  0  0  0
   27.6655  -14.8162  -16.8260 O   0  0  0  0  0  0  0  0  0  0  0  0
   26.8552  -13.7003  -16.9696 C   0  0  0  0  0  0  0  0  0  0  0  0
   26.8904  -12.6729  -16.0616 C   0  0  0  0  0  0  0  0  0  0  0  0
   26.0777  -11.5757  -16.2243 C   0  0  0  0  0  0  0  0  0  0  0  0
   25.2037  -11.4867  -17.3138 C   0  0  0  0  0  0  0  0  0  0  0  0
   24.3215  -10.3206  -17.4629 C   0  0  0  0  0  0  0  0  0  0  0  0
   23.1094  -10.4727  -16.6010 C   0  0  2  0  0  0  0  0  0  0  0  0
   22.1995  -11.4895  -17.1664 N   0  0  0  0  0  0  0  0  0  0  0  0
   22.3474   -9.2085  -16.5367 C   0  0  0  0  0  0  0  0  0  0  0  0
   21.4148   -8.9268  -17.3559 O   0  0  0  0  0  0  0  0  0  0  0  0
   25.1788  -12.5221  -18.2144 C   0  0  0  0  0  0  0  0  0  0  0  0
   26.0000  -13.6452  -18.0623 C   0  0  0  0  0  0  0  0  0  0  0  0
   19.8352   -5.6872  -13.2097 C   0  0  0  0  0  0  0  0  0  0  0  0
   21.2685   -5.2530  -13.6977 C   0  0  1  0  0  0  0  0  0  0  0  0
   21.8332   -4.5509  -12.5008 C   0  0  0  0  0  0  0  0  0  0  0  0
   21.9012   -6.5165  -14.1078 C   0  0  0  0  0  0  0  0  0  0  0  0
   21.8225   -6.9842  -15.5036 C   0  0  2  0  0  0  0  0  0  0  0  0
   22.6141   -8.2406  -15.5584 N   0  0  0  0  0  0  0  0  0  0  0  0
   22.3511   -6.0497  -16.4929 C   0  0  0  0  0  0  0  0  0  0  0  0
   21.4981   -5.1690  -17.1546 O   0  0  0  0  0  0  0  0  0  0  0  0
   23.5533   -5.9996  -16.7810 O   0  0  0  0  0  0  0  0  0  0  0  0
  2  3  1  0
  2  1  1  1
  4  5  1  0
  4  3  1  0
  5  6  2  0
  7  2  1  0
  8  7  2  0
  9  5  1  0
 11 10  1  0
 11 21  2  0
 12 11  1  0
 13 12  2  0
 13 14  1  0
 14 20  2  0
 15 14  1  0
 16 15  1  6
 16 17  1  0
 17  7  1  0
 18 16  1  0
 18 19  2  0
 20 21  1  0
 23 22  1  1
 23 25  1  0
 24 23  1  0
 26 25  1  1
 26 27  1  0
 27 18  1  0
 28 29  1  0
 28 26  1  0
 30 28  2  0
M  END
$$$$
