EYL.pdb
     RDKit          3D

 30 30  0  0  1  0  0  0  0  0999 V2000
   23.9692  -19.6951  -18.3695 N   0  0  0  0  0  0  0  0  0  0  0  0
   24.8646  -18.7726  -17.6617 C   0  0  1  0  0  0  0  0  0  0  0  0
   25.2358  -17.6121  -18.5667 C   0  0  0  0  0  0  0  0  0  0  0  0
   25.8981  -18.0281  -19.8370 C   0  0  0  0  0  0  0  0  0  0  0  0
   27.3821  -17.8914  -19.6188 C   0  0  0  0  0  0  0  0  0  0  0  0
   27.9207  -16.7848  -19.3773 O   0  0  0  0  0  0  0  0  0  0  0  0
   24.2275  -18.3615  -16.4077 C   0  0  0  0  0  0  0  0  0  0  0  0
   24.7164  -17.5096  -15.6190 O   0  0  0  0  0  0  0  0  0  0  0  0
   28.1876  -19.0120  -19.6840 O   0  0  0  0  0  0  0  0  0  0  0  0
   17.5198  -22.0270  -16.8143 O   0  0  0  0  0  0  0  0  0  0  0  0
   18.3870  -21.0482  -16.3535 C   0  0  0  0  0  0  0  0  0  0  0  0
   19.6255  -20.8717  -16.9159 C   0  0  0  0  0  0  0  0  0  0  0  0
   20.4690  -19.8944  -16.4425 C   0  0  0  0  0  0  0  0  0  0  0  0
   20.0821  -19.0655  -15.3834 C   0  0  0  0  0  0  0  0  0  0  0  0
   21.0027  -18.0413  -14.8694 C   0  0  0  0  0  0  0  0  0  0  0  0
   22.3726  -18.6143  -14.6957 C   0  0  2  0  0  0  0  0  0  0  0  0
   22.9666  -18.9367  -16.0091 N   0  0  0  0  0  0  0  0  0  0  0  0
   22.3217  -19.8770  -13.9303 C   0  0  0  0  0  0  0  0  0  0  0  0
   22.7409  -20.9827  -14.4015 O   0  0  0  0  0  0  0  0  0  0  0  0
   18.8403  -19.2534  -14.8300 C   0  0  0  0  0  0  0  0  0  0  0  0
   17.9707  -20.2437  -15.3009 C   0  0  0  0  0  0  0  0  0  0  0  0
   25.4003  -22.0470  -11.1433 C   0  0  0  0  0  0  0  0  0  0  0  0
   24.5814  -20.9867  -10.3152 C   0  0  1  0  0  0  0  0  0  0  0  0
   25.6534  -20.1603   -9.6731 C   0  0  0  0  0  0  0  0  0  0  0  0
   23.7281  -20.3339  -11.3205 C   0  0  0  0  0  0  0  0  0  0  0  0
   22.3802  -20.8506  -11.6197 C   0  0  2  0  0  0  0  0  0  0  0  0
   21.8030  -19.9252  -12.6289 N   0  0  0  0  0  0  0  0  0  0  0  0
   21.4813  -20.9168  -10.4712 C   0  0  0  0  0  0  0  0  0  0  0  0
   20.5945  -19.8742  -10.2113 O   0  0  0  0  0  0  0  0  0  0  0  0
   21.4676  -21.8803   -9.6952 O   0  0  0  0  0  0  0  0  0  0  0  0
  2  3  1  0
  2  1  1  6
  4  5  1  0
  4  3  1  0
  5  6  2  0
  7  2  1  0
  8  7  2  0
  9  5  1  0
 11 10  1  0
 11 21  2  0
 12 11  1  0
 13 12  2  0
 13 14  1  0
 14 20  2  0
 15 14  1  0
 16 15  1  6
 16 17  1  0
 17  7  1  0
 18 16  1  0
 18 19  2  0
 20 21  1  0
 23 22  1  6
 23 25  1  0
 24 23  1  0
 26 25  1  1
 26 27  1  0
 27 18  1  0
 28 29  1  0
 28 26  1  0
 30 28  2  0
M  END
$$$$
