EYL.pdb
     RDKit          3D

 30 30  0  0  1  0  0  0  0  0999 V2000
   26.1587  -19.6219  -16.5012 N   0  0  0  0  0  0  0  0  0  0  0  0
   26.7630  -20.3163  -15.3582 C   0  0  1  0  0  0  0  0  0  0  0  0
   28.2467  -20.0047  -15.2863 C   0  0  0  0  0  0  0  0  0  0  0  0
   29.0389  -20.5894  -16.4069 C   0  0  0  0  0  0  0  0  0  0  0  0
   28.8758  -22.0843  -16.3211 C   0  0  0  0  0  0  0  0  0  0  0  0
   29.2790  -22.7427  -15.3328 O   0  0  0  0  0  0  0  0  0  0  0  0
   26.0264  -19.9592  -14.1426 C   0  0  0  0  0  0  0  0  0  0  0  0
   25.6973  -18.7809  -13.8427 O   0  0  0  0  0  0  0  0  0  0  0  0
   28.2645  -22.7648  -17.3566 O   0  0  0  0  0  0  0  0  0  0  0  0
   20.3227  -18.5744  -15.9622 O   0  0  0  0  0  0  0  0  0  0  0  0
   21.1076  -19.2392  -15.0325 C   0  0  0  0  0  0  0  0  0  0  0  0
   22.0127  -20.1950  -15.4178 C   0  0  0  0  0  0  0  0  0  0  0  0
   22.7807  -20.8414  -14.4781 C   0  0  0  0  0  0  0  0  0  0  0  0
   22.6543  -20.5381  -13.1177 C   0  0  0  0  0  0  0  0  0  0  0  0
   23.4626  -21.2541  -12.1205 C   0  0  0  0  0  0  0  0  0  0  0  0
   24.8222  -20.6409  -12.0165 C   0  0  2  0  0  0  0  0  0  0  0  0
   25.6327  -20.9805  -13.2036 N   0  0  0  0  0  0  0  0  0  0  0  0
   25.5477  -21.1659  -10.8415 C   0  0  0  0  0  0  0  0  0  0  0  0
   25.8785  -22.3900  -10.7296 O   0  0  0  0  0  0  0  0  0  0  0  0
   21.7446  -19.5799  -12.7464 C   0  0  0  0  0  0  0  0  0  0  0  0
   20.9560  -18.9133  -13.6911 C   0  0  0  0  0  0  0  0  0  0  0  0
   28.5373  -18.5662   -6.8506 C   0  0  0  0  0  0  0  0  0  0  0  0
   28.0899  -19.6536   -7.8985 C   0  0  1  0  0  0  0  0  0  0  0  0
   29.0528  -20.7745   -7.6524 C   0  0  0  0  0  0  0  0  0  0  0  0
   26.6729  -19.8904   -7.5807 C   0  0  0  0  0  0  0  0  0  0  0  0
   25.8662  -20.8337   -8.3760 C   0  0  2  0  0  0  0  0  0  0  0  0
   25.9150  -20.3341   -9.7746 N   0  0  0  0  0  0  0  0  0  0  0  0
   24.4703  -20.9447   -7.9629 C   0  0  0  0  0  0  0  0  0  0  0  0
   24.1040  -21.8330   -6.9540 O   0  0  0  0  0  0  0  0  0  0  0  0
   23.5709  -20.2699   -8.4790 O   0  0  0  0  0  0  0  0  0  0  0  0
  2  3  1  0
  2  1  1  6
  4  5  1  0
  4  3  1  0
  5  6  2  0
  7  2  1  0
  8  7  2  0
  9  5  1  0
 11 10  1  0
 11 21  2  0
 12 11  1  0
 13 12  2  0
 13 14  1  0
 14 20  2  0
 15 14  1  0
 16 15  1  6
 16 17  1  0
 17  7  1  0
 18 16  1  0
 18 19  2  0
 20 21  1  0
 23 22  1  1
 23 25  1  0
 24 23  1  0
 26 25  1  1
 26 27  1  0
 27 18  1  0
 28 29  1  0
 28 26  1  0
 30 28  2  0
M  END
$$$$
