EYL.pdb
     RDKit          3D

 30 30  0  0  1  0  0  0  0  0999 V2000
   24.1000  -19.0070  -18.9526 N   0  0  0  0  0  0  0  0  0  0  0  0
   23.4034  -18.6233  -17.7192 C   0  0  1  0  0  0  0  0  0  0  0  0
   22.0509  -18.0206  -18.0524 C   0  0  0  0  0  0  0  0  0  0  0  0
   22.1329  -16.6717  -18.6842 C   0  0  0  0  0  0  0  0  0  0  0  0
   22.4880  -15.6997  -17.5899 C   0  0  0  0  0  0  0  0  0  0  0  0
   23.5826  -15.0877  -17.5719 O   0  0  0  0  0  0  0  0  0  0  0  0
   23.3270  -19.7896  -16.8351 C   0  0  0  0  0  0  0  0  0  0  0  0
   23.0066  -20.9443  -17.2235 O   0  0  0  0  0  0  0  0  0  0  0  0
   21.5892  -15.4651  -16.5672 O   0  0  0  0  0  0  0  0  0  0  0  0
   29.2251  -22.0568  -16.8847 O   0  0  0  0  0  0  0  0  0  0  0  0
   28.1197  -21.7993  -16.0884 C   0  0  0  0  0  0  0  0  0  0  0  0
   27.2650  -22.8032  -15.7101 C   0  0  0  0  0  0  0  0  0  0  0  0
   26.1749  -22.5245  -14.9197 C   0  0  0  0  0  0  0  0  0  0  0  0
   25.9179  -21.2182  -14.4883 C   0  0  0  0  0  0  0  0  0  0  0  0
   24.7351  -20.9288  -13.6650 C   0  0  0  0  0  0  0  0  0  0  0  0
   23.5171  -20.8212  -14.5253 C   0  0  2  0  0  0  0  0  0  0  0  0
   23.6268  -19.6592  -15.4306 N   0  0  0  0  0  0  0  0  0  0  0  0
   22.3089  -20.6069  -13.7025 C   0  0  0  0  0  0  0  0  0  0  0  0
   22.0790  -19.5137  -13.0923 O   0  0  0  0  0  0  0  0  0  0  0  0
   26.7811  -20.2236  -14.8746 C   0  0  0  0  0  0  0  0  0  0  0  0
   27.8949  -20.4917  -15.6786 C   0  0  0  0  0  0  0  0  0  0  0  0
   17.8892  -18.6662  -14.8139 C   0  0  0  0  0  0  0  0  0  0  0  0
   18.0608  -19.7574  -13.6911 C   0  0  1  0  0  0  0  0  0  0  0  0
   16.9203  -20.6926  -13.9535 C   0  0  0  0  0  0  0  0  0  0  0  0
   19.4242  -20.2699  -13.9003 C   0  0  0  0  0  0  0  0  0  0  0  0
   19.9991  -21.2825  -12.9963 C   0  0  2  0  0  0  0  0  0  0  0  0
   21.3399  -21.6080  -13.5480 N   0  0  0  0  0  0  0  0  0  0  0  0
   19.2231  -22.5140  -12.8843 C   0  0  0  0  0  0  0  0  0  0  0  0
   19.5009  -23.5983  -13.7140 O   0  0  0  0  0  0  0  0  0  0  0  0
   18.3048  -22.6465  -12.0659 O   0  0  0  0  0  0  0  0  0  0  0  0
  2  3  1  0
  2  1  1  6
  4  5  1  0
  4  3  1  0
  5  6  2  0
  7  2  1  0
  8  7  2  0
  9  5  1  0
 11 10  1  0
 11 21  2  0
 12 11  1  0
 13 12  2  0
 13 14  1  0
 14 20  2  0
 15 14  1  0
 16 15  1  1
 16 17  1  0
 17  7  1  0
 18 16  1  0
 18 19  2  0
 20 21  1  0
 23 22  1  6
 23 25  1  0
 24 23  1  0
 26 25  1  6
 26 27  1  0
 27 18  1  0
 28 29  1  0
 28 26  1  0
 30 28  2  0
M  END
$$$$
