EYL.pdb
     RDKit          3D

 30 30  0  0  1  0  0  0  0  0999 V2000
   28.2272  -20.8145  -17.4157 N   0  0  0  0  0  0  0  0  0  0  0  0
   27.2289  -19.8184  -17.0097 C   0  0  1  0  0  0  0  0  0  0  0  0
   26.4020  -19.3927  -18.2092 C   0  0  0  0  0  0  0  0  0  0  0  0
   27.1914  -18.6990  -19.2680 C   0  0  0  0  0  0  0  0  0  0  0  0
   26.7372  -19.2629  -20.5887 C   0  0  0  0  0  0  0  0  0  0  0  0
   25.8429  -20.1388  -20.6669 O   0  0  0  0  0  0  0  0  0  0  0  0
   26.4316  -20.3670  -15.9092 C   0  0  0  0  0  0  0  0  0  0  0  0
   26.2186  -21.5973  -15.7430 O   0  0  0  0  0  0  0  0  0  0  0  0
   27.3153  -18.8103  -21.7591 O   0  0  0  0  0  0  0  0  0  0  0  0
   30.5246  -21.8139  -10.9540 O   0  0  0  0  0  0  0  0  0  0  0  0
   29.3372  -21.2190  -11.3520 C   0  0  0  0  0  0  0  0  0  0  0  0
   29.3051  -20.3095  -12.3782 C   0  0  0  0  0  0  0  0  0  0  0  0
   28.1157  -19.7322  -12.7560 C   0  0  0  0  0  0  0  0  0  0  0  0
   26.9214  -20.0598  -12.1043 C   0  0  0  0  0  0  0  0  0  0  0  0
   25.6604  -19.4167  -12.5004 C   0  0  0  0  0  0  0  0  0  0  0  0
   25.1334  -20.0357  -13.7551 C   0  0  2  0  0  0  0  0  0  0  0  0
   25.8351  -19.4881  -14.9339 N   0  0  0  0  0  0  0  0  0  0  0  0
   23.6995  -19.7270  -13.9322 C   0  0  0  0  0  0  0  0  0  0  0  0
   23.2804  -18.5652  -14.2400 O   0  0  0  0  0  0  0  0  0  0  0  0
   26.9682  -20.9711  -11.0791 C   0  0  0  0  0  0  0  0  0  0  0  0
   28.1710  -21.5672  -10.6833 C   0  0  0  0  0  0  0  0  0  0  0  0
   19.3248  -20.1048  -16.5120 C   0  0  0  0  0  0  0  0  0  0  0  0
   19.3558  -21.2229  -15.4029 C   0  0  1  0  0  0  0  0  0  0  0  0
   18.8027  -22.4191  -16.1153 C   0  0  0  0  0  0  0  0  0  0  0  0
   20.7662  -21.2698  -14.9862 C   0  0  0  0  0  0  0  0  0  0  0  0
   21.2752  -20.3699  -13.9353 C   0  0  2  0  0  0  0  0  0  0  0  0
   22.7124  -20.7088  -13.7687 N   0  0  0  0  0  0  0  0  0  0  0  0
   20.6072  -20.4980  -12.6435 C   0  0  0  0  0  0  0  0  0  0  0  0
   20.9508  -21.5305  -11.7734 O   0  0  0  0  0  0  0  0  0  0  0  0
   19.7259  -19.7129  -12.2726 O   0  0  0  0  0  0  0  0  0  0  0  0
  2  3  1  0
  2  1  1  6
  4  5  1  0
  4  3  1  0
  5  6  2  0
  7  2  1  0
  8  7  2  0
  9  5  1  0
 11 10  1  0
 11 21  2  0
 12 11  1  0
 13 12  2  0
 13 14  1  0
 14 20  2  0
 15 14  1  0
 16 15  1  1
 16 17  1  0
 17  7  1  0
 18 16  1  0
 18 19  2  0
 20 21  1  0
 23 22  1  6
 23 25  1  0
 24 23  1  0
 26 25  1  6
 26 27  1  0
 27 18  1  0
 28 29  1  0
 28 26  1  0
 30 28  2  0
M  END
$$$$
