EYL.pdb
     RDKit          3D

 30 30  0  0  1  0  0  0  0  0999 V2000
   20.8694  -12.4427  -18.7278 N   0  0  0  0  0  0  0  0  0  0  0  0
   21.6561  -11.2253  -18.4979 C   0  0  1  0  0  0  0  0  0  0  0  0
   22.1883  -10.6940  -19.8163 C   0  0  0  0  0  0  0  0  0  0  0  0
   23.0699   -9.4994  -19.6711 C   0  0  0  0  0  0  0  0  0  0  0  0
   23.1310   -8.8371  -21.0225 C   0  0  0  0  0  0  0  0  0  0  0  0
   23.9542   -9.1899  -21.9006 O   0  0  0  0  0  0  0  0  0  0  0  0
   20.8334  -10.2605  -17.7629 C   0  0  0  0  0  0  0  0  0  0  0  0
   19.7719   -9.7555  -18.2156 O   0  0  0  0  0  0  0  0  0  0  0  0
   22.2587   -7.8072  -21.3179 O   0  0  0  0  0  0  0  0  0  0  0  0
   15.7037  -13.2145  -15.8726 O   0  0  0  0  0  0  0  0  0  0  0  0
   16.7282  -12.3443  -15.5330 C   0  0  0  0  0  0  0  0  0  0  0  0
   18.0372  -12.7540  -15.5239 C   0  0  0  0  0  0  0  0  0  0  0  0
   19.0369  -11.8733  -15.1838 C   0  0  0  0  0  0  0  0  0  0  0  0
   18.7397  -10.5491  -14.8422 C   0  0  0  0  0  0  0  0  0  0  0  0
   19.8147   -9.6243  -14.4557 C   0  0  0  0  0  0  0  0  0  0  0  0
   20.3555   -8.9237  -15.6606 C   0  0  2  0  0  0  0  0  0  0  0  0
   21.2193   -9.8330  -16.4409 N   0  0  0  0  0  0  0  0  0  0  0  0
   21.1943   -7.7727  -15.2679 C   0  0  0  0  0  0  0  0  0  0  0  0
   22.4593   -7.8534  -15.1509 O   0  0  0  0  0  0  0  0  0  0  0  0
   17.4257  -10.1529  -14.8552 C   0  0  0  0  0  0  0  0  0  0  0  0
   16.3972  -11.0375  -15.1992 C   0  0  0  0  0  0  0  0  0  0  0  0
   24.3440   -4.5444  -17.1111 C   0  0  0  0  0  0  0  0  0  0  0  0
   23.4481   -4.1644  -15.8726 C   0  0  1  0  0  0  0  0  0  0  0  0
   23.0095   -2.7677  -16.1903 C   0  0  0  0  0  0  0  0  0  0  0  0
   22.4165   -5.2133  -15.8462 C   0  0  0  0  0  0  0  0  0  0  0  0
   21.5065   -5.3510  -14.6947 C   0  0  2  0  0  0  0  0  0  0  0  0
   20.6352   -6.5154  -15.0000 N   0  0  0  0  0  0  0  0  0  0  0  0
   20.6647   -4.1864  -14.4370 C   0  0  0  0  0  0  0  0  0  0  0  0
   19.4380   -4.0486  -15.0830 O   0  0  0  0  0  0  0  0  0  0  0  0
   20.9962   -3.2901  -13.6512 O   0  0  0  0  0  0  0  0  0  0  0  0
  2  3  1  0
  2  1  1  6
  4  5  1  0
  4  3  1  0
  5  6  2  0
  7  2  1  0
  8  7  2  0
  9  5  1  0
 11 10  1  0
 11 21  2  0
 12 11  1  0
 13 12  2  0
 13 14  1  0
 14 20  2  0
 15 14  1  0
 16 15  1  1
 16 17  1  0
 17  7  1  0
 18 16  1  0
 18 19  2  0
 20 21  1  0
 23 22  1  6
 23 25  1  0
 24 23  1  0
 26 25  1  6
 26 27  1  0
 27 18  1  0
 28 29  1  0
 28 26  1  0
 30 28  2  0
M  END
$$$$
