EYL.pdb
     RDKit          3D

 30 30  0  0  1  0  0  0  0  0999 V2000
   24.3574  -14.8135  -18.1254 N   0  0  0  0  0  0  0  0  0  0  0  0
   23.8089  -14.0111  -19.2249 C   0  0  1  0  0  0  0  0  0  0  0  0
   23.4313  -14.9114  -20.3870 C   0  0  0  0  0  0  0  0  0  0  0  0
   23.8629  -16.3289  -20.2144 C   0  0  0  0  0  0  0  0  0  0  0  0
   24.6060  -16.7128  -21.4670 C   0  0  0  0  0  0  0  0  0  0  0  0
   24.1872  -16.4092  -22.6095 O   0  0  0  0  0  0  0  0  0  0  0  0
   22.6941  -13.2076  -18.7157 C   0  0  0  0  0  0  0  0  0  0  0  0
   21.9951  -12.4436  -19.4330 O   0  0  0  0  0  0  0  0  0  0  0  0
   25.7878  -17.4219  -21.3693 O   0  0  0  0  0  0  0  0  0  0  0  0
   17.5953  -17.4169  -18.2651 O   0  0  0  0  0  0  0  0  0  0  0  0
   18.2802  -16.3803  -17.6498 C   0  0  0  0  0  0  0  0  0  0  0  0
   17.7399  -15.1227  -17.5620 C   0  0  0  0  0  0  0  0  0  0  0  0
   18.4374  -14.1098  -16.9469 C   0  0  0  0  0  0  0  0  0  0  0  0
   19.7053  -14.3414  -16.4016 C   0  0  0  0  0  0  0  0  0  0  0  0
   20.4518  -13.2444  -15.7694 C   0  0  0  0  0  0  0  0  0  0  0  0
   21.2046  -12.4664  -16.8006 C   0  0  2  0  0  0  0  0  0  0  0  0
   22.3372  -13.2600  -17.3194 N   0  0  0  0  0  0  0  0  0  0  0  0
   21.7788  -11.2367  -16.2167 C   0  0  0  0  0  0  0  0  0  0  0  0
   23.0083  -11.1349  -15.9034 O   0  0  0  0  0  0  0  0  0  0  0  0
   20.2339  -15.6044  -16.4968 C   0  0  0  0  0  0  0  0  0  0  0  0
   19.5361  -16.6455  -17.1197 C   0  0  0  0  0  0  0  0  0  0  0  0
   24.2507   -7.2396  -17.8000 C   0  0  0  0  0  0  0  0  0  0  0  0
   23.3467   -7.2114  -16.5105 C   0  0  1  0  0  0  0  0  0  0  0  0
   22.6056   -5.9166  -16.6472 C   0  0  0  0  0  0  0  0  0  0  0  0
   22.5662   -8.4557  -16.5973 C   0  0  0  0  0  0  0  0  0  0  0  0
   21.6161   -8.8289  -15.5338 C   0  0  2  0  0  0  0  0  0  0  0  0
   20.9908  -10.1031  -15.9738 N   0  0  0  0  0  0  0  0  0  0  0  0
   20.5636   -7.8490  -15.2818 C   0  0  0  0  0  0  0  0  0  0  0  0
   20.7410   -6.8585  -14.3182 O   0  0  0  0  0  0  0  0  0  0  0  0
   19.4914   -7.8547  -15.8992 O   0  0  0  0  0  0  0  0  0  0  0  0
  2  3  1  0
  2  1  1  1
  4  5  1  0
  4  3  1  0
  5  6  2  0
  7  2  1  0
  8  7  2  0
  9  5  1  0
 11 10  1  0
 11 21  2  0
 12 11  1  0
 13 12  2  0
 13 14  1  0
 14 20  2  0
 15 14  1  0
 16 15  1  1
 16 17  1  0
 17  7  1  0
 18 16  1  0
 18 19  2  0
 20 21  1  0
 23 22  1  6
 23 25  1  0
 24 23  1  0
 26 25  1  6
 26 27  1  0
 27 18  1  0
 28 29  1  0
 28 26  1  0
 30 28  2  0
M  END
$$$$
