EYL.pdb
     RDKit          3D

 30 30  0  0  1  0  0  0  0  0999 V2000
   26.2558  -20.2368  -18.3196 N   0  0  0  0  0  0  0  0  0  0  0  0
   26.2693  -18.8462  -17.8508 C   0  0  1  0  0  0  0  0  0  0  0  0
   26.0404  -17.9024  -19.0171 C   0  0  0  0  0  0  0  0  0  0  0  0
   25.6087  -18.5881  -20.2697 C   0  0  0  0  0  0  0  0  0  0  0  0
   24.1030  -18.6223  -20.2500 C   0  0  0  0  0  0  0  0  0  0  0  0
   23.4140  -17.5774  -20.1693 O   0  0  0  0  0  0  0  0  0  0  0  0
   25.2875  -18.6994  -16.7727 C   0  0  0  0  0  0  0  0  0  0  0  0
   25.0710  -17.6183  -16.1636 O   0  0  0  0  0  0  0  0  0  0  0  0
   23.4469  -19.8360  -20.3223 O   0  0  0  0  0  0  0  0  0  0  0  0
   19.3580  -15.9119  -17.9302 O   0  0  0  0  0  0  0  0  0  0  0  0
   20.0471  -16.9586  -17.3369 C   0  0  0  0  0  0  0  0  0  0  0  0
   20.0419  -17.1345  -15.9766 C   0  0  0  0  0  0  0  0  0  0  0  0
   20.7326  -18.1798  -15.4102 C   0  0  0  0  0  0  0  0  0  0  0  0
   21.4502  -19.0796  -16.2063 C   0  0  0  0  0  0  0  0  0  0  0  0
   22.2056  -20.1780  -15.5871 C   0  0  0  0  0  0  0  0  0  0  0  0
   23.5739  -19.7149  -15.2017 C   0  0  2  0  0  0  0  0  0  0  0  0
   24.4983  -19.8293  -16.3480 N   0  0  0  0  0  0  0  0  0  0  0  0
   24.1294  -20.5560  -14.1216 C   0  0  0  0  0  0  0  0  0  0  0  0
   24.3412  -21.8032  -14.2628 O   0  0  0  0  0  0  0  0  0  0  0  0
   21.4470  -18.8915  -17.5659 C   0  0  0  0  0  0  0  0  0  0  0  0
   20.7487  -17.8324  -18.1571 C   0  0  0  0  0  0  0  0  0  0  0  0
   28.6550  -19.7116  -12.0866 C   0  0  0  0  0  0  0  0  0  0  0  0
   27.3825  -20.4072  -12.7012 C   0  0  1  0  0  0  0  0  0  0  0  0
   27.9115  -21.7317  -13.1598 C   0  0  0  0  0  0  0  0  0  0  0  0
   26.4102  -20.4071  -11.5969 C   0  0  0  0  0  0  0  0  0  0  0  0
   25.0300  -20.8820  -11.8036 C   0  0  2  0  0  0  0  0  0  0  0  0
   24.4567  -20.0190  -12.8688 N   0  0  0  0  0  0  0  0  0  0  0  0
   24.1738  -20.8071  -10.6235 C   0  0  0  0  0  0  0  0  0  0  0  0
   24.3855  -21.6642   -9.5456 O   0  0  0  0  0  0  0  0  0  0  0  0
   23.2431  -19.9974  -10.5305 O   0  0  0  0  0  0  0  0  0  0  0  0
  2  3  1  0
  2  1  1  6
  4  5  1  0
  4  3  1  0
  5  6  2  0
  7  2  1  0
  8  7  2  0
  9  5  1  0
 11 10  1  0
 11 21  2  0
 12 11  1  0
 13 12  2  0
 13 14  1  0
 14 20  2  0
 15 14  1  0
 16 15  1  6
 16 17  1  0
 17  7  1  0
 18 16  1  0
 18 19  2  0
 20 21  1  0
 23 22  1  1
 23 25  1  0
 24 23  1  0
 26 25  1  1
 26 27  1  0
 27 18  1  0
 28 29  1  0
 28 26  1  0
 30 28  2  0
M  END
$$$$
