EYL.pdb
     RDKit          3D

 30 30  0  0  1  0  0  0  0  0999 V2000
   17.1652  -11.2470  -18.7003 N   0  0  0  0  0  0  0  0  0  0  0  0
   17.3991  -10.6869  -17.3642 C   0  0  1  0  0  0  0  0  0  0  0  0
   18.1198  -11.7008  -16.4946 C   0  0  0  0  0  0  0  0  0  0  0  0
   17.2930  -12.8941  -16.1513 C   0  0  0  0  0  0  0  0  0  0  0  0
   16.5183  -12.5433  -14.9081 C   0  0  0  0  0  0  0  0  0  0  0  0
   16.6827  -11.4558  -14.3055 O   0  0  0  0  0  0  0  0  0  0  0  0
   18.1138   -9.4148  -17.5015 C   0  0  0  0  0  0  0  0  0  0  0  0
   18.8113   -9.1070  -18.5042 O   0  0  0  0  0  0  0  0  0  0  0  0
   15.5942  -13.4384  -14.4045 O   0  0  0  0  0  0  0  0  0  0  0  0
   15.6320   -5.1437  -21.6538 O   0  0  0  0  0  0  0  0  0  0  0  0
   16.1719   -5.3686  -20.3967 C   0  0  0  0  0  0  0  0  0  0  0  0
   15.5336   -6.1637  -19.4792 C   0  0  0  0  0  0  0  0  0  0  0  0
   16.0880   -6.3727  -18.2383 C   0  0  0  0  0  0  0  0  0  0  0  0
   17.3076   -5.7815  -17.8896 C   0  0  0  0  0  0  0  0  0  0  0  0
   17.8773   -5.9918  -16.5511 C   0  0  0  0  0  0  0  0  0  0  0  0
   18.8063   -7.1632  -16.5602 C   0  0  2  0  0  0  0  0  0  0  0  0
   18.0456   -8.4249  -16.4550 N   0  0  0  0  0  0  0  0  0  0  0  0
   19.7200   -7.1192  -15.4000 C   0  0  0  0  0  0  0  0  0  0  0  0
   19.3142   -7.2554  -14.2012 O   0  0  0  0  0  0  0  0  0  0  0  0
   17.9351   -4.9882  -18.8173 C   0  0  0  0  0  0  0  0  0  0  0  0
   17.3835   -4.7661  -20.0842 C   0  0  0  0  0  0  0  0  0  0  0  0
   24.6755   -9.3834  -15.3777 C   0  0  0  0  0  0  0  0  0  0  0  0
   23.2095   -9.0434  -14.9127 C   0  0  1  0  0  0  0  0  0  0  0  0
   23.0458   -9.8774  -13.6790 C   0  0  0  0  0  0  0  0  0  0  0  0
   23.2193   -7.5810  -14.7502 C   0  0  0  0  0  0  0  0  0  0  0  0
   21.9936   -6.8530  -14.3751 C   0  0  2  0  0  0  0  0  0  0  0  0
   21.0987   -6.9229  -15.5594 N   0  0  0  0  0  0  0  0  0  0  0  0
   22.1984   -5.4517  -14.0203 C   0  0  0  0  0  0  0  0  0  0  0  0
   22.4553   -5.0911  -12.6992 O   0  0  0  0  0  0  0  0  0  0  0  0
   22.1538   -4.5427  -14.8583 O   0  0  0  0  0  0  0  0  0  0  0  0
  2  3  1  0
  2  1  1  6
  4  5  1  0
  4  3  1  0
  5  6  2  0
  7  2  1  0
  8  7  2  0
  9  5  1  0
 11 10  1  0
 11 21  2  0
 12 11  1  0
 13 12  2  0
 13 14  1  0
 14 20  2  0
 15 14  1  0
 16 15  1  1
 16 17  1  0
 17  7  1  0
 18 16  1  0
 18 19  2  0
 20 21  1  0
 23 22  1  1
 23 25  1  0
 24 23  1  0
 26 25  1  6
 26 27  1  0
 27 18  1  0
 28 29  1  0
 28 26  1  0
 30 28  2  0
M  END
$$$$
