YWY.pdb
     RDKit          3D

 39 42  0  0  1  0  0  0  0  0999 V2000
   30.4869  -16.4610  -18.6289 O   0  0  0  0  0  0  0  0  0  0  0  0
   29.6226  -17.2560  -17.8891 C   0  0  0  0  0  0  0  0  0  0  0  0
   29.0561  -18.4008  -18.4431 C   0  0  0  0  0  0  0  0  0  0  0  0
   28.1902  -19.2039  -17.7132 C   0  0  0  0  0  0  0  0  0  0  0  0
   27.8960  -18.8589  -16.4355 C   0  0  0  0  0  0  0  0  0  0  0  0
   26.9890  -19.6611  -15.5962 C   0  0  0  0  0  0  0  0  0  0  0  0
   27.7248  -20.6449  -14.7217 C   0  0  2  0  0  0  0  0  0  0  0  0
   28.2169  -21.7167  -15.5244 N   0  0  0  0  0  0  0  0  0  0  0  0
   26.7324  -21.0924  -13.6774 C   0  0  0  0  0  0  0  0  0  0  0  0
   26.1274  -22.1623  -13.8765 O   0  0  0  0  0  0  0  0  0  0  0  0
   28.4551  -17.7132  -15.8603 C   0  0  0  0  0  0  0  0  0  0  0  0
   29.3150  -16.9189  -16.5930 C   0  0  0  0  0  0  0  0  0  0  0  0
   26.4788  -20.3510  -12.5205 N   0  0  0  0  0  0  0  0  0  0  0  0
   25.5065  -20.7779  -11.4981 C   0  0  1  0  0  0  0  0  0  0  0  0
   25.9508  -20.1026  -10.2391 C   0  0  0  0  0  0  0  0  0  0  0  0
   27.2445  -20.5410   -9.7304 C   0  0  0  0  0  0  0  0  0  0  0  0
   28.2983  -21.0986  -10.3931 C   0  0  0  0  0  0  0  0  0  0  0  0
   29.3059  -21.3421   -9.5053 N   0  0  0  0  0  0  0  0  0  0  0  0
   28.9245  -20.9508   -8.2800 C   0  0  0  0  0  0  0  0  0  0  0  0
   29.5933  -20.9807   -7.0631 C   0  0  0  0  0  0  0  0  0  0  0  0
   28.9284  -20.4852   -5.9635 C   0  0  0  0  0  0  0  0  0  0  0  0
   27.6542  -19.9774   -6.0502 C   0  0  0  0  0  0  0  0  0  0  0  0
   27.0015  -19.9565   -7.2752 C   0  0  0  0  0  0  0  0  0  0  0  0
   27.6480  -20.4518   -8.4040 C   0  0  0  0  0  0  0  0  0  0  0  0
   24.1373  -20.3710  -11.9477 C   0  0  0  0  0  0  0  0  0  0  0  0
   23.8207  -19.2277  -12.3218 O   0  0  0  0  0  0  0  0  0  0  0  0
   23.0942  -18.1976  -17.7729 O   0  0  0  0  0  0  0  0  0  0  0  0
   22.6584  -19.0341  -16.7450 C   0  0  0  0  0  0  0  0  0  0  0  0
   21.4996  -18.7448  -16.0705 C   0  0  0  0  0  0  0  0  0  0  0  0
   21.0887  -19.5953  -15.0519 C   0  0  0  0  0  0  0  0  0  0  0  0
   21.8716  -20.7035  -14.7609 C   0  0  0  0  0  0  0  0  0  0  0  0
   21.4370  -21.6231  -13.6551 C   0  0  0  0  0  0  0  0  0  0  0  0
   21.7340  -21.0574  -12.3100 C   0  0  2  0  0  0  0  0  0  0  0  0
   23.1229  -21.3783  -11.9425 N   0  0  0  0  0  0  0  0  0  0  0  0
   20.8459  -21.4787  -11.2196 C   0  0  0  0  0  0  0  0  0  0  0  0
   21.2834  -22.1850  -10.2630 O   0  0  0  0  0  0  0  0  0  0  0  0
   23.0194  -20.9745  -15.4419 C   0  0  0  0  0  0  0  0  0  0  0  0
   23.4441  -20.1367  -16.4611 C   0  0  0  0  0  0  0  0  0  0  0  0
   19.5095  -21.1392  -11.1706 O   0  0  0  0  0  0  0  0  0  0  0  0
  1  2  1  0
  2  3  2  0
  3  4  1  0
  5  6  1  0
  5  4  2  0
  6  7  1  0
  7  8  1  6
  9  7  1  0
 10  9  2  0
 11  5  1  0
 12 11  2  0
 12  2  1  0
 13  9  1  0
 14 15  1  1
 14 13  1  0
 16 24  1  0
 16 15  1  0
 17 16  2  0
 18 17  1  0
 18 19  1  0
 19 24  2  0
 20 19  1  0
 20 21  2  0
 21 22  1  0
 22 23  2  0
 24 23  1  0
 25 14  1  0
 25 34  1  0
 26 25  2  0
 28 38  2  0
 28 27  1  0
 29 28  1  0
 30 31  1  0
 30 29  2  0
 31 37  2  0
 32 31  1  0
 33 34  1  0
 33 32  1  6
 35 33  1  0
 36 35  2  0
 37 38  1  0
 39 35  1  0
M  END
$$$$
