YWY.pdb
     RDKit          3D

 39 42  0  0  1  0  0  0  0  0999 V2000
   29.4091  -16.7256  -18.8630 O   0  0  0  0  0  0  0  0  0  0  0  0
   28.8102  -17.3950  -17.8048 C   0  0  0  0  0  0  0  0  0  0  0  0
   29.1726  -17.1185  -16.4893 C   0  0  0  0  0  0  0  0  0  0  0  0
   28.5808  -17.7814  -15.4226 C   0  0  0  0  0  0  0  0  0  0  0  0
   27.6314  -18.7154  -15.6764 C   0  0  0  0  0  0  0  0  0  0  0  0
   26.9555  -19.4587  -14.5988 C   0  0  0  0  0  0  0  0  0  0  0  0
   27.8381  -20.5120  -13.9776 C   0  0  2  0  0  0  0  0  0  0  0  0
   28.1498  -21.5048  -14.9535 N   0  0  0  0  0  0  0  0  0  0  0  0
   27.0662  -21.0570  -12.8016 C   0  0  0  0  0  0  0  0  0  0  0  0
   26.3046  -22.0204  -13.0072 O   0  0  0  0  0  0  0  0  0  0  0  0
   27.2527  -19.0072  -16.9907 C   0  0  0  0  0  0  0  0  0  0  0  0
   27.8465  -18.3441  -18.0466 C   0  0  0  0  0  0  0  0  0  0  0  0
   27.1798  -20.5175  -11.5177 N   0  0  0  0  0  0  0  0  0  0  0  0
   26.3588  -20.9798  -10.3841 C   0  0  1  0  0  0  0  0  0  0  0  0
   27.2495  -20.8557   -9.1884 C   0  0  0  0  0  0  0  0  0  0  0  0
   26.5617  -20.8910   -7.9037 C   0  0  0  0  0  0  0  0  0  0  0  0
   25.2900  -21.2846   -7.6063 C   0  0  0  0  0  0  0  0  0  0  0  0
   25.0834  -21.1504   -6.2639 N   0  0  0  0  0  0  0  0  0  0  0  0
   26.1986  -20.6786   -5.6863 C   0  0  0  0  0  0  0  0  0  0  0  0
   26.4860  -20.3879   -4.3589 C   0  0  0  0  0  0  0  0  0  0  0  0
   27.7497  -19.9212   -4.0728 C   0  0  0  0  0  0  0  0  0  0  0  0
   28.7001  -19.7452   -5.0499 C   0  0  0  0  0  0  0  0  0  0  0  0
   28.3940  -20.0406   -6.3714 C   0  0  0  0  0  0  0  0  0  0  0  0
   27.1242  -20.5128   -6.6911 C   0  0  0  0  0  0  0  0  0  0  0  0
   25.1305  -20.1265  -10.3100 C   0  0  0  0  0  0  0  0  0  0  0  0
   25.1278  -18.8957  -10.1292 O   0  0  0  0  0  0  0  0  0  0  0  0
   22.0125  -21.8935  -16.5644 O   0  0  0  0  0  0  0  0  0  0  0  0
   22.2130  -21.1985  -15.3716 C   0  0  0  0  0  0  0  0  0  0  0  0
   23.4826  -20.8516  -14.9853 C   0  0  0  0  0  0  0  0  0  0  0  0
   23.6532  -20.1592  -13.7932 C   0  0  0  0  0  0  0  0  0  0  0  0
   22.5276  -19.8482  -13.0435 C   0  0  0  0  0  0  0  0  0  0  0  0
   22.7058  -19.1062  -11.7491 C   0  0  0  0  0  0  0  0  0  0  0  0
   22.6209  -20.0122  -10.5705 C   0  0  2  0  0  0  0  0  0  0  0  0
   23.8697  -20.7838  -10.4583 N   0  0  0  0  0  0  0  0  0  0  0  0
   21.4855  -20.9426  -10.5490 C   0  0  0  0  0  0  0  0  0  0  0  0
   20.2970  -20.5134  -10.4569 O   0  0  0  0  0  0  0  0  0  0  0  0
   21.2745  -20.2010  -13.4434 C   0  0  0  0  0  0  0  0  0  0  0  0
   21.0862  -20.8920  -14.6300 C   0  0  0  0  0  0  0  0  0  0  0  0
   21.6395  -22.3115  -10.6256 O   0  0  0  0  0  0  0  0  0  0  0  0
  1  2  1  0
  2  3  2  0
  3  4  1  0
  5  6  1  0
  5  4  2  0
  6  7  1  0
  7  8  1  6
  9  7  1  0
 10  9  2  0
 11  5  1  0
 12 11  2  0
 12  2  1  0
 13  9  1  0
 14 15  1  1
 14 13  1  0
 16 24  1  0
 16 15  1  0
 17 16  2  0
 18 17  1  0
 18 19  1  0
 19 24  2  0
 20 19  1  0
 20 21  2  0
 21 22  1  0
 22 23  2  0
 24 23  1  0
 25 14  1  0
 25 34  1  0
 26 25  2  0
 28 38  2  0
 28 27  1  0
 29 28  1  0
 30 31  1  0
 30 29  2  0
 31 37  2  0
 32 31  1  0
 33 34  1  0
 33 32  1  6
 35 33  1  0
 36 35  2  0
 37 38  1  0
 39 35  1  0
M  END
$$$$
