YWY.pdb
     RDKit          3D

 39 42  0  0  1  0  0  0  0  0999 V2000
   24.8879  -23.7212  -24.4668 O   0  0  0  0  0  0  0  0  0  0  0  0
   24.7372  -23.1449  -23.2131 C   0  0  0  0  0  0  0  0  0  0  0  0
   23.5316  -22.5584  -22.8381 C   0  0  0  0  0  0  0  0  0  0  0  0
   23.3688  -21.9788  -21.5870 C   0  0  0  0  0  0  0  0  0  0  0  0
   24.4103  -21.9890  -20.7191 C   0  0  0  0  0  0  0  0  0  0  0  0
   24.3146  -21.3975  -19.3732 C   0  0  0  0  0  0  0  0  0  0  0  0
   24.2405  -19.8916  -19.4044 C   0  0  2  0  0  0  0  0  0  0  0  0
   25.5334  -19.3593  -19.6881 N   0  0  0  0  0  0  0  0  0  0  0  0
   23.7103  -19.4757  -18.0547 C   0  0  0  0  0  0  0  0  0  0  0  0
   24.5401  -19.1954  -17.1697 O   0  0  0  0  0  0  0  0  0  0  0  0
   25.6295  -22.5738  -21.0764 C   0  0  0  0  0  0  0  0  0  0  0  0
   25.7840  -23.1477  -22.3230 C   0  0  0  0  0  0  0  0  0  0  0  0
   22.3425  -19.4025  -17.7788 N   0  0  0  0  0  0  0  0  0  0  0  0
   21.8140  -18.8906  -16.5015 C   0  0  1  0  0  0  0  0  0  0  0  0
   20.6626  -18.0155  -16.8848 C   0  0  0  0  0  0  0  0  0  0  0  0
   21.0330  -16.7016  -17.3956 C   0  0  0  0  0  0  0  0  0  0  0  0
   21.9459  -15.8068  -16.9194 C   0  0  0  0  0  0  0  0  0  0  0  0
   21.9580  -14.7077  -17.7285 N   0  0  0  0  0  0  0  0  0  0  0  0
   21.0709  -14.8751  -18.7210 C   0  0  0  0  0  0  0  0  0  0  0  0
   20.7285  -14.0535  -19.7872 C   0  0  0  0  0  0  0  0  0  0  0  0
   19.7724  -14.5186  -20.6626 C   0  0  0  0  0  0  0  0  0  0  0  0
   19.1720  -15.7444  -20.5021 C   0  0  0  0  0  0  0  0  0  0  0  0
   19.5269  -16.5514  -19.4297 C   0  0  0  0  0  0  0  0  0  0  0  0
   20.4894  -16.1073  -18.5276 C   0  0  0  0  0  0  0  0  0  0  0  0
   21.4240  -20.0581  -15.6486 C   0  0  0  0  0  0  0  0  0  0  0  0
   20.6572  -20.9724  -15.9998 O   0  0  0  0  0  0  0  0  0  0  0  0
   26.1300  -24.5695  -16.1745 O   0  0  0  0  0  0  0  0  0  0  0  0
   25.3155  -23.8330  -15.3142 C   0  0  0  0  0  0  0  0  0  0  0  0
   25.6264  -22.5287  -15.0250 C   0  0  0  0  0  0  0  0  0  0  0  0
   24.7975  -21.8185  -14.1657 C   0  0  0  0  0  0  0  0  0  0  0  0
   23.6881  -22.4624  -13.6363 C   0  0  0  0  0  0  0  0  0  0  0  0
   22.7918  -21.7023  -12.7000 C   0  0  0  0  0  0  0  0  0  0  0  0
   21.5812  -21.1773  -13.3900 C   0  0  2  0  0  0  0  0  0  0  0  0
   21.9784  -20.1182  -14.3322 N   0  0  0  0  0  0  0  0  0  0  0  0
   20.5129  -20.6644  -12.5234 C   0  0  0  0  0  0  0  0  0  0  0  0
   20.4114  -19.4243  -12.2838 O   0  0  0  0  0  0  0  0  0  0  0  0
   23.3955  -23.7584  -13.9352 C   0  0  0  0  0  0  0  0  0  0  0  0
   24.2116  -24.4817  -14.7907 C   0  0  0  0  0  0  0  0  0  0  0  0
   19.5746  -21.4830  -11.9294 O   0  0  0  0  0  0  0  0  0  0  0  0
  1  2  1  0
  2  3  2  0
  3  4  1  0
  5  6  1  0
  5  4  2  0
  6  7  1  0
  7  8  1  1
  9  7  1  0
 10  9  2  0
 11  5  1  0
 12 11  2  0
 12  2  1  0
 13  9  1  0
 14 15  1  6
 14 13  1  0
 16 24  1  0
 16 15  1  0
 17 16  2  0
 18 17  1  0
 18 19  1  0
 19 24  2  0
 20 19  1  0
 20 21  2  0
 21 22  1  0
 22 23  2  0
 24 23  1  0
 25 14  1  0
 25 34  1  0
 26 25  2  0
 28 38  2  0
 28 27  1  0
 29 28  1  0
 30 31  1  0
 30 29  2  0
 31 37  2  0
 32 31  1  0
 33 34  1  0
 33 32  1  1
 35 33  1  0
 36 35  2  0
 37 38  1  0
 39 35  1  0
M  END
$$$$
