YWY.pdb
     RDKit          3D

 39 42  0  0  1  0  0  0  0  0999 V2000
   28.1810  -13.4761  -17.4893 O   0  0  0  0  0  0  0  0  0  0  0  0
   27.7640  -14.6551  -16.8872 C   0  0  0  0  0  0  0  0  0  0  0  0
   28.0838  -14.9303  -15.5605 C   0  0  0  0  0  0  0  0  0  0  0  0
   27.6725  -16.1061  -14.9474 C   0  0  0  0  0  0  0  0  0  0  0  0
   26.9448  -16.9988  -15.6627 C   0  0  0  0  0  0  0  0  0  0  0  0
   26.4693  -18.2666  -15.0821 C   0  0  0  0  0  0  0  0  0  0  0  0
   27.5981  -19.1958  -14.7126 C   0  0  2  0  0  0  0  0  0  0  0  0
   28.3422  -19.5267  -15.8840 N   0  0  0  0  0  0  0  0  0  0  0  0
   26.9515  -20.3934  -14.0620 C   0  0  0  0  0  0  0  0  0  0  0  0
   26.4658  -21.2640  -14.8081 O   0  0  0  0  0  0  0  0  0  0  0  0
   26.6125  -16.7408  -16.9965 C   0  0  0  0  0  0  0  0  0  0  0  0
   27.0259  -15.5693  -17.5997 C   0  0  0  0  0  0  0  0  0  0  0  0
   26.8828  -20.5445  -12.6746 N   0  0  0  0  0  0  0  0  0  0  0  0
   26.1086  -21.6194  -12.0279 C   0  0  1  0  0  0  0  0  0  0  0  0
   26.8757  -21.9530  -10.7875 C   0  0  0  0  0  0  0  0  0  0  0  0
   26.7396  -20.9888   -9.7029 C   0  0  0  0  0  0  0  0  0  0  0  0
   25.6667  -20.2271   -9.3432 C   0  0  0  0  0  0  0  0  0  0  0  0
   25.9998  -19.4711   -8.2568 N   0  0  0  0  0  0  0  0  0  0  0  0
   27.2683  -19.7305   -7.9054 C   0  0  0  0  0  0  0  0  0  0  0  0
   28.0502  -19.2284   -6.8730 C   0  0  0  0  0  0  0  0  0  0  0  0
   29.3359  -19.7093   -6.7617 C   0  0  0  0  0  0  0  0  0  0  0  0
   29.8400  -20.6489   -7.6289 C   0  0  0  0  0  0  0  0  0  0  0  0
   29.0436  -21.1385   -8.6552 C   0  0  0  0  0  0  0  0  0  0  0  0
   27.7401  -20.6700   -8.7933 C   0  0  0  0  0  0  0  0  0  0  0  0
   24.7252  -21.1117  -11.7611 C   0  0  0  0  0  0  0  0  0  0  0  0
   24.4574  -20.0495  -11.1717 O   0  0  0  0  0  0  0  0  0  0  0  0
   16.8300  -18.3451  -13.1498 O   0  0  0  0  0  0  0  0  0  0  0  0
   18.1524  -18.7695  -13.0181 C   0  0  0  0  0  0  0  0  0  0  0  0
   18.8238  -18.5648  -11.8398 C   0  0  0  0  0  0  0  0  0  0  0  0
   20.1395  -18.9981  -11.7358 C   0  0  0  0  0  0  0  0  0  0  0  0
   20.7181  -19.6209  -12.8327 C   0  0  0  0  0  0  0  0  0  0  0  0
   22.1435  -20.0849  -12.7296 C   0  0  0  0  0  0  0  0  0  0  0  0
   22.2465  -21.4387  -12.1182 C   0  0  2  0  0  0  0  0  0  0  0  0
   23.6357  -21.9150  -12.2207 N   0  0  0  0  0  0  0  0  0  0  0  0
   21.3517  -22.4663  -12.6648 C   0  0  0  0  0  0  0  0  0  0  0  0
   21.7015  -23.1681  -13.6599 O   0  0  0  0  0  0  0  0  0  0  0  0
   20.0353  -19.8155  -13.9948 C   0  0  0  0  0  0  0  0  0  0  0  0
   18.7219  -19.3895  -14.1157 C   0  0  0  0  0  0  0  0  0  0  0  0
   20.1021  -22.7250  -12.1402 O   0  0  0  0  0  0  0  0  0  0  0  0
  1  2  1  0
  2  3  2  0
  3  4  1  0
  5  6  1  0
  5  4  2  0
  6  7  1  0
  7  8  1  6
  9  7  1  0
 10  9  2  0
 11  5  1  0
 12 11  2  0
 12  2  1  0
 13  9  1  0
 14 15  1  1
 14 13  1  0
 16 24  1  0
 16 15  1  0
 17 16  2  0
 18 17  1  0
 18 19  1  0
 19 24  2  0
 20 19  1  0
 20 21  2  0
 21 22  1  0
 22 23  2  0
 24 23  1  0
 25 14  1  0
 25 34  1  0
 26 25  2  0
 28 38  2  0
 28 27  1  0
 29 28  1  0
 30 31  1  0
 30 29  2  0
 31 37  2  0
 32 31  1  0
 33 34  1  0
 33 32  1  6
 35 33  1  0
 36 35  2  0
 37 38  1  0
 39 35  1  0
M  END
$$$$
