YWY.pdb
     RDKit          3D

 39 42  0  0  1  0  0  0  0  0999 V2000
   30.0646  -17.3146  -18.9726 O   0  0  0  0  0  0  0  0  0  0  0  0
   29.6488  -18.1282  -17.9279 C   0  0  0  0  0  0  0  0  0  0  0  0
   28.3544  -18.6397  -17.8939 C   0  0  0  0  0  0  0  0  0  0  0  0
   27.9269  -19.4546  -16.8542 C   0  0  0  0  0  0  0  0  0  0  0  0
   28.7943  -19.7532  -15.8560 C   0  0  0  0  0  0  0  0  0  0  0  0
   28.4167  -20.6130  -14.7208 C   0  0  0  0  0  0  0  0  0  0  0  0
   27.2691  -20.0490  -13.9214 C   0  0  2  0  0  0  0  0  0  0  0  0
   27.6314  -18.7667  -13.4120 N   0  0  0  0  0  0  0  0  0  0  0  0
   26.9840  -21.0593  -12.8381 C   0  0  0  0  0  0  0  0  0  0  0  0
   26.8233  -22.2452  -13.1821 O   0  0  0  0  0  0  0  0  0  0  0  0
   30.0991  -19.2500  -15.8720 C   0  0  0  0  0  0  0  0  0  0  0  0
   30.5168  -18.4395  -16.9092 C   0  0  0  0  0  0  0  0  0  0  0  0
   26.8944  -20.7046  -11.4896 N   0  0  0  0  0  0  0  0  0  0  0  0
   25.9776  -21.3740  -10.5491 C   0  0  1  0  0  0  0  0  0  0  0  0
   26.8215  -21.7040   -9.3586 C   0  0  0  0  0  0  0  0  0  0  0  0
   26.8837  -20.6615   -8.3417 C   0  0  0  0  0  0  0  0  0  0  0  0
   26.2115  -19.4770   -8.2654 C   0  0  0  0  0  0  0  0  0  0  0  0
   26.5867  -18.8231   -7.1277 N   0  0  0  0  0  0  0  0  0  0  0  0
   27.4882  -19.5633   -6.4649 C   0  0  0  0  0  0  0  0  0  0  0  0
   28.1511  -19.3363   -5.2656 C   0  0  0  0  0  0  0  0  0  0  0  0
   29.0240  -20.3089   -4.8314 C   0  0  0  0  0  0  0  0  0  0  0  0
   29.2414  -21.4638   -5.5441 C   0  0  0  0  0  0  0  0  0  0  0  0
   28.5701  -21.6726   -6.7411 C   0  0  0  0  0  0  0  0  0  0  0  0
   27.6824  -20.7065   -7.2059 C   0  0  0  0  0  0  0  0  0  0  0  0
   24.8470  -20.4404  -10.2447 C   0  0  0  0  0  0  0  0  0  0  0  0
   24.9711  -19.2271   -9.9997 O   0  0  0  0  0  0  0  0  0  0  0  0
   19.4197  -19.2224  -16.5547 O   0  0  0  0  0  0  0  0  0  0  0  0
   20.3152  -19.6491  -15.5738 C   0  0  0  0  0  0  0  0  0  0  0  0
   20.3460  -20.9688  -15.2012 C   0  0  0  0  0  0  0  0  0  0  0  0
   21.2480  -21.3664  -14.2224 C   0  0  0  0  0  0  0  0  0  0  0  0
   22.0806  -20.4074  -13.6631 C   0  0  0  0  0  0  0  0  0  0  0  0
   23.0531  -20.8294  -12.5983 C   0  0  0  0  0  0  0  0  0  0  0  0
   22.5252  -20.5771  -11.2290 C   0  0  2  0  0  0  0  0  0  0  0  0
   23.5288  -20.9935  -10.2358 N   0  0  0  0  0  0  0  0  0  0  0  0
   21.2428  -21.2124  -10.9019 C   0  0  0  0  0  0  0  0  0  0  0  0
   21.2015  -22.3966  -10.4530 O   0  0  0  0  0  0  0  0  0  0  0  0
   22.0355  -19.1013  -14.0461 C   0  0  0  0  0  0  0  0  0  0  0  0
   21.1418  -18.6874  -15.0212 C   0  0  0  0  0  0  0  0  0  0  0  0
   20.0303  -20.5734  -11.0600 O   0  0  0  0  0  0  0  0  0  0  0  0
  1  2  1  0
  2  3  2  0
  3  4  1  0
  5  6  1  0
  5  4  2  0
  6  7  1  0
  7  8  1  1
  9  7  1  0
 10  9  2  0
 11  5  1  0
 12 11  2  0
 12  2  1  0
 13  9  1  0
 14 15  1  1
 14 13  1  0
 16 24  1  0
 16 15  1  0
 17 16  2  0
 18 17  1  0
 18 19  1  0
 19 24  2  0
 20 19  1  0
 20 21  2  0
 21 22  1  0
 22 23  2  0
 24 23  1  0
 25 14  1  0
 25 34  1  0
 26 25  2  0
 28 38  2  0
 28 27  1  0
 29 28  1  0
 30 31  1  0
 30 29  2  0
 31 37  2  0
 32 31  1  0
 33 34  1  0
 33 32  1  6
 35 33  1  0
 36 35  2  0
 37 38  1  0
 39 35  1  0
M  END
$$$$
