YWY.pdb
     RDKit          3D

 39 42  0  0  1  0  0  0  0  0999 V2000
   25.1769  -18.6699  -28.2502 O   0  0  0  0  0  0  0  0  0  0  0  0
   24.2736  -18.5885  -27.1996 C   0  0  0  0  0  0  0  0  0  0  0  0
   23.7649  -17.3590  -26.7900 C   0  0  0  0  0  0  0  0  0  0  0  0
   22.8609  -17.2649  -25.7404 C   0  0  0  0  0  0  0  0  0  0  0  0
   22.4709  -18.3986  -25.1073 C   0  0  0  0  0  0  0  0  0  0  0  0
   21.5134  -18.3811  -23.9878 C   0  0  0  0  0  0  0  0  0  0  0  0
   22.1061  -17.8076  -22.7253 C   0  0  2  0  0  0  0  0  0  0  0  0
   23.0965  -18.7006  -22.2184 N   0  0  0  0  0  0  0  0  0  0  0  0
   20.9483  -17.6063  -21.7794 C   0  0  0  0  0  0  0  0  0  0  0  0
   20.8697  -18.3628  -20.7935 O   0  0  0  0  0  0  0  0  0  0  0  0
   22.9697  -19.6435  -25.5040 C   0  0  0  0  0  0  0  0  0  0  0  0
   23.8692  -19.7290  -26.5484 C   0  0  0  0  0  0  0  0  0  0  0  0
   19.9823  -16.6168  -21.9798 N   0  0  0  0  0  0  0  0  0  0  0  0
   18.8722  -16.3852  -21.0380 C   0  0  1  0  0  0  0  0  0  0  0  0
   18.4698  -14.9614  -21.2604 C   0  0  0  0  0  0  0  0  0  0  0  0
   17.3730  -14.4948  -20.4215 C   0  0  0  0  0  0  0  0  0  0  0  0
   17.4079  -13.8167  -19.2384 C   0  0  0  0  0  0  0  0  0  0  0  0
   16.1300  -13.5855  -18.8184 N   0  0  0  0  0  0  0  0  0  0  0  0
   15.2683  -14.1000  -19.7086 C   0  0  0  0  0  0  0  0  0  0  0  0
   13.8796  -14.1115  -19.7330 C   0  0  0  0  0  0  0  0  0  0  0  0
   13.2708  -14.7179  -20.8092 C   0  0  0  0  0  0  0  0  0  0  0  0
   13.9940  -15.2929  -21.8268 C   0  0  0  0  0  0  0  0  0  0  0  0
   15.3814  -15.2721  -21.7845 C   0  0  0  0  0  0  0  0  0  0  0  0
   16.0247  -14.6673  -20.7085 C   0  0  0  0  0  0  0  0  0  0  0  0
   17.7849  -17.3708  -21.3362 C   0  0  0  0  0  0  0  0  0  0  0  0
   17.4119  -17.6966  -22.4773 O   0  0  0  0  0  0  0  0  0  0  0  0
   16.0704  -19.9997  -14.1780 O   0  0  0  0  0  0  0  0  0  0  0  0
   16.2223  -20.0655  -15.5632 C   0  0  0  0  0  0  0  0  0  0  0  0
   17.4554  -19.8612  -16.1281 C   0  0  0  0  0  0  0  0  0  0  0  0
   17.5781  -19.9332  -17.5099 C   0  0  0  0  0  0  0  0  0  0  0  0
   16.4437  -20.2093  -18.2599 C   0  0  0  0  0  0  0  0  0  0  0  0
   16.5680  -20.2808  -19.7556 C   0  0  0  0  0  0  0  0  0  0  0  0
   16.1139  -19.0247  -20.4138 C   0  0  2  0  0  0  0  0  0  0  0  0
   17.1306  -17.9780  -20.2195 N   0  0  0  0  0  0  0  0  0  0  0  0
   14.8098  -18.5039  -19.9856 C   0  0  0  0  0  0  0  0  0  0  0  0
   14.7275  -17.4284  -19.3209 O   0  0  0  0  0  0  0  0  0  0  0  0
   15.2274  -20.4094  -17.6810 C   0  0  0  0  0  0  0  0  0  0  0  0
   15.0870  -20.3413  -16.3039 C   0  0  0  0  0  0  0  0  0  0  0  0
   13.6198  -19.1397  -20.2741 O   0  0  0  0  0  0  0  0  0  0  0  0
  1  2  1  0
  2  3  2  0
  3  4  1  0
  5  6  1  0
  5  4  2  0
  6  7  1  0
  7  8  1  1
  9  7  1  0
 10  9  2  0
 11  5  1  0
 12 11  2  0
 12  2  1  0
 13  9  1  0
 14 15  1  6
 14 13  1  0
 16 24  1  0
 16 15  1  0
 17 16  2  0
 18 17  1  0
 18 19  1  0
 19 24  2  0
 20 19  1  0
 20 21  2  0
 21 22  1  0
 22 23  2  0
 24 23  1  0
 25 14  1  0
 25 34  1  0
 26 25  2  0
 28 38  2  0
 28 27  1  0
 29 28  1  0
 30 31  1  0
 30 29  2  0
 31 37  2  0
 32 31  1  0
 33 34  1  0
 33 32  1  1
 35 33  1  0
 36 35  2  0
 37 38  1  0
 39 35  1  0
M  END
$$$$
