YWY.pdb
     RDKit          3D

 39 42  0  0  1  0  0  0  0  0999 V2000
   28.8895  -14.7623  -17.9925 O   0  0  0  0  0  0  0  0  0  0  0  0
   28.4034  -15.8199  -17.2366 C   0  0  0  0  0  0  0  0  0  0  0  0
   28.0161  -17.0116  -17.8434 C   0  0  0  0  0  0  0  0  0  0  0  0
   27.5283  -18.0764  -17.0979 C   0  0  0  0  0  0  0  0  0  0  0  0
   27.4306  -17.9445  -15.7521 C   0  0  0  0  0  0  0  0  0  0  0  0
   26.9260  -19.0296  -14.8929 C   0  0  0  0  0  0  0  0  0  0  0  0
   28.0312  -19.8909  -14.3354 C   0  0  2  0  0  0  0  0  0  0  0  0
   28.7177  -20.5341  -15.4080 N   0  0  0  0  0  0  0  0  0  0  0  0
   27.3639  -20.8601  -13.3916 C   0  0  0  0  0  0  0  0  0  0  0  0
   26.9419  -21.9310  -13.8666 O   0  0  0  0  0  0  0  0  0  0  0  0
   27.8152  -16.7559  -15.1233 C   0  0  0  0  0  0  0  0  0  0  0  0
   28.2988  -15.7008  -15.8717 C   0  0  0  0  0  0  0  0  0  0  0  0
   27.2081  -20.5904  -12.0295 N   0  0  0  0  0  0  0  0  0  0  0  0
   26.4411  -21.4674  -11.1265 C   0  0  1  0  0  0  0  0  0  0  0  0
   27.3403  -21.6907   -9.9517 C   0  0  0  0  0  0  0  0  0  0  0  0
   27.0199  -20.8955   -8.7730 C   0  0  0  0  0  0  0  0  0  0  0  0
   25.8960  -20.1785   -8.4842 C   0  0  0  0  0  0  0  0  0  0  0  0
   26.0401  -19.5969   -7.2580 N   0  0  0  0  0  0  0  0  0  0  0  0
   27.2361  -19.9256   -6.7465 C   0  0  0  0  0  0  0  0  0  0  0  0
   27.8338  -19.5942   -5.5374 C   0  0  0  0  0  0  0  0  0  0  0  0
   29.0880  -20.1067   -5.2903 C   0  0  0  0  0  0  0  0  0  0  0  0
   29.7355  -20.9155   -6.1933 C   0  0  0  0  0  0  0  0  0  0  0  0
   29.1223  -21.2352   -7.3970 C   0  0  0  0  0  0  0  0  0  0  0  0
   27.8551  -20.7308   -7.6751 C   0  0  0  0  0  0  0  0  0  0  0  0
   25.1563  -20.7813  -10.7785 C   0  0  0  0  0  0  0  0  0  0  0  0
   25.0689  -19.6636  -10.2393 O   0  0  0  0  0  0  0  0  0  0  0  0
   19.8726  -18.0547  -16.7330 O   0  0  0  0  0  0  0  0  0  0  0  0
   20.7978  -18.5978  -15.8413 C   0  0  0  0  0  0  0  0  0  0  0  0
   21.4797  -17.7789  -14.9777 C   0  0  0  0  0  0  0  0  0  0  0  0
   22.3947  -18.3464  -14.1000 C   0  0  0  0  0  0  0  0  0  0  0  0
   22.5789  -19.7214  -14.1362 C   0  0  0  0  0  0  0  0  0  0  0  0
   23.5728  -20.3407  -13.1948 C   0  0  0  0  0  0  0  0  0  0  0  0
   22.9238  -20.8541  -11.9569 C   0  0  2  0  0  0  0  0  0  0  0  0
   23.9434  -21.4698  -11.0918 N   0  0  0  0  0  0  0  0  0  0  0  0
   21.8260  -21.8096  -12.1495 C   0  0  0  0  0  0  0  0  0  0  0  0
   22.0611  -23.0087  -12.4848 O   0  0  0  0  0  0  0  0  0  0  0  0
   21.8923  -20.5185  -15.0009 C   0  0  0  0  0  0  0  0  0  0  0  0
   20.9756  -19.9690  -15.8834 C   0  0  0  0  0  0  0  0  0  0  0  0
   20.4998  -21.4682  -11.9812 O   0  0  0  0  0  0  0  0  0  0  0  0
  1  2  1  0
  2  3  2  0
  3  4  1  0
  5  6  1  0
  5  4  2  0
  6  7  1  0
  7  8  1  6
  9  7  1  0
 10  9  2  0
 11  5  1  0
 12 11  2  0
 12  2  1  0
 13  9  1  0
 14 15  1  1
 14 13  1  0
 16 24  1  0
 16 15  1  0
 17 16  2  0
 18 17  1  0
 18 19  1  0
 19 24  2  0
 20 19  1  0
 20 21  2  0
 21 22  1  0
 22 23  2  0
 24 23  1  0
 25 14  1  0
 25 34  1  0
 26 25  2  0
 28 38  2  0
 28 27  1  0
 29 28  1  0
 30 31  1  0
 30 29  2  0
 31 37  2  0
 32 31  1  0
 33 34  1  0
 33 32  1  6
 35 33  1  0
 36 35  2  0
 37 38  1  0
 39 35  1  0
M  END
$$$$
