YWY.pdb
     RDKit          3D

 39 42  0  0  1  0  0  0  0  0999 V2000
   17.5573   -8.6413  -19.3375 O   0  0  0  0  0  0  0  0  0  0  0  0
   18.2427   -9.8370  -19.1736 C   0  0  0  0  0  0  0  0  0  0  0  0
   18.7995  -10.1771  -17.9438 C   0  0  0  0  0  0  0  0  0  0  0  0
   19.4873  -11.3703  -17.7676 C   0  0  0  0  0  0  0  0  0  0  0  0
   19.6143  -12.2155  -18.8200 C   0  0  0  0  0  0  0  0  0  0  0  0
   20.3266  -13.5005  -18.7116 C   0  0  0  0  0  0  0  0  0  0  0  0
   21.8247  -13.3326  -18.6690 C   0  0  2  0  0  0  0  0  0  0  0  0
   22.2797  -12.8191  -19.9198 N   0  0  0  0  0  0  0  0  0  0  0  0
   22.3845  -14.6960  -18.3478 C   0  0  0  0  0  0  0  0  0  0  0  0
   22.4503  -15.5261  -19.2737 O   0  0  0  0  0  0  0  0  0  0  0  0
   19.0617  -11.8926  -20.0636 C   0  0  0  0  0  0  0  0  0  0  0  0
   18.3795  -10.7036  -20.2312 C   0  0  0  0  0  0  0  0  0  0  0  0
   22.8179  -15.0434  -17.0657 N   0  0  0  0  0  0  0  0  0  0  0  0
   23.4690  -16.3317  -16.7668 C   0  0  1  0  0  0  0  0  0  0  0  0
   24.8921  -15.9824  -16.4647 C   0  0  0  0  0  0  0  0  0  0  0  0
   25.7040  -15.6517  -17.6292 C   0  0  0  0  0  0  0  0  0  0  0  0
   25.8342  -14.4672  -18.2932 C   0  0  0  0  0  0  0  0  0  0  0  0
   26.7130  -14.6280  -19.3250 N   0  0  0  0  0  0  0  0  0  0  0  0
   27.1555  -15.8944  -19.3404 C   0  0  0  0  0  0  0  0  0  0  0  0
   28.0574  -16.5358  -20.1795 C   0  0  0  0  0  0  0  0  0  0  0  0
   28.3218  -17.8637  -19.9275 C   0  0  0  0  0  0  0  0  0  0  0  0
   27.7257  -18.5414  -18.8909 C   0  0  0  0  0  0  0  0  0  0  0  0
   26.8262  -17.8835  -18.0632 C   0  0  0  0  0  0  0  0  0  0  0  0
   26.5383  -16.5414  -18.2943 C   0  0  0  0  0  0  0  0  0  0  0  0
   22.7500  -16.9706  -15.6191 C   0  0  0  0  0  0  0  0  0  0  0  0
   22.3336  -16.3669  -14.6143 O   0  0  0  0  0  0  0  0  0  0  0  0
   17.2484  -21.0571  -10.6949 O   0  0  0  0  0  0  0  0  0  0  0  0
   18.0669  -20.3715  -11.5927 C   0  0  0  0  0  0  0  0  0  0  0  0
   18.8502  -19.3352  -11.1524 C   0  0  0  0  0  0  0  0  0  0  0  0
   19.6561  -18.6703  -12.0679 C   0  0  0  0  0  0  0  0  0  0  0  0
   19.6327  -19.0855  -13.3918 C   0  0  0  0  0  0  0  0  0  0  0  0
   20.4961  -18.3655  -14.3887 C   0  0  0  0  0  0  0  0  0  0  0  0
   21.7747  -19.0854  -14.6419 C   0  0  2  0  0  0  0  0  0  0  0  0
   22.5306  -18.3814  -15.6908 N   0  0  0  0  0  0  0  0  0  0  0  0
   21.6587  -20.5016  -15.0110 C   0  0  0  0  0  0  0  0  0  0  0  0
   21.5231  -20.8471  -16.2225 O   0  0  0  0  0  0  0  0  0  0  0  0
   18.8482  -20.1170  -13.8104 C   0  0  0  0  0  0  0  0  0  0  0  0
   18.0381  -20.7914  -12.9105 C   0  0  0  0  0  0  0  0  0  0  0  0
   21.6892  -21.5211  -14.0819 O   0  0  0  0  0  0  0  0  0  0  0  0
  1  2  1  0
  2  3  2  0
  3  4  1  0
  5  6  1  0
  5  4  2  0
  6  7  1  0
  7  8  1  6
  9  7  1  0
 10  9  2  0
 11  5  1  0
 12 11  2  0
 12  2  1  0
 13  9  1  0
 14 15  1  1
 14 13  1  0
 16 24  1  0
 16 15  1  0
 17 16  2  0
 18 17  1  0
 18 19  1  0
 19 24  2  0
 20 19  1  0
 20 21  2  0
 21 22  1  0
 22 23  2  0
 24 23  1  0
 25 14  1  0
 25 34  1  0
 26 25  2  0
 28 38  2  0
 28 27  1  0
 29 28  1  0
 30 31  1  0
 30 29  2  0
 31 37  2  0
 32 31  1  0
 33 34  1  0
 33 32  1  6
 35 33  1  0
 36 35  2  0
 37 38  1  0
 39 35  1  0
M  END
$$$$
