YWY.pdb
     RDKit          3D

 39 42  0  0  1  0  0  0  0  0999 V2000
   29.6837  -16.3802  -22.8727 O   0  0  0  0  0  0  0  0  0  0  0  0
   28.7002  -15.6828  -22.1851 C   0  0  0  0  0  0  0  0  0  0  0  0
   27.3626  -16.0574  -22.2788 C   0  0  0  0  0  0  0  0  0  0  0  0
   26.3700  -15.3675  -21.5958 C   0  0  0  0  0  0  0  0  0  0  0  0
   26.7194  -14.3090  -20.8241 C   0  0  0  0  0  0  0  0  0  0  0  0
   25.7250  -13.5292  -20.0668 C   0  0  0  0  0  0  0  0  0  0  0  0
   25.5880  -13.9933  -18.6385 C   0  0  2  0  0  0  0  0  0  0  0  0
   25.1843  -15.3615  -18.6215 N   0  0  0  0  0  0  0  0  0  0  0  0
   24.5819  -13.0694  -17.9983 C   0  0  0  0  0  0  0  0  0  0  0  0
   23.3752  -13.2998  -18.2014 O   0  0  0  0  0  0  0  0  0  0  0  0
   28.0576  -13.9173  -20.7161 C   0  0  0  0  0  0  0  0  0  0  0  0
   29.0393  -14.6079  -21.3991 C   0  0  0  0  0  0  0  0  0  0  0  0
   24.9623  -11.9845  -17.2042 N   0  0  0  0  0  0  0  0  0  0  0  0
   23.9928  -11.0146  -16.6635 C   0  0  1  0  0  0  0  0  0  0  0  0
   24.6593  -10.4379  -15.4545 C   0  0  0  0  0  0  0  0  0  0  0  0
   23.9033   -9.3923  -14.7764 C   0  0  0  0  0  0  0  0  0  0  0  0
   22.9610   -9.4946  -13.7954 C   0  0  0  0  0  0  0  0  0  0  0  0
   22.5273   -8.2445  -13.4606 N   0  0  0  0  0  0  0  0  0  0  0  0
   23.1727   -7.3345  -14.2057 C   0  0  0  0  0  0  0  0  0  0  0  0
   23.0891   -5.9483  -14.2283 C   0  0  0  0  0  0  0  0  0  0  0  0
   23.9060   -5.2795  -15.1127 C   0  0  0  0  0  0  0  0  0  0  0  0
   24.7751   -5.9424  -15.9459 C   0  0  0  0  0  0  0  0  0  0  0  0
   24.8441   -7.3284  -15.9095 C   0  0  0  0  0  0  0  0  0  0  0  0
   24.0295   -8.0316  -15.0266 C   0  0  0  0  0  0  0  0  0  0  0  0
   23.6935  -10.0022  -17.7256 C   0  0  0  0  0  0  0  0  0  0  0  0
   24.5239   -9.5518  -18.5349 O   0  0  0  0  0  0  0  0  0  0  0  0
   19.8232   -6.0088  -24.2264 O   0  0  0  0  0  0  0  0  0  0  0  0
   20.2569   -6.8525  -23.2037 C   0  0  0  0  0  0  0  0  0  0  0  0
   19.3820   -7.7385  -22.6285 C   0  0  0  0  0  0  0  0  0  0  0  0
   19.8408   -8.5673  -21.6126 C   0  0  0  0  0  0  0  0  0  0  0  0
   21.1685   -8.4616  -21.2232 C   0  0  0  0  0  0  0  0  0  0  0  0
   21.6692   -9.3497  -20.1195 C   0  0  0  0  0  0  0  0  0  0  0  0
   21.9429   -8.5868  -18.8704 C   0  0  2  0  0  0  0  0  0  0  0  0
   22.3498   -9.5212  -17.8081 N   0  0  0  0  0  0  0  0  0  0  0  0
   20.8465   -7.7486  -18.3698 C   0  0  0  0  0  0  0  0  0  0  0  0
   20.5138   -6.6864  -18.9750 O   0  0  0  0  0  0  0  0  0  0  0  0
   22.0227   -7.5755  -21.8063 C   0  0  0  0  0  0  0  0  0  0  0  0
   21.5817   -6.7412  -22.8213 C   0  0  0  0  0  0  0  0  0  0  0  0
   20.1269   -8.0590  -17.2343 O   0  0  0  0  0  0  0  0  0  0  0  0
  1  2  1  0
  2  3  2  0
  3  4  1  0
  5  6  1  0
  5  4  2  0
  6  7  1  0
  7  8  1  6
  9  7  1  0
 10  9  2  0
 11  5  1  0
 12 11  2  0
 12  2  1  0
 13  9  1  0
 14 15  1  1
 14 13  1  0
 16 24  1  0
 16 15  1  0
 17 16  2  0
 18 17  1  0
 18 19  1  0
 19 24  2  0
 20 19  1  0
 20 21  2  0
 21 22  1  0
 22 23  2  0
 24 23  1  0
 25 14  1  0
 25 34  1  0
 26 25  2  0
 28 38  2  0
 28 27  1  0
 29 28  1  0
 30 31  1  0
 30 29  2  0
 31 37  2  0
 32 31  1  0
 33 34  1  0
 33 32  1  6
 35 33  1  0
 36 35  2  0
 37 38  1  0
 39 35  1  0
M  END
$$$$
