YWY.pdb
     RDKit          3D

 39 42  0  0  1  0  0  0  0  0999 V2000
   31.1469  -15.9302  -19.5738 O   0  0  0  0  0  0  0  0  0  0  0  0
   30.2605  -16.6233  -18.7612 C   0  0  0  0  0  0  0  0  0  0  0  0
   28.9905  -16.9639  -19.2188 C   0  0  0  0  0  0  0  0  0  0  0  0
   28.0952  -17.6569  -18.4152 C   0  0  0  0  0  0  0  0  0  0  0  0
   28.4738  -18.0053  -17.1609 C   0  0  0  0  0  0  0  0  0  0  0  0
   27.5821  -18.7438  -16.2498 C   0  0  0  0  0  0  0  0  0  0  0  0
   28.0109  -20.1759  -16.0515 C   0  0  2  0  0  0  0  0  0  0  0  0
   27.9761  -20.8587  -17.3036 N   0  0  0  0  0  0  0  0  0  0  0  0
   27.0606  -20.7547  -15.0330 C   0  0  0  0  0  0  0  0  0  0  0  0
   25.9886  -21.2324  -15.4492 O   0  0  0  0  0  0  0  0  0  0  0  0
   29.7455  -17.6732  -16.6827 C   0  0  0  0  0  0  0  0  0  0  0  0
   30.6303  -16.9831  -17.4876 C   0  0  0  0  0  0  0  0  0  0  0  0
   27.3456  -20.7645  -13.6651 N   0  0  0  0  0  0  0  0  0  0  0  0
   26.3495  -21.1435  -12.6467 C   0  0  1  0  0  0  0  0  0  0  0  0
   27.1113  -21.1832  -11.3596 C   0  0  0  0  0  0  0  0  0  0  0  0
   26.2946  -21.0628  -10.1584 C   0  0  0  0  0  0  0  0  0  0  0  0
   25.0059  -21.4519   -9.9378 C   0  0  0  0  0  0  0  0  0  0  0  0
   24.6587  -21.1405   -8.6552 N   0  0  0  0  0  0  0  0  0  0  0  0
   25.6995  -20.5584   -8.0405 C   0  0  0  0  0  0  0  0  0  0  0  0
   25.8424  -20.0784   -6.7450 C   0  0  0  0  0  0  0  0  0  0  0  0
   27.0612  -19.5368   -6.4018 C   0  0  0  0  0  0  0  0  0  0  0  0
   28.1047  -19.4671   -7.2936 C   0  0  0  0  0  0  0  0  0  0  0  0
   27.9427  -19.9514   -8.5845 C   0  0  0  0  0  0  0  0  0  0  0  0
   26.7214  -20.5034   -8.9606 C   0  0  0  0  0  0  0  0  0  0  0  0
   25.2474  -20.1297  -12.6621 C   0  0  0  0  0  0  0  0  0  0  0  0
   25.4094  -18.8998  -12.5704 O   0  0  0  0  0  0  0  0  0  0  0  0
   21.9265  -21.6729  -18.6691 O   0  0  0  0  0  0  0  0  0  0  0  0
   22.1056  -20.9715  -17.4766 C   0  0  0  0  0  0  0  0  0  0  0  0
   21.0865  -20.9044  -16.5610 C   0  0  0  0  0  0  0  0  0  0  0  0
   21.2923  -20.1999  -15.3817 C   0  0  0  0  0  0  0  0  0  0  0  0
   22.5241  -19.5930  -15.1816 C   0  0  0  0  0  0  0  0  0  0  0  0
   22.7507  -18.8228  -13.9115 C   0  0  0  0  0  0  0  0  0  0  0  0
   22.7576  -19.7093  -12.7152 C   0  0  2  0  0  0  0  0  0  0  0  0
   23.9111  -20.6209  -12.7912 N   0  0  0  0  0  0  0  0  0  0  0  0
   21.5422  -20.5009  -12.4884 C   0  0  0  0  0  0  0  0  0  0  0  0
   20.4188  -19.9352  -12.3362 O   0  0  0  0  0  0  0  0  0  0  0  0
   23.5244  -19.6706  -16.1025 C   0  0  0  0  0  0  0  0  0  0  0  0
   23.3362  -20.3695  -17.2845 C   0  0  0  0  0  0  0  0  0  0  0  0
   21.5484  -21.8793  -12.4279 O   0  0  0  0  0  0  0  0  0  0  0  0
  1  2  1  0
  2  3  2  0
  3  4  1  0
  5  6  1  0
  5  4  2  0
  6  7  1  0
  7  8  1  6
  9  7  1  0
 10  9  2  0
 11  5  1  0
 12 11  2  0
 12  2  1  0
 13  9  1  0
 14 15  1  1
 14 13  1  0
 16 24  1  0
 16 15  1  0
 17 16  2  0
 18 17  1  0
 18 19  1  0
 19 24  2  0
 20 19  1  0
 20 21  2  0
 21 22  1  0
 22 23  2  0
 24 23  1  0
 25 14  1  0
 25 34  1  0
 26 25  2  0
 28 38  2  0
 28 27  1  0
 29 28  1  0
 30 31  1  0
 30 29  2  0
 31 37  2  0
 32 31  1  0
 33 34  1  0
 33 32  1  6
 35 33  1  0
 36 35  2  0
 37 38  1  0
 39 35  1  0
M  END
$$$$
