YWY.pdb
     RDKit          3D

 39 42  0  0  1  0  0  0  0  0999 V2000
   18.9170  -15.4067  -18.4369 O   0  0  0  0  0  0  0  0  0  0  0  0
   19.8380  -16.3294  -17.9607 C   0  0  0  0  0  0  0  0  0  0  0  0
   19.7975  -17.6574  -18.3767 C   0  0  0  0  0  0  0  0  0  0  0  0
   20.7132  -18.5895  -17.9075 C   0  0  0  0  0  0  0  0  0  0  0  0
   21.6630  -18.1895  -17.0265 C   0  0  0  0  0  0  0  0  0  0  0  0
   22.6711  -19.1179  -16.4859 C   0  0  0  0  0  0  0  0  0  0  0  0
   24.0198  -18.9568  -17.1410 C   0  0  2  0  0  0  0  0  0  0  0  0
   23.9514  -19.4238  -18.4873 N   0  0  0  0  0  0  0  0  0  0  0  0
   24.9890  -19.7390  -16.2898 C   0  0  0  0  0  0  0  0  0  0  0  0
   24.9410  -20.9816  -16.3535 O   0  0  0  0  0  0  0  0  0  0  0  0
   21.7212  -16.8599  -16.5968 C   0  0  0  0  0  0  0  0  0  0  0  0
   20.8063  -15.9387  -17.0675 C   0  0  0  0  0  0  0  0  0  0  0  0
   25.9155  -19.1176  -15.4485 N   0  0  0  0  0  0  0  0  0  0  0  0
   26.8437  -19.8743  -14.5891 C   0  0  1  0  0  0  0  0  0  0  0  0
   28.2070  -19.4042  -14.9880 C   0  0  0  0  0  0  0  0  0  0  0  0
   28.6320  -19.8129  -16.3210 C   0  0  0  0  0  0  0  0  0  0  0  0
   28.6200  -19.1139  -17.4923 C   0  0  0  0  0  0  0  0  0  0  0  0
   29.1199  -19.9023  -18.4879 N   0  0  0  0  0  0  0  0  0  0  0  0
   29.4571  -21.0984  -17.9825 C   0  0  0  0  0  0  0  0  0  0  0  0
   30.0100  -22.2209  -18.5854 C   0  0  0  0  0  0  0  0  0  0  0  0
   30.2582  -23.3123  -17.7830 C   0  0  0  0  0  0  0  0  0  0  0  0
   29.9765  -23.3069  -16.4378 C   0  0  0  0  0  0  0  0  0  0  0  0
   29.4233  -22.1758  -15.8531 C   0  0  0  0  0  0  0  0  0  0  0  0
   29.1602  -21.0577  -16.6394 C   0  0  0  0  0  0  0  0  0  0  0  0
   26.5040  -19.5891  -13.1588 C   0  0  0  0  0  0  0  0  0  0  0  0
   26.3209  -18.4546  -12.6826 O   0  0  0  0  0  0  0  0  0  0  0  0
   20.3065  -22.0526  -13.0146 O   0  0  0  0  0  0  0  0  0  0  0  0
   21.4281  -21.4697  -12.4243 C   0  0  0  0  0  0  0  0  0  0  0  0
   21.6444  -21.6098  -11.0771 C   0  0  0  0  0  0  0  0  0  0  0  0
   22.7696  -21.0196  -10.5156 C   0  0  0  0  0  0  0  0  0  0  0  0
   23.6276  -20.3120  -11.3455 C   0  0  0  0  0  0  0  0  0  0  0  0
   24.8424  -19.6645  -10.7432 C   0  0  0  0  0  0  0  0  0  0  0  0
   26.0499  -20.5281  -10.8586 C   0  0  2  0  0  0  0  0  0  0  0  0
   26.3839  -20.7108  -12.2807 N   0  0  0  0  0  0  0  0  0  0  0  0
   25.9672  -21.8464  -10.2181 C   0  0  0  0  0  0  0  0  0  0  0  0
   26.0702  -22.9077  -10.9026 O   0  0  0  0  0  0  0  0  0  0  0  0
   23.3962  -20.1837  -12.6814 C   0  0  0  0  0  0  0  0  0  0  0  0
   22.2786  -20.7662  -13.2581 C   0  0  0  0  0  0  0  0  0  0  0  0
   25.7760  -22.0075   -8.8613 O   0  0  0  0  0  0  0  0  0  0  0  0
  1  2  1  0
  2  3  2  0
  3  4  1  0
  5  6  1  0
  5  4  2  0
  6  7  1  0
  7  8  1  6
  9  7  1  0
 10  9  2  0
 11  5  1  0
 12 11  2  0
 12  2  1  0
 13  9  1  0
 14 15  1  6
 14 13  1  0
 16 24  1  0
 16 15  1  0
 17 16  2  0
 18 17  1  0
 18 19  1  0
 19 24  2  0
 20 19  1  0
 20 21  2  0
 21 22  1  0
 22 23  2  0
 24 23  1  0
 25 14  1  0
 25 34  1  0
 26 25  2  0
 28 38  2  0
 28 27  1  0
 29 28  1  0
 30 31  1  0
 30 29  2  0
 31 37  2  0
 32 31  1  0
 33 34  1  0
 33 32  1  6
 35 33  1  0
 36 35  2  0
 37 38  1  0
 39 35  1  0
M  END
$$$$
