YWY.pdb
     RDKit          3D

 39 42  0  0  1  0  0  0  0  0999 V2000
   27.7334  -23.4202  -29.5557 O   0  0  0  0  0  0  0  0  0  0  0  0
   27.1114  -23.0374  -28.3755 C   0  0  0  0  0  0  0  0  0  0  0  0
   27.6036  -21.9754  -27.6218 C   0  0  0  0  0  0  0  0  0  0  0  0
   26.9901  -21.5833  -26.4397 C   0  0  0  0  0  0  0  0  0  0  0  0
   25.8896  -22.2537  -26.0183 C   0  0  0  0  0  0  0  0  0  0  0  0
   25.1813  -21.8958  -24.7770 C   0  0  0  0  0  0  0  0  0  0  0  0
   26.0302  -22.0931  -23.5463 C   0  0  2  0  0  0  0  0  0  0  0  0
   26.3239  -23.4805  -23.3907 N   0  0  0  0  0  0  0  0  0  0  0  0
   25.2340  -21.5225  -22.3991 C   0  0  0  0  0  0  0  0  0  0  0  0
   24.8033  -22.3176  -21.5431 O   0  0  0  0  0  0  0  0  0  0  0  0
   25.3789  -23.3229  -26.7615 C   0  0  0  0  0  0  0  0  0  0  0  0
   25.9952  -23.7075  -27.9360 C   0  0  0  0  0  0  0  0  0  0  0  0
   24.9711  -20.1555  -22.2783 N   0  0  0  0  0  0  0  0  0  0  0  0
   24.2365  -19.5838  -21.1353 C   0  0  1  0  0  0  0  0  0  0  0  0
   24.9439  -18.3022  -20.8257 C   0  0  0  0  0  0  0  0  0  0  0  0
   24.8367  -17.2769  -21.8561 C   0  0  0  0  0  0  0  0  0  0  0  0
   23.9386  -16.2580  -21.9819 C   0  0  0  0  0  0  0  0  0  0  0  0
   24.2303  -15.5419  -23.1066 N   0  0  0  0  0  0  0  0  0  0  0  0
   25.3020  -16.0774  -23.7105 C   0  0  0  0  0  0  0  0  0  0  0  0
   25.9798  -15.7059  -24.8644 C   0  0  0  0  0  0  0  0  0  0  0  0
   27.0728  -16.4613  -25.2269 C   0  0  0  0  0  0  0  0  0  0  0  0
   27.4894  -17.5421  -24.4872 C   0  0  0  0  0  0  0  0  0  0  0  0
   26.7986  -17.8986  -23.3370 C   0  0  0  0  0  0  0  0  0  0  0  0
   25.6890  -17.1544  -22.9463 C   0  0  0  0  0  0  0  0  0  0  0  0
   22.8057  -19.3990  -21.5367 C   0  0  0  0  0  0  0  0  0  0  0  0
   22.4251  -18.9654  -22.6388 O   0  0  0  0  0  0  0  0  0  0  0  0
   14.5613  -19.9697  -23.2905 O   0  0  0  0  0  0  0  0  0  0  0  0
   15.9206  -20.0627  -22.9910 C   0  0  0  0  0  0  0  0  0  0  0  0
   16.3756  -21.0669  -22.1749 C   0  0  0  0  0  0  0  0  0  0  0  0
   17.7341  -21.1364  -21.8938 C   0  0  0  0  0  0  0  0  0  0  0  0
   18.5736  -20.1833  -22.4529 C   0  0  0  0  0  0  0  0  0  0  0  0
   20.0432  -20.2480  -22.1465 C   0  0  0  0  0  0  0  0  0  0  0  0
   20.3765  -19.5655  -20.8658 C   0  0  2  0  0  0  0  0  0  0  0  0
   21.8079  -19.7486  -20.5745 N   0  0  0  0  0  0  0  0  0  0  0  0
   19.5976  -19.9760  -19.6910 C   0  0  0  0  0  0  0  0  0  0  0  0
   20.1616  -20.5264  -18.6989 O   0  0  0  0  0  0  0  0  0  0  0  0
   18.1034  -19.1933  -23.2612 C   0  0  0  0  0  0  0  0  0  0  0  0
   16.7509  -19.1092  -23.5522 C   0  0  0  0  0  0  0  0  0  0  0  0
   18.2334  -19.7921  -19.5973 O   0  0  0  0  0  0  0  0  0  0  0  0
  1  2  1  0
  2  3  2  0
  3  4  1  0
  5  6  1  0
  5  4  2  0
  6  7  1  0
  7  8  1  1
  9  7  1  0
 10  9  2  0
 11  5  1  0
 12 11  2  0
 12  2  1  0
 13  9  1  0
 14 15  1  6
 14 13  1  0
 16 24  1  0
 16 15  1  0
 17 16  2  0
 18 17  1  0
 18 19  1  0
 19 24  2  0
 20 19  1  0
 20 21  2  0
 21 22  1  0
 22 23  2  0
 24 23  1  0
 25 14  1  0
 25 34  1  0
 26 25  2  0
 28 38  2  0
 28 27  1  0
 29 28  1  0
 30 31  1  0
 30 29  2  0
 31 37  2  0
 32 31  1  0
 33 34  1  0
 33 32  1  6
 35 33  1  0
 36 35  2  0
 37 38  1  0
 39 35  1  0
M  END
$$$$
