YWY.pdb
     RDKit          3D

 39 42  0  0  1  0  0  0  0  0999 V2000
   25.5926  -14.8752  -21.7008 O   0  0  0  0  0  0  0  0  0  0  0  0
   25.7171  -15.7516  -20.6318 C   0  0  0  0  0  0  0  0  0  0  0  0
   26.3333  -15.3513  -19.4493 C   0  0  0  0  0  0  0  0  0  0  0  0
   26.4637  -16.2189  -18.3733 C   0  0  0  0  0  0  0  0  0  0  0  0
   25.9781  -17.4798  -18.4850 C   0  0  0  0  0  0  0  0  0  0  0  0
   26.0754  -18.4572  -17.3870 C   0  0  0  0  0  0  0  0  0  0  0  0
   27.4483  -18.4966  -16.7644 C   0  0  2  0  0  0  0  0  0  0  0  0
   28.3832  -19.0124  -17.7106 N   0  0  0  0  0  0  0  0  0  0  0  0
   27.3181  -19.3545  -15.5303 C   0  0  0  0  0  0  0  0  0  0  0  0
   27.4083  -20.5882  -15.6725 O   0  0  0  0  0  0  0  0  0  0  0  0
   25.3550  -17.9012  -19.6641 C   0  0  0  0  0  0  0  0  0  0  0  0
   25.2297  -17.0326  -20.7304 C   0  0  0  0  0  0  0  0  0  0  0  0
   27.1004  -18.8112  -14.2615 N   0  0  0  0  0  0  0  0  0  0  0  0
   26.9259  -19.6440  -13.0578 C   0  0  1  0  0  0  0  0  0  0  0  0
   27.3324  -18.7633  -11.9186 C   0  0  0  0  0  0  0  0  0  0  0  0
   27.0143  -19.2847  -10.5952 C   0  0  0  0  0  0  0  0  0  0  0  0
   25.8237  -19.3065   -9.9299 C   0  0  0  0  0  0  0  0  0  0  0  0
   26.0020  -19.9015   -8.7146 N   0  0  0  0  0  0  0  0  0  0  0  0
   27.2860  -20.2671   -8.5815 C   0  0  0  0  0  0  0  0  0  0  0  0
   27.9493  -20.9085   -7.5434 C   0  0  0  0  0  0  0  0  0  0  0  0
   29.2923  -21.1628   -7.7122 C   0  0  0  0  0  0  0  0  0  0  0  0
   29.9638  -20.8034   -8.8563 C   0  0  0  0  0  0  0  0  0  0  0  0
   29.2839  -20.1624   -9.8829 C   0  0  0  0  0  0  0  0  0  0  0  0
   27.9261  -19.8909   -9.7402 C   0  0  0  0  0  0  0  0  0  0  0  0
   25.4978  -20.0897  -12.9934 C   0  0  0  0  0  0  0  0  0  0  0  0
   24.5128  -19.3559  -13.1907 O   0  0  0  0  0  0  0  0  0  0  0  0
   25.8281  -24.9915  -17.9617 O   0  0  0  0  0  0  0  0  0  0  0  0
   25.3701  -24.6492  -16.6893 C   0  0  0  0  0  0  0  0  0  0  0  0
   25.1349  -25.6292  -15.7588 C   0  0  0  0  0  0  0  0  0  0  0  0
   24.6799  -25.2602  -14.4993 C   0  0  0  0  0  0  0  0  0  0  0  0
   24.4827  -23.9117  -14.2375 C   0  0  0  0  0  0  0  0  0  0  0  0
   23.9832  -23.5063  -12.8797 C   0  0  0  0  0  0  0  0  0  0  0  0
   23.8977  -22.0267  -12.7357 C   0  0  2  0  0  0  0  0  0  0  0  0
   25.2567  -21.4634  -12.6798 N   0  0  0  0  0  0  0  0  0  0  0  0
   23.1316  -21.5309  -11.5857 C   0  0  0  0  0  0  0  0  0  0  0  0
   23.6130  -21.5825  -10.4148 O   0  0  0  0  0  0  0  0  0  0  0  0
   24.7218  -22.9527  -15.1744 C   0  0  0  0  0  0  0  0  0  0  0  0
   25.1762  -23.3032  -16.4360 C   0  0  0  0  0  0  0  0  0  0  0  0
   21.8679  -20.9904  -11.7064 O   0  0  0  0  0  0  0  0  0  0  0  0
  1  2  1  0
  2  3  2  0
  3  4  1  0
  5  6  1  0
  5  4  2  0
  6  7  1  0
  7  8  1  6
  9  7  1  0
 10  9  2  0
 11  5  1  0
 12 11  2  0
 12  2  1  0
 13  9  1  0
 14 15  1  1
 14 13  1  0
 16 24  1  0
 16 15  1  0
 17 16  2  0
 18 17  1  0
 18 19  1  0
 19 24  2  0
 20 19  1  0
 20 21  2  0
 21 22  1  0
 22 23  2  0
 24 23  1  0
 25 14  1  0
 25 34  1  0
 26 25  2  0
 28 38  2  0
 28 27  1  0
 29 28  1  0
 30 31  1  0
 30 29  2  0
 31 37  2  0
 32 31  1  0
 33 34  1  0
 33 32  1  1
 35 33  1  0
 36 35  2  0
 37 38  1  0
 39 35  1  0
M  END
$$$$
