YWY.pdb
     RDKit          3D

 39 42  0  0  1  0  0  0  0  0999 V2000
   28.7119  -19.0254  -21.8356 O   0  0  0  0  0  0  0  0  0  0  0  0
   28.1381  -19.4464  -20.6440 C   0  0  0  0  0  0  0  0  0  0  0  0
   28.2326  -18.6687  -19.4931 C   0  0  0  0  0  0  0  0  0  0  0  0
   27.6629  -19.0792  -18.2953 C   0  0  0  0  0  0  0  0  0  0  0  0
   27.0029  -20.2628  -18.2548 C   0  0  0  0  0  0  0  0  0  0  0  0
   26.3695  -20.7651  -17.0231 C   0  0  0  0  0  0  0  0  0  0  0  0
   27.3672  -21.3418  -16.0504 C   0  0  2  0  0  0  0  0  0  0  0  0
   27.8675  -22.5765  -16.5608 N   0  0  0  0  0  0  0  0  0  0  0  0
   26.6293  -21.4949  -14.7436 C   0  0  0  0  0  0  0  0  0  0  0  0
   26.0834  -22.5901  -14.5135 O   0  0  0  0  0  0  0  0  0  0  0  0
   26.8962  -21.0584  -19.4001 C   0  0  0  0  0  0  0  0  0  0  0  0
   27.4662  -20.6437  -20.5877 C   0  0  0  0  0  0  0  0  0  0  0  0
   26.5426  -20.4606  -13.8081 N   0  0  0  0  0  0  0  0  0  0  0  0
   25.8946  -20.6270  -12.4946 C   0  0  1  0  0  0  0  0  0  0  0  0
   26.6613  -19.7334  -11.5716 C   0  0  0  0  0  0  0  0  0  0  0  0
   27.7620  -20.3779  -10.8661 C   0  0  0  0  0  0  0  0  0  0  0  0
   28.8376  -21.0549  -11.3616 C   0  0  0  0  0  0  0  0  0  0  0  0
   29.6140  -21.4811  -10.3233 N   0  0  0  0  0  0  0  0  0  0  0  0
   29.0619  -21.0910   -9.1644 C   0  0  0  0  0  0  0  0  0  0  0  0
   29.4750  -21.2707   -7.8506 C   0  0  0  0  0  0  0  0  0  0  0  0
   28.6855  -20.7307   -6.8598 C   0  0  0  0  0  0  0  0  0  0  0  0
   27.5324  -20.0385   -7.1430 C   0  0  0  0  0  0  0  0  0  0  0  0
   27.1352  -19.8698   -8.4624 C   0  0  0  0  0  0  0  0  0  0  0  0
   27.9125  -20.4056   -9.4853 C   0  0  0  0  0  0  0  0  0  0  0  0
   24.4501  -20.2557  -12.6288 C   0  0  0  0  0  0  0  0  0  0  0  0
   24.0299  -19.1996  -13.1342 O   0  0  0  0  0  0  0  0  0  0  0  0
   22.2646  -19.6014  -18.3125 O   0  0  0  0  0  0  0  0  0  0  0  0
   22.0183  -20.0990  -17.0327 C   0  0  0  0  0  0  0  0  0  0  0  0
   21.0103  -19.5641  -16.2716 C   0  0  0  0  0  0  0  0  0  0  0  0
   20.7864  -20.0790  -15.0010 C   0  0  0  0  0  0  0  0  0  0  0  0
   21.5954  -21.1153  -14.5567 C   0  0  0  0  0  0  0  0  0  0  0  0
   21.3637  -21.6716  -13.1803 C   0  0  0  0  0  0  0  0  0  0  0  0
   22.0512  -20.8690  -12.1312 C   0  0  2  0  0  0  0  0  0  0  0  0
   23.4878  -21.1906  -12.1352 N   0  0  0  0  0  0  0  0  0  0  0  0
   21.5370  -21.0140  -10.7638 C   0  0  0  0  0  0  0  0  0  0  0  0
   22.2914  -21.4092   -9.8257 O   0  0  0  0  0  0  0  0  0  0  0  0
   22.5917  -21.6337  -15.3270 C   0  0  0  0  0  0  0  0  0  0  0  0
   22.8288  -21.1319  -16.5970 C   0  0  0  0  0  0  0  0  0  0  0  0
   20.2292  -20.7352  -10.4236 O   0  0  0  0  0  0  0  0  0  0  0  0
  1  2  1  0
  2  3  2  0
  3  4  1  0
  5  6  1  0
  5  4  2  0
  6  7  1  0
  7  8  1  6
  9  7  1  0
 10  9  2  0
 11  5  1  0
 12 11  2  0
 12  2  1  0
 13  9  1  0
 14 15  1  1
 14 13  1  0
 16 24  1  0
 16 15  1  0
 17 16  2  0
 18 17  1  0
 18 19  1  0
 19 24  2  0
 20 19  1  0
 20 21  2  0
 21 22  1  0
 22 23  2  0
 24 23  1  0
 25 14  1  0
 25 34  1  0
 26 25  2  0
 28 38  2  0
 28 27  1  0
 29 28  1  0
 30 31  1  0
 30 29  2  0
 31 37  2  0
 32 31  1  0
 33 34  1  0
 33 32  1  6
 35 33  1  0
 36 35  2  0
 37 38  1  0
 39 35  1  0
M  END
$$$$
