YWY.pdb
     RDKit          3D

 39 42  0  0  1  0  0  0  0  0999 V2000
   18.2841  -20.9039  -28.1890 O   0  0  0  0  0  0  0  0  0  0  0  0
   18.5333  -21.0055  -26.8274 C   0  0  0  0  0  0  0  0  0  0  0  0
   18.5713  -19.8701  -26.0227 C   0  0  0  0  0  0  0  0  0  0  0  0
   18.8196  -19.9590  -24.6596 C   0  0  0  0  0  0  0  0  0  0  0  0
   19.0280  -21.1804  -24.1093 C   0  0  0  0  0  0  0  0  0  0  0  0
   19.2943  -21.3570  -22.6711 C   0  0  0  0  0  0  0  0  0  0  0  0
   20.6533  -20.8449  -22.2649 C   0  0  2  0  0  0  0  0  0  0  0  0
   21.6475  -21.8033  -22.6232 N   0  0  0  0  0  0  0  0  0  0  0  0
   20.5748  -20.5982  -20.7787 C   0  0  0  0  0  0  0  0  0  0  0  0
   20.8220  -21.5546  -20.0207 O   0  0  0  0  0  0  0  0  0  0  0  0
   18.9932  -22.3333  -24.9004 C   0  0  0  0  0  0  0  0  0  0  0  0
   18.7463  -22.2367  -26.2557 C   0  0  0  0  0  0  0  0  0  0  0  0
   20.2359  -19.3524  -20.2444 N   0  0  0  0  0  0  0  0  0  0  0  0
   20.1605  -19.1019  -18.7937 C   0  0  1  0  0  0  0  0  0  0  0  0
   20.9858  -17.8738  -18.5721 C   0  0  0  0  0  0  0  0  0  0  0  0
   21.5715  -17.3014  -19.7778 C   0  0  0  0  0  0  0  0  0  0  0  0
   20.9937  -16.5397  -20.7508 C   0  0  0  0  0  0  0  0  0  0  0  0
   21.9337  -16.2255  -21.6891 N   0  0  0  0  0  0  0  0  0  0  0  0
   23.1101  -16.7683  -21.3408 C   0  0  0  0  0  0  0  0  0  0  0  0
   24.3538  -16.7241  -21.9574 C   0  0  0  0  0  0  0  0  0  0  0  0
   25.3916  -17.3828  -21.3363 C   0  0  0  0  0  0  0  0  0  0  0  0
   25.2201  -18.0608  -20.1531 C   0  0  0  0  0  0  0  0  0  0  0  0
   23.9692  -18.0944  -19.5520 C   0  0  0  0  0  0  0  0  0  0  0  0
   22.9009  -17.4388  -20.1573 C   0  0  0  0  0  0  0  0  0  0  0  0
   18.7210  -18.9352  -18.4162 C   0  0  0  0  0  0  0  0  0  0  0  0
   17.8655  -18.3551  -19.1084 O   0  0  0  0  0  0  0  0  0  0  0  0
   16.4468  -25.6762  -16.8393 O   0  0  0  0  0  0  0  0  0  0  0  0
   16.3562  -24.3029  -17.0668 C   0  0  0  0  0  0  0  0  0  0  0  0
   16.8714  -23.7633  -18.2178 C   0  0  0  0  0  0  0  0  0  0  0  0
   16.7668  -22.3928  -18.4191 C   0  0  0  0  0  0  0  0  0  0  0  0
   16.1438  -21.6279  -17.4431 C   0  0  0  0  0  0  0  0  0  0  0  0
   16.0343  -20.1438  -17.6509 C   0  0  0  0  0  0  0  0  0  0  0  0
   16.9086  -19.3836  -16.7155 C   0  0  2  0  0  0  0  0  0  0  0  0
   18.3070  -19.4862  -17.1638 N   0  0  0  0  0  0  0  0  0  0  0  0
   16.8348  -19.7701  -15.3011 C   0  0  0  0  0  0  0  0  0  0  0  0
   17.8350  -20.2821  -14.7157 O   0  0  0  0  0  0  0  0  0  0  0  0
   15.6381  -22.1817  -16.3063 C   0  0  0  0  0  0  0  0  0  0  0  0
   15.7337  -23.5473  -16.0895 C   0  0  0  0  0  0  0  0  0  0  0  0
   15.6967  -19.6036  -14.5392 O   0  0  0  0  0  0  0  0  0  0  0  0
  1  2  1  0
  2  3  2  0
  3  4  1  0
  5  6  1  0
  5  4  2  0
  6  7  1  0
  7  8  1  1
  9  7  1  0
 10  9  2  0
 11  5  1  0
 12 11  2  0
 12  2  1  0
 13  9  1  0
 14 15  1  6
 14 13  1  0
 16 24  1  0
 16 15  1  0
 17 16  2  0
 18 17  1  0
 18 19  1  0
 19 24  2  0
 20 19  1  0
 20 21  2  0
 21 22  1  0
 22 23  2  0
 24 23  1  0
 25 14  1  0
 25 34  1  0
 26 25  2  0
 28 38  2  0
 28 27  1  0
 29 28  1  0
 30 31  1  0
 30 29  2  0
 31 37  2  0
 32 31  1  0
 33 34  1  0
 33 32  1  6
 35 33  1  0
 36 35  2  0
 37 38  1  0
 39 35  1  0
M  END
$$$$
