GMN.pdb
     RDKit          3D

 21 20  0  0  1  0  0  0  0  0999 V2000
   18.6841  -15.8634  -16.2584 N   0  0  0  0  0  0  0  0  0  0  0  0
   19.0048  -14.7154  -17.0768 C   0  0  0  0  0  0  0  0  0  0  0  0
   19.8745  -13.7501  -16.2950 C   0  0  0  0  0  0  0  0  0  0  0  0
   19.4587  -13.3477  -15.1847 O   0  0  0  0  0  0  0  0  0  0  0  0
   26.9303  -10.6878  -14.6688 C   0  0  0  0  0  0  0  0  0  0  0  0
   25.9449  -11.9073  -15.5888 S   0  0  0  0  0  0  0  0  0  0  0  0
   24.1703  -11.5599  -15.4275 C   0  0  0  0  0  0  0  0  0  0  0  0
   23.3559  -12.5442  -16.2010 C   0  0  0  0  0  0  0  0  0  0  0  0
   21.8943  -12.2930  -16.1682 C   0  0  2  0  0  0  0  0  0  0  0  0
   21.1079  -13.3113  -16.7838 N   0  0  0  0  0  0  0  0  0  0  0  0
   21.4950  -10.8981  -16.4958 C   0  0  0  0  0  0  0  0  0  0  0  0
   21.5231  -10.5187  -17.6752 O   0  0  0  0  0  0  0  0  0  0  0  0
   17.1229   -9.3891  -15.9364 N   0  0  0  0  0  0  0  0  0  0  0  0
   18.3437   -8.8479  -16.3851 C   0  0  0  0  0  0  0  0  0  0  0  0
   18.5790   -8.9288  -17.6285 O   0  0  0  0  0  0  0  0  0  0  0  0
   19.3668   -8.2020  -15.5600 C   0  0  0  0  0  0  0  0  0  0  0  0
   20.7693   -8.6105  -15.8656 C   0  0  2  0  0  0  0  0  0  0  0  0
   21.0788   -9.9705  -15.5101 N   0  0  0  0  0  0  0  0  0  0  0  0
   21.7172   -7.6500  -15.2078 C   0  0  0  0  0  0  0  0  0  0  0  0
   21.7062   -6.4313  -15.5110 O   0  0  0  0  0  0  0  0  0  0  0  0
   22.6362   -8.0594  -14.2482 O   0  0  0  0  0  0  0  0  0  0  0  0
  1  2  1  0
  2  3  1  0
  3 10  1  0
  3  4  2  0
  6  5  1  0
  7  6  1  0
  8  7  1  0
  9  8  1  6
 10  9  1  0
 11  9  1  0
 11 18  1  0
 12 11  2  0
 13 14  1  0
 14 15  2  0
 14 16  1  0
 17 16  1  1
 17 19  1  0
 18 17  1  0
 19 20  2  0
 19 21  1  0
M  END
$$$$
