GMN.pdb
     RDKit          3D

 21 20  0  0  1  0  0  0  0  0999 V2000
   21.5571  -16.5968  -18.1465 N   0  0  0  0  0  0  0  0  0  0  0  0
   21.3047  -15.2505  -18.6095 C   0  0  0  0  0  0  0  0  0  0  0  0
   21.6629  -14.2548  -17.5234 C   0  0  0  0  0  0  0  0  0  0  0  0
   20.8517  -14.0886  -16.5843 O   0  0  0  0  0  0  0  0  0  0  0  0
   27.4992  -12.2782  -15.1194 C   0  0  0  0  0  0  0  0  0  0  0  0
   26.7512  -13.9294  -14.9830 S   0  0  0  0  0  0  0  0  0  0  0  0
   24.9811  -13.8730  -15.3823 C   0  0  0  0  0  0  0  0  0  0  0  0
   24.6383  -12.6312  -16.1377 C   0  0  0  0  0  0  0  0  0  0  0  0
   23.2257  -12.5536  -16.5841 C   0  0  2  0  0  0  0  0  0  0  0  0
   22.8598  -13.5341  -17.5531 N   0  0  0  0  0  0  0  0  0  0  0  0
   22.7342  -11.1767  -16.8580 C   0  0  0  0  0  0  0  0  0  0  0  0
   23.0690  -10.6092  -17.9075 O   0  0  0  0  0  0  0  0  0  0  0  0
   18.9901   -6.6659  -15.2833 N   0  0  0  0  0  0  0  0  0  0  0  0
   19.5206   -7.5488  -16.2443 C   0  0  0  0  0  0  0  0  0  0  0  0
   19.6059   -7.1125  -17.4319 O   0  0  0  0  0  0  0  0  0  0  0  0
   19.9829   -8.9183  -16.0090 C   0  0  0  0  0  0  0  0  0  0  0  0
   21.4335   -9.1454  -16.2760 C   0  0  2  0  0  0  0  0  0  0  0  0
   21.8903  -10.4742  -15.9639 N   0  0  0  0  0  0  0  0  0  0  0  0
   22.2378   -8.1108  -15.5435 C   0  0  0  0  0  0  0  0  0  0  0  0
   22.0517   -6.8870  -15.7563 O   0  0  0  0  0  0  0  0  0  0  0  0
   23.2099   -8.4546  -14.6110 O   0  0  0  0  0  0  0  0  0  0  0  0
  1  2  1  0
  2  3  1  0
  3 10  1  0
  3  4  2  0
  6  5  1  0
  7  6  1  0
  8  7  1  0
  9  8  1  6
 10  9  1  0
 11  9  1  0
 11 18  1  0
 12 11  2  0
 13 14  1  0
 14 15  2  0
 14 16  1  0
 17 16  1  1
 17 19  1  0
 18 17  1  0
 19 20  2  0
 19 21  1  0
M  END
$$$$
