GMN.pdb
     RDKit          3D

 21 20  0  0  1  0  0  0  0  0999 V2000
   20.6005  -20.6506   -9.2435 N   0  0  0  0  0  0  0  0  0  0  0  0
   21.7119  -21.4456   -8.7708 C   0  0  0  0  0  0  0  0  0  0  0  0
   23.0167  -20.7210   -9.0390 C   0  0  0  0  0  0  0  0  0  0  0  0
   23.0329  -19.8471   -9.9354 O   0  0  0  0  0  0  0  0  0  0  0  0
   27.7488  -20.1825   -4.7621 C   0  0  0  0  0  0  0  0  0  0  0  0
   28.6935  -19.6311   -6.2140 S   0  0  0  0  0  0  0  0  0  0  0  0
   27.6787  -19.7163   -7.7170 C   0  0  0  0  0  0  0  0  0  0  0  0
   26.4005  -20.4462   -7.4636 C   0  0  0  0  0  0  0  0  0  0  0  0
   25.4582  -20.4510   -8.6093 C   0  0  2  0  0  0  0  0  0  0  0  0
   24.1779  -21.0071   -8.3162 N   0  0  0  0  0  0  0  0  0  0  0  0
   26.0541  -20.8780   -9.9035 C   0  0  0  0  0  0  0  0  0  0  0  0
   26.2117  -22.0859  -10.1312 O   0  0  0  0  0  0  0  0  0  0  0  0
   26.5048  -20.8771  -15.3669 N   0  0  0  0  0  0  0  0  0  0  0  0
   27.0755  -19.8253  -14.6237 C   0  0  0  0  0  0  0  0  0  0  0  0
   28.0328  -19.1975  -15.1691 O   0  0  0  0  0  0  0  0  0  0  0  0
   26.6742  -19.3850  -13.2859 C   0  0  0  0  0  0  0  0  0  0  0  0
   26.8276  -20.4128  -12.2148 C   0  0  2  0  0  0  0  0  0  0  0  0
   26.4553  -19.9568  -10.9013 N   0  0  0  0  0  0  0  0  0  0  0  0
   28.2359  -20.9328  -12.2281 C   0  0  0  0  0  0  0  0  0  0  0  0
   28.6424  -21.6552  -13.1717 O   0  0  0  0  0  0  0  0  0  0  0  0
   29.1401  -20.6431  -11.2126 O   0  0  0  0  0  0  0  0  0  0  0  0
  1  2  1  0
  2  3  1  0
  3 10  1  0
  3  4  2  0
  6  5  1  0
  7  6  1  0
  8  7  1  0
  9  8  1  1
 10  9  1  0
 11  9  1  0
 11 18  1  0
 12 11  2  0
 13 14  1  0
 14 15  2  0
 14 16  1  0
 17 16  1  6
 17 19  1  0
 18 17  1  0
 19 20  2  0
 19 21  1  0
M  END
$$$$
