GMN.pdb
     RDKit          3D

 21 20  0  0  1  0  0  0  0  0999 V2000
   20.8225  -12.5002  -18.7865 N   0  0  0  0  0  0  0  0  0  0  0  0
   21.1398  -11.9574  -17.4845 C   0  0  0  0  0  0  0  0  0  0  0  0
   20.2571  -10.7588  -17.1952 C   0  0  0  0  0  0  0  0  0  0  0  0
   20.3097   -9.7842  -17.9793 O   0  0  0  0  0  0  0  0  0  0  0  0
   15.2840  -13.0088  -14.9107 C   0  0  0  0  0  0  0  0  0  0  0  0
   14.9119  -11.5202  -15.8855 S   0  0  0  0  0  0  0  0  0  0  0  0
   16.4362  -10.7607  -16.5145 C   0  0  0  0  0  0  0  0  0  0  0  0
   17.1546  -10.0200  -15.4348 C   0  0  0  0  0  0  0  0  0  0  0  0
   18.5444   -9.6302  -15.7769 C   0  0  2  0  0  0  0  0  0  0  0  0
   19.4029  -10.7253  -16.0897 N   0  0  0  0  0  0  0  0  0  0  0  0
   19.1363   -8.5933  -14.8898 C   0  0  0  0  0  0  0  0  0  0  0  0
   19.0707   -8.7355  -13.6604 O   0  0  0  0  0  0  0  0  0  0  0  0
   22.5674   -3.7959  -14.0566 N   0  0  0  0  0  0  0  0  0  0  0  0
   22.1360   -5.0676  -13.6309 C   0  0  0  0  0  0  0  0  0  0  0  0
   22.1370   -5.2796  -12.3806 O   0  0  0  0  0  0  0  0  0  0  0  0
   21.6870   -6.1677  -14.4868 C   0  0  0  0  0  0  0  0  0  0  0  0
   20.2115   -6.3916  -14.4986 C   0  0  2  0  0  0  0  0  0  0  0  0
   19.7799   -7.4356  -15.3905 N   0  0  0  0  0  0  0  0  0  0  0  0
   19.5185   -5.0959  -14.8065 C   0  0  0  0  0  0  0  0  0  0  0  0
   19.5407   -4.1471  -13.9839 O   0  0  0  0  0  0  0  0  0  0  0  0
   18.8312   -4.8905  -15.9974 O   0  0  0  0  0  0  0  0  0  0  0  0
  1  2  1  0
  2  3  1  0
  3 10  1  0
  3  4  2  0
  6  5  1  0
  7  6  1  0
  8  7  1  0
  9  8  1  1
 10  9  1  0
 11  9  1  0
 11 18  1  0
 12 11  2  0
 13 14  1  0
 14 15  2  0
 14 16  1  0
 17 16  1  6
 17 19  1  0
 18 17  1  0
 19 20  2  0
 19 21  1  0
M  END
$$$$
