GMN.pdb
     RDKit          3D

 21 20  0  0  1  0  0  0  0  0999 V2000
   19.1239  -21.1392  -10.6592 N   0  0  0  0  0  0  0  0  0  0  0  0
   17.9886  -22.0314  -10.5829 C   0  0  0  0  0  0  0  0  0  0  0  0
   18.4567  -23.4370  -10.2594 C   0  0  0  0  0  0  0  0  0  0  0  0
   19.3296  -23.9520  -10.9944 O   0  0  0  0  0  0  0  0  0  0  0  0
   17.4010  -27.0966   -4.7508 C   0  0  0  0  0  0  0  0  0  0  0  0
   18.0157  -25.3858   -4.7424 S   0  0  0  0  0  0  0  0  0  0  0  0
   18.4300  -24.8385   -6.4230 C   0  0  0  0  0  0  0  0  0  0  0  0
   18.0446  -25.8670   -7.4351 C   0  0  0  0  0  0  0  0  0  0  0  0
   18.3276  -25.4831   -8.8398 C   0  0  2  0  0  0  0  0  0  0  0  0
   17.9399  -24.1522   -9.1758 N   0  0  0  0  0  0  0  0  0  0  0  0
   17.9817  -26.5187   -9.8498 C   0  0  0  0  0  0  0  0  0  0  0  0
   16.8562  -26.5103  -10.3685 O   0  0  0  0  0  0  0  0  0  0  0  0
   21.6644  -28.2644  -13.3065 N   0  0  0  0  0  0  0  0  0  0  0  0
   20.3365  -28.1572  -12.8487 C   0  0  0  0  0  0  0  0  0  0  0  0
   19.6874  -27.1333  -13.2205 O   0  0  0  0  0  0  0  0  0  0  0  0
   19.6317  -29.1090  -11.9873 C   0  0  0  0  0  0  0  0  0  0  0  0
   18.4983  -28.5299  -11.2080 C   0  0  2  0  0  0  0  0  0  0  0  0
   18.8901  -27.5277  -10.2522 N   0  0  0  0  0  0  0  0  0  0  0  0
   17.7365  -29.6412  -10.5456 C   0  0  0  0  0  0  0  0  0  0  0  0
   17.2424  -30.5733  -11.2271 O   0  0  0  0  0  0  0  0  0  0  0  0
   17.5463  -29.6884   -9.1692 O   0  0  0  0  0  0  0  0  0  0  0  0
  1  2  1  0
  2  3  1  0
  3 10  1  0
  3  4  2  0
  6  5  1  0
  7  6  1  0
  8  7  1  0
  9  8  1  1
 10  9  1  0
 11  9  1  0
 11 18  1  0
 12 11  2  0
 13 14  1  0
 14 15  2  0
 14 16  1  0
 17 16  1  1
 17 19  1  0
 18 17  1  0
 19 20  2  0
 19 21  1  0
M  END
$$$$
