GMN.pdb
     RDKit          3D

 21 20  0  0  1  0  0  0  0  0999 V2000
   20.8853  -15.5227  -17.6943 N   0  0  0  0  0  0  0  0  0  0  0  0
   21.4269  -14.3529  -18.3491 C   0  0  0  0  0  0  0  0  0  0  0  0
   21.6762  -13.2588  -17.3292 C   0  0  0  0  0  0  0  0  0  0  0  0
   21.0747  -13.3255  -16.2332 O   0  0  0  0  0  0  0  0  0  0  0  0
   27.2388  -11.2712  -15.5038 C   0  0  0  0  0  0  0  0  0  0  0  0
   26.3704   -9.7187  -15.1289 S   0  0  0  0  0  0  0  0  0  0  0  0
   24.5809   -9.9030  -15.3726 C   0  0  0  0  0  0  0  0  0  0  0  0
   24.2809  -10.9555  -16.3889 C   0  0  0  0  0  0  0  0  0  0  0  0
   22.8359  -11.1556  -16.6580 C   0  0  2  0  0  0  0  0  0  0  0  0
   22.5491  -12.1985  -17.5877 N   0  0  0  0  0  0  0  0  0  0  0  0
   22.0593   -9.9018  -16.8518 C   0  0  0  0  0  0  0  0  0  0  0  0
   22.0475   -9.3601  -17.9664 O   0  0  0  0  0  0  0  0  0  0  0  0
   17.4913   -6.4409  -15.8818 N   0  0  0  0  0  0  0  0  0  0  0  0
   18.7816   -6.5401  -15.3251 C   0  0  0  0  0  0  0  0  0  0  0  0
   19.3517   -5.4512  -15.0131 O   0  0  0  0  0  0  0  0  0  0  0  0
   19.5291   -7.7734  -15.0710 C   0  0  0  0  0  0  0  0  0  0  0  0
   20.6468   -8.0374  -16.0240 C   0  0  2  0  0  0  0  0  0  0  0  0
   21.3231   -9.2896  -15.8086 N   0  0  0  0  0  0  0  0  0  0  0  0
   21.6113   -6.8876  -15.9838 C   0  0  0  0  0  0  0  0  0  0  0  0
   22.3730   -6.7255  -14.9984 O   0  0  0  0  0  0  0  0  0  0  0  0
   21.7037   -5.9643  -17.0190 O   0  0  0  0  0  0  0  0  0  0  0  0
  1  2  1  0
  2  3  1  0
  3 10  1  0
  3  4  2  0
  6  5  1  0
  7  6  1  0
  8  7  1  0
  9  8  1  6
 10  9  1  0
 11  9  1  0
 11 18  1  0
 12 11  2  0
 13 14  1  0
 14 15  2  0
 14 16  1  0
 17 16  1  1
 17 19  1  0
 18 17  1  0
 19 20  2  0
 19 21  1  0
M  END
$$$$
