GMN.pdb
     RDKit          3D

 21 20  0  0  1  0  0  0  0  0999 V2000
   27.7437  -23.0964  -16.5346 N   0  0  0  0  0  0  0  0  0  0  0  0
   26.9269  -21.9130  -16.3831 C   0  0  0  0  0  0  0  0  0  0  0  0
   25.8588  -22.1531  -15.3338 C   0  0  0  0  0  0  0  0  0  0  0  0
   25.2363  -23.2389  -15.3632 O   0  0  0  0  0  0  0  0  0  0  0  0
   25.0244  -21.4282   -8.3287 C   0  0  0  0  0  0  0  0  0  0  0  0
   24.2959  -20.1869   -9.4392 S   0  0  0  0  0  0  0  0  0  0  0  0
   23.8040  -20.9389  -11.0166 C   0  0  0  0  0  0  0  0  0  0  0  0
   24.8585  -20.7478  -12.0568 C   0  0  0  0  0  0  0  0  0  0  0  0
   24.5415  -21.3562  -13.3721 C   0  0  2  0  0  0  0  0  0  0  0  0
   25.5641  -21.2011  -14.3542 N   0  0  0  0  0  0  0  0  0  0  0  0
   23.1562  -21.1097  -13.8543 C   0  0  0  0  0  0  0  0  0  0  0  0
   22.8718  -20.0105  -14.3511 O   0  0  0  0  0  0  0  0  0  0  0  0
   18.3302  -23.3740  -16.6975 N   0  0  0  0  0  0  0  0  0  0  0  0
   18.8707  -22.7695  -15.5456 C   0  0  0  0  0  0  0  0  0  0  0  0
   18.1353  -21.9282  -14.9463 O   0  0  0  0  0  0  0  0  0  0  0  0
   20.1955  -23.0155  -14.9719 C   0  0  0  0  0  0  0  0  0  0  0  0
   20.8286  -21.8297  -14.3237 C   0  0  2  0  0  0  0  0  0  0  0  0
   22.1329  -22.0850  -13.7713 N   0  0  0  0  0  0  0  0  0  0  0  0
   19.8973  -21.2814  -13.2815 C   0  0  0  0  0  0  0  0  0  0  0  0
   19.9377  -21.7061  -12.1002 O   0  0  0  0  0  0  0  0  0  0  0  0
   18.9624  -20.2943  -13.5718 O   0  0  0  0  0  0  0  0  0  0  0  0
  1  2  1  0
  2  3  1  0
  3 10  1  0
  3  4  2  0
  6  5  1  0
  7  6  1  0
  8  7  1  0
  9  8  1  1
 10  9  1  0
 11  9  1  0
 11 18  1  0
 12 11  2  0
 13 14  1  0
 14 15  2  0
 14 16  1  0
 17 16  1  1
 17 19  1  0
 18 17  1  0
 19 20  2  0
 19 21  1  0
M  END
$$$$
