GMN.pdb
     RDKit          3D

 21 20  0  0  1  0  0  0  0  0999 V2000
   30.3351  -22.4504  -13.2143 N   0  0  0  0  0  0  0  0  0  0  0  0
   29.8185  -21.1578  -12.8232 C   0  0  0  0  0  0  0  0  0  0  0  0
   28.5969  -21.3345  -11.9423 C   0  0  0  0  0  0  0  0  0  0  0  0
   27.6902  -22.1019  -12.3378 O   0  0  0  0  0  0  0  0  0  0  0  0
   28.3483  -19.3351   -5.7790 C   0  0  0  0  0  0  0  0  0  0  0  0
   26.5995  -19.7915   -5.9738 S   0  0  0  0  0  0  0  0  0  0  0  0
   26.2625  -20.3558   -7.6661 C   0  0  0  0  0  0  0  0  0  0  0  0
   27.4853  -20.2634   -8.5186 C   0  0  0  0  0  0  0  0  0  0  0  0
   27.2817  -20.6684   -9.9311 C   0  0  2  0  0  0  0  0  0  0  0  0
   28.4695  -20.6681  -10.7207 N   0  0  0  0  0  0  0  0  0  0  0  0
   26.0860  -20.0710  -10.5837 C   0  0  0  0  0  0  0  0  0  0  0  0
   26.1881  -18.9754  -11.1538 O   0  0  0  0  0  0  0  0  0  0  0  0
   21.9562  -20.1020  -13.8360 N   0  0  0  0  0  0  0  0  0  0  0  0
   23.0474  -20.9902  -13.9060 C   0  0  0  0  0  0  0  0  0  0  0  0
   23.1743  -21.6519  -14.9802 O   0  0  0  0  0  0  0  0  0  0  0  0
   24.0486  -21.2254  -12.8634 C   0  0  0  0  0  0  0  0  0  0  0  0
   23.8588  -20.4236  -11.6190 C   0  0  2  0  0  0  0  0  0  0  0  0
   24.8191  -20.7037  -10.5841 N   0  0  0  0  0  0  0  0  0  0  0  0
   22.4553  -20.6118  -11.1203 C   0  0  0  0  0  0  0  0  0  0  0  0
   22.2091  -21.4218  -10.1926 O   0  0  0  0  0  0  0  0  0  0  0  0
   21.3811  -19.9090  -11.6541 O   0  0  0  0  0  0  0  0  0  0  0  0
  1  2  1  0
  2  3  1  0
  3 10  1  0
  3  4  2  0
  6  5  1  0
  7  6  1  0
  8  7  1  0
  9  8  1  1
 10  9  1  0
 11  9  1  0
 11 18  1  0
 12 11  2  0
 13 14  1  0
 14 15  2  0
 14 16  1  0
 17 16  1  6
 17 19  1  0
 18 17  1  0
 19 20  2  0
 19 21  1  0
M  END
$$$$
