GMN.pdb
     RDKit          3D

 21 20  0  0  1  0  0  0  0  0999 V2000
   28.5417  -22.2447  -16.6760 N   0  0  0  0  0  0  0  0  0  0  0  0
   28.1542  -21.0774  -15.9159 C   0  0  0  0  0  0  0  0  0  0  0  0
   27.1241  -21.4597  -14.8708 C   0  0  0  0  0  0  0  0  0  0  0  0
   26.4437  -22.4929  -15.0633 O   0  0  0  0  0  0  0  0  0  0  0  0
   24.8265  -20.9637   -7.3335 C   0  0  0  0  0  0  0  0  0  0  0  0
   26.0015  -20.4743   -8.6314 S   0  0  0  0  0  0  0  0  0  0  0  0
   25.3968  -20.9663  -10.2709 C   0  0  0  0  0  0  0  0  0  0  0  0
   26.3758  -20.6016  -11.3382 C   0  0  0  0  0  0  0  0  0  0  0  0
   25.9708  -21.0044  -12.7073 C   0  0  2  0  0  0  0  0  0  0  0  0
   26.9261  -20.6929  -13.7195 N   0  0  0  0  0  0  0  0  0  0  0  0
   24.5570  -20.6982  -13.0535 C   0  0  0  0  0  0  0  0  0  0  0  0
   24.2569  -19.5564  -13.4305 O   0  0  0  0  0  0  0  0  0  0  0  0
   19.6162  -22.2517  -15.6541 N   0  0  0  0  0  0  0  0  0  0  0  0
   20.0542  -22.3037  -14.3162 C   0  0  0  0  0  0  0  0  0  0  0  0
   19.1801  -22.0901  -13.4227 O   0  0  0  0  0  0  0  0  0  0  0  0
   21.4164  -22.5796  -13.8547 C   0  0  0  0  0  0  0  0  0  0  0  0
   22.2062  -21.3722  -13.4731 C   0  0  2  0  0  0  0  0  0  0  0  0
   23.5236  -21.6628  -12.9714 N   0  0  0  0  0  0  0  0  0  0  0  0
   21.4187  -20.5592  -12.4868 C   0  0  0  0  0  0  0  0  0  0  0  0
   21.5607  -20.7382  -11.2518 O   0  0  0  0  0  0  0  0  0  0  0  0
   20.5106  -19.5864  -12.8891 O   0  0  0  0  0  0  0  0  0  0  0  0
  1  2  1  0
  2  3  1  0
  3 10  1  0
  3  4  2  0
  6  5  1  0
  7  6  1  0
  8  7  1  0
  9  8  1  1
 10  9  1  0
 11  9  1  0
 11 18  1  0
 12 11  2  0
 13 14  1  0
 14 15  2  0
 14 16  1  0
 17 16  1  1
 17 19  1  0
 18 17  1  0
 19 20  2  0
 19 21  1  0
M  END
$$$$
