GMN.pdb
     RDKit          3D

 21 20  0  0  1  0  0  0  0  0999 V2000
   14.3633  -22.9022   -1.6452 N   0  0  0  0  0  0  0  0  0  0  0  0
   14.3159  -21.8616   -0.6426 C   0  0  0  0  0  0  0  0  0  0  0  0
   14.9520  -22.3533    0.6431 C   0  0  0  0  0  0  0  0  0  0  0  0
   14.5370  -23.4280    1.1334 O   0  0  0  0  0  0  0  0  0  0  0  0
   20.9922  -24.8478    4.3906 C   0  0  0  0  0  0  0  0  0  0  0  0
   20.2538  -24.0104    2.9560 S   0  0  0  0  0  0  0  0  0  0  0  0
   18.6221  -23.3319    3.3717 C   0  0  0  0  0  0  0  0  0  0  0  0
   17.9961  -22.6700    2.1883 C   0  0  0  0  0  0  0  0  0  0  0  0
   16.6548  -22.0913    2.4460 C   0  0  2  0  0  0  0  0  0  0  0  0
   15.9734  -21.6407    1.2768 N   0  0  0  0  0  0  0  0  0  0  0  0
   16.5873  -21.1720    3.6134 C   0  0  0  0  0  0  0  0  0  0  0  0
   16.8562  -19.9721    3.4589 O   0  0  0  0  0  0  0  0  0  0  0  0
   13.9011  -22.1850    8.7028 N   0  0  0  0  0  0  0  0  0  0  0  0
   14.6807  -22.0149    7.5419 C   0  0  0  0  0  0  0  0  0  0  0  0
   15.3299  -23.0270    7.1393 O   0  0  0  0  0  0  0  0  0  0  0  0
   14.8159  -20.7876    6.7545 C   0  0  0  0  0  0  0  0  0  0  0  0
   16.0935  -20.6686    5.9924 C   0  0  2  0  0  0  0  0  0  0  0  0
   16.2256  -21.6091    4.9108 N   0  0  0  0  0  0  0  0  0  0  0  0
   17.2483  -20.7747    6.9458 C   0  0  0  0  0  0  0  0  0  0  0  0
   18.0432  -21.7451    6.8828 O   0  0  0  0  0  0  0  0  0  0  0  0
   17.4868  -19.8188    7.9267 O   0  0  0  0  0  0  0  0  0  0  0  0
  1  2  1  0
  2  3  1  0
  3 10  1  0
  3  4  2  0
  6  5  1  0
  7  6  1  0
  8  7  1  0
  9  8  1  6
 10  9  1  0
 11  9  1  0
 11 18  1  0
 12 11  2  0
 13 14  1  0
 14 15  2  0
 14 16  1  0
 17 16  1  1
 17 19  1  0
 18 17  1  0
 19 20  2  0
 19 21  1  0
M  END
$$$$
