GMN.pdb
     RDKit          3D

 21 20  0  0  1  0  0  0  0  0999 V2000
   24.4767  -11.1435  -19.6906 N   0  0  0  0  0  0  0  0  0  0  0  0
   23.8703   -9.8696  -20.0069 C   0  0  0  0  0  0  0  0  0  0  0  0
   22.6756   -9.6276  -19.1049 C   0  0  0  0  0  0  0  0  0  0  0  0
   22.0297   -8.5654  -19.2533 O   0  0  0  0  0  0  0  0  0  0  0  0
   16.9094  -12.8460  -14.8209 C   0  0  0  0  0  0  0  0  0  0  0  0
   18.4584  -13.0719  -15.7453 S   0  0  0  0  0  0  0  0  0  0  0  0
   19.2340  -11.4715  -16.1096 C   0  0  0  0  0  0  0  0  0  0  0  0
   20.5103  -11.6504  -16.8643 C   0  0  0  0  0  0  0  0  0  0  0  0
   21.1684  -10.3837  -17.2677 C   0  0  2  0  0  0  0  0  0  0  0  0
   22.2917  -10.5525  -18.1303 N   0  0  0  0  0  0  0  0  0  0  0  0
   21.3561   -9.4016  -16.1665 C   0  0  0  0  0  0  0  0  0  0  0  0
   22.2691   -9.5747  -15.3465 O   0  0  0  0  0  0  0  0  0  0  0  0
   22.4532   -5.6296  -12.8129 N   0  0  0  0  0  0  0  0  0  0  0  0
   22.4450   -5.5473  -14.2191 C   0  0  0  0  0  0  0  0  0  0  0  0
   22.6992   -4.4121  -14.7240 O   0  0  0  0  0  0  0  0  0  0  0  0
   22.1728   -6.6402  -15.1550 C   0  0  0  0  0  0  0  0  0  0  0  0
   20.8284   -7.2714  -15.0087 C   0  0  2  0  0  0  0  0  0  0  0  0
   20.5296   -8.2627  -16.0086 N   0  0  0  0  0  0  0  0  0  0  0  0
   19.7797   -6.1975  -14.9810 C   0  0  0  0  0  0  0  0  0  0  0  0
   19.1786   -5.8628  -16.0317 O   0  0  0  0  0  0  0  0  0  0  0  0
   19.4316   -5.5349  -13.8094 O   0  0  0  0  0  0  0  0  0  0  0  0
  1  2  1  0
  2  3  1  0
  3 10  1  0
  3  4  2  0
  6  5  1  0
  7  6  1  0
  8  7  1  0
  9  8  1  1
 10  9  1  0
 11  9  1  0
 11 18  1  0
 12 11  2  0
 13 14  1  0
 14 15  2  0
 14 16  1  0
 17 16  1  6
 17 19  1  0
 18 17  1  0
 19 20  2  0
 19 21  1  0
M  END
$$$$
