GMN.pdb
     RDKit          3D

 21 20  0  0  1  0  0  0  0  0999 V2000
   25.1571  -20.6414   -8.3829 N   0  0  0  0  0  0  0  0  0  0  0  0
   25.7447  -21.2079   -9.5764 C   0  0  0  0  0  0  0  0  0  0  0  0
   25.4231  -20.3360  -10.7747 C   0  0  0  0  0  0  0  0  0  0  0  0
   24.5940  -19.4099  -10.6250 O   0  0  0  0  0  0  0  0  0  0  0  0
   27.8131  -16.8009  -17.2993 C   0  0  0  0  0  0  0  0  0  0  0  0
   28.1456  -18.0660  -16.0369 S   0  0  0  0  0  0  0  0  0  0  0  0
   26.6265  -18.5059  -15.1456 C   0  0  0  0  0  0  0  0  0  0  0  0
   26.9250  -19.3738  -13.9674 C   0  0  0  0  0  0  0  0  0  0  0  0
   25.7315  -19.7812  -13.1862 C   0  0  2  0  0  0  0  0  0  0  0  0
   26.0250  -20.5454  -12.0183 N   0  0  0  0  0  0  0  0  0  0  0  0
   24.5942  -20.2828  -14.0033 C   0  0  0  0  0  0  0  0  0  0  0  0
   24.6012  -21.4572  -14.3988 O   0  0  0  0  0  0  0  0  0  0  0  0
   20.5385  -20.6257  -12.1055 N   0  0  0  0  0  0  0  0  0  0  0  0
   21.0210  -20.9453  -13.3898 C   0  0  0  0  0  0  0  0  0  0  0  0
   21.4257  -22.1341  -13.5659 O   0  0  0  0  0  0  0  0  0  0  0  0
   21.1018  -20.0430  -14.5404 C   0  0  0  0  0  0  0  0  0  0  0  0
   22.4402  -19.9826  -15.1977 C   0  0  2  0  0  0  0  0  0  0  0  0
   23.4891  -19.4705  -14.3554 N   0  0  0  0  0  0  0  0  0  0  0  0
   22.3306  -19.1898  -16.4679 C   0  0  0  0  0  0  0  0  0  0  0  0
   21.5096  -19.5196  -17.3593 O   0  0  0  0  0  0  0  0  0  0  0  0
   23.1205  -18.0720  -16.7116 O   0  0  0  0  0  0  0  0  0  0  0  0
  1  2  1  0
  2  3  1  0
  3 10  1  0
  3  4  2  0
  6  5  1  0
  7  6  1  0
  8  7  1  0
  9  8  1  6
 10  9  1  0
 11  9  1  0
 11 18  1  0
 12 11  2  0
 13 14  1  0
 14 15  2  0
 14 16  1  0
 17 16  1  1
 17 19  1  0
 18 17  1  0
 19 20  2  0
 19 21  1  0
M  END
$$$$
