GYA.pdb
     RDKit          3D

 22 22  0  0  1  0  0  0  0  0999 V2000
    7.5589  -13.8265   19.1786 N   0  0  0  0  0  0  0  0  0  0  0  0
    7.0320  -14.5640   20.2835 C   0  0  0  0  0  0  0  0  0  0  0  0
    7.9548  -14.5268   21.4690 C   0  0  0  0  0  0  0  0  0  0  0  0
    9.0485  -13.9337   21.3678 O   0  0  0  0  0  0  0  0  0  0  0  0
    6.1558  -10.4366   27.4428 O   0  0  0  0  0  0  0  0  0  0  0  0
    6.5385  -11.6501   26.8714 C   0  0  0  0  0  0  0  0  0  0  0  0
    5.5901  -12.6305   26.6091 C   0  0  0  0  0  0  0  0  0  0  0  0
    6.0341  -13.8070   26.0435 C   0  0  0  0  0  0  0  0  0  0  0  0
    7.3573  -14.0434   25.7342 C   0  0  0  0  0  0  0  0  0  0  0  0
    7.7170  -15.3403   25.1313 C   0  0  0  0  0  0  0  0  0  0  0  0
    8.5109  -15.1738   23.8461 C   0  0  2  0  0  0  0  0  0  0  0  0
    7.6306  -15.1392   22.6960 N   0  0  0  0  0  0  0  0  0  0  0  0
    9.3571  -16.4216   23.7520 C   0  0  0  0  0  0  0  0  0  0  0  0
    8.7689  -17.5256   23.6321 O   0  0  0  0  0  0  0  0  0  0  0  0
    8.2958  -13.0566   26.0008 C   0  0  0  0  0  0  0  0  0  0  0  0
    7.8545  -11.8846   26.5641 C   0  0  0  0  0  0  0  0  0  0  0  0
   12.8759  -17.2395   22.9206 C   0  0  0  0  0  0  0  0  0  0  0  0
   11.6242  -17.4531   23.7319 C   0  0  2  0  0  0  0  0  0  0  0  0
   10.7537  -16.3248   23.7992 N   0  0  0  0  0  0  0  0  0  0  0  0
   11.8913  -18.0373   25.0701 C   0  0  0  0  0  0  0  0  0  0  0  0
   11.5050  -17.6404   26.1634 O   0  0  0  0  0  0  0  0  0  0  0  0
   12.6927  -19.1971   25.0752 O   0  0  0  0  0  0  0  0  0  0  0  0
  1  2  1  0
  2  3  1  0
  3 12  1  0
  3  4  2  0
  6  5  1  0
  7  6  2  0
  8  7  1  0
  9  8  2  0
  9 15  1  0
 10  9  1  0
 11 10  1  1
 11 13  1  0
 12 11  1  0
 13 19  1  0
 14 13  2  0
 15 16  2  0
 16  6  1  0
 18 20  1  0
 18 17  1  1
 19 18  1  0
 20 22  1  0
 21 20  2  0
M  END
$$$$
