GYA.pdb
     RDKit          3D

 22 22  0  0  1  0  0  0  0  0999 V2000
    5.1151  -19.7738   24.1250 N   0  0  0  0  0  0  0  0  0  0  0  0
    6.3491  -19.0903   24.3538 C   0  0  0  0  0  0  0  0  0  0  0  0
    6.3137  -17.6841   23.8249 C   0  0  0  0  0  0  0  0  0  0  0  0
    5.2487  -17.2431   23.3458 O   0  0  0  0  0  0  0  0  0  0  0  0
    6.1150  -11.4839   28.1353 O   0  0  0  0  0  0  0  0  0  0  0  0
    6.7000  -12.2644   27.1382 C   0  0  0  0  0  0  0  0  0  0  0  0
    6.3164  -12.1092   25.8122 C   0  0  0  0  0  0  0  0  0  0  0  0
    6.9333  -12.9114   24.8757 C   0  0  0  0  0  0  0  0  0  0  0  0
    7.8974  -13.8436   25.1982 C   0  0  0  0  0  0  0  0  0  0  0  0
    8.4891  -14.6469   24.1122 C   0  0  0  0  0  0  0  0  0  0  0  0
    7.4460  -15.4717   23.3763 C   0  0  2  0  0  0  0  0  0  0  0  0
    7.4425  -16.8410   23.8494 N   0  0  0  0  0  0  0  0  0  0  0  0
    7.9027  -15.4738   21.9364 C   0  0  0  0  0  0  0  0  0  0  0  0
    8.6248  -16.4262   21.5480 O   0  0  0  0  0  0  0  0  0  0  0  0
    8.2725  -13.9898   26.5262 C   0  0  0  0  0  0  0  0  0  0  0  0
    7.6586  -13.1911   27.4595 C   0  0  0  0  0  0  0  0  0  0  0  0
    7.3766  -13.1652   18.9625 C   0  0  0  0  0  0  0  0  0  0  0  0
    7.8265  -14.4078   19.6865 C   0  0  2  0  0  0  0  0  0  0  0  0
    7.5194  -14.4342   21.0795 N   0  0  0  0  0  0  0  0  0  0  0  0
    9.2438  -14.7569   19.4170 C   0  0  0  0  0  0  0  0  0  0  0  0
    9.7061  -15.3780   18.4669 O   0  0  0  0  0  0  0  0  0  0  0  0
   10.1705  -14.3134   20.3824 O   0  0  0  0  0  0  0  0  0  0  0  0
  1  2  1  0
  2  3  1  0
  3 12  1  0
  3  4  2  0
  6  5  1  0
  7  6  2  0
  8  7  1  0
  9  8  2  0
  9 15  1  0
 10  9  1  0
 11 10  1  1
 11 13  1  0
 12 11  1  0
 13 19  1  0
 14 13  2  0
 15 16  2  0
 16  6  1  0
 18 20  1  0
 18 17  1  1
 19 18  1  0
 20 22  1  0
 21 20  2  0
M  END
$$$$
