GYA.pdb
     RDKit          3D

 22 22  0  0  1  0  0  0  0  0999 V2000
   10.7479  -19.3461   22.7300 N   0  0  0  0  0  0  0  0  0  0  0  0
   12.0896  -19.5082   23.1945 C   0  0  0  0  0  0  0  0  0  0  0  0
   12.8559  -18.2163   23.1464 C   0  0  0  0  0  0  0  0  0  0  0  0
   12.5628  -17.3694   22.2775 O   0  0  0  0  0  0  0  0  0  0  0  0
   10.7410  -15.2854   28.8165 O   0  0  0  0  0  0  0  0  0  0  0  0
   11.8252  -15.5373   27.9759 C   0  0  0  0  0  0  0  0  0  0  0  0
   12.2567  -14.5675   27.0799 C   0  0  0  0  0  0  0  0  0  0  0  0
   13.3335  -14.8799   26.2775 C   0  0  0  0  0  0  0  0  0  0  0  0
   13.9861  -16.0939   26.3290 C   0  0  0  0  0  0  0  0  0  0  0  0
   15.1274  -16.3172   25.4221 C   0  0  0  0  0  0  0  0  0  0  0  0
   14.6793  -16.7044   24.0224 C   0  0  2  0  0  0  0  0  0  0  0  0
   13.8975  -17.9238   24.0493 N   0  0  0  0  0  0  0  0  0  0  0  0
   15.9601  -16.9846   23.2720 C   0  0  0  0  0  0  0  0  0  0  0  0
   16.1282  -18.1377   22.8018 O   0  0  0  0  0  0  0  0  0  0  0  0
   13.5461  -17.0551   27.2281 C   0  0  0  0  0  0  0  0  0  0  0  0
   12.4736  -16.7448   28.0276 C   0  0  0  0  0  0  0  0  0  0  0  0
   17.2821  -16.2157   20.6853 C   0  0  0  0  0  0  0  0  0  0  0  0
   17.8597  -15.9361   22.0486 C   0  0  2  0  0  0  0  0  0  0  0  0
   16.9163  -15.9725   23.1182 N   0  0  0  0  0  0  0  0  0  0  0  0
   18.7022  -14.7145   22.0839 C   0  0  0  0  0  0  0  0  0  0  0  0
   18.5550  -13.7094   22.7695 O   0  0  0  0  0  0  0  0  0  0  0  0
   19.8117  -14.7192   21.2142 O   0  0  0  0  0  0  0  0  0  0  0  0
  1  2  1  0
  2  3  1  0
  3 12  1  0
  3  4  2  0
  6  5  1  0
  7  6  2  0
  8  7  1  0
  9  8  2  0
  9 15  1  0
 10  9  1  0
 11 10  1  1
 11 13  1  0
 12 11  1  0
 13 19  1  0
 14 13  2  0
 15 16  2  0
 16  6  1  0
 18 20  1  0
 18 17  1  6
 19 18  1  0
 20 22  1  0
 21 20  2  0
M  END
$$$$
