GYA.pdb
     RDKit          3D

 22 22  0  0  1  0  0  0  0  0999 V2000
    8.5737  -19.3883   18.2253 N   0  0  0  0  0  0  0  0  0  0  0  0
    8.1316  -19.1313   19.5598 C   0  0  0  0  0  0  0  0  0  0  0  0
    9.0873  -18.2399   20.3015 C   0  0  0  0  0  0  0  0  0  0  0  0
   10.2199  -18.0310   19.8198 O   0  0  0  0  0  0  0  0  0  0  0  0
    7.2601  -12.2111   18.5165 O   0  0  0  0  0  0  0  0  0  0  0  0
    7.6700  -13.0320   19.5671 C   0  0  0  0  0  0  0  0  0  0  0  0
    6.7381  -13.7783   20.2772 C   0  0  0  0  0  0  0  0  0  0  0  0
    7.2089  -14.5692   21.3038 C   0  0  0  0  0  0  0  0  0  0  0  0
    8.5427  -14.6467   21.6461 C   0  0  0  0  0  0  0  0  0  0  0  0
    8.9314  -15.5272   22.7635 C   0  0  0  0  0  0  0  0  0  0  0  0
    9.6477  -16.7788   22.2838 C   0  0  2  0  0  0  0  0  0  0  0  0
    8.7517  -17.6283   21.5258 N   0  0  0  0  0  0  0  0  0  0  0  0
   10.0312  -17.5112   23.5481 C   0  0  0  0  0  0  0  0  0  0  0  0
    9.1141  -18.0419   24.2237 O   0  0  0  0  0  0  0  0  0  0  0  0
    9.4645  -13.8966   20.9296 C   0  0  0  0  0  0  0  0  0  0  0  0
    8.9966  -13.1086   19.9070 C   0  0  0  0  0  0  0  0  0  0  0  0
   13.3106  -18.6104   25.0804 C   0  0  0  0  0  0  0  0  0  0  0  0
   11.8317  -18.3215   25.0666 C   0  0  2  0  0  0  0  0  0  0  0  0
   11.3758  -17.5829   23.9345 N   0  0  0  0  0  0  0  0  0  0  0  0
   11.3388  -17.7511   26.3453 C   0  0  0  0  0  0  0  0  0  0  0  0
   10.7587  -16.6873   26.5293 O   0  0  0  0  0  0  0  0  0  0  0  0
   11.5717  -18.5405   27.4899 O   0  0  0  0  0  0  0  0  0  0  0  0
  1  2  1  0
  2  3  1  0
  3 12  1  0
  3  4  2  0
  6  5  1  0
  7  6  2  0
  8  7  1  0
  9  8  2  0
  9 15  1  0
 10  9  1  0
 11 10  1  1
 11 13  1  0
 12 11  1  0
 13 19  1  0
 14 13  2  0
 15 16  2  0
 16  6  1  0
 18 20  1  0
 18 17  1  1
 19 18  1  0
 20 22  1  0
 21 20  2  0
M  END
$$$$
