GYA.pdb
     RDKit          3D

 22 22  0  0  1  0  0  0  0  0999 V2000
    4.6097  -21.6751   22.3727 N   0  0  0  0  0  0  0  0  0  0  0  0
    5.5418  -20.6302   22.0864 C   0  0  0  0  0  0  0  0  0  0  0  0
    5.5831  -19.6044   23.1839 C   0  0  0  0  0  0  0  0  0  0  0  0
    4.5220  -19.0485   23.5348 O   0  0  0  0  0  0  0  0  0  0  0  0
    6.4964  -23.1443   29.0168 O   0  0  0  0  0  0  0  0  0  0  0  0
    6.8553  -22.0385   28.2462 C   0  0  0  0  0  0  0  0  0  0  0  0
    7.7871  -22.1698   27.2244 C   0  0  0  0  0  0  0  0  0  0  0  0
    8.0978  -21.0382   26.5005 C   0  0  0  0  0  0  0  0  0  0  0  0
    7.5306  -19.8053   26.7468 C   0  0  0  0  0  0  0  0  0  0  0  0
    7.9394  -18.6636   25.9075 C   0  0  0  0  0  0  0  0  0  0  0  0
    6.8637  -18.2743   24.9070 C   0  0  2  0  0  0  0  0  0  0  0  0
    6.7802  -19.2448   23.8346 N   0  0  0  0  0  0  0  0  0  0  0  0
    7.3394  -16.9661   24.3200 C   0  0  0  0  0  0  0  0  0  0  0  0
    8.1372  -17.0102   23.3501 O   0  0  0  0  0  0  0  0  0  0  0  0
    6.6010  -19.6862   27.7702 C   0  0  0  0  0  0  0  0  0  0  0  0
    6.2909  -20.8127   28.4917 C   0  0  0  0  0  0  0  0  0  0  0  0
    6.4668  -13.3180   24.8206 C   0  0  0  0  0  0  0  0  0  0  0  0
    7.3350  -14.4767   24.4031 C   0  0  2  0  0  0  0  0  0  0  0  0
    6.8901  -15.7535   24.8583 N   0  0  0  0  0  0  0  0  0  0  0  0
    8.7761  -14.2526   24.6794 C   0  0  0  0  0  0  0  0  0  0  0  0
    9.4902  -13.3344   24.2933 O   0  0  0  0  0  0  0  0  0  0  0  0
    9.3952  -15.2253   25.4907 O   0  0  0  0  0  0  0  0  0  0  0  0
  1  2  1  0
  2  3  1  0
  3 12  1  0
  3  4  2  0
  6  5  1  0
  7  6  2  0
  8  7  1  0
  9  8  2  0
  9 15  1  0
 10  9  1  0
 11 10  1  1
 11 13  1  0
 12 11  1  0
 13 19  1  0
 14 13  2  0
 15 16  2  0
 16  6  1  0
 18 20  1  0
 18 17  1  1
 19 18  1  0
 20 22  1  0
 21 20  2  0
M  END
$$$$
