GYA.pdb
     RDKit          3D

 22 22  0  0  1  0  0  0  0  0999 V2000
    9.7320  -17.0675   18.0671 N   0  0  0  0  0  0  0  0  0  0  0  0
    8.5856  -17.0511   18.9202 C   0  0  0  0  0  0  0  0  0  0  0  0
    8.8598  -16.3269   20.2082 C   0  0  0  0  0  0  0  0  0  0  0  0
   10.0337  -16.0049   20.4849 O   0  0  0  0  0  0  0  0  0  0  0  0
    7.5294  -11.9737   27.7657 O   0  0  0  0  0  0  0  0  0  0  0  0
    7.3347  -12.6780   26.5776 C   0  0  0  0  0  0  0  0  0  0  0  0
    7.6576  -12.0966   25.3580 C   0  0  0  0  0  0  0  0  0  0  0  0
    7.4409  -12.8462   24.2213 C   0  0  0  0  0  0  0  0  0  0  0  0
    6.9263  -14.1256   24.2476 C   0  0  0  0  0  0  0  0  0  0  0  0
    6.7370  -14.8332   22.9676 C   0  0  0  0  0  0  0  0  0  0  0  0
    8.0550  -15.2950   22.3682 C   0  0  2  0  0  0  0  0  0  0  0  0
    7.8370  -15.9961   21.1193 N   0  0  0  0  0  0  0  0  0  0  0  0
    8.6085  -16.2814   23.3696 C   0  0  0  0  0  0  0  0  0  0  0  0
    7.9558  -17.3337   23.5838 O   0  0  0  0  0  0  0  0  0  0  0  0
    6.6075  -14.6961   25.4717 C   0  0  0  0  0  0  0  0  0  0  0  0
    6.8229  -13.9502   26.6045 C   0  0  0  0  0  0  0  0  0  0  0  0
   11.9742  -17.1157   24.5009 C   0  0  0  0  0  0  0  0  0  0  0  0
   10.5107  -16.9641   24.8257 C   0  0  2  0  0  0  0  0  0  0  0  0
    9.8152  -16.0085   24.0266 N   0  0  0  0  0  0  0  0  0  0  0  0
   10.2531  -16.7778   26.2757 C   0  0  0  0  0  0  0  0  0  0  0  0
   10.6218  -17.4807   27.2094 O   0  0  0  0  0  0  0  0  0  0  0  0
    9.4850  -15.6449   26.6133 O   0  0  0  0  0  0  0  0  0  0  0  0
  1  2  1  0
  2  3  1  0
  3 12  1  0
  3  4  2  0
  6  5  1  0
  7  6  2  0
  8  7  1  0
  9  8  2  0
  9 15  1  0
 10  9  1  0
 11 10  1  1
 11 13  1  0
 12 11  1  0
 13 19  1  0
 14 13  2  0
 15 16  2  0
 16  6  1  0
 18 20  1  0
 18 17  1  1
 19 18  1  0
 20 22  1  0
 21 20  2  0
M  END
$$$$
