GYA.pdb
     RDKit          3D

 22 22  0  0  1  0  0  0  0  0999 V2000
    5.0998  -19.3722   20.3875 N   0  0  0  0  0  0  0  0  0  0  0  0
    4.8218  -18.3803   21.3781 C   0  0  0  0  0  0  0  0  0  0  0  0
    6.0743  -17.9104   22.0629 C   0  0  0  0  0  0  0  0  0  0  0  0
    7.0407  -18.6941   22.1639 O   0  0  0  0  0  0  0  0  0  0  0  0
    8.8949  -12.7263   18.0454 O   0  0  0  0  0  0  0  0  0  0  0  0
    8.5342  -13.1870   19.3116 C   0  0  0  0  0  0  0  0  0  0  0  0
    7.1943  -13.3023   19.6593 C   0  0  0  0  0  0  0  0  0  0  0  0
    6.9055  -13.7639   20.9260 C   0  0  0  0  0  0  0  0  0  0  0  0
    7.8763  -14.1086   21.8432 C   0  0  0  0  0  0  0  0  0  0  0  0
    7.4497  -14.5909   23.1700 C   0  0  0  0  0  0  0  0  0  0  0  0
    7.3970  -16.1082   23.2380 C   0  0  2  0  0  0  0  0  0  0  0  0
    6.1994  -16.6127   22.5976 N   0  0  0  0  0  0  0  0  0  0  0  0
    7.3095  -16.4246   24.7125 C   0  0  0  0  0  0  0  0  0  0  0  0
    6.2040  -16.2592   25.2867 O   0  0  0  0  0  0  0  0  0  0  0  0
    9.2115  -13.9893   21.4846 C   0  0  0  0  0  0  0  0  0  0  0  0
    9.5001  -13.5297   20.2232 C   0  0  0  0  0  0  0  0  0  0  0  0
    7.3878  -18.6976   26.7110 C   0  0  0  0  0  0  0  0  0  0  0  0
    8.3801  -17.5653   26.6508 C   0  0  2  0  0  0  0  0  0  0  0  0
    8.4406  -16.8874   25.3970 N   0  0  0  0  0  0  0  0  0  0  0  0
    9.7256  -17.9441   27.1502 C   0  0  0  0  0  0  0  0  0  0  0  0
   10.8050  -17.8411   26.5790 O   0  0  0  0  0  0  0  0  0  0  0  0
    9.7571  -18.4918   28.4489 O   0  0  0  0  0  0  0  0  0  0  0  0
  1  2  1  0
  2  3  1  0
  3 12  1  0
  3  4  2  0
  6  5  1  0
  7  6  2  0
  8  7  1  0
  9  8  2  0
  9 15  1  0
 10  9  1  0
 11 10  1  1
 11 13  1  0
 12 11  1  0
 13 19  1  0
 14 13  2  0
 15 16  2  0
 16  6  1  0
 18 20  1  0
 18 17  1  6
 19 18  1  0
 20 22  1  0
 21 20  2  0
M  END
$$$$
