GYA.pdb
     RDKit          3D

 22 22  0  0  1  0  0  0  0  0999 V2000
    9.5193  -19.8679   19.7108 N   0  0  0  0  0  0  0  0  0  0  0  0
    8.7054  -19.1279   20.6232 C   0  0  0  0  0  0  0  0  0  0  0  0
    9.4672  -18.0005   21.2611 C   0  0  0  0  0  0  0  0  0  0  0  0
   10.6949  -17.9059   21.0565 O   0  0  0  0  0  0  0  0  0  0  0  0
    6.3867  -12.3548   18.4835 O   0  0  0  0  0  0  0  0  0  0  0  0
    6.9237  -12.9659   19.6165 C   0  0  0  0  0  0  0  0  0  0  0  0
    6.2233  -13.9739   20.2669 C   0  0  0  0  0  0  0  0  0  0  0  0
    6.8098  -14.5365   21.3807 C   0  0  0  0  0  0  0  0  0  0  0  0
    8.0407  -14.1451   21.8645 C   0  0  0  0  0  0  0  0  0  0  0  0
    8.5702  -14.8184   23.0650 C   0  0  0  0  0  0  0  0  0  0  0  0
    9.5383  -15.9362   22.7144 C   0  0  2  0  0  0  0  0  0  0  0  0
    8.8448  -17.0417   22.0852 N   0  0  0  0  0  0  0  0  0  0  0  0
   10.0729  -16.4135   24.0443 C   0  0  0  0  0  0  0  0  0  0  0  0
    9.2457  -16.7943   24.9103 O   0  0  0  0  0  0  0  0  0  0  0  0
    8.7312  -13.1371   21.2066 C   0  0  0  0  0  0  0  0  0  0  0  0
    8.1478  -12.5762   20.0972 C   0  0  0  0  0  0  0  0  0  0  0  0
   11.7358  -18.7138   25.1643 C   0  0  0  0  0  0  0  0  0  0  0  0
   12.0800  -17.2499   25.2593 C   0  0  2  0  0  0  0  0  0  0  0  0
   11.4536  -16.4221   24.2807 N   0  0  0  0  0  0  0  0  0  0  0  0
   13.5403  -17.0009   25.3542 C   0  0  0  0  0  0  0  0  0  0  0  0
   14.3118  -17.3348   26.2460 O   0  0  0  0  0  0  0  0  0  0  0  0
   14.1041  -16.2884   24.2762 O   0  0  0  0  0  0  0  0  0  0  0  0
  1  2  1  0
  2  3  1  0
  3 12  1  0
  3  4  2  0
  6  5  1  0
  7  6  2  0
  8  7  1  0
  9  8  2  0
  9 15  1  0
 10  9  1  0
 11 10  1  1
 11 13  1  0
 12 11  1  0
 13 19  1  0
 14 13  2  0
 15 16  2  0
 16  6  1  0
 18 20  1  0
 18 17  1  6
 19 18  1  0
 20 22  1  0
 21 20  2  0
M  END
$$$$
