GYA.pdb
     RDKit          3D

 22 22  0  0  1  0  0  0  0  0999 V2000
    5.0306  -19.5267   20.6107 N   0  0  0  0  0  0  0  0  0  0  0  0
    4.8127  -18.3628   21.4109 C   0  0  0  0  0  0  0  0  0  0  0  0
    6.0678  -17.9263   22.1127 C   0  0  0  0  0  0  0  0  0  0  0  0
    7.0476  -18.6992   22.1397 O   0  0  0  0  0  0  0  0  0  0  0  0
    8.7319  -12.5573   18.3494 O   0  0  0  0  0  0  0  0  0  0  0  0
    8.4121  -13.0815   19.6018 C   0  0  0  0  0  0  0  0  0  0  0  0
    9.4178  -13.5060   20.4608 C   0  0  0  0  0  0  0  0  0  0  0  0
    9.0343  -14.0141   21.6838 C   0  0  0  0  0  0  0  0  0  0  0  0
    7.7170  -14.1153   22.0796 C   0  0  0  0  0  0  0  0  0  0  0  0
    7.4247  -14.6755   23.4121 C   0  0  0  0  0  0  0  0  0  0  0  0
    7.3824  -16.1946   23.3978 C   0  0  2  0  0  0  0  0  0  0  0  0
    6.1806  -16.6717   22.7444 N   0  0  0  0  0  0  0  0  0  0  0  0
    7.3139  -16.5915   24.8539 C   0  0  0  0  0  0  0  0  0  0  0  0
    6.3051  -16.2383   25.5147 O   0  0  0  0  0  0  0  0  0  0  0  0
    6.7208  -13.6880   21.2131 C   0  0  0  0  0  0  0  0  0  0  0  0
    7.1019  -13.1817   19.9948 C   0  0  0  0  0  0  0  0  0  0  0  0
    7.6341  -19.1731   26.9094 C   0  0  0  0  0  0  0  0  0  0  0  0
    8.3210  -17.8404   26.7591 C   0  0  2  0  0  0  0  0  0  0  0  0
    8.3563  -17.3311   25.4270 N   0  0  0  0  0  0  0  0  0  0  0  0
    9.6527  -17.7956   27.4133 C   0  0  0  0  0  0  0  0  0  0  0  0
    9.9441  -18.0962   28.5651 O   0  0  0  0  0  0  0  0  0  0  0  0
   10.7127  -17.3491   26.5981 O   0  0  0  0  0  0  0  0  0  0  0  0
  1  2  1  0
  2  3  1  0
  3 12  1  0
  3  4  2  0
  6  5  1  0
  7  6  2  0
  8  7  1  0
  9  8  2  0
  9 15  1  0
 10  9  1  0
 11 10  1  1
 11 13  1  0
 12 11  1  0
 13 19  1  0
 14 13  2  0
 15 16  2  0
 16  6  1  0
 18 20  1  0
 18 17  1  6
 19 18  1  0
 20 22  1  0
 21 20  2  0
M  END
$$$$
