GYA.pdb
     RDKit          3D

 22 22  0  0  1  0  0  0  0  0999 V2000
    8.4686  -19.9717   19.4735 N   0  0  0  0  0  0  0  0  0  0  0  0
    7.8028  -19.1916   20.4688 C   0  0  0  0  0  0  0  0  0  0  0  0
    8.7325  -18.2051   21.1175 C   0  0  0  0  0  0  0  0  0  0  0  0
    9.9495  -18.2475   20.8427 O   0  0  0  0  0  0  0  0  0  0  0  0
    7.5126  -12.2361   18.0797 O   0  0  0  0  0  0  0  0  0  0  0  0
    7.7440  -12.9091   19.2793 C   0  0  0  0  0  0  0  0  0  0  0  0
    8.9962  -12.8616   19.8786 C   0  0  0  0  0  0  0  0  0  0  0  0
    9.1587  -13.5485   21.0630 C   0  0  0  0  0  0  0  0  0  0  0  0
    8.1460  -14.2667   21.6640 C   0  0  0  0  0  0  0  0  0  0  0  0
    8.4350  -14.9628   22.9316 C   0  0  0  0  0  0  0  0  0  0  0  0
    9.1456  -16.2875   22.7082 C   0  0  2  0  0  0  0  0  0  0  0  0
    8.2802  -17.2296   22.0283 N   0  0  0  0  0  0  0  0  0  0  0  0
    9.4172  -16.8175   24.0966 C   0  0  0  0  0  0  0  0  0  0  0  0
    8.4468  -17.2657   24.7572 O   0  0  0  0  0  0  0  0  0  0  0  0
    6.8992  -14.3069   21.0561 C   0  0  0  0  0  0  0  0  0  0  0  0
    6.7366  -13.6231   19.8764 C   0  0  0  0  0  0  0  0  0  0  0  0
   10.9636  -19.2276   25.0040 C   0  0  0  0  0  0  0  0  0  0  0  0
   11.2481  -17.8187   25.4565 C   0  0  2  0  0  0  0  0  0  0  0  0
   10.7205  -16.7990   24.6097 N   0  0  0  0  0  0  0  0  0  0  0  0
   12.6775  -17.5914   25.7862 C   0  0  0  0  0  0  0  0  0  0  0  0
   13.5511  -17.0997   25.0812 O   0  0  0  0  0  0  0  0  0  0  0  0
   13.0724  -17.9957   27.0777 O   0  0  0  0  0  0  0  0  0  0  0  0
  1  2  1  0
  2  3  1  0
  3 12  1  0
  3  4  2  0
  6  5  1  0
  7  6  2  0
  8  7  1  0
  9  8  2  0
  9 15  1  0
 10  9  1  0
 11 10  1  1
 11 13  1  0
 12 11  1  0
 13 19  1  0
 14 13  2  0
 15 16  2  0
 16  6  1  0
 18 20  1  0
 18 17  1  6
 19 18  1  0
 20 22  1  0
 21 20  2  0
M  END
$$$$
