GYA.pdb
     RDKit          3D

 22 22  0  0  1  0  0  0  0  0999 V2000
    9.7220  -17.1073   18.1157 N   0  0  0  0  0  0  0  0  0  0  0  0
    8.7118  -17.3153   19.1050 C   0  0  0  0  0  0  0  0  0  0  0  0
    8.9548  -16.4835   20.3327 C   0  0  0  0  0  0  0  0  0  0  0  0
   10.1164  -16.1048   20.5886 O   0  0  0  0  0  0  0  0  0  0  0  0
    7.3294  -11.9907   27.8029 O   0  0  0  0  0  0  0  0  0  0  0  0
    7.1916  -12.7082   26.6147 C   0  0  0  0  0  0  0  0  0  0  0  0
    6.5899  -13.9602   26.6186 C   0  0  0  0  0  0  0  0  0  0  0  0
    6.4849  -14.6168   25.4107 C   0  0  0  0  0  0  0  0  0  0  0  0
    6.9449  -14.0891   24.2223 C   0  0  0  0  0  0  0  0  0  0  0  0
    6.7784  -14.8823   22.9902 C   0  0  0  0  0  0  0  0  0  0  0  0
    8.1102  -15.3462   22.4236 C   0  0  2  0  0  0  0  0  0  0  0  0
    7.9160  -16.1132   21.2099 N   0  0  0  0  0  0  0  0  0  0  0  0
    8.6758  -16.2697   23.4768 C   0  0  0  0  0  0  0  0  0  0  0  0
    8.0461  -17.3261   23.7348 O   0  0  0  0  0  0  0  0  0  0  0  0
    7.5442  -12.8375   24.2307 C   0  0  0  0  0  0  0  0  0  0  0  0
    7.6493  -12.1829   25.4333 C   0  0  0  0  0  0  0  0  0  0  0  0
   12.0773  -16.8788   24.7182 C   0  0  0  0  0  0  0  0  0  0  0  0
   10.5908  -16.8434   24.9627 C   0  0  2  0  0  0  0  0  0  0  0  0
    9.8682  -15.9362   24.1320 N   0  0  0  0  0  0  0  0  0  0  0  0
   10.2409  -16.6920   26.3973 C   0  0  0  0  0  0  0  0  0  0  0  0
   10.1539  -17.5637   27.2544 O   0  0  0  0  0  0  0  0  0  0  0  0
    9.9762  -15.3733   26.8198 O   0  0  0  0  0  0  0  0  0  0  0  0
  1  2  1  0
  2  3  1  0
  3 12  1  0
  3  4  2  0
  6  5  1  0
  7  6  2  0
  8  7  1  0
  9  8  2  0
  9 15  1  0
 10  9  1  0
 11 10  1  1
 11 13  1  0
 12 11  1  0
 13 19  1  0
 14 13  2  0
 15 16  2  0
 16  6  1  0
 18 20  1  0
 18 17  1  1
 19 18  1  0
 20 22  1  0
 21 20  2  0
M  END
$$$$
