GYA.pdb
     RDKit          3D

 22 22  0  0  1  0  0  0  0  0999 V2000
    5.0400  -19.3231   20.4733 N   0  0  0  0  0  0  0  0  0  0  0  0
    4.8256  -18.2919   21.4393 C   0  0  0  0  0  0  0  0  0  0  0  0
    6.1197  -17.7911   22.0162 C   0  0  0  0  0  0  0  0  0  0  0  0
    7.1658  -18.4414   21.8139 O   0  0  0  0  0  0  0  0  0  0  0  0
    8.6040  -12.7960   18.0659 O   0  0  0  0  0  0  0  0  0  0  0  0
    8.3215  -13.2394   19.3579 C   0  0  0  0  0  0  0  0  0  0  0  0
    7.0067  -13.4472   19.7550 C   0  0  0  0  0  0  0  0  0  0  0  0
    6.7958  -13.8858   21.0451 C   0  0  0  0  0  0  0  0  0  0  0  0
    7.8195  -14.1215   21.9388 C   0  0  0  0  0  0  0  0  0  0  0  0
    7.4750  -14.5895   23.2943 C   0  0  0  0  0  0  0  0  0  0  0  0
    7.4163  -16.1058   23.3789 C   0  0  2  0  0  0  0  0  0  0  0  0
    6.1969  -16.6097   22.7804 N   0  0  0  0  0  0  0  0  0  0  0  0
    7.3722  -16.4073   24.8585 C   0  0  0  0  0  0  0  0  0  0  0  0
    6.2751  -16.2712   25.4558 O   0  0  0  0  0  0  0  0  0  0  0  0
    9.1290  -13.9105   21.5309 C   0  0  0  0  0  0  0  0  0  0  0  0
    9.3399  -13.4736   20.2462 C   0  0  0  0  0  0  0  0  0  0  0  0
    7.7181  -18.9045   26.5818 C   0  0  0  0  0  0  0  0  0  0  0  0
    8.5209  -17.6345   26.6966 C   0  0  2  0  0  0  0  0  0  0  0  0
    8.5331  -16.8248   25.5221 N   0  0  0  0  0  0  0  0  0  0  0  0
    9.8842  -17.8556   27.2407 C   0  0  0  0  0  0  0  0  0  0  0  0
   10.2021  -18.3384   28.3214 O   0  0  0  0  0  0  0  0  0  0  0  0
   10.9434  -17.4562   26.4003 O   0  0  0  0  0  0  0  0  0  0  0  0
  1  2  1  0
  2  3  1  0
  3 12  1  0
  3  4  2  0
  6  5  1  0
  7  6  2  0
  8  7  1  0
  9  8  2  0
  9 15  1  0
 10  9  1  0
 11 10  1  1
 11 13  1  0
 12 11  1  0
 13 19  1  0
 14 13  2  0
 15 16  2  0
 16  6  1  0
 18 20  1  0
 18 17  1  6
 19 18  1  0
 20 22  1  0
 21 20  2  0
M  END
$$$$
