GYA.pdb
     RDKit          3D

 22 22  0  0  1  0  0  0  0  0999 V2000
   10.3345  -17.1074   18.6592 N   0  0  0  0  0  0  0  0  0  0  0  0
    9.1841  -17.2409   19.4965 C   0  0  0  0  0  0  0  0  0  0  0  0
    9.3306  -16.4617   20.7731 C   0  0  0  0  0  0  0  0  0  0  0  0
   10.4710  -16.2879   21.2501 O   0  0  0  0  0  0  0  0  0  0  0  0
    7.1371  -11.7667   27.9678 O   0  0  0  0  0  0  0  0  0  0  0  0
    7.0938  -12.4722   26.7653 C   0  0  0  0  0  0  0  0  0  0  0  0
    6.3343  -13.6305   26.6600 C   0  0  0  0  0  0  0  0  0  0  0  0
    6.3345  -14.2803   25.4440 C   0  0  0  0  0  0  0  0  0  0  0  0
    7.0455  -13.8337   24.3497 C   0  0  0  0  0  0  0  0  0  0  0  0
    6.9709  -14.6108   23.0985 C   0  0  0  0  0  0  0  0  0  0  0  0
    8.3116  -15.2191   22.7214 C   0  0  2  0  0  0  0  0  0  0  0  0
    8.2241  -15.9173   21.4551 N   0  0  0  0  0  0  0  0  0  0  0  0
    8.5890  -16.2385   23.8012 C   0  0  0  0  0  0  0  0  0  0  0  0
    7.8176  -17.2264   23.8920 O   0  0  0  0  0  0  0  0  0  0  0  0
    7.8007  -12.6754   24.4667 C   0  0  0  0  0  0  0  0  0  0  0  0
    7.8011  -12.0275   25.6776 C   0  0  0  0  0  0  0  0  0  0  0  0
   11.2930  -17.8049   25.3586 C   0  0  0  0  0  0  0  0  0  0  0  0
   10.0495  -17.0111   25.6652 C   0  0  2  0  0  0  0  0  0  0  0  0
    9.6797  -16.0655   24.6629 N   0  0  0  0  0  0  0  0  0  0  0  0
   10.0612  -16.4138   27.0241 C   0  0  0  0  0  0  0  0  0  0  0  0
    9.9029  -15.2403   27.3398 O   0  0  0  0  0  0  0  0  0  0  0  0
   10.2835  -17.3195   28.0813 O   0  0  0  0  0  0  0  0  0  0  0  0
  1  2  1  0
  2  3  1  0
  3 12  1  0
  3  4  2  0
  6  5  1  0
  7  6  2  0
  8  7  1  0
  9  8  2  0
  9 15  1  0
 10  9  1  0
 11 10  1  1
 11 13  1  0
 12 11  1  0
 13 19  1  0
 14 13  2  0
 15 16  2  0
 16  6  1  0
 18 20  1  0
 18 17  1  6
 19 18  1  0
 20 22  1  0
 21 20  2  0
M  END
$$$$
