GYA.pdb
     RDKit          3D

 22 22  0  0  1  0  0  0  0  0999 V2000
    5.6122  -16.1574   19.9784 N   0  0  0  0  0  0  0  0  0  0  0  0
    5.7303  -16.7151   21.2888 C   0  0  0  0  0  0  0  0  0  0  0  0
    6.8714  -16.1052   22.0532 C   0  0  0  0  0  0  0  0  0  0  0  0
    7.6246  -15.2951   21.4747 O   0  0  0  0  0  0  0  0  0  0  0  0
    6.2902  -10.4093   26.8455 O   0  0  0  0  0  0  0  0  0  0  0  0
    6.6700  -11.7178   26.5470 C   0  0  0  0  0  0  0  0  0  0  0  0
    7.9734  -11.9966   26.1559 C   0  0  0  0  0  0  0  0  0  0  0  0
    8.2838  -13.3104   25.8751 C   0  0  0  0  0  0  0  0  0  0  0  0
    7.3683  -14.3381   25.9658 C   0  0  0  0  0  0  0  0  0  0  0  0
    7.8133  -15.7060   25.6408 C   0  0  0  0  0  0  0  0  0  0  0  0
    8.2085  -15.8478   24.1802 C   0  0  2  0  0  0  0  0  0  0  0  0
    7.1242  -16.4148   23.4045 N   0  0  0  0  0  0  0  0  0  0  0  0
    9.3498  -16.8375   24.1846 C   0  0  0  0  0  0  0  0  0  0  0  0
    9.0954  -18.0300   24.4887 O   0  0  0  0  0  0  0  0  0  0  0  0
    6.0692  -14.0475   26.3575 C   0  0  0  0  0  0  0  0  0  0  0  0
    5.7592  -12.7393   26.6373 C   0  0  0  0  0  0  0  0  0  0  0  0
   12.8329  -16.8473   22.7914 C   0  0  0  0  0  0  0  0  0  0  0  0
   11.7580  -17.2987   23.7460 C   0  0  2  0  0  0  0  0  0  0  0  0
   10.6440  -16.4142   23.8559 N   0  0  0  0  0  0  0  0  0  0  0  0
   12.2895  -17.7002   25.0726 C   0  0  0  0  0  0  0  0  0  0  0  0
   12.2262  -17.0894   26.1332 O   0  0  0  0  0  0  0  0  0  0  0  0
   12.9504  -18.9450   25.1082 O   0  0  0  0  0  0  0  0  0  0  0  0
  1  2  1  0
  2  3  1  0
  3 12  1  0
  3  4  2  0
  6  5  1  0
  7  6  2  0
  8  7  1  0
  9  8  2  0
  9 15  1  0
 10  9  1  0
 11 10  1  1
 11 13  1  0
 12 11  1  0
 13 19  1  0
 14 13  2  0
 15 16  2  0
 16  6  1  0
 18 20  1  0
 18 17  1  6
 19 18  1  0
 20 22  1  0
 21 20  2  0
M  END
$$$$
