GYA.pdb
     RDKit          3D

 22 22  0  0  1  0  0  0  0  0999 V2000
    9.9547  -16.7235   18.2052 N   0  0  0  0  0  0  0  0  0  0  0  0
    8.7714  -16.7582   19.0059 C   0  0  0  0  0  0  0  0  0  0  0  0
    8.9902  -16.1250   20.3511 C   0  0  0  0  0  0  0  0  0  0  0  0
   10.1577  -15.9197   20.7421 O   0  0  0  0  0  0  0  0  0  0  0  0
    7.3709  -11.8227   27.8768 O   0  0  0  0  0  0  0  0  0  0  0  0
    7.2221  -12.4923   26.6622 C   0  0  0  0  0  0  0  0  0  0  0  0
    7.6988  -11.9253   25.4871 C   0  0  0  0  0  0  0  0  0  0  0  0
    7.5199  -12.6388   24.3209 C   0  0  0  0  0  0  0  0  0  0  0  0
    6.8983  -13.8692   24.2768 C   0  0  0  0  0  0  0  0  0  0  0  0
    6.7627  -14.5414   22.9711 C   0  0  0  0  0  0  0  0  0  0  0  0
    8.0855  -15.1019   22.4755 C   0  0  2  0  0  0  0  0  0  0  0  0
    7.9221  -15.7525   21.1914 N   0  0  0  0  0  0  0  0  0  0  0  0
    8.4617  -16.1554   23.4908 C   0  0  0  0  0  0  0  0  0  0  0  0
    7.7447  -17.1846   23.5662 O   0  0  0  0  0  0  0  0  0  0  0  0
    6.4261  -14.4257   25.4570 C   0  0  0  0  0  0  0  0  0  0  0  0
    6.6039  -13.7158   26.6190 C   0  0  0  0  0  0  0  0  0  0  0  0
   11.3762  -17.5774   24.8568 C   0  0  0  0  0  0  0  0  0  0  0  0
   10.0582  -16.9496   25.2299 C   0  0  2  0  0  0  0  0  0  0  0  0
    9.5809  -15.9674   24.3119 N   0  0  0  0  0  0  0  0  0  0  0  0
   10.0187  -16.4717   26.6348 C   0  0  0  0  0  0  0  0  0  0  0  0
    9.7740  -15.3439   27.0473 O   0  0  0  0  0  0  0  0  0  0  0  0
   10.2999  -17.4464   27.6137 O   0  0  0  0  0  0  0  0  0  0  0  0
  1  2  1  0
  2  3  1  0
  3 12  1  0
  3  4  2  0
  6  5  1  0
  7  6  2  0
  8  7  1  0
  9  8  2  0
  9 15  1  0
 10  9  1  0
 11 10  1  1
 11 13  1  0
 12 11  1  0
 13 19  1  0
 14 13  2  0
 15 16  2  0
 16  6  1  0
 18 20  1  0
 18 17  1  6
 19 18  1  0
 20 22  1  0
 21 20  2  0
M  END
$$$$
