GYA.pdb
     RDKit          3D

 22 22  0  0  1  0  0  0  0  0999 V2000
    7.0874  -20.1052   19.9987 N   0  0  0  0  0  0  0  0  0  0  0  0
    6.9656  -19.1829   21.0836 C   0  0  0  0  0  0  0  0  0  0  0  0
    8.1397  -18.2476   21.1543 C   0  0  0  0  0  0  0  0  0  0  0  0
    9.1246  -18.4536   20.4155 O   0  0  0  0  0  0  0  0  0  0  0  0
    6.6724  -12.2928   17.8157 O   0  0  0  0  0  0  0  0  0  0  0  0
    7.1899  -12.9145   18.9521 C   0  0  0  0  0  0  0  0  0  0  0  0
    6.3371  -13.4928   19.8836 C   0  0  0  0  0  0  0  0  0  0  0  0
    6.9126  -14.0911   20.9844 C   0  0  0  0  0  0  0  0  0  0  0  0
    8.2753  -14.1367   21.1925 C   0  0  0  0  0  0  0  0  0  0  0  0
    8.7786  -14.8042   22.4074 C   0  0  0  0  0  0  0  0  0  0  0  0
    9.2772  -16.2114   22.1229 C   0  0  2  0  0  0  0  0  0  0  0  0
    8.1709  -17.1418   22.0273 N   0  0  0  0  0  0  0  0  0  0  0  0
   10.0981  -16.5814   23.3359 C   0  0  0  0  0  0  0  0  0  0  0  0
    9.5561  -16.4881   24.4658 O   0  0  0  0  0  0  0  0  0  0  0  0
    9.1175  -13.5556   20.2551 C   0  0  0  0  0  0  0  0  0  0  0  0
    8.5452  -12.9595   19.1583 C   0  0  0  0  0  0  0  0  0  0  0  0
   12.5001  -18.9137   24.3358 C   0  0  0  0  0  0  0  0  0  0  0  0
   12.2475  -17.4298   24.2657 C   0  0  2  0  0  0  0  0  0  0  0  0
   11.4215  -17.0131   23.1797 N   0  0  0  0  0  0  0  0  0  0  0  0
   13.4892  -16.6230   24.3689 C   0  0  0  0  0  0  0  0  0  0  0  0
   14.0002  -15.9026   23.5193 O   0  0  0  0  0  0  0  0  0  0  0  0
   14.1607  -16.7012   25.6061 O   0  0  0  0  0  0  0  0  0  0  0  0
  1  2  1  0
  2  3  1  0
  3 12  1  0
  3  4  2  0
  6  5  1  0
  7  6  2  0
  8  7  1  0
  9  8  2  0
  9 15  1  0
 10  9  1  0
 11 10  1  1
 11 13  1  0
 12 11  1  0
 13 19  1  0
 14 13  2  0
 15 16  2  0
 16  6  1  0
 18 20  1  0
 18 17  1  6
 19 18  1  0
 20 22  1  0
 21 20  2  0
M  END
$$$$
