WNM.pdb
     RDKit          3D

 31 32  0  0  1  0  0  0  0  0999 V2000
    6.9819  -17.9581   23.6877 N   0  0  0  0  0  0  0  0  0  0  0  0
    8.0266  -16.9170   23.5827 C   0  0  1  0  0  0  0  0  0  0  0  0
    8.1945  -16.3935   24.9777 C   0  0  0  0  0  0  0  0  0  0  0  0
    7.1947  -15.3933   25.3885 C   0  0  0  0  0  0  0  0  0  0  0  0
    6.0313  -15.7009   26.1168 C   0  0  0  0  0  0  0  0  0  0  0  0
    5.3525  -14.5770   26.3722 N   0  0  0  0  0  0  0  0  0  0  0  0
    6.0009  -13.5187   25.8499 C   0  0  0  0  0  0  0  0  0  0  0  0
    5.7154  -12.1615   25.8247 C   0  0  0  0  0  0  0  0  0  0  0  0
    6.5637  -11.2950   25.1895 C   0  0  0  0  0  0  0  0  0  0  0  0
    7.6965  -11.7899   24.5804 C   0  0  0  0  0  0  0  0  0  0  0  0
    7.9740  -13.1436   24.6105 C   0  0  0  0  0  0  0  0  0  0  0  0
    7.1317  -14.0264   25.2463 C   0  0  0  0  0  0  0  0  0  0  0  0
    9.2743  -17.4855   23.0586 C   0  0  0  0  0  0  0  0  0  0  0  0
    9.5357  -18.7157   23.0707 O   0  0  0  0  0  0  0  0  0  0  0  0
   11.7206  -17.2654   19.2479 N   0  0  0  0  0  0  0  0  0  0  0  0
   11.8121  -16.1144   20.0940 C   0  0  0  0  0  0  0  0  0  0  0  0
   11.3455  -15.0493   19.6183 O   0  0  0  0  0  0  0  0  0  0  0  0
   12.4265  -16.2109   21.4429 C   0  0  0  0  0  0  0  0  0  0  0  0
   11.6454  -17.1169   22.3624 C   0  0  2  0  0  0  0  0  0  0  0  0
   10.3047  -16.6510   22.4853 N   0  0  0  0  0  0  0  0  0  0  0  0
   12.3622  -17.1336   23.6756 C   0  0  0  0  0  0  0  0  0  0  0  0
   13.6055  -17.2706   23.6409 O   0  0  0  0  0  0  0  0  0  0  0  0
   10.3478  -12.5246   28.1753 C   0  0  0  0  0  0  0  0  0  0  0  0
   10.7680  -14.2324   28.5118 S   0  0  0  0  0  0  0  0  0  0  0  0
   11.6041  -15.0283   27.1059 C   0  0  0  0  0  0  0  0  0  0  0  0
   11.7670  -16.4863   27.2942 C   0  0  0  0  0  0  0  0  0  0  0  0
   12.4983  -17.1256   26.1642 C   0  0  2  0  0  0  0  0  0  0  0  0
   11.7119  -17.0044   24.9191 N   0  0  0  0  0  0  0  0  0  0  0  0
   12.6514  -18.5748   26.4165 C   0  0  0  0  0  0  0  0  0  0  0  0
   13.5499  -18.9735   27.4224 O   0  0  0  0  0  0  0  0  0  0  0  0
   12.0161  -19.4699   25.7743 O   0  0  0  0  0  0  0  0  0  0  0  0
  2  1  1  1
  2 13  1  0
  2  3  1  0
  3  4  1  0
  4  5  2  0
  6  5  1  0
  7  6  1  0
  8  7  2  0
  9  8  1  0
 10 11  1  0
 10  9  2  0
 11 12  2  0
 12  7  1  0
 12  4  1  0
 13 14  2  0
 15 16  1  0
 16 17  2  0
 19 18  1  6
 18 16  1  0
 20 19  1  0
 20 13  1  0
 21 19  1  0
 22 21  2  0
 23 24  1  0
 24 25  1  0
 25 26  1  0
 27 26  1  1
 27 28  1  0
 28 21  1  0
 29 30  1  0
 29 27  1  0
 31 29  2  0
M  END
$$$$
