WNM.pdb
     RDKit          3D

 31 32  0  0  1  0  0  0  0  0999 V2000
    6.6647  -18.2268   22.7626 N   0  0  0  0  0  0  0  0  0  0  0  0
    7.5536  -17.1752   23.3014 C   0  0  1  0  0  0  0  0  0  0  0  0
    7.2510  -17.1258   24.7692 C   0  0  0  0  0  0  0  0  0  0  0  0
    6.7054  -15.8439   25.2464 C   0  0  0  0  0  0  0  0  0  0  0  0
    5.5576  -15.7314   26.0516 C   0  0  0  0  0  0  0  0  0  0  0  0
    5.3455  -14.4454   26.3521 N   0  0  0  0  0  0  0  0  0  0  0  0
    6.2965  -13.6776   25.7870 C   0  0  0  0  0  0  0  0  0  0  0  0
    6.5169  -12.3081   25.7810 C   0  0  0  0  0  0  0  0  0  0  0  0
    7.5780  -11.7883   25.0898 C   0  0  0  0  0  0  0  0  0  0  0  0
    8.4164  -12.6416   24.4057 C   0  0  0  0  0  0  0  0  0  0  0  0
    8.1903  -14.0051   24.4172 C   0  0  0  0  0  0  0  0  0  0  0  0
    7.1290  -14.5423   25.1085 C   0  0  0  0  0  0  0  0  0  0  0  0
    8.9609  -17.5040   23.0444 C   0  0  0  0  0  0  0  0  0  0  0  0
    9.4088  -18.6791   23.0356 O   0  0  0  0  0  0  0  0  0  0  0  0
   14.0533  -16.7914   21.1049 N   0  0  0  0  0  0  0  0  0  0  0  0
   13.5678  -15.9094   22.1225 C   0  0  0  0  0  0  0  0  0  0  0  0
   14.4399  -15.4258   22.8866 O   0  0  0  0  0  0  0  0  0  0  0  0
   12.1178  -15.6086   22.2375 C   0  0  0  0  0  0  0  0  0  0  0  0
   11.3367  -16.7704   22.8001 C   0  0  2  0  0  0  0  0  0  0  0  0
    9.9426  -16.4775   22.7816 N   0  0  0  0  0  0  0  0  0  0  0  0
   11.8466  -17.0126   24.1858 C   0  0  0  0  0  0  0  0  0  0  0  0
   13.0272  -17.4129   24.2932 O   0  0  0  0  0  0  0  0  0  0  0  0
    9.2722  -12.6179   27.6191 C   0  0  0  0  0  0  0  0  0  0  0  0
   10.4092  -13.6317   28.5602 S   0  0  0  0  0  0  0  0  0  0  0  0
   11.3896  -14.7375   27.4995 C   0  0  0  0  0  0  0  0  0  0  0  0
   11.0399  -16.1623   27.6886 C   0  0  0  0  0  0  0  0  0  0  0  0
   11.6816  -17.0431   26.6724 C   0  0  2  0  0  0  0  0  0  0  0  0
   11.0721  -16.8134   25.3461 N   0  0  0  0  0  0  0  0  0  0  0  0
   11.4295  -18.4626   27.0024 C   0  0  0  0  0  0  0  0  0  0  0  0
   12.0178  -18.9780   28.1713 O   0  0  0  0  0  0  0  0  0  0  0  0
   10.7134  -19.2328   26.2876 O   0  0  0  0  0  0  0  0  0  0  0  0
  2  1  1  6
  2 13  1  0
  2  3  1  0
  3  4  1  0
  4  5  2  0
  6  5  1  0
  7  6  1  0
  8  7  2  0
  9  8  1  0
 10 11  1  0
 10  9  2  0
 11 12  2  0
 12  7  1  0
 12  4  1  0
 13 14  2  0
 15 16  1  0
 16 17  2  0
 19 18  1  1
 18 16  1  0
 20 19  1  0
 20 13  1  0
 21 19  1  0
 22 21  2  0
 23 24  1  0
 24 25  1  0
 25 26  1  0
 27 26  1  1
 27 28  1  0
 28 21  1  0
 29 30  1  0
 29 27  1  0
 31 29  2  0
M  END
$$$$
