WNM.pdb
     RDKit          3D

 31 32  0  0  1  0  0  0  0  0999 V2000
    6.5639  -17.8155   24.0715 N   0  0  0  0  0  0  0  0  0  0  0  0
    7.7642  -16.9643   23.9268 C   0  0  1  0  0  0  0  0  0  0  0  0
    7.9130  -16.2748   25.2500 C   0  0  0  0  0  0  0  0  0  0  0  0
    7.0211  -15.1203   25.4506 C   0  0  0  0  0  0  0  0  0  0  0  0
    5.9256  -15.1196   26.3328 C   0  0  0  0  0  0  0  0  0  0  0  0
    5.3431  -13.9156   26.3228 N   0  0  0  0  0  0  0  0  0  0  0  0
    5.9920  -13.0972   25.4729 C   0  0  0  0  0  0  0  0  0  0  0  0
    5.7836  -11.7787   25.0957 C   0  0  0  0  0  0  0  0  0  0  0  0
    6.6080  -11.1917   24.1739 C   0  0  0  0  0  0  0  0  0  0  0  0
    7.6398  -11.9269   23.6316 C   0  0  0  0  0  0  0  0  0  0  0  0
    7.8411  -13.2400   24.0132 C   0  0  0  0  0  0  0  0  0  0  0  0
    7.0217  -13.8429   24.9395 C   0  0  0  0  0  0  0  0  0  0  0  0
    8.9409  -17.7786   23.5997 C   0  0  0  0  0  0  0  0  0  0  0  0
    9.0783  -18.9759   23.9593 O   0  0  0  0  0  0  0  0  0  0  0  0
   10.1191  -16.4502   20.5467 N   0  0  0  0  0  0  0  0  0  0  0  0
   11.4867  -16.2944   20.9397 C   0  0  0  0  0  0  0  0  0  0  0  0
   12.0405  -15.2269   20.5763 O   0  0  0  0  0  0  0  0  0  0  0  0
   12.1750  -17.3493   21.7270 C   0  0  0  0  0  0  0  0  0  0  0  0
   11.3304  -17.8487   22.8732 C   0  0  2  0  0  0  0  0  0  0  0  0
   10.0405  -17.2454   22.8295 N   0  0  0  0  0  0  0  0  0  0  0  0
   12.0658  -17.5234   24.1349 C   0  0  0  0  0  0  0  0  0  0  0  0
   13.0507  -16.7580   24.0356 O   0  0  0  0  0  0  0  0  0  0  0  0
    9.3442  -14.1593   29.2293 C   0  0  0  0  0  0  0  0  0  0  0  0
   10.9713  -14.4971   28.5624 S   0  0  0  0  0  0  0  0  0  0  0  0
   10.9921  -15.9796   27.5085 C   0  0  0  0  0  0  0  0  0  0  0  0
   12.3261  -16.2433   26.9264 C   0  0  0  0  0  0  0  0  0  0  0  0
   12.5198  -17.6796   26.5805 C   0  0  2  0  0  0  0  0  0  0  0  0
   11.7045  -18.0303   25.3992 N   0  0  0  0  0  0  0  0  0  0  0  0
   12.0355  -18.5353   27.6853 C   0  0  0  0  0  0  0  0  0  0  0  0
   12.7590  -18.5204   28.8913 O   0  0  0  0  0  0  0  0  0  0  0  0
   11.0062  -19.2772   27.5990 O   0  0  0  0  0  0  0  0  0  0  0  0
  2  1  1  1
  2 13  1  0
  2  3  1  0
  3  4  1  0
  4  5  2  0
  6  5  1  0
  7  6  1  0
  8  7  2  0
  9  8  1  0
 10 11  1  0
 10  9  2  0
 11 12  2  0
 12  7  1  0
 12  4  1  0
 13 14  2  0
 15 16  1  0
 16 17  2  0
 19 18  1  6
 18 16  1  0
 20 19  1  0
 20 13  1  0
 21 19  1  0
 22 21  2  0
 23 24  1  0
 24 25  1  0
 25 26  1  0
 27 26  1  1
 27 28  1  0
 28 21  1  0
 29 30  1  0
 29 27  1  0
 31 29  2  0
M  END
$$$$
