WNM.pdb
     RDKit          3D

 31 32  0  0  1  0  0  0  0  0999 V2000
    6.0042  -18.4981   22.7759 N   0  0  0  0  0  0  0  0  0  0  0  0
    6.5821  -17.1590   23.0186 C   0  0  1  0  0  0  0  0  0  0  0  0
    6.8197  -17.1011   24.4980 C   0  0  0  0  0  0  0  0  0  0  0  0
    6.1816  -15.9648   25.1838 C   0  0  0  0  0  0  0  0  0  0  0  0
    5.1855  -16.1016   26.1674 C   0  0  0  0  0  0  0  0  0  0  0  0
    4.8413  -14.8938   26.6275 N   0  0  0  0  0  0  0  0  0  0  0  0
    5.5574  -13.9412   26.0007 C   0  0  0  0  0  0  0  0  0  0  0  0
    5.5694  -12.5576   26.0999 C   0  0  0  0  0  0  0  0  0  0  0  0
    6.4076  -11.8214   25.3065 C   0  0  0  0  0  0  0  0  0  0  0  0
    7.2322  -12.4728   24.4151 C   0  0  0  0  0  0  0  0  0  0  0  0
    7.2147  -13.8517   24.3227 C   0  0  0  0  0  0  0  0  0  0  0  0
    6.3789  -14.6050   25.1145 C   0  0  0  0  0  0  0  0  0  0  0  0
    7.8257  -16.9854   22.2583 C   0  0  0  0  0  0  0  0  0  0  0  0
    8.5816  -17.9377   21.9369 O   0  0  0  0  0  0  0  0  0  0  0  0
    7.7603  -12.7624   19.4803 N   0  0  0  0  0  0  0  0  0  0  0  0
    8.5396  -13.9628   19.5098 C   0  0  0  0  0  0  0  0  0  0  0  0
    8.2604  -14.8160   18.6309 O   0  0  0  0  0  0  0  0  0  0  0  0
    9.6025  -14.1529   20.5298 C   0  0  0  0  0  0  0  0  0  0  0  0
    9.5320  -15.5120   21.1812 C   0  0  2  0  0  0  0  0  0  0  0  0
    8.2716  -15.6821   21.8231 N   0  0  0  0  0  0  0  0  0  0  0  0
   10.6744  -15.5975   22.1436 C   0  0  0  0  0  0  0  0  0  0  0  0
   11.8117  -15.3246   21.6989 O   0  0  0  0  0  0  0  0  0  0  0  0
   11.1464  -14.1376   28.8824 C   0  0  0  0  0  0  0  0  0  0  0  0
    9.8848  -14.8131   27.8063 S   0  0  0  0  0  0  0  0  0  0  0  0
   10.4165  -14.8681   26.0675 C   0  0  0  0  0  0  0  0  0  0  0  0
   11.3335  -15.9951   25.7901 C   0  0  0  0  0  0  0  0  0  0  0  0
   11.7254  -16.0667   24.3542 C   0  0  2  0  0  0  0  0  0  0  0  0
   10.5267  -15.9633   23.4965 N   0  0  0  0  0  0  0  0  0  0  0  0
   12.3308  -17.3837   24.0606 C   0  0  0  0  0  0  0  0  0  0  0  0
   11.6185  -18.2601   23.2224 O   0  0  0  0  0  0  0  0  0  0  0  0
   13.4538  -17.7591   24.5245 O   0  0  0  0  0  0  0  0  0  0  0  0
  2  1  1  1
  2 13  1  0
  2  3  1  0
  3  4  1  0
  4  5  2  0
  6  5  1  0
  7  6  1  0
  8  7  2  0
  9  8  1  0
 10 11  1  0
 10  9  2  0
 11 12  2  0
 12  7  1  0
 12  4  1  0
 13 14  2  0
 15 16  1  0
 16 17  2  0
 19 18  1  1
 18 16  1  0
 20 19  1  0
 20 13  1  0
 21 19  1  0
 22 21  2  0
 23 24  1  0
 24 25  1  0
 25 26  1  0
 27 26  1  1
 27 28  1  0
 28 21  1  0
 29 30  1  0
 29 27  1  0
 31 29  2  0
M  END
$$$$
