WNM.pdb
     RDKit          3D

 31 32  0  0  1  0  0  0  0  0999 V2000
    6.1479  -18.1828   23.0675 N   0  0  0  0  0  0  0  0  0  0  0  0
    6.8580  -16.8964   23.2322 C   0  0  1  0  0  0  0  0  0  0  0  0
    7.1158  -16.7811   24.7048 C   0  0  0  0  0  0  0  0  0  0  0  0
    6.4165  -15.6694   25.3709 C   0  0  0  0  0  0  0  0  0  0  0  0
    5.5893  -15.8262   26.4977 C   0  0  0  0  0  0  0  0  0  0  0  0
    5.1380  -14.6304   26.8920 N   0  0  0  0  0  0  0  0  0  0  0  0
    5.6200  -13.6671   26.0840 C   0  0  0  0  0  0  0  0  0  0  0  0
    5.4449  -12.2913   26.0550 C   0  0  0  0  0  0  0  0  0  0  0  0
    6.0559  -11.5437   25.0846 C   0  0  0  0  0  0  0  0  0  0  0  0
    6.8410  -12.1757   24.1448 C   0  0  0  0  0  0  0  0  0  0  0  0
    7.0107  -13.5470   24.1810 C   0  0  0  0  0  0  0  0  0  0  0  0
    6.4044  -14.3114   25.1510 C   0  0  0  0  0  0  0  0  0  0  0  0
    8.1045  -16.8893   22.4571 C   0  0  0  0  0  0  0  0  0  0  0  0
    8.7476  -17.9305   22.1669 O   0  0  0  0  0  0  0  0  0  0  0  0
    8.0947  -12.8936   19.9034 N   0  0  0  0  0  0  0  0  0  0  0  0
    8.9342  -14.0207   19.6313 C   0  0  0  0  0  0  0  0  0  0  0  0
    8.6322  -14.6927   18.6137 O   0  0  0  0  0  0  0  0  0  0  0  0
   10.0809  -14.3446   20.5182 C   0  0  0  0  0  0  0  0  0  0  0  0
    9.9006  -15.6655   21.2247 C   0  0  2  0  0  0  0  0  0  0  0  0
    8.6861  -15.6603   21.9693 N   0  0  0  0  0  0  0  0  0  0  0  0
   11.0996  -15.8639   22.0974 C   0  0  0  0  0  0  0  0  0  0  0  0
   12.2163  -15.8733   21.5328 O   0  0  0  0  0  0  0  0  0  0  0  0
    9.8500  -15.0386   28.9741 C   0  0  0  0  0  0  0  0  0  0  0  0
   11.3017  -14.8477   27.9433 S   0  0  0  0  0  0  0  0  0  0  0  0
   11.1516  -15.7413   26.3660 C   0  0  0  0  0  0  0  0  0  0  0  0
   12.3266  -15.5455   25.4890 C   0  0  0  0  0  0  0  0  0  0  0  0
   12.2519  -16.3685   24.2491 C   0  0  2  0  0  0  0  0  0  0  0  0
   11.0259  -16.0363   23.4942 N   0  0  0  0  0  0  0  0  0  0  0  0
   12.1457  -17.8015   24.5991 C   0  0  0  0  0  0  0  0  0  0  0  0
   13.2636  -18.4159   25.1914 O   0  0  0  0  0  0  0  0  0  0  0  0
   11.1026  -18.4989   24.3927 O   0  0  0  0  0  0  0  0  0  0  0  0
  2  1  1  1
  2 13  1  0
  2  3  1  0
  3  4  1  0
  4  5  2  0
  6  5  1  0
  7  6  1  0
  8  7  2  0
  9  8  1  0
 10 11  1  0
 10  9  2  0
 11 12  2  0
 12  7  1  0
 12  4  1  0
 13 14  2  0
 15 16  1  0
 16 17  2  0
 19 18  1  1
 18 16  1  0
 20 19  1  0
 20 13  1  0
 21 19  1  0
 22 21  2  0
 23 24  1  0
 24 25  1  0
 25 26  1  0
 27 26  1  1
 27 28  1  0
 28 21  1  0
 29 30  1  0
 29 27  1  0
 31 29  2  0
M  END
$$$$
