WNM.pdb
     RDKit          3D

 31 32  0  0  1  0  0  0  0  0999 V2000
    6.9665  -17.3617   23.4207 N   0  0  0  0  0  0  0  0  0  0  0  0
    8.0552  -16.3644   23.5002 C   0  0  1  0  0  0  0  0  0  0  0  0
    8.0654  -15.9142   24.9305 C   0  0  0  0  0  0  0  0  0  0  0  0
    7.0115  -14.9481   25.2834 C   0  0  0  0  0  0  0  0  0  0  0  0
    5.7798  -15.3072   25.8600 C   0  0  0  0  0  0  0  0  0  0  0  0
    5.0601  -14.2059   26.1012 N   0  0  0  0  0  0  0  0  0  0  0  0
    5.7459  -13.1137   25.7139 C   0  0  0  0  0  0  0  0  0  0  0  0
    5.4445  -11.7598   25.7334 C   0  0  0  0  0  0  0  0  0  0  0  0
    6.3444  -10.8509   25.2455 C   0  0  0  0  0  0  0  0  0  0  0  0
    7.5446  -11.3001   24.7389 C   0  0  0  0  0  0  0  0  0  0  0  0
    7.8376  -12.6507   24.7236 C   0  0  0  0  0  0  0  0  0  0  0  0
    6.9439  -13.5759   25.2118 C   0  0  0  0  0  0  0  0  0  0  0  0
    9.3364  -16.9629   23.1066 C   0  0  0  0  0  0  0  0  0  0  0  0
    9.6795  -18.1332   23.4138 O   0  0  0  0  0  0  0  0  0  0  0  0
   10.9899  -18.1483   19.7584 N   0  0  0  0  0  0  0  0  0  0  0  0
   11.7908  -16.9692   19.6265 C   0  0  0  0  0  0  0  0  0  0  0  0
   12.1258  -16.6657   18.4543 O   0  0  0  0  0  0  0  0  0  0  0  0
   12.1820  -16.1797   20.8223 C   0  0  0  0  0  0  0  0  0  0  0  0
   11.6118  -16.7529   22.0962 C   0  0  2  0  0  0  0  0  0  0  0  0
   10.3067  -16.2302   22.3267 N   0  0  0  0  0  0  0  0  0  0  0  0
   12.5635  -16.4074   23.1978 C   0  0  0  0  0  0  0  0  0  0  0  0
   12.8586  -15.1990   23.3334 O   0  0  0  0  0  0  0  0  0  0  0  0
   11.2874  -13.3901   27.9607 C   0  0  0  0  0  0  0  0  0  0  0  0
   11.2404  -15.1384   28.3447 S   0  0  0  0  0  0  0  0  0  0  0  0
   12.5960  -16.0567   27.5523 C   0  0  0  0  0  0  0  0  0  0  0  0
   12.3180  -16.3660   26.1328 C   0  0  0  0  0  0  0  0  0  0  0  0
   13.4956  -16.9626   25.4416 C   0  0  2  0  0  0  0  0  0  0  0  0
   13.1272  -17.3622   24.0676 N   0  0  0  0  0  0  0  0  0  0  0  0
   13.9141  -18.2009   26.1335 C   0  0  0  0  0  0  0  0  0  0  0  0
   13.1614  -19.3665   25.9032 O   0  0  0  0  0  0  0  0  0  0  0  0
   14.9120  -18.2629   26.9193 O   0  0  0  0  0  0  0  0  0  0  0  0
  2  1  1  1
  2 13  1  0
  2  3  1  0
  3  4  1  0
  4  5  2  0
  6  5  1  0
  7  6  1  0
  8  7  2  0
  9  8  1  0
 10 11  1  0
 10  9  2  0
 11 12  2  0
 12  7  1  0
 12  4  1  0
 13 14  2  0
 15 16  1  0
 16 17  2  0
 19 18  1  6
 18 16  1  0
 20 19  1  0
 20 13  1  0
 21 19  1  0
 22 21  2  0
 23 24  1  0
 24 25  1  0
 25 26  1  0
 27 26  1  1
 27 28  1  0
 28 21  1  0
 29 30  1  0
 29 27  1  0
 31 29  2  0
M  END
$$$$
