WNM.pdb
     RDKit          3D

 31 32  0  0  1  0  0  0  0  0999 V2000
    6.8807  -17.7938   22.8008 N   0  0  0  0  0  0  0  0  0  0  0  0
    7.7419  -16.6310   23.1050 C   0  0  1  0  0  0  0  0  0  0  0  0
    7.6686  -16.4727   24.5943 C   0  0  0  0  0  0  0  0  0  0  0  0
    6.7561  -15.4152   25.0607 C   0  0  0  0  0  0  0  0  0  0  0  0
    5.6190  -15.6540   25.8534 C   0  0  0  0  0  0  0  0  0  0  0  0
    5.0252  -14.4919   26.1467 N   0  0  0  0  0  0  0  0  0  0  0  0
    5.7062  -13.4732   25.5884 C   0  0  0  0  0  0  0  0  0  0  0  0
    5.5028  -12.1010   25.5793 C   0  0  0  0  0  0  0  0  0  0  0  0
    6.3650  -11.2855   24.8971 C   0  0  0  0  0  0  0  0  0  0  0  0
    7.4295  -11.8462   24.2252 C   0  0  0  0  0  0  0  0  0  0  0  0
    7.6256  -13.2143   24.2397 C   0  0  0  0  0  0  0  0  0  0  0  0
    6.7684  -14.0464   24.9221 C   0  0  0  0  0  0  0  0  0  0  0  0
    9.1161  -16.8698   22.6479 C   0  0  0  0  0  0  0  0  0  0  0  0
    9.4141  -17.6917   21.7439 O   0  0  0  0  0  0  0  0  0  0  0  0
   14.0930  -17.0269   21.0658 N   0  0  0  0  0  0  0  0  0  0  0  0
   13.7738  -16.0271   22.0393 C   0  0  0  0  0  0  0  0  0  0  0  0
   14.7485  -15.5551   22.6762 O   0  0  0  0  0  0  0  0  0  0  0  0
   12.3677  -15.5999   22.2555 C   0  0  0  0  0  0  0  0  0  0  0  0
   11.5730  -16.6229   23.0291 C   0  0  2  0  0  0  0  0  0  0  0  0
   10.2383  -16.1629   23.2204 N   0  0  0  0  0  0  0  0  0  0  0  0
   12.2870  -16.8454   24.3250 C   0  0  0  0  0  0  0  0  0  0  0  0
   13.5377  -16.8252   24.2936 O   0  0  0  0  0  0  0  0  0  0  0  0
    9.8679  -13.2185   27.7803 C   0  0  0  0  0  0  0  0  0  0  0  0
   10.8399  -14.3792   28.7365 S   0  0  0  0  0  0  0  0  0  0  0  0
   12.0433  -15.2809   27.7128 C   0  0  0  0  0  0  0  0  0  0  0  0
   11.9907  -16.7430   27.9306 C   0  0  0  0  0  0  0  0  0  0  0  0
   12.4070  -17.5113   26.7237 C   0  0  2  0  0  0  0  0  0  0  0  0
   11.6262  -17.0710   25.5491 N   0  0  0  0  0  0  0  0  0  0  0  0
   12.1018  -18.9466   26.9080 C   0  0  0  0  0  0  0  0  0  0  0  0
   12.8047  -19.6429   27.9076 O   0  0  0  0  0  0  0  0  0  0  0  0
   11.2427  -19.5763   26.2133 O   0  0  0  0  0  0  0  0  0  0  0  0
  2  1  1  1
  2 13  1  0
  2  3  1  0
  3  4  1  0
  4  5  2  0
  6  5  1  0
  7  6  1  0
  8  7  2  0
  9  8  1  0
 10 11  1  0
 10  9  2  0
 11 12  2  0
 12  7  1  0
 12  4  1  0
 13 14  2  0
 15 16  1  0
 16 17  2  0
 19 18  1  6
 18 16  1  0
 20 19  1  0
 20 13  1  0
 21 19  1  0
 22 21  2  0
 23 24  1  0
 24 25  1  0
 25 26  1  0
 27 26  1  1
 27 28  1  0
 28 21  1  0
 29 30  1  0
 29 27  1  0
 31 29  2  0
M  END
$$$$
