WNM.pdb
     RDKit          3D

 31 32  0  0  1  0  0  0  0  0999 V2000
    6.3957  -18.6428   24.7320 N   0  0  0  0  0  0  0  0  0  0  0  0
    7.1563  -17.4364   24.3419 C   0  0  1  0  0  0  0  0  0  0  0  0
    7.4238  -16.7134   25.6279 C   0  0  0  0  0  0  0  0  0  0  0  0
    6.7441  -15.4137   25.7608 C   0  0  0  0  0  0  0  0  0  0  0  0
    5.5847  -15.2102   26.5307 C   0  0  0  0  0  0  0  0  0  0  0  0
    5.2377  -13.9192   26.4854 N   0  0  0  0  0  0  0  0  0  0  0  0
    6.1080  -13.2352   25.7187 C   0  0  0  0  0  0  0  0  0  0  0  0
    6.1847  -11.9010   25.3469 C   0  0  0  0  0  0  0  0  0  0  0  0
    7.1913  -11.4769   24.5218 C   0  0  0  0  0  0  0  0  0  0  0  0
    8.1192  -12.3903   24.0705 C   0  0  0  0  0  0  0  0  0  0  0  0
    8.0360  -13.7179   24.4459 C   0  0  0  0  0  0  0  0  0  0  0  0
    7.0311  -14.1587   25.2758 C   0  0  0  0  0  0  0  0  0  0  0  0
    8.3993  -17.8070   23.6547 C   0  0  0  0  0  0  0  0  0  0  0  0
    9.1360  -18.7594   24.0178 O   0  0  0  0  0  0  0  0  0  0  0  0
   12.0062  -18.1604   19.3994 N   0  0  0  0  0  0  0  0  0  0  0  0
   11.6604  -16.9218   20.0280 C   0  0  0  0  0  0  0  0  0  0  0  0
   12.5658  -16.0511   20.0527 O   0  0  0  0  0  0  0  0  0  0  0  0
   10.3069  -16.7149   20.6040 C   0  0  0  0  0  0  0  0  0  0  0  0
   10.1960  -17.2539   22.0089 C   0  0  2  0  0  0  0  0  0  0  0  0
    8.8673  -17.0851   22.4942 N   0  0  0  0  0  0  0  0  0  0  0  0
   11.2007  -16.5211   22.8410 C   0  0  0  0  0  0  0  0  0  0  0  0
   11.2820  -15.2839   22.6722 O   0  0  0  0  0  0  0  0  0  0  0  0
   11.0286  -13.5006   29.3130 C   0  0  0  0  0  0  0  0  0  0  0  0
   10.4922  -14.6330   28.0339 S   0  0  0  0  0  0  0  0  0  0  0  0
   11.8730  -15.2149   27.0026 C   0  0  0  0  0  0  0  0  0  0  0  0
   11.4145  -15.9173   25.7842 C   0  0  0  0  0  0  0  0  0  0  0  0
   12.5486  -16.3735   24.9322 C   0  0  2  0  0  0  0  0  0  0  0  0
   12.0383  -17.1504   23.7835 N   0  0  0  0  0  0  0  0  0  0  0  0
   13.4186  -17.2921   25.6981 C   0  0  0  0  0  0  0  0  0  0  0  0
   13.3993  -18.6548   25.3508 O   0  0  0  0  0  0  0  0  0  0  0  0
   14.1764  -16.9135   26.6465 O   0  0  0  0  0  0  0  0  0  0  0  0
  2  1  1  1
  2 13  1  0
  2  3  1  0
  3  4  1  0
  4  5  2  0
  6  5  1  0
  7  6  1  0
  8  7  2  0
  9  8  1  0
 10 11  1  0
 10  9  2  0
 11 12  2  0
 12  7  1  0
 12  4  1  0
 13 14  2  0
 15 16  1  0
 16 17  2  0
 19 18  1  6
 18 16  1  0
 20 19  1  0
 20 13  1  0
 21 19  1  0
 22 21  2  0
 23 24  1  0
 24 25  1  0
 25 26  1  0
 27 26  1  1
 27 28  1  0
 28 21  1  0
 29 30  1  0
 29 27  1  0
 31 29  2  0
M  END
$$$$
