WNM.pdb
     RDKit          3D

 31 32  0  0  1  0  0  0  0  0999 V2000
    7.6174  -18.6432   21.3887 N   0  0  0  0  0  0  0  0  0  0  0  0
    8.4349  -17.4582   21.7257 C   0  0  1  0  0  0  0  0  0  0  0  0
    7.4499  -16.4247   22.1840 C   0  0  0  0  0  0  0  0  0  0  0  0
    6.9912  -15.4981   21.1353 C   0  0  0  0  0  0  0  0  0  0  0  0
    5.8541  -15.7179   20.3372 C   0  0  0  0  0  0  0  0  0  0  0  0
    5.6780  -14.6796   19.5126 N   0  0  0  0  0  0  0  0  0  0  0  0
    6.6444  -13.7636   19.7128 C   0  0  0  0  0  0  0  0  0  0  0  0
    6.9170  -12.5408   19.1174 C   0  0  0  0  0  0  0  0  0  0  0  0
    8.0050  -11.8122   19.5166 C   0  0  0  0  0  0  0  0  0  0  0  0
    8.8181  -12.3102   20.5115 C   0  0  0  0  0  0  0  0  0  0  0  0
    8.5393  -13.5293   21.1001 C   0  0  0  0  0  0  0  0  0  0  0  0
    7.4486  -14.2720   20.7106 C   0  0  0  0  0  0  0  0  0  0  0  0
    9.4125  -17.7829   22.7714 C   0  0  0  0  0  0  0  0  0  0  0  0
    9.1617  -18.5369   23.7462 O   0  0  0  0  0  0  0  0  0  0  0  0
   14.2037  -17.6165   21.1768 N   0  0  0  0  0  0  0  0  0  0  0  0
   13.5727  -18.0988   22.3677 C   0  0  0  0  0  0  0  0  0  0  0  0
   13.4837  -19.3478   22.4704 O   0  0  0  0  0  0  0  0  0  0  0  0
   13.0671  -17.1528   23.3952 C   0  0  0  0  0  0  0  0  0  0  0  0
   11.6573  -17.4765   23.8246 C   0  0  2  0  0  0  0  0  0  0  0  0
   10.7527  -17.2445   22.7487 N   0  0  0  0  0  0  0  0  0  0  0  0
   11.3536  -16.6221   25.0147 C   0  0  0  0  0  0  0  0  0  0  0  0
   11.8025  -15.4541   25.0032 O   0  0  0  0  0  0  0  0  0  0  0  0
    7.7858  -11.5454   27.9768 C   0  0  0  0  0  0  0  0  0  0  0  0
    7.8365  -13.1240   27.1332 S   0  0  0  0  0  0  0  0  0  0  0  0
    8.9111  -14.3246   27.9775 C   0  0  0  0  0  0  0  0  0  0  0  0
    9.0165  -15.6052   27.2447 C   0  0  0  0  0  0  0  0  0  0  0  0
   10.3989  -16.1608   27.2702 C   0  0  2  0  0  0  0  0  0  0  0  0
   10.6017  -17.0666   26.1206 N   0  0  0  0  0  0  0  0  0  0  0  0
   10.5903  -16.9844   28.4836 C   0  0  0  0  0  0  0  0  0  0  0  0
   10.6417  -16.3224   29.7235 O   0  0  0  0  0  0  0  0  0  0  0  0
   10.7095  -18.2502   28.4610 O   0  0  0  0  0  0  0  0  0  0  0  0
  2  1  1  1
  2 13  1  0
  2  3  1  0
  3  4  1  0
  4  5  2  0
  6  5  1  0
  7  6  1  0
  8  7  2  0
  9  8  1  0
 10 11  1  0
 10  9  2  0
 11 12  2  0
 12  7  1  0
 12  4  1  0
 13 14  2  0
 15 16  1  0
 16 17  2  0
 19 18  1  6
 18 16  1  0
 20 19  1  0
 20 13  1  0
 21 19  1  0
 22 21  2  0
 23 24  1  0
 24 25  1  0
 25 26  1  0
 27 26  1  1
 27 28  1  0
 28 21  1  0
 29 30  1  0
 29 27  1  0
 31 29  2  0
M  END
$$$$
