WNM.pdb
     RDKit          3D

 31 32  0  0  1  0  0  0  0  0999 V2000
    6.2702  -18.4149   23.4133 N   0  0  0  0  0  0  0  0  0  0  0  0
    7.1611  -17.2463   23.5770 C   0  0  1  0  0  0  0  0  0  0  0  0
    7.2221  -17.0090   25.0563 C   0  0  0  0  0  0  0  0  0  0  0  0
    6.7702  -15.6759   25.4891 C   0  0  0  0  0  0  0  0  0  0  0  0
    5.7334  -15.4618   26.4151 C   0  0  0  0  0  0  0  0  0  0  0  0
    5.5907  -14.1498   26.6325 N   0  0  0  0  0  0  0  0  0  0  0  0
    6.4830  -13.4613   25.8955 C   0  0  0  0  0  0  0  0  0  0  0  0
    6.7336  -12.1047   25.7505 C   0  0  0  0  0  0  0  0  0  0  0  0
    7.7136  -11.6770   24.8958 C   0  0  0  0  0  0  0  0  0  0  0  0
    8.4407  -12.6092   24.1878 C   0  0  0  0  0  0  0  0  0  0  0  0
    8.1852  -13.9591   24.3384 C   0  0  0  0  0  0  0  0  0  0  0  0
    7.2046  -14.4042   25.1947 C   0  0  0  0  0  0  0  0  0  0  0  0
    8.4877  -17.5224   23.0127 C   0  0  0  0  0  0  0  0  0  0  0  0
    9.0179  -18.6628   23.0114 O   0  0  0  0  0  0  0  0  0  0  0  0
   12.8108  -17.2039   20.1421 N   0  0  0  0  0  0  0  0  0  0  0  0
   12.4609  -15.8787   20.5550 C   0  0  0  0  0  0  0  0  0  0  0  0
   13.3464  -15.0034   20.3871 O   0  0  0  0  0  0  0  0  0  0  0  0
   11.1261  -15.5939   21.1411 C   0  0  0  0  0  0  0  0  0  0  0  0
   10.6330  -16.7223   22.0129 C   0  0  2  0  0  0  0  0  0  0  0  0
    9.2871  -16.4800   22.4120 N   0  0  0  0  0  0  0  0  0  0  0  0
   11.5630  -16.8132   23.1814 C   0  0  0  0  0  0  0  0  0  0  0  0
   12.6815  -17.3354   22.9762 O   0  0  0  0  0  0  0  0  0  0  0  0
    9.3764  -13.1897   28.7361 C   0  0  0  0  0  0  0  0  0  0  0  0
   10.8793  -13.3023   27.7693 S   0  0  0  0  0  0  0  0  0  0  0  0
   10.8781  -14.7403   26.6551 C   0  0  0  0  0  0  0  0  0  0  0  0
   12.2377  -15.2685   26.4091 C   0  0  0  0  0  0  0  0  0  0  0  0
   12.2248  -16.4950   25.5631 C   0  0  2  0  0  0  0  0  0  0  0  0
   11.2402  -16.3466   24.4714 N   0  0  0  0  0  0  0  0  0  0  0  0
   11.7814  -17.6567   26.3638 C   0  0  0  0  0  0  0  0  0  0  0  0
   12.6113  -18.0819   27.4167 O   0  0  0  0  0  0  0  0  0  0  0  0
   10.6964  -18.2842   26.1490 O   0  0  0  0  0  0  0  0  0  0  0  0
  2  1  1  1
  2 13  1  0
  2  3  1  0
  3  4  1  0
  4  5  2  0
  6  5  1  0
  7  6  1  0
  8  7  2  0
  9  8  1  0
 10 11  1  0
 10  9  2  0
 11 12  2  0
 12  7  1  0
 12  4  1  0
 13 14  2  0
 15 16  1  0
 16 17  2  0
 19 18  1  6
 18 16  1  0
 20 19  1  0
 20 13  1  0
 21 19  1  0
 22 21  2  0
 23 24  1  0
 24 25  1  0
 25 26  1  0
 27 26  1  1
 27 28  1  0
 28 21  1  0
 29 30  1  0
 29 27  1  0
 31 29  2  0
M  END
$$$$
