WNM.pdb
     RDKit          3D

 31 32  0  0  1  0  0  0  0  0999 V2000
    7.2446  -16.9187   23.0341 N   0  0  0  0  0  0  0  0  0  0  0  0
    8.4877  -16.2773   23.5132 C   0  0  1  0  0  0  0  0  0  0  0  0
    8.3036  -16.1318   24.9942 C   0  0  0  0  0  0  0  0  0  0  0  0
    7.2259  -15.2126   25.3970 C   0  0  0  0  0  0  0  0  0  0  0  0
    5.9844  -15.6348   25.9059 C   0  0  0  0  0  0  0  0  0  0  0  0
    5.2419  -14.5671   26.2185 N   0  0  0  0  0  0  0  0  0  0  0  0
    5.9215  -13.4374   25.9444 C   0  0  0  0  0  0  0  0  0  0  0  0
    5.5993  -12.0940   26.0693 C   0  0  0  0  0  0  0  0  0  0  0  0
    6.4983  -11.1357   25.6857 C   0  0  0  0  0  0  0  0  0  0  0  0
    7.7186  -11.5250   25.1775 C   0  0  0  0  0  0  0  0  0  0  0  0
    8.0323  -12.8657   25.0568 C   0  0  0  0  0  0  0  0  0  0  0  0
    7.1396  -13.8402   25.4395 C   0  0  0  0  0  0  0  0  0  0  0  0
    9.6565  -17.1031   23.1865 C   0  0  0  0  0  0  0  0  0  0  0  0
    9.6007  -18.3476   23.0135 O   0  0  0  0  0  0  0  0  0  0  0  0
   12.6359  -15.2348   20.4348 N   0  0  0  0  0  0  0  0  0  0  0  0
   12.2713  -16.5631   20.8243 C   0  0  0  0  0  0  0  0  0  0  0  0
   11.3315  -17.0839   20.1731 O   0  0  0  0  0  0  0  0  0  0  0  0
   12.9813  -17.2507   21.9331 C   0  0  0  0  0  0  0  0  0  0  0  0
   12.1450  -17.3256   23.1867 C   0  0  2  0  0  0  0  0  0  0  0  0
   10.9736  -16.5279   23.0418 N   0  0  0  0  0  0  0  0  0  0  0  0
   13.0081  -16.8647   24.3186 C   0  0  0  0  0  0  0  0  0  0  0  0
   13.4233  -15.6852   24.2708 O   0  0  0  0  0  0  0  0  0  0  0  0
   12.0348  -14.1413   29.5401 C   0  0  0  0  0  0  0  0  0  0  0  0
   10.8175  -14.5503   28.2922 S   0  0  0  0  0  0  0  0  0  0  0  0
   10.8492  -16.3138   27.8475 C   0  0  0  0  0  0  0  0  0  0  0  0
   11.5409  -16.5629   26.5640 C   0  0  0  0  0  0  0  0  0  0  0  0
   12.7140  -17.4686   26.7186 C   0  0  2  0  0  0  0  0  0  0  0  0
   13.3643  -17.6829   25.4093 N   0  0  0  0  0  0  0  0  0  0  0  0
   12.2667  -18.8006   27.1804 C   0  0  0  0  0  0  0  0  0  0  0  0
   11.4316  -19.5437   26.3269 O   0  0  0  0  0  0  0  0  0  0  0  0
   12.5974  -19.3024   28.3011 O   0  0  0  0  0  0  0  0  0  0  0  0
  2  1  1  1
  2 13  1  0
  2  3  1  0
  3  4  1  0
  4  5  2  0
  6  5  1  0
  7  6  1  0
  8  7  2  0
  9  8  1  0
 10 11  1  0
 10  9  2  0
 11 12  2  0
 12  7  1  0
 12  4  1  0
 13 14  2  0
 15 16  1  0
 16 17  2  0
 19 18  1  6
 18 16  1  0
 20 19  1  0
 20 13  1  0
 21 19  1  0
 22 21  2  0
 23 24  1  0
 24 25  1  0
 25 26  1  0
 27 26  1  6
 27 28  1  0
 28 21  1  0
 29 30  1  0
 29 27  1  0
 31 29  2  0
M  END
$$$$
