WNM.pdb
     RDKit          3D

 31 32  0  0  1  0  0  0  0  0999 V2000
    6.3885  -18.4328   24.0124 N   0  0  0  0  0  0  0  0  0  0  0  0
    7.1150  -17.1712   23.7541 C   0  0  1  0  0  0  0  0  0  0  0  0
    7.3991  -16.6019   25.1119 C   0  0  0  0  0  0  0  0  0  0  0  0
    6.6350  -15.3885   25.4471 C   0  0  0  0  0  0  0  0  0  0  0  0
    5.4693  -15.3884   26.2342 C   0  0  0  0  0  0  0  0  0  0  0  0
    5.0366  -14.1328   26.3938 N   0  0  0  0  0  0  0  0  0  0  0  0
    5.8546  -13.2787   25.7500 C   0  0  0  0  0  0  0  0  0  0  0  0
    5.8398  -11.9001   25.5962 C   0  0  0  0  0  0  0  0  0  0  0  0
    6.8107  -11.2835   24.8540 C   0  0  0  0  0  0  0  0  0  0  0  0
    7.7948  -12.0491   24.2670 C   0  0  0  0  0  0  0  0  0  0  0  0
    7.8028  -13.4221   24.4256 C   0  0  0  0  0  0  0  0  0  0  0  0
    6.8345  -14.0558   25.1698 C   0  0  0  0  0  0  0  0  0  0  0  0
    8.3481  -17.4279   23.0003 C   0  0  0  0  0  0  0  0  0  0  0  0
    8.9268  -18.5442   22.9752 O   0  0  0  0  0  0  0  0  0  0  0  0
    8.4128  -15.7769   18.6801 N   0  0  0  0  0  0  0  0  0  0  0  0
    9.4010  -16.5744   19.3408 C   0  0  0  0  0  0  0  0  0  0  0  0
    9.3928  -17.7983   19.0574 O   0  0  0  0  0  0  0  0  0  0  0  0
   10.3589  -15.9592   20.2950 C   0  0  0  0  0  0  0  0  0  0  0  0
   10.2855  -16.5898   21.6637 C   0  0  2  0  0  0  0  0  0  0  0  0
    8.9907  -16.3927   22.2243 N   0  0  0  0  0  0  0  0  0  0  0  0
   11.3631  -15.9658   22.4930 C   0  0  0  0  0  0  0  0  0  0  0  0
   12.5452  -16.2169   22.1683 O   0  0  0  0  0  0  0  0  0  0  0  0
   11.3977  -15.7706   30.2523 C   0  0  0  0  0  0  0  0  0  0  0  0
   10.5138  -15.5795   28.7069 S   0  0  0  0  0  0  0  0  0  0  0  0
   11.5888  -15.8274   27.2606 C   0  0  0  0  0  0  0  0  0  0  0  0
   10.8986  -15.5388   25.9845 C   0  0  0  0  0  0  0  0  0  0  0  0
   11.8519  -15.3427   24.8562 C   0  0  2  0  0  0  0  0  0  0  0  0
   11.1090  -15.1278   23.5972 N   0  0  0  0  0  0  0  0  0  0  0  0
   12.6575  -16.5669   24.6564 C   0  0  0  0  0  0  0  0  0  0  0  0
   14.0568  -16.4510   24.7380 O   0  0  0  0  0  0  0  0  0  0  0  0
   12.1515  -17.7086   24.4168 O   0  0  0  0  0  0  0  0  0  0  0  0
  2  1  1  1
  2 13  1  0
  2  3  1  0
  3  4  1  0
  4  5  2  0
  6  5  1  0
  7  6  1  0
  8  7  2  0
  9  8  1  0
 10 11  1  0
 10  9  2  0
 11 12  2  0
 12  7  1  0
 12  4  1  0
 13 14  2  0
 15 16  1  0
 16 17  2  0
 19 18  1  6
 18 16  1  0
 20 19  1  0
 20 13  1  0
 21 19  1  0
 22 21  2  0
 23 24  1  0
 24 25  1  0
 25 26  1  0
 27 26  1  1
 27 28  1  0
 28 21  1  0
 29 30  1  0
 29 27  1  0
 31 29  2  0
M  END
$$$$
