WNM.pdb
     RDKit          3D

 31 32  0  0  1  0  0  0  0  0999 V2000
    7.2474  -17.8650   21.0204 N   0  0  0  0  0  0  0  0  0  0  0  0
    8.0362  -16.7626   21.6110 C   0  0  1  0  0  0  0  0  0  0  0  0
    7.1968  -16.2469   22.7414 C   0  0  0  0  0  0  0  0  0  0  0  0
    7.5727  -14.9105   23.2326 C   0  0  0  0  0  0  0  0  0  0  0  0
    8.4969  -14.0692   22.5872 C   0  0  0  0  0  0  0  0  0  0  0  0
    8.5896  -12.9122   23.2519 N   0  0  0  0  0  0  0  0  0  0  0  0
    7.7711  -12.9285   24.3209 C   0  0  0  0  0  0  0  0  0  0  0  0
    7.5122  -12.0011   25.3196 C   0  0  0  0  0  0  0  0  0  0  0  0
    6.6243  -12.2997   26.3178 C   0  0  0  0  0  0  0  0  0  0  0  0
    5.9975  -13.5270   26.3138 C   0  0  0  0  0  0  0  0  0  0  0  0
    6.2606  -14.4453   25.3149 C   0  0  0  0  0  0  0  0  0  0  0  0
    7.1492  -14.1589   24.3043 C   0  0  0  0  0  0  0  0  0  0  0  0
    9.3402  -17.2497   22.0767 C   0  0  0  0  0  0  0  0  0  0  0  0
    9.5326  -18.4159   22.5064 O   0  0  0  0  0  0  0  0  0  0  0  0
   14.5787  -17.6952   22.3985 N   0  0  0  0  0  0  0  0  0  0  0  0
   14.1888  -16.3464   22.6776 C   0  0  0  0  0  0  0  0  0  0  0  0
   15.0521  -15.6367   23.2514 O   0  0  0  0  0  0  0  0  0  0  0  0
   12.8403  -15.8523   22.2984 C   0  0  0  0  0  0  0  0  0  0  0  0
   11.7631  -16.8762   22.5588 C   0  0  2  0  0  0  0  0  0  0  0  0
   10.5102  -16.4025   22.0736 N   0  0  0  0  0  0  0  0  0  0  0  0
   11.7419  -17.1259   24.0338 C   0  0  0  0  0  0  0  0  0  0  0  0
   12.8186  -17.4795   24.5643 O   0  0  0  0  0  0  0  0  0  0  0  0
    9.9049  -12.1529   28.1675 C   0  0  0  0  0  0  0  0  0  0  0  0
    9.2520  -13.8181   28.0851 S   0  0  0  0  0  0  0  0  0  0  0  0
   10.2744  -14.9109   27.0509 C   0  0  0  0  0  0  0  0  0  0  0  0
    9.7627  -16.2983   27.0131 C   0  0  0  0  0  0  0  0  0  0  0  0
   10.6797  -17.2210   26.2865 C   0  0  2  0  0  0  0  0  0  0  0  0
   10.5886  -16.9829   24.8311 N   0  0  0  0  0  0  0  0  0  0  0  0
   10.2614  -18.6231   26.5025 C   0  0  0  0  0  0  0  0  0  0  0  0
   10.4339  -19.1678   27.7876 O   0  0  0  0  0  0  0  0  0  0  0  0
    9.7578  -19.3535   25.5914 O   0  0  0  0  0  0  0  0  0  0  0  0
  2  1  1  1
  2 13  1  0
  2  3  1  0
  3  4  1  0
  4  5  2  0
  6  5  1  0
  7  6  1  0
  8  7  2  0
  9  8  1  0
 10 11  1  0
 10  9  2  0
 11 12  2  0
 12  7  1  0
 12  4  1  0
 13 14  2  0
 15 16  1  0
 16 17  2  0
 19 18  1  1
 18 16  1  0
 20 19  1  0
 20 13  1  0
 21 19  1  0
 22 21  2  0
 23 24  1  0
 24 25  1  0
 25 26  1  0
 27 26  1  1
 27 28  1  0
 28 21  1  0
 29 30  1  0
 29 27  1  0
 31 29  2  0
M  END
$$$$
