ECV.pdb
     RDKit          3D

 23 22  0  0  1  0  0  0  0  0999 V2000
    7.8826  -12.7756   18.8534 N   0  0  0  0  0  0  0  0  0  0  0  0
    7.3956  -13.9124   19.5383 C   0  0  1  0  0  0  0  0  0  0  0  0
    7.2954  -15.1904   18.7903 C   0  0  0  0  0  0  0  0  0  0  0  0
    8.1370  -16.3225   19.2325 C   0  0  0  0  0  0  0  0  0  0  0  0
    8.0730  -17.5345   18.4214 C   0  0  0  0  0  0  0  0  0  0  0  0
    8.6597  -18.5963   18.6814 O   0  0  0  0  0  0  0  0  0  0  0  0
    8.1228  -14.1762   20.8228 C   0  0  0  0  0  0  0  0  0  0  0  0
    9.3836  -14.1819   20.7407 O   0  0  0  0  0  0  0  0  0  0  0  0
    7.2659  -17.4503   17.2528 O   0  0  0  0  0  0  0  0  0  0  0  0
    7.4709  -14.4073   22.0611 N   0  0  0  0  0  0  0  0  0  0  0  0
    8.2387  -14.6012   23.2521 C   0  0  1  0  0  0  0  0  0  0  0  0
    7.4125  -14.4140   24.5143 C   0  0  0  0  0  0  0  0  0  0  0  0
    6.8090  -12.7397   24.7062 S   0  0  0  0  0  0  0  0  0  0  0  0
    8.9135  -15.9204   23.3031 C   0  0  0  0  0  0  0  0  0  0  0  0
    8.3434  -16.8741   22.7104 O   0  0  0  0  0  0  0  0  0  0  0  0
   12.6154  -19.0112   23.6895 C   0  0  0  0  0  0  0  0  0  0  0  0
   12.0301  -17.6429   23.4634 C   0  0  1  0  0  0  0  0  0  0  0  0
   12.0576  -17.2972   21.9976 C   0  0  0  0  0  0  0  0  0  0  0  0
   10.6505  -17.5050   24.0623 C   0  0  2  0  0  0  0  0  0  0  0  0
   10.1249  -16.1767   23.9557 N   0  0  0  0  0  0  0  0  0  0  0  0
   10.7746  -17.9265   25.4961 C   0  0  0  0  0  0  0  0  0  0  0  0
   10.8521  -19.2529   25.8599 O   0  0  0  0  0  0  0  0  0  0  0  0
   10.8043  -17.0014   26.3483 O   0  0  0  0  0  0  0  0  0  0  0  0
  2  1  1  6
  2  7  1  0
  3  2  1  0
  4  5  1  0
  4  3  1  0
  5  6  2  0
  7  8  2  0
  7 10  1  0
  9  5  1  0
 10 11  1  0
 11 14  1  0
 12 13  1  0
 11 12  1  1
 14 15  2  0
 14 20  1  0
 17 16  1  6
 17 18  1  0
 19 17  1  0
 19 20  1  1
 21 19  1  0
 21 22  1  0
 23 21  2  0
M  END
$$$$
