ECV.pdb
     RDKit          3D

 23 22  0  0  1  0  0  0  0  0999 V2000
    8.9528  -15.8364   18.3694 N   0  0  0  0  0  0  0  0  0  0  0  0
    9.5060  -15.9138   19.6681 C   0  0  1  0  0  0  0  0  0  0  0  0
   10.7592  -15.1669   19.9407 C   0  0  0  0  0  0  0  0  0  0  0  0
   11.9868  -15.5867   19.2318 C   0  0  0  0  0  0  0  0  0  0  0  0
   13.2137  -14.8783   19.5834 C   0  0  0  0  0  0  0  0  0  0  0  0
   13.7057  -13.9423   18.9343 O   0  0  0  0  0  0  0  0  0  0  0  0
    8.5171  -15.5801   20.7447 C   0  0  0  0  0  0  0  0  0  0  0  0
    7.6396  -14.7276   20.4295 O   0  0  0  0  0  0  0  0  0  0  0  0
   13.8642  -15.3253   20.7671 O   0  0  0  0  0  0  0  0  0  0  0  0
    8.5375  -16.1626   22.0378 N   0  0  0  0  0  0  0  0  0  0  0  0
    7.5571  -15.7890   23.0098 C   0  0  1  0  0  0  0  0  0  0  0  0
    6.7864  -16.9835   23.5482 C   0  0  0  0  0  0  0  0  0  0  0  0
    7.8487  -18.2125   24.3001 S   0  0  0  0  0  0  0  0  0  0  0  0
    8.1240  -15.0231   24.1457 C   0  0  0  0  0  0  0  0  0  0  0  0
    9.3613  -15.1394   24.3490 O   0  0  0  0  0  0  0  0  0  0  0  0
    7.0393  -11.2725   25.6442 C   0  0  0  0  0  0  0  0  0  0  0  0
    7.1798  -12.3859   26.6475 C   0  0  1  0  0  0  0  0  0  0  0  0
    5.8242  -12.8258   27.1349 C   0  0  0  0  0  0  0  0  0  0  0  0
    8.0016  -13.5355   26.1146 C   0  0  2  0  0  0  0  0  0  0  0  0
    7.3891  -14.1901   24.9973 N   0  0  0  0  0  0  0  0  0  0  0  0
    8.1882  -14.4817   27.2629 C   0  0  0  0  0  0  0  0  0  0  0  0
    9.0338  -14.1945   28.3118 O   0  0  0  0  0  0  0  0  0  0  0  0
    7.5294  -15.5526   27.2154 O   0  0  0  0  0  0  0  0  0  0  0  0
  2  1  1  6
  2  7  1  0
  3  2  1  0
  4  5  1  0
  4  3  1  0
  5  6  2  0
  7  8  2  0
  7 10  1  0
  9  5  1  0
 10 11  1  0
 11 14  1  0
 12 13  1  0
 11 12  1  1
 14 15  2  0
 14 20  1  0
 17 16  1  6
 17 18  1  0
 19 17  1  0
 19 20  1  6
 21 19  1  0
 21 22  1  0
 23 21  2  0
M  END
$$$$
