ECV.pdb
     RDKit          3D

 23 22  0  0  1  0  0  0  0  0999 V2000
    9.9883  -16.9578   19.3034 N   0  0  0  0  0  0  0  0  0  0  0  0
   10.0556  -17.6099   20.5560 C   0  0  1  0  0  0  0  0  0  0  0  0
   11.3762  -17.7022   21.2269 C   0  0  0  0  0  0  0  0  0  0  0  0
   12.5703  -17.2614   20.4749 C   0  0  0  0  0  0  0  0  0  0  0  0
   13.8383  -17.2865   21.1976 C   0  0  0  0  0  0  0  0  0  0  0  0
   14.8598  -17.8818   20.8215 O   0  0  0  0  0  0  0  0  0  0  0  0
    9.0626  -17.0775   21.5454 C   0  0  0  0  0  0  0  0  0  0  0  0
    8.7516  -15.8615   21.4007 O   0  0  0  0  0  0  0  0  0  0  0  0
   13.8631  -16.5611   22.4213 O   0  0  0  0  0  0  0  0  0  0  0  0
    8.4930  -17.8580   22.5837 N   0  0  0  0  0  0  0  0  0  0  0  0
    7.5407  -17.2774   23.4792 C   0  0  1  0  0  0  0  0  0  0  0  0
    6.7751  -18.3235   24.2731 C   0  0  0  0  0  0  0  0  0  0  0  0
    5.5403  -17.6077   25.3535 S   0  0  0  0  0  0  0  0  0  0  0  0
    8.1423  -16.2988   24.4165 C   0  0  0  0  0  0  0  0  0  0  0  0
    9.3358  -16.5025   24.7628 O   0  0  0  0  0  0  0  0  0  0  0  0
    7.9758  -12.1557   27.1573 C   0  0  0  0  0  0  0  0  0  0  0  0
    7.2360  -13.1772   26.3355 C   0  0  1  0  0  0  0  0  0  0  0  0
    6.4630  -12.5022   25.2330 C   0  0  0  0  0  0  0  0  0  0  0  0
    8.1481  -14.2641   25.8180 C   0  0  2  0  0  0  0  0  0  0  0  0
    7.4846  -15.1782   24.9369 N   0  0  0  0  0  0  0  0  0  0  0  0
    8.6848  -14.9688   27.0280 C   0  0  0  0  0  0  0  0  0  0  0  0
    8.2785  -16.2402   27.3689 O   0  0  0  0  0  0  0  0  0  0  0  0
    9.5270  -14.3346   27.7145 O   0  0  0  0  0  0  0  0  0  0  0  0
  2  1  1  6
  2  7  1  0
  3  2  1  0
  4  5  1  0
  4  3  1  0
  5  6  2  0
  7  8  2  0
  7 10  1  0
  9  5  1  0
 10 11  1  0
 11 14  1  0
 12 13  1  0
 11 12  1  1
 14 15  2  0
 14 20  1  0
 17 16  1  6
 17 18  1  0
 19 17  1  0
 19 20  1  6
 21 19  1  0
 21 22  1  0
 23 21  2  0
M  END
$$$$
