ECV.pdb
     RDKit          3D

 23 22  0  0  1  0  0  0  0  0999 V2000
    8.3872  -17.7230   18.9140 N   0  0  0  0  0  0  0  0  0  0  0  0
    8.5103  -18.1213   20.2649 C   0  0  1  0  0  0  0  0  0  0  0  0
    9.8725  -18.2081   20.8476 C   0  0  0  0  0  0  0  0  0  0  0  0
   10.8968  -17.2575   20.3651 C   0  0  0  0  0  0  0  0  0  0  0  0
   12.2109  -17.3446   20.9947 C   0  0  0  0  0  0  0  0  0  0  0  0
   13.1985  -16.6642   20.6770 O   0  0  0  0  0  0  0  0  0  0  0  0
    7.6536  -17.3124   21.1923 C   0  0  0  0  0  0  0  0  0  0  0  0
    6.4600  -17.1397   20.8156 O   0  0  0  0  0  0  0  0  0  0  0  0
   12.3262  -18.2936   22.0485 O   0  0  0  0  0  0  0  0  0  0  0  0
    8.1197  -16.7646   22.4148 N   0  0  0  0  0  0  0  0  0  0  0  0
    7.1890  -16.2702   23.3818 C   0  0  1  0  0  0  0  0  0  0  0  0
    6.2701  -17.3577   23.9145 C   0  0  0  0  0  0  0  0  0  0  0  0
    7.0866  -18.4481   25.0759 S   0  0  0  0  0  0  0  0  0  0  0  0
    7.8419  -15.5829   24.5217 C   0  0  0  0  0  0  0  0  0  0  0  0
    8.9840  -15.9950   24.8559 O   0  0  0  0  0  0  0  0  0  0  0  0
    7.2812  -11.4913   25.2562 C   0  0  0  0  0  0  0  0  0  0  0  0
    7.4223  -12.3911   26.4546 C   0  0  1  0  0  0  0  0  0  0  0  0
    6.0885  -12.5783   27.1290 C   0  0  0  0  0  0  0  0  0  0  0  0
    8.0826  -13.7047   26.1089 C   0  0  2  0  0  0  0  0  0  0  0  0
    7.2846  -14.5210   25.2435 N   0  0  0  0  0  0  0  0  0  0  0  0
    8.3474  -14.3942   27.4140 C   0  0  0  0  0  0  0  0  0  0  0  0
    7.7581  -15.5976   27.7333 O   0  0  0  0  0  0  0  0  0  0  0  0
    9.1380  -13.8125   28.2012 O   0  0  0  0  0  0  0  0  0  0  0  0
  2  1  1  6
  2  7  1  0
  3  2  1  0
  4  5  1  0
  4  3  1  0
  5  6  2  0
  7  8  2  0
  7 10  1  0
  9  5  1  0
 10 11  1  0
 11 14  1  0
 12 13  1  0
 11 12  1  1
 14 15  2  0
 14 20  1  0
 17 16  1  6
 17 18  1  0
 19 17  1  0
 19 20  1  6
 21 19  1  0
 21 22  1  0
 23 21  2  0
M  END
$$$$
