ECV.pdb
     RDKit          3D

 23 22  0  0  1  0  0  0  0  0999 V2000
    8.2945  -13.8701   20.6399 N   0  0  0  0  0  0  0  0  0  0  0  0
    7.6769  -14.7091   21.5956 C   0  0  1  0  0  0  0  0  0  0  0  0
    7.6497  -16.1693   21.3314 C   0  0  0  0  0  0  0  0  0  0  0  0
    7.2564  -16.6241   19.9808 C   0  0  0  0  0  0  0  0  0  0  0  0
    7.1406  -18.0666   19.7899 C   0  0  0  0  0  0  0  0  0  0  0  0
    6.3545  -18.8047   20.4037 O   0  0  0  0  0  0  0  0  0  0  0  0
    8.1974  -14.4931   22.9851 C   0  0  0  0  0  0  0  0  0  0  0  0
    9.4519  -14.3793   23.0825 O   0  0  0  0  0  0  0  0  0  0  0  0
    8.0126  -18.6302   18.8171 O   0  0  0  0  0  0  0  0  0  0  0  0
    7.3664  -14.4171   24.1320 N   0  0  0  0  0  0  0  0  0  0  0  0
    7.9475  -14.3187   25.4352 C   0  0  1  0  0  0  0  0  0  0  0  0
    6.9843  -13.7421   26.4601 C   0  0  0  0  0  0  0  0  0  0  0  0
    6.2366  -12.2070   25.9226 S   0  0  0  0  0  0  0  0  0  0  0  0
    8.4771  -15.6095   25.9368 C   0  0  0  0  0  0  0  0  0  0  0  0
    7.7764  -16.6336   25.7225 O   0  0  0  0  0  0  0  0  0  0  0  0
   11.1299  -17.7753   24.9130 C   0  0  0  0  0  0  0  0  0  0  0  0
   11.3627  -17.5434   26.3820 C   0  0  1  0  0  0  0  0  0  0  0  0
   12.5413  -16.6283   26.5874 C   0  0  0  0  0  0  0  0  0  0  0  0
   10.1211  -17.0512   27.0871 C   0  0  2  0  0  0  0  0  0  0  0  0
    9.6866  -15.7673   26.6234 N   0  0  0  0  0  0  0  0  0  0  0  0
   10.4581  -17.0154   28.5480 C   0  0  0  0  0  0  0  0  0  0  0  0
   10.7227  -18.1637   29.2614 O   0  0  0  0  0  0  0  0  0  0  0  0
   10.4861  -15.8784   29.0858 O   0  0  0  0  0  0  0  0  0  0  0  0
  2  1  1  6
  2  7  1  0
  3  2  1  0
  4  5  1  0
  4  3  1  0
  5  6  2  0
  7  8  2  0
  7 10  1  0
  9  5  1  0
 10 11  1  0
 11 14  1  0
 12 13  1  0
 11 12  1  1
 14 15  2  0
 14 20  1  0
 17 16  1  6
 17 18  1  0
 19 17  1  0
 19 20  1  6
 21 19  1  0
 21 22  1  0
 23 21  2  0
M  END
$$$$
