ECV.pdb
     RDKit          3D

 23 22  0  0  1  0  0  0  0  0999 V2000
    9.9648  -17.8751   19.8761 N   0  0  0  0  0  0  0  0  0  0  0  0
   10.1122  -18.0427   21.2722 C   0  0  1  0  0  0  0  0  0  0  0  0
   11.4339  -17.7433   21.8773 C   0  0  0  0  0  0  0  0  0  0  0  0
   12.5330  -17.3322   20.9780 C   0  0  0  0  0  0  0  0  0  0  0  0
   13.8403  -17.1380   21.5977 C   0  0  0  0  0  0  0  0  0  0  0  0
   14.8359  -16.6675   21.0259 O   0  0  0  0  0  0  0  0  0  0  0  0
    9.0605  -17.3217   22.0611 C   0  0  0  0  0  0  0  0  0  0  0  0
    8.6166  -16.2635   21.5325 O   0  0  0  0  0  0  0  0  0  0  0  0
   13.9387  -17.5303   22.9617 O   0  0  0  0  0  0  0  0  0  0  0  0
    8.5758  -17.7694   23.3166 N   0  0  0  0  0  0  0  0  0  0  0  0
    7.5216  -17.0607   23.9740 C   0  0  1  0  0  0  0  0  0  0  0  0
    6.6686  -17.9656   24.8483 C   0  0  0  0  0  0  0  0  0  0  0  0
    7.5904  -18.6952   26.1982 S   0  0  0  0  0  0  0  0  0  0  0  0
    8.0042  -15.9159   24.7832 C   0  0  0  0  0  0  0  0  0  0  0  0
    9.2275  -15.9060   25.0818 O   0  0  0  0  0  0  0  0  0  0  0  0
    7.3336  -11.6259   27.1939 C   0  0  0  0  0  0  0  0  0  0  0  0
    6.7359  -12.7352   26.3703 C   0  0  1  0  0  0  0  0  0  0  0  0
    6.1297  -12.1818   25.1074 C   0  0  0  0  0  0  0  0  0  0  0  0
    7.7265  -13.8421   26.0972 C   0  0  2  0  0  0  0  0  0  0  0  0
    7.2050  -14.8584   25.2328 N   0  0  0  0  0  0  0  0  0  0  0  0
    8.1001  -14.4065   27.4354 C   0  0  0  0  0  0  0  0  0  0  0  0
    9.0715  -13.8285   28.2228 O   0  0  0  0  0  0  0  0  0  0  0  0
    7.4769  -15.4371   27.7992 O   0  0  0  0  0  0  0  0  0  0  0  0
  2  1  1  6
  2  7  1  0
  3  2  1  0
  4  5  1  0
  4  3  1  0
  5  6  2  0
  7  8  2  0
  7 10  1  0
  9  5  1  0
 10 11  1  0
 11 14  1  0
 12 13  1  0
 11 12  1  1
 14 15  2  0
 14 20  1  0
 17 16  1  6
 17 18  1  0
 19 17  1  0
 19 20  1  6
 21 19  1  0
 21 22  1  0
 23 21  2  0
M  END
$$$$
