ECV.pdb
     RDKit          3D

 23 22  0  0  1  0  0  0  0  0999 V2000
   10.3085  -16.8809   19.8412 N   0  0  0  0  0  0  0  0  0  0  0  0
   10.5407  -17.5016   21.0899 C   0  0  1  0  0  0  0  0  0  0  0  0
   11.9084  -17.9994   21.3805 C   0  0  0  0  0  0  0  0  0  0  0  0
   13.0400  -17.0638   21.2080 C   0  0  0  0  0  0  0  0  0  0  0  0
   14.3714  -17.5995   21.4744 C   0  0  0  0  0  0  0  0  0  0  0  0
   15.0866  -17.2817   22.4372 O   0  0  0  0  0  0  0  0  0  0  0  0
   10.0890  -16.6661   22.2502 C   0  0  0  0  0  0  0  0  0  0  0  0
   10.3159  -15.4275   22.1472 O   0  0  0  0  0  0  0  0  0  0  0  0
   14.8486  -18.5559   20.5354 O   0  0  0  0  0  0  0  0  0  0  0  0
    9.4487  -17.1978   23.3987 N   0  0  0  0  0  0  0  0  0  0  0  0
    8.9418  -16.3216   24.4091 C   0  0  1  0  0  0  0  0  0  0  0  0
    7.4730  -16.5701   24.7119 C   0  0  0  0  0  0  0  0  0  0  0  0
    7.2097  -18.0228   25.7242 S   0  0  0  0  0  0  0  0  0  0  0  0
    9.7157  -16.3784   25.6725 C   0  0  0  0  0  0  0  0  0  0  0  0
    9.9262  -17.5203   26.1598 O   0  0  0  0  0  0  0  0  0  0  0  0
   10.0949  -12.9165   28.1529 C   0  0  0  0  0  0  0  0  0  0  0  0
    9.8465  -14.3347   28.5923 C   0  0  1  0  0  0  0  0  0  0  0  0
    8.3674  -14.6124   28.6543 C   0  0  0  0  0  0  0  0  0  0  0  0
   10.5856  -15.3362   27.7369 C   0  0  2  0  0  0  0  0  0  0  0  0
   10.2227  -15.2651   26.3529 N   0  0  0  0  0  0  0  0  0  0  0  0
   10.2735  -16.6857   28.3115 C   0  0  0  0  0  0  0  0  0  0  0  0
    9.4933  -17.5999   27.6384 O   0  0  0  0  0  0  0  0  0  0  0  0
   10.7640  -16.9368   29.4426 O   0  0  0  0  0  0  0  0  0  0  0  0
  2  1  1  6
  2  7  1  0
  3  2  1  0
  4  5  1  0
  4  3  1  0
  5  6  2  0
  7  8  2  0
  7 10  1  0
  9  5  1  0
 10 11  1  0
 11 14  1  0
 12 13  1  0
 11 12  1  1
 14 15  2  0
 14 20  1  0
 17 16  1  6
 17 18  1  0
 19 17  1  0
 19 20  1  6
 21 19  1  0
 21 22  1  0
 23 21  2  0
M  END
$$$$
