ECV.pdb
     RDKit          3D

 23 22  0  0  1  0  0  0  0  0999 V2000
    8.4574  -14.4970   19.8124 N   0  0  0  0  0  0  0  0  0  0  0  0
    8.3809  -15.4025   20.8954 C   0  0  1  0  0  0  0  0  0  0  0  0
    9.2875  -16.5776   20.8907 C   0  0  0  0  0  0  0  0  0  0  0  0
    9.0472  -17.6369   19.8878 C   0  0  0  0  0  0  0  0  0  0  0  0
    9.8633  -18.8412   20.0076 C   0  0  0  0  0  0  0  0  0  0  0  0
    9.6227  -19.7908   20.7690 O   0  0  0  0  0  0  0  0  0  0  0  0
    8.4939  -14.7278   22.2297 C   0  0  0  0  0  0  0  0  0  0  0  0
    9.4059  -13.8584   22.3220 O   0  0  0  0  0  0  0  0  0  0  0  0
   11.0127  -18.8910   19.1706 O   0  0  0  0  0  0  0  0  0  0  0  0
    7.6517  -15.0220   23.3323 N   0  0  0  0  0  0  0  0  0  0  0  0
    7.7763  -14.2812   24.5494 C   0  0  1  0  0  0  0  0  0  0  0  0
    6.4288  -13.9551   25.1730 C   0  0  0  0  0  0  0  0  0  0  0  0
    6.5774  -13.0683   26.7209 S   0  0  0  0  0  0  0  0  0  0  0  0
    8.6292  -14.9549   25.5579 C   0  0  0  0  0  0  0  0  0  0  0  0
    8.5406  -16.2090   25.6312 O   0  0  0  0  0  0  0  0  0  0  0  0
   11.1501  -14.9681   29.7617 C   0  0  0  0  0  0  0  0  0  0  0  0
   10.1877  -14.3505   28.7828 C   0  0  1  0  0  0  0  0  0  0  0  0
   10.4089  -12.8630   28.6984 C   0  0  0  0  0  0  0  0  0  0  0  0
   10.2410  -15.0187   27.4294 C   0  0  2  0  0  0  0  0  0  0  0  0
    9.5151  -14.3026   26.4233 N   0  0  0  0  0  0  0  0  0  0  0  0
    9.6837  -16.3974   27.6233 C   0  0  0  0  0  0  0  0  0  0  0  0
   10.4997  -17.4947   27.7897 O   0  0  0  0  0  0  0  0  0  0  0  0
    8.4295  -16.4963   27.6257 O   0  0  0  0  0  0  0  0  0  0  0  0
  2  1  1  6
  2  7  1  0
  3  2  1  0
  4  5  1  0
  4  3  1  0
  5  6  2  0
  7  8  2  0
  7 10  1  0
  9  5  1  0
 10 11  1  0
 11 14  1  0
 12 13  1  0
 11 12  1  1
 14 15  2  0
 14 20  1  0
 17 16  1  1
 17 18  1  0
 19 17  1  0
 19 20  1  6
 21 19  1  0
 21 22  1  0
 23 21  2  0
M  END
$$$$
