ECV.pdb
     RDKit          3D

 23 22  0  0  1  0  0  0  0  0999 V2000
    8.5355  -14.2459   20.0950 N   0  0  0  0  0  0  0  0  0  0  0  0
    7.8956  -15.0300   21.0821 C   0  0  1  0  0  0  0  0  0  0  0  0
    8.1272  -16.4959   21.0701 C   0  0  0  0  0  0  0  0  0  0  0  0
    9.5244  -16.9791   21.0834 C   0  0  0  0  0  0  0  0  0  0  0  0
    9.7103  -18.4269   21.0897 C   0  0  0  0  0  0  0  0  0  0  0  0
    8.7938  -19.2621   21.0487 O   0  0  0  0  0  0  0  0  0  0  0  0
    8.1378  -14.5279   22.4741 C   0  0  0  0  0  0  0  0  0  0  0  0
    9.2835  -14.0375   22.6819 O   0  0  0  0  0  0  0  0  0  0  0  0
   11.0600  -18.8733   21.1477 O   0  0  0  0  0  0  0  0  0  0  0  0
    7.1696  -14.5849   23.5090 N   0  0  0  0  0  0  0  0  0  0  0  0
    7.4816  -14.0869   24.8130 C   0  0  1  0  0  0  0  0  0  0  0  0
    6.2429  -13.8854   25.6710 C   0  0  0  0  0  0  0  0  0  0  0  0
    6.5371  -12.8109   27.0722 S   0  0  0  0  0  0  0  0  0  0  0  0
    8.4488  -14.9381   25.5467 C   0  0  0  0  0  0  0  0  0  0  0  0
    8.5102  -16.1498   25.2094 O   0  0  0  0  0  0  0  0  0  0  0  0
   11.8115  -13.6084   27.8626 C   0  0  0  0  0  0  0  0  0  0  0  0
   10.9403  -14.7239   28.3751 C   0  0  1  0  0  0  0  0  0  0  0  0
   10.0521  -14.2268   29.4854 C   0  0  0  0  0  0  0  0  0  0  0  0
   10.1602  -15.3944   27.2693 C   0  0  2  0  0  0  0  0  0  0  0  0
    9.2882  -14.4944   26.5752 N   0  0  0  0  0  0  0  0  0  0  0  0
    9.3895  -16.5054   27.9177 C   0  0  0  0  0  0  0  0  0  0  0  0
    8.0174  -16.4670   28.0345 O   0  0  0  0  0  0  0  0  0  0  0  0
   10.0656  -17.4750   28.3489 O   0  0  0  0  0  0  0  0  0  0  0  0
  2  1  1  6
  2  7  1  0
  3  2  1  0
  4  5  1  0
  4  3  1  0
  5  6  2  0
  7  8  2  0
  7 10  1  0
  9  5  1  0
 10 11  1  0
 11 14  1  0
 12 13  1  0
 11 12  1  1
 14 15  2  0
 14 20  1  0
 17 16  1  6
 17 18  1  0
 19 17  1  0
 19 20  1  1
 21 19  1  0
 21 22  1  0
 23 21  2  0
M  END
$$$$
