ECV.pdb
     RDKit          3D

 23 22  0  0  1  0  0  0  0  0999 V2000
    7.1871  -18.8925   20.3458 N   0  0  0  0  0  0  0  0  0  0  0  0
    8.2020  -18.7574   21.3208 C   0  0  1  0  0  0  0  0  0  0  0  0
    9.4734  -18.1040   20.9216 C   0  0  0  0  0  0  0  0  0  0  0  0
   10.1733  -18.6180   19.7251 C   0  0  0  0  0  0  0  0  0  0  0  0
   11.4172  -17.9459   19.3622 C   0  0  0  0  0  0  0  0  0  0  0  0
   11.9296  -17.0084   19.9930 O   0  0  0  0  0  0  0  0  0  0  0  0
    7.7167  -18.1087   22.5826 C   0  0  0  0  0  0  0  0  0  0  0  0
    6.7601  -17.2956   22.4409 O   0  0  0  0  0  0  0  0  0  0  0  0
   12.0598  -18.4327   18.1898 O   0  0  0  0  0  0  0  0  0  0  0  0
    8.2713  -18.3675   23.8621 N   0  0  0  0  0  0  0  0  0  0  0  0
    7.7833  -17.6696   25.0112 C   0  0  1  0  0  0  0  0  0  0  0  0
    6.9620  -18.5611   25.9284 C   0  0  0  0  0  0  0  0  0  0  0  0
    7.9747  -19.6359   26.9402 S   0  0  0  0  0  0  0  0  0  0  0  0
    8.8581  -17.0193   25.7988 C   0  0  0  0  0  0  0  0  0  0  0  0
   10.0308  -17.4408   25.6175 O   0  0  0  0  0  0  0  0  0  0  0  0
   10.5995  -13.4511   28.7590 C   0  0  0  0  0  0  0  0  0  0  0  0
    9.4417  -14.0375   27.9964 C   0  0  1  0  0  0  0  0  0  0  0  0
    8.9735  -13.0771   26.9348 C   0  0  0  0  0  0  0  0  0  0  0  0
    9.7586  -15.4045   27.4377 C   0  0  2  0  0  0  0  0  0  0  0  0
    8.6627  -15.9823   26.7185 N   0  0  0  0  0  0  0  0  0  0  0  0
   10.1466  -16.2543   28.6108 C   0  0  0  0  0  0  0  0  0  0  0  0
   11.3911  -16.1635   29.1945 O   0  0  0  0  0  0  0  0  0  0  0  0
    9.2723  -17.0548   29.0325 O   0  0  0  0  0  0  0  0  0  0  0  0
  2  1  1  6
  2  7  1  0
  3  2  1  0
  4  5  1  0
  4  3  1  0
  5  6  2  0
  7  8  2  0
  7 10  1  0
  9  5  1  0
 10 11  1  0
 11 14  1  0
 12 13  1  0
 11 12  1  1
 14 15  2  0
 14 20  1  0
 17 16  1  6
 17 18  1  0
 19 17  1  0
 19 20  1  1
 21 19  1  0
 21 22  1  0
 23 21  2  0
M  END
$$$$
