ECV.pdb
     RDKit          3D

 23 22  0  0  1  0  0  0  0  0999 V2000
    8.0343  -13.9670   19.8612 N   0  0  0  0  0  0  0  0  0  0  0  0
    7.8362  -14.8065   20.9813 C   0  0  1  0  0  0  0  0  0  0  0  0
    8.3991  -16.1790   20.9355 C   0  0  0  0  0  0  0  0  0  0  0  0
    8.1315  -17.0004   19.7357 C   0  0  0  0  0  0  0  0  0  0  0  0
    8.7744  -18.3101   19.6892 C   0  0  0  0  0  0  0  0  0  0  0  0
    8.6381  -19.1375   18.7748 O   0  0  0  0  0  0  0  0  0  0  0  0
    8.2585  -14.1687   22.2709 C   0  0  0  0  0  0  0  0  0  0  0  0
    8.4804  -12.9262   22.2140 O   0  0  0  0  0  0  0  0  0  0  0  0
    9.6130  -18.6230   20.7951 O   0  0  0  0  0  0  0  0  0  0  0  0
    8.4084  -14.8820   23.4876 N   0  0  0  0  0  0  0  0  0  0  0  0
    8.0569  -14.2659   24.7297 C   0  0  1  0  0  0  0  0  0  0  0  0
    6.5940  -13.8560   24.7828 C   0  0  0  0  0  0  0  0  0  0  0  0
    6.1034  -13.2436   26.3917 S   0  0  0  0  0  0  0  0  0  0  0  0
    8.3693  -15.1093   25.9083 C   0  0  0  0  0  0  0  0  0  0  0  0
    7.8520  -16.2570   25.9397 O   0  0  0  0  0  0  0  0  0  0  0  0
   11.9030  -13.8904   27.8809 C   0  0  0  0  0  0  0  0  0  0  0  0
   11.0689  -14.9591   28.5353 C   0  0  1  0  0  0  0  0  0  0  0  0
   10.3471  -14.3999   29.7333 C   0  0  0  0  0  0  0  0  0  0  0  0
   10.1318  -15.6306   27.5596 C   0  0  2  0  0  0  0  0  0  0  0  0
    9.1891  -14.7239   26.9755 N   0  0  0  0  0  0  0  0  0  0  0  0
    9.4376  -16.7153   28.3279 C   0  0  0  0  0  0  0  0  0  0  0  0
   10.1101  -17.8275   28.7844 O   0  0  0  0  0  0  0  0  0  0  0  0
    8.2069  -16.5531   28.5327 O   0  0  0  0  0  0  0  0  0  0  0  0
  2  1  1  6
  2  7  1  0
  3  2  1  0
  4  5  1  0
  4  3  1  0
  5  6  2  0
  7  8  2  0
  7 10  1  0
  9  5  1  0
 10 11  1  0
 11 14  1  0
 12 13  1  0
 11 12  1  6
 14 15  2  0
 14 20  1  0
 17 16  1  6
 17 18  1  0
 19 17  1  0
 19 20  1  1
 21 19  1  0
 21 22  1  0
 23 21  2  0
M  END
$$$$
