ECV.pdb
     RDKit          3D

 23 22  0  0  1  0  0  0  0  0999 V2000
    8.4591  -20.6330   21.2184 N   0  0  0  0  0  0  0  0  0  0  0  0
    8.8987  -19.2998   21.3861 C   0  0  1  0  0  0  0  0  0  0  0  0
    9.2030  -18.5050   20.1702 C   0  0  0  0  0  0  0  0  0  0  0  0
   10.1994  -19.0428   19.2196 C   0  0  0  0  0  0  0  0  0  0  0  0
   10.4547  -18.2431   18.0255 C   0  0  0  0  0  0  0  0  0  0  0  0
    9.7080  -18.1829   17.0364 O   0  0  0  0  0  0  0  0  0  0  0  0
    7.9881  -18.4904   22.2603 C   0  0  0  0  0  0  0  0  0  0  0  0
    6.9204  -18.0955   21.7124 O   0  0  0  0  0  0  0  0  0  0  0  0
   11.6617  -17.4899   18.0362 O   0  0  0  0  0  0  0  0  0  0  0  0
    8.2757  -18.1722   23.6122 N   0  0  0  0  0  0  0  0  0  0  0  0
    7.3321  -17.4333   24.3928 C   0  0  1  0  0  0  0  0  0  0  0  0
    6.7453  -18.2557   25.5286 C   0  0  0  0  0  0  0  0  0  0  0  0
    7.5591  -19.8370   25.7323 S   0  0  0  0  0  0  0  0  0  0  0  0
    7.8883  -16.1730   24.9412 C   0  0  0  0  0  0  0  0  0  0  0  0
    9.1420  -16.0552   24.9368 O   0  0  0  0  0  0  0  0  0  0  0  0
    7.4152  -11.6389   26.9172 C   0  0  0  0  0  0  0  0  0  0  0  0
    6.7551  -12.8455   26.3053 C   0  0  1  0  0  0  0  0  0  0  0  0
    5.9482  -12.4452   25.0981 C   0  0  0  0  0  0  0  0  0  0  0  0
    7.7445  -13.9446   25.9986 C   0  0  2  0  0  0  0  0  0  0  0  0
    7.1266  -15.1179   25.4569 N   0  0  0  0  0  0  0  0  0  0  0  0
    8.4452  -14.2466   27.2896 C   0  0  0  0  0  0  0  0  0  0  0  0
    9.4509  -13.4412   27.7768 O   0  0  0  0  0  0  0  0  0  0  0  0
    8.0633  -15.2764   27.9033 O   0  0  0  0  0  0  0  0  0  0  0  0
  2  1  1  6
  2  7  1  0
  3  2  1  0
  4  5  1  0
  4  3  1  0
  5  6  2  0
  7  8  2  0
  7 10  1  0
  9  5  1  0
 10 11  1  0
 11 14  1  0
 12 13  1  0
 11 12  1  1
 14 15  2  0
 14 20  1  0
 17 16  1  6
 17 18  1  0
 19 17  1  0
 19 20  1  1
 21 19  1  0
 21 22  1  0
 23 21  2  0
M  END
$$$$
