CAY.pdb
     RDKit          3D

 24 24  0  0  1  0  0  0  0  0999 V2000
   30.1229  -24.5995  -16.5306 N   0  0  0  0  0  0  0  0  0  0  0  0
   30.1835  -23.5748  -17.5564 C   0  0  1  0  0  0  0  0  0  0  0  0
   29.9914  -24.2339  -18.9040 C   0  0  0  0  0  0  0  0  0  0  0  0
   31.3422  -25.3945  -19.2449 S   0  0  0  0  0  0  0  0  0  0  0  0
   29.0876  -22.5889  -17.2818 C   0  0  0  0  0  0  0  0  0  0  0  0
   27.9982  -22.9490  -16.7595 O   0  0  0  0  0  0  0  0  0  0  0  0
   28.7261  -18.8808  -17.5026 C   0  0  0  0  0  0  0  0  0  0  0  0
   28.1650  -20.2800  -17.3071 C   0  0  2  0  0  0  0  0  0  0  0  0
   29.2186  -21.2097  -17.5931 N   0  0  0  0  0  0  0  0  0  0  0  0
   26.9503  -20.5130  -18.1046 C   0  0  0  0  0  0  0  0  0  0  0  0
   27.1016  -20.8475  -19.3105 O   0  0  0  0  0  0  0  0  0  0  0  0
   21.5722  -20.8209  -12.6762 O   0  0  0  0  0  0  0  0  0  0  0  0
   22.1114  -21.0557  -13.9361 C   0  0  0  0  0  0  0  0  0  0  0  0
   23.4465  -21.3463  -14.1236 C   0  0  0  0  0  0  0  0  0  0  0  0
   23.9682  -21.5773  -15.3796 C   0  0  0  0  0  0  0  0  0  0  0  0
   23.1694  -21.5270  -16.5121 C   0  0  0  0  0  0  0  0  0  0  0  0
   23.7250  -21.7652  -17.8597 C   0  0  0  0  0  0  0  0  0  0  0  0
   24.4386  -20.5772  -18.4536 C   0  0  2  0  0  0  0  0  0  0  0  0
   25.6302  -20.3931  -17.6319 N   0  0  0  0  0  0  0  0  0  0  0  0
   23.5612  -19.4003  -18.4196 C   0  0  0  0  0  0  0  0  0  0  0  0
   23.7875  -18.5027  -17.5699 O   0  0  0  0  0  0  0  0  0  0  0  0
   21.8369  -21.2358  -16.3152 C   0  0  0  0  0  0  0  0  0  0  0  0
   21.3084  -21.0032  -15.0557 C   0  0  0  0  0  0  0  0  0  0  0  0
   22.4930  -19.2277  -19.2803 O   0  0  0  0  0  0  0  0  0  0  0  0
  2  1  1  1
  2  3  1  0
  3  4  1  0
  5  2  1  0
  6  5  2  0
  8  7  1  6
  8  9  1  0
  9  5  1  0
 10  8  1  0
 10 19  1  0
 11 10  2  0
 13 12  1  0
 14 13  2  0
 15 14  1  0
 16 22  1  0
 16 15  2  0
 17 16  1  0
 18 19  1  0
 18 17  1  1
 20 18  1  0
 21 20  2  0
 22 23  2  0
 23 13  1  0
 24 20  1  0
M  END
$$$$
