CAY.pdb
     RDKit          3D

 24 24  0  0  1  0  0  0  0  0999 V2000
   19.2605  -15.0114  -16.8589 N   0  0  0  0  0  0  0  0  0  0  0  0
   18.1854  -14.0442  -16.7380 C   0  0  1  0  0  0  0  0  0  0  0  0
   17.4601  -14.2943  -15.4346 C   0  0  0  0  0  0  0  0  0  0  0  0
   16.3682  -15.7347  -15.5784 S   0  0  0  0  0  0  0  0  0  0  0  0
   18.7985  -12.6759  -16.7554 C   0  0  0  0  0  0  0  0  0  0  0  0
   19.8795  -12.4348  -16.1532 O   0  0  0  0  0  0  0  0  0  0  0  0
   18.1046   -9.4586  -18.5059 C   0  0  0  0  0  0  0  0  0  0  0  0
   18.7840  -10.2807  -17.4227 C   0  0  2  0  0  0  0  0  0  0  0  0
   18.1985  -11.5895  -17.4451 N   0  0  0  0  0  0  0  0  0  0  0  0
   18.7145   -9.6342  -16.1024 C   0  0  0  0  0  0  0  0  0  0  0  0
   17.7514   -9.9466  -15.3518 O   0  0  0  0  0  0  0  0  0  0  0  0
   24.7992   -4.9180  -16.3781 O   0  0  0  0  0  0  0  0  0  0  0  0
   23.8436   -5.6859  -15.7220 C   0  0  0  0  0  0  0  0  0  0  0  0
   22.8957   -5.1288  -14.8893 C   0  0  0  0  0  0  0  0  0  0  0  0
   21.9531   -5.9027  -14.2447 C   0  0  0  0  0  0  0  0  0  0  0  0
   21.9181   -7.2796  -14.4068 C   0  0  0  0  0  0  0  0  0  0  0  0
   20.9163   -8.1133  -13.7121 C   0  0  0  0  0  0  0  0  0  0  0  0
   19.5322   -8.0411  -14.3057 C   0  0  2  0  0  0  0  0  0  0  0  0
   19.6365   -8.6935  -15.6067 N   0  0  0  0  0  0  0  0  0  0  0  0
   19.1142   -6.6387  -14.4269 C   0  0  0  0  0  0  0  0  0  0  0  0
   19.1206   -6.1027  -15.5633 O   0  0  0  0  0  0  0  0  0  0  0  0
   22.8690   -7.8274  -15.2403 C   0  0  0  0  0  0  0  0  0  0  0  0
   23.8176   -7.0541  -15.8900 C   0  0  0  0  0  0  0  0  0  0  0  0
   18.7106   -5.8735  -13.3483 O   0  0  0  0  0  0  0  0  0  0  0  0
  2  1  1  1
  2  3  1  0
  3  4  1  0
  5  2  1  0
  6  5  2  0
  8  7  1  6
  8  9  1  0
  9  5  1  0
 10  8  1  0
 10 19  1  0
 11 10  2  0
 13 12  1  0
 14 13  2  0
 15 14  1  0
 16 22  1  0
 16 15  2  0
 17 16  1  0
 18 19  1  0
 18 17  1  6
 20 18  1  0
 21 20  2  0
 22 23  2  0
 23 13  1  0
 24 20  1  0
M  END
$$$$
