CAY.pdb
     RDKit          3D

 24 24  0  0  1  0  0  0  0  0999 V2000
   16.0170  -12.8085  -17.3210 N   0  0  0  0  0  0  0  0  0  0  0  0
   16.4257  -11.9607  -16.2163 C   0  0  1  0  0  0  0  0  0  0  0  0
   16.9725  -12.8401  -15.1141 C   0  0  0  0  0  0  0  0  0  0  0  0
   15.6359  -13.7740  -14.3209 S   0  0  0  0  0  0  0  0  0  0  0  0
   17.4797  -11.0237  -16.7259 C   0  0  0  0  0  0  0  0  0  0  0  0
   18.4063  -11.4275  -17.4793 O   0  0  0  0  0  0  0  0  0  0  0  0
   18.0725   -7.3458  -16.6153 C   0  0  0  0  0  0  0  0  0  0  0  0
   18.5356   -8.7756  -16.8437 C   0  0  2  0  0  0  0  0  0  0  0  0
   17.4890   -9.6443  -16.3893 N   0  0  0  0  0  0  0  0  0  0  0  0
   19.8361   -9.0508  -16.2122 C   0  0  0  0  0  0  0  0  0  0  0  0
   19.8346   -9.3700  -14.9928 O   0  0  0  0  0  0  0  0  0  0  0  0
   28.5256  -11.0501  -15.5184 O   0  0  0  0  0  0  0  0  0  0  0  0
   27.2496  -10.7014  -15.9469 C   0  0  0  0  0  0  0  0  0  0  0  0
   26.1592  -11.5252  -15.7609 C   0  0  0  0  0  0  0  0  0  0  0  0
   24.8986  -11.1665  -16.1911 C   0  0  0  0  0  0  0  0  0  0  0  0
   24.6726   -9.9574  -16.8316 C   0  0  0  0  0  0  0  0  0  0  0  0
   23.3263   -9.5727  -17.3016 C   0  0  0  0  0  0  0  0  0  0  0  0
   22.3682   -9.2020  -16.1981 C   0  0  2  0  0  0  0  0  0  0  0  0
   21.0847   -8.9872  -16.8582 N   0  0  0  0  0  0  0  0  0  0  0  0
   22.8416   -7.9932  -15.5119 C   0  0  0  0  0  0  0  0  0  0  0  0
   22.7357   -6.8861  -16.0967 O   0  0  0  0  0  0  0  0  0  0  0  0
   25.7678   -9.1409  -17.0132 C   0  0  0  0  0  0  0  0  0  0  0  0
   27.0359   -9.4968  -16.5828 C   0  0  0  0  0  0  0  0  0  0  0  0
   23.4004   -8.0108  -14.2473 O   0  0  0  0  0  0  0  0  0  0  0  0
  2  1  1  6
  2  3  1  0
  3  4  1  0
  5  2  1  0
  6  5  2  0
  8  7  1  1
  8  9  1  0
  9  5  1  0
 10  8  1  0
 10 19  1  0
 11 10  2  0
 13 12  1  0
 14 13  2  0
 15 14  1  0
 16 22  1  0
 16 15  2  0
 17 16  1  0
 18 19  1  0
 18 17  1  6
 20 18  1  0
 21 20  2  0
 22 23  2  0
 23 13  1  0
 24 20  1  0
M  END
$$$$
