CAY.pdb
     RDKit          3D

 24 24  0  0  1  0  0  0  0  0999 V2000
   18.5985  -14.7033  -16.9558 N   0  0  0  0  0  0  0  0  0  0  0  0
   17.8928  -13.8229  -16.0430 C   0  0  1  0  0  0  0  0  0  0  0  0
   18.4596  -14.0182  -14.6546 C   0  0  0  0  0  0  0  0  0  0  0  0
   17.7316  -15.4809  -13.8682 S   0  0  0  0  0  0  0  0  0  0  0  0
   18.1025  -12.4147  -16.5136 C   0  0  0  0  0  0  0  0  0  0  0  0
   19.2502  -11.9889  -16.8149 O   0  0  0  0  0  0  0  0  0  0  0  0
   15.8831   -9.5916  -17.5030 C   0  0  0  0  0  0  0  0  0  0  0  0
   17.2427  -10.1679  -17.1422 C   0  0  2  0  0  0  0  0  0  0  0  0
   17.0285  -11.4951  -16.6432 N   0  0  0  0  0  0  0  0  0  0  0  0
   17.9859   -9.3074  -16.2079 C   0  0  0  0  0  0  0  0  0  0  0  0
   17.8391   -9.5245  -14.9750 O   0  0  0  0  0  0  0  0  0  0  0  0
   22.5302   -1.9370  -13.9050 O   0  0  0  0  0  0  0  0  0  0  0  0
   22.0359   -3.0709  -14.5399 C   0  0  0  0  0  0  0  0  0  0  0  0
   21.1077   -2.9998  -15.5576 C   0  0  0  0  0  0  0  0  0  0  0  0
   20.6259   -4.1333  -16.1791 C   0  0  0  0  0  0  0  0  0  0  0  0
   21.0557   -5.3978  -15.8057 C   0  0  0  0  0  0  0  0  0  0  0  0
   20.5364   -6.6146  -16.4622 C   0  0  0  0  0  0  0  0  0  0  0  0
   19.5424   -7.3885  -15.6337 C   0  0  2  0  0  0  0  0  0  0  0  0
   18.8493   -8.2592  -16.5773 N   0  0  0  0  0  0  0  0  0  0  0  0
   18.6216   -6.4608  -14.9646 C   0  0  0  0  0  0  0  0  0  0  0  0
   17.6394   -6.0150  -15.6091 O   0  0  0  0  0  0  0  0  0  0  0  0
   21.9829   -5.4592  -14.7880 C   0  0  0  0  0  0  0  0  0  0  0  0
   22.4699   -4.3235  -14.1609 C   0  0  0  0  0  0  0  0  0  0  0  0
   18.7803   -6.0510  -13.6537 O   0  0  0  0  0  0  0  0  0  0  0  0
  2  1  1  6
  2  3  1  0
  3  4  1  0
  5  2  1  0
  6  5  2  0
  8  7  1  1
  8  9  1  0
  9  5  1  0
 10  8  1  0
 10 19  1  0
 11 10  2  0
 13 12  1  0
 14 13  2  0
 15 14  1  0
 16 22  1  0
 16 15  2  0
 17 16  1  0
 18 19  1  0
 18 17  1  6
 20 18  1  0
 21 20  2  0
 22 23  2  0
 23 13  1  0
 24 20  1  0
M  END
$$$$
