CAY.pdb
     RDKit          3D

 24 24  0  0  1  0  0  0  0  0999 V2000
   16.2006  -14.7380  -15.8050 N   0  0  0  0  0  0  0  0  0  0  0  0
   16.0025  -13.5309  -16.5859 C   0  0  1  0  0  0  0  0  0  0  0  0
   14.5257  -13.3864  -16.8783 C   0  0  0  0  0  0  0  0  0  0  0  0
   14.2228  -11.9445  -17.9352 S   0  0  0  0  0  0  0  0  0  0  0  0
   16.5028  -12.3743  -15.7731 C   0  0  0  0  0  0  0  0  0  0  0  0
   16.0219  -12.1157  -14.6367 O   0  0  0  0  0  0  0  0  0  0  0  0
   19.5119  -10.4792  -15.4060 C   0  0  0  0  0  0  0  0  0  0  0  0
   17.9939  -10.4114  -15.4475 C   0  0  2  0  0  0  0  0  0  0  0  0
   17.5355  -11.5174  -16.2369 N   0  0  0  0  0  0  0  0  0  0  0  0
   17.5043   -9.1098  -15.9290 C   0  0  0  0  0  0  0  0  0  0  0  0
   17.4610   -8.9297  -17.1758 O   0  0  0  0  0  0  0  0  0  0  0  0
   11.2112   -8.2386  -12.2234 O   0  0  0  0  0  0  0  0  0  0  0  0
   12.1768   -7.9575  -13.1835 C   0  0  0  0  0  0  0  0  0  0  0  0
   12.4765   -6.6684  -13.5716 C   0  0  0  0  0  0  0  0  0  0  0  0
   13.4373   -6.4038  -14.5255 C   0  0  0  0  0  0  0  0  0  0  0  0
   14.1459   -7.4268  -15.1376 C   0  0  0  0  0  0  0  0  0  0  0  0
   15.1694   -7.1491  -16.1656 C   0  0  0  0  0  0  0  0  0  0  0  0
   16.5243   -6.7920  -15.6090 C   0  0  2  0  0  0  0  0  0  0  0  0
   17.0792   -8.0463  -15.1111 N   0  0  0  0  0  0  0  0  0  0  0  0
   16.3778   -5.7945  -14.5414 C   0  0  0  0  0  0  0  0  0  0  0  0
   16.5002   -6.1657  -13.3473 O   0  0  0  0  0  0  0  0  0  0  0  0
   13.8396   -8.7115  -14.7439 C   0  0  0  0  0  0  0  0  0  0  0  0
   12.8755   -8.9821  -13.7861 C   0  0  0  0  0  0  0  0  0  0  0  0
   16.1114   -4.4597  -14.7844 O   0  0  0  0  0  0  0  0  0  0  0  0
  2  1  1  1
  2  3  1  0
  3  4  1  0
  5  2  1  0
  6  5  2  0
  8  7  1  6
  8  9  1  0
  9  5  1  0
 10  8  1  0
 10 19  1  0
 11 10  2  0
 13 12  1  0
 14 13  2  0
 15 14  1  0
 16 22  1  0
 16 15  2  0
 17 16  1  0
 18 19  1  0
 18 17  1  1
 20 18  1  0
 21 20  2  0
 22 23  2  0
 23 13  1  0
 24 20  1  0
M  END
$$$$
