CAY.pdb
     RDKit          3D

 24 24  0  0  1  0  0  0  0  0999 V2000
   26.4771  -17.9791  -17.6730 N   0  0  0  0  0  0  0  0  0  0  0  0
   26.8663  -17.7891  -16.2879 C   0  0  1  0  0  0  0  0  0  0  0  0
   25.8331  -16.9127  -15.6157 C   0  0  0  0  0  0  0  0  0  0  0  0
   26.6366  -15.6070  -14.6476 S   0  0  0  0  0  0  0  0  0  0  0  0
   26.9245  -19.1405  -15.6407 C   0  0  0  0  0  0  0  0  0  0  0  0
   26.2155  -20.0966  -16.0559 O   0  0  0  0  0  0  0  0  0  0  0  0
   29.1954  -20.7847  -13.2059 C   0  0  0  0  0  0  0  0  0  0  0  0
   27.9035  -20.7376  -14.0057 C   0  0  2  0  0  0  0  0  0  0  0  0
   27.7740  -19.4114  -14.5357 N   0  0  0  0  0  0  0  0  0  0  0  0
   26.7387  -21.1646  -13.2139 C   0  0  0  0  0  0  0  0  0  0  0  0
   26.6629  -22.3834  -12.9017 O   0  0  0  0  0  0  0  0  0  0  0  0
   28.2623  -20.9775   -6.7734 O   0  0  0  0  0  0  0  0  0  0  0  0
   27.3292  -20.6915   -7.7637 C   0  0  0  0  0  0  0  0  0  0  0  0
   26.8718  -19.4114   -7.9973 C   0  0  0  0  0  0  0  0  0  0  0  0
   25.9456  -19.1418   -8.9835 C   0  0  0  0  0  0  0  0  0  0  0  0
   25.4327  -20.1502   -9.7855 C   0  0  0  0  0  0  0  0  0  0  0  0
   24.4346  -19.8678  -10.8369 C   0  0  0  0  0  0  0  0  0  0  0  0
   24.5256  -20.7764  -12.0366 C   0  0  2  0  0  0  0  0  0  0  0  0
   25.6996  -20.3230  -12.7751 N   0  0  0  0  0  0  0  0  0  0  0  0
   23.2990  -20.6701  -12.8368 C   0  0  0  0  0  0  0  0  0  0  0  0
   23.3693  -20.1663  -13.9857 O   0  0  0  0  0  0  0  0  0  0  0  0
   25.8952  -21.4259   -9.5448 C   0  0  0  0  0  0  0  0  0  0  0  0
   26.8254  -21.7015   -8.5555 C   0  0  0  0  0  0  0  0  0  0  0  0
   22.0635  -21.0994  -12.3885 O   0  0  0  0  0  0  0  0  0  0  0  0
  2  1  1  6
  2  3  1  0
  3  4  1  0
  5  2  1  0
  6  5  2  0
  8  7  1  1
  8  9  1  0
  9  5  1  0
 10  8  1  0
 10 19  1  0
 11 10  2  0
 13 12  1  0
 14 13  2  0
 15 14  1  0
 16 22  1  0
 16 15  2  0
 17 16  1  0
 18 19  1  0
 18 17  1  1
 20 18  1  0
 21 20  2  0
 22 23  2  0
 23 13  1  0
 24 20  1  0
M  END
$$$$
