CAY.pdb
     RDKit          3D

 24 24  0  0  1  0  0  0  0  0999 V2000
   19.9749  -13.4438  -17.4981 N   0  0  0  0  0  0  0  0  0  0  0  0
   19.0126  -12.4808  -16.9954 C   0  0  1  0  0  0  0  0  0  0  0  0
   18.6495  -12.8616  -15.5775 C   0  0  0  0  0  0  0  0  0  0  0  0
   17.2136  -13.9687  -15.5622 S   0  0  0  0  0  0  0  0  0  0  0  0
   19.6568  -11.1274  -17.0377 C   0  0  0  0  0  0  0  0  0  0  0  0
   20.8366  -10.9504  -16.6300 O   0  0  0  0  0  0  0  0  0  0  0  0
   18.7302   -7.7798  -18.4038 C   0  0  0  0  0  0  0  0  0  0  0  0
   19.6176   -8.7018  -17.5833 C   0  0  2  0  0  0  0  0  0  0  0  0
   18.9774   -9.9841  -17.5350 N   0  0  0  0  0  0  0  0  0  0  0  0
   19.9189   -8.1509  -16.2523 C   0  0  0  0  0  0  0  0  0  0  0  0
   19.1377   -8.4487  -15.3091 O   0  0  0  0  0  0  0  0  0  0  0  0
   26.2733   -4.5334  -18.0683 O   0  0  0  0  0  0  0  0  0  0  0  0
   25.4148   -5.1447  -17.1614 C   0  0  0  0  0  0  0  0  0  0  0  0
   24.9481   -4.4967  -16.0369 C   0  0  0  0  0  0  0  0  0  0  0  0
   24.0965   -5.1154  -15.1453 C   0  0  0  0  0  0  0  0  0  0  0  0
   23.6713   -6.4207  -15.3422 C   0  0  0  0  0  0  0  0  0  0  0  0
   22.7664   -7.0902  -14.3861 C   0  0  0  0  0  0  0  0  0  0  0  0
   21.3040   -6.8005  -14.6114 C   0  0  2  0  0  0  0  0  0  0  0  0
   21.0098   -7.3169  -15.9440 N   0  0  0  0  0  0  0  0  0  0  0  0
   21.0617   -5.3553  -14.5169 C   0  0  0  0  0  0  0  0  0  0  0  0
   20.8319   -4.7113  -15.5711 O   0  0  0  0  0  0  0  0  0  0  0  0
   24.1428   -7.0603  -16.4682 C   0  0  0  0  0  0  0  0  0  0  0  0
   24.9983   -6.4430  -17.3666 C   0  0  0  0  0  0  0  0  0  0  0  0
   21.0726   -4.6629  -13.3202 O   0  0  0  0  0  0  0  0  0  0  0  0
  2  1  1  1
  2  3  1  0
  3  4  1  0
  5  2  1  0
  6  5  2  0
  8  7  1  1
  8  9  1  0
  9  5  1  0
 10  8  1  0
 10 19  1  0
 11 10  2  0
 13 12  1  0
 14 13  2  0
 15 14  1  0
 16 22  1  0
 16 15  2  0
 17 16  1  0
 18 19  1  0
 18 17  1  6
 20 18  1  0
 21 20  2  0
 22 23  2  0
 23 13  1  0
 24 20  1  0
M  END
$$$$
