CAY.pdb
     RDKit          3D

 24 24  0  0  1  0  0  0  0  0999 V2000
   24.7179  -16.8345  -18.5665 N   0  0  0  0  0  0  0  0  0  0  0  0
   23.6947  -17.3661  -17.6852 C   0  0  1  0  0  0  0  0  0  0  0  0
   22.4086  -16.6102  -17.9334 C   0  0  0  0  0  0  0  0  0  0  0  0
   21.8623  -16.8265  -19.6488 S   0  0  0  0  0  0  0  0  0  0  0  0
   23.5297  -18.8221  -18.0036 C   0  0  0  0  0  0  0  0  0  0  0  0
   24.2654  -19.3944  -18.8525 O   0  0  0  0  0  0  0  0  0  0  0  0
   24.4282  -20.8221  -16.5376 C   0  0  0  0  0  0  0  0  0  0  0  0
   22.9098  -20.7693  -16.5871 C   0  0  2  0  0  0  0  0  0  0  0  0
   22.5446  -19.6254  -17.3711 N   0  0  0  0  0  0  0  0  0  0  0  0
   22.3052  -20.7727  -15.2453 C   0  0  0  0  0  0  0  0  0  0  0  0
   22.5753  -21.7436  -14.4881 O   0  0  0  0  0  0  0  0  0  0  0  0
   18.6105  -13.9704  -14.9984 O   0  0  0  0  0  0  0  0  0  0  0  0
   19.2433  -15.0866  -14.4628 C   0  0  0  0  0  0  0  0  0  0  0  0
   20.0633  -15.9007  -15.2159 C   0  0  0  0  0  0  0  0  0  0  0  0
   20.6851  -17.0053  -14.6716 C   0  0  0  0  0  0  0  0  0  0  0  0
   20.5117  -17.3459  -13.3385 C   0  0  0  0  0  0  0  0  0  0  0  0
   21.1685  -18.5323  -12.7532 C   0  0  0  0  0  0  0  0  0  0  0  0
   20.8088  -19.8332  -13.4252 C   0  0  2  0  0  0  0  0  0  0  0  0
   21.4481  -19.7796  -14.7358 N   0  0  0  0  0  0  0  0  0  0  0  0
   19.3492  -19.9529  -13.5310 C   0  0  0  0  0  0  0  0  0  0  0  0
   18.6755  -20.0774  -12.4776 O   0  0  0  0  0  0  0  0  0  0  0  0
   19.6907  -16.5270  -12.5938 C   0  0  0  0  0  0  0  0  0  0  0  0
   19.0641  -15.4165  -13.1362 C   0  0  0  0  0  0  0  0  0  0  0  0
   18.6739  -19.9345  -14.7374 O   0  0  0  0  0  0  0  0  0  0  0  0
  2  1  1  6
  2  3  1  0
  3  4  1  0
  5  2  1  0
  6  5  2  0
  8  7  1  1
  8  9  1  0
  9  5  1  0
 10  8  1  0
 10 19  1  0
 11 10  2  0
 13 12  1  0
 14 13  2  0
 15 14  1  0
 16 22  1  0
 16 15  2  0
 17 16  1  0
 18 19  1  0
 18 17  1  1
 20 18  1  0
 21 20  2  0
 22 23  2  0
 23 13  1  0
 24 20  1  0
M  END
$$$$
