CAY.pdb
     RDKit          3D

 24 24  0  0  1  0  0  0  0  0999 V2000
   28.6918  -22.1154  -20.6619 N   0  0  0  0  0  0  0  0  0  0  0  0
   29.5888  -21.5498  -19.6712 C   0  0  1  0  0  0  0  0  0  0  0  0
   30.6750  -20.7821  -20.3910 C   0  0  0  0  0  0  0  0  0  0  0  0
   32.0135  -21.8951  -20.8985 S   0  0  0  0  0  0  0  0  0  0  0  0
   28.7831  -20.6402  -18.7926 C   0  0  0  0  0  0  0  0  0  0  0  0
   29.3330  -19.9198  -17.9162 O   0  0  0  0  0  0  0  0  0  0  0  0
   25.3754  -19.2486  -18.7726 C   0  0  0  0  0  0  0  0  0  0  0  0
   26.6133  -19.7052  -18.0177 C   0  0  2  0  0  0  0  0  0  0  0  0
   27.3707  -20.5436  -18.9008 N   0  0  0  0  0  0  0  0  0  0  0  0
   26.2820  -20.3549  -16.7395 C   0  0  0  0  0  0  0  0  0  0  0  0
   26.0931  -21.6011  -16.7522 O   0  0  0  0  0  0  0  0  0  0  0  0
   25.1442  -21.3080   -7.9060 O   0  0  0  0  0  0  0  0  0  0  0  0
   25.4717  -20.8874   -9.1902 C   0  0  0  0  0  0  0  0  0  0  0  0
   24.8792  -19.7901   -9.7794 C   0  0  0  0  0  0  0  0  0  0  0  0
   25.2137  -19.3836  -11.0545 C   0  0  0  0  0  0  0  0  0  0  0  0
   26.1639  -20.0636  -11.8016 C   0  0  0  0  0  0  0  0  0  0  0  0
   26.5192  -19.6374  -13.1703 C   0  0  0  0  0  0  0  0  0  0  0  0
   25.7557  -20.3495  -14.2580 C   0  0  2  0  0  0  0  0  0  0  0  0
   26.1581  -19.6990  -15.5006 N   0  0  0  0  0  0  0  0  0  0  0  0
   24.3125  -20.2267  -14.0165 C   0  0  0  0  0  0  0  0  0  0  0  0
   23.7075  -19.2233  -14.4704 O   0  0  0  0  0  0  0  0  0  0  0  0
   26.7504  -21.1587  -11.2049 C   0  0  0  0  0  0  0  0  0  0  0  0
   26.4177  -21.5706   -9.9245 C   0  0  0  0  0  0  0  0  0  0  0  0
   23.5807  -21.1647  -13.3120 O   0  0  0  0  0  0  0  0  0  0  0  0
  2  1  1  6
  2  3  1  0
  3  4  1  0
  5  2  1  0
  6  5  2  0
  8  7  1  6
  8  9  1  0
  9  5  1  0
 10  8  1  0
 10 19  1  0
 11 10  2  0
 13 12  1  0
 14 13  2  0
 15 14  1  0
 16 22  1  0
 16 15  2  0
 17 16  1  0
 18 19  1  0
 18 17  1  1
 20 18  1  0
 21 20  2  0
 22 23  2  0
 23 13  1  0
 24 20  1  0
M  END
$$$$
