PNC.pdb
     RDKit          3D

 22 22  0  0  1  0  0  0  0  0999 V2000
   28.3981  -19.1642  -17.4387 N   0  0  0  0  0  0  0  0  0  0  0  0
   29.5902  -19.0028  -18.2870 C   0  0  0  0  0  0  0  0  0  0  0  0
   29.6496  -20.3275  -18.9933 C   0  0  0  0  0  0  0  0  0  0  0  0
   28.1931  -20.5985  -19.3098 C   0  0  0  0  0  0  0  0  0  0  0  0
   27.4484  -19.6705  -18.3746 C   0  0  1  0  0  0  0  0  0  0  0  0
   26.3033  -20.3610  -17.7212 C   0  0  0  0  0  0  0  0  0  0  0  0
   25.3433  -20.8410  -18.3496 O   0  0  0  0  0  0  0  0  0  0  0  0
   24.8014  -24.1890  -13.7580 N   0  0  0  0  0  0  0  0  0  0  0  0
   24.9405  -22.7665  -13.6569 C   0  0  0  0  0  0  0  0  0  0  0  0
   24.1845  -22.2022  -12.7914 O   0  0  0  0  0  0  0  0  0  0  0  0
   25.8888  -22.0131  -14.4930 C   0  0  0  0  0  0  0  0  0  0  0  0
   25.2829  -21.1187  -15.5213 C   0  0  2  0  0  0  0  0  0  0  0  0
   26.2953  -20.4843  -16.3018 N   0  0  0  0  0  0  0  0  0  0  0  0
   24.1964  -20.2525  -15.0384 C   0  0  0  0  0  0  0  0  0  0  0  0
   24.5379  -19.2905  -14.2752 O   0  0  0  0  0  0  0  0  0  0  0  0
   22.8265  -20.3701  -15.3216 N   0  0  0  0  0  0  0  0  0  0  0  0
   21.8329  -19.4081  -14.8285 C   0  0  1  0  0  0  0  0  0  0  0  0
   21.5212  -18.3396  -15.8520 C   0  0  0  0  0  0  0  0  0  0  0  0
   20.0885  -17.4181  -15.2332 S   0  0  0  0  0  0  0  0  0  0  0  0
   20.6124  -20.1391  -14.4544 C   0  0  0  0  0  0  0  0  0  0  0  0
   20.2690  -21.1702  -15.1007 O   0  0  0  0  0  0  0  0  0  0  0  0
   19.7675  -19.7726  -13.4013 O   0  0  0  0  0  0  0  0  0  0  0  0
  1  2  1  0
  3  4  1  0
  3  2  1  0
  4  5  1  0
  5  1  1  0
  5  6  1  1
  7  6  2  0
  9 11  1  0
  9  8  1  0
 10  9  2  0
 12 11  1  1
 12 13  1  0
 12 14  1  0
 13  6  1  0
 14 16  1  0
 15 14  2  0
 16 17  1  0
 17 20  1  0
 17 18  1  6
 18 19  1  0
 20 21  2  0
 20 22  1  0
M  END
$$$$
