PNC.pdb
     RDKit          3D

 22 22  0  0  1  0  0  0  0  0999 V2000
   25.9377  -18.6453  -15.8274 N   0  0  0  0  0  0  0  0  0  0  0  0
   26.4770  -17.3326  -16.2182 C   0  0  0  0  0  0  0  0  0  0  0  0
   27.6726  -17.2079  -15.3171 C   0  0  0  0  0  0  0  0  0  0  0  0
   28.2541  -18.6066  -15.3448 C   0  0  0  0  0  0  0  0  0  0  0  0
   27.1108  -19.4559  -15.8567 C   0  0  1  0  0  0  0  0  0  0  0  0
   26.9683  -20.7092  -15.0670 C   0  0  0  0  0  0  0  0  0  0  0  0
   27.8875  -21.5335  -14.9176 O   0  0  0  0  0  0  0  0  0  0  0  0
   25.4609  -21.5183  -10.1809 N   0  0  0  0  0  0  0  0  0  0  0  0
   26.4237  -20.6441  -10.7823 C   0  0  0  0  0  0  0  0  0  0  0  0
   27.2255  -20.0682   -9.9671 O   0  0  0  0  0  0  0  0  0  0  0  0
   26.4811  -20.4281  -12.2370 C   0  0  0  0  0  0  0  0  0  0  0  0
   25.5053  -21.2090  -13.0508 C   0  0  2  0  0  0  0  0  0  0  0  0
   25.7176  -20.9902  -14.4450 N   0  0  0  0  0  0  0  0  0  0  0  0
   24.1102  -21.1468  -12.5883 C   0  0  0  0  0  0  0  0  0  0  0  0
   23.7606  -22.0209  -11.7291 O   0  0  0  0  0  0  0  0  0  0  0  0
   23.1216  -20.2351  -12.9907 N   0  0  0  0  0  0  0  0  0  0  0  0
   21.7705  -20.2306  -12.4159 C   0  0  1  0  0  0  0  0  0  0  0  0
   21.6285  -19.2109  -11.3086 C   0  0  0  0  0  0  0  0  0  0  0  0
   19.9353  -19.3498  -10.6773 S   0  0  0  0  0  0  0  0  0  0  0  0
   20.8006  -19.9675  -13.4901 C   0  0  0  0  0  0  0  0  0  0  0  0
   21.1679  -19.3694  -14.5418 O   0  0  0  0  0  0  0  0  0  0  0  0
   19.4528  -20.3393  -13.4415 O   0  0  0  0  0  0  0  0  0  0  0  0
  1  2  1  0
  3  4  1  0
  3  2  1  0
  4  5  1  0
  5  1  1  0
  5  6  1  1
  7  6  2  0
  9 11  1  0
  9  8  1  0
 10  9  2  0
 12 11  1  1
 12 13  1  0
 12 14  1  0
 13  6  1  0
 14 16  1  0
 15 14  2  0
 16 17  1  0
 17 20  1  0
 17 18  1  1
 18 19  1  0
 20 21  2  0
 20 22  1  0
M  END
$$$$
