PNC.pdb
     RDKit          3D

 22 22  0  0  1  0  0  0  0  0999 V2000
   24.7043  -12.0649  -15.5868 N   0  0  0  0  0  0  0  0  0  0  0  0
   25.4280  -13.2876  -15.9713 C   0  0  0  0  0  0  0  0  0  0  0  0
   24.6627  -13.7319  -17.1854 C   0  0  0  0  0  0  0  0  0  0  0  0
   24.3987  -12.4254  -17.9056 C   0  0  0  0  0  0  0  0  0  0  0  0
   24.6195  -11.3792  -16.8345 C   0  0  1  0  0  0  0  0  0  0  0  0
   23.5492  -10.3454  -16.8552 C   0  0  0  0  0  0  0  0  0  0  0  0
   23.2989   -9.6376  -17.8468 O   0  0  0  0  0  0  0  0  0  0  0  0
   20.0367  -10.8403  -17.1187 N   0  0  0  0  0  0  0  0  0  0  0  0
   19.7239  -10.6283  -15.7366 C   0  0  0  0  0  0  0  0  0  0  0  0
   18.6943  -11.2551  -15.3054 O   0  0  0  0  0  0  0  0  0  0  0  0
   20.5347   -9.7496  -14.8782 C   0  0  0  0  0  0  0  0  0  0  0  0
   21.7484   -9.1586  -15.5122 C   0  0  2  0  0  0  0  0  0  0  0  0
   22.7636  -10.1469  -15.6833 N   0  0  0  0  0  0  0  0  0  0  0  0
   22.1841   -7.8695  -14.9534 C   0  0  0  0  0  0  0  0  0  0  0  0
   22.6300   -7.8932  -13.7596 O   0  0  0  0  0  0  0  0  0  0  0  0
   22.1597   -6.6171  -15.5870 N   0  0  0  0  0  0  0  0  0  0  0  0
   22.6695   -5.3981  -14.9467 C   0  0  1  0  0  0  0  0  0  0  0  0
   23.0307   -4.3343  -15.9587 C   0  0  0  0  0  0  0  0  0  0  0  0
   24.2724   -5.0570  -17.0635 S   0  0  0  0  0  0  0  0  0  0  0  0
   21.6537   -4.8969  -14.0082 C   0  0  0  0  0  0  0  0  0  0  0  0
   21.9233   -3.9281  -13.2417 O   0  0  0  0  0  0  0  0  0  0  0  0
   20.3635   -5.4248  -13.8897 O   0  0  0  0  0  0  0  0  0  0  0  0
  1  2  1  0
  3  4  1  0
  3  2  1  0
  4  5  1  0
  5  1  1  0
  5  6  1  1
  7  6  2  0
  9 11  1  0
  9  8  1  0
 10  9  2  0
 12 11  1  1
 12 13  1  0
 12 14  1  0
 13  6  1  0
 14 16  1  0
 15 14  2  0
 16 17  1  0
 17 20  1  0
 17 18  1  6
 18 19  1  0
 20 21  2  0
 20 22  1  0
M  END
$$$$
