PNC.pdb
     RDKit          3D

 22 22  0  0  1  0  0  0  0  0999 V2000
   18.4176  -12.0934  -15.1486 N   0  0  0  0  0  0  0  0  0  0  0  0
   17.8716  -13.4085  -15.5215 C   0  0  0  0  0  0  0  0  0  0  0  0
   16.8975  -13.0436  -16.6055 C   0  0  0  0  0  0  0  0  0  0  0  0
   17.6521  -11.9864  -17.3853 C   0  0  0  0  0  0  0  0  0  0  0  0
   18.7356  -11.5440  -16.4258 C   0  0  1  0  0  0  0  0  0  0  0  0
   18.8685  -10.0618  -16.4015 C   0  0  0  0  0  0  0  0  0  0  0  0
   19.5442   -9.4207  -17.2258 O   0  0  0  0  0  0  0  0  0  0  0  0
   17.8324   -5.0594  -14.9737 N   0  0  0  0  0  0  0  0  0  0  0  0
   16.7388   -5.9450  -14.7040 C   0  0  0  0  0  0  0  0  0  0  0  0
   15.6330   -5.3742  -14.4030 O   0  0  0  0  0  0  0  0  0  0  0  0
   16.8838   -7.4081  -14.7704 C   0  0  0  0  0  0  0  0  0  0  0  0
   18.2148   -7.9114  -15.2171 C   0  0  2  0  0  0  0  0  0  0  0  0
   18.1909   -9.3283  -15.3853 N   0  0  0  0  0  0  0  0  0  0  0  0
   19.3698   -7.3627  -14.4900 C   0  0  0  0  0  0  0  0  0  0  0  0
   19.4559   -7.6661  -13.2550 O   0  0  0  0  0  0  0  0  0  0  0  0
   20.3845   -6.5399  -15.0039 N   0  0  0  0  0  0  0  0  0  0  0  0
   21.5748   -6.1744  -14.2257 C   0  0  1  0  0  0  0  0  0  0  0  0
   22.8490   -6.6695  -14.8718 C   0  0  0  0  0  0  0  0  0  0  0  0
   22.9254   -8.4576  -14.5858 S   0  0  0  0  0  0  0  0  0  0  0  0
   21.6071   -4.7120  -14.0700 C   0  0  0  0  0  0  0  0  0  0  0  0
   21.1465   -3.9680  -14.9827 O   0  0  0  0  0  0  0  0  0  0  0  0
   22.1258   -4.0513  -12.9512 O   0  0  0  0  0  0  0  0  0  0  0  0
  1  2  1  0
  3  4  1  0
  3  2  1  0
  4  5  1  0
  5  1  1  0
  5  6  1  1
  7  6  2  0
  9 11  1  0
  9  8  1  0
 10  9  2  0
 12 11  1  1
 12 13  1  0
 12 14  1  0
 13  6  1  0
 14 16  1  0
 15 14  2  0
 16 17  1  0
 17 20  1  0
 17 18  1  6
 18 19  1  0
 20 21  2  0
 20 22  1  0
M  END
$$$$
