PNC.pdb
     RDKit          3D

 22 22  0  0  1  0  0  0  0  0999 V2000
   27.7693  -20.6790  -16.1168 N   0  0  0  0  0  0  0  0  0  0  0  0
   29.0094  -20.9610  -16.8579 C   0  0  0  0  0  0  0  0  0  0  0  0
   29.4045  -22.3001  -16.3028 C   0  0  0  0  0  0  0  0  0  0  0  0
   28.0767  -23.0236  -16.2097 C   0  0  0  0  0  0  0  0  0  0  0  0
   27.0585  -21.9056  -16.2727 C   0  0  1  0  0  0  0  0  0  0  0  0
   25.9876  -22.0873  -15.2554 C   0  0  0  0  0  0  0  0  0  0  0  0
   25.0999  -22.9542  -15.3420 O   0  0  0  0  0  0  0  0  0  0  0  0
   24.9440  -21.5432   -9.4615 N   0  0  0  0  0  0  0  0  0  0  0  0
   24.6446  -20.7877  -10.6416 C   0  0  0  0  0  0  0  0  0  0  0  0
   23.5367  -20.1467  -10.6155 O   0  0  0  0  0  0  0  0  0  0  0  0
   25.5526  -20.7554  -11.7995 C   0  0  0  0  0  0  0  0  0  0  0  0
   24.9741  -21.2171  -13.0943 C   0  0  2  0  0  0  0  0  0  0  0  0
   25.9679  -21.2290  -14.1184 N   0  0  0  0  0  0  0  0  0  0  0  0
   23.6791  -20.6181  -13.4525 C   0  0  0  0  0  0  0  0  0  0  0  0
   23.6833  -19.3668  -13.6948 O   0  0  0  0  0  0  0  0  0  0  0  0
   22.4401  -21.2704  -13.5531 N   0  0  0  0  0  0  0  0  0  0  0  0
   21.2159  -20.5791  -13.9766 C   0  0  1  0  0  0  0  0  0  0  0  0
   20.7015  -21.0966  -15.3009 C   0  0  0  0  0  0  0  0  0  0  0  0
   21.9403  -20.6673  -16.5523 S   0  0  0  0  0  0  0  0  0  0  0  0
   20.1969  -20.7370  -12.9275 C   0  0  0  0  0  0  0  0  0  0  0  0
   20.4421  -21.4441  -11.9084 O   0  0  0  0  0  0  0  0  0  0  0  0
   18.9296  -20.1458  -12.9665 O   0  0  0  0  0  0  0  0  0  0  0  0
  1  2  1  0
  3  4  1  0
  3  2  1  0
  4  5  1  0
  5  1  1  0
  5  6  1  1
  7  6  2  0
  9 11  1  0
  9  8  1  0
 10  9  2  0
 12 11  1  1
 12 13  1  0
 12 14  1  0
 13  6  1  0
 14 16  1  0
 15 14  2  0
 16 17  1  0
 17 20  1  0
 17 18  1  6
 18 19  1  0
 20 21  2  0
 20 22  1  0
M  END
$$$$
