PNC.pdb
     RDKit          3D

 22 22  0  0  1  0  0  0  0  0999 V2000
   27.8604  -20.1836  -15.4433 N   0  0  0  0  0  0  0  0  0  0  0  0
   29.0330  -20.2991  -16.3255 C   0  0  0  0  0  0  0  0  0  0  0  0
   28.5640  -21.3095  -17.3337 C   0  0  0  0  0  0  0  0  0  0  0  0
   27.1301  -20.8876  -17.5814 C   0  0  0  0  0  0  0  0  0  0  0  0
   26.8071  -20.0125  -16.3896 C   0  0  1  0  0  0  0  0  0  0  0  0
   25.4665  -20.3321  -15.8277 C   0  0  0  0  0  0  0  0  0  0  0  0
   24.4245  -20.3464  -16.5065 O   0  0  0  0  0  0  0  0  0  0  0  0
   25.1233  -23.6557  -13.5030 N   0  0  0  0  0  0  0  0  0  0  0  0
   24.9763  -22.8515  -12.3263 C   0  0  0  0  0  0  0  0  0  0  0  0
   25.3330  -23.4116  -11.2318 O   0  0  0  0  0  0  0  0  0  0  0  0
   24.4511  -21.4776  -12.3798 C   0  0  0  0  0  0  0  0  0  0  0  0
   24.1535  -20.9463  -13.7412 C   0  0  2  0  0  0  0  0  0  0  0  0
   25.3590  -20.6391  -14.4406 N   0  0  0  0  0  0  0  0  0  0  0  0
   23.0911  -19.9306  -13.8004 C   0  0  0  0  0  0  0  0  0  0  0  0
   23.2289  -18.9237  -13.0311 O   0  0  0  0  0  0  0  0  0  0  0  0
   21.9418  -19.9492  -14.6063 N   0  0  0  0  0  0  0  0  0  0  0  0
   20.9506  -18.8660  -14.5932 C   0  0  1  0  0  0  0  0  0  0  0  0
   20.9280  -18.1021  -15.8978 C   0  0  0  0  0  0  0  0  0  0  0  0
   19.5762  -16.9003  -15.7822 S   0  0  0  0  0  0  0  0  0  0  0  0
   19.6270  -19.4399  -14.3058 C   0  0  0  0  0  0  0  0  0  0  0  0
   19.3301  -20.5919  -14.7341 O   0  0  0  0  0  0  0  0  0  0  0  0
   18.6312  -18.7903  -13.5686 O   0  0  0  0  0  0  0  0  0  0  0  0
  1  2  1  0
  3  4  1  0
  3  2  1  0
  4  5  1  0
  5  1  1  0
  5  6  1  1
  7  6  2  0
  9 11  1  0
  9  8  1  0
 10  9  2  0
 12 11  1  1
 12 13  1  0
 12 14  1  0
 13  6  1  0
 14 16  1  0
 15 14  2  0
 16 17  1  0
 17 20  1  0
 17 18  1  6
 18 19  1  0
 20 21  2  0
 20 22  1  0
M  END
$$$$
