PNC.pdb
     RDKit          3D

 22 22  0  0  1  0  0  0  0  0999 V2000
   25.7214  -32.4948   -8.4715 N   0  0  0  0  0  0  0  0  0  0  0  0
   26.2316  -32.5085   -9.8521 C   0  0  0  0  0  0  0  0  0  0  0  0
   26.7270  -33.9206   -9.9855 C   0  0  0  0  0  0  0  0  0  0  0  0
   25.6473  -34.7170   -9.2817 C   0  0  0  0  0  0  0  0  0  0  0  0
   24.9265  -33.6788   -8.4494 C   0  0  1  0  0  0  0  0  0  0  0  0
   24.6637  -34.1738   -7.0706 C   0  0  0  0  0  0  0  0  0  0  0  0
   23.9689  -35.1751   -6.8227 O   0  0  0  0  0  0  0  0  0  0  0  0
   27.2406  -35.6881   -4.2811 N   0  0  0  0  0  0  0  0  0  0  0  0
   27.3508  -34.3826   -3.7009 C   0  0  0  0  0  0  0  0  0  0  0  0
   28.4511  -34.1452   -3.0909 O   0  0  0  0  0  0  0  0  0  0  0  0
   26.2702  -33.3886   -3.8033 C   0  0  0  0  0  0  0  0  0  0  0  0
   25.0740  -33.8053   -4.5906 C   0  0  2  0  0  0  0  0  0  0  0  0
   25.2326  -33.4718   -5.9691 N   0  0  0  0  0  0  0  0  0  0  0  0
   23.7760  -33.4689   -3.9858 C   0  0  0  0  0  0  0  0  0  0  0  0
   23.5657  -32.2340   -3.7502 O   0  0  0  0  0  0  0  0  0  0  0  0
   22.7460  -34.3563   -3.6363 N   0  0  0  0  0  0  0  0  0  0  0  0
   21.4238  -33.8964   -3.1932 C   0  0  1  0  0  0  0  0  0  0  0  0
   20.3044  -34.6796   -3.8408 C   0  0  0  0  0  0  0  0  0  0  0  0
   20.1810  -34.1043   -5.5551 S   0  0  0  0  0  0  0  0  0  0  0  0
   21.3521  -34.0051   -1.7279 C   0  0  0  0  0  0  0  0  0  0  0  0
   22.1962  -34.7095   -1.1035 O   0  0  0  0  0  0  0  0  0  0  0  0
   20.3889  -33.3683   -0.9381 O   0  0  0  0  0  0  0  0  0  0  0  0
  1  2  1  0
  3  4  1  0
  3  2  1  0
  4  5  1  0
  5  1  1  0
  5  6  1  1
  7  6  2  0
  9 11  1  0
  9  8  1  0
 10  9  2  0
 12 11  1  1
 12 13  1  0
 12 14  1  0
 13  6  1  0
 14 16  1  0
 15 14  2  0
 16 17  1  0
 17 20  1  0
 17 18  1  6
 18 19  1  0
 20 21  2  0
 20 22  1  0
M  END
$$$$
