PNC.pdb
     RDKit          3D

 22 22  0  0  1  0  0  0  0  0999 V2000
   16.8499  -11.6307  -13.7490 N   0  0  0  0  0  0  0  0  0  0  0  0
   16.2401  -12.7026  -14.5524 C   0  0  0  0  0  0  0  0  0  0  0  0
   15.1884  -11.9539  -15.3209 C   0  0  0  0  0  0  0  0  0  0  0  0
   15.9027  -10.6708  -15.6936 C   0  0  0  0  0  0  0  0  0  0  0  0
   17.0741  -10.6263  -14.7364 C   0  0  1  0  0  0  0  0  0  0  0  0
   17.2477   -9.2686  -14.1521 C   0  0  0  0  0  0  0  0  0  0  0  0
   17.4565   -8.2501  -14.8348 O   0  0  0  0  0  0  0  0  0  0  0  0
   16.0629   -6.7789   -8.5249 N   0  0  0  0  0  0  0  0  0  0  0  0
   16.5981   -6.7924   -9.8540 C   0  0  0  0  0  0  0  0  0  0  0  0
   17.0510   -5.6709  -10.2738 O   0  0  0  0  0  0  0  0  0  0  0  0
   16.6223   -8.0145  -10.6738 C   0  0  0  0  0  0  0  0  0  0  0  0
   17.2429   -7.8817  -12.0234 C   0  0  2  0  0  0  0  0  0  0  0  0
   17.1729   -9.1152  -12.7376 N   0  0  0  0  0  0  0  0  0  0  0  0
   18.5389   -7.1864  -12.0528 C   0  0  0  0  0  0  0  0  0  0  0  0
   19.3679   -7.4980  -11.1361 O   0  0  0  0  0  0  0  0  0  0  0  0
   18.9620   -6.2164  -12.9752 N   0  0  0  0  0  0  0  0  0  0  0  0
   20.3292   -5.6810  -12.9869 C   0  0  1  0  0  0  0  0  0  0  0  0
   21.2103   -6.3972  -13.9852 C   0  0  0  0  0  0  0  0  0  0  0  0
   21.5813   -8.0281  -13.2870 S   0  0  0  0  0  0  0  0  0  0  0  0
   20.2707   -4.2419  -13.2860 C   0  0  0  0  0  0  0  0  0  0  0  0
   19.1865   -3.7198  -13.6742 O   0  0  0  0  0  0  0  0  0  0  0  0
   21.3586   -3.3699  -13.1719 O   0  0  0  0  0  0  0  0  0  0  0  0
  1  2  1  0
  3  4  1  0
  3  2  1  0
  4  5  1  0
  5  1  1  0
  5  6  1  1
  7  6  2  0
  9 11  1  0
  9  8  1  0
 10  9  2  0
 12 11  1  1
 12 13  1  0
 12 14  1  0
 13  6  1  0
 14 16  1  0
 15 14  2  0
 16 17  1  0
 17 20  1  0
 17 18  1  6
 18 19  1  0
 20 21  2  0
 20 22  1  0
M  END
$$$$
