PNC.pdb
     RDKit          3D

 22 22  0  0  1  0  0  0  0  0999 V2000
   21.2934  -11.0886  -17.5678 N   0  0  0  0  0  0  0  0  0  0  0  0
   21.1868  -12.5144  -17.9173 C   0  0  0  0  0  0  0  0  0  0  0  0
   19.8421  -12.8726  -17.3509 C   0  0  0  0  0  0  0  0  0  0  0  0
   19.0018  -11.6628  -17.7051 C   0  0  0  0  0  0  0  0  0  0  0  0
   20.0293  -10.5926  -18.0038 C   0  0  1  0  0  0  0  0  0  0  0  0
   19.6654   -9.2969  -17.3685 C   0  0  0  0  0  0  0  0  0  0  0  0
   18.5921   -8.7060  -17.5826 O   0  0  0  0  0  0  0  0  0  0  0  0
   18.8795   -8.6153  -13.5796 N   0  0  0  0  0  0  0  0  0  0  0  0
   20.1826   -8.0740  -13.3307 C   0  0  0  0  0  0  0  0  0  0  0  0
   20.5632   -8.1017  -12.1086 O   0  0  0  0  0  0  0  0  0  0  0  0
   21.0199   -7.5260  -14.4100 C   0  0  0  0  0  0  0  0  0  0  0  0
   20.3879   -7.4681  -15.7596 C   0  0  2  0  0  0  0  0  0  0  0  0
   20.5871   -8.6920  -16.4660 N   0  0  0  0  0  0  0  0  0  0  0  0
   20.6378   -6.2323  -16.5174 C   0  0  0  0  0  0  0  0  0  0  0  0
   21.7873   -6.1235  -17.0573 O   0  0  0  0  0  0  0  0  0  0  0  0
   19.7531   -5.1593  -16.7085 N   0  0  0  0  0  0  0  0  0  0  0  0
   20.0604   -4.0310  -17.5964 C   0  0  1  0  0  0  0  0  0  0  0  0
   19.0080   -3.8482  -18.6665 C   0  0  0  0  0  0  0  0  0  0  0  0
   19.4119   -2.3168  -19.5477 S   0  0  0  0  0  0  0  0  0  0  0  0
   20.1903   -2.8117  -16.7837 C   0  0  0  0  0  0  0  0  0  0  0  0
   19.6842   -2.7660  -15.6259 O   0  0  0  0  0  0  0  0  0  0  0  0
   20.8536   -1.6536  -17.2032 O   0  0  0  0  0  0  0  0  0  0  0  0
  1  2  1  0
  3  4  1  0
  3  2  1  0
  4  5  1  0
  5  1  1  0
  5  6  1  1
  7  6  2  0
  9 11  1  0
  9  8  1  0
 10  9  2  0
 12 11  1  1
 12 13  1  0
 12 14  1  0
 13  6  1  0
 14 16  1  0
 15 14  2  0
 16 17  1  0
 17 20  1  0
 17 18  1  6
 18 19  1  0
 20 21  2  0
 20 22  1  0
M  END
$$$$
