PNC.pdb
     RDKit          3D

 22 22  0  0  1  0  0  0  0  0999 V2000
   26.5414  -12.1943  -15.4493 N   0  0  0  0  0  0  0  0  0  0  0  0
   27.5040  -13.2553  -15.7872 C   0  0  0  0  0  0  0  0  0  0  0  0
   27.2015  -13.4975  -17.2388 C   0  0  0  0  0  0  0  0  0  0  0  0
   26.9908  -12.0946  -17.7706 C   0  0  0  0  0  0  0  0  0  0  0  0
   26.7404  -11.2762  -16.5224 C   0  0  1  0  0  0  0  0  0  0  0  0
   25.5960  -10.3423  -16.7050 C   0  0  0  0  0  0  0  0  0  0  0  0
   25.5628   -9.4622  -17.5832 O   0  0  0  0  0  0  0  0  0  0  0  0
   22.0967  -11.7722  -17.5145 N   0  0  0  0  0  0  0  0  0  0  0  0
   21.5694  -11.5013  -16.2100 C   0  0  0  0  0  0  0  0  0  0  0  0
   20.5901  -12.2431  -15.8500 O   0  0  0  0  0  0  0  0  0  0  0  0
   22.1205  -10.4422  -15.3493 C   0  0  0  0  0  0  0  0  0  0  0  0
   23.2752   -9.6823  -15.9093 C   0  0  2  0  0  0  0  0  0  0  0  0
   24.4741  -10.4528  -15.8337 N   0  0  0  0  0  0  0  0  0  0  0  0
   23.3749   -8.2807  -15.4740 C   0  0  0  0  0  0  0  0  0  0  0  0
   23.7487   -8.0883  -14.2707 O   0  0  0  0  0  0  0  0  0  0  0  0
   23.1007   -7.1333  -16.2347 N   0  0  0  0  0  0  0  0  0  0  0  0
   23.3132   -5.7749  -15.7194 C   0  0  1  0  0  0  0  0  0  0  0  0
   23.5896   -4.7845  -16.8279 C   0  0  0  0  0  0  0  0  0  0  0  0
   25.0929   -5.3434  -17.6721 S   0  0  0  0  0  0  0  0  0  0  0  0
   22.1277   -5.3713  -14.9477 C   0  0  0  0  0  0  0  0  0  0  0  0
   21.0019   -5.8884  -15.2003 O   0  0  0  0  0  0  0  0  0  0  0  0
   22.1444   -4.4253  -13.9171 O   0  0  0  0  0  0  0  0  0  0  0  0
  1  2  1  0
  3  4  1  0
  3  2  1  0
  4  5  1  0
  5  1  1  0
  5  6  1  6
  7  6  2  0
  9 11  1  0
  9  8  1  0
 10  9  2  0
 12 11  1  1
 12 13  1  0
 12 14  1  0
 13  6  1  0
 14 16  1  0
 15 14  2  0
 16 17  1  0
 17 20  1  0
 17 18  1  6
 18 19  1  0
 20 21  2  0
 20 22  1  0
M  END
$$$$
