PNC.pdb
     RDKit          3D

 22 22  0  0  1  0  0  0  0  0999 V2000
   25.4997  -11.5879  -17.4983 N   0  0  0  0  0  0  0  0  0  0  0  0
   26.6872  -12.2651  -16.9527 C   0  0  0  0  0  0  0  0  0  0  0  0
   27.2357  -11.2243  -16.0183 C   0  0  0  0  0  0  0  0  0  0  0  0
   25.9833  -10.6679  -15.3722 C   0  0  0  0  0  0  0  0  0  0  0  0
   24.8778  -11.1014  -16.3105 C   0  0  1  0  0  0  0  0  0  0  0  0
   23.9198   -9.9927  -16.5712 C   0  0  0  0  0  0  0  0  0  0  0  0
   23.9689   -9.2674  -17.5803 O   0  0  0  0  0  0  0  0  0  0  0  0
   20.4599  -10.3462  -17.5296 N   0  0  0  0  0  0  0  0  0  0  0  0
   19.8964  -10.0414  -16.2480 C   0  0  0  0  0  0  0  0  0  0  0  0
   18.7623  -10.5835  -16.0052 O   0  0  0  0  0  0  0  0  0  0  0  0
   20.5796   -9.1652  -15.2828 C   0  0  0  0  0  0  0  0  0  0  0  0
   21.9319   -8.6819  -15.6851 C   0  0  2  0  0  0  0  0  0  0  0  0
   22.8882   -9.7394  -15.6217 N   0  0  0  0  0  0  0  0  0  0  0  0
   22.3418   -7.3989  -15.0936 C   0  0  0  0  0  0  0  0  0  0  0  0
   22.7481   -7.4377  -13.8861 O   0  0  0  0  0  0  0  0  0  0  0  0
   22.3315   -6.1375  -15.7096 N   0  0  0  0  0  0  0  0  0  0  0  0
   22.8837   -4.9394  -15.0651 C   0  0  1  0  0  0  0  0  0  0  0  0
   23.2669   -3.8789  -16.0724 C   0  0  0  0  0  0  0  0  0  0  0  0
   24.5865   -4.5786  -17.0990 S   0  0  0  0  0  0  0  0  0  0  0  0
   21.8925   -4.4155  -14.1128 C   0  0  0  0  0  0  0  0  0  0  0  0
   20.6573   -4.5300  -14.3578 O   0  0  0  0  0  0  0  0  0  0  0  0
   22.2170   -3.7760  -12.9116 O   0  0  0  0  0  0  0  0  0  0  0  0
  1  2  1  0
  3  4  1  0
  3  2  1  0
  4  5  1  0
  5  1  1  0
  5  6  1  6
  7  6  2  0
  9 11  1  0
  9  8  1  0
 10  9  2  0
 12 11  1  1
 12 13  1  0
 12 14  1  0
 13  6  1  0
 14 16  1  0
 15 14  2  0
 16 17  1  0
 17 20  1  0
 17 18  1  6
 18 19  1  0
 20 21  2  0
 20 22  1  0
M  END
$$$$
