PNC.pdb
     RDKit          3D

 22 22  0  0  1  0  0  0  0  0999 V2000
   19.9601  -11.6445  -15.6945 N   0  0  0  0  0  0  0  0  0  0  0  0
   19.2261  -12.5129  -16.6292 C   0  0  0  0  0  0  0  0  0  0  0  0
   17.7999  -12.2666  -16.2261 C   0  0  0  0  0  0  0  0  0  0  0  0
   17.7793  -10.7716  -15.9818 C   0  0  0  0  0  0  0  0  0  0  0  0
   19.2421  -10.4186  -15.8203 C   0  0  1  0  0  0  0  0  0  0  0  0
   19.4562   -9.5015  -14.6679 C   0  0  0  0  0  0  0  0  0  0  0  0
   19.2669   -9.8326  -13.4840 O   0  0  0  0  0  0  0  0  0  0  0  0
   21.0198   -5.1407  -12.0824 N   0  0  0  0  0  0  0  0  0  0  0  0
   21.5492   -5.1653  -13.4137 C   0  0  0  0  0  0  0  0  0  0  0  0
   22.3739   -4.2267  -13.6928 O   0  0  0  0  0  0  0  0  0  0  0  0
   21.1669   -6.2009  -14.3871 C   0  0  0  0  0  0  0  0  0  0  0  0
   20.1132   -7.1573  -13.9410 C   0  0  2  0  0  0  0  0  0  0  0  0
   19.9010   -8.1720  -14.9219 N   0  0  0  0  0  0  0  0  0  0  0  0
   18.9049   -6.5401  -13.3727 C   0  0  0  0  0  0  0  0  0  0  0  0
   18.0038   -6.1922  -14.2044 O   0  0  0  0  0  0  0  0  0  0  0  0
   18.6362   -6.2885  -12.0181 N   0  0  0  0  0  0  0  0  0  0  0  0
   17.3458   -5.7644  -11.5531 C   0  0  1  0  0  0  0  0  0  0  0  0
   16.9592   -6.3249  -10.2030 C   0  0  0  0  0  0  0  0  0  0  0  0
   18.3847   -6.0937   -9.1079 S   0  0  0  0  0  0  0  0  0  0  0  0
   17.4228   -4.2963  -11.5018 C   0  0  0  0  0  0  0  0  0  0  0  0
   18.5250   -3.7126  -11.7097 O   0  0  0  0  0  0  0  0  0  0  0  0
   16.3340   -3.4604  -11.2315 O   0  0  0  0  0  0  0  0  0  0  0  0
  1  2  1  0
  3  4  1  0
  3  2  1  0
  4  5  1  0
  5  1  1  0
  5  6  1  1
  7  6  2  0
  9 11  1  0
  9  8  1  0
 10  9  2  0
 12 11  1  6
 12 13  1  0
 12 14  1  0
 13  6  1  0
 14 16  1  0
 15 14  2  0
 16 17  1  0
 17 20  1  0
 17 18  1  1
 18 19  1  0
 20 21  2  0
 20 22  1  0
M  END
$$$$
