QYY.pdb
     RDKit          3D

 34 35  0  0  1  0  0  0  0  0999 V2000
   27.4416  -19.2497  -17.6137 N   0  0  0  0  0  0  0  0  0  0  0  0
   28.1946  -18.2198  -18.1796 C   0  0  0  0  0  0  0  0  0  0  0  0
   29.4330  -18.4014  -18.3167 O   0  0  0  0  0  0  0  0  0  0  0  0
   27.6411  -16.9233  -18.6334 C   0  0  0  0  0  0  0  0  0  0  0  0
   26.1846  -16.7729  -18.2957 C   0  0  0  0  0  0  0  0  0  0  0  0
   25.4046  -17.6013  -19.3120 C   0  0  2  0  0  0  0  0  0  0  0  0
   25.5060  -16.8836  -20.5694 N   0  0  0  0  0  0  0  0  0  0  0  0
   24.0182  -17.8373  -18.9019 C   0  0  0  0  0  0  0  0  0  0  0  0
   23.2047  -16.8893  -18.8878 O   0  0  0  0  0  0  0  0  0  0  0  0
   20.3469  -18.7009  -24.2070 O   0  0  0  0  0  0  0  0  0  0  0  0
   20.6743  -19.1454  -22.9221 C   0  0  0  0  0  0  0  0  0  0  0  0
   19.7034  -19.0934  -21.9509 C   0  0  0  0  0  0  0  0  0  0  0  0
   20.0023  -19.5265  -20.6810 C   0  0  0  0  0  0  0  0  0  0  0  0
   21.2606  -20.0191  -20.3409 C   0  0  0  0  0  0  0  0  0  0  0  0
   21.6185  -20.4966  -18.9957 C   0  0  0  0  0  0  0  0  0  0  0  0
   22.2043  -19.4006  -18.1364 C   0  0  2  0  0  0  0  0  0  0  0  0
   23.5819  -19.1253  -18.5207 N   0  0  0  0  0  0  0  0  0  0  0  0
   22.0905  -19.6714  -16.6884 C   0  0  0  0  0  0  0  0  0  0  0  0
   22.8889  -20.4768  -16.1606 O   0  0  0  0  0  0  0  0  0  0  0  0
   22.2189  -20.0572  -21.3482 C   0  0  0  0  0  0  0  0  0  0  0  0
   21.9243  -19.6254  -22.6173 C   0  0  0  0  0  0  0  0  0  0  0  0
   18.9911  -19.4856   -8.3508 O   0  0  0  0  0  0  0  0  0  0  0  0
   19.3498  -19.1629   -9.6382 C   0  0  0  0  0  0  0  0  0  0  0  0
   18.4382  -19.2756  -10.6678 C   0  0  0  0  0  0  0  0  0  0  0  0
   18.8111  -18.9516  -11.9379 C   0  0  0  0  0  0  0  0  0  0  0  0
   20.0963  -18.4983  -12.2762 C   0  0  0  0  0  0  0  0  0  0  0  0
   20.4258  -18.1868  -13.6818 C   0  0  0  0  0  0  0  0  0  0  0  0
   20.9819  -19.3487  -14.4265 C   0  0  2  0  0  0  0  0  0  0  0  0
   21.1185  -19.0632  -15.8501 N   0  0  0  0  0  0  0  0  0  0  0  0
   20.1120  -20.5255  -14.2745 C   0  0  0  0  0  0  0  0  0  0  0  0
   19.0910  -20.6838  -15.0237 O   0  0  0  0  0  0  0  0  0  0  0  0
   20.9757  -18.3991  -11.2274 C   0  0  0  0  0  0  0  0  0  0  0  0
   20.6266  -18.7214   -9.9218 C   0  0  0  0  0  0  0  0  0  0  0  0
   20.3480  -21.5069  -13.3329 O   0  0  0  0  0  0  0  0  0  0  0  0
  2  1  1  0
  3  2  2  0
  4  2  1  0
  5  4  1  0
  6  5  1  0
  6  7  1  6
  8  6  1  0
  8  9  2  0
 10 11  1  0
 11 12  2  0
 12 13  1  0
 14 13  2  0
 14 15  1  0
 16 17  1  0
 16 15  1  6
 17  8  1  0
 18 16  1  0
 19 18  2  0
 20 14  1  0
 21 11  1  0
 21 20  2  0
 23 22  1  0
 23 24  2  0
 25 24  1  0
 26 25  2  0
 28 27  1  1
 27 26  1  0
 28 29  1  0
 29 18  1  0
 30 28  1  0
 30 34  1  0
 31 30  2  0
 32 33  2  0
 32 26  1  0
 33 23  1  0
M  END
$$$$
