QYY.pdb
     RDKit          3D

 34 35  0  0  1  0  0  0  0  0999 V2000
   27.2014  -21.2011  -18.8871 N   0  0  0  0  0  0  0  0  0  0  0  0
   28.4025  -20.4989  -18.7756 C   0  0  0  0  0  0  0  0  0  0  0  0
   29.3959  -20.9229  -19.4227 O   0  0  0  0  0  0  0  0  0  0  0  0
   28.5949  -19.2856  -17.9485 C   0  0  0  0  0  0  0  0  0  0  0  0
   27.4001  -18.9833  -17.0887 C   0  0  0  0  0  0  0  0  0  0  0  0
   26.3688  -18.3030  -17.9838 C   0  0  2  0  0  0  0  0  0  0  0  0
   26.9631  -17.0410  -18.3844 N   0  0  0  0  0  0  0  0  0  0  0  0
   25.0716  -18.1369  -17.3237 C   0  0  0  0  0  0  0  0  0  0  0  0
   24.9274  -17.2552  -16.4505 O   0  0  0  0  0  0  0  0  0  0  0  0
   21.6541  -13.1312  -19.5256 O   0  0  0  0  0  0  0  0  0  0  0  0
   21.6462  -14.4745  -19.1369 C   0  0  0  0  0  0  0  0  0  0  0  0
   20.8909  -14.8291  -18.0448 C   0  0  0  0  0  0  0  0  0  0  0  0
   20.8668  -16.1442  -17.6454 C   0  0  0  0  0  0  0  0  0  0  0  0
   21.5841  -17.1361  -18.3112 C   0  0  0  0  0  0  0  0  0  0  0  0
   21.5806  -18.5544  -17.9187 C   0  0  0  0  0  0  0  0  0  0  0  0
   22.6995  -18.8853  -16.9588 C   0  0  2  0  0  0  0  0  0  0  0  0
   23.9742  -18.9601  -17.6593 N   0  0  0  0  0  0  0  0  0  0  0  0
   22.4456  -20.1060  -16.1660 C   0  0  0  0  0  0  0  0  0  0  0  0
   22.3864  -21.2073  -16.7561 O   0  0  0  0  0  0  0  0  0  0  0  0
   22.3376  -16.7418  -19.4118 C   0  0  0  0  0  0  0  0  0  0  0  0
   22.3644  -15.4296  -19.8134 C   0  0  0  0  0  0  0  0  0  0  0  0
   27.5465  -23.3866  -16.5383 O   0  0  0  0  0  0  0  0  0  0  0  0
   26.5271  -22.9559  -15.7224 C   0  0  0  0  0  0  0  0  0  0  0  0
   25.5238  -23.8221  -15.3392 C   0  0  0  0  0  0  0  0  0  0  0  0
   24.5210  -23.3779  -14.5303 C   0  0  0  0  0  0  0  0  0  0  0  0
   24.4401  -22.0616  -14.0483 C   0  0  0  0  0  0  0  0  0  0  0  0
   23.3084  -21.6548  -13.1910 C   0  0  0  0  0  0  0  0  0  0  0  0
   22.0821  -21.3111  -13.9604 C   0  0  2  0  0  0  0  0  0  0  0  0
   22.2645  -20.1034  -14.7572 N   0  0  0  0  0  0  0  0  0  0  0  0
   20.9444  -21.0961  -13.0524 C   0  0  0  0  0  0  0  0  0  0  0  0
   20.4280  -22.0709  -12.4108 O   0  0  0  0  0  0  0  0  0  0  0  0
   25.4543  -21.2289  -14.4499 C   0  0  0  0  0  0  0  0  0  0  0  0
   26.4905  -21.6510  -15.2736 C   0  0  0  0  0  0  0  0  0  0  0  0
   20.3841  -19.8516  -12.8457 O   0  0  0  0  0  0  0  0  0  0  0  0
  2  1  1  0
  3  2  2  0
  4  2  1  0
  5  4  1  0
  6  5  1  0
  6  7  1  1
  8  6  1  0
  8  9  2  0
 10 11  1  0
 11 12  2  0
 12 13  1  0
 14 13  2  0
 14 15  1  0
 16 17  1  0
 16 15  1  6
 17  8  1  0
 18 16  1  0
 19 18  2  0
 20 14  1  0
 21 11  1  0
 21 20  2  0
 23 22  1  0
 23 24  2  0
 25 24  1  0
 26 25  2  0
 28 27  1  1
 27 26  1  0
 28 29  1  0
 29 18  1  0
 30 28  1  0
 30 34  1  0
 31 30  2  0
 32 33  2  0
 32 26  1  0
 33 23  1  0
M  END
$$$$
