QYY.pdb
     RDKit          3D

 34 35  0  0  1  0  0  0  0  0999 V2000
   27.4999  -27.3517  -18.3839 N   0  0  0  0  0  0  0  0  0  0  0  0
   27.9359  -26.8002  -17.1782 C   0  0  0  0  0  0  0  0  0  0  0  0
   27.7322  -27.4549  -16.1222 O   0  0  0  0  0  0  0  0  0  0  0  0
   28.6246  -25.4954  -17.0494 C   0  0  0  0  0  0  0  0  0  0  0  0
   28.7071  -24.7599  -18.3572 C   0  0  0  0  0  0  0  0  0  0  0  0
   29.3269  -23.3973  -18.0628 C   0  0  2  0  0  0  0  0  0  0  0  0
   30.5409  -23.6677  -17.3146 N   0  0  0  0  0  0  0  0  0  0  0  0
   28.4094  -22.5019  -17.3539 C   0  0  0  0  0  0  0  0  0  0  0  0
   28.6337  -22.1987  -16.1630 O   0  0  0  0  0  0  0  0  0  0  0  0
   31.1522  -16.8619  -18.4069 O   0  0  0  0  0  0  0  0  0  0  0  0
   29.9546  -17.5828  -18.3647 C   0  0  0  0  0  0  0  0  0  0  0  0
   29.0804  -17.3282  -17.3354 C   0  0  0  0  0  0  0  0  0  0  0  0
   27.8963  -18.0237  -17.2745 C   0  0  0  0  0  0  0  0  0  0  0  0
   27.5483  -18.9825  -18.2239 C   0  0  0  0  0  0  0  0  0  0  0  0
   26.2894  -19.7443  -18.1971 C   0  0  0  0  0  0  0  0  0  0  0  0
   26.3960  -20.9965  -17.3584 C   0  0  2  0  0  0  0  0  0  0  0  0
   27.2693  -21.9717  -17.9970 N   0  0  0  0  0  0  0  0  0  0  0  0
   25.0837  -21.5852  -17.0205 C   0  0  0  0  0  0  0  0  0  0  0  0
   24.5367  -22.3525  -17.8432 O   0  0  0  0  0  0  0  0  0  0  0  0
   28.4564  -19.2147  -19.2515 C   0  0  0  0  0  0  0  0  0  0  0  0
   29.6399  -18.5224  -19.3153 C   0  0  0  0  0  0  0  0  0  0  0  0
   17.4981  -23.4223  -12.7751 O   0  0  0  0  0  0  0  0  0  0  0  0
   18.7701  -22.9976  -13.0781 C   0  0  0  0  0  0  0  0  0  0  0  0
   18.9989  -21.6929  -13.4645 C   0  0  0  0  0  0  0  0  0  0  0  0
   20.2662  -21.2893  -13.7614 C   0  0  0  0  0  0  0  0  0  0  0  0
   21.3841  -22.1366  -13.6978 C   0  0  0  0  0  0  0  0  0  0  0  0
   22.7227  -21.6252  -14.0553 C   0  0  0  0  0  0  0  0  0  0  0  0
   23.0963  -21.8948  -15.4701 C   0  0  2  0  0  0  0  0  0  0  0  0
   24.3993  -21.3304  -15.8023 N   0  0  0  0  0  0  0  0  0  0  0  0
   22.0989  -21.3213  -16.3873 C   0  0  0  0  0  0  0  0  0  0  0  0
   22.1713  -20.0997  -16.7495 O   0  0  0  0  0  0  0  0  0  0  0  0
   21.1186  -23.4261  -13.3103 C   0  0  0  0  0  0  0  0  0  0  0  0
   19.8383  -23.8685  -13.0009 C   0  0  0  0  0  0  0  0  0  0  0  0
   21.0504  -22.0585  -16.8996 O   0  0  0  0  0  0  0  0  0  0  0  0
  2  1  1  0
  3  2  2  0
  4  2  1  0
  5  4  1  0
  6  5  1  0
  6  7  1  1
  8  6  1  0
  8  9  2  0
 10 11  1  0
 11 12  2  0
 12 13  1  0
 14 13  2  0
 14 15  1  0
 16 17  1  0
 16 15  1  6
 17  8  1  0
 18 16  1  0
 19 18  2  0
 20 14  1  0
 21 11  1  0
 21 20  2  0
 23 22  1  0
 23 24  2  0
 25 24  1  0
 26 25  2  0
 28 27  1  1
 27 26  1  0
 28 29  1  0
 29 18  1  0
 30 28  1  0
 30 34  1  0
 31 30  2  0
 32 33  2  0
 32 26  1  0
 33 23  1  0
M  END
$$$$
