QYY.pdb
     RDKit          3D

 34 35  0  0  1  0  0  0  0  0999 V2000
   21.4125  -13.2679  -20.3540 N   0  0  0  0  0  0  0  0  0  0  0  0
   20.5690  -12.1570  -20.3043 C   0  0  0  0  0  0  0  0  0  0  0  0
   19.5905  -12.1235  -21.0960 O   0  0  0  0  0  0  0  0  0  0  0  0
   20.7409  -11.0098  -19.3837 C   0  0  0  0  0  0  0  0  0  0  0  0
   19.4974  -10.7202  -18.5913 C   0  0  0  0  0  0  0  0  0  0  0  0
   19.8091  -11.0561  -17.1360 C   0  0  2  0  0  0  0  0  0  0  0  0
   18.9727  -12.1950  -16.8046 N   0  0  0  0  0  0  0  0  0  0  0  0
   19.6018   -9.9176  -16.2378 C   0  0  0  0  0  0  0  0  0  0  0  0
   18.4624   -9.4191  -16.1195 O   0  0  0  0  0  0  0  0  0  0  0  0
   19.6192   -4.6880   -9.3826 O   0  0  0  0  0  0  0  0  0  0  0  0
   20.0114   -5.6116  -10.3567 C   0  0  0  0  0  0  0  0  0  0  0  0
   20.9773   -5.2329  -11.2579 C   0  0  0  0  0  0  0  0  0  0  0  0
   21.3795   -6.1249  -12.2233 C   0  0  0  0  0  0  0  0  0  0  0  0
   20.8406   -7.4061  -12.3217 C   0  0  0  0  0  0  0  0  0  0  0  0
   21.2474   -8.3913  -13.3364 C   0  0  0  0  0  0  0  0  0  0  0  0
   20.5156   -8.2010  -14.6445 C   0  0  2  0  0  0  0  0  0  0  0  0
   20.6734   -9.3705  -15.4982 N   0  0  0  0  0  0  0  0  0  0  0  0
   20.8971   -6.9605  -15.3508 C   0  0  0  0  0  0  0  0  0  0  0  0
   22.0072   -6.9101  -15.9250 O   0  0  0  0  0  0  0  0  0  0  0  0
   19.8654   -7.7557  -11.3938 C   0  0  0  0  0  0  0  0  0  0  0  0
   19.4610   -6.8676  -10.4286 C   0  0  0  0  0  0  0  0  0  0  0  0
   14.4853   -2.9376  -14.4144 O   0  0  0  0  0  0  0  0  0  0  0  0
   15.6609   -3.2291  -15.0650 C   0  0  0  0  0  0  0  0  0  0  0  0
   15.8555   -4.4698  -15.6366 C   0  0  0  0  0  0  0  0  0  0  0  0
   17.0271   -4.7415  -16.2773 C   0  0  0  0  0  0  0  0  0  0  0  0
   18.0770   -3.8168  -16.3974 C   0  0  0  0  0  0  0  0  0  0  0  0
   19.3238   -4.1975  -17.0915 C   0  0  0  0  0  0  0  0  0  0  0  0
   20.4131   -4.6035  -16.1627 C   0  0  2  0  0  0  0  0  0  0  0  0
   20.0678   -5.8094  -15.4188 N   0  0  0  0  0  0  0  0  0  0  0  0
   20.6956   -3.5312  -15.1957 C   0  0  0  0  0  0  0  0  0  0  0  0
   21.1823   -2.4161  -15.5811 O   0  0  0  0  0  0  0  0  0  0  0  0
   17.8483   -2.5945  -15.8170 C   0  0  0  0  0  0  0  0  0  0  0  0
   16.6651   -2.2864  -15.1570 C   0  0  0  0  0  0  0  0  0  0  0  0
   20.4525   -3.6672  -13.8438 O   0  0  0  0  0  0  0  0  0  0  0  0
  2  1  1  0
  3  2  2  0
  4  2  1  0
  5  4  1  0
  6  5  1  0
  6  7  1  1
  8  6  1  0
  8  9  2  0
 10 11  1  0
 11 12  2  0
 12 13  1  0
 14 13  2  0
 14 15  1  0
 16 17  1  0
 16 15  1  1
 17  8  1  0
 18 16  1  0
 19 18  2  0
 20 14  1  0
 21 11  1  0
 21 20  2  0
 23 22  1  0
 23 24  2  0
 25 24  1  0
 26 25  2  0
 28 27  1  6
 27 26  1  0
 28 29  1  0
 29 18  1  0
 30 28  1  0
 30 34  1  0
 31 30  2  0
 32 33  2  0
 32 26  1  0
 33 23  1  0
M  END
$$$$
