QYY.pdb
     RDKit          3D

 34 35  0  0  1  0  0  0  0  0999 V2000
   18.2597  -26.9275  -13.9479 N   0  0  0  0  0  0  0  0  0  0  0  0
   17.7170  -27.6423  -12.8790 C   0  0  0  0  0  0  0  0  0  0  0  0
   16.4649  -27.6449  -12.7463 O   0  0  0  0  0  0  0  0  0  0  0  0
   18.5097  -28.4022  -11.8853 C   0  0  0  0  0  0  0  0  0  0  0  0
   19.9841  -28.3545  -12.1716 C   0  0  0  0  0  0  0  0  0  0  0  0
   20.6672  -29.2427  -11.1361 C   0  0  2  0  0  0  0  0  0  0  0  0
   21.2024  -28.3413  -10.1324 N   0  0  0  0  0  0  0  0  0  0  0  0
   21.6901  -30.1106  -11.7248 C   0  0  0  0  0  0  0  0  0  0  0  0
   22.7592  -29.6164  -12.1413 O   0  0  0  0  0  0  0  0  0  0  0  0
   25.7936  -32.0506   -6.8784 O   0  0  0  0  0  0  0  0  0  0  0  0
   25.0279  -32.4181   -7.9893 C   0  0  0  0  0  0  0  0  0  0  0  0
   25.6863  -32.7654   -9.1445 C   0  0  0  0  0  0  0  0  0  0  0  0
   24.9542  -33.1316  -10.2488 C   0  0  0  0  0  0  0  0  0  0  0  0
   23.5611  -33.1638  -10.2392 C   0  0  0  0  0  0  0  0  0  0  0  0
   22.7417  -33.5546  -11.3975 C   0  0  0  0  0  0  0  0  0  0  0  0
   22.5096  -32.4039  -12.3487 C   0  0  2  0  0  0  0  0  0  0  0  0
   21.4883  -31.5044  -11.8299 N   0  0  0  0  0  0  0  0  0  0  0  0
   22.1978  -32.8396  -13.7256 C   0  0  0  0  0  0  0  0  0  0  0  0
   20.9997  -32.9246  -14.0749 O   0  0  0  0  0  0  0  0  0  0  0  0
   22.9278  -32.8061   -9.0538 C   0  0  0  0  0  0  0  0  0  0  0  0
   23.6555  -32.4396   -7.9492 C   0  0  0  0  0  0  0  0  0  0  0  0
   22.6756  -27.4499  -17.8802 O   0  0  0  0  0  0  0  0  0  0  0  0
   22.9673  -28.7770  -17.6709 C   0  0  0  0  0  0  0  0  0  0  0  0
   22.1909  -29.7632  -18.2439 C   0  0  0  0  0  0  0  0  0  0  0  0
   22.4945  -31.0736  -18.0255 C   0  0  0  0  0  0  0  0  0  0  0  0
   23.5747  -31.4971  -17.2347 C   0  0  0  0  0  0  0  0  0  0  0  0
   23.8240  -32.9386  -17.0317 C   0  0  0  0  0  0  0  0  0  0  0  0
   22.8887  -33.5656  -16.0590 C   0  0  2  0  0  0  0  0  0  0  0  0
   23.1890  -33.1696  -14.6880 N   0  0  0  0  0  0  0  0  0  0  0  0
   22.9631  -35.0328  -16.1411 C   0  0  0  0  0  0  0  0  0  0  0  0
   23.2818  -35.7285  -15.1197 O   0  0  0  0  0  0  0  0  0  0  0  0
   24.3240  -30.4895  -16.6811 C   0  0  0  0  0  0  0  0  0  0  0  0
   24.0407  -29.1446  -16.8846 C   0  0  0  0  0  0  0  0  0  0  0  0
   22.6954  -35.7260  -17.3043 O   0  0  0  0  0  0  0  0  0  0  0  0
  2  1  1  0
  3  2  2  0
  4  2  1  0
  5  4  1  0
  6  5  1  0
  6  7  1  1
  8  6  1  0
  8  9  2  0
 10 11  1  0
 11 12  2  0
 12 13  1  0
 14 13  2  0
 14 15  1  0
 16 17  1  0
 16 15  1  1
 17  8  1  0
 18 16  1  0
 19 18  2  0
 20 14  1  0
 21 11  1  0
 21 20  2  0
 23 22  1  0
 23 24  2  0
 25 24  1  0
 26 25  2  0
 28 27  1  6
 27 26  1  0
 28 29  1  0
 29 18  1  0
 30 28  1  0
 30 34  1  0
 31 30  2  0
 32 33  2  0
 32 26  1  0
 33 23  1  0
M  END
$$$$
