QYY.pdb
     RDKit          3D

 34 35  0  0  1  0  0  0  0  0999 V2000
   26.9539  -26.3237  -16.1842 N   0  0  0  0  0  0  0  0  0  0  0  0
   27.1125  -25.1600  -16.9382 C   0  0  0  0  0  0  0  0  0  0  0  0
   28.2760  -24.8493  -17.3057 O   0  0  0  0  0  0  0  0  0  0  0  0
   26.0073  -24.2599  -17.3403 C   0  0  0  0  0  0  0  0  0  0  0  0
   24.6835  -24.6907  -16.7745 C   0  0  0  0  0  0  0  0  0  0  0  0
   23.6780  -23.5935  -17.1104 C   0  0  2  0  0  0  0  0  0  0  0  0
   24.1383  -23.0015  -18.3531 N   0  0  0  0  0  0  0  0  0  0  0  0
   23.5331  -22.6123  -16.0322 C   0  0  0  0  0  0  0  0  0  0  0  0
   24.0331  -21.4743  -16.1567 O   0  0  0  0  0  0  0  0  0  0  0  0
   17.4242  -21.0890  -17.1078 O   0  0  0  0  0  0  0  0  0  0  0  0
   18.3931  -21.3001  -16.1217 C   0  0  0  0  0  0  0  0  0  0  0  0
   19.0556  -22.5041  -16.1107 C   0  0  0  0  0  0  0  0  0  0  0  0
   20.0132  -22.7331  -15.1515 C   0  0  0  0  0  0  0  0  0  0  0  0
   20.3382  -21.7837  -14.1847 C   0  0  0  0  0  0  0  0  0  0  0  0
   21.3596  -21.9881  -13.1451 C   0  0  0  0  0  0  0  0  0  0  0  0
   22.7585  -22.0188  -13.7154 C   0  0  2  0  0  0  0  0  0  0  0  0
   22.8334  -22.9318  -14.8478 N   0  0  0  0  0  0  0  0  0  0  0  0
   23.7931  -22.3236  -12.7056 C   0  0  0  0  0  0  0  0  0  0  0  0
   24.3138  -23.4609  -12.6995 O   0  0  0  0  0  0  0  0  0  0  0  0
   19.6481  -20.5768  -14.2254 C   0  0  0  0  0  0  0  0  0  0  0  0
   18.6911  -20.3446  -15.1815 C   0  0  0  0  0  0  0  0  0  0  0  0
   27.5045  -17.8007  -15.4909 O   0  0  0  0  0  0  0  0  0  0  0  0
   27.3001  -18.7596  -14.5271 C   0  0  0  0  0  0  0  0  0  0  0  0
   27.1196  -20.0809  -14.8814 C   0  0  0  0  0  0  0  0  0  0  0  0
   26.9180  -21.0180  -13.9129 C   0  0  0  0  0  0  0  0  0  0  0  0
   26.8812  -20.7191  -12.5414 C   0  0  0  0  0  0  0  0  0  0  0  0
   26.6376  -21.7916  -11.5557 C   0  0  0  0  0  0  0  0  0  0  0  0
   25.3521  -21.6354  -10.8228 C   0  0  2  0  0  0  0  0  0  0  0  0
   24.2380  -21.3906  -11.7314 N   0  0  0  0  0  0  0  0  0  0  0  0
   25.4292  -20.5119   -9.8759 C   0  0  0  0  0  0  0  0  0  0  0  0
   24.6462  -19.5101   -9.9863 O   0  0  0  0  0  0  0  0  0  0  0  0
   27.0641  -19.3960  -12.2266 C   0  0  0  0  0  0  0  0  0  0  0  0
   27.2719  -18.4168  -13.1902 C   0  0  0  0  0  0  0  0  0  0  0  0
   26.3335  -20.4798   -8.8334 O   0  0  0  0  0  0  0  0  0  0  0  0
  2  1  1  0
  3  2  2  0
  4  2  1  0
  5  4  1  0
  6  5  1  0
  6  7  1  6
  8  6  1  0
  8  9  2  0
 10 11  1  0
 11 12  2  0
 12 13  1  0
 14 13  2  0
 14 15  1  0
 16 17  1  0
 16 15  1  1
 17  8  1  0
 18 16  1  0
 19 18  2  0
 20 14  1  0
 21 11  1  0
 21 20  2  0
 23 22  1  0
 23 24  2  0
 25 24  1  0
 26 25  2  0
 28 27  1  6
 27 26  1  0
 28 29  1  0
 29 18  1  0
 30 28  1  0
 30 34  1  0
 31 30  2  0
 32 33  2  0
 32 26  1  0
 33 23  1  0
M  END
$$$$
