QYY.pdb
     RDKit          3D

 34 35  0  0  1  0  0  0  0  0999 V2000
   28.9856  -18.4290  -19.0747 N   0  0  0  0  0  0  0  0  0  0  0  0
   28.1313  -19.0247  -20.0039 C   0  0  0  0  0  0  0  0  0  0  0  0
   28.5153  -19.0897  -21.2013 O   0  0  0  0  0  0  0  0  0  0  0  0
   26.8004  -19.5894  -19.6830 C   0  0  0  0  0  0  0  0  0  0  0  0
   26.8717  -21.0401  -19.2977 C   0  0  0  0  0  0  0  0  0  0  0  0
   27.7874  -21.1326  -18.0809 C   0  0  2  0  0  0  0  0  0  0  0  0
   28.7228  -22.2041  -18.3697 N   0  0  0  0  0  0  0  0  0  0  0  0
   27.0482  -21.3434  -16.8338 C   0  0  0  0  0  0  0  0  0  0  0  0
   26.1124  -22.1702  -16.7987 O   0  0  0  0  0  0  0  0  0  0  0  0
   24.6798  -20.7006   -8.3386 O   0  0  0  0  0  0  0  0  0  0  0  0
   25.3543  -20.5586   -9.5555 C   0  0  0  0  0  0  0  0  0  0  0  0
   26.0220  -21.6497  -10.0579 C   0  0  0  0  0  0  0  0  0  0  0  0
   26.6906  -21.5338  -11.2533 C   0  0  0  0  0  0  0  0  0  0  0  0
   26.7160  -20.3440  -11.9781 C   0  0  0  0  0  0  0  0  0  0  0  0
   27.4152  -20.1807  -13.2627 C   0  0  0  0  0  0  0  0  0  0  0  0
   26.6529  -20.7985  -14.4117 C   0  0  2  0  0  0  0  0  0  0  0  0
   27.3771  -20.6249  -15.6633 N   0  0  0  0  0  0  0  0  0  0  0  0
   25.2628  -20.3094  -14.5189 C   0  0  0  0  0  0  0  0  0  0  0  0
   25.0605  -19.1600  -14.9691 O   0  0  0  0  0  0  0  0  0  0  0  0
   26.0300  -19.2603  -11.4401 C   0  0  0  0  0  0  0  0  0  0  0  0
   25.3615  -19.3720  -10.2466 C   0  0  0  0  0  0  0  0  0  0  0  0
   22.6860  -18.3216  -19.9550 O   0  0  0  0  0  0  0  0  0  0  0  0
   22.4795  -18.9374  -18.7432 C   0  0  0  0  0  0  0  0  0  0  0  0
   23.0002  -20.1913  -18.4976 C   0  0  0  0  0  0  0  0  0  0  0  0
   22.7854  -20.7868  -17.2908 C   0  0  0  0  0  0  0  0  0  0  0  0
   22.0496  -20.1919  -16.2534 C   0  0  0  0  0  0  0  0  0  0  0  0
   21.8460  -20.9138  -14.9811 C   0  0  0  0  0  0  0  0  0  0  0  0
   22.8039  -20.5099  -13.9164 C   0  0  2  0  0  0  0  0  0  0  0  0
   24.1293  -21.0763  -14.1385 N   0  0  0  0  0  0  0  0  0  0  0  0
   22.3287  -20.9542  -12.5967 C   0  0  0  0  0  0  0  0  0  0  0  0
   22.9661  -21.8425  -11.9384 O   0  0  0  0  0  0  0  0  0  0  0  0
   21.5470  -18.9460  -16.5334 C   0  0  0  0  0  0  0  0  0  0  0  0
   21.7484  -18.3121  -17.7532 C   0  0  0  0  0  0  0  0  0  0  0  0
   21.1901  -20.4434  -12.0067 O   0  0  0  0  0  0  0  0  0  0  0  0
  2  1  1  0
  3  2  2  0
  4  2  1  0
  5  4  1  0
  6  5  1  0
  6  7  1  6
  8  6  1  0
  8  9  2  0
 10 11  1  0
 11 12  2  0
 12 13  1  0
 14 13  2  0
 14 15  1  0
 16 17  1  0
 16 15  1  1
 17  8  1  0
 18 16  1  0
 19 18  2  0
 20 14  1  0
 21 11  1  0
 21 20  2  0
 23 22  1  0
 23 24  2  0
 25 24  1  0
 26 25  2  0
 28 27  1  6
 27 26  1  0
 28 29  1  0
 29 18  1  0
 30 28  1  0
 30 34  1  0
 31 30  2  0
 32 33  2  0
 32 26  1  0
 33 23  1  0
M  END
$$$$
