QYY.pdb
     RDKit          3D

 34 35  0  0  1  0  0  0  0  0999 V2000
   20.3366  -35.1035  -14.4304 N   0  0  0  0  0  0  0  0  0  0  0  0
   20.2516  -33.7428  -14.7293 C   0  0  0  0  0  0  0  0  0  0  0  0
   19.5121  -33.3943  -15.6869 O   0  0  0  0  0  0  0  0  0  0  0  0
   20.9704  -32.6737  -13.9987 C   0  0  0  0  0  0  0  0  0  0  0  0
   21.8621  -33.2182  -12.9186 C   0  0  0  0  0  0  0  0  0  0  0  0
   21.5692  -32.4166  -11.6539 C   0  0  2  0  0  0  0  0  0  0  0  0
   21.9310  -31.0452  -11.9617 N   0  0  0  0  0  0  0  0  0  0  0  0
   22.2709  -32.9402  -10.4794 C   0  0  0  0  0  0  0  0  0  0  0  0
   22.1712  -34.1501  -10.1845 O   0  0  0  0  0  0  0  0  0  0  0  0
   28.0961  -33.7944   -3.9590 O   0  0  0  0  0  0  0  0  0  0  0  0
   27.3341  -33.2856   -5.0155 C   0  0  0  0  0  0  0  0  0  0  0  0
   27.5960  -33.7449   -6.2840 C   0  0  0  0  0  0  0  0  0  0  0  0
   26.8584  -33.2599   -7.3377 C   0  0  0  0  0  0  0  0  0  0  0  0
   25.8493  -32.3146   -7.1654 C   0  0  0  0  0  0  0  0  0  0  0  0
   25.0345  -31.7748   -8.2656 C   0  0  0  0  0  0  0  0  0  0  0  0
   23.7822  -32.5866   -8.5019 C   0  0  2  0  0  0  0  0  0  0  0  0
   23.0633  -32.0968   -9.6700 N   0  0  0  0  0  0  0  0  0  0  0  0
   22.9027  -32.6597   -7.3169 C   0  0  0  0  0  0  0  0  0  0  0  0
   22.2990  -31.6278   -6.9490 O   0  0  0  0  0  0  0  0  0  0  0  0
   25.6113  -31.8719   -5.8685 C   0  0  0  0  0  0  0  0  0  0  0  0
   26.3460  -32.3535   -4.8139 C   0  0  0  0  0  0  0  0  0  0  0  0
   17.7531  -35.3255   -0.6665 O   0  0  0  0  0  0  0  0  0  0  0  0
   18.4711  -35.1852   -1.8305 C   0  0  0  0  0  0  0  0  0  0  0  0
   19.0905  -36.2754   -2.4065 C   0  0  0  0  0  0  0  0  0  0  0  0
   19.7983  -36.1180   -3.5603 C   0  0  0  0  0  0  0  0  0  0  0  0
   19.9421  -34.8863   -4.2190 C   0  0  0  0  0  0  0  0  0  0  0  0
   20.7435  -34.7970   -5.4563 C   0  0  0  0  0  0  0  0  0  0  0  0
   21.9237  -33.8998   -5.3287 C   0  0  2  0  0  0  0  0  0  0  0  0
   22.6981  -33.8461   -6.5633 N   0  0  0  0  0  0  0  0  0  0  0  0
   22.8103  -34.3609   -4.2489 C   0  0  0  0  0  0  0  0  0  0  0  0
   22.5665  -34.0632   -3.0320 O   0  0  0  0  0  0  0  0  0  0  0  0
   19.3133  -33.8251   -3.6176 C   0  0  0  0  0  0  0  0  0  0  0  0
   18.5843  -33.9527   -2.4417 C   0  0  0  0  0  0  0  0  0  0  0  0
   23.9327  -35.1286   -4.4863 O   0  0  0  0  0  0  0  0  0  0  0  0
  2  1  1  0
  3  2  2  0
  4  2  1  0
  5  4  1  0
  6  5  1  0
  6  7  1  6
  8  6  1  0
  8  9  2  0
 10 11  1  0
 11 12  2  0
 12 13  1  0
 14 13  2  0
 14 15  1  0
 16 17  1  0
 16 15  1  1
 17  8  1  0
 18 16  1  0
 19 18  2  0
 20 14  1  0
 21 11  1  0
 21 20  2  0
 23 22  1  0
 23 24  2  0
 25 24  1  0
 26 25  2  0
 28 27  1  6
 27 26  1  0
 28 29  1  0
 29 18  1  0
 30 28  1  0
 30 34  1  0
 31 30  2  0
 32 33  2  0
 32 26  1  0
 33 23  1  0
M  END
$$$$
