HVL.pdb
     RDKit          3D

 26 26  0  0  1  0  0  0  0  0999 V2000
   22.7693  -18.3057  -18.6725 N   0  0  0  0  0  0  0  0  0  0  0  0
   23.0256  -17.7515  -17.3569 C   0  0  1  0  0  0  0  0  0  0  0  0
   21.6900  -17.6758  -16.6458 C   0  0  0  0  0  0  0  0  0  0  0  0
   20.8623  -16.5622  -17.1697 C   0  0  0  0  0  0  0  0  0  0  0  0
   20.6693  -15.3437  -16.5595 C   0  0  0  0  0  0  0  0  0  0  0  0
   19.8611  -14.5887  -17.3248 N   0  0  0  0  0  0  0  0  0  0  0  0
   19.5391  -15.3120  -18.4119 C   0  0  0  0  0  0  0  0  0  0  0  0
   20.1496  -16.5057  -18.3099 N   0  0  0  0  0  0  0  0  0  0  0  0
   23.9710  -18.6455  -16.6571 C   0  0  0  0  0  0  0  0  0  0  0  0
   23.8008  -19.9039  -16.6885 O   0  0  0  0  0  0  0  0  0  0  0  0
   28.3536  -19.4750  -14.6244 C   0  0  0  0  0  0  0  0  0  0  0  0
   27.4551  -18.6111  -15.4483 C   0  0  1  0  0  0  0  0  0  0  0  0
   27.7606  -18.6409  -16.9165 C   0  0  0  0  0  0  0  0  0  0  0  0
   26.0209  -19.0328  -15.2440 C   0  0  2  0  0  0  0  0  0  0  0  0
   25.0911  -18.1664  -15.9308 N   0  0  0  0  0  0  0  0  0  0  0  0
   25.6831  -19.1744  -13.8032 C   0  0  0  0  0  0  0  0  0  0  0  0
   25.0285  -18.2602  -13.2405 O   0  0  0  0  0  0  0  0  0  0  0  0
   23.0410  -19.8277   -9.5503 C   0  0  0  0  0  0  0  0  0  0  0  0
   23.0576  -20.7770  -10.7062 C   0  0  1  0  0  0  0  0  0  0  0  0
   21.6018  -20.9433  -11.1411 C   0  0  0  0  0  0  0  0  0  0  0  0
   23.9685  -20.5127  -11.8173 C   0  0  0  0  0  0  0  0  0  0  0  0
   25.4296  -20.5599  -11.6881 C   0  0  2  0  0  0  0  0  0  0  0  0
   26.0537  -20.2819  -13.0151 N   0  0  0  0  0  0  0  0  0  0  0  0
   26.0821  -21.6954  -11.0589 C   0  0  0  0  0  0  0  0  0  0  0  0
   26.5043  -21.7820   -9.7595 O   0  0  0  0  0  0  0  0  0  0  0  0
   26.2891  -22.7286  -11.8102 O   0  0  0  0  0  0  0  0  0  0  0  0
  2  9  1  0
  2  1  1  6
  3  2  1  0
  4  3  1  0
  5  4  2  0
  6  7  1  0
  6  5  1  0
  7  8  2  0
  8  4  1  0
  9 10  2  0
 12 14  1  0
 12 11  1  1
 13 12  1  0
 14 15  1  1
 15  9  1  0
 16 14  1  0
 17 16  2  0
 19 18  1  1
 19 21  1  0
 20 19  1  0
 22 21  1  6
 22 23  1  0
 22 24  1  0
 23 16  1  0
 24 25  1  0
 26 24  2  0
M  END
$$$$
