HVL.pdb
     RDKit          3D

 26 26  0  0  1  0  0  0  0  0999 V2000
   22.4368  -21.6834  -12.9896 N   0  0  0  0  0  0  0  0  0  0  0  0
   22.9839  -20.5502  -12.2682 C   0  0  1  0  0  0  0  0  0  0  0  0
   21.8553  -19.9731  -11.4384 C   0  0  0  0  0  0  0  0  0  0  0  0
   20.9910  -19.0814  -12.2492 C   0  0  0  0  0  0  0  0  0  0  0  0
   21.1808  -18.7597  -13.5739 C   0  0  0  0  0  0  0  0  0  0  0  0
   20.2013  -17.9284  -13.9720 N   0  0  0  0  0  0  0  0  0  0  0  0
   19.3932  -17.7187  -12.9177 C   0  0  0  0  0  0  0  0  0  0  0  0
   19.8787  -18.4206  -11.8786 N   0  0  0  0  0  0  0  0  0  0  0  0
   24.0948  -21.0352  -11.4235 C   0  0  0  0  0  0  0  0  0  0  0  0
   23.9322  -22.0499  -10.6769 O   0  0  0  0  0  0  0  0  0  0  0  0
   28.8976  -21.2711  -10.4491 C   0  0  0  0  0  0  0  0  0  0  0  0
   27.7927  -20.7998  -11.3377 C   0  0  1  0  0  0  0  0  0  0  0  0
   27.6901  -21.5507  -12.6320 C   0  0  0  0  0  0  0  0  0  0  0  0
   26.4760  -20.9093  -10.6092 C   0  0  2  0  0  0  0  0  0  0  0  0
   25.3703  -20.4155  -11.3969 N   0  0  0  0  0  0  0  0  0  0  0  0
   26.5279  -20.2698   -9.2682 C   0  0  0  0  0  0  0  0  0  0  0  0
   26.0704  -19.1065   -9.1322 O   0  0  0  0  0  0  0  0  0  0  0  0
   28.3514  -21.7752   -3.4395 C   0  0  0  0  0  0  0  0  0  0  0  0
   27.8959  -20.7264   -4.4039 C   0  0  1  0  0  0  0  0  0  0  0  0
   28.9203  -19.5953   -4.3175 C   0  0  0  0  0  0  0  0  0  0  0  0
   27.5836  -21.1229   -5.7748 C   0  0  0  0  0  0  0  0  0  0  0  0
   27.2383  -20.1639   -6.8306 C   0  0  2  0  0  0  0  0  0  0  0  0
   27.0639  -20.8906   -8.1226 N   0  0  0  0  0  0  0  0  0  0  0  0
   28.0369  -18.9676   -7.0359 C   0  0  0  0  0  0  0  0  0  0  0  0
   27.7626  -17.7090   -6.5725 O   0  0  0  0  0  0  0  0  0  0  0  0
   29.1164  -19.1098   -7.7353 O   0  0  0  0  0  0  0  0  0  0  0  0
  2  9  1  0
  2  1  1  1
  3  2  1  0
  4  3  1  0
  5  4  2  0
  6  7  1  0
  6  5  1  0
  7  8  2  0
  8  4  1  0
  9 10  2  0
 12 14  1  0
 12 11  1  1
 13 12  1  0
 14 15  1  6
 15  9  1  0
 16 14  1  0
 17 16  2  0
 19 18  1  1
 19 21  1  0
 20 19  1  0
 22 21  1  1
 22 23  1  0
 22 24  1  0
 23 16  1  0
 24 25  1  0
 26 24  2  0
M  END
$$$$
