HVL.pdb
     RDKit          3D

 26 26  0  0  1  0  0  0  0  0999 V2000
   22.3525  -19.1707  -16.1883 N   0  0  0  0  0  0  0  0  0  0  0  0
   22.8357  -18.8727  -14.8535 C   0  0  1  0  0  0  0  0  0  0  0  0
   21.6159  -18.7521  -13.9631 C   0  0  0  0  0  0  0  0  0  0  0  0
   20.8389  -17.5282  -14.2756 C   0  0  0  0  0  0  0  0  0  0  0  0
   21.1735  -16.5769  -15.2123 C   0  0  0  0  0  0  0  0  0  0  0  0
   20.2360  -15.6126  -15.2180 N   0  0  0  0  0  0  0  0  0  0  0  0
   19.3115  -15.9395  -14.2977 C   0  0  0  0  0  0  0  0  0  0  0  0
   19.6843  -17.1009  -13.7317 N   0  0  0  0  0  0  0  0  0  0  0  0
   23.7205  -19.9765  -14.4273 C   0  0  0  0  0  0  0  0  0  0  0  0
   23.3523  -21.1830  -14.5769 O   0  0  0  0  0  0  0  0  0  0  0  0
   27.9946  -21.9431  -13.3018 C   0  0  0  0  0  0  0  0  0  0  0  0
   27.2449  -20.7363  -13.7643 C   0  0  1  0  0  0  0  0  0  0  0  0
   27.2620  -20.5420  -15.2515 C   0  0  0  0  0  0  0  0  0  0  0  0
   25.8106  -20.8247  -13.3044 C   0  0  2  0  0  0  0  0  0  0  0  0
   24.9950  -19.7612  -13.8434 N   0  0  0  0  0  0  0  0  0  0  0  0
   25.7057  -20.9051  -11.8237 C   0  0  0  0  0  0  0  0  0  0  0  0
   26.7563  -20.8376  -11.1361 O   0  0  0  0  0  0  0  0  0  0  0  0
   26.9188  -18.5524   -7.8735 C   0  0  0  0  0  0  0  0  0  0  0  0
   26.4075  -19.8010   -8.5195 C   0  0  1  0  0  0  0  0  0  0  0  0
   26.5220  -20.9026   -7.4662 C   0  0  0  0  0  0  0  0  0  0  0  0
   25.1062  -19.7649   -9.1823 C   0  0  0  0  0  0  0  0  0  0  0  0
   24.4041  -20.9688   -9.6421 C   0  0  2  0  0  0  0  0  0  0  0  0
   24.4886  -21.0540  -11.1299 N   0  0  0  0  0  0  0  0  0  0  0  0
   23.0477  -21.2493   -9.2034 C   0  0  0  0  0  0  0  0  0  0  0  0
   22.6661  -21.7504   -7.9879 O   0  0  0  0  0  0  0  0  0  0  0  0
   22.1053  -21.0039  -10.0557 O   0  0  0  0  0  0  0  0  0  0  0  0
  2  9  1  0
  2  1  1  6
  3  2  1  0
  4  3  1  0
  5  4  2  0
  6  7  1  0
  6  5  1  0
  7  8  2  0
  8  4  1  0
  9 10  2  0
 12 14  1  0
 12 11  1  6
 13 12  1  0
 14 15  1  1
 15  9  1  0
 16 14  1  0
 17 16  2  0
 19 18  1  1
 19 21  1  0
 20 19  1  0
 22 21  1  6
 22 23  1  0
 22 24  1  0
 23 16  1  0
 24 25  1  0
 26 24  2  0
M  END
$$$$
