HVL.pdb
     RDKit          3D

 26 26  0  0  1  0  0  0  0  0999 V2000
   17.1252  -12.0557  -16.0866 N   0  0  0  0  0  0  0  0  0  0  0  0
   17.7647  -10.8993  -16.6846 C   0  0  1  0  0  0  0  0  0  0  0  0
   16.6589   -9.9394  -17.0731 C   0  0  0  0  0  0  0  0  0  0  0  0
   15.8826  -10.4502  -18.2290 C   0  0  0  0  0  0  0  0  0  0  0  0
   16.1608  -10.2134  -19.5560 C   0  0  0  0  0  0  0  0  0  0  0  0
   15.2437  -10.8354  -20.3181 N   0  0  0  0  0  0  0  0  0  0  0  0
   14.3879  -11.4633  -19.4924 C   0  0  0  0  0  0  0  0  0  0  0  0
   14.7821  -11.2248  -18.2291 N   0  0  0  0  0  0  0  0  0  0  0  0
   18.6781  -10.3098  -15.6840 C   0  0  0  0  0  0  0  0  0  0  0  0
   18.2610  -10.0556  -14.5115 O   0  0  0  0  0  0  0  0  0  0  0  0
   22.8742  -10.4411  -16.1936 C   0  0  0  0  0  0  0  0  0  0  0  0
   22.1942  -10.3787  -14.8647 C   0  0  1  0  0  0  0  0  0  0  0  0
   23.0609   -9.8474  -13.7618 C   0  0  0  0  0  0  0  0  0  0  0  0
   20.9601   -9.5169  -14.9679 C   0  0  2  0  0  0  0  0  0  0  0  0
   20.0338  -10.0021  -15.9647 N   0  0  0  0  0  0  0  0  0  0  0  0
   21.2983   -8.0847  -15.1786 C   0  0  0  0  0  0  0  0  0  0  0  0
   21.6278   -7.7018  -16.3301 O   0  0  0  0  0  0  0  0  0  0  0  0
   17.9775   -4.0804  -14.6323 C   0  0  0  0  0  0  0  0  0  0  0  0
   19.1860   -4.8597  -15.0448 C   0  0  1  0  0  0  0  0  0  0  0  0
   19.5239   -4.4014  -16.4632 C   0  0  0  0  0  0  0  0  0  0  0  0
   20.3421   -4.8847  -14.1522 C   0  0  0  0  0  0  0  0  0  0  0  0
   21.5509   -5.6714  -14.4237 C   0  0  2  0  0  0  0  0  0  0  0  0
   21.2735   -7.1138  -14.1580 N   0  0  0  0  0  0  0  0  0  0  0  0
   22.8274   -5.2943  -13.8414 C   0  0  0  0  0  0  0  0  0  0  0  0
   23.6520   -4.2838  -14.2576 O   0  0  0  0  0  0  0  0  0  0  0  0
   23.2257   -5.9926  -12.8273 O   0  0  0  0  0  0  0  0  0  0  0  0
  2  9  1  0
  2  1  1  1
  3  2  1  0
  4  3  1  0
  5  4  2  0
  6  7  1  0
  6  5  1  0
  7  8  2  0
  8  4  1  0
  9 10  2  0
 12 14  1  0
 12 11  1  6
 13 12  1  0
 14 15  1  6
 15  9  1  0
 16 14  1  0
 17 16  2  0
 19 18  1  1
 19 21  1  0
 20 19  1  0
 22 21  1  1
 22 23  1  0
 22 24  1  0
 23 16  1  0
 24 25  1  0
 26 24  2  0
M  END
$$$$
