HVL.pdb
     RDKit          3D

 26 26  0  0  1  0  0  0  0  0999 V2000
   23.6153  -19.6764  -16.8945 N   0  0  0  0  0  0  0  0  0  0  0  0
   24.3869  -18.5061  -16.5221 C   0  0  1  0  0  0  0  0  0  0  0  0
   25.6178  -18.4939  -17.4053 C   0  0  0  0  0  0  0  0  0  0  0  0
   26.4501  -19.7019  -17.1872 C   0  0  0  0  0  0  0  0  0  0  0  0
   26.1558  -20.7417  -16.3349 C   0  0  0  0  0  0  0  0  0  0  0  0
   27.1378  -21.6584  -16.3997 N   0  0  0  0  0  0  0  0  0  0  0  0
   28.0507  -21.2139  -17.2815 C   0  0  0  0  0  0  0  0  0  0  0  0
   27.6265  -20.0285  -17.7537 N   0  0  0  0  0  0  0  0  0  0  0  0
   23.5443  -17.3117  -16.7370 C   0  0  0  0  0  0  0  0  0  0  0  0
   22.5013  -17.3885  -17.4581 O   0  0  0  0  0  0  0  0  0  0  0  0
   20.7439  -13.9364  -15.9944 C   0  0  0  0  0  0  0  0  0  0  0  0
   21.5675  -15.1760  -15.8624 C   0  0  1  0  0  0  0  0  0  0  0  0
   21.0415  -16.3425  -16.6449 C   0  0  0  0  0  0  0  0  0  0  0  0
   22.9815  -14.8936  -16.3066 C   0  0  2  0  0  0  0  0  0  0  0  0
   23.8408  -16.0467  -16.1684 N   0  0  0  0  0  0  0  0  0  0  0  0
   23.5485  -13.6978  -15.6296 C   0  0  0  0  0  0  0  0  0  0  0  0
   23.6546  -13.7028  -14.3766 O   0  0  0  0  0  0  0  0  0  0  0  0
   28.3544  -10.2574  -16.0818 C   0  0  0  0  0  0  0  0  0  0  0  0
   26.9297  -10.2247  -15.6270 C   0  0  1  0  0  0  0  0  0  0  0  0
   26.3942   -8.8438  -16.0046 C   0  0  0  0  0  0  0  0  0  0  0  0
   26.0436  -11.3179  -16.0192 C   0  0  0  0  0  0  0  0  0  0  0  0
   24.6384  -11.4024  -15.6044 C   0  0  2  0  0  0  0  0  0  0  0  0
   23.9812  -12.5421  -16.3093 N   0  0  0  0  0  0  0  0  0  0  0  0
   23.7811  -10.2301  -15.6462 C   0  0  0  0  0  0  0  0  0  0  0  0
   23.5592   -9.3399  -14.6301 O   0  0  0  0  0  0  0  0  0  0  0  0
   23.1597  -10.0114  -16.7601 O   0  0  0  0  0  0  0  0  0  0  0  0
  2  9  1  0
  2  1  1  6
  3  2  1  0
  4  3  1  0
  5  4  2  0
  6  7  1  0
  6  5  1  0
  7  8  2  0
  8  4  1  0
  9 10  2  0
 12 14  1  0
 12 11  1  6
 13 12  1  0
 14 15  1  1
 15  9  1  0
 16 14  1  0
 17 16  2  0
 19 18  1  6
 19 21  1  0
 20 19  1  0
 22 21  1  6
 22 23  1  0
 22 24  1  0
 23 16  1  0
 24 25  1  0
 26 24  2  0
M  END
$$$$
