HVL.pdb
     RDKit          3D

 26 26  0  0  1  0  0  0  0  0999 V2000
   25.9890  -18.8989  -15.9258 N   0  0  0  0  0  0  0  0  0  0  0  0
   26.8213  -18.7757  -14.7443 C   0  0  1  0  0  0  0  0  0  0  0  0
   27.5401  -17.4464  -14.8517 C   0  0  0  0  0  0  0  0  0  0  0  0
   28.4772  -17.4312  -16.0012 C   0  0  0  0  0  0  0  0  0  0  0  0
   29.6905  -18.0782  -16.0620 C   0  0  0  0  0  0  0  0  0  0  0  0
   30.2607  -17.8379  -17.2561 N   0  0  0  0  0  0  0  0  0  0  0  0
   29.4254  -17.0474  -17.9533 C   0  0  0  0  0  0  0  0  0  0  0  0
   28.3479  -16.8060  -17.1860 N   0  0  0  0  0  0  0  0  0  0  0  0
   25.9451  -18.8323  -13.5561 C   0  0  0  0  0  0  0  0  0  0  0  0
   24.7852  -18.3158  -13.5940 O   0  0  0  0  0  0  0  0  0  0  0  0
   23.3969  -21.2121  -10.8128 C   0  0  0  0  0  0  0  0  0  0  0  0
   24.3553  -20.8266  -11.8923 C   0  0  1  0  0  0  0  0  0  0  0  0
   23.7066  -20.1781  -13.0790 C   0  0  0  0  0  0  0  0  0  0  0  0
   25.3940  -19.8852  -11.3342 C   0  0  2  0  0  0  0  0  0  0  0  0
   26.3350  -19.4481  -12.3394 N   0  0  0  0  0  0  0  0  0  0  0  0
   26.0806  -20.4565  -10.1460 C   0  0  0  0  0  0  0  0  0  0  0  0
   26.6016  -21.5973  -10.2360 O   0  0  0  0  0  0  0  0  0  0  0  0
   29.6387  -20.5168   -5.9047 C   0  0  0  0  0  0  0  0  0  0  0  0
   28.3580  -19.7557   -5.7700 C   0  0  1  0  0  0  0  0  0  0  0  0
   28.6806  -18.5272   -4.9197 C   0  0  0  0  0  0  0  0  0  0  0  0
   27.5986  -19.4422   -6.9779 C   0  0  0  0  0  0  0  0  0  0  0  0
   26.8065  -20.4369   -7.7107 C   0  0  2  0  0  0  0  0  0  0  0  0
   26.1878  -19.7939   -8.9072 N   0  0  0  0  0  0  0  0  0  0  0  0
   25.8243  -21.2564   -7.0219 C   0  0  0  0  0  0  0  0  0  0  0  0
   26.0753  -22.3386   -6.2218 O   0  0  0  0  0  0  0  0  0  0  0  0
   24.5834  -20.9294   -7.1893 O   0  0  0  0  0  0  0  0  0  0  0  0
  2  9  1  0
  2  1  1  6
  3  2  1  0
  4  3  1  0
  5  4  2  0
  6  7  1  0
  6  5  1  0
  7  8  2  0
  8  4  1  0
  9 10  2  0
 12 14  1  0
 12 11  1  1
 13 12  1  0
 14 15  1  6
 15  9  1  0
 16 14  1  0
 17 16  2  0
 19 18  1  6
 19 21  1  0
 20 19  1  0
 22 21  1  1
 22 23  1  0
 22 24  1  0
 23 16  1  0
 24 25  1  0
 26 24  2  0
M  END
$$$$
