HVL.pdb
     RDKit          3D

 26 26  0  0  1  0  0  0  0  0999 V2000
   22.7166  -18.1660  -18.0129 N   0  0  0  0  0  0  0  0  0  0  0  0
   22.9482  -17.7118  -16.6551 C   0  0  1  0  0  0  0  0  0  0  0  0
   21.5938  -17.6407  -15.9800 C   0  0  0  0  0  0  0  0  0  0  0  0
   20.8274  -16.4543  -16.4321 C   0  0  0  0  0  0  0  0  0  0  0  0
   21.0497  -15.1532  -16.0421 C   0  0  0  0  0  0  0  0  0  0  0  0
   20.1623  -14.3497  -16.6552 N   0  0  0  0  0  0  0  0  0  0  0  0
   19.3804  -15.1237  -17.4285 C   0  0  0  0  0  0  0  0  0  0  0  0
   19.7900  -16.3967  -17.2875 N   0  0  0  0  0  0  0  0  0  0  0  0
   23.8429  -18.6823  -15.9915 C   0  0  0  0  0  0  0  0  0  0  0  0
   23.5662  -19.9219  -16.0115 O   0  0  0  0  0  0  0  0  0  0  0  0
   28.2030  -19.9096  -14.1306 C   0  0  0  0  0  0  0  0  0  0  0  0
   27.3581  -18.9503  -14.9041 C   0  0  1  0  0  0  0  0  0  0  0  0
   27.6005  -18.9819  -16.3840 C   0  0  0  0  0  0  0  0  0  0  0  0
   25.8997  -19.2391  -14.6465 C   0  0  2  0  0  0  0  0  0  0  0  0
   25.0282  -18.2994  -15.3132 N   0  0  0  0  0  0  0  0  0  0  0  0
   25.6004  -19.3352  -13.1936 C   0  0  0  0  0  0  0  0  0  0  0  0
   25.1452  -18.3249  -12.5994 O   0  0  0  0  0  0  0  0  0  0  0  0
   21.2472  -19.6743  -11.1188 C   0  0  0  0  0  0  0  0  0  0  0  0
   22.6975  -19.7242  -10.7557 C   0  0  1  0  0  0  0  0  0  0  0  0
   22.7503  -19.9217   -9.2410 C   0  0  0  0  0  0  0  0  0  0  0  0
   23.5731  -20.6339  -11.4904 C   0  0  0  0  0  0  0  0  0  0  0  0
   25.0025  -20.7875  -11.1958 C   0  0  2  0  0  0  0  0  0  0  0  0
   25.7959  -20.5011  -12.4272 N   0  0  0  0  0  0  0  0  0  0  0  0
   25.5016  -21.9895  -10.5501 C   0  0  0  0  0  0  0  0  0  0  0  0
   25.7262  -22.1684   -9.2115 O   0  0  0  0  0  0  0  0  0  0  0  0
   25.7657  -22.9915  -11.3254 O   0  0  0  0  0  0  0  0  0  0  0  0
  2  9  1  0
  2  1  1  6
  3  2  1  0
  4  3  1  0
  5  4  2  0
  6  7  1  0
  6  5  1  0
  7  8  2  0
  8  4  1  0
  9 10  2  0
 12 14  1  0
 12 11  1  1
 13 12  1  0
 14 15  1  1
 15  9  1  0
 16 14  1  0
 17 16  2  0
 19 18  1  6
 19 21  1  0
 20 19  1  0
 22 21  1  6
 22 23  1  0
 22 24  1  0
 23 16  1  0
 24 25  1  0
 26 24  2  0
M  END
$$$$
