HVL.pdb
     RDKit          3D

 26 26  0  0  1  0  0  0  0  0999 V2000
   20.6378  -24.9753  -19.7669 N   0  0  0  0  0  0  0  0  0  0  0  0
   21.1527  -24.7437  -18.4309 C   0  0  1  0  0  0  0  0  0  0  0  0
   20.6969  -23.3586  -18.0199 C   0  0  0  0  0  0  0  0  0  0  0  0
   21.4884  -22.3059  -18.7016 C   0  0  0  0  0  0  0  0  0  0  0  0
   22.5312  -22.5182  -19.5745 C   0  0  0  0  0  0  0  0  0  0  0  0
   23.0067  -21.3316  -19.9927 N   0  0  0  0  0  0  0  0  0  0  0  0
   22.2796  -20.3700  -19.3969 C   0  0  0  0  0  0  0  0  0  0  0  0
   21.3624  -20.9687  -18.6168 N   0  0  0  0  0  0  0  0  0  0  0  0
   20.6075  -25.7887  -17.5401 C   0  0  0  0  0  0  0  0  0  0  0  0
   19.4480  -26.2635  -17.7490 O   0  0  0  0  0  0  0  0  0  0  0  0
   21.1907  -29.6680  -14.7686 C   0  0  0  0  0  0  0  0  0  0  0  0
   21.7269  -28.6062  -15.6727 C   0  0  1  0  0  0  0  0  0  0  0  0
   21.8539  -29.0333  -17.1049 C   0  0  0  0  0  0  0  0  0  0  0  0
   20.8368  -27.3896  -15.6078 C   0  0  2  0  0  0  0  0  0  0  0  0
   21.3246  -26.3082  -16.4321 N   0  0  0  0  0  0  0  0  0  0  0  0
   20.5954  -26.9516  -14.2079 C   0  0  0  0  0  0  0  0  0  0  0  0
   21.4194  -26.1723  -13.6650 O   0  0  0  0  0  0  0  0  0  0  0  0
   21.7574  -29.3168  -10.0237 C   0  0  0  0  0  0  0  0  0  0  0  0
   20.5800  -28.8985  -10.8461 C   0  0  1  0  0  0  0  0  0  0  0  0
   19.3451  -29.4441  -10.1295 C   0  0  0  0  0  0  0  0  0  0  0  0
   20.4557  -27.4941  -11.2287 C   0  0  0  0  0  0  0  0  0  0  0  0
   19.3270  -26.9692  -12.0060 C   0  0  2  0  0  0  0  0  0  0  0  0
   19.4877  -27.3582  -13.4380 N   0  0  0  0  0  0  0  0  0  0  0  0
   18.9471  -25.5701  -11.9096 C   0  0  0  0  0  0  0  0  0  0  0  0
   17.9258  -25.0473  -11.1627 O   0  0  0  0  0  0  0  0  0  0  0  0
   19.6460  -24.7349  -12.6087 O   0  0  0  0  0  0  0  0  0  0  0  0
  2  9  1  0
  2  1  1  6
  3  2  1  0
  4  3  1  0
  5  4  2  0
  6  7  1  0
  6  5  1  0
  7  8  2  0
  8  4  1  0
  9 10  2  0
 12 14  1  0
 12 11  1  1
 13 12  1  0
 14 15  1  6
 15  9  1  0
 16 14  1  0
 17 16  2  0
 19 18  1  1
 19 21  1  0
 20 19  1  0
 22 21  1  1
 22 23  1  0
 22 24  1  0
 23 16  1  0
 24 25  1  0
 26 24  2  0
M  END
$$$$
