HVL.pdb
     RDKit          3D

 26 26  0  0  1  0  0  0  0  0999 V2000
   18.9006  -14.9886  -17.2877 N   0  0  0  0  0  0  0  0  0  0  0  0
   18.4778  -13.6060  -17.1717 C   0  0  1  0  0  0  0  0  0  0  0  0
   17.5526  -13.5299  -15.9744 C   0  0  0  0  0  0  0  0  0  0  0  0
   16.2578  -14.1986  -16.2500 C   0  0  0  0  0  0  0  0  0  0  0  0
   15.1717  -13.6284  -16.8741 C   0  0  0  0  0  0  0  0  0  0  0  0
   14.1792  -14.5329  -16.9491 N   0  0  0  0  0  0  0  0  0  0  0  0
   14.6213  -15.6688  -16.3810 C   0  0  0  0  0  0  0  0  0  0  0  0
   15.8809  -15.4577  -15.9603 N   0  0  0  0  0  0  0  0  0  0  0  0
   19.6824  -12.7702  -16.9895 C   0  0  0  0  0  0  0  0  0  0  0  0
   20.6703  -13.2117  -16.3243 O   0  0  0  0  0  0  0  0  0  0  0  0
   22.1511  -11.4171  -19.3094 C   0  0  0  0  0  0  0  0  0  0  0  0
   21.6122  -10.2096  -18.6136 C   0  0  1  0  0  0  0  0  0  0  0  0
   20.6210   -9.4306  -19.4263 C   0  0  0  0  0  0  0  0  0  0  0  0
   20.9580  -10.6221  -17.3181 C   0  0  2  0  0  0  0  0  0  0  0  0
   19.8037  -11.4646  -17.5302 N   0  0  0  0  0  0  0  0  0  0  0  0
   20.6371   -9.4514  -16.4601 C   0  0  0  0  0  0  0  0  0  0  0  0
   19.4652   -8.9956  -16.4682 O   0  0  0  0  0  0  0  0  0  0  0  0
   21.7709   -5.6244  -12.4317 C   0  0  0  0  0  0  0  0  0  0  0  0
   21.2811   -7.0280  -12.2655 C   0  0  1  0  0  0  0  0  0  0  0  0
   19.8254   -6.9197  -11.8123 C   0  0  0  0  0  0  0  0  0  0  0  0
   21.4789   -7.9738  -13.3611 C   0  0  0  0  0  0  0  0  0  0  0  0
   21.2080   -7.6456  -14.7657 C   0  0  2  0  0  0  0  0  0  0  0  0
   21.5736   -8.8092  -15.6260 N   0  0  0  0  0  0  0  0  0  0  0  0
   21.7135   -6.4155  -15.3506 C   0  0  0  0  0  0  0  0  0  0  0  0
   21.1311   -5.1781  -15.2886 O   0  0  0  0  0  0  0  0  0  0  0  0
   22.8281   -6.5042  -16.0023 O   0  0  0  0  0  0  0  0  0  0  0  0
  2  9  1  0
  2  1  1  1
  3  2  1  0
  4  3  1  0
  5  4  2  0
  6  7  1  0
  6  5  1  0
  7  8  2  0
  8  4  1  0
  9 10  2  0
 12 14  1  0
 12 11  1  6
 13 12  1  0
 14 15  1  6
 15  9  1  0
 16 14  1  0
 17 16  2  0
 19 18  1  6
 19 21  1  0
 20 19  1  0
 22 21  1  1
 22 23  1  0
 22 24  1  0
 23 16  1  0
 24 25  1  0
 26 24  2  0
M  END
$$$$
