HVL.pdb
     RDKit          3D

 26 26  0  0  1  0  0  0  0  0999 V2000
   19.0999  -13.7485  -17.3261 N   0  0  0  0  0  0  0  0  0  0  0  0
   18.8168  -12.4689  -16.7047 C   0  0  1  0  0  0  0  0  0  0  0  0
   18.4988  -12.7491  -15.2502 C   0  0  0  0  0  0  0  0  0  0  0  0
   17.2152  -13.4786  -15.1096 C   0  0  0  0  0  0  0  0  0  0  0  0
   15.9585  -12.9356  -15.2524 C   0  0  0  0  0  0  0  0  0  0  0  0
   15.0369  -13.8950  -15.0543 N   0  0  0  0  0  0  0  0  0  0  0  0
   15.6922  -15.0387  -14.7877 C   0  0  0  0  0  0  0  0  0  0  0  0
   17.0108  -14.7776  -14.8233 N   0  0  0  0  0  0  0  0  0  0  0  0
   20.0114  -11.6119  -16.8510 C   0  0  0  0  0  0  0  0  0  0  0  0
   21.1718  -12.1025  -16.6889 O   0  0  0  0  0  0  0  0  0  0  0  0
   20.1298   -8.1709  -19.1613 C   0  0  0  0  0  0  0  0  0  0  0  0
   21.3447   -8.8773  -18.6540 C   0  0  1  0  0  0  0  0  0  0  0  0
   22.5838   -8.0319  -18.6514 C   0  0  0  0  0  0  0  0  0  0  0  0
   21.0935   -9.3717  -17.2508 C   0  0  2  0  0  0  0  0  0  0  0  0
   19.9359  -10.2323  -17.1713 N   0  0  0  0  0  0  0  0  0  0  0  0
   21.0197   -8.2547  -16.2728 C   0  0  0  0  0  0  0  0  0  0  0  0
   19.9200   -7.6695  -16.1014 O   0  0  0  0  0  0  0  0  0  0  0  0
   22.8090   -3.5040  -14.1115 C   0  0  0  0  0  0  0  0  0  0  0  0
   21.5954   -4.1011  -14.7504 C   0  0  1  0  0  0  0  0  0  0  0  0
   21.0531   -3.0403  -15.7079 C   0  0  0  0  0  0  0  0  0  0  0  0
   21.7016   -5.4274  -15.3536 C   0  0  0  0  0  0  0  0  0  0  0  0
   22.0172   -6.6374  -14.5855 C   0  0  2  0  0  0  0  0  0  0  0  0
   22.1170   -7.8018  -15.5139 N   0  0  0  0  0  0  0  0  0  0  0  0
   21.2344   -6.9985  -13.4160 C   0  0  0  0  0  0  0  0  0  0  0  0
   20.6769   -8.2197  -13.1475 O   0  0  0  0  0  0  0  0  0  0  0  0
   21.0415   -6.0638  -12.5420 O   0  0  0  0  0  0  0  0  0  0  0  0
  2  9  1  0
  2  1  1  6
  3  2  1  0
  4  3  1  0
  5  4  2  0
  6  7  1  0
  6  5  1  0
  7  8  2  0
  8  4  1  0
  9 10  2  0
 12 14  1  0
 12 11  1  1
 13 12  1  0
 14 15  1  6
 15  9  1  0
 16 14  1  0
 17 16  2  0
 19 18  1  6
 19 21  1  0
 20 19  1  0
 22 21  1  6
 22 23  1  0
 22 24  1  0
 23 16  1  0
 24 25  1  0
 26 24  2  0
M  END
$$$$
