HVL.pdb
     RDKit          3D

 26 26  0  0  1  0  0  0  0  0999 V2000
   26.5170  -22.3498  -16.7013 N   0  0  0  0  0  0  0  0  0  0  0  0
   27.4966  -21.6794  -15.8678 C   0  0  1  0  0  0  0  0  0  0  0  0
   28.3719  -20.8598  -16.7938 C   0  0  0  0  0  0  0  0  0  0  0  0
   29.3006  -21.7233  -17.5628 C   0  0  0  0  0  0  0  0  0  0  0  0
   29.4280  -23.0876  -17.4335 C   0  0  0  0  0  0  0  0  0  0  0  0
   30.3657  -23.5277  -18.2914 N   0  0  0  0  0  0  0  0  0  0  0  0
   30.8345  -22.4609  -18.9628 C   0  0  0  0  0  0  0  0  0  0  0  0
   30.1842  -21.3723  -18.5154 N   0  0  0  0  0  0  0  0  0  0  0  0
   26.7730  -20.8294  -14.9001 C   0  0  0  0  0  0  0  0  0  0  0  0
   26.1821  -19.7761  -15.2936 O   0  0  0  0  0  0  0  0  0  0  0  0
   23.3396  -20.3867  -12.0358 C   0  0  0  0  0  0  0  0  0  0  0  0
   24.3026  -20.7895  -13.1049 C   0  0  1  0  0  0  0  0  0  0  0  0
   24.1032  -20.0705  -14.4060 C   0  0  0  0  0  0  0  0  0  0  0  0
   25.7146  -20.5489  -12.6306 C   0  0  2  0  0  0  0  0  0  0  0  0
   26.6972  -21.1298  -13.5160 N   0  0  0  0  0  0  0  0  0  0  0  0
   25.9107  -20.9875  -11.2239 C   0  0  0  0  0  0  0  0  0  0  0  0
   25.9249  -22.2185  -10.9681 O   0  0  0  0  0  0  0  0  0  0  0  0
   28.8564  -20.5736   -6.4604 C   0  0  0  0  0  0  0  0  0  0  0  0
   27.6480  -19.7207   -6.6836 C   0  0  1  0  0  0  0  0  0  0  0  0
   27.9218  -18.3990   -5.9664 C   0  0  0  0  0  0  0  0  0  0  0  0
   27.1534  -19.5492   -8.0474 C   0  0  0  0  0  0  0  0  0  0  0  0
   26.3910  -20.5797   -8.7620 C   0  0  2  0  0  0  0  0  0  0  0  0
   26.0843  -20.1015  -10.1423 N   0  0  0  0  0  0  0  0  0  0  0  0
   25.2064  -21.1729   -8.1657 C   0  0  0  0  0  0  0  0  0  0  0  0
   25.1711  -22.1858   -7.2454 O   0  0  0  0  0  0  0  0  0  0  0  0
   24.0674  -20.6948   -8.5517 O   0  0  0  0  0  0  0  0  0  0  0  0
  2  9  1  0
  2  1  1  6
  3  2  1  0
  4  3  1  0
  5  4  2  0
  6  7  1  0
  6  5  1  0
  7  8  2  0
  8  4  1  0
  9 10  2  0
 12 14  1  0
 12 11  1  1
 13 12  1  0
 14 15  1  6
 15  9  1  0
 16 14  1  0
 17 16  2  0
 19 18  1  6
 19 21  1  0
 20 19  1  0
 22 21  1  1
 22 23  1  0
 22 24  1  0
 23 16  1  0
 24 25  1  0
 26 24  2  0
M  END
$$$$
