HVL.pdb
     RDKit          3D

 26 26  0  0  1  0  0  0  0  0999 V2000
   22.8574  -21.5044  -13.4862 N   0  0  0  0  0  0  0  0  0  0  0  0
   23.0295  -20.5607  -12.3983 C   0  0  1  0  0  0  0  0  0  0  0  0
   21.6960  -20.4661  -11.6855 C   0  0  0  0  0  0  0  0  0  0  0  0
   20.7046  -19.7152  -12.4934 C   0  0  0  0  0  0  0  0  0  0  0  0
   20.7381  -18.3656  -12.7617 C   0  0  0  0  0  0  0  0  0  0  0  0
   19.6783  -18.0394  -13.5229 N   0  0  0  0  0  0  0  0  0  0  0  0
   18.9734  -19.1637  -13.7408 C   0  0  0  0  0  0  0  0  0  0  0  0
   19.6018  -20.1738  -13.1139 N   0  0  0  0  0  0  0  0  0  0  0  0
   24.0929  -21.0722  -11.5093 C   0  0  0  0  0  0  0  0  0  0  0  0
   23.9718  -22.2110  -10.9598 O   0  0  0  0  0  0  0  0  0  0  0  0
   28.7627  -21.4780  -10.4278 C   0  0  0  0  0  0  0  0  0  0  0  0
   27.6673  -20.8938  -11.2591 C   0  0  1  0  0  0  0  0  0  0  0  0
   27.4348  -21.6149  -12.5536 C   0  0  0  0  0  0  0  0  0  0  0  0
   26.3811  -20.8890  -10.4702 C   0  0  2  0  0  0  0  0  0  0  0  0
   25.2764  -20.3441  -11.2251 N   0  0  0  0  0  0  0  0  0  0  0  0
   26.5382  -20.2136   -9.1553 C   0  0  0  0  0  0  0  0  0  0  0  0
   26.2224  -19.0007   -9.0542 O   0  0  0  0  0  0  0  0  0  0  0  0
   27.1622  -20.1133   -3.4200 C   0  0  0  0  0  0  0  0  0  0  0  0
   28.1931  -20.6290   -4.3733 C   0  0  1  0  0  0  0  0  0  0  0  0
   28.9687  -21.7082   -3.6182 C   0  0  0  0  0  0  0  0  0  0  0  0
   27.7680  -21.0460   -5.7072 C   0  0  0  0  0  0  0  0  0  0  0  0
   27.3366  -20.1027   -6.7453 C   0  0  2  0  0  0  0  0  0  0  0  0
   27.0248  -20.8525   -7.9977 N   0  0  0  0  0  0  0  0  0  0  0  0
   28.1305  -18.9257   -7.0541 C   0  0  0  0  0  0  0  0  0  0  0  0
   27.9444  -17.6600   -6.5667 O   0  0  0  0  0  0  0  0  0  0  0  0
   29.1115  -19.0945   -7.8812 O   0  0  0  0  0  0  0  0  0  0  0  0
  2  9  1  0
  2  1  1  6
  3  2  1  0
  4  3  1  0
  5  4  2  0
  6  7  1  0
  6  5  1  0
  7  8  2  0
  8  4  1  0
  9 10  2  0
 12 14  1  0
 12 11  1  1
 13 12  1  0
 14 15  1  6
 15  9  1  0
 16 14  1  0
 17 16  2  0
 19 18  1  1
 19 21  1  0
 20 19  1  0
 22 21  1  1
 22 23  1  0
 22 24  1  0
 23 16  1  0
 24 25  1  0
 26 24  2  0
M  END
$$$$
