NMD.pdb
     RDKit          3D

 25 24  0  0  1  0  0  0  0  0999 V2000
   19.8280  -15.3034  -16.4291 N   0  0  0  0  0  0  0  0  0  0  0  0
   20.1362  -13.9870  -16.7985 C   0  0  0  0  0  0  0  0  0  0  0  0
   20.2043  -13.6525  -18.0089 O   0  0  0  0  0  0  0  0  0  0  0  0
   20.3880  -12.9650  -15.7780 C   0  0  0  0  0  0  0  0  0  0  0  0
   20.4471  -11.6066  -16.4374 C   0  0  2  0  0  0  0  0  0  0  0  0
   20.8971  -11.6858  -17.8051 N   0  0  0  0  0  0  0  0  0  0  0  0
   21.3266  -10.6785  -15.6652 C   0  0  0  0  0  0  0  0  0  0  0  0
   21.2234  -10.5521  -14.4194 O   0  0  0  0  0  0  0  0  0  0  0  0
   27.1432  -12.5175  -15.1764 C   0  0  0  0  0  0  0  0  0  0  0  0
   26.7653  -10.8760  -15.8665 S   0  0  0  0  0  0  0  0  0  0  0  0
   25.0036  -10.5507  -15.4149 C   0  0  0  0  0  0  0  0  0  0  0  0
   24.5857   -9.2040  -15.8922 C   0  0  0  0  0  0  0  0  0  0  0  0
   23.1342   -8.9708  -15.6096 C   0  0  2  0  0  0  0  0  0  0  0  0
   22.2991   -9.9210  -16.3365 N   0  0  0  0  0  0  0  0  0  0  0  0
   22.6573   -7.5916  -15.8482 C   0  0  0  0  0  0  0  0  0  0  0  0
   22.2912   -7.1360  -16.9541 O   0  0  0  0  0  0  0  0  0  0  0  0
   22.6067   -6.7001  -14.7344 N   0  0  0  0  0  0  0  0  0  0  0  0
   22.1550   -5.3321  -14.8467 C   0  0  1  0  0  0  0  0  0  0  0  0
   20.7415   -5.3397  -15.3614 C   0  0  0  0  0  0  0  0  0  0  0  0
   20.1980   -3.9662  -15.3903 C   0  0  0  0  0  0  0  0  0  0  0  0
   20.9096   -2.9917  -15.7173 O   0  0  0  0  0  0  0  0  0  0  0  0
   22.2317   -4.7214  -13.4844 C   0  0  0  0  0  0  0  0  0  0  0  0
   22.1320   -3.3522  -13.2948 O   0  0  0  0  0  0  0  0  0  0  0  0
   18.8578   -3.7494  -15.0445 O   0  0  0  0  0  0  0  0  0  0  0  0
   22.3896   -5.4603  -12.4865 O   0  0  0  0  0  0  0  0  0  0  0  0
  2  1  1  0
  2  3  2  0
  4  5  1  0
  4  2  1  0
  5  6  1  6
  7  5  1  0
  7  8  2  0
  9 10  1  0
 11 10  1  0
 12 11  1  0
 13 12  1  6
 13 14  1  0
 14  7  1  0
 15 17  1  0
 15 13  1  0
 16 15  2  0
 18 17  1  0
 18 22  1  0
 19 20  1  0
 18 19  1  1
 20 24  1  0
 21 20  2  0
 22 23  1  0
 25 22  2  0
M  END
$$$$
