NMD.pdb
     RDKit          3D

 25 24  0  0  1  0  0  0  0  0999 V2000
   16.1318  -14.6765  -13.5684 N   0  0  0  0  0  0  0  0  0  0  0  0
   17.2107  -13.8801  -13.9757 C   0  0  0  0  0  0  0  0  0  0  0  0
   18.2835  -14.3986  -14.3780 O   0  0  0  0  0  0  0  0  0  0  0  0
   17.1136  -12.4176  -13.9416 C   0  0  0  0  0  0  0  0  0  0  0  0
   15.8175  -12.0199  -13.2742 C   0  0  2  0  0  0  0  0  0  0  0  0
   14.6658  -12.3979  -14.0554 N   0  0  0  0  0  0  0  0  0  0  0  0
   15.7881  -10.5515  -13.0022 C   0  0  0  0  0  0  0  0  0  0  0  0
   15.4939   -9.7187  -13.8959 O   0  0  0  0  0  0  0  0  0  0  0  0
   15.3485   -7.3975   -6.9310 C   0  0  0  0  0  0  0  0  0  0  0  0
   14.2461   -6.7322   -8.2179 S   0  0  0  0  0  0  0  0  0  0  0  0
   15.1462   -6.9876   -9.8110 C   0  0  0  0  0  0  0  0  0  0  0  0
   15.2806   -8.4409  -10.1039 C   0  0  0  0  0  0  0  0  0  0  0  0
   15.9865   -8.6537  -11.4067 C   0  0  2  0  0  0  0  0  0  0  0  0
   16.0953  -10.0749  -11.7183 N   0  0  0  0  0  0  0  0  0  0  0  0
   17.3117   -8.0075  -11.5207 C   0  0  0  0  0  0  0  0  0  0  0  0
   18.3121   -8.2849  -10.8230 O   0  0  0  0  0  0  0  0  0  0  0  0
   17.4734   -6.9835  -12.5021 N   0  0  0  0  0  0  0  0  0  0  0  0
   18.7413   -6.3399  -12.7601 C   0  0  1  0  0  0  0  0  0  0  0  0
   19.6441   -7.3279  -13.4468 C   0  0  0  0  0  0  0  0  0  0  0  0
   20.8846   -6.6635  -13.8971 C   0  0  0  0  0  0  0  0  0  0  0  0
   21.0272   -6.2847  -15.0799 O   0  0  0  0  0  0  0  0  0  0  0  0
   18.4735   -5.1550  -13.6313 C   0  0  0  0  0  0  0  0  0  0  0  0
   17.2614   -4.9907  -14.2828 O   0  0  0  0  0  0  0  0  0  0  0  0
   21.9234   -6.4527  -12.9810 O   0  0  0  0  0  0  0  0  0  0  0  0
   19.3624   -4.2864  -13.7795 O   0  0  0  0  0  0  0  0  0  0  0  0
  2  1  1  0
  2  3  2  0
  4  5  1  0
  4  2  1  0
  5  6  1  6
  7  5  1  0
  7  8  2  0
  9 10  1  0
 11 10  1  0
 12 11  1  0
 13 12  1  1
 13 14  1  0
 14  7  1  0
 15 17  1  0
 15 13  1  0
 16 15  2  0
 18 17  1  0
 18 22  1  0
 19 20  1  0
 18 19  1  6
 20 24  1  0
 21 20  2  0
 22 23  1  0
 25 22  2  0
M  END
$$$$
