NMD.pdb
     RDKit          3D

 25 24  0  0  1  0  0  0  0  0999 V2000
   18.9188  -27.5148   -4.1965 N   0  0  0  0  0  0  0  0  0  0  0  0
   18.3440  -27.9298   -5.4055 C   0  0  0  0  0  0  0  0  0  0  0  0
   18.3020  -29.1470   -5.7190 O   0  0  0  0  0  0  0  0  0  0  0  0
   17.7764  -26.9504   -6.3371 C   0  0  0  0  0  0  0  0  0  0  0  0
   18.0282  -25.5570   -5.8094 C   0  0  2  0  0  0  0  0  0  0  0  0
   17.1826  -25.2408   -4.6849 N   0  0  0  0  0  0  0  0  0  0  0  0
   17.8438  -24.5390   -6.8868 C   0  0  0  0  0  0  0  0  0  0  0  0
   16.7159  -24.0525   -7.1515 O   0  0  0  0  0  0  0  0  0  0  0  0
   21.5800  -19.3506   -8.7530 C   0  0  0  0  0  0  0  0  0  0  0  0
   21.4051  -20.3733  -10.2487 S   0  0  0  0  0  0  0  0  0  0  0  0
   19.8513  -21.3412   -9.9989 C   0  0  0  0  0  0  0  0  0  0  0  0
   20.0636  -22.4109   -8.9857 C   0  0  0  0  0  0  0  0  0  0  0  0
   18.7871  -23.1460   -8.7188 C   0  0  2  0  0  0  0  0  0  0  0  0
   18.9515  -24.1048   -7.6315 N   0  0  0  0  0  0  0  0  0  0  0  0
   18.1830  -23.8110   -9.8933 C   0  0  0  0  0  0  0  0  0  0  0  0
   18.2901  -25.0265  -10.1687 O   0  0  0  0  0  0  0  0  0  0  0  0
   17.4141  -23.0113  -10.7918 N   0  0  0  0  0  0  0  0  0  0  0  0
   16.5310  -23.5788  -11.7849 C   0  0  1  0  0  0  0  0  0  0  0  0
   15.4456  -24.3409  -11.0748 C   0  0  0  0  0  0  0  0  0  0  0  0
   14.4891  -24.9020  -12.0511 C   0  0  0  0  0  0  0  0  0  0  0  0
   14.7400  -24.9117  -13.2758 O   0  0  0  0  0  0  0  0  0  0  0  0
   15.9657  -22.4472  -12.5813 C   0  0  0  0  0  0  0  0  0  0  0  0
   15.5123  -21.2864  -11.9749 O   0  0  0  0  0  0  0  0  0  0  0  0
   13.2755  -25.4346  -11.5970 O   0  0  0  0  0  0  0  0  0  0  0  0
   15.8979  -22.5447  -13.8274 O   0  0  0  0  0  0  0  0  0  0  0  0
  2  1  1  0
  2  3  2  0
  4  5  1  0
  4  2  1  0
  5  6  1  1
  7  5  1  0
  7  8  2  0
  9 10  1  0
 11 10  1  0
 12 11  1  0
 13 12  1  6
 13 14  1  0
 14  7  1  0
 15 17  1  0
 15 13  1  0
 16 15  2  0
 18 17  1  0
 18 22  1  0
 19 20  1  0
 18 19  1  1
 20 24  1  0
 21 20  2  0
 22 23  1  0
 25 22  2  0
M  END
$$$$
