NMD.pdb
     RDKit          3D

 25 24  0  0  1  0  0  0  0  0999 V2000
   18.5297  -13.4907  -17.3325 N   0  0  0  0  0  0  0  0  0  0  0  0
   19.0676  -13.7868  -16.0727 C   0  0  0  0  0  0  0  0  0  0  0  0
   18.7376  -14.8323  -15.4565 O   0  0  0  0  0  0  0  0  0  0  0  0
   20.0313  -12.8805  -15.4408 C   0  0  0  0  0  0  0  0  0  0  0  0
   20.2347  -11.6734  -16.3268 C   0  0  2  0  0  0  0  0  0  0  0  0
   20.9244  -12.0063  -17.5487 N   0  0  0  0  0  0  0  0  0  0  0  0
   20.9764  -10.5995  -15.6003 C   0  0  0  0  0  0  0  0  0  0  0  0
   20.5775  -10.1502  -14.4967 O   0  0  0  0  0  0  0  0  0  0  0  0
   26.9836  -10.1085  -16.7968 C   0  0  0  0  0  0  0  0  0  0  0  0
   26.6550  -10.4864  -15.0466 S   0  0  0  0  0  0  0  0  0  0  0  0
   24.8301  -10.2863  -14.8388 C   0  0  0  0  0  0  0  0  0  0  0  0
   24.3407   -9.1290  -15.6368 C   0  0  0  0  0  0  0  0  0  0  0  0
   22.8585   -8.9770  -15.4919 C   0  0  2  0  0  0  0  0  0  0  0  0
   22.1521  -10.0688  -16.1535 N   0  0  0  0  0  0  0  0  0  0  0  0
   22.3099   -7.6771  -15.9348 C   0  0  0  0  0  0  0  0  0  0  0  0
   22.2418   -7.2896  -17.1221 O   0  0  0  0  0  0  0  0  0  0  0  0
   21.8160   -6.7851  -14.9356 N   0  0  0  0  0  0  0  0  0  0  0  0
   21.3718   -5.4430  -15.2351 C   0  0  1  0  0  0  0  0  0  0  0  0
   19.8880   -5.3703  -14.9986 C   0  0  0  0  0  0  0  0  0  0  0  0
   19.3994   -3.9938  -15.2206 C   0  0  0  0  0  0  0  0  0  0  0  0
   19.2099   -3.2089  -14.2662 O   0  0  0  0  0  0  0  0  0  0  0  0
   22.1108   -4.5132  -14.3274 C   0  0  0  0  0  0  0  0  0  0  0  0
   22.4161   -3.2159  -14.7075 O   0  0  0  0  0  0  0  0  0  0  0  0
   19.1426   -3.5573  -16.5268 O   0  0  0  0  0  0  0  0  0  0  0  0
   22.4650   -4.9108  -13.1946 O   0  0  0  0  0  0  0  0  0  0  0  0
  2  1  1  0
  2  3  2  0
  4  5  1  0
  4  2  1  0
  5  6  1  6
  7  5  1  0
  7  8  2  0
  9 10  1  0
 11 10  1  0
 12 11  1  0
 13 12  1  6
 13 14  1  0
 14  7  1  0
 15 17  1  0
 15 13  1  0
 16 15  2  0
 18 17  1  0
 18 22  1  0
 19 20  1  0
 18 19  1  1
 20 24  1  0
 21 20  2  0
 22 23  1  0
 25 22  2  0
M  END
$$$$
