NMD.pdb
     RDKit          3D

 25 24  0  0  1  0  0  0  0  0999 V2000
   20.6023  -13.4604  -19.8994 N   0  0  0  0  0  0  0  0  0  0  0  0
   19.2938  -12.9596  -19.9351 C   0  0  0  0  0  0  0  0  0  0  0  0
   18.4667  -13.3676  -20.7901 O   0  0  0  0  0  0  0  0  0  0  0  0
   18.8570  -11.9436  -18.9726 C   0  0  0  0  0  0  0  0  0  0  0  0
   19.9822  -11.6574  -18.0054 C   0  0  2  0  0  0  0  0  0  0  0  0
   20.3197  -12.8105  -17.2081 N   0  0  0  0  0  0  0  0  0  0  0  0
   19.6395  -10.5068  -17.1166 C   0  0  0  0  0  0  0  0  0  0  0  0
   19.3152   -9.3853  -17.5812 O   0  0  0  0  0  0  0  0  0  0  0  0
   16.8167   -8.2383  -10.2513 C   0  0  0  0  0  0  0  0  0  0  0  0
   17.4044   -9.6947  -11.1717 S   0  0  0  0  0  0  0  0  0  0  0  0
   18.2197   -9.0188  -12.6856 C   0  0  0  0  0  0  0  0  0  0  0  0
   18.6863  -10.1274  -13.5626 C   0  0  0  0  0  0  0  0  0  0  0  0
   19.2565   -9.5878  -14.8372 C   0  0  2  0  0  0  0  0  0  0  0  0
   19.6765  -10.6686  -15.7228 N   0  0  0  0  0  0  0  0  0  0  0  0
   20.3544   -8.6106  -14.6749 C   0  0  0  0  0  0  0  0  0  0  0  0
   21.5746   -8.8825  -14.7183 O   0  0  0  0  0  0  0  0  0  0  0  0
   20.0053   -7.2448  -14.4500 N   0  0  0  0  0  0  0  0  0  0  0  0
   20.9892   -6.1903  -14.3587 C   0  0  1  0  0  0  0  0  0  0  0  0
   21.5705   -5.9637  -15.7275 C   0  0  0  0  0  0  0  0  0  0  0  0
   22.5779   -4.8838  -15.6853 C   0  0  0  0  0  0  0  0  0  0  0  0
   23.3016   -4.7081  -14.6811 O   0  0  0  0  0  0  0  0  0  0  0  0
   20.2904   -4.9673  -13.8582 C   0  0  0  0  0  0  0  0  0  0  0  0
   20.9816   -3.9350  -13.2441 O   0  0  0  0  0  0  0  0  0  0  0  0
   22.7268   -4.0384  -16.7924 O   0  0  0  0  0  0  0  0  0  0  0  0
   19.0501   -4.8678  -13.9944 O   0  0  0  0  0  0  0  0  0  0  0  0
  2  1  1  0
  2  3  2  0
  4  5  1  0
  4  2  1  0
  5  6  1  1
  7  5  1  0
  7  8  2  0
  9 10  1  0
 11 10  1  0
 12 11  1  0
 13 12  1  1
 13 14  1  0
 14  7  1  0
 15 17  1  0
 15 13  1  0
 16 15  2  0
 18 17  1  0
 18 22  1  0
 19 20  1  0
 18 19  1  6
 20 24  1  0
 21 20  2  0
 22 23  1  0
 25 22  2  0
M  END
$$$$
