NMD.pdb
     RDKit          3D

 25 24  0  0  1  0  0  0  0  0999 V2000
   29.3380  -18.5448  -17.1498 N   0  0  0  0  0  0  0  0  0  0  0  0
   27.9538  -18.3710  -17.2840 C   0  0  0  0  0  0  0  0  0  0  0  0
   27.4823  -17.4781  -18.0337 O   0  0  0  0  0  0  0  0  0  0  0  0
   27.0191  -19.2295  -16.5499 C   0  0  0  0  0  0  0  0  0  0  0  0
   27.8007  -20.2107  -15.7074 C   0  0  2  0  0  0  0  0  0  0  0  0
   28.4556  -21.2144  -16.5094 N   0  0  0  0  0  0  0  0  0  0  0  0
   26.9175  -20.8643  -14.6956 C   0  0  0  0  0  0  0  0  0  0  0  0
   26.4402  -22.0124  -14.8770 O   0  0  0  0  0  0  0  0  0  0  0  0
   26.9783  -21.1304   -8.1422 C   0  0  0  0  0  0  0  0  0  0  0  0
   25.3257  -20.4521   -8.4919 S   0  0  0  0  0  0  0  0  0  0  0  0
   24.9490  -20.9562  -10.2290 C   0  0  0  0  0  0  0  0  0  0  0  0
   25.9077  -20.3199  -11.1734 C   0  0  0  0  0  0  0  0  0  0  0  0
   25.6127  -20.7315  -12.5822 C   0  0  2  0  0  0  0  0  0  0  0  0
   26.6040  -20.1896  -13.5054 N   0  0  0  0  0  0  0  0  0  0  0  0
   24.2495  -20.4161  -13.0606 C   0  0  0  0  0  0  0  0  0  0  0  0
   23.8679  -19.2956  -13.4648 O   0  0  0  0  0  0  0  0  0  0  0  0
   23.2835  -21.4672  -13.0658 N   0  0  0  0  0  0  0  0  0  0  0  0
   21.9203  -21.2752  -13.5052 C   0  0  1  0  0  0  0  0  0  0  0  0
   21.4624  -22.5315  -14.1944 C   0  0  0  0  0  0  0  0  0  0  0  0
   21.5008  -22.3559  -15.6609 C   0  0  0  0  0  0  0  0  0  0  0  0
   21.8623  -21.2765  -16.1776 O   0  0  0  0  0  0  0  0  0  0  0  0
   21.0941  -20.9913  -12.2923 C   0  0  0  0  0  0  0  0  0  0  0  0
   19.9541  -20.2058  -12.3565 O   0  0  0  0  0  0  0  0  0  0  0  0
   21.1247  -23.4199  -16.4911 O   0  0  0  0  0  0  0  0  0  0  0  0
   21.4354  -21.4726  -11.1884 O   0  0  0  0  0  0  0  0  0  0  0  0
  2  1  1  0
  2  3  2  0
  4  5  1  0
  4  2  1  0
  5  6  1  6
  7  5  1  0
  7  8  2  0
  9 10  1  0
 11 10  1  0
 12 11  1  0
 13 12  1  1
 13 14  1  0
 14  7  1  0
 15 17  1  0
 15 13  1  0
 16 15  2  0
 18 17  1  0
 18 22  1  0
 19 20  1  0
 18 19  1  1
 20 24  1  0
 21 20  2  0
 22 23  1  0
 25 22  2  0
M  END
$$$$
