NMD.pdb
     RDKit          3D

 25 24  0  0  1  0  0  0  0  0999 V2000
   16.5738  -16.0804  -16.0191 N   0  0  0  0  0  0  0  0  0  0  0  0
   17.5265  -15.4810  -16.8541 C   0  0  0  0  0  0  0  0  0  0  0  0
   17.4156  -15.5328  -18.1057 O   0  0  0  0  0  0  0  0  0  0  0  0
   18.6799  -14.7769  -16.2854 C   0  0  0  0  0  0  0  0  0  0  0  0
   18.8395  -13.4427  -16.9768 C   0  0  2  0  0  0  0  0  0  0  0  0
   19.1654  -13.5902  -18.3737 N   0  0  0  0  0  0  0  0  0  0  0  0
   19.8784  -12.6123  -16.2968 C   0  0  0  0  0  0  0  0  0  0  0  0
   19.7844  -12.2975  -15.0840 O   0  0  0  0  0  0  0  0  0  0  0  0
   27.2571  -10.7519  -15.3738 C   0  0  0  0  0  0  0  0  0  0  0  0
   26.1202  -11.6358  -16.4874 S   0  0  0  0  0  0  0  0  0  0  0  0
   24.4330  -11.0252  -16.0469 C   0  0  0  0  0  0  0  0  0  0  0  0
   23.3930  -11.8078  -16.7691 C   0  0  0  0  0  0  0  0  0  0  0  0
   22.0220  -11.3533  -16.3754 C   0  0  2  0  0  0  0  0  0  0  0  0
   20.9952  -12.1650  -17.0198 N   0  0  0  0  0  0  0  0  0  0  0  0
   21.7446   -9.9176  -16.5952 C   0  0  0  0  0  0  0  0  0  0  0  0
   21.6441   -9.3650  -17.7129 O   0  0  0  0  0  0  0  0  0  0  0  0
   21.5763   -9.0862  -15.4470 N   0  0  0  0  0  0  0  0  0  0  0  0
   21.2292   -7.6864  -15.5382 C   0  0  1  0  0  0  0  0  0  0  0  0
   19.9559   -7.5638  -16.3299 C   0  0  0  0  0  0  0  0  0  0  0  0
   19.5156   -6.1543  -16.3793 C   0  0  0  0  0  0  0  0  0  0  0  0
   20.3383   -5.2192  -16.4867 O   0  0  0  0  0  0  0  0  0  0  0  0
   21.0511   -7.1769  -14.1442 C   0  0  0  0  0  0  0  0  0  0  0  0
   21.2490   -7.9923  -13.0413 O   0  0  0  0  0  0  0  0  0  0  0  0
   18.1485   -5.8578  -16.3043 O   0  0  0  0  0  0  0  0  0  0  0  0
   20.7150   -5.9849  -13.9627 O   0  0  0  0  0  0  0  0  0  0  0  0
  2  1  1  0
  2  3  2  0
  4  5  1  0
  4  2  1  0
  5  6  1  6
  7  5  1  0
  7  8  2  0
  9 10  1  0
 11 10  1  0
 12 11  1  0
 13 12  1  6
 13 14  1  0
 14  7  1  0
 15 17  1  0
 15 13  1  0
 16 15  2  0
 18 17  1  0
 18 22  1  0
 19 20  1  0
 18 19  1  6
 20 24  1  0
 21 20  2  0
 22 23  1  0
 25 22  2  0
M  END
$$$$
