NMD.pdb
     RDKit          3D

 25 24  0  0  1  0  0  0  0  0999 V2000
   28.6285  -21.7444  -17.5004 N   0  0  0  0  0  0  0  0  0  0  0  0
   28.5411  -22.9064  -16.7218 C   0  0  0  0  0  0  0  0  0  0  0  0
   29.3689  -23.8431  -16.8602 O   0  0  0  0  0  0  0  0  0  0  0  0
   27.4778  -23.0581  -15.7240 C   0  0  0  0  0  0  0  0  0  0  0  0
   26.6252  -21.8106  -15.7111 C   0  0  2  0  0  0  0  0  0  0  0  0
   27.4062  -20.6212  -15.4764 N   0  0  0  0  0  0  0  0  0  0  0  0
   25.5415  -21.9177  -14.6886 C   0  0  0  0  0  0  0  0  0  0  0  0
   24.5808  -22.7162  -14.8237 O   0  0  0  0  0  0  0  0  0  0  0  0
   26.3850  -20.3212   -8.7028 C   0  0  0  0  0  0  0  0  0  0  0  0
   24.5788  -20.4331   -8.5055 S   0  0  0  0  0  0  0  0  0  0  0  0
   23.9289  -20.8413  -10.1862 C   0  0  0  0  0  0  0  0  0  0  0  0
   25.0145  -20.7445  -11.2000 C   0  0  0  0  0  0  0  0  0  0  0  0
   24.5201  -21.1756  -12.5456 C   0  0  2  0  0  0  0  0  0  0  0  0
   25.5848  -21.1107  -13.5410 N   0  0  0  0  0  0  0  0  0  0  0  0
   23.3226  -20.4613  -13.0378 C   0  0  0  0  0  0  0  0  0  0  0  0
   23.3372  -19.4094  -13.7146 O   0  0  0  0  0  0  0  0  0  0  0  0
   22.0420  -21.0068  -12.7209 N   0  0  0  0  0  0  0  0  0  0  0  0
   20.8396  -20.6495  -13.4384 C   0  0  1  0  0  0  0  0  0  0  0  0
   21.0000  -21.0718  -14.8733 C   0  0  0  0  0  0  0  0  0  0  0  0
   19.7645  -20.7895  -15.6328 C   0  0  0  0  0  0  0  0  0  0  0  0
   19.0308  -19.8194  -15.3443 O   0  0  0  0  0  0  0  0  0  0  0  0
   19.6998  -21.3649  -12.7877 C   0  0  0  0  0  0  0  0  0  0  0  0
   18.4552  -20.7721  -12.6457 O   0  0  0  0  0  0  0  0  0  0  0  0
   19.4063  -21.6252  -16.6987 O   0  0  0  0  0  0  0  0  0  0  0  0
   19.8680  -22.5287  -12.3586 O   0  0  0  0  0  0  0  0  0  0  0  0
  2  1  1  0
  2  3  2  0
  4  5  1  0
  4  2  1  0
  5  6  1  1
  7  5  1  0
  7  8  2  0
  9 10  1  0
 11 10  1  0
 12 11  1  0
 13 12  1  1
 13 14  1  0
 14  7  1  0
 15 17  1  0
 15 13  1  0
 16 15  2  0
 18 17  1  0
 18 22  1  0
 19 20  1  0
 18 19  1  6
 20 24  1  0
 21 20  2  0
 22 23  1  0
 25 22  2  0
M  END
$$$$
