NMD.pdb
     RDKit          3D

 25 24  0  0  1  0  0  0  0  0999 V2000
   19.0284  -13.4575  -17.9182 N   0  0  0  0  0  0  0  0  0  0  0  0
   19.3605  -13.7346  -16.5851 C   0  0  0  0  0  0  0  0  0  0  0  0
   18.8133  -14.6814  -15.9641 O   0  0  0  0  0  0  0  0  0  0  0  0
   20.3577  -12.9232  -15.8802 C   0  0  0  0  0  0  0  0  0  0  0  0
   20.8299  -11.8130  -16.7902 C   0  0  2  0  0  0  0  0  0  0  0  0
   21.6659  -12.3041  -17.8577 N   0  0  0  0  0  0  0  0  0  0  0  0
   21.5579  -10.7638  -16.0153 C   0  0  0  0  0  0  0  0  0  0  0  0
   21.0399  -10.1967  -15.0209 O   0  0  0  0  0  0  0  0  0  0  0  0
   27.6429  -12.8866  -15.1654 C   0  0  0  0  0  0  0  0  0  0  0  0
   27.2397  -11.2579  -15.8715 S   0  0  0  0  0  0  0  0  0  0  0  0
   25.4775  -10.9490  -15.4102 C   0  0  0  0  0  0  0  0  0  0  0  0
   25.0726   -9.5711  -15.8015 C   0  0  0  0  0  0  0  0  0  0  0  0
   23.5958   -9.3885  -15.6383 C   0  0  2  0  0  0  0  0  0  0  0  0
   22.8563  -10.3916  -16.3970 N   0  0  0  0  0  0  0  0  0  0  0  0
   23.0869   -8.0368  -15.9557 C   0  0  0  0  0  0  0  0  0  0  0  0
   22.8681   -7.6002  -17.1072 O   0  0  0  0  0  0  0  0  0  0  0  0
   22.8209   -7.1509  -14.8684 N   0  0  0  0  0  0  0  0  0  0  0  0
   22.3017   -5.8154  -15.0560 C   0  0  1  0  0  0  0  0  0  0  0  0
   20.9396   -5.9198  -15.6859 C   0  0  0  0  0  0  0  0  0  0  0  0
   20.3558   -4.5756  -15.8729 C   0  0  0  0  0  0  0  0  0  0  0  0
   21.0671   -3.5479  -15.8461 O   0  0  0  0  0  0  0  0  0  0  0  0
   22.2274   -5.1700  -13.7097 C   0  0  0  0  0  0  0  0  0  0  0  0
   22.1845   -3.7924  -13.5651 O   0  0  0  0  0  0  0  0  0  0  0  0
   18.9768   -4.4480  -16.0849 O   0  0  0  0  0  0  0  0  0  0  0  0
   22.2029   -5.8869  -12.6839 O   0  0  0  0  0  0  0  0  0  0  0  0
  2  1  1  0
  2  3  2  0
  4  5  1  0
  4  2  1  0
  5  6  1  6
  7  5  1  0
  7  8  2  0
  9 10  1  0
 11 10  1  0
 12 11  1  0
 13 12  1  6
 13 14  1  0
 14  7  1  0
 15 17  1  0
 15 13  1  0
 16 15  2  0
 18 17  1  0
 18 22  1  0
 19 20  1  0
 18 19  1  1
 20 24  1  0
 21 20  2  0
 22 23  1  0
 25 22  2  0
M  END
$$$$
