NMD.pdb
     RDKit          3D

 25 24  0  0  1  0  0  0  0  0999 V2000
   17.6199  -14.3598  -17.4109 N   0  0  0  0  0  0  0  0  0  0  0  0
   18.4157  -13.2990  -17.8642 C   0  0  0  0  0  0  0  0  0  0  0  0
   18.4025  -12.9489  -19.0720 O   0  0  0  0  0  0  0  0  0  0  0  0
   19.2864  -12.5698  -16.9370 C   0  0  0  0  0  0  0  0  0  0  0  0
   20.6842  -12.5114  -17.5080 C   0  0  2  0  0  0  0  0  0  0  0  0
   21.2500  -13.8246  -17.6952 N   0  0  0  0  0  0  0  0  0  0  0  0
   21.5798  -11.6908  -16.6386 C   0  0  0  0  0  0  0  0  0  0  0  0
   22.3766  -12.2194  -15.8234 O   0  0  0  0  0  0  0  0  0  0  0  0
   26.2935  -11.4870  -15.1863 C   0  0  0  0  0  0  0  0  0  0  0  0
   26.4352   -9.6727  -15.1417 S   0  0  0  0  0  0  0  0  0  0  0  0
   24.6966   -9.0480  -15.1213 C   0  0  0  0  0  0  0  0  0  0  0  0
   23.8279   -9.9029  -15.9759 C   0  0  0  0  0  0  0  0  0  0  0  0
   22.3985   -9.4694  -15.8761 C   0  0  2  0  0  0  0  0  0  0  0  0
   21.5410  -10.2904  -16.7242 N   0  0  0  0  0  0  0  0  0  0  0  0
   22.1524   -8.0361  -16.1437 C   0  0  0  0  0  0  0  0  0  0  0  0
   22.4350   -7.4417  -17.2074 O   0  0  0  0  0  0  0  0  0  0  0  0
   21.5442   -7.2587  -15.1123 N   0  0  0  0  0  0  0  0  0  0  0  0
   21.3000   -5.8403  -15.2420 C   0  0  1  0  0  0  0  0  0  0  0  0
   19.8146   -5.6208  -15.3329 C   0  0  0  0  0  0  0  0  0  0  0  0
   19.5135   -4.1773  -15.4261 C   0  0  0  0  0  0  0  0  0  0  0  0
   20.1231   -3.4360  -16.2272 O   0  0  0  0  0  0  0  0  0  0  0  0
   21.8726   -5.1744  -14.0323 C   0  0  0  0  0  0  0  0  0  0  0  0
   22.4047   -5.9065  -12.9828 O   0  0  0  0  0  0  0  0  0  0  0  0
   18.5248   -3.6262  -14.6006 O   0  0  0  0  0  0  0  0  0  0  0  0
   21.8742   -3.9248  -13.9602 O   0  0  0  0  0  0  0  0  0  0  0  0
  2  1  1  0
  2  3  2  0
  4  5  1  0
  4  2  1  0
  5  6  1  1
  7  5  1  0
  7  8  2  0
  9 10  1  0
 11 10  1  0
 12 11  1  0
 13 12  1  6
 13 14  1  0
 14  7  1  0
 15 17  1  0
 15 13  1  0
 16 15  2  0
 18 17  1  0
 18 22  1  0
 19 20  1  0
 18 19  1  1
 20 24  1  0
 21 20  2  0
 22 23  1  0
 25 22  2  0
M  END
$$$$
