NMD.pdb
     RDKit          3D

 25 24  0  0  1  0  0  0  0  0999 V2000
   28.3166  -16.8636  -17.1210 N   0  0  0  0  0  0  0  0  0  0  0  0
   28.5807  -18.2318  -17.2717 C   0  0  0  0  0  0  0  0  0  0  0  0
   29.4595  -18.6377  -18.0744 O   0  0  0  0  0  0  0  0  0  0  0  0
   27.8348  -19.2259  -16.4941 C   0  0  0  0  0  0  0  0  0  0  0  0
   26.7266  -18.5346  -15.7342 C   0  0  2  0  0  0  0  0  0  0  0  0
   27.2268  -17.4918  -14.8729 N   0  0  0  0  0  0  0  0  0  0  0  0
   25.9355  -19.5183  -14.9355 C   0  0  0  0  0  0  0  0  0  0  0  0
   25.3842  -20.5133  -15.4694 O   0  0  0  0  0  0  0  0  0  0  0  0
   26.4091  -19.9527   -8.6606 C   0  0  0  0  0  0  0  0  0  0  0  0
   25.0592  -21.1701   -8.7596 S   0  0  0  0  0  0  0  0  0  0  0  0
   24.5676  -21.2095  -10.5401 C   0  0  0  0  0  0  0  0  0  0  0  0
   25.4023  -20.2634  -11.3300 C   0  0  0  0  0  0  0  0  0  0  0  0
   24.9683  -20.2461  -12.7626 C   0  0  2  0  0  0  0  0  0  0  0  0
   25.7960  -19.3390  -13.5505 N   0  0  0  0  0  0  0  0  0  0  0  0
   23.5372  -19.9486  -12.9861 C   0  0  0  0  0  0  0  0  0  0  0  0
   22.9936  -18.8374  -12.8008 O   0  0  0  0  0  0  0  0  0  0  0  0
   22.6994  -21.0072  -13.4503 N   0  0  0  0  0  0  0  0  0  0  0  0
   21.2920  -20.8283  -13.7252 C   0  0  1  0  0  0  0  0  0  0  0  0
   21.0385  -21.1960  -15.1617 C   0  0  0  0  0  0  0  0  0  0  0  0
   19.6109  -21.0120  -15.4948 C   0  0  0  0  0  0  0  0  0  0  0  0
   18.8017  -20.5544  -14.6589 O   0  0  0  0  0  0  0  0  0  0  0  0
   20.5365  -21.7230  -12.7961 C   0  0  0  0  0  0  0  0  0  0  0  0
   19.4321  -21.2723  -12.0904 O   0  0  0  0  0  0  0  0  0  0  0  0
   19.1528  -21.3567  -16.7730 O   0  0  0  0  0  0  0  0  0  0  0  0
   20.9059  -22.9097  -12.6479 O   0  0  0  0  0  0  0  0  0  0  0  0
  2  1  1  0
  2  3  2  0
  4  5  1  0
  4  2  1  0
  5  6  1  1
  7  5  1  0
  7  8  2  0
  9 10  1  0
 11 10  1  0
 12 11  1  0
 13 12  1  1
 13 14  1  0
 14  7  1  0
 15 17  1  0
 15 13  1  0
 16 15  2  0
 18 17  1  0
 18 22  1  0
 19 20  1  0
 18 19  1  6
 20 24  1  0
 21 20  2  0
 22 23  1  0
 25 22  2  0
M  END
$$$$
