MRK.pdb
     RDKit          3D

 29 28  0  0  1  0  0  0  0  0999 V2000
    7.9013  -11.0363   26.4584 C   0  0  0  0  0  0  0  0  0  0  0  0
    6.7017  -11.8546   27.5250 S   0  0  0  0  0  0  0  0  0  0  0  0
    6.0707  -13.3831   26.8085 C   0  0  0  0  0  0  0  0  0  0  0  0
    6.9498  -13.9449   25.7375 C   0  0  0  0  0  0  0  0  0  0  0  0
    6.3709  -15.1686   25.0717 C   0  0  2  0  0  0  0  0  0  0  0  0
    6.1617  -16.2294   26.0378 N   0  0  0  0  0  0  0  0  0  0  0  0
    7.1821  -15.6552   23.9513 C   0  0  0  0  0  0  0  0  0  0  0  0
    7.6136  -16.8377   23.9504 O   0  0  0  0  0  0  0  0  0  0  0  0
    7.1979  -13.0310   17.2227 N   0  0  0  0  0  0  0  0  0  0  0  0
    8.1109  -13.9562   16.6119 C   0  0  0  0  0  0  0  0  0  0  0  0
    8.8406  -13.5239   15.6461 N   0  0  0  0  0  0  0  0  0  0  0  0
    8.2176  -15.2941   17.0423 N   0  0  0  0  0  0  0  0  0  0  0  0
    7.9662  -15.6294   18.4153 C   0  0  0  0  0  0  0  0  0  0  0  0
    8.9837  -14.9648   19.3428 C   0  0  0  0  0  0  0  0  0  0  0  0
    8.2210  -14.4192   20.5305 C   0  0  0  0  0  0  0  0  0  0  0  0
    8.2109  -15.3963   21.6818 C   0  0  2  0  0  0  0  0  0  0  0  0
    7.5138  -14.8404   22.8404 N   0  0  0  0  0  0  0  0  0  0  0  0
    9.6212  -15.7292   22.0108 C   0  0  0  0  0  0  0  0  0  0  0  0
   10.3808  -16.2438   21.1537 O   0  0  0  0  0  0  0  0  0  0  0  0
    9.5423  -14.1506   15.2062 N   0  0  0  0  0  0  0  0  0  0  0  0
   10.1278  -15.4698   23.2988 C   0  0  2  0  0  0  0  0  0  0  0  0
   11.5011  -16.0104   23.6825 C   0  0  0  0  0  0  0  0  0  0  0  0
   11.2729  -16.9743   24.7671 C   0  0  0  0  0  0  0  0  0  0  0  0
   12.2560  -17.9710   25.1851 C   0  0  0  0  0  0  0  0  0  0  0  0
   11.8893  -18.9854   26.1855 C   0  0  0  0  0  0  0  0  0  0  0  0
   13.1370  -19.9179   26.3350 N   0  0  0  0  0  0  0  0  0  0  0  0
   12.8469  -20.8279   27.4275 C   0  0  0  0  0  0  0  0  0  0  0  0
   12.1364  -16.3803   22.4466 O   0  0  0  0  0  0  0  0  0  0  0  0
   13.1495  -15.8372   21.9871 O   0  0  0  0  0  0  0  0  0  0  0  0
  2  1  1  0
  3  2  1  0
  4  3  1  0
  4  5  1  0
  5  7  1  0
  5  6  1  1
  7  8  2  0
  9 10  1  0
 10 12  1  0
 11 10  2  0
 12 13  1  0
 13 14  1  0
 14 15  1  0
 16 15  1  6
 17 16  1  0
 17  7  1  0
 18 19  2  0
 18 16  1  0
 20 18  1  0
 21 27  1  0
 21 20  1  0
 21 22  1  6
 23 22  1  0
 24 23  1  0
 25 24  1  0
 26 25  1  0
 27 29  1  0
 28 27  2  0
M  END
$$$$
