MRK.pdb
     RDKit          3D

 29 28  0  0  1  0  0  0  0  0999 V2000
    7.3713  -11.1361   25.0038 C   0  0  0  0  0  0  0  0  0  0  0  0
    6.7125  -11.7703   26.5563 S   0  0  0  0  0  0  0  0  0  0  0  0
    6.3338  -13.5304   26.4777 C   0  0  0  0  0  0  0  0  0  0  0  0
    7.4716  -14.3615   25.9772 C   0  0  0  0  0  0  0  0  0  0  0  0
    7.0611  -15.3638   24.9270 C   0  0  2  0  0  0  0  0  0  0  0  0
    6.1469  -16.3436   25.4806 N   0  0  0  0  0  0  0  0  0  0  0  0
    8.2000  -16.0342   24.2917 C   0  0  0  0  0  0  0  0  0  0  0  0
    8.6285  -17.1246   24.7522 O   0  0  0  0  0  0  0  0  0  0  0  0
    7.2356  -13.3378   19.3086 N   0  0  0  0  0  0  0  0  0  0  0  0
    7.3355  -14.3625   18.3072 C   0  0  0  0  0  0  0  0  0  0  0  0
    6.2508  -14.7392   17.7296 N   0  0  0  0  0  0  0  0  0  0  0  0
    8.5697  -14.9459   17.9564 N   0  0  0  0  0  0  0  0  0  0  0  0
    9.6339  -15.0082   18.9177 C   0  0  0  0  0  0  0  0  0  0  0  0
    9.1728  -15.6795   20.2116 C   0  0  0  0  0  0  0  0  0  0  0  0
   10.3239  -15.6071   21.1912 C   0  0  0  0  0  0  0  0  0  0  0  0
    9.9623  -16.2240   22.5213 C   0  0  2  0  0  0  0  0  0  0  0  0
    8.8601  -15.5030   23.1559 N   0  0  0  0  0  0  0  0  0  0  0  0
   11.1774  -16.2107   23.3764 C   0  0  0  0  0  0  0  0  0  0  0  0
   11.6216  -15.1369   23.8520 O   0  0  0  0  0  0  0  0  0  0  0  0
    6.2845  -15.4634   16.9859 N   0  0  0  0  0  0  0  0  0  0  0  0
   11.8521  -17.4121   23.6665 C   0  0  1  0  0  0  0  0  0  0  0  0
   13.0289  -17.3909   24.6360 C   0  0  0  0  0  0  0  0  0  0  0  0
   12.8787  -18.5780   25.4879 C   0  0  0  0  0  0  0  0  0  0  0  0
   11.7005  -18.8406   26.3108 C   0  0  0  0  0  0  0  0  0  0  0  0
   11.6443  -20.0531   27.1422 C   0  0  0  0  0  0  0  0  0  0  0  0
   10.2635  -20.0112   27.8772 N   0  0  0  0  0  0  0  0  0  0  0  0
   10.2355  -21.1520   28.7737 C   0  0  0  0  0  0  0  0  0  0  0  0
   14.1980  -17.1667   23.8293 O   0  0  0  0  0  0  0  0  0  0  0  0
   14.2463  -17.3249   22.6025 O   0  0  0  0  0  0  0  0  0  0  0  0
  2  1  1  0
  3  2  1  0
  4  3  1  0
  4  5  1  0
  5  7  1  0
  5  6  1  1
  7  8  2  0
  9 10  1  0
 10 12  1  0
 11 10  2  0
 12 13  1  0
 13 14  1  0
 14 15  1  0
 16 15  1  6
 17 16  1  0
 17  7  1  0
 18 19  2  0
 18 16  1  0
 20 18  1  0
 21 27  1  0
 21 20  1  0
 21 22  1  1
 23 22  1  0
 24 23  1  0
 25 24  1  0
 26 25  1  0
 27 29  1  0
 28 27  2  0
M  END
$$$$
