MRK.pdb
     RDKit          3D

 29 28  0  0  1  0  0  0  0  0999 V2000
    6.5422  -11.8484   28.1536 C   0  0  0  0  0  0  0  0  0  0  0  0
    6.2461  -11.9282   26.3781 S   0  0  0  0  0  0  0  0  0  0  0  0
    7.2517  -13.1843   25.5664 C   0  0  0  0  0  0  0  0  0  0  0  0
    6.9208  -14.5783   25.9939 C   0  0  0  0  0  0  0  0  0  0  0  0
    6.2684  -15.3963   24.9069 C   0  0  2  0  0  0  0  0  0  0  0  0
    5.7670  -16.6493   25.4370 N   0  0  0  0  0  0  0  0  0  0  0  0
    7.1512  -15.6461   23.7631 C   0  0  0  0  0  0  0  0  0  0  0  0
    7.7722  -16.7371   23.6705 O   0  0  0  0  0  0  0  0  0  0  0  0
    8.7589  -14.3902   14.5014 N   0  0  0  0  0  0  0  0  0  0  0  0
    8.1510  -14.0812   15.7654 C   0  0  0  0  0  0  0  0  0  0  0  0
    6.9434  -13.6410   15.7543 N   0  0  0  0  0  0  0  0  0  0  0  0
    8.8377  -14.2482   16.9849 N   0  0  0  0  0  0  0  0  0  0  0  0
    8.2133  -13.8652   18.2194 C   0  0  0  0  0  0  0  0  0  0  0  0
    9.1183  -14.1659   19.4143 C   0  0  0  0  0  0  0  0  0  0  0  0
    8.3406  -13.8212   20.6659 C   0  0  0  0  0  0  0  0  0  0  0  0
    8.1041  -15.0389   21.5271 C   0  0  2  0  0  0  0  0  0  0  0  0
    7.3459  -14.6965   22.7294 N   0  0  0  0  0  0  0  0  0  0  0  0
    9.4280  -15.6184   21.8724 C   0  0  0  0  0  0  0  0  0  0  0  0
    9.9215  -16.5528   21.1942 O   0  0  0  0  0  0  0  0  0  0  0  0
    6.4510  -13.4565   16.6500 N   0  0  0  0  0  0  0  0  0  0  0  0
   10.1521  -15.1230   22.9738 C   0  0  2  0  0  0  0  0  0  0  0  0
   11.3988  -15.8663   23.4416 C   0  0  0  0  0  0  0  0  0  0  0  0
   10.9350  -17.1644   23.9487 C   0  0  0  0  0  0  0  0  0  0  0  0
   11.4533  -17.7922   25.1618 C   0  0  0  0  0  0  0  0  0  0  0  0
   11.0064  -19.1434   25.5345 C   0  0  0  0  0  0  0  0  0  0  0  0
   11.8221  -19.5330   26.8118 N   0  0  0  0  0  0  0  0  0  0  0  0
   11.2634  -20.7815   27.2966 C   0  0  0  0  0  0  0  0  0  0  0  0
   12.3480  -15.7555   22.3670 O   0  0  0  0  0  0  0  0  0  0  0  0
   13.4324  -15.1637   22.4454 O   0  0  0  0  0  0  0  0  0  0  0  0
  2  1  1  0
  3  2  1  0
  4  3  1  0
  4  5  1  0
  5  7  1  0
  5  6  1  1
  7  8  2  0
  9 10  1  0
 10 12  1  0
 11 10  2  0
 12 13  1  0
 13 14  1  0
 14 15  1  0
 16 15  1  6
 17 16  1  0
 17  7  1  0
 18 19  2  0
 18 16  1  0
 20 18  1  0
 21 27  1  0
 21 20  1  0
 21 22  1  1
 23 22  1  0
 24 23  1  0
 25 24  1  0
 26 25  1  0
 27 29  1  0
 28 27  2  0
M  END
$$$$
