MRK.pdb
     RDKit          3D

 29 28  0  0  1  0  0  0  0  0999 V2000
    6.8993  -11.0685   25.9426 C   0  0  0  0  0  0  0  0  0  0  0  0
    6.9355  -12.2734   27.2818 S   0  0  0  0  0  0  0  0  0  0  0  0
    6.4538  -13.9231   26.7393 C   0  0  0  0  0  0  0  0  0  0  0  0
    7.4196  -14.5382   25.7778 C   0  0  0  0  0  0  0  0  0  0  0  0
    7.0065  -15.9135   25.3153 C   0  0  2  0  0  0  0  0  0  0  0  0
    6.8958  -16.8225   26.4396 N   0  0  0  0  0  0  0  0  0  0  0  0
    7.8999  -16.4731   24.2962 C   0  0  0  0  0  0  0  0  0  0  0  0
    8.6327  -17.4591   24.5708 O   0  0  0  0  0  0  0  0  0  0  0  0
   10.1485  -12.9074   19.5429 N   0  0  0  0  0  0  0  0  0  0  0  0
    8.9546  -12.6875   18.7755 C   0  0  0  0  0  0  0  0  0  0  0  0
    8.4926  -11.4892   18.7222 N   0  0  0  0  0  0  0  0  0  0  0  0
    8.2990  -13.7352   18.0979 N   0  0  0  0  0  0  0  0  0  0  0  0
    8.3257  -15.0660   18.6353 C   0  0  0  0  0  0  0  0  0  0  0  0
    8.0184  -15.0646   20.1329 C   0  0  0  0  0  0  0  0  0  0  0  0
    8.0293  -16.5053   20.5960 C   0  0  0  0  0  0  0  0  0  0  0  0
    8.7137  -16.6546   21.9338 C   0  0  2  0  0  0  0  0  0  0  0  0
    7.9826  -15.9464   22.9832 N   0  0  0  0  0  0  0  0  0  0  0  0
   10.0993  -16.1351   21.7985 C   0  0  0  0  0  0  0  0  0  0  0  0
   10.7618  -16.3262   20.7492 O   0  0  0  0  0  0  0  0  0  0  0  0
    7.6036  -11.2987   18.2200 N   0  0  0  0  0  0  0  0  0  0  0  0
   10.6919  -15.4162   22.8543 C   0  0  1  0  0  0  0  0  0  0  0  0
   11.9860  -15.9328   23.4739 C   0  0  0  0  0  0  0  0  0  0  0  0
   11.6145  -17.1012   24.2827 C   0  0  0  0  0  0  0  0  0  0  0  0
   12.5815  -18.0576   24.8162 C   0  0  0  0  0  0  0  0  0  0  0  0
   12.5716  -18.3849   26.2505 C   0  0  0  0  0  0  0  0  0  0  0  0
   13.7617  -19.3751   26.4775 N   0  0  0  0  0  0  0  0  0  0  0  0
   13.7347  -19.7422   27.8812 C   0  0  0  0  0  0  0  0  0  0  0  0
   12.9325  -16.0148   22.3943 O   0  0  0  0  0  0  0  0  0  0  0  0
   14.0264  -15.4360   22.3733 O   0  0  0  0  0  0  0  0  0  0  0  0
  2  1  1  0
  3  2  1  0
  4  3  1  0
  4  5  1  0
  5  7  1  0
  5  6  1  1
  7  8  2  0
  9 10  1  0
 10 12  1  0
 11 10  2  0
 12 13  1  0
 13 14  1  0
 14 15  1  0
 16 15  1  6
 17 16  1  0
 17  7  1  0
 18 19  2  0
 18 16  1  0
 20 18  1  0
 21 27  1  0
 21 20  1  0
 21 22  1  1
 23 22  1  0
 24 23  1  0
 25 24  1  0
 26 25  1  0
 27 29  1  0
 28 27  2  0
M  END
$$$$
