MRK.pdb
     RDKit          3D

 29 28  0  0  1  0  0  0  0  0999 V2000
    5.9170  -10.6680   25.5078 C   0  0  0  0  0  0  0  0  0  0  0  0
    6.6743  -11.8988   26.5838 S   0  0  0  0  0  0  0  0  0  0  0  0
    5.7186  -13.4244   26.6673 C   0  0  0  0  0  0  0  0  0  0  0  0
    6.0811  -14.4118   25.6046 C   0  0  0  0  0  0  0  0  0  0  0  0
    7.5601  -14.7023   25.5400 C   0  0  2  0  0  0  0  0  0  0  0  0
    8.3073  -13.4997   25.2274 N   0  0  0  0  0  0  0  0  0  0  0  0
    7.8984  -15.7703   24.5940 C   0  0  0  0  0  0  0  0  0  0  0  0
    7.3250  -16.8883   24.6717 O   0  0  0  0  0  0  0  0  0  0  0  0
    9.1307  -12.4387   19.8011 N   0  0  0  0  0  0  0  0  0  0  0  0
    8.1684  -13.2006   19.0554 C   0  0  0  0  0  0  0  0  0  0  0  0
    7.0649  -12.6218   18.7401 N   0  0  0  0  0  0  0  0  0  0  0  0
    8.4073  -14.5362   18.6737 N   0  0  0  0  0  0  0  0  0  0  0  0
    9.3437  -15.3373   19.4099 C   0  0  0  0  0  0  0  0  0  0  0  0
    8.8402  -15.6168   20.8260 C   0  0  0  0  0  0  0  0  0  0  0  0
    9.8836  -16.4694   21.5147 C   0  0  0  0  0  0  0  0  0  0  0  0
    9.5074  -16.7595   22.9482 C   0  0  2  0  0  0  0  0  0  0  0  0
    8.8634  -15.6036   23.5698 N   0  0  0  0  0  0  0  0  0  0  0  0
   10.7447  -17.1427   23.6765 C   0  0  0  0  0  0  0  0  0  0  0  0
   11.4720  -16.2737   24.2173 O   0  0  0  0  0  0  0  0  0  0  0  0
    6.3121  -13.1622   18.2711 N   0  0  0  0  0  0  0  0  0  0  0  0
   11.1205  -18.4966   23.7700 C   0  0  1  0  0  0  0  0  0  0  0  0
   12.3080  -18.8817   24.6457 C   0  0  0  0  0  0  0  0  0  0  0  0
   11.7426  -19.3666   25.9117 C   0  0  0  0  0  0  0  0  0  0  0  0
   12.5444  -19.9409   26.9896 C   0  0  0  0  0  0  0  0  0  0  0  0
   11.8792  -20.5245   28.1649 C   0  0  0  0  0  0  0  0  0  0  0  0
   13.0243  -21.0012   29.1190 N   0  0  0  0  0  0  0  0  0  0  0  0
   12.3911  -21.3920   30.3648 C   0  0  0  0  0  0  0  0  0  0  0  0
   13.1560  -19.6983   23.8198 O   0  0  0  0  0  0  0  0  0  0  0  0
   12.7563  -20.4091   22.8886 O   0  0  0  0  0  0  0  0  0  0  0  0
  2  1  1  0
  3  2  1  0
  4  3  1  0
  4  5  1  0
  5  7  1  0
  5  6  1  6
  7  8  2  0
  9 10  1  0
 10 12  1  0
 11 10  2  0
 12 13  1  0
 13 14  1  0
 14 15  1  0
 16 15  1  6
 17 16  1  0
 17  7  1  0
 18 19  2  0
 18 16  1  0
 20 18  1  0
 21 27  1  0
 21 20  1  0
 21 22  1  1
 23 22  1  0
 24 23  1  0
 25 24  1  0
 26 25  1  0
 27 29  1  0
 28 27  2  0
M  END
$$$$
