MRK.pdb
     RDKit          3D

 29 28  0  0  1  0  0  0  0  0999 V2000
    5.5100  -11.1347   27.5069 C   0  0  0  0  0  0  0  0  0  0  0  0
    6.2398  -12.3298   26.3730 S   0  0  0  0  0  0  0  0  0  0  0  0
    7.1821  -13.6062   27.2279 C   0  0  0  0  0  0  0  0  0  0  0  0
    7.7521  -14.6396   26.3099 C   0  0  0  0  0  0  0  0  0  0  0  0
    6.7282  -15.2396   25.3784 C   0  0  2  0  0  0  0  0  0  0  0  0
    6.1577  -16.4444   25.9486 N   0  0  0  0  0  0  0  0  0  0  0  0
    7.2565  -15.5132   24.0382 C   0  0  0  0  0  0  0  0  0  0  0  0
    7.7167  -16.6516   23.7606 O   0  0  0  0  0  0  0  0  0  0  0  0
    8.1586  -13.4304   15.8267 N   0  0  0  0  0  0  0  0  0  0  0  0
    8.6433  -14.6805   16.3414 C   0  0  0  0  0  0  0  0  0  0  0  0
    9.5562  -15.2877   15.6704 N   0  0  0  0  0  0  0  0  0  0  0  0
    8.1484  -15.2376   17.5378 N   0  0  0  0  0  0  0  0  0  0  0  0
    7.5341  -14.3935   18.5231 C   0  0  0  0  0  0  0  0  0  0  0  0
    8.5682  -13.8509   19.5097 C   0  0  0  0  0  0  0  0  0  0  0  0
    7.8529  -13.6016   20.8198 C   0  0  0  0  0  0  0  0  0  0  0  0
    7.9181  -14.8067   21.7275 C   0  0  2  0  0  0  0  0  0  0  0  0
    7.2759  -14.5356   23.0125 N   0  0  0  0  0  0  0  0  0  0  0  0
    9.3486  -15.1671   21.9060 C   0  0  0  0  0  0  0  0  0  0  0  0
   10.1016  -14.4807   22.6397 O   0  0  0  0  0  0  0  0  0  0  0  0
    9.9930  -16.1493   16.0519 N   0  0  0  0  0  0  0  0  0  0  0  0
    9.8823  -16.2924   21.2490 C   0  0  2  0  0  0  0  0  0  0  0  0
   11.2938  -16.7563   21.5926 C   0  0  0  0  0  0  0  0  0  0  0  0
   11.1397  -17.8723   22.5350 C   0  0  0  0  0  0  0  0  0  0  0  0
   12.2638  -18.5973   23.1227 C   0  0  0  0  0  0  0  0  0  0  0  0
   12.0114  -19.7036   24.0591 C   0  0  0  0  0  0  0  0  0  0  0  0
   13.4170  -20.1852   24.5501 N   0  0  0  0  0  0  0  0  0  0  0  0
   13.1790  -21.1952   25.5645 C   0  0  0  0  0  0  0  0  0  0  0  0
   11.9763  -16.9008   20.3351 O   0  0  0  0  0  0  0  0  0  0  0  0
   11.4333  -17.2400   19.2757 O   0  0  0  0  0  0  0  0  0  0  0  0
  2  1  1  0
  3  2  1  0
  4  3  1  0
  4  5  1  0
  5  7  1  0
  5  6  1  1
  7  8  2  0
  9 10  1  0
 10 12  1  0
 11 10  2  0
 12 13  1  0
 13 14  1  0
 14 15  1  0
 16 15  1  6
 17 16  1  0
 17  7  1  0
 18 19  2  0
 18 16  1  0
 20 18  1  0
 21 27  1  0
 21 20  1  0
 21 22  1  6
 23 22  1  0
 24 23  1  0
 25 24  1  0
 26 25  1  0
 27 29  1  0
 28 27  2  0
M  END
$$$$
