MRK.pdb
     RDKit          3D

 29 28  0  0  1  0  0  0  0  0999 V2000
    8.1393  -11.8826   27.2823 C   0  0  0  0  0  0  0  0  0  0  0  0
    6.5758  -12.6556   27.7345 S   0  0  0  0  0  0  0  0  0  0  0  0
    6.0521  -13.9022   26.5431 C   0  0  0  0  0  0  0  0  0  0  0  0
    7.1919  -14.5818   25.8541 C   0  0  0  0  0  0  0  0  0  0  0  0
    6.7494  -15.5927   24.8253 C   0  0  2  0  0  0  0  0  0  0  0  0
    5.9311  -16.6227   25.4350 N   0  0  0  0  0  0  0  0  0  0  0  0
    7.8661  -16.1987   24.0931 C   0  0  0  0  0  0  0  0  0  0  0  0
    8.3647  -17.2852   24.4874 O   0  0  0  0  0  0  0  0  0  0  0  0
    7.8030  -14.2987   17.4209 N   0  0  0  0  0  0  0  0  0  0  0  0
    7.3745  -13.2053   18.2477 C   0  0  0  0  0  0  0  0  0  0  0  0
    6.1892  -12.7449   18.0600 N   0  0  0  0  0  0  0  0  0  0  0  0
    8.2093  -12.6440   19.2350 N   0  0  0  0  0  0  0  0  0  0  0  0
    9.2452  -13.4360   19.8351 C   0  0  0  0  0  0  0  0  0  0  0  0
    8.6727  -14.6961   20.4847 C   0  0  0  0  0  0  0  0  0  0  0  0
    9.8438  -15.5430   20.9332 C   0  0  0  0  0  0  0  0  0  0  0  0
    9.5666  -16.2212   22.2537 C   0  0  2  0  0  0  0  0  0  0  0  0
    8.4272  -15.6077   22.9338 N   0  0  0  0  0  0  0  0  0  0  0  0
   10.7984  -16.1326   23.0800 C   0  0  0  0  0  0  0  0  0  0  0  0
   10.9894  -15.1624   23.8538 O   0  0  0  0  0  0  0  0  0  0  0  0
    5.8395  -11.9608   18.6443 N   0  0  0  0  0  0  0  0  0  0  0  0
   11.7754  -17.1440   23.0051 C   0  0  1  0  0  0  0  0  0  0  0  0
   13.0348  -17.0283   23.8571 C   0  0  0  0  0  0  0  0  0  0  0  0
   13.0334  -18.1947   24.7498 C   0  0  0  0  0  0  0  0  0  0  0  0
   14.1693  -18.5764   25.5856 C   0  0  0  0  0  0  0  0  0  0  0  0
   14.1312  -19.8392   26.3394 C   0  0  0  0  0  0  0  0  0  0  0  0
   15.5043  -19.9420   27.0829 N   0  0  0  0  0  0  0  0  0  0  0  0
   15.4711  -21.1746   27.8480 C   0  0  0  0  0  0  0  0  0  0  0  0
   14.1083  -16.7660   22.9368 O   0  0  0  0  0  0  0  0  0  0  0  0
   14.0490  -16.9562   21.7152 O   0  0  0  0  0  0  0  0  0  0  0  0
  2  1  1  0
  3  2  1  0
  4  3  1  0
  4  5  1  0
  5  7  1  0
  5  6  1  1
  7  8  2  0
  9 10  1  0
 10 12  1  0
 11 10  2  0
 12 13  1  0
 13 14  1  0
 14 15  1  0
 16 15  1  6
 17 16  1  0
 17  7  1  0
 18 19  2  0
 18 16  1  0
 20 18  1  0
 21 27  1  0
 21 20  1  0
 21 22  1  1
 23 22  1  0
 24 23  1  0
 25 24  1  0
 26 25  1  0
 27 29  1  0
 28 27  2  0
M  END
$$$$
