MRK.pdb
     RDKit          3D

 29 28  0  0  1  0  0  0  0  0999 V2000
    7.6631  -11.3781   26.6211 C   0  0  0  0  0  0  0  0  0  0  0  0
    6.0851  -12.0049   27.2239 S   0  0  0  0  0  0  0  0  0  0  0  0
    5.6151  -13.5587   26.4411 C   0  0  0  0  0  0  0  0  0  0  0  0
    6.7673  -14.2871   25.8267 C   0  0  0  0  0  0  0  0  0  0  0  0
    6.3665  -15.5752   25.1512 C   0  0  2  0  0  0  0  0  0  0  0  0
    5.7567  -16.4857   26.1006 N   0  0  0  0  0  0  0  0  0  0  0  0
    7.4779  -16.2341   24.4578 C   0  0  0  0  0  0  0  0  0  0  0  0
    8.1199  -17.1556   25.0264 O   0  0  0  0  0  0  0  0  0  0  0  0
    7.8320  -13.7330   16.6175 N   0  0  0  0  0  0  0  0  0  0  0  0
    8.3509  -13.1974   17.8449 C   0  0  0  0  0  0  0  0  0  0  0  0
    8.5214  -11.9253   17.9152 N   0  0  0  0  0  0  0  0  0  0  0  0
    8.6676  -14.0209   18.9441 N   0  0  0  0  0  0  0  0  0  0  0  0
    8.3808  -15.4265   18.8949 C   0  0  0  0  0  0  0  0  0  0  0  0
    7.9965  -15.9619   20.2744 C   0  0  0  0  0  0  0  0  0  0  0  0
    9.2525  -15.9745   21.1183 C   0  0  0  0  0  0  0  0  0  0  0  0
    8.9955  -16.5514   22.4900 C   0  0  2  0  0  0  0  0  0  0  0  0
    7.8764  -15.8768   23.1457 N   0  0  0  0  0  0  0  0  0  0  0  0
   10.2447  -16.4170   23.2834 C   0  0  0  0  0  0  0  0  0  0  0  0
   10.5731  -15.3165   23.7907 O   0  0  0  0  0  0  0  0  0  0  0  0
    8.8760  -11.4978   18.7928 N   0  0  0  0  0  0  0  0  0  0  0  0
   11.0831  -17.5315   23.4778 C   0  0  1  0  0  0  0  0  0  0  0  0
   12.3261  -17.3862   24.3491 C   0  0  0  0  0  0  0  0  0  0  0  0
   12.2017  -18.3938   25.4106 C   0  0  0  0  0  0  0  0  0  0  0  0
   13.0260  -18.4056   26.6168 C   0  0  0  0  0  0  0  0  0  0  0  0
   12.8849  -19.5012   27.5885 C   0  0  0  0  0  0  0  0  0  0  0  0
   13.7829  -19.1152   28.8106 N   0  0  0  0  0  0  0  0  0  0  0  0
   13.6646  -20.1967   29.7709 C   0  0  0  0  0  0  0  0  0  0  0  0
   13.4409  -17.3600   23.4411 O   0  0  0  0  0  0  0  0  0  0  0  0
   14.6200  -17.5436   23.7704 O   0  0  0  0  0  0  0  0  0  0  0  0
  2  1  1  0
  3  2  1  0
  4  3  1  0
  4  5  1  0
  5  7  1  0
  5  6  1  1
  7  8  2  0
  9 10  1  0
 10 12  1  0
 11 10  2  0
 12 13  1  0
 13 14  1  0
 14 15  1  0
 16 15  1  6
 17 16  1  0
 17  7  1  0
 18 19  2  0
 18 16  1  0
 20 18  1  0
 21 27  1  0
 21 20  1  0
 21 22  1  6
 23 22  1  0
 24 23  1  0
 25 24  1  0
 26 25  1  0
 27 29  1  0
 28 27  2  0
M  END
$$$$
