MRK.pdb
     RDKit          3D

 29 28  0  0  1  0  0  0  0  0999 V2000
    6.6341  -11.8943   27.3355 C   0  0  0  0  0  0  0  0  0  0  0  0
    7.0699  -11.2038   25.7294 S   0  0  0  0  0  0  0  0  0  0  0  0
    6.7587  -12.3530   24.3765 C   0  0  0  0  0  0  0  0  0  0  0  0
    7.5498  -13.6178   24.4771 C   0  0  0  0  0  0  0  0  0  0  0  0
    7.3254  -14.5555   23.3168 C   0  0  2  0  0  0  0  0  0  0  0  0
    5.9476  -15.0056   23.2783 N   0  0  0  0  0  0  0  0  0  0  0  0
    8.2352  -15.7054   23.3187 C   0  0  0  0  0  0  0  0  0  0  0  0
    7.9736  -16.7169   24.0207 O   0  0  0  0  0  0  0  0  0  0  0  0
   10.8892  -20.2601   19.2482 N   0  0  0  0  0  0  0  0  0  0  0  0
   12.3031  -20.5096   19.2817 C   0  0  0  0  0  0  0  0  0  0  0  0
   12.7032  -21.7066   19.0381 N   0  0  0  0  0  0  0  0  0  0  0  0
   13.2344  -19.4913   19.5692 N   0  0  0  0  0  0  0  0  0  0  0  0
   12.7762  -18.1823   19.9395 C   0  0  0  0  0  0  0  0  0  0  0  0
   11.9786  -18.2231   21.2432 C   0  0  0  0  0  0  0  0  0  0  0  0
   11.1180  -16.9791   21.2835 C   0  0  0  0  0  0  0  0  0  0  0  0
   10.2832  -16.9203   22.5405 C   0  0  2  0  0  0  0  0  0  0  0  0
    9.4254  -15.7365   22.5503 N   0  0  0  0  0  0  0  0  0  0  0  0
   11.2080  -16.9246   23.7036 C   0  0  0  0  0  0  0  0  0  0  0  0
   11.7644  -15.8678   24.0911 O   0  0  0  0  0  0  0  0  0  0  0  0
   13.7179  -21.9273   19.0555 N   0  0  0  0  0  0  0  0  0  0  0  0
   11.4747  -18.1240   24.3915 C   0  0  2  0  0  0  0  0  0  0  0  0
   12.3628  -18.0910   25.6307 C   0  0  0  0  0  0  0  0  0  0  0  0
   11.5783  -18.7004   26.7126 C   0  0  0  0  0  0  0  0  0  0  0  0
   12.0616  -18.8396   28.0843 C   0  0  0  0  0  0  0  0  0  0  0  0
   11.2402  -19.5434   29.0814 C   0  0  0  0  0  0  0  0  0  0  0  0
   12.0395  -19.4790   30.4252 N   0  0  0  0  0  0  0  0  0  0  0  0
   11.2731  -20.2316   31.4009 C   0  0  0  0  0  0  0  0  0  0  0  0
   13.6359  -18.6150   25.2152 O   0  0  0  0  0  0  0  0  0  0  0  0
   13.7913  -19.4575   24.3218 O   0  0  0  0  0  0  0  0  0  0  0  0
  2  1  1  0
  3  2  1  0
  4  3  1  0
  4  5  1  0
  5  7  1  0
  5  6  1  1
  7  8  2  0
  9 10  1  0
 10 12  1  0
 11 10  2  0
 12 13  1  0
 13 14  1  0
 14 15  1  0
 16 15  1  6
 17 16  1  0
 17  7  1  0
 18 19  2  0
 18 16  1  0
 20 18  1  0
 21 27  1  0
 21 20  1  0
 21 22  1  6
 23 22  1  0
 24 23  1  0
 25 24  1  0
 26 25  1  0
 27 29  1  0
 28 27  2  0
M  END
$$$$
