MRK.pdb
     RDKit          3D

 29 28  0  0  1  0  0  0  0  0999 V2000
    5.3874  -10.8995   26.5395 C   0  0  0  0  0  0  0  0  0  0  0  0
    6.5140  -12.0870   25.7865 S   0  0  0  0  0  0  0  0  0  0  0  0
    6.6053  -13.6325   26.7087 C   0  0  0  0  0  0  0  0  0  0  0  0
    7.5705  -14.6155   26.1275 C   0  0  0  0  0  0  0  0  0  0  0  0
    6.9850  -15.4320   25.0021 C   0  0  2  0  0  0  0  0  0  0  0  0
    5.9106  -16.2775   25.4850 N   0  0  0  0  0  0  0  0  0  0  0  0
    7.9840  -16.2367   24.2917 C   0  0  0  0  0  0  0  0  0  0  0  0
    8.2845  -17.3850   24.7107 O   0  0  0  0  0  0  0  0  0  0  0  0
    8.1492  -12.4765   19.5237 N   0  0  0  0  0  0  0  0  0  0  0  0
    7.8513  -13.3757   18.4441 C   0  0  0  0  0  0  0  0  0  0  0  0
    6.8324  -13.1068   17.7082 N   0  0  0  0  0  0  0  0  0  0  0  0
    8.6365  -14.5172   18.1850 N   0  0  0  0  0  0  0  0  0  0  0  0
    9.6727  -14.8998   19.1018 C   0  0  0  0  0  0  0  0  0  0  0  0
    9.0863  -15.4404   20.4060 C   0  0  0  0  0  0  0  0  0  0  0  0
   10.2459  -15.8829   21.2717 C   0  0  0  0  0  0  0  0  0  0  0  0
    9.7706  -16.5156   22.5578 C   0  0  2  0  0  0  0  0  0  0  0  0
    8.6457  -15.7752   23.1267 N   0  0  0  0  0  0  0  0  0  0  0  0
   10.9197  -16.5559   23.4990 C   0  0  0  0  0  0  0  0  0  0  0  0
   11.2421  -15.5443   24.1693 O   0  0  0  0  0  0  0  0  0  0  0  0
    6.5855  -13.7323   16.9167 N   0  0  0  0  0  0  0  0  0  0  0  0
   11.6681  -17.7388   23.6523 C   0  0  1  0  0  0  0  0  0  0  0  0
   12.7230  -17.8164   24.7508 C   0  0  0  0  0  0  0  0  0  0  0  0
   12.1633  -18.6848   25.7949 C   0  0  0  0  0  0  0  0  0  0  0  0
   12.9475  -19.2322   26.8994 C   0  0  0  0  0  0  0  0  0  0  0  0
   12.3266  -20.1796   27.8382 C   0  0  0  0  0  0  0  0  0  0  0  0
   13.4204  -20.5104   28.9073 N   0  0  0  0  0  0  0  0  0  0  0  0
   12.8227  -21.4523   29.8354 C   0  0  0  0  0  0  0  0  0  0  0  0
   13.9618  -18.1155   24.0847 O   0  0  0  0  0  0  0  0  0  0  0  0
   15.0845  -17.9296   24.5719 O   0  0  0  0  0  0  0  0  0  0  0  0
  2  1  1  0
  3  2  1  0
  4  3  1  0
  4  5  1  0
  5  7  1  0
  5  6  1  1
  7  8  2  0
  9 10  1  0
 10 12  1  0
 11 10  2  0
 12 13  1  0
 13 14  1  0
 14 15  1  0
 16 15  1  6
 17 16  1  0
 17  7  1  0
 18 19  2  0
 18 16  1  0
 20 18  1  0
 21 27  1  0
 21 20  1  0
 21 22  1  1
 23 22  1  0
 24 23  1  0
 25 24  1  0
 26 25  1  0
 27 29  1  0
 28 27  2  0
M  END
$$$$
