MRK.pdb
     RDKit          3D

 29 28  0  0  1  0  0  0  0  0999 V2000
    7.4902  -11.7617   26.6943 C   0  0  0  0  0  0  0  0  0  0  0  0
    6.3502  -12.8359   27.5848 S   0  0  0  0  0  0  0  0  0  0  0  0
    7.0541  -14.4598   27.9238 C   0  0  0  0  0  0  0  0  0  0  0  0
    7.7034  -15.0869   26.7317 C   0  0  0  0  0  0  0  0  0  0  0  0
    6.8394  -16.1247   26.0591 C   0  0  2  0  0  0  0  0  0  0  0  0
    6.6356  -17.2666   26.9291 N   0  0  0  0  0  0  0  0  0  0  0  0
    7.3656  -16.5622   24.7622 C   0  0  0  0  0  0  0  0  0  0  0  0
    8.0943  -17.5860   24.6888 O   0  0  0  0  0  0  0  0  0  0  0  0
    7.8660  -14.3683   16.5656 N   0  0  0  0  0  0  0  0  0  0  0  0
    8.3456  -13.3413   17.4476 C   0  0  0  0  0  0  0  0  0  0  0  0
    8.8711  -12.2960   16.9154 N   0  0  0  0  0  0  0  0  0  0  0  0
    8.2518  -13.4571   18.8492 N   0  0  0  0  0  0  0  0  0  0  0  0
    8.9822  -14.4847   19.5357 C   0  0  0  0  0  0  0  0  0  0  0  0
    8.0751  -15.6606   19.8984 C   0  0  0  0  0  0  0  0  0  0  0  0
    7.3672  -15.3022   21.1870 C   0  0  0  0  0  0  0  0  0  0  0  0
    7.8673  -16.1313   22.3458 C   0  0  2  0  0  0  0  0  0  0  0  0
    7.0883  -15.8727   23.5556 N   0  0  0  0  0  0  0  0  0  0  0  0
    9.3034  -15.8098   22.5513 C   0  0  0  0  0  0  0  0  0  0  0  0
    9.6524  -14.8308   23.2558 O   0  0  0  0  0  0  0  0  0  0  0  0
    9.3133  -11.5746   17.5176 N   0  0  0  0  0  0  0  0  0  0  0  0
   10.2995  -16.6055   21.9535 C   0  0  1  0  0  0  0  0  0  0  0  0
   11.7611  -16.3696   22.3191 C   0  0  0  0  0  0  0  0  0  0  0  0
   12.0320  -17.2159   23.4887 C   0  0  0  0  0  0  0  0  0  0  0  0
   13.3649  -17.4158   24.0526 C   0  0  0  0  0  0  0  0  0  0  0  0
   13.5345  -18.2540   25.2496 C   0  0  0  0  0  0  0  0  0  0  0  0
   15.0768  -18.3500   25.4967 N   0  0  0  0  0  0  0  0  0  0  0  0
   15.2543  -19.0944   26.7296 C   0  0  0  0  0  0  0  0  0  0  0  0
   12.4983  -16.4970   21.0909 O   0  0  0  0  0  0  0  0  0  0  0  0
   12.1605  -17.2133   20.1396 O   0  0  0  0  0  0  0  0  0  0  0  0
  2  1  1  0
  3  2  1  0
  4  3  1  0
  4  5  1  0
  5  7  1  0
  5  6  1  1
  7  8  2  0
  9 10  1  0
 10 12  1  0
 11 10  2  0
 12 13  1  0
 13 14  1  0
 14 15  1  0
 16 15  1  6
 17 16  1  0
 17  7  1  0
 18 19  2  0
 18 16  1  0
 20 18  1  0
 21 27  1  0
 21 20  1  0
 21 22  1  6
 23 22  1  0
 24 23  1  0
 25 24  1  0
 26 25  1  0
 27 29  1  0
 28 27  2  0
M  END
$$$$
