MRK.pdb
     RDKit          3D

 29 28  0  0  1  0  0  0  0  0999 V2000
    6.8436  -10.7167   26.9813 C   0  0  0  0  0  0  0  0  0  0  0  0
    6.7422  -12.1059   28.1243 S   0  0  0  0  0  0  0  0  0  0  0  0
    6.1051  -13.5989   27.3414 C   0  0  0  0  0  0  0  0  0  0  0  0
    6.8956  -14.0272   26.1467 C   0  0  0  0  0  0  0  0  0  0  0  0
    6.3086  -15.2247   25.4413 C   0  0  2  0  0  0  0  0  0  0  0  0
    6.3123  -16.3859   26.3096 N   0  0  0  0  0  0  0  0  0  0  0  0
    6.9794  -15.5356   24.1750 C   0  0  0  0  0  0  0  0  0  0  0  0
    7.7356  -16.5383   24.0901 O   0  0  0  0  0  0  0  0  0  0  0  0
    8.9470  -15.8294   17.9325 N   0  0  0  0  0  0  0  0  0  0  0  0
    8.6813  -14.8192   16.9467 C   0  0  0  0  0  0  0  0  0  0  0  0
    9.1133  -15.0227   15.7533 N   0  0  0  0  0  0  0  0  0  0  0  0
    7.9738  -13.6405   17.2575 N   0  0  0  0  0  0  0  0  0  0  0  0
    7.3865  -13.4766   18.5571 C   0  0  0  0  0  0  0  0  0  0  0  0
    8.3557  -13.9015   19.6604 C   0  0  0  0  0  0  0  0  0  0  0  0
    7.6658  -13.6562   20.9847 C   0  0  0  0  0  0  0  0  0  0  0  0
    7.7330  -14.8702   21.8804 C   0  0  2  0  0  0  0  0  0  0  0  0
    6.8153  -14.7436   23.0114 N   0  0  0  0  0  0  0  0  0  0  0  0
    9.1376  -15.0209   22.3410 C   0  0  0  0  0  0  0  0  0  0  0  0
    9.6076  -14.2769   23.2366 O   0  0  0  0  0  0  0  0  0  0  0  0
    9.0283  -14.2752   15.0372 N   0  0  0  0  0  0  0  0  0  0  0  0
    9.9665  -16.0080   21.7741 C   0  0  2  0  0  0  0  0  0  0  0  0
   11.3545  -16.2426   22.3604 C   0  0  0  0  0  0  0  0  0  0  0  0
   11.2037  -17.3152   23.3524 C   0  0  0  0  0  0  0  0  0  0  0  0
   12.3006  -17.8152   24.1779 C   0  0  0  0  0  0  0  0  0  0  0  0
   12.0732  -18.9480   25.0886 C   0  0  0  0  0  0  0  0  0  0  0  0
   13.4605  -19.2672   25.7383 N   0  0  0  0  0  0  0  0  0  0  0  0
   13.2351  -20.3343   26.6957 C   0  0  0  0  0  0  0  0  0  0  0  0
   12.2420  -16.3561   21.2345 O   0  0  0  0  0  0  0  0  0  0  0  0
   11.9378  -16.8665   20.1486 O   0  0  0  0  0  0  0  0  0  0  0  0
  2  1  1  0
  3  2  1  0
  4  3  1  0
  4  5  1  0
  5  7  1  0
  5  6  1  1
  7  8  2  0
  9 10  1  0
 10 12  1  0
 11 10  2  0
 12 13  1  0
 13 14  1  0
 14 15  1  0
 16 15  1  6
 17 16  1  0
 17  7  1  0
 18 19  2  0
 18 16  1  0
 20 18  1  0
 21 27  1  0
 21 20  1  0
 21 22  1  6
 23 22  1  0
 24 23  1  0
 25 24  1  0
 26 25  1  0
 27 29  1  0
 28 27  2  0
M  END
$$$$
