MRK.pdb
     RDKit          3D

 29 28  0  0  1  0  0  0  0  0999 V2000
    6.6201  -10.8396   26.6444 C   0  0  0  0  0  0  0  0  0  0  0  0
    6.3374  -11.9775   28.0125 S   0  0  0  0  0  0  0  0  0  0  0  0
    5.9256  -13.6405   27.4532 C   0  0  0  0  0  0  0  0  0  0  0  0
    6.6704  -14.0561   26.2251 C   0  0  0  0  0  0  0  0  0  0  0  0
    6.2163  -15.3847   25.6732 C   0  0  2  0  0  0  0  0  0  0  0  0
    6.4301  -16.4435   26.6404 N   0  0  0  0  0  0  0  0  0  0  0  0
    6.8510  -15.7275   24.3967 C   0  0  0  0  0  0  0  0  0  0  0  0
    7.4121  -16.8447   24.2499 O   0  0  0  0  0  0  0  0  0  0  0  0
    9.0168  -14.6848   15.4996 N   0  0  0  0  0  0  0  0  0  0  0  0
    9.1196  -14.1902   16.8440 C   0  0  0  0  0  0  0  0  0  0  0  0
   10.2652  -14.2676   17.4217 N   0  0  0  0  0  0  0  0  0  0  0  0
    8.0152  -13.6360   17.5221 N   0  0  0  0  0  0  0  0  0  0  0  0
    8.1621  -13.1661   18.8706 C   0  0  0  0  0  0  0  0  0  0  0  0
    8.3677  -14.3281   19.8425 C   0  0  0  0  0  0  0  0  0  0  0  0
    7.5309  -14.0414   21.0703 C   0  0  0  0  0  0  0  0  0  0  0  0
    7.6535  -15.1423   22.0967 C   0  0  2  0  0  0  0  0  0  0  0  0
    6.8652  -14.8417   23.2907 N   0  0  0  0  0  0  0  0  0  0  0  0
    9.0934  -15.2997   22.4280 C   0  0  0  0  0  0  0  0  0  0  0  0
    9.6872  -14.4587   23.1468 O   0  0  0  0  0  0  0  0  0  0  0  0
   10.3626  -13.9917   18.4182 N   0  0  0  0  0  0  0  0  0  0  0  0
    9.8166  -16.4031   21.9356 C   0  0  1  0  0  0  0  0  0  0  0  0
   11.2391  -16.6427   22.4300 C   0  0  0  0  0  0  0  0  0  0  0  0
   11.1832  -17.8474   23.2686 C   0  0  0  0  0  0  0  0  0  0  0  0
   11.2916  -17.8259   24.7254 C   0  0  0  0  0  0  0  0  0  0  0  0
   11.3360  -19.0914   25.4744 C   0  0  0  0  0  0  0  0  0  0  0  0
   11.5070  -18.6987   26.9794 N   0  0  0  0  0  0  0  0  0  0  0  0
   10.8897  -19.7567   27.7575 C   0  0  0  0  0  0  0  0  0  0  0  0
   12.0791  -16.5547   21.2662 O   0  0  0  0  0  0  0  0  0  0  0  0
   11.6901  -16.7282   20.1040 O   0  0  0  0  0  0  0  0  0  0  0  0
  2  1  1  0
  3  2  1  0
  4  3  1  0
  4  5  1  0
  5  7  1  0
  5  6  1  1
  7  8  2  0
  9 10  1  0
 10 12  1  0
 11 10  2  0
 12 13  1  0
 13 14  1  0
 14 15  1  0
 16 15  1  6
 17 16  1  0
 17  7  1  0
 18 19  2  0
 18 16  1  0
 20 18  1  0
 21 27  1  0
 21 20  1  0
 21 22  1  6
 23 22  1  0
 24 23  1  0
 25 24  1  0
 26 25  1  0
 27 29  1  0
 28 27  2  0
M  END
$$$$
