MRK.pdb
     RDKit          3D

 29 28  0  0  1  0  0  0  0  0999 V2000
   10.3569  -12.7488   29.3465 C   0  0  0  0  0  0  0  0  0  0  0  0
   10.8111  -14.4920   29.3844 S   0  0  0  0  0  0  0  0  0  0  0  0
    9.4537  -15.5699   28.8909 C   0  0  0  0  0  0  0  0  0  0  0  0
    9.5476  -16.0325   27.4722 C   0  0  0  0  0  0  0  0  0  0  0  0
    8.3440  -16.8227   27.0218 C   0  0  2  0  0  0  0  0  0  0  0  0
    8.1922  -18.0262   27.8161 N   0  0  0  0  0  0  0  0  0  0  0  0
    8.3733  -17.1570   25.5944 C   0  0  0  0  0  0  0  0  0  0  0  0
    8.3407  -18.3603   25.2264 O   0  0  0  0  0  0  0  0  0  0  0  0
    7.0446  -13.1819   17.8622 N   0  0  0  0  0  0  0  0  0  0  0  0
    8.2491  -13.0027   18.6235 C   0  0  0  0  0  0  0  0  0  0  0  0
    8.7342  -11.8149   18.7010 N   0  0  0  0  0  0  0  0  0  0  0  0
    8.8907  -14.0784   19.2700 N   0  0  0  0  0  0  0  0  0  0  0  0
    8.1330  -14.9757   20.0954 C   0  0  0  0  0  0  0  0  0  0  0  0
    8.2743  -14.6194   21.5754 C   0  0  0  0  0  0  0  0  0  0  0  0
    7.5181  -15.6661   22.3645 C   0  0  0  0  0  0  0  0  0  0  0  0
    8.4520  -16.5399   23.1676 C   0  0  2  0  0  0  0  0  0  0  0  0
    8.4384  -16.1681   24.5814 N   0  0  0  0  0  0  0  0  0  0  0  0
    9.8139  -16.4057   22.5887 C   0  0  0  0  0  0  0  0  0  0  0  0
   10.0205  -16.6115   21.3675 O   0  0  0  0  0  0  0  0  0  0  0  0
    9.5920  -11.6411   19.2603 N   0  0  0  0  0  0  0  0  0  0  0  0
   10.8993  -16.0434   23.4094 C   0  0  2  0  0  0  0  0  0  0  0  0
   12.2932  -16.5636   23.0746 C   0  0  0  0  0  0  0  0  0  0  0  0
   12.2355  -18.0222   23.2375 C   0  0  0  0  0  0  0  0  0  0  0  0
   13.2071  -18.9419   22.6504 C   0  0  0  0  0  0  0  0  0  0  0  0
   13.0682  -20.3901   22.8687 C   0  0  0  0  0  0  0  0  0  0  0  0
   14.1667  -21.0691   21.9850 N   0  0  0  0  0  0  0  0  0  0  0  0
   14.0131  -22.5016   22.1593 C   0  0  0  0  0  0  0  0  0  0  0  0
   12.6548  -15.9430   21.8287 O   0  0  0  0  0  0  0  0  0  0  0  0
   13.8176  -15.7680   21.4423 O   0  0  0  0  0  0  0  0  0  0  0  0
  2  1  1  0
  3  2  1  0
  4  3  1  0
  4  5  1  0
  5  7  1  0
  5  6  1  1
  7  8  2  0
  9 10  1  0
 10 12  1  0
 11 10  2  0
 12 13  1  0
 13 14  1  0
 14 15  1  0
 16 15  1  6
 17 16  1  0
 17  7  1  0
 18 19  2  0
 18 16  1  0
 20 18  1  0
 21 27  1  0
 21 20  1  0
 21 22  1  6
 23 22  1  0
 24 23  1  0
 25 24  1  0
 26 25  1  0
 27 29  1  0
 28 27  2  0
M  END
$$$$
