MRK.pdb
     RDKit          3D

 29 28  0  0  1  0  0  0  0  0999 V2000
    4.8411  -12.4434   26.8592 C   0  0  0  0  0  0  0  0  0  0  0  0
    6.3259  -12.3920   27.8785 S   0  0  0  0  0  0  0  0  0  0  0  0
    6.9942  -14.0330   28.2077 C   0  0  0  0  0  0  0  0  0  0  0  0
    7.6290  -14.6672   27.0117 C   0  0  0  0  0  0  0  0  0  0  0  0
    6.8997  -15.8976   26.5316 C   0  0  2  0  0  0  0  0  0  0  0  0
    7.0099  -16.9713   27.4998 N   0  0  0  0  0  0  0  0  0  0  0  0
    7.3462  -16.3559   25.2123 C   0  0  0  0  0  0  0  0  0  0  0  0
    8.1462  -17.3231   25.1167 O   0  0  0  0  0  0  0  0  0  0  0  0
    8.8396  -12.0118   18.2864 N   0  0  0  0  0  0  0  0  0  0  0  0
    8.9649  -13.3739   17.8485 C   0  0  0  0  0  0  0  0  0  0  0  0
   10.0336  -13.6998   17.2129 N   0  0  0  0  0  0  0  0  0  0  0  0
    7.9629  -14.3334   18.0975 N   0  0  0  0  0  0  0  0  0  0  0  0
    7.2340  -14.3068   19.3338 C   0  0  0  0  0  0  0  0  0  0  0  0
    7.9736  -15.0749   20.4294 C   0  0  0  0  0  0  0  0  0  0  0  0
    7.1006  -15.0491   21.6651 C   0  0  0  0  0  0  0  0  0  0  0  0
    7.6754  -15.9023   22.7705 C   0  0  2  0  0  0  0  0  0  0  0  0
    6.9114  -15.7493   24.0076 N   0  0  0  0  0  0  0  0  0  0  0  0
    9.0948  -15.5065   22.9619 C   0  0  0  0  0  0  0  0  0  0  0  0
    9.3944  -14.3842   23.4384 O   0  0  0  0  0  0  0  0  0  0  0  0
   10.2000  -14.6916   16.9537 N   0  0  0  0  0  0  0  0  0  0  0  0
   10.1306  -16.3924   22.6081 C   0  0  2  0  0  0  0  0  0  0  0  0
   11.5741  -16.0158   22.9242 C   0  0  0  0  0  0  0  0  0  0  0  0
   12.1427  -17.1542   23.6578 C   0  0  0  0  0  0  0  0  0  0  0  0
   11.7328  -17.5342   25.0076 C   0  0  0  0  0  0  0  0  0  0  0  0
   12.3681  -18.6850   25.6683 C   0  0  0  0  0  0  0  0  0  0  0  0
   11.7308  -18.7721   27.0949 N   0  0  0  0  0  0  0  0  0  0  0  0
   12.3219  -19.9276   27.7439 C   0  0  0  0  0  0  0  0  0  0  0  0
   12.1351  -15.5401   21.6886 O   0  0  0  0  0  0  0  0  0  0  0  0
   13.1513  -14.8386   21.6021 O   0  0  0  0  0  0  0  0  0  0  0  0
  2  1  1  0
  3  2  1  0
  4  3  1  0
  4  5  1  0
  5  7  1  0
  5  6  1  1
  7  8  2  0
  9 10  1  0
 10 12  1  0
 11 10  2  0
 12 13  1  0
 13 14  1  0
 14 15  1  0
 16 15  1  6
 17 16  1  0
 17  7  1  0
 18 19  2  0
 18 16  1  0
 20 18  1  0
 21 27  1  0
 21 20  1  0
 21 22  1  6
 23 22  1  0
 24 23  1  0
 25 24  1  0
 26 25  1  0
 27 29  1  0
 28 27  2  0
M  END
$$$$
