TMP.pdb
     RDKit          3D

 23 23  0  0  1  0  0  0  0  0999 V2000
    7.6514  -16.9928   19.4827 C   0  0  0  0  0  0  0  0  0  0  0  0
    8.3073  -16.5282   20.7583 C   0  0  1  0  0  0  0  0  0  0  0  0
    9.6742  -16.7244   20.7786 O   0  0  0  0  0  0  0  0  0  0  0  0
    7.9125  -15.1085   21.1049 C   0  0  2  0  0  0  0  0  0  0  0  0
    8.4105  -14.2533   20.0438 N   0  0  0  0  0  0  0  0  0  0  0  0
    8.4030  -14.6969   22.4278 C   0  0  0  0  0  0  0  0  0  0  0  0
    9.4948  -14.0932   22.5188 O   0  0  0  0  0  0  0  0  0  0  0  0
    6.7925  -10.7753   27.3321 C   0  0  0  0  0  0  0  0  0  0  0  0
    5.6733  -12.0860   26.8124 S   0  0  0  0  0  0  0  0  0  0  0  0
    6.2849  -12.8464   25.2595 C   0  0  0  0  0  0  0  0  0  0  0  0
    6.8857  -14.1560   25.6269 C   0  0  0  0  0  0  0  0  0  0  0  0
    8.1686  -14.5222   24.8936 C   0  0  2  0  0  0  0  0  0  0  0  0
    7.6370  -14.9879   23.5740 N   0  0  0  0  0  0  0  0  0  0  0  0
    8.8722  -15.6745   25.4765 C   0  0  0  0  0  0  0  0  0  0  0  0
    8.6620  -16.8202   24.9339 O   0  0  0  0  0  0  0  0  0  0  0  0
    9.7503  -15.6413   26.5630 N   0  0  0  0  0  0  0  0  0  0  0  0
    9.7959  -14.5441   27.5509 C   0  0  0  0  0  0  0  0  0  0  0  0
   11.0555  -14.7830   28.3542 C   0  0  0  0  0  0  0  0  0  0  0  0
   11.8487  -15.6892   27.4375 C   0  0  0  0  0  0  0  0  0  0  0  0
   10.7168  -16.6309   26.9749 C   0  0  1  0  0  0  0  0  0  0  0  0
   10.2531  -17.3091   28.2456 C   0  0  0  0  0  0  0  0  0  0  0  0
   11.0107  -18.2811   28.8670 O   0  0  0  0  0  0  0  0  0  0  0  0
    9.1565  -16.9863   28.7514 O   0  0  0  0  0  0  0  0  0  0  0  0
  2  1  1  6
  3  2  1  0
  4  2  1  0
  4  6  1  0
  4  5  1  6
  6  7  2  0
  9 10  1  0
  9  8  1  0
 10 11  1  0
 12 11  1  1
 13 12  1  0
 13  6  1  0
 14 12  1  0
 14 15  2  0
 16 14  1  0
 17 16  1  0
 18 17  1  0
 18 19  1  0
 19 20  1  0
 20 16  1  0
 20 21  1  1
 21 22  1  0
 23 21  2  0
M  END
$$$$
