TMP.pdb
     RDKit          3D

 23 23  0  0  1  0  0  0  0  0999 V2000
    9.7909  -18.8396   22.4947 C   0  0  0  0  0  0  0  0  0  0  0  0
   10.5477  -17.9851   21.5098 C   0  0  1  0  0  0  0  0  0  0  0  0
   10.8082  -18.6227   20.3128 O   0  0  0  0  0  0  0  0  0  0  0  0
    9.8934  -16.6327   21.3246 C   0  0  2  0  0  0  0  0  0  0  0  0
   10.6113  -15.9501   20.2646 N   0  0  0  0  0  0  0  0  0  0  0  0
    9.8611  -15.8502   22.5683 C   0  0  0  0  0  0  0  0  0  0  0  0
   10.9195  -15.3483   23.0072 O   0  0  0  0  0  0  0  0  0  0  0  0
    6.1190  -11.3398   27.2164 C   0  0  0  0  0  0  0  0  0  0  0  0
    6.3163  -12.2485   25.6751 S   0  0  0  0  0  0  0  0  0  0  0  0
    6.8302  -13.9727   26.0312 C   0  0  0  0  0  0  0  0  0  0  0  0
    7.1871  -14.5952   24.7289 C   0  0  0  0  0  0  0  0  0  0  0  0
    8.6660  -14.8909   24.5221 C   0  0  2  0  0  0  0  0  0  0  0  0
    8.6392  -15.6766   23.2481 N   0  0  0  0  0  0  0  0  0  0  0  0
    9.2356  -15.7875   25.5391 C   0  0  0  0  0  0  0  0  0  0  0  0
    9.3013  -17.0362   25.2433 O   0  0  0  0  0  0  0  0  0  0  0  0
    9.7150  -15.4097   26.7962 N   0  0  0  0  0  0  0  0  0  0  0  0
    9.3075  -14.1737   27.4949 C   0  0  0  0  0  0  0  0  0  0  0  0
   10.2695  -14.0356   28.6544 C   0  0  0  0  0  0  0  0  0  0  0  0
   11.4193  -14.9183   28.2189 C   0  0  0  0  0  0  0  0  0  0  0  0
   10.6198  -16.1185   27.6692 C   0  0  1  0  0  0  0  0  0  0  0  0
    9.8694  -16.6490   28.8713 C   0  0  0  0  0  0  0  0  0  0  0  0
    8.4971  -16.5447   28.9735 O   0  0  0  0  0  0  0  0  0  0  0  0
   10.5019  -17.1969   29.7999 O   0  0  0  0  0  0  0  0  0  0  0  0
  2  1  1  1
  3  2  1  0
  4  2  1  0
  4  6  1  0
  4  5  1  6
  6  7  2  0
  9 10  1  0
  9  8  1  0
 10 11  1  0
 12 11  1  1
 13 12  1  0
 13  6  1  0
 14 12  1  0
 14 15  2  0
 16 14  1  0
 17 16  1  0
 18 17  1  0
 18 19  1  0
 19 20  1  0
 20 16  1  0
 20 21  1  1
 21 22  1  0
 23 21  2  0
M  END
$$$$
