TMP.pdb
     RDKit          3D

 23 23  0  0  1  0  0  0  0  0999 V2000
    9.6752  -18.6609   20.3579 C   0  0  0  0  0  0  0  0  0  0  0  0
    9.9659  -17.8748   21.6112 C   0  0  1  0  0  0  0  0  0  0  0  0
   11.1753  -18.1961   22.1955 O   0  0  0  0  0  0  0  0  0  0  0  0
    9.7977  -16.3869   21.3895 C   0  0  2  0  0  0  0  0  0  0  0  0
   10.8068  -15.9791   20.4301 N   0  0  0  0  0  0  0  0  0  0  0  0
    9.8778  -15.6206   22.6411 C   0  0  0  0  0  0  0  0  0  0  0  0
   10.9849  -15.1820   23.0243 O   0  0  0  0  0  0  0  0  0  0  0  0
    6.0232  -11.1053   26.1666 C   0  0  0  0  0  0  0  0  0  0  0  0
    5.6179  -12.8487   26.3575 S   0  0  0  0  0  0  0  0  0  0  0  0
    7.1578  -13.8440   26.4001 C   0  0  0  0  0  0  0  0  0  0  0  0
    7.4316  -14.2768   25.0042 C   0  0  0  0  0  0  0  0  0  0  0  0
    8.8613  -14.7141   24.7174 C   0  0  2  0  0  0  0  0  0  0  0  0
    8.7073  -15.3911   23.3911 N   0  0  0  0  0  0  0  0  0  0  0  0
    9.3597  -15.7432   25.6421 C   0  0  0  0  0  0  0  0  0  0  0  0
    9.3720  -16.9544   25.2133 O   0  0  0  0  0  0  0  0  0  0  0  0
    9.8241  -15.5283   26.9425 N   0  0  0  0  0  0  0  0  0  0  0  0
    9.4328  -14.3731   27.7756 C   0  0  0  0  0  0  0  0  0  0  0  0
   10.3758  -14.3971   28.9586 C   0  0  0  0  0  0  0  0  0  0  0  0
   11.5124  -15.2516   28.4402 C   0  0  0  0  0  0  0  0  0  0  0  0
   10.6954  -16.3579   27.7399 C   0  0  1  0  0  0  0  0  0  0  0  0
    9.9101  -17.0067   28.8589 C   0  0  0  0  0  0  0  0  0  0  0  0
   10.5154  -17.8283   29.7880 O   0  0  0  0  0  0  0  0  0  0  0  0
    8.6810  -16.7981   28.9504 O   0  0  0  0  0  0  0  0  0  0  0  0
  2  1  1  6
  3  2  1  0
  4  2  1  0
  4  6  1  0
  4  5  1  6
  6  7  2  0
  9 10  1  0
  9  8  1  0
 10 11  1  0
 12 11  1  1
 13 12  1  0
 13  6  1  0
 14 12  1  0
 14 15  2  0
 16 14  1  0
 17 16  1  0
 18 17  1  0
 18 19  1  0
 19 20  1  0
 20 16  1  0
 20 21  1  1
 21 22  1  0
 23 21  2  0
M  END
$$$$
