TMP.pdb
     RDKit          3D

 23 23  0  0  1  0  0  0  0  0999 V2000
    9.4176  -18.6170   20.4005 C   0  0  0  0  0  0  0  0  0  0  0  0
    9.7328  -17.7868   21.6190 C   0  0  1  0  0  0  0  0  0  0  0  0
   11.0190  -17.9646   22.0896 O   0  0  0  0  0  0  0  0  0  0  0  0
    9.3805  -16.3297   21.4091 C   0  0  2  0  0  0  0  0  0  0  0  0
   10.2509  -15.8238   20.3644 N   0  0  0  0  0  0  0  0  0  0  0  0
    9.4820  -15.5441   22.6471 C   0  0  0  0  0  0  0  0  0  0  0  0
   10.5843  -15.0517   22.9747 O   0  0  0  0  0  0  0  0  0  0  0  0
    6.0860  -11.5811   25.0513 C   0  0  0  0  0  0  0  0  0  0  0  0
    6.0508  -12.3783   26.6649 S   0  0  0  0  0  0  0  0  0  0  0  0
    6.8256  -14.0371   26.5560 C   0  0  0  0  0  0  0  0  0  0  0  0
    7.0851  -14.2993   25.1156 C   0  0  0  0  0  0  0  0  0  0  0  0
    8.5205  -14.6593   24.7586 C   0  0  2  0  0  0  0  0  0  0  0  0
    8.3372  -15.3566   23.4467 N   0  0  0  0  0  0  0  0  0  0  0  0
    9.1222  -15.6501   25.6635 C   0  0  0  0  0  0  0  0  0  0  0  0
    9.1585  -16.8672   25.2528 O   0  0  0  0  0  0  0  0  0  0  0  0
    9.6611  -15.3930   26.9269 N   0  0  0  0  0  0  0  0  0  0  0  0
    9.2436  -14.2662   27.7859 C   0  0  0  0  0  0  0  0  0  0  0  0
   10.2682  -14.2115   28.8977 C   0  0  0  0  0  0  0  0  0  0  0  0
   11.4266  -14.9800   28.2990 C   0  0  0  0  0  0  0  0  0  0  0  0
   10.6482  -16.1492   27.6597 C   0  0  1  0  0  0  0  0  0  0  0  0
    9.9972  -16.8496   28.8325 C   0  0  0  0  0  0  0  0  0  0  0  0
    8.6336  -16.8021   29.0397 O   0  0  0  0  0  0  0  0  0  0  0  0
   10.7064  -17.4894   29.6389 O   0  0  0  0  0  0  0  0  0  0  0  0
  2  1  1  6
  3  2  1  0
  4  2  1  0
  4  6  1  0
  4  5  1  6
  6  7  2  0
  9 10  1  0
  9  8  1  0
 10 11  1  0
 12 11  1  1
 13 12  1  0
 13  6  1  0
 14 12  1  0
 14 15  2  0
 16 14  1  0
 17 16  1  0
 18 17  1  0
 18 19  1  0
 19 20  1  0
 20 16  1  0
 20 21  1  1
 21 22  1  0
 23 21  2  0
M  END
$$$$
