TMP.pdb
     RDKit          3D

 23 23  0  0  1  0  0  0  0  0999 V2000
    7.3169  -19.9240   22.0483 C   0  0  0  0  0  0  0  0  0  0  0  0
    7.6902  -19.8037   23.5041 C   0  0  1  0  0  0  0  0  0  0  0  0
    8.9717  -19.3307   23.7075 O   0  0  0  0  0  0  0  0  0  0  0  0
    6.6485  -19.0329   24.2865 C   0  0  2  0  0  0  0  0  0  0  0  0
    5.4087  -19.7819   24.2041 N   0  0  0  0  0  0  0  0  0  0  0  0
    6.4970  -17.6513   23.8087 C   0  0  0  0  0  0  0  0  0  0  0  0
    5.6733  -17.4010   22.9012 O   0  0  0  0  0  0  0  0  0  0  0  0
    7.2900  -12.5729   28.1624 C   0  0  0  0  0  0  0  0  0  0  0  0
    7.4798  -12.2074   26.4100 S   0  0  0  0  0  0  0  0  0  0  0  0
    6.6297  -13.4898   25.4117 C   0  0  0  0  0  0  0  0  0  0  0  0
    7.6865  -14.3750   24.8547 C   0  0  0  0  0  0  0  0  0  0  0  0
    7.2508  -15.2871   23.7164 C   0  0  2  0  0  0  0  0  0  0  0  0
    7.2809  -16.6290   24.3793 N   0  0  0  0  0  0  0  0  0  0  0  0
    8.2210  -15.3581   22.6136 C   0  0  0  0  0  0  0  0  0  0  0  0
    8.9413  -16.4197   22.5393 O   0  0  0  0  0  0  0  0  0  0  0  0
    8.4321  -14.3815   21.6367 N   0  0  0  0  0  0  0  0  0  0  0  0
    7.9816  -12.9804   21.7630 C   0  0  0  0  0  0  0  0  0  0  0  0
    8.1632  -12.3777   20.3871 C   0  0  0  0  0  0  0  0  0  0  0  0
    8.2269  -13.6083   19.5083 C   0  0  0  0  0  0  0  0  0  0  0  0
    9.1385  -14.4945   20.3831 C   0  0  1  0  0  0  0  0  0  0  0  0
   10.4434  -13.7316   20.4543 C   0  0  0  0  0  0  0  0  0  0  0  0
   11.3830  -13.8063   19.4462 O   0  0  0  0  0  0  0  0  0  0  0  0
   10.6838  -13.0135   21.4488 O   0  0  0  0  0  0  0  0  0  0  0  0
  2  1  1  6
  3  2  1  0
  4  2  1  0
  4  6  1  0
  4  5  1  6
  6  7  2  0
  9 10  1  0
  9  8  1  0
 10 11  1  0
 12 11  1  1
 13 12  1  0
 13  6  1  0
 14 12  1  0
 14 15  2  0
 16 14  1  0
 17 16  1  0
 18 17  1  0
 18 19  1  0
 19 20  1  0
 20 16  1  0
 20 21  1  1
 21 22  1  0
 23 21  2  0
M  END
$$$$
