TMP.pdb
     RDKit          3D

 23 23  0  0  1  0  0  0  0  0999 V2000
    7.4625  -20.9970   24.4463 C   0  0  0  0  0  0  0  0  0  0  0  0
    7.4197  -19.6061   23.8657 C   0  0  1  0  0  0  0  0  0  0  0  0
    7.6945  -19.5646   22.5130 O   0  0  0  0  0  0  0  0  0  0  0  0
    6.1364  -18.8890   24.2266 C   0  0  2  0  0  0  0  0  0  0  0  0
    5.0412  -19.6667   23.6781 N   0  0  0  0  0  0  0  0  0  0  0  0
    6.1205  -17.4967   23.7563 C   0  0  0  0  0  0  0  0  0  0  0  0
    5.5228  -17.2125   22.6949 O   0  0  0  0  0  0  0  0  0  0  0  0
    8.6331  -12.5280   27.0308 C   0  0  0  0  0  0  0  0  0  0  0  0
    6.8441  -12.3869   26.8898 S   0  0  0  0  0  0  0  0  0  0  0  0
    6.1871  -13.7796   25.8935 C   0  0  0  0  0  0  0  0  0  0  0  0
    7.3171  -14.2992   25.0788 C   0  0  0  0  0  0  0  0  0  0  0  0
    6.9283  -15.1518   23.8791 C   0  0  2  0  0  0  0  0  0  0  0  0
    6.7783  -16.5023   24.5073 N   0  0  0  0  0  0  0  0  0  0  0  0
    7.9988  -15.2864   22.8799 C   0  0  0  0  0  0  0  0  0  0  0  0
    8.7247  -16.3448   22.9433 O   0  0  0  0  0  0  0  0  0  0  0  0
    8.2998  -14.3734   21.8657 N   0  0  0  0  0  0  0  0  0  0  0  0
    7.8139  -12.9787   21.8432 C   0  0  0  0  0  0  0  0  0  0  0  0
    8.1363  -12.4666   20.4565 C   0  0  0  0  0  0  0  0  0  0  0  0
    8.3183  -13.7520   19.6785 C   0  0  0  0  0  0  0  0  0  0  0  0
    9.1426  -14.5537   20.7079 C   0  0  1  0  0  0  0  0  0  0  0  0
   10.4182  -13.7554   20.8675 C   0  0  0  0  0  0  0  0  0  0  0  0
   10.6876  -13.0410   22.0171 O   0  0  0  0  0  0  0  0  0  0  0  0
   11.2541  -13.7375   19.9382 O   0  0  0  0  0  0  0  0  0  0  0  0
  2  1  1  6
  3  2  1  0
  4  2  1  0
  4  6  1  0
  4  5  1  6
  6  7  2  0
  9 10  1  0
  9  8  1  0
 10 11  1  0
 12 11  1  1
 13 12  1  0
 13  6  1  0
 14 12  1  0
 14 15  2  0
 16 14  1  0
 17 16  1  0
 18 17  1  0
 18 19  1  0
 19 20  1  0
 20 16  1  0
 20 21  1  1
 21 22  1  0
 23 21  2  0
M  END
$$$$
