TMP.pdb
     RDKit          3D

 23 23  0  0  1  0  0  0  0  0999 V2000
    9.6974  -19.4656   23.5943 C   0  0  0  0  0  0  0  0  0  0  0  0
    9.3342  -19.1573   22.1638 C   0  0  1  0  0  0  0  0  0  0  0  0
    8.9438  -20.2683   21.4424 O   0  0  0  0  0  0  0  0  0  0  0  0
    8.3410  -18.0186   22.0722 C   0  0  2  0  0  0  0  0  0  0  0  0
    7.9000  -17.9437   20.6920 N   0  0  0  0  0  0  0  0  0  0  0  0
    8.9015  -16.7458   22.5473 C   0  0  0  0  0  0  0  0  0  0  0  0
    9.9176  -16.2748   21.9901 O   0  0  0  0  0  0  0  0  0  0  0  0
    5.4501  -13.1628   26.5133 C   0  0  0  0  0  0  0  0  0  0  0  0
    6.5301  -11.9449   25.7450 S   0  0  0  0  0  0  0  0  0  0  0  0
    8.1206  -12.7303   25.2789 C   0  0  0  0  0  0  0  0  0  0  0  0
    7.7947  -14.0714   24.7257 C   0  0  0  0  0  0  0  0  0  0  0  0
    8.9691  -14.8512   24.1511 C   0  0  2  0  0  0  0  0  0  0  0  0
    8.2867  -16.0745   23.6228 N   0  0  0  0  0  0  0  0  0  0  0  0
    9.9176  -15.3246   25.1703 C   0  0  0  0  0  0  0  0  0  0  0  0
   10.8991  -16.0463   24.7616 O   0  0  0  0  0  0  0  0  0  0  0  0
    9.8543  -15.0617   26.5413 N   0  0  0  0  0  0  0  0  0  0  0  0
    8.7516  -14.3207   27.1870 C   0  0  0  0  0  0  0  0  0  0  0  0
    9.2343  -14.0316   28.5914 C   0  0  0  0  0  0  0  0  0  0  0  0
   10.7324  -14.1957   28.4515 C   0  0  0  0  0  0  0  0  0  0  0  0
   10.7650  -15.4712   27.5834 C   0  0  1  0  0  0  0  0  0  0  0  0
   10.1172  -16.5291   28.4500 C   0  0  0  0  0  0  0  0  0  0  0  0
    8.8372  -16.9832   28.2052 O   0  0  0  0  0  0  0  0  0  0  0  0
   10.7515  -17.0086   29.4145 O   0  0  0  0  0  0  0  0  0  0  0  0
  2  1  1  1
  3  2  1  0
  4  2  1  0
  4  6  1  0
  4  5  1  6
  6  7  2  0
  9 10  1  0
  9  8  1  0
 10 11  1  0
 12 11  1  1
 13 12  1  0
 13  6  1  0
 14 12  1  0
 14 15  2  0
 16 14  1  0
 17 16  1  0
 18 17  1  0
 18 19  1  0
 19 20  1  0
 20 16  1  0
 20 21  1  1
 21 22  1  0
 23 21  2  0
M  END
$$$$
