TMP.pdb
     RDKit          3D

 23 23  0  0  1  0  0  0  0  0999 V2000
    8.2108  -17.8694   19.8809 C   0  0  0  0  0  0  0  0  0  0  0  0
    8.7061  -17.1027   21.0809 C   0  0  1  0  0  0  0  0  0  0  0  0
   10.0286  -17.3548   21.3889 O   0  0  0  0  0  0  0  0  0  0  0  0
    8.4017  -15.6244   20.9645 C   0  0  2  0  0  0  0  0  0  0  0  0
    9.1318  -15.1251   19.8144 N   0  0  0  0  0  0  0  0  0  0  0  0
    8.7265  -14.8864   22.1932 C   0  0  0  0  0  0  0  0  0  0  0  0
    9.8559  -14.3629   22.3162 O   0  0  0  0  0  0  0  0  0  0  0  0
    5.7133  -10.6159   26.3904 C   0  0  0  0  0  0  0  0  0  0  0  0
    5.4216  -12.3283   26.8624 S   0  0  0  0  0  0  0  0  0  0  0  0
    6.9255  -13.3272   26.5394 C   0  0  0  0  0  0  0  0  0  0  0  0
    6.9012  -13.6915   25.0981 C   0  0  0  0  0  0  0  0  0  0  0  0
    8.2103  -14.2206   24.5291 C   0  0  2  0  0  0  0  0  0  0  0  0
    7.7617  -14.7788   23.2145 N   0  0  0  0  0  0  0  0  0  0  0  0
    8.7649  -15.3549   25.2829 C   0  0  0  0  0  0  0  0  0  0  0  0
    8.5431  -16.5302   24.8132 O   0  0  0  0  0  0  0  0  0  0  0  0
    9.5130  -15.2757   26.4605 N   0  0  0  0  0  0  0  0  0  0  0  0
    9.5104  -14.1040   27.3599 C   0  0  0  0  0  0  0  0  0  0  0  0
   10.6531  -14.3383   28.3233 C   0  0  0  0  0  0  0  0  0  0  0  0
   11.4907  -15.3562   27.5796 C   0  0  0  0  0  0  0  0  0  0  0  0
   10.3653  -16.2750   27.0591 C   0  0  1  0  0  0  0  0  0  0  0  0
    9.7193  -16.8213   28.3137 C   0  0  0  0  0  0  0  0  0  0  0  0
    8.4204  -16.5057   28.6571 O   0  0  0  0  0  0  0  0  0  0  0  0
   10.3729  -17.5783   29.0637 O   0  0  0  0  0  0  0  0  0  0  0  0
  2  1  1  6
  3  2  1  0
  4  2  1  0
  4  6  1  0
  4  5  1  6
  6  7  2  0
  9 10  1  0
  9  8  1  0
 10 11  1  0
 12 11  1  1
 13 12  1  0
 13  6  1  0
 14 12  1  0
 14 15  2  0
 16 14  1  0
 17 16  1  0
 18 17  1  0
 18 19  1  0
 19 20  1  0
 20 16  1  0
 20 21  1  1
 21 22  1  0
 23 21  2  0
M  END
$$$$
