TMP.pdb
     RDKit          3D

 23 23  0  0  1  0  0  0  0  0999 V2000
    9.7727  -17.7709   18.9626 C   0  0  0  0  0  0  0  0  0  0  0  0
    9.9366  -16.7333   20.0442 C   0  0  1  0  0  0  0  0  0  0  0  0
    9.3851  -15.5090   19.7219 O   0  0  0  0  0  0  0  0  0  0  0  0
    9.4736  -17.2502   21.3895 C   0  0  2  0  0  0  0  0  0  0  0  0
    8.0807  -17.6304   21.2470 N   0  0  0  0  0  0  0  0  0  0  0  0
    9.6758  -16.2708   22.4665 C   0  0  0  0  0  0  0  0  0  0  0  0
   10.8139  -15.7856   22.6513 O   0  0  0  0  0  0  0  0  0  0  0  0
    6.1588  -11.1977   26.2323 C   0  0  0  0  0  0  0  0  0  0  0  0
    5.8223  -12.9659   26.2006 S   0  0  0  0  0  0  0  0  0  0  0  0
    7.4010  -13.8992   26.1894 C   0  0  0  0  0  0  0  0  0  0  0  0
    7.5340  -14.5076   24.8393 C   0  0  0  0  0  0  0  0  0  0  0  0
    8.8889  -15.1264   24.5249 C   0  0  2  0  0  0  0  0  0  0  0  0
    8.5857  -15.8925   23.2750 N   0  0  0  0  0  0  0  0  0  0  0  0
    9.3259  -16.1224   25.5146 C   0  0  0  0  0  0  0  0  0  0  0  0
    9.0546  -17.3526   25.2614 O   0  0  0  0  0  0  0  0  0  0  0  0
   10.0110  -15.8581   26.7035 N   0  0  0  0  0  0  0  0  0  0  0  0
    9.9562  -14.5647   27.4147 C   0  0  0  0  0  0  0  0  0  0  0  0
   11.0479  -14.6376   28.4596 C   0  0  0  0  0  0  0  0  0  0  0  0
   11.9278  -15.7454   27.9216 C   0  0  0  0  0  0  0  0  0  0  0  0
   10.8351  -16.7456   27.4886 C   0  0  1  0  0  0  0  0  0  0  0  0
   10.1268  -17.1050   28.7766 C   0  0  0  0  0  0  0  0  0  0  0  0
    8.8528  -16.6528   29.0542 O   0  0  0  0  0  0  0  0  0  0  0  0
   10.7042  -17.8296   29.6157 O   0  0  0  0  0  0  0  0  0  0  0  0
  2  1  1  6
  3  2  1  0
  4  2  1  0
  4  6  1  0
  4  5  1  6
  6  7  2  0
  9 10  1  0
  9  8  1  0
 10 11  1  0
 12 11  1  1
 13 12  1  0
 13  6  1  0
 14 12  1  0
 14 15  2  0
 16 14  1  0
 17 16  1  0
 18 17  1  0
 18 19  1  0
 19 20  1  0
 20 16  1  0
 20 21  1  1
 21 22  1  0
 23 21  2  0
M  END
$$$$
