TMP.pdb
     RDKit          3D

 23 23  0  0  1  0  0  0  0  0999 V2000
    6.7267  -21.6751   23.7688 C   0  0  0  0  0  0  0  0  0  0  0  0
    6.8082  -20.2206   23.3803 C   0  0  1  0  0  0  0  0  0  0  0  0
    7.1549  -20.0216   22.0584 O   0  0  0  0  0  0  0  0  0  0  0  0
    5.5593  -19.4644   23.7802 C   0  0  2  0  0  0  0  0  0  0  0  0
    4.4461  -20.0703   23.0740 N   0  0  0  0  0  0  0  0  0  0  0  0
    5.6677  -18.0227   23.5159 C   0  0  0  0  0  0  0  0  0  0  0  0
    5.1942  -17.5539   22.4572 O   0  0  0  0  0  0  0  0  0  0  0  0
    8.0513  -11.4373   27.1056 C   0  0  0  0  0  0  0  0  0  0  0  0
    7.4696  -13.1408   27.0917 S   0  0  0  0  0  0  0  0  0  0  0  0
    7.0952  -13.6560   25.3717 C   0  0  0  0  0  0  0  0  0  0  0  0
    6.8771  -15.1266   25.3987 C   0  0  0  0  0  0  0  0  0  0  0  0
    6.5689  -15.7726   24.0552 C   0  0  2  0  0  0  0  0  0  0  0  0
    6.3029  -17.1897   24.4581 N   0  0  0  0  0  0  0  0  0  0  0  0
    7.7232  -15.8200   23.1453 C   0  0  0  0  0  0  0  0  0  0  0  0
    8.4595  -16.8720   23.1933 O   0  0  0  0  0  0  0  0  0  0  0  0
    8.0938  -14.8303   22.2310 N   0  0  0  0  0  0  0  0  0  0  0  0
    7.6020  -13.4384   22.2807 C   0  0  0  0  0  0  0  0  0  0  0  0
    8.0244  -12.8191   20.9665 C   0  0  0  0  0  0  0  0  0  0  0  0
    8.2728  -14.0396   20.1066 C   0  0  0  0  0  0  0  0  0  0  0  0
    9.0225  -14.9189   21.1297 C   0  0  1  0  0  0  0  0  0  0  0  0
   10.2772  -14.1348   21.4469 C   0  0  0  0  0  0  0  0  0  0  0  0
   11.3497  -14.1002   20.5790 O   0  0  0  0  0  0  0  0  0  0  0  0
   10.3519  -13.4999   22.5210 O   0  0  0  0  0  0  0  0  0  0  0  0
  2  1  1  6
  3  2  1  0
  4  2  1  0
  4  6  1  0
  4  5  1  6
  6  7  2  0
  9 10  1  0
  9  8  1  0
 10 11  1  0
 12 11  1  1
 13 12  1  0
 13  6  1  0
 14 12  1  0
 14 15  2  0
 16 14  1  0
 17 16  1  0
 18 17  1  0
 18 19  1  0
 19 20  1  0
 20 16  1  0
 20 21  1  1
 21 22  1  0
 23 21  2  0
M  END
$$$$
