TMP.pdb
     RDKit          3D

 23 23  0  0  1  0  0  0  0  0999 V2000
    7.2124  -21.3048   24.8090 C   0  0  0  0  0  0  0  0  0  0  0  0
    7.2241  -19.9121   24.2315 C   0  0  1  0  0  0  0  0  0  0  0  0
    7.7908  -19.8414   22.9741 O   0  0  0  0  0  0  0  0  0  0  0  0
    5.8555  -19.2686   24.2960 C   0  0  2  0  0  0  0  0  0  0  0  0
    4.9646  -20.0719   23.4798 N   0  0  0  0  0  0  0  0  0  0  0  0
    5.8774  -17.8605   23.8756 C   0  0  0  0  0  0  0  0  0  0  0  0
    5.4817  -17.5544   22.7291 O   0  0  0  0  0  0  0  0  0  0  0  0
    8.8291  -12.4279   27.5172 C   0  0  0  0  0  0  0  0  0  0  0  0
    7.1003  -12.5145   27.0230 S   0  0  0  0  0  0  0  0  0  0  0  0
    6.9693  -13.2397   25.3435 C   0  0  0  0  0  0  0  0  0  0  0  0
    6.6545  -14.6822   25.5188 C   0  0  0  0  0  0  0  0  0  0  0  0
    6.5188  -15.4887   24.2348 C   0  0  2  0  0  0  0  0  0  0  0  0
    6.3432  -16.8759   24.7694 N   0  0  0  0  0  0  0  0  0  0  0  0
    7.7461  -15.5189   23.4253 C   0  0  0  0  0  0  0  0  0  0  0  0
    8.5751  -16.4721   23.6601 O   0  0  0  0  0  0  0  0  0  0  0  0
    8.0951  -14.6104   22.4224 N   0  0  0  0  0  0  0  0  0  0  0  0
    7.5923  -13.2231   22.3575 C   0  0  0  0  0  0  0  0  0  0  0  0
    7.9905  -12.7183   20.9880 C   0  0  0  0  0  0  0  0  0  0  0  0
    8.2369  -14.0077   20.2345 C   0  0  0  0  0  0  0  0  0  0  0  0
    9.0086  -14.7885   21.3192 C   0  0  1  0  0  0  0  0  0  0  0  0
   10.2611  -13.9707   21.5477 C   0  0  0  0  0  0  0  0  0  0  0  0
   11.3151  -13.9942   20.6571 O   0  0  0  0  0  0  0  0  0  0  0  0
   10.3509  -13.2531   22.5673 O   0  0  0  0  0  0  0  0  0  0  0  0
  2  1  1  6
  3  2  1  0
  4  2  1  0
  4  6  1  0
  4  5  1  6
  6  7  2  0
  9 10  1  0
  9  8  1  0
 10 11  1  0
 12 11  1  1
 13 12  1  0
 13  6  1  0
 14 12  1  0
 14 15  2  0
 16 14  1  0
 17 16  1  0
 18 17  1  0
 18 19  1  0
 19 20  1  0
 20 16  1  0
 20 21  1  1
 21 22  1  0
 23 21  2  0
M  END
$$$$
