TMP.pdb
     RDKit          3D

 23 23  0  0  1  0  0  0  0  0999 V2000
    9.1185  -18.5982   20.2053 C   0  0  0  0  0  0  0  0  0  0  0  0
    9.4982  -17.8651   21.4669 C   0  0  1  0  0  0  0  0  0  0  0  0
   10.6766  -18.3124   22.0312 O   0  0  0  0  0  0  0  0  0  0  0  0
    9.4737  -16.3644   21.2703 C   0  0  2  0  0  0  0  0  0  0  0  0
   10.5083  -16.0410   20.3058 N   0  0  0  0  0  0  0  0  0  0  0  0
    9.6405  -15.6304   22.5326 C   0  0  0  0  0  0  0  0  0  0  0  0
   10.7886  -15.3066   22.9090 O   0  0  0  0  0  0  0  0  0  0  0  0
    5.6515  -11.0490   27.2284 C   0  0  0  0  0  0  0  0  0  0  0  0
    5.5720  -12.5162   26.1886 S   0  0  0  0  0  0  0  0  0  0  0  0
    7.1839  -13.3905   26.2225 C   0  0  0  0  0  0  0  0  0  0  0  0
    7.3458  -14.0503   24.8999 C   0  0  0  0  0  0  0  0  0  0  0  0
    8.7348  -14.5966   24.6007 C   0  0  2  0  0  0  0  0  0  0  0  0
    8.5056  -15.3021   23.3004 N   0  0  0  0  0  0  0  0  0  0  0  0
    9.1790  -15.6290   25.5490 C   0  0  0  0  0  0  0  0  0  0  0  0
    8.9940  -16.8533   25.2056 O   0  0  0  0  0  0  0  0  0  0  0  0
    9.7862  -15.4048   26.7875 N   0  0  0  0  0  0  0  0  0  0  0  0
    9.6387  -14.1558   27.5622 C   0  0  0  0  0  0  0  0  0  0  0  0
   10.6734  -14.2446   28.6624 C   0  0  0  0  0  0  0  0  0  0  0  0
   11.6267  -15.2862   28.1174 C   0  0  0  0  0  0  0  0  0  0  0  0
   10.6020  -16.3022   27.5701 C   0  0  1  0  0  0  0  0  0  0  0  0
    9.8394  -16.7593   28.7945 C   0  0  0  0  0  0  0  0  0  0  0  0
   10.4054  -17.6035   29.7281 O   0  0  0  0  0  0  0  0  0  0  0  0
    8.6659  -16.3667   28.9717 O   0  0  0  0  0  0  0  0  0  0  0  0
  2  1  1  6
  3  2  1  0
  4  2  1  0
  4  6  1  0
  4  5  1  6
  6  7  2  0
  9 10  1  0
  9  8  1  0
 10 11  1  0
 12 11  1  1
 13 12  1  0
 13  6  1  0
 14 12  1  0
 14 15  2  0
 16 14  1  0
 17 16  1  0
 18 17  1  0
 18 19  1  0
 19 20  1  0
 20 16  1  0
 20 21  1  1
 21 22  1  0
 23 21  2  0
M  END
$$$$
