TMP.pdb
     RDKit          3D

 23 23  0  0  1  0  0  0  0  0999 V2000
    7.3860  -21.4273   24.3213 C   0  0  0  0  0  0  0  0  0  0  0  0
    7.3665  -20.0121   23.8015 C   0  0  1  0  0  0  0  0  0  0  0  0
    7.7988  -19.8986   22.4948 O   0  0  0  0  0  0  0  0  0  0  0  0
    6.0264  -19.3486   24.0365 C   0  0  2  0  0  0  0  0  0  0  0  0
    5.0415  -20.0865   23.2680 N   0  0  0  0  0  0  0  0  0  0  0  0
    6.0409  -17.9190   23.6961 C   0  0  0  0  0  0  0  0  0  0  0  0
    5.6064  -17.5469   22.5836 O   0  0  0  0  0  0  0  0  0  0  0  0
    6.6635  -11.0881   27.1447 C   0  0  0  0  0  0  0  0  0  0  0  0
    7.3721  -12.7412   27.0712 S   0  0  0  0  0  0  0  0  0  0  0  0
    7.2504  -13.3944   25.3617 C   0  0  0  0  0  0  0  0  0  0  0  0
    6.9576  -14.8479   25.4741 C   0  0  0  0  0  0  0  0  0  0  0  0
    6.7322  -15.5792   24.1582 C   0  0  2  0  0  0  0  0  0  0  0  0
    6.5434  -16.9883   24.6270 N   0  0  0  0  0  0  0  0  0  0  0  0
    7.9148  -15.5980   23.2842 C   0  0  0  0  0  0  0  0  0  0  0  0
    8.7285  -16.5822   23.4269 O   0  0  0  0  0  0  0  0  0  0  0  0
    8.2361  -14.6482   22.3110 N   0  0  0  0  0  0  0  0  0  0  0  0
    7.6839  -13.2785   22.2838 C   0  0  0  0  0  0  0  0  0  0  0  0
    8.0710  -12.7192   20.9324 C   0  0  0  0  0  0  0  0  0  0  0  0
    8.3678  -13.9759   20.1428 C   0  0  0  0  0  0  0  0  0  0  0  0
    9.1614  -14.7604   21.2089 C   0  0  1  0  0  0  0  0  0  0  0  0
   10.3823  -13.9053   21.4695 C   0  0  0  0  0  0  0  0  0  0  0  0
   10.5672  -13.2522   22.6711 O   0  0  0  0  0  0  0  0  0  0  0  0
   11.2499  -13.7822   20.5781 O   0  0  0  0  0  0  0  0  0  0  0  0
  2  1  1  6
  3  2  1  0
  4  2  1  0
  4  6  1  0
  4  5  1  6
  6  7  2  0
  9 10  1  0
  9  8  1  0
 10 11  1  0
 12 11  1  1
 13 12  1  0
 13  6  1  0
 14 12  1  0
 14 15  2  0
 16 14  1  0
 17 16  1  0
 18 17  1  0
 18 19  1  0
 19 20  1  0
 20 16  1  0
 20 21  1  1
 21 22  1  0
 23 21  2  0
M  END
$$$$
