MQT.pdb
     RDKit          3D

 25 24  0  0  1  0  0  0  0  0999 V2000
   26.6634  -19.6902   -5.2356 C   0  0  0  0  0  0  0  0  0  0  0  0
   26.9056  -20.4167   -6.8820 S   0  0  0  0  0  0  0  0  0  0  0  0
   27.2862  -19.0137   -8.0066 C   0  0  0  0  0  0  0  0  0  0  0  0
   27.4866  -19.5442   -9.3805 C   0  0  0  0  0  0  0  0  0  0  0  0
   26.5594  -20.6348   -9.7808 C   0  0  2  0  0  0  0  0  0  0  0  0
   27.2144  -21.9501   -9.6612 N   0  0  0  0  0  0  0  0  0  0  0  0
   26.0840  -20.4242  -11.1707 C   0  0  0  0  0  0  0  0  0  0  0  0
   25.3780  -19.4377  -11.5047 O   0  0  0  0  0  0  0  0  0  0  0  0
   28.7574  -22.5061  -16.4930 N   0  0  0  0  0  0  0  0  0  0  0  0
   27.6718  -21.7165  -16.9520 C   0  0  0  0  0  0  0  0  0  0  0  0
   27.5496  -21.4943  -18.1978 O   0  0  0  0  0  0  0  0  0  0  0  0
   26.6741  -21.1455  -15.9890 C   0  0  0  0  0  0  0  0  0  0  0  0
   27.0778  -21.5519  -14.5655 C   0  0  0  0  0  0  0  0  0  0  0  0
   26.0625  -21.0468  -13.5711 C   0  0  2  0  0  0  0  0  0  0  0  0
   26.4017  -21.3347  -12.2174 N   0  0  0  0  0  0  0  0  0  0  0  0
   24.7428  -21.6026  -13.9749 C   0  0  0  0  0  0  0  0  0  0  0  0
   24.5475  -22.7978  -14.2422 O   0  0  0  0  0  0  0  0  0  0  0  0
   21.6429  -21.8576  -12.1604 C   0  0  0  0  0  0  0  0  0  0  0  0
   21.3128  -20.9629  -13.3394 C   0  0  1  0  0  0  0  0  0  0  0  0
   21.4941  -19.6426  -12.9307 O   0  0  0  0  0  0  0  0  0  0  0  0
   22.3248  -21.2401  -14.4166 C   0  0  2  0  0  0  0  0  0  0  0  0
   23.6440  -20.7067  -14.0576 N   0  0  0  0  0  0  0  0  0  0  0  0
   21.8629  -20.5470  -15.6575 C   0  0  0  0  0  0  0  0  0  0  0  0
   22.5661  -19.5439  -16.2642 O   0  0  0  0  0  0  0  0  0  0  0  0
   20.7587  -20.8818  -16.2088 O   0  0  0  0  0  0  0  0  0  0  0  0
  2  1  1  0
  3  2  1  0
  4  5  1  0
  4  3  1  0
  5  7  1  0
  5  6  1  6
  7  8  2  0
 10  9  1  0
 10 12  1  0
 11 10  2  0
 13 12  1  0
 14 13  1  6
 14 15  1  0
 15  7  1  0
 16 14  1  0
 17 16  2  0
 19 18  1  1
 19 21  1  0
 20 19  1  0
 21 22  1  1
 21 23  1  0
 22 16  1  0
 23 24  1  0
 25 23  2  0
M  END
$$$$
