MQT.pdb
     RDKit          3D

 25 24  0  0  1  0  0  0  0  0999 V2000
   11.4415  -13.3902  -17.6649 C   0  0  0  0  0  0  0  0  0  0  0  0
   12.3226  -12.6638  -16.2532 S   0  0  0  0  0  0  0  0  0  0  0  0
   14.1121  -12.9263  -16.5802 C   0  0  0  0  0  0  0  0  0  0  0  0
   14.8897  -12.4049  -15.4257 C   0  0  0  0  0  0  0  0  0  0  0  0
   16.3656  -12.5347  -15.5447 C   0  0  2  0  0  0  0  0  0  0  0  0
   16.8315  -13.7954  -14.9387 N   0  0  0  0  0  0  0  0  0  0  0  0
   17.0391  -11.3787  -14.9027 C   0  0  0  0  0  0  0  0  0  0  0  0
   17.1706  -11.2764  -13.6555 O   0  0  0  0  0  0  0  0  0  0  0  0
   22.4347   -9.3767  -14.7851 N   0  0  0  0  0  0  0  0  0  0  0  0
   21.8030   -8.2239  -14.2515 C   0  0  0  0  0  0  0  0  0  0  0  0
   22.5143   -7.3261  -13.6998 O   0  0  0  0  0  0  0  0  0  0  0  0
   20.3151   -8.0551  -14.3313 C   0  0  0  0  0  0  0  0  0  0  0  0
   19.7125   -9.3110  -14.9747 C   0  0  0  0  0  0  0  0  0  0  0  0
   18.2097   -9.1966  -15.0347 C   0  0  2  0  0  0  0  0  0  0  0  0
   17.5805  -10.3075  -15.6673 N   0  0  0  0  0  0  0  0  0  0  0  0
   17.8972   -7.8968  -15.6877 C   0  0  0  0  0  0  0  0  0  0  0  0
   18.0736   -7.6678  -16.8937 O   0  0  0  0  0  0  0  0  0  0  0  0
   14.6708   -5.9499  -15.7918 C   0  0  0  0  0  0  0  0  0  0  0  0
   15.6955   -5.0757  -15.0953 C   0  0  1  0  0  0  0  0  0  0  0  0
   15.5683   -5.2878  -13.7234 O   0  0  0  0  0  0  0  0  0  0  0  0
   17.0589   -5.5655  -15.4985 C   0  0  2  0  0  0  0  0  0  0  0  0
   17.3650   -6.8592  -14.8771 N   0  0  0  0  0  0  0  0  0  0  0  0
   18.0584   -4.5661  -15.0128 C   0  0  0  0  0  0  0  0  0  0  0  0
   18.1162   -3.2785  -15.4686 O   0  0  0  0  0  0  0  0  0  0  0  0
   18.9193   -4.8952  -14.1265 O   0  0  0  0  0  0  0  0  0  0  0  0
  2  1  1  0
  3  2  1  0
  4  5  1  0
  4  3  1  0
  5  7  1  0
  5  6  1  1
  7  8  2  0
 10  9  1  0
 10 12  1  0
 11 10  2  0
 13 12  1  0
 14 13  1  6
 14 15  1  0
 15  7  1  0
 16 14  1  0
 17 16  2  0
 19 18  1  6
 19 21  1  0
 20 19  1  0
 21 22  1  1
 21 23  1  0
 22 16  1  0
 23 24  1  0
 25 23  2  0
M  END
$$$$
