MQT.pdb
     RDKit          3D

 25 24  0  0  1  0  0  0  0  0999 V2000
   22.5046  -20.1049   -8.9434 C   0  0  0  0  0  0  0  0  0  0  0  0
   23.9195  -20.4630   -7.8633 S   0  0  0  0  0  0  0  0  0  0  0  0
   25.3182  -20.8835   -8.9790 C   0  0  0  0  0  0  0  0  0  0  0  0
   24.8442  -20.8124  -10.3860 C   0  0  0  0  0  0  0  0  0  0  0  0
   25.8386  -21.2228  -11.4117 C   0  0  2  0  0  0  0  0  0  0  0  0
   27.0048  -20.3211  -11.4016 N   0  0  0  0  0  0  0  0  0  0  0  0
   25.2152  -21.2382  -12.7583 C   0  0  0  0  0  0  0  0  0  0  0  0
   25.3570  -20.2985  -13.5829 O   0  0  0  0  0  0  0  0  0  0  0  0
   25.8407  -24.7563  -16.5539 N   0  0  0  0  0  0  0  0  0  0  0  0
   24.7116  -24.3126  -17.2895 C   0  0  0  0  0  0  0  0  0  0  0  0
   24.7145  -24.4219  -18.5562 O   0  0  0  0  0  0  0  0  0  0  0  0
   23.5233  -23.7201  -16.5927 C   0  0  0  0  0  0  0  0  0  0  0  0
   23.7683  -23.7671  -15.0787 C   0  0  0  0  0  0  0  0  0  0  0  0
   23.8953  -22.3690  -14.5271 C   0  0  2  0  0  0  0  0  0  0  0  0
   24.4122  -22.3271  -13.2000 N   0  0  0  0  0  0  0  0  0  0  0  0
   22.5594  -21.7268  -14.6556 C   0  0  0  0  0  0  0  0  0  0  0  0
   21.6560  -21.8332  -13.8126 O   0  0  0  0  0  0  0  0  0  0  0  0
   21.9461  -17.9365  -15.9236 C   0  0  0  0  0  0  0  0  0  0  0  0
   21.2012  -18.9670  -16.7498 C   0  0  1  0  0  0  0  0  0  0  0  0
   22.0114  -19.3052  -17.8325 O   0  0  0  0  0  0  0  0  0  0  0  0
   21.0473  -20.2010  -15.9043 C   0  0  2  0  0  0  0  0  0  0  0  0
   22.3087  -20.9458  -15.8150 N   0  0  0  0  0  0  0  0  0  0  0  0
   20.0337  -21.0771  -16.5666 C   0  0  0  0  0  0  0  0  0  0  0  0
   18.6985  -20.7859  -16.6045 O   0  0  0  0  0  0  0  0  0  0  0  0
   20.3957  -22.1627  -17.1374 O   0  0  0  0  0  0  0  0  0  0  0  0
  2  1  1  0
  3  2  1  0
  4  5  1  0
  4  3  1  0
  5  7  1  0
  5  6  1  6
  7  8  2  0
 10  9  1  0
 10 12  1  0
 11 10  2  0
 13 12  1  0
 14 13  1  1
 14 15  1  0
 15  7  1  0
 16 14  1  0
 17 16  2  0
 19 18  1  1
 19 21  1  0
 20 19  1  0
 21 22  1  6
 21 23  1  0
 22 16  1  0
 23 24  1  0
 25 23  2  0
M  END
$$$$
