MQT.pdb
     RDKit          3D

 25 24  0  0  1  0  0  0  0  0999 V2000
   17.7143  -13.5475  -12.4009 C   0  0  0  0  0  0  0  0  0  0  0  0
   16.2704  -14.5643  -11.9784 S   0  0  0  0  0  0  0  0  0  0  0  0
   15.2934  -13.5837  -10.7693 C   0  0  0  0  0  0  0  0  0  0  0  0
   15.4156  -12.1429  -11.1137 C   0  0  0  0  0  0  0  0  0  0  0  0
   14.7940  -11.2040  -10.1434 C   0  0  2  0  0  0  0  0  0  0  0  0
   13.3477  -11.4608  -10.0184 N   0  0  0  0  0  0  0  0  0  0  0  0
   15.0304   -9.7995  -10.5600 C   0  0  0  0  0  0  0  0  0  0  0  0
   14.1081   -9.0491  -10.9718 O   0  0  0  0  0  0  0  0  0  0  0  0
   14.8695   -5.4334   -7.5529 N   0  0  0  0  0  0  0  0  0  0  0  0
   15.5338   -4.7536   -8.6062 C   0  0  0  0  0  0  0  0  0  0  0  0
   15.6389   -3.4876   -8.5582 O   0  0  0  0  0  0  0  0  0  0  0  0
   16.1090   -5.5084   -9.7673 C   0  0  0  0  0  0  0  0  0  0  0  0
   15.8940   -7.0093   -9.5320 C   0  0  0  0  0  0  0  0  0  0  0  0
   16.5027   -7.8065  -10.6585 C   0  0  2  0  0  0  0  0  0  0  0  0
   16.3266   -9.2134  -10.5183 N   0  0  0  0  0  0  0  0  0  0  0  0
   17.9312   -7.4021  -10.7564 C   0  0  0  0  0  0  0  0  0  0  0  0
   18.7154   -7.3927   -9.7957 O   0  0  0  0  0  0  0  0  0  0  0  0
   20.5528   -9.0603  -12.3328 C   0  0  0  0  0  0  0  0  0  0  0  0
   20.5121   -7.7404  -13.0782 C   0  0  1  0  0  0  0  0  0  0  0  0
   19.6837   -7.9075  -14.1868 O   0  0  0  0  0  0  0  0  0  0  0  0
   19.8554   -6.7309  -12.1777 C   0  0  2  0  0  0  0  0  0  0  0  0
   18.4212   -7.0041  -12.0285 N   0  0  0  0  0  0  0  0  0  0  0  0
   20.0110   -5.3889  -12.8168 C   0  0  0  0  0  0  0  0  0  0  0  0
   21.2166   -4.7607  -12.9618 O   0  0  0  0  0  0  0  0  0  0  0  0
   18.9874   -4.7655  -13.2625 O   0  0  0  0  0  0  0  0  0  0  0  0
  2  1  1  0
  3  2  1  0
  4  5  1  0
  4  3  1  0
  5  7  1  0
  5  6  1  6
  7  8  2  0
 10  9  1  0
 10 12  1  0
 11 10  2  0
 13 12  1  0
 14 13  1  1
 14 15  1  0
 15  7  1  0
 16 14  1  0
 17 16  2  0
 19 18  1  1
 19 21  1  0
 20 19  1  0
 21 22  1  6
 21 23  1  0
 22 16  1  0
 23 24  1  0
 25 23  2  0
M  END
$$$$
