MQT.pdb
     RDKit          3D

 25 24  0  0  1  0  0  0  0  0999 V2000
   27.3077  -17.8898   -7.8896 C   0  0  0  0  0  0  0  0  0  0  0  0
   27.1614  -19.2391   -6.6834 S   0  0  0  0  0  0  0  0  0  0  0  0
   26.8643  -20.7664   -7.6617 C   0  0  0  0  0  0  0  0  0  0  0  0
   26.5862  -20.3840   -9.0709 C   0  0  0  0  0  0  0  0  0  0  0  0
   26.3224  -21.5176   -9.9954 C   0  0  2  0  0  0  0  0  0  0  0  0
   27.5134  -22.3766  -10.1249 N   0  0  0  0  0  0  0  0  0  0  0  0
   25.9089  -21.0117  -11.3278 C   0  0  0  0  0  0  0  0  0  0  0  0
   26.6980  -20.9518  -12.3061 O   0  0  0  0  0  0  0  0  0  0  0  0
   19.8566  -20.3988  -12.9405 N   0  0  0  0  0  0  0  0  0  0  0  0
   20.4921  -21.6638  -12.8481 C   0  0  0  0  0  0  0  0  0  0  0  0
   19.7779  -22.7114  -12.7544 O   0  0  0  0  0  0  0  0  0  0  0  0
   21.9874  -21.7766  -12.8597 C   0  0  0  0  0  0  0  0  0  0  0  0
   22.5848  -20.3693  -12.9897 C   0  0  0  0  0  0  0  0  0  0  0  0
   24.0897  -20.4319  -12.9102 C   0  0  2  0  0  0  0  0  0  0  0  0
   24.5830  -20.5600  -11.5796 N   0  0  0  0  0  0  0  0  0  0  0  0
   24.6138  -19.2315  -13.6159 C   0  0  0  0  0  0  0  0  0  0  0  0
   24.6354  -18.0935  -13.1236 O   0  0  0  0  0  0  0  0  0  0  0  0
   27.7344  -18.0543  -14.5506 C   0  0  0  0  0  0  0  0  0  0  0  0
   27.0646  -18.2635  -15.8948 C   0  0  1  0  0  0  0  0  0  0  0  0
   27.3838  -19.5489  -16.3297 O   0  0  0  0  0  0  0  0  0  0  0  0
   25.5780  -18.2236  -15.6720 C   0  0  2  0  0  0  0  0  0  0  0  0
   25.1187  -19.4047  -14.9319 N   0  0  0  0  0  0  0  0  0  0  0  0
   24.9211  -18.2294  -17.0145 C   0  0  0  0  0  0  0  0  0  0  0  0
   25.1280  -17.2607  -17.9567 O   0  0  0  0  0  0  0  0  0  0  0  0
   24.1182  -19.1719  -17.3343 O   0  0  0  0  0  0  0  0  0  0  0  0
  2  1  1  0
  3  2  1  0
  4  5  1  0
  4  3  1  0
  5  7  1  0
  5  6  1  6
  7  8  2  0
 10  9  1  0
 10 12  1  0
 11 10  2  0
 13 12  1  0
 14 13  1  1
 14 15  1  0
 15  7  1  0
 16 14  1  0
 17 16  2  0
 19 18  1  1
 19 21  1  0
 20 19  1  0
 21 22  1  1
 21 23  1  0
 22 16  1  0
 23 24  1  0
 25 23  2  0
M  END
$$$$
