MQT.pdb
     RDKit          3D

 25 24  0  0  1  0  0  0  0  0999 V2000
   31.7418  -22.0668  -11.3873 C   0  0  0  0  0  0  0  0  0  0  0  0
   31.0146  -22.0416   -9.7237 S   0  0  0  0  0  0  0  0  0  0  0  0
   29.6676  -20.7922   -9.7758 C   0  0  0  0  0  0  0  0  0  0  0  0
   28.8916  -20.9790  -11.0297 C   0  0  0  0  0  0  0  0  0  0  0  0
   27.4158  -21.0311  -10.8605 C   0  0  2  0  0  0  0  0  0  0  0  0
   27.0234  -22.1867  -10.0335 N   0  0  0  0  0  0  0  0  0  0  0  0
   26.7464  -21.0974  -12.1831 C   0  0  0  0  0  0  0  0  0  0  0  0
   26.3309  -22.1760  -12.6805 O   0  0  0  0  0  0  0  0  0  0  0  0
   21.2933  -21.5036  -13.1235 N   0  0  0  0  0  0  0  0  0  0  0  0
   21.6563  -20.1968  -13.5395 C   0  0  0  0  0  0  0  0  0  0  0  0
   20.8591  -19.2315  -13.3181 O   0  0  0  0  0  0  0  0  0  0  0  0
   22.9619  -19.9446  -14.2328 C   0  0  0  0  0  0  0  0  0  0  0  0
   24.0935  -20.0510  -13.2022 C   0  0  0  0  0  0  0  0  0  0  0  0
   25.4296  -19.8462  -13.8714 C   0  0  2  0  0  0  0  0  0  0  0  0
   26.5333  -19.9339  -12.9744 N   0  0  0  0  0  0  0  0  0  0  0  0
   25.3619  -18.5457  -14.5910 C   0  0  0  0  0  0  0  0  0  0  0  0
   25.0210  -17.4778  -14.0604 O   0  0  0  0  0  0  0  0  0  0  0  0
   28.2640  -17.2737  -16.6434 C   0  0  0  0  0  0  0  0  0  0  0  0
   27.0421  -17.1994  -17.5382 C   0  0  1  0  0  0  0  0  0  0  0  0
   27.0213  -18.3530  -18.3205 O   0  0  0  0  0  0  0  0  0  0  0  0
   25.8278  -17.2387  -16.6520 C   0  0  2  0  0  0  0  0  0  0  0  0
   25.7097  -18.5315  -15.9678 N   0  0  0  0  0  0  0  0  0  0  0  0
   24.6275  -17.0609  -17.5246 C   0  0  0  0  0  0  0  0  0  0  0  0
   23.6425  -18.0008  -17.6485 O   0  0  0  0  0  0  0  0  0  0  0  0
   24.4796  -15.9886  -18.2053 O   0  0  0  0  0  0  0  0  0  0  0  0
  2  1  1  0
  3  2  1  0
  4  5  1  0
  4  3  1  0
  5  7  1  0
  5  6  1  1
  7  8  2  0
 10  9  1  0
 10 12  1  0
 11 10  2  0
 13 12  1  0
 14 13  1  1
 14 15  1  0
 15  7  1  0
 16 14  1  0
 17 16  2  0
 19 18  1  1
 19 21  1  0
 20 19  1  0
 21 22  1  6
 21 23  1  0
 22 16  1  0
 23 24  1  0
 25 23  2  0
M  END
$$$$
