MQT.pdb
     RDKit          3D

 25 24  0  0  1  0  0  0  0  0999 V2000
   14.0294  -11.7395  -15.9523 C   0  0  0  0  0  0  0  0  0  0  0  0
   14.3094  -12.8781  -17.3387 S   0  0  0  0  0  0  0  0  0  0  0  0
   16.1217  -13.1792  -17.3922 C   0  0  0  0  0  0  0  0  0  0  0  0
   16.7738  -12.3537  -16.3421 C   0  0  0  0  0  0  0  0  0  0  0  0
   18.2553  -12.4580  -16.2824 C   0  0  2  0  0  0  0  0  0  0  0  0
   18.6665  -13.6764  -15.5614 N   0  0  0  0  0  0  0  0  0  0  0  0
   18.8316  -11.2572  -15.6282 C   0  0  0  0  0  0  0  0  0  0  0  0
   18.6793  -11.0124  -14.4034 O   0  0  0  0  0  0  0  0  0  0  0  0
   24.3420   -8.9072  -15.5987 N   0  0  0  0  0  0  0  0  0  0  0  0
   23.7367  -10.0132  -14.9482 C   0  0  0  0  0  0  0  0  0  0  0  0
   24.4741  -10.8719  -14.3692 O   0  0  0  0  0  0  0  0  0  0  0  0
   22.2463  -10.1782  -14.9371 C   0  0  0  0  0  0  0  0  0  0  0  0
   21.6211   -9.0479  -15.7652 C   0  0  0  0  0  0  0  0  0  0  0  0
   20.1162   -9.1380  -15.7188 C   0  0  2  0  0  0  0  0  0  0  0  0
   19.5973  -10.3026  -16.3548 N   0  0  0  0  0  0  0  0  0  0  0  0
   19.5858   -7.8719  -16.2927 C   0  0  0  0  0  0  0  0  0  0  0  0
   19.6870   -7.5579  -17.4882 O   0  0  0  0  0  0  0  0  0  0  0  0
   16.1267   -6.5691  -16.5055 C   0  0  0  0  0  0  0  0  0  0  0  0
   16.8964   -5.6087  -15.6198 C   0  0  1  0  0  0  0  0  0  0  0  0
   16.7455   -6.0372  -14.3019 O   0  0  0  0  0  0  0  0  0  0  0  0
   18.3534   -5.7391  -15.9680 C   0  0  2  0  0  0  0  0  0  0  0  0
   18.9246   -6.9725  -15.4148 N   0  0  0  0  0  0  0  0  0  0  0  0
   19.0683   -4.5780  -15.3559 C   0  0  0  0  0  0  0  0  0  0  0  0
   20.0306   -4.7102  -14.3938 O   0  0  0  0  0  0  0  0  0  0  0  0
   18.7931   -3.3851  -15.7253 O   0  0  0  0  0  0  0  0  0  0  0  0
  2  1  1  0
  3  2  1  0
  4  5  1  0
  4  3  1  0
  5  7  1  0
  5  6  1  1
  7  8  2  0
 10  9  1  0
 10 12  1  0
 11 10  2  0
 13 12  1  0
 14 13  1  6
 14 15  1  0
 15  7  1  0
 16 14  1  0
 17 16  2  0
 19 18  1  6
 19 21  1  0
 20 19  1  0
 21 22  1  1
 21 23  1  0
 22 16  1  0
 23 24  1  0
 25 23  2  0
M  END
$$$$
