MQT.pdb
     RDKit          3D

 25 24  0  0  1  0  0  0  0  0999 V2000
   29.7800  -21.4868  -10.5154 C   0  0  0  0  0  0  0  0  0  0  0  0
   30.7115  -20.1371  -11.2948 S   0  0  0  0  0  0  0  0  0  0  0  0
   30.3613  -20.2504  -13.0956 C   0  0  0  0  0  0  0  0  0  0  0  0
   28.8897  -20.2039  -13.2994 C   0  0  0  0  0  0  0  0  0  0  0  0
   28.2266  -21.5268  -13.4393 C   0  0  2  0  0  0  0  0  0  0  0  0
   28.7725  -22.2676  -14.5911 N   0  0  0  0  0  0  0  0  0  0  0  0
   26.7602  -21.3561  -13.5890 C   0  0  0  0  0  0  0  0  0  0  0  0
   26.1235  -21.7942  -14.5819 O   0  0  0  0  0  0  0  0  0  0  0  0
   22.6847  -20.4121   -8.8287 N   0  0  0  0  0  0  0  0  0  0  0  0
   21.8656  -20.7797   -9.9273 C   0  0  0  0  0  0  0  0  0  0  0  0
   20.6387  -21.0444   -9.7249 O   0  0  0  0  0  0  0  0  0  0  0  0
   22.4288  -20.8586  -11.3148 C   0  0  0  0  0  0  0  0  0  0  0  0
   23.9429  -20.6203  -11.2442 C   0  0  0  0  0  0  0  0  0  0  0  0
   24.5581  -20.7648  -12.6137 C   0  0  2  0  0  0  0  0  0  0  0  0
   25.9805  -20.6800  -12.6090 N   0  0  0  0  0  0  0  0  0  0  0  0
   23.9140  -19.7498  -13.4903 C   0  0  0  0  0  0  0  0  0  0  0  0
   23.9880  -18.5261  -13.3028 O   0  0  0  0  0  0  0  0  0  0  0  0
   24.4117  -18.8268  -16.9150 C   0  0  0  0  0  0  0  0  0  0  0  0
   22.9801  -19.3257  -16.8854 C   0  0  1  0  0  0  0  0  0  0  0  0
   22.9968  -20.6763  -17.2300 O   0  0  0  0  0  0  0  0  0  0  0  0
   22.4967  -19.2332  -15.4645 C   0  0  2  0  0  0  0  0  0  0  0  0
   23.1712  -20.2152  -14.6077 N   0  0  0  0  0  0  0  0  0  0  0  0
   21.0341  -19.5409  -15.4655 C   0  0  0  0  0  0  0  0  0  0  0  0
   20.1022  -18.7606  -16.0912 O   0  0  0  0  0  0  0  0  0  0  0  0
   20.5942  -20.5782  -14.8608 O   0  0  0  0  0  0  0  0  0  0  0  0
  2  1  1  0
  3  2  1  0
  4  5  1  0
  4  3  1  0
  5  7  1  0
  5  6  1  6
  7  8  2  0
 10  9  1  0
 10 12  1  0
 11 10  2  0
 13 12  1  0
 14 13  1  1
 14 15  1  0
 15  7  1  0
 16 14  1  0
 17 16  2  0
 19 18  1  1
 19 21  1  0
 20 19  1  0
 21 22  1  1
 21 23  1  0
 22 16  1  0
 23 24  1  0
 25 23  2  0
M  END
$$$$
