MQT.pdb
     RDKit          3D

 25 24  0  0  1  0  0  0  0  0999 V2000
   35.5547   -7.2174  -16.8344 C   0  0  0  0  0  0  0  0  0  0  0  0
   36.5521   -6.6688  -15.4197 S   0  0  0  0  0  0  0  0  0  0  0  0
   37.2830   -8.1899  -14.6918 C   0  0  0  0  0  0  0  0  0  0  0  0
   38.1557   -7.8021  -13.5528 C   0  0  0  0  0  0  0  0  0  0  0  0
   37.6700   -8.2185  -12.2111 C   0  0  2  0  0  0  0  0  0  0  0  0
   36.3695   -7.5940  -11.9074 N   0  0  0  0  0  0  0  0  0  0  0  0
   38.6644   -7.8629  -11.1687 C   0  0  0  0  0  0  0  0  0  0  0  0
   38.6541   -6.7563  -10.5698 O   0  0  0  0  0  0  0  0  0  0  0  0
   40.2369  -11.2713   -6.5391 N   0  0  0  0  0  0  0  0  0  0  0  0
   39.1656  -10.3556   -6.7030 C   0  0  0  0  0  0  0  0  0  0  0  0
   38.1645  -10.4263   -5.9225 O   0  0  0  0  0  0  0  0  0  0  0  0
   39.2023   -9.3129   -7.7800 C   0  0  0  0  0  0  0  0  0  0  0  0
   40.5029   -9.4765   -8.5774 C   0  0  0  0  0  0  0  0  0  0  0  0
   40.5638   -8.4604   -9.6905 C   0  0  2  0  0  0  0  0  0  0  0  0
   39.6982   -8.7612  -10.7816 N   0  0  0  0  0  0  0  0  0  0  0  0
   41.9912   -8.3385  -10.0919 C   0  0  0  0  0  0  0  0  0  0  0  0
   42.5349   -9.0582  -10.9430 O   0  0  0  0  0  0  0  0  0  0  0  0
   46.2170   -5.8671   -9.7792 C   0  0  0  0  0  0  0  0  0  0  0  0
   44.7943   -5.9596   -9.2628 C   0  0  1  0  0  0  0  0  0  0  0  0
   44.0782   -4.8940   -9.8058 O   0  0  0  0  0  0  0  0  0  0  0  0
   44.1947   -7.2256   -9.8097 C   0  0  2  0  0  0  0  0  0  0  0  0
   42.7738   -7.3362   -9.4596 N   0  0  0  0  0  0  0  0  0  0  0  0
   44.9199   -8.3737   -9.1855 C   0  0  0  0  0  0  0  0  0  0  0  0
   46.0452   -8.9336   -9.7233 O   0  0  0  0  0  0  0  0  0  0  0  0
   44.4964   -8.8852   -8.0927 O   0  0  0  0  0  0  0  0  0  0  0  0
  2  1  1  0
  3  2  1  0
  4  5  1  0
  4  3  1  0
  5  7  1  0
  5  6  1  1
  7  8  2  0
 10  9  1  0
 10 12  1  0
 11 10  2  0
 13 12  1  0
 14 13  1  1
 14 15  1  0
 15  7  1  0
 16 14  1  0
 17 16  2  0
 19 18  1  6
 19 21  1  0
 20 19  1  0
 21 22  1  1
 21 23  1  0
 22 16  1  0
 23 24  1  0
 25 23  2  0
M  END
$$$$
