MQT.pdb
     RDKit          3D

 25 24  0  0  1  0  0  0  0  0999 V2000
   13.0342   -6.7797   -5.8167 C   0  0  0  0  0  0  0  0  0  0  0  0
   13.1778   -5.7634   -7.3145 S   0  0  0  0  0  0  0  0  0  0  0  0
   14.8306   -6.1368   -8.0265 C   0  0  0  0  0  0  0  0  0  0  0  0
   14.9534   -7.6077   -8.2019 C   0  0  0  0  0  0  0  0  0  0  0  0
   14.4651   -8.1341   -9.5033 C   0  0  2  0  0  0  0  0  0  0  0  0
   13.7579   -9.4144   -9.3188 N   0  0  0  0  0  0  0  0  0  0  0  0
   15.5964   -8.3059  -10.4481 C   0  0  0  0  0  0  0  0  0  0  0  0
   16.3051   -9.3452  -10.4770 O   0  0  0  0  0  0  0  0  0  0  0  0
   15.3521   -7.8685  -16.3352 N   0  0  0  0  0  0  0  0  0  0  0  0
   16.7324   -8.1472  -16.1617 C   0  0  0  0  0  0  0  0  0  0  0  0
   17.4284   -8.4852  -17.1705 O   0  0  0  0  0  0  0  0  0  0  0  0
   17.3737   -8.0476  -14.8099 C   0  0  0  0  0  0  0  0  0  0  0  0
   16.3061   -7.6311  -13.7896 C   0  0  0  0  0  0  0  0  0  0  0  0
   16.9089   -7.5446  -12.4097 C   0  0  2  0  0  0  0  0  0  0  0  0
   15.9498   -7.2953  -11.3858 N   0  0  0  0  0  0  0  0  0  0  0  0
   17.9841   -6.5179  -12.4672 C   0  0  0  0  0  0  0  0  0  0  0  0
   17.8033   -5.3125  -12.2386 O   0  0  0  0  0  0  0  0  0  0  0  0
   21.4534   -6.7337  -10.7535 C   0  0  0  0  0  0  0  0  0  0  0  0
   21.6499   -6.5538  -12.2463 C   0  0  1  0  0  0  0  0  0  0  0  0
   21.7994   -7.8209  -12.8078 O   0  0  0  0  0  0  0  0  0  0  0  0
   20.3831   -5.9651  -12.8030 C   0  0  2  0  0  0  0  0  0  0  0  0
   19.2945   -6.9493  -12.8044 N   0  0  0  0  0  0  0  0  0  0  0  0
   20.6550   -5.5676  -14.2178 C   0  0  0  0  0  0  0  0  0  0  0  0
   21.5327   -4.5787  -14.5652 O   0  0  0  0  0  0  0  0  0  0  0  0
   20.0551   -6.1596  -15.1795 O   0  0  0  0  0  0  0  0  0  0  0  0
  2  1  1  0
  3  2  1  0
  4  5  1  0
  4  3  1  0
  5  7  1  0
  5  6  1  1
  7  8  2  0
 10  9  1  0
 10 12  1  0
 11 10  2  0
 13 12  1  0
 14 13  1  6
 14 15  1  0
 15  7  1  0
 16 14  1  0
 17 16  2  0
 19 18  1  1
 19 21  1  0
 20 19  1  0
 21 22  1  6
 21 23  1  0
 22 16  1  0
 23 24  1  0
 25 23  2  0
M  END
$$$$
