MQT.pdb
     RDKit          3D

 25 24  0  0  1  0  0  0  0  0999 V2000
   26.8330  -16.6790  -15.7065 C   0  0  0  0  0  0  0  0  0  0  0  0
   28.1700  -16.9438  -16.9062 S   0  0  0  0  0  0  0  0  0  0  0  0
   27.9430  -18.6490  -17.5533 C   0  0  0  0  0  0  0  0  0  0  0  0
   26.8510  -19.3077  -16.7898 C   0  0  0  0  0  0  0  0  0  0  0  0
   27.2823  -20.4059  -15.8857 C   0  0  2  0  0  0  0  0  0  0  0  0
   27.8195  -21.5407  -16.6584 N   0  0  0  0  0  0  0  0  0  0  0  0
   26.1484  -20.8537  -15.0397 C   0  0  0  0  0  0  0  0  0  0  0  0
   25.2489  -21.6252  -15.4629 O   0  0  0  0  0  0  0  0  0  0  0  0
   25.2644  -20.2849   -8.7229 N   0  0  0  0  0  0  0  0  0  0  0  0
   24.1329  -21.0075   -9.1815 C   0  0  0  0  0  0  0  0  0  0  0  0
   23.2959  -21.4523   -8.3343 O   0  0  0  0  0  0  0  0  0  0  0  0
   23.9161  -21.2500  -10.6454 C   0  0  0  0  0  0  0  0  0  0  0  0
   25.0882  -20.6374  -11.4233 C   0  0  0  0  0  0  0  0  0  0  0  0
   24.8850  -20.8247  -12.9060 C   0  0  2  0  0  0  0  0  0  0  0  0
   26.0102  -20.4326  -13.6873 N   0  0  0  0  0  0  0  0  0  0  0  0
   23.6380  -20.0995  -13.2702 C   0  0  0  0  0  0  0  0  0  0  0  0
   23.4469  -18.8949  -13.0455 O   0  0  0  0  0  0  0  0  0  0  0  0
   22.2083  -19.5008  -16.5014 C   0  0  0  0  0  0  0  0  0  0  0  0
   21.1171  -20.2640  -15.7760 C   0  0  1  0  0  0  0  0  0  0  0  0
   21.2551  -21.6117  -16.1045 O   0  0  0  0  0  0  0  0  0  0  0  0
   21.3773  -20.1350  -14.3006 C   0  0  2  0  0  0  0  0  0  0  0  0
   22.6077  -20.8352  -13.9137 N   0  0  0  0  0  0  0  0  0  0  0  0
   20.2318  -20.7735  -13.5837 C   0  0  0  0  0  0  0  0  0  0  0  0
   20.3380  -21.9491  -12.8941 O   0  0  0  0  0  0  0  0  0  0  0  0
   19.0783  -20.2217  -13.5934 O   0  0  0  0  0  0  0  0  0  0  0  0
  2  1  1  0
  3  2  1  0
  4  5  1  0
  4  3  1  0
  5  7  1  0
  5  6  1  6
  7  8  2  0
 10  9  1  0
 10 12  1  0
 11 10  2  0
 13 12  1  0
 14 13  1  1
 14 15  1  0
 15  7  1  0
 16 14  1  0
 17 16  2  0
 19 18  1  6
 19 21  1  0
 20 19  1  0
 21 22  1  6
 21 23  1  0
 22 16  1  0
 23 24  1  0
 25 23  2  0
M  END
$$$$
