MQT.pdb
     RDKit          3D

 25 24  0  0  1  0  0  0  0  0999 V2000
   25.5687  -18.6428   -8.3523 C   0  0  0  0  0  0  0  0  0  0  0  0
   26.9422  -19.8266   -8.4472 S   0  0  0  0  0  0  0  0  0  0  0  0
   26.3514  -21.2082   -9.5056 C   0  0  0  0  0  0  0  0  0  0  0  0
   25.9587  -20.6602  -10.8304 C   0  0  0  0  0  0  0  0  0  0  0  0
   25.3837  -21.6483  -11.7803 C   0  0  2  0  0  0  0  0  0  0  0  0
   26.3525  -22.7206  -12.0717 N   0  0  0  0  0  0  0  0  0  0  0  0
   24.9706  -20.9763  -13.0372 C   0  0  0  0  0  0  0  0  0  0  0  0
   25.6848  -20.9755  -14.0731 O   0  0  0  0  0  0  0  0  0  0  0  0
   18.9547  -20.5157  -14.4956 N   0  0  0  0  0  0  0  0  0  0  0  0
   19.7504  -21.6588  -14.2254 C   0  0  0  0  0  0  0  0  0  0  0  0
   19.1876  -22.7929  -14.1094 O   0  0  0  0  0  0  0  0  0  0  0  0
   21.2380  -21.5433  -14.0762 C   0  0  0  0  0  0  0  0  0  0  0  0
   21.6593  -20.1158  -14.4491 C   0  0  0  0  0  0  0  0  0  0  0  0
   23.1621  -19.9905  -14.4183 C   0  0  2  0  0  0  0  0  0  0  0  0
   23.7305  -20.2865  -13.1456 N   0  0  0  0  0  0  0  0  0  0  0  0
   23.4958  -18.6247  -14.9051 C   0  0  0  0  0  0  0  0  0  0  0  0
   22.9825  -17.5868  -14.4609 O   0  0  0  0  0  0  0  0  0  0  0  0
   26.7231  -16.9864  -14.8375 C   0  0  0  0  0  0  0  0  0  0  0  0
   26.3436  -16.9792  -16.3056 C   0  0  1  0  0  0  0  0  0  0  0  0
   26.9360  -18.0923  -16.8999 O   0  0  0  0  0  0  0  0  0  0  0  0
   24.8541  -17.1675  -16.3900 C   0  0  2  0  0  0  0  0  0  0  0  0
   24.4606  -18.5080  -15.9406 N   0  0  0  0  0  0  0  0  0  0  0  0
   24.4624  -17.0225  -17.8250 C   0  0  0  0  0  0  0  0  0  0  0  0
   24.6435  -15.8721  -18.5410 O   0  0  0  0  0  0  0  0  0  0  0  0
   23.9279  -18.0026  -18.4487 O   0  0  0  0  0  0  0  0  0  0  0  0
  2  1  1  0
  3  2  1  0
  4  5  1  0
  4  3  1  0
  5  7  1  0
  5  6  1  6
  7  8  2  0
 10  9  1  0
 10 12  1  0
 11 10  2  0
 13 12  1  0
 14 13  1  1
 14 15  1  0
 15  7  1  0
 16 14  1  0
 17 16  2  0
 19 18  1  1
 19 21  1  0
 20 19  1  0
 21 22  1  6
 21 23  1  0
 22 16  1  0
 23 24  1  0
 25 23  2  0
M  END
$$$$
