MQT.pdb
     RDKit          3D

 25 24  0  0  1  0  0  0  0  0999 V2000
   29.3763  -18.6426   -4.7374 C   0  0  0  0  0  0  0  0  0  0  0  0
   28.0656  -19.8536   -4.4019 S   0  0  0  0  0  0  0  0  0  0  0  0
   28.0174  -20.9691   -5.8618 C   0  0  0  0  0  0  0  0  0  0  0  0
   27.0235  -20.4415   -6.8329 C   0  0  0  0  0  0  0  0  0  0  0  0
   27.5838  -19.5891   -7.9141 C   0  0  2  0  0  0  0  0  0  0  0  0
   27.5661  -18.1677   -7.5234 N   0  0  0  0  0  0  0  0  0  0  0  0
   26.8216  -19.7836   -9.1723 C   0  0  0  0  0  0  0  0  0  0  0  0
   25.6994  -19.2518   -9.3755 O   0  0  0  0  0  0  0  0  0  0  0  0
   29.0190  -22.1200  -14.7007 N   0  0  0  0  0  0  0  0  0  0  0  0
   27.8191  -21.4438  -15.0411 C   0  0  0  0  0  0  0  0  0  0  0  0
   27.5042  -21.3182  -16.2664 O   0  0  0  0  0  0  0  0  0  0  0  0
   26.9252  -20.8797  -13.9775 C   0  0  0  0  0  0  0  0  0  0  0  0
   27.5523  -21.1657  -12.6067 C   0  0  0  0  0  0  0  0  0  0  0  0
   26.6842  -20.6044  -11.5084 C   0  0  2  0  0  0  0  0  0  0  0  0
   27.3197  -20.5911  -10.2332 N   0  0  0  0  0  0  0  0  0  0  0  0
   25.4123  -21.3762  -11.5206 C   0  0  0  0  0  0  0  0  0  0  0  0
   25.2962  -22.5266  -11.0721 O   0  0  0  0  0  0  0  0  0  0  0  0
   21.8440  -20.5187  -10.2695 C   0  0  0  0  0  0  0  0  0  0  0  0
   21.8325  -20.6706  -11.7782 C   0  0  1  0  0  0  0  0  0  0  0  0
   22.0345  -19.4069  -12.3309 O   0  0  0  0  0  0  0  0  0  0  0  0
   23.0150  -21.5184  -12.1578 C   0  0  2  0  0  0  0  0  0  0  0  0
   24.2651  -20.7537  -12.0804 N   0  0  0  0  0  0  0  0  0  0  0  0
   22.8208  -21.9536  -13.5744 C   0  0  0  0  0  0  0  0  0  0  0  0
   21.7905  -22.7555  -13.9798 O   0  0  0  0  0  0  0  0  0  0  0  0
   23.6397  -21.5771  -14.4815 O   0  0  0  0  0  0  0  0  0  0  0  0
  2  1  1  0
  3  2  1  0
  4  5  1  0
  4  3  1  0
  5  7  1  0
  5  6  1  1
  7  8  2  0
 10  9  1  0
 10 12  1  0
 11 10  2  0
 13 12  1  0
 14 13  1  6
 14 15  1  0
 15  7  1  0
 16 14  1  0
 17 16  2  0
 19 18  1  1
 19 21  1  0
 20 19  1  0
 21 22  1  6
 21 23  1  0
 22 16  1  0
 23 24  1  0
 25 23  2  0
M  END
$$$$
