LAE.pdb
     RDKit          3D

 23 22  0  0  1  0  0  0  0  0999 V2000
    9.3307  -13.2392   27.5762 C   0  0  0  0  0  0  0  0  0  0  0  0
   10.1368  -14.4296   28.1129 C   0  0  2  0  0  0  0  0  0  0  0  0
   11.4737  -13.8395   28.5624 C   0  0  0  0  0  0  0  0  0  0  0  0
   10.4017  -15.3330   26.9404 C   0  0  0  0  0  0  0  0  0  0  0  0
    9.1867  -15.9158   26.3017 C   0  0  2  0  0  0  0  0  0  0  0  0
    8.5216  -16.7354   27.3087 N   0  0  0  0  0  0  0  0  0  0  0  0
    9.4650  -16.7817   25.1329 C   0  0  0  0  0  0  0  0  0  0  0  0
    9.7933  -17.9880   25.2294 O   0  0  0  0  0  0  0  0  0  0  0  0
    9.0521  -16.3987   21.3720 C   0  0  0  0  0  0  0  0  0  0  0  0
    9.5641  -17.0656   22.6230 C   0  0  2  0  0  0  0  0  0  0  0  0
    9.3669  -16.2539   23.8030 N   0  0  0  0  0  0  0  0  0  0  0  0
   11.0475  -17.2691   22.4454 C   0  0  0  0  0  0  0  0  0  0  0  0
   11.4168  -18.0538   21.5168 O   0  0  0  0  0  0  0  0  0  0  0  0
   12.0172  -16.6340   23.2535 N   0  0  0  0  0  0  0  0  0  0  0  0
   13.4549  -16.8918   23.0508 C   0  0  1  0  0  0  0  0  0  0  0  0
   13.8621  -16.4063   21.7077 C   0  0  0  0  0  0  0  0  0  0  0  0
   14.0877  -14.9431   21.5606 C   0  0  0  0  0  0  0  0  0  0  0  0
   14.6855  -14.5735   20.2703 C   0  0  0  0  0  0  0  0  0  0  0  0
   15.2037  -15.4538   19.5461 O   0  0  0  0  0  0  0  0  0  0  0  0
   14.2279  -16.2561   24.1572 C   0  0  0  0  0  0  0  0  0  0  0  0
   15.4636  -16.4287   24.2336 O   0  0  0  0  0  0  0  0  0  0  0  0
   14.7007  -13.2601   19.8101 O   0  0  0  0  0  0  0  0  0  0  0  0
   13.5808  -15.4833   25.0875 O   0  0  0  0  0  0  0  0  0  0  0  0
  2  1  1  6
  2  3  1  0
  4  2  1  0
  5  7  1  0
  5  4  1  0
  5  6  1  1
  7 11  1  0
  7  8  2  0
 10  9  1  6
 11 10  1  0
 12 14  1  0
 12 10  1  0
 13 12  2  0
 15 20  1  0
 15 14  1  0
 15 16  1  6
 16 17  1  0
 18 17  1  0
 18 19  2  0
 20 23  1  0
 21 20  2  0
 22 18  1  0
M  END
$$$$
