LAE.pdb
     RDKit          3D

 23 22  0  0  1  0  0  0  0  0999 V2000
    7.1024  -11.7720   26.9471 C   0  0  0  0  0  0  0  0  0  0  0  0
    6.2063  -12.3256   25.8311 C   0  0  2  0  0  0  0  0  0  0  0  0
    4.8318  -11.7012   26.0727 C   0  0  0  0  0  0  0  0  0  0  0  0
    6.0892  -13.8059   26.0684 C   0  0  0  0  0  0  0  0  0  0  0  0
    7.3523  -14.5784   25.8907 C   0  0  2  0  0  0  0  0  0  0  0  0
    8.2270  -13.7834   25.0357 N   0  0  0  0  0  0  0  0  0  0  0  0
    7.1762  -15.8997   25.2451 C   0  0  0  0  0  0  0  0  0  0  0  0
    6.3681  -16.7665   25.6548 O   0  0  0  0  0  0  0  0  0  0  0  0
    7.9192  -17.4508   21.9488 C   0  0  0  0  0  0  0  0  0  0  0  0
    7.8653  -17.5430   23.4523 C   0  0  2  0  0  0  0  0  0  0  0  0
    7.9507  -16.2481   24.0895 N   0  0  0  0  0  0  0  0  0  0  0  0
    9.0579  -18.3537   23.8929 C   0  0  0  0  0  0  0  0  0  0  0  0
    9.1424  -19.5435   23.4552 O   0  0  0  0  0  0  0  0  0  0  0  0
   10.0599  -17.8502   24.7526 N   0  0  0  0  0  0  0  0  0  0  0  0
   11.1850  -18.7020   25.1807 C   0  0  1  0  0  0  0  0  0  0  0  0
   12.4677  -18.0658   24.7862 C   0  0  0  0  0  0  0  0  0  0  0  0
   12.4301  -17.1402   23.6219 C   0  0  0  0  0  0  0  0  0  0  0  0
   13.7514  -16.6123   23.2555 C   0  0  0  0  0  0  0  0  0  0  0  0
   14.2596  -15.6818   23.9215 O   0  0  0  0  0  0  0  0  0  0  0  0
   11.0849  -18.9452   26.6492 C   0  0  0  0  0  0  0  0  0  0  0  0
   11.7333  -19.8772   27.1723 O   0  0  0  0  0  0  0  0  0  0  0  0
   14.4760  -17.1127   22.1777 O   0  0  0  0  0  0  0  0  0  0  0  0
   10.2820  -18.1453   27.4218 O   0  0  0  0  0  0  0  0  0  0  0  0
  2  1  1  1
  2  3  1  0
  4  2  1  0
  5  7  1  0
  5  4  1  0
  5  6  1  6
  7 11  1  0
  7  8  2  0
 10  9  1  6
 11 10  1  0
 12 14  1  0
 12 10  1  0
 13 12  2  0
 15 20  1  0
 15 14  1  0
 15 16  1  1
 16 17  1  0
 18 17  1  0
 18 19  2  0
 20 23  1  0
 21 20  2  0
 22 18  1  0
M  END
$$$$
