LAE.pdb
     RDKit          3D

 23 22  0  0  1  0  0  0  0  0999 V2000
    8.9408  -13.9123   18.9396 C   0  0  0  0  0  0  0  0  0  0  0  0
    7.6194  -13.3418   19.4719 C   0  0  2  0  0  0  0  0  0  0  0  0
    7.7463  -11.8258   19.3202 C   0  0  0  0  0  0  0  0  0  0  0  0
    7.5763  -13.6568   20.9417 C   0  0  0  0  0  0  0  0  0  0  0  0
    7.4317  -15.1028   21.2764 C   0  0  2  0  0  0  0  0  0  0  0  0
    6.1944  -15.5665   20.6582 N   0  0  0  0  0  0  0  0  0  0  0  0
    7.3420  -15.3896   22.7266 C   0  0  0  0  0  0  0  0  0  0  0  0
    6.8078  -14.6121   23.5527 O   0  0  0  0  0  0  0  0  0  0  0  0
    6.6138  -17.7649   25.0126 C   0  0  0  0  0  0  0  0  0  0  0  0
    7.8264  -16.9408   24.6627 C   0  0  2  0  0  0  0  0  0  0  0  0
    7.8820  -16.6076   23.2570 N   0  0  0  0  0  0  0  0  0  0  0  0
    9.0408  -17.7730   24.9882 C   0  0  0  0  0  0  0  0  0  0  0  0
    9.1417  -18.9001   24.4103 O   0  0  0  0  0  0  0  0  0  0  0  0
   10.0456  -17.3549   25.8893 N   0  0  0  0  0  0  0  0  0  0  0  0
   11.2116  -18.2127   26.1708 C   0  0  1  0  0  0  0  0  0  0  0  0
   12.4491  -17.5377   25.7033 C   0  0  0  0  0  0  0  0  0  0  0  0
   12.4072  -16.9149   24.3528 C   0  0  0  0  0  0  0  0  0  0  0  0
   13.6996  -16.3598   23.9278 C   0  0  0  0  0  0  0  0  0  0  0  0
   14.3836  -15.6834   24.7293 O   0  0  0  0  0  0  0  0  0  0  0  0
   11.2417  -18.5372   27.6267 C   0  0  0  0  0  0  0  0  0  0  0  0
   12.1057  -19.3228   28.0725 O   0  0  0  0  0  0  0  0  0  0  0  0
   14.2052  -16.5578   22.6463 O   0  0  0  0  0  0  0  0  0  0  0  0
   10.3213  -17.9723   28.4724 O   0  0  0  0  0  0  0  0  0  0  0  0
  2  1  1  1
  2  3  1  0
  4  2  1  0
  5  7  1  0
  5  4  1  0
  5  6  1  6
  7 11  1  0
  7  8  2  0
 10  9  1  6
 11 10  1  0
 12 14  1  0
 12 10  1  0
 13 12  2  0
 15 20  1  0
 15 14  1  0
 15 16  1  1
 16 17  1  0
 18 17  1  0
 18 19  2  0
 20 23  1  0
 21 20  2  0
 22 18  1  0
M  END
$$$$
