LAE.pdb
     RDKit          3D

 23 22  0  0  1  0  0  0  0  0999 V2000
    9.4507  -13.2855   18.7671 C   0  0  0  0  0  0  0  0  0  0  0  0
    8.0148  -13.5594   19.2339 C   0  0  2  0  0  0  0  0  0  0  0  0
    7.2954  -12.2143   19.1310 C   0  0  0  0  0  0  0  0  0  0  0  0
    8.0989  -13.9279   20.6894 C   0  0  0  0  0  0  0  0  0  0  0  0
    8.8394  -15.1886   20.9827 C   0  0  2  0  0  0  0  0  0  0  0  0
    8.1169  -16.2746   20.3293 N   0  0  0  0  0  0  0  0  0  0  0  0
    8.9381  -15.5199   22.4227 C   0  0  0  0  0  0  0  0  0  0  0  0
    9.5185  -14.7902   23.2612 O   0  0  0  0  0  0  0  0  0  0  0  0
    7.4507  -18.1556   24.7100 C   0  0  0  0  0  0  0  0  0  0  0  0
    8.4983  -17.1513   24.3028 C   0  0  2  0  0  0  0  0  0  0  0  0
    8.3548  -16.7288   22.9277 N   0  0  0  0  0  0  0  0  0  0  0  0
    9.8402  -17.8249   24.4411 C   0  0  0  0  0  0  0  0  0  0  0  0
   10.1681  -18.6529   23.5348 O   0  0  0  0  0  0  0  0  0  0  0  0
   10.7240  -17.5743   25.5146 N   0  0  0  0  0  0  0  0  0  0  0  0
   12.0767  -18.1613   25.5316 C   0  0  1  0  0  0  0  0  0  0  0  0
   13.0583  -17.1611   25.0403 C   0  0  0  0  0  0  0  0  0  0  0  0
   13.3165  -17.1344   23.5753 C   0  0  0  0  0  0  0  0  0  0  0  0
   14.3085  -16.1261   23.1777 C   0  0  0  0  0  0  0  0  0  0  0  0
   14.9839  -15.5351   24.0508 O   0  0  0  0  0  0  0  0  0  0  0  0
   12.3829  -18.6480   26.9082 C   0  0  0  0  0  0  0  0  0  0  0  0
   11.6446  -18.3228   27.8630 O   0  0  0  0  0  0  0  0  0  0  0  0
   14.5331  -15.7933   21.8451 O   0  0  0  0  0  0  0  0  0  0  0  0
   13.4737  -19.4516   27.1227 O   0  0  0  0  0  0  0  0  0  0  0  0
  2  1  1  1
  2  3  1  0
  4  2  1  0
  5  7  1  0
  5  4  1  0
  5  6  1  6
  7 11  1  0
  7  8  2  0
 10  9  1  6
 11 10  1  0
 12 14  1  0
 12 10  1  0
 13 12  2  0
 15 20  1  0
 15 14  1  0
 15 16  1  1
 16 17  1  0
 18 17  1  0
 18 19  2  0
 20 23  1  0
 21 20  2  0
 22 18  1  0
M  END
$$$$
