LAE.pdb
     RDKit          3D

 23 22  0  0  1  0  0  0  0  0999 V2000
    5.5614  -11.8552   25.6545 C   0  0  0  0  0  0  0  0  0  0  0  0
    6.2473  -12.7327   26.7101 C   0  0  2  0  0  0  0  0  0  0  0  0
    7.1159  -11.7749   27.5259 C   0  0  0  0  0  0  0  0  0  0  0  0
    7.1623  -13.6651   25.9653 C   0  0  0  0  0  0  0  0  0  0  0  0
    6.4798  -14.6383   25.0648 C   0  0  2  0  0  0  0  0  0  0  0  0
    5.7475  -15.5711   25.9144 N   0  0  0  0  0  0  0  0  0  0  0  0
    7.3962  -15.4327   24.2148 C   0  0  0  0  0  0  0  0  0  0  0  0
    7.9540  -16.4880   24.5988 O   0  0  0  0  0  0  0  0  0  0  0  0
    8.7905  -15.0439   20.6817 C   0  0  0  0  0  0  0  0  0  0  0  0
    8.5844  -15.7365   22.0044 C   0  0  2  0  0  0  0  0  0  0  0  0
    7.6901  -15.0088   22.8766 N   0  0  0  0  0  0  0  0  0  0  0  0
    9.9290  -15.8135   22.6823 C   0  0  0  0  0  0  0  0  0  0  0  0
   10.4220  -14.7254   23.1151 O   0  0  0  0  0  0  0  0  0  0  0  0
   10.6421  -17.0218   22.8501 N   0  0  0  0  0  0  0  0  0  0  0  0
   11.8266  -17.0839   23.7263 C   0  0  1  0  0  0  0  0  0  0  0  0
   11.5260  -17.9311   24.9084 C   0  0  0  0  0  0  0  0  0  0  0  0
   12.6357  -18.1596   25.8727 C   0  0  0  0  0  0  0  0  0  0  0  0
   12.2469  -18.9895   27.0212 C   0  0  0  0  0  0  0  0  0  0  0  0
   13.0480  -19.1620   27.9678 O   0  0  0  0  0  0  0  0  0  0  0  0
   12.9936  -17.5781   22.9392 C   0  0  0  0  0  0  0  0  0  0  0  0
   14.1559  -17.3611   23.3448 O   0  0  0  0  0  0  0  0  0  0  0  0
   11.0010  -19.6044   27.1025 O   0  0  0  0  0  0  0  0  0  0  0  0
   12.7882  -18.2697   21.7727 O   0  0  0  0  0  0  0  0  0  0  0  0
  2  1  1  6
  2  3  1  0
  4  2  1  0
  5  7  1  0
  5  4  1  0
  5  6  1  1
  7 11  1  0
  7  8  2  0
 10  9  1  6
 11 10  1  0
 12 14  1  0
 12 10  1  0
 13 12  2  0
 15 20  1  0
 15 14  1  0
 15 16  1  1
 16 17  1  0
 18 17  1  0
 18 19  2  0
 20 23  1  0
 21 20  2  0
 22 18  1  0
M  END
$$$$
