LAE.pdb
     RDKit          3D

 23 22  0  0  1  0  0  0  0  0999 V2000
    5.7591  -12.0757   25.0968 C   0  0  0  0  0  0  0  0  0  0  0  0
    6.2878  -12.7064   26.3920 C   0  0  2  0  0  0  0  0  0  0  0  0
    7.0647  -11.5921   27.0935 C   0  0  0  0  0  0  0  0  0  0  0  0
    7.2711  -13.7681   25.9830 C   0  0  0  0  0  0  0  0  0  0  0  0
    6.6968  -14.8924   25.1894 C   0  0  2  0  0  0  0  0  0  0  0  0
    5.9395  -15.7294   26.1136 N   0  0  0  0  0  0  0  0  0  0  0  0
    7.7049  -15.7536   24.5296 C   0  0  0  0  0  0  0  0  0  0  0  0
    8.3749  -16.6224   25.1368 O   0  0  0  0  0  0  0  0  0  0  0  0
    8.9709  -16.1378   20.9473 C   0  0  0  0  0  0  0  0  0  0  0  0
    8.8909  -16.4698   22.4154 C   0  0  2  0  0  0  0  0  0  0  0  0
    7.9612  -15.6200   23.1250 N   0  0  0  0  0  0  0  0  0  0  0  0
   10.2622  -16.2428   22.9997 C   0  0  0  0  0  0  0  0  0  0  0  0
   10.6645  -15.0404   23.0816 O   0  0  0  0  0  0  0  0  0  0  0  0
   11.0945  -17.2926   23.4490 N   0  0  0  0  0  0  0  0  0  0  0  0
   12.3735  -17.0054   24.1247 C   0  0  1  0  0  0  0  0  0  0  0  0
   12.6076  -18.0107   25.1924 C   0  0  0  0  0  0  0  0  0  0  0  0
   11.5393  -18.1671   26.2160 C   0  0  0  0  0  0  0  0  0  0  0  0
   11.8407  -19.1978   27.2189 C   0  0  0  0  0  0  0  0  0  0  0  0
   12.8581  -19.9163   27.0907 O   0  0  0  0  0  0  0  0  0  0  0  0
   13.4669  -16.9700   23.1104 C   0  0  0  0  0  0  0  0  0  0  0  0
   13.2695  -17.4290   21.9646 O   0  0  0  0  0  0  0  0  0  0  0  0
   11.0267  -19.4135   28.3269 O   0  0  0  0  0  0  0  0  0  0  0  0
   14.6862  -16.4334   23.4376 O   0  0  0  0  0  0  0  0  0  0  0  0
  2  1  1  6
  2  3  1  0
  4  2  1  0
  5  7  1  0
  5  4  1  0
  5  6  1  1
  7 11  1  0
  7  8  2  0
 10  9  1  6
 11 10  1  0
 12 14  1  0
 12 10  1  0
 13 12  2  0
 15 20  1  0
 15 14  1  0
 15 16  1  1
 16 17  1  0
 18 17  1  0
 18 19  2  0
 20 23  1  0
 21 20  2  0
 22 18  1  0
M  END
$$$$
