LAE.pdb
     RDKit          3D

 23 22  0  0  1  0  0  0  0  0999 V2000
    6.7758  -11.8001   26.0101 C   0  0  0  0  0  0  0  0  0  0  0  0
    7.2452  -12.9145   26.9548 C   0  0  2  0  0  0  0  0  0  0  0  0
    8.4533  -12.3347   27.6909 C   0  0  0  0  0  0  0  0  0  0  0  0
    7.7314  -14.0399   26.0840 C   0  0  0  0  0  0  0  0  0  0  0  0
    6.6740  -14.7306   25.2913 C   0  0  2  0  0  0  0  0  0  0  0  0
    5.5965  -15.0705   26.2141 N   0  0  0  0  0  0  0  0  0  0  0  0
    7.1178  -15.9849   24.6406 C   0  0  0  0  0  0  0  0  0  0  0  0
    6.9522  -17.1208   25.1450 O   0  0  0  0  0  0  0  0  0  0  0  0
    8.3730  -16.8493   21.1639 C   0  0  0  0  0  0  0  0  0  0  0  0
    8.1061  -17.1368   22.6192 C   0  0  2  0  0  0  0  0  0  0  0  0
    7.7765  -15.9444   23.3674 N   0  0  0  0  0  0  0  0  0  0  0  0
    9.3733  -17.7108   23.2006 C   0  0  0  0  0  0  0  0  0  0  0  0
    9.7517  -18.8412   22.7606 O   0  0  0  0  0  0  0  0  0  0  0  0
   10.1364  -17.0533   24.1916 N   0  0  0  0  0  0  0  0  0  0  0  0
   11.2967  -17.7167   24.8147 C   0  0  1  0  0  0  0  0  0  0  0  0
   12.5445  -17.2631   24.1493 C   0  0  0  0  0  0  0  0  0  0  0  0
   12.7028  -15.7983   23.9418 C   0  0  0  0  0  0  0  0  0  0  0  0
   13.9609  -15.4380   23.2738 C   0  0  0  0  0  0  0  0  0  0  0  0
   14.3363  -16.0738   22.2626 O   0  0  0  0  0  0  0  0  0  0  0  0
   11.2884  -17.4438   26.2814 C   0  0  0  0  0  0  0  0  0  0  0  0
   12.0736  -18.0595   27.0344 O   0  0  0  0  0  0  0  0  0  0  0  0
   14.7690  -14.3995   23.7269 O   0  0  0  0  0  0  0  0  0  0  0  0
   10.4195  -16.5178   26.7999 O   0  0  0  0  0  0  0  0  0  0  0  0
  2  1  1  6
  2  3  1  0
  4  2  1  0
  5  7  1  0
  5  4  1  0
  5  6  1  1
  7 11  1  0
  7  8  2  0
 10  9  1  6
 11 10  1  0
 12 14  1  0
 12 10  1  0
 13 12  2  0
 15 20  1  0
 15 14  1  0
 15 16  1  6
 16 17  1  0
 18 17  1  0
 18 19  2  0
 20 23  1  0
 21 20  2  0
 22 18  1  0
M  END
$$$$
