LAE.pdb
     RDKit          3D

 23 22  0  0  1  0  0  0  0  0999 V2000
    9.0770  -12.5385   19.5144 C   0  0  0  0  0  0  0  0  0  0  0  0
    7.7131  -13.2359   19.6045 C   0  0  2  0  0  0  0  0  0  0  0  0
    6.6885  -12.1638   19.2324 C   0  0  0  0  0  0  0  0  0  0  0  0
    7.5061  -13.5902   21.0511 C   0  0  0  0  0  0  0  0  0  0  0  0
    8.4629  -14.5929   21.6016 C   0  0  2  0  0  0  0  0  0  0  0  0
    8.4419  -15.7449   20.7068 N   0  0  0  0  0  0  0  0  0  0  0  0
    8.1286  -15.0762   22.9610 C   0  0  0  0  0  0  0  0  0  0  0  0
    7.9240  -14.3130   23.9346 O   0  0  0  0  0  0  0  0  0  0  0  0
    6.3816  -17.7450   24.5405 C   0  0  0  0  0  0  0  0  0  0  0  0
    7.6992  -17.0131   24.5274 C   0  0  2  0  0  0  0  0  0  0  0  0
    8.0243  -16.4824   23.2225 N   0  0  0  0  0  0  0  0  0  0  0  0
    8.7674  -18.0101   24.8995 C   0  0  0  0  0  0  0  0  0  0  0  0
    9.0080  -18.9385   24.0660 O   0  0  0  0  0  0  0  0  0  0  0  0
    9.4926  -17.9502   26.1106 N   0  0  0  0  0  0  0  0  0  0  0  0
   10.6552  -18.8283   26.3386 C   0  0  1  0  0  0  0  0  0  0  0  0
   11.7217  -18.5052   25.3569 C   0  0  0  0  0  0  0  0  0  0  0  0
   12.6113  -17.3579   25.6822 C   0  0  0  0  0  0  0  0  0  0  0  0
   13.3970  -16.8870   24.5334 C   0  0  0  0  0  0  0  0  0  0  0  0
   14.6465  -16.9632   24.5570 O   0  0  0  0  0  0  0  0  0  0  0  0
   11.1063  -18.6873   27.7536 C   0  0  0  0  0  0  0  0  0  0  0  0
   12.0229  -19.4161   28.1913 O   0  0  0  0  0  0  0  0  0  0  0  0
   12.7989  -16.3487   23.3978 O   0  0  0  0  0  0  0  0  0  0  0  0
   10.5146  -17.7581   28.5708 O   0  0  0  0  0  0  0  0  0  0  0  0
  2  1  1  1
  2  3  1  0
  4  2  1  0
  5  7  1  0
  5  4  1  0
  5  6  1  6
  7 11  1  0
  7  8  2  0
 10  9  1  6
 11 10  1  0
 12 14  1  0
 12 10  1  0
 13 12  2  0
 15 20  1  0
 15 14  1  0
 15 16  1  6
 16 17  1  0
 18 17  1  0
 18 19  2  0
 20 23  1  0
 21 20  2  0
 22 18  1  0
M  END
$$$$
