LAE.pdb
     RDKit          3D

 23 22  0  0  1  0  0  0  0  0999 V2000
    6.3754  -11.8356   25.5641 C   0  0  0  0  0  0  0  0  0  0  0  0
    6.5940  -12.7994   26.7380 C   0  0  2  0  0  0  0  0  0  0  0  0
    7.5014  -12.0470   27.7118 C   0  0  0  0  0  0  0  0  0  0  0  0
    7.3679  -13.9690   26.1956 C   0  0  0  0  0  0  0  0  0  0  0  0
    6.6542  -14.7797   25.1674 C   0  0  2  0  0  0  0  0  0  0  0  0
    5.6652  -15.5910   25.8687 N   0  0  0  0  0  0  0  0  0  0  0  0
    7.5250  -15.7000   24.4006 C   0  0  0  0  0  0  0  0  0  0  0  0
    7.9958  -16.7611   24.8746 O   0  0  0  0  0  0  0  0  0  0  0  0
    8.9495  -15.7221   20.8582 C   0  0  0  0  0  0  0  0  0  0  0  0
    8.8126  -16.1958   22.2825 C   0  0  2  0  0  0  0  0  0  0  0  0
    7.8744  -15.4003   23.0423 N   0  0  0  0  0  0  0  0  0  0  0  0
   10.1666  -16.0573   22.9312 C   0  0  0  0  0  0  0  0  0  0  0  0
   10.5522  -14.8817   23.2205 O   0  0  0  0  0  0  0  0  0  0  0  0
   11.0007  -17.1600   23.2223 N   0  0  0  0  0  0  0  0  0  0  0  0
   12.3116  -16.9650   23.8689 C   0  0  1  0  0  0  0  0  0  0  0  0
   12.4723  -17.9466   24.9717 C   0  0  0  0  0  0  0  0  0  0  0  0
   11.4407  -17.9299   26.0437 C   0  0  0  0  0  0  0  0  0  0  0  0
   11.6034  -19.0117   27.0246 C   0  0  0  0  0  0  0  0  0  0  0  0
   10.8296  -19.0875   28.0060 O   0  0  0  0  0  0  0  0  0  0  0  0
   13.3864  -17.0671   22.8393 C   0  0  0  0  0  0  0  0  0  0  0  0
   13.1406  -17.5910   21.7314 O   0  0  0  0  0  0  0  0  0  0  0  0
   12.6015  -19.9745   26.9065 O   0  0  0  0  0  0  0  0  0  0  0  0
   14.6417  -16.5852   23.1109 O   0  0  0  0  0  0  0  0  0  0  0  0
  2  1  1  6
  2  3  1  0
  4  2  1  0
  5  7  1  0
  5  4  1  0
  5  6  1  1
  7 11  1  0
  7  8  2  0
 10  9  1  6
 11 10  1  0
 12 14  1  0
 12 10  1  0
 13 12  2  0
 15 20  1  0
 15 14  1  0
 15 16  1  1
 16 17  1  0
 18 17  1  0
 18 19  2  0
 20 23  1  0
 21 20  2  0
 22 18  1  0
M  END
$$$$
