LAE.pdb
     RDKit          3D

 23 22  0  0  1  0  0  0  0  0999 V2000
    7.9735  -11.6948   26.3993 C   0  0  0  0  0  0  0  0  0  0  0  0
    6.7033  -12.0379   25.6097 C   0  0  2  0  0  0  0  0  0  0  0  0
    5.5674  -11.3299   26.3485 C   0  0  0  0  0  0  0  0  0  0  0  0
    6.4947  -13.5202   25.7538 C   0  0  0  0  0  0  0  0  0  0  0  0
    7.6193  -14.3692   25.2659 C   0  0  2  0  0  0  0  0  0  0  0  0
    7.8165  -14.0542   23.8552 N   0  0  0  0  0  0  0  0  0  0  0  0
    7.3758  -15.8264   25.3690 C   0  0  0  0  0  0  0  0  0  0  0  0
    7.0582  -16.3997   26.4380 O   0  0  0  0  0  0  0  0  0  0  0  0
    6.9331  -18.6648   22.9062 C   0  0  0  0  0  0  0  0  0  0  0  0
    7.2917  -18.0934   24.2540 C   0  0  2  0  0  0  0  0  0  0  0  0
    7.4997  -16.6633   24.2111 N   0  0  0  0  0  0  0  0  0  0  0  0
    8.5874  -18.7356   24.6809 C   0  0  0  0  0  0  0  0  0  0  0  0
    8.5840  -19.9965   24.8380 O   0  0  0  0  0  0  0  0  0  0  0  0
    9.7753  -18.0044   24.9060 N   0  0  0  0  0  0  0  0  0  0  0  0
   11.0140  -18.6867   25.3239 C   0  0  1  0  0  0  0  0  0  0  0  0
   12.1615  -18.1526   24.5469 C   0  0  0  0  0  0  0  0  0  0  0  0
   12.4451  -16.6980   24.6787 C   0  0  0  0  0  0  0  0  0  0  0  0
   13.6602  -16.2756   23.9687 C   0  0  0  0  0  0  0  0  0  0  0  0
   14.6641  -17.0235   23.9479 O   0  0  0  0  0  0  0  0  0  0  0  0
   11.1871  -18.5300   26.7974 C   0  0  0  0  0  0  0  0  0  0  0  0
   11.9909  -19.2639   27.4121 O   0  0  0  0  0  0  0  0  0  0  0  0
   13.7439  -15.0548   23.3057 O   0  0  0  0  0  0  0  0  0  0  0  0
   10.4642  -17.5807   27.4739 O   0  0  0  0  0  0  0  0  0  0  0  0
  2  1  1  1
  2  3  1  0
  4  2  1  0
  5  7  1  0
  5  4  1  0
  5  6  1  6
  7 11  1  0
  7  8  2  0
 10  9  1  6
 11 10  1  0
 12 14  1  0
 12 10  1  0
 13 12  2  0
 15 20  1  0
 15 14  1  0
 15 16  1  6
 16 17  1  0
 18 17  1  0
 18 19  2  0
 20 23  1  0
 21 20  2  0
 22 18  1  0
M  END
$$$$
