LAE.pdb
     RDKit          3D

 23 22  0  0  1  0  0  0  0  0999 V2000
    7.7283  -11.8667   27.2669 C   0  0  0  0  0  0  0  0  0  0  0  0
    7.2821  -12.5898   25.9891 C   0  0  2  0  0  0  0  0  0  0  0  0
    6.4576  -11.5623   25.2131 C   0  0  0  0  0  0  0  0  0  0  0  0
    6.3565  -13.6936   26.4207 C   0  0  0  0  0  0  0  0  0  0  0  0
    5.8607  -14.5714   25.3219 C   0  0  2  0  0  0  0  0  0  0  0  0
    5.1104  -15.6573   25.9432 N   0  0  0  0  0  0  0  0  0  0  0  0
    6.9283  -15.1807   24.4960 C   0  0  0  0  0  0  0  0  0  0  0  0
    7.6753  -16.1021   24.9026 O   0  0  0  0  0  0  0  0  0  0  0  0
    8.2849  -14.5896   20.9798 C   0  0  0  0  0  0  0  0  0  0  0  0
    8.0907  -15.3632   22.2587 C   0  0  2  0  0  0  0  0  0  0  0  0
    7.1552  -14.7229   23.1560 N   0  0  0  0  0  0  0  0  0  0  0  0
    9.4283  -15.4226   22.9520 C   0  0  0  0  0  0  0  0  0  0  0  0
    9.9014  -14.3284   23.3915 O   0  0  0  0  0  0  0  0  0  0  0  0
   10.1558  -16.6213   23.1268 N   0  0  0  0  0  0  0  0  0  0  0  0
   11.4160  -16.6346   23.8925 C   0  0  1  0  0  0  0  0  0  0  0  0
   11.3353  -17.6598   24.9639 C   0  0  0  0  0  0  0  0  0  0  0  0
   12.5675  -17.8966   25.7635 C   0  0  0  0  0  0  0  0  0  0  0  0
   12.4176  -18.9655   26.7604 C   0  0  0  0  0  0  0  0  0  0  0  0
   11.3276  -19.5723   26.8675 O   0  0  0  0  0  0  0  0  0  0  0  0
   12.5560  -16.8607   22.9570 C   0  0  0  0  0  0  0  0  0  0  0  0
   12.3489  -17.3660   21.8326 O   0  0  0  0  0  0  0  0  0  0  0  0
   13.4567  -19.3390   27.6076 O   0  0  0  0  0  0  0  0  0  0  0  0
   13.8285  -16.5130   23.3329 O   0  0  0  0  0  0  0  0  0  0  0  0
  2  1  1  1
  2  3  1  0
  4  2  1  0
  5  7  1  0
  5  4  1  0
  5  6  1  1
  7 11  1  0
  7  8  2  0
 10  9  1  6
 11 10  1  0
 12 14  1  0
 12 10  1  0
 13 12  2  0
 15 20  1  0
 15 14  1  0
 15 16  1  1
 16 17  1  0
 18 17  1  0
 18 19  2  0
 20 23  1  0
 21 20  2  0
 22 18  1  0
M  END
$$$$
