LAE.pdb
     RDKit          3D

 23 22  0  0  1  0  0  0  0  0999 V2000
    7.3090  -11.5982   27.3795 C   0  0  0  0  0  0  0  0  0  0  0  0
    6.7368  -11.8418   25.9767 C   0  0  2  0  0  0  0  0  0  0  0  0
    5.4799  -10.9748   25.8994 C   0  0  0  0  0  0  0  0  0  0  0  0
    6.3076  -13.2823   25.9316 C   0  0  0  0  0  0  0  0  0  0  0  0
    7.4191  -14.2729   25.8478 C   0  0  2  0  0  0  0  0  0  0  0  0
    8.6644  -13.5173   25.7665 N   0  0  0  0  0  0  0  0  0  0  0  0
    7.3581  -15.1631   24.6658 C   0  0  0  0  0  0  0  0  0  0  0  0
    6.4646  -16.0264   24.4966 O   0  0  0  0  0  0  0  0  0  0  0  0
    8.6974  -15.2703   21.2146 C   0  0  0  0  0  0  0  0  0  0  0  0
    8.4061  -15.9762   22.5140 C   0  0  2  0  0  0  0  0  0  0  0  0
    8.3531  -15.0678   23.6374 N   0  0  0  0  0  0  0  0  0  0  0  0
    9.5343  -16.9464   22.7578 C   0  0  0  0  0  0  0  0  0  0  0  0
    9.7401  -17.8299   21.8682 O   0  0  0  0  0  0  0  0  0  0  0  0
   10.3506  -16.9088   23.9105 N   0  0  0  0  0  0  0  0  0  0  0  0
   11.4708  -17.8540   24.0733 C   0  0  1  0  0  0  0  0  0  0  0  0
   12.7575  -17.1153   24.0078 C   0  0  0  0  0  0  0  0  0  0  0  0
   13.0419  -16.3684   22.7529 C   0  0  0  0  0  0  0  0  0  0  0  0
   14.3267  -15.6560   22.7784 C   0  0  0  0  0  0  0  0  0  0  0  0
   14.7572  -15.1812   23.8540 O   0  0  0  0  0  0  0  0  0  0  0  0
   11.2968  -18.6053   25.3504 C   0  0  0  0  0  0  0  0  0  0  0  0
   10.4348  -18.2375   26.1776 O   0  0  0  0  0  0  0  0  0  0  0  0
   15.1005  -15.4831   21.6345 O   0  0  0  0  0  0  0  0  0  0  0  0
   12.0829  -19.6982   25.6135 O   0  0  0  0  0  0  0  0  0  0  0  0
  2  1  1  1
  2  3  1  0
  4  2  1  0
  5  7  1  0
  5  4  1  0
  5  6  1  6
  7 11  1  0
  7  8  2  0
 10  9  1  6
 11 10  1  0
 12 14  1  0
 12 10  1  0
 13 12  2  0
 15 20  1  0
 15 14  1  0
 15 16  1  1
 16 17  1  0
 18 17  1  0
 18 19  2  0
 20 23  1  0
 21 20  2  0
 22 18  1  0
M  END
$$$$
