VFG.pdb
     RDKit          3D

 23 23  0  0  1  0  0  0  0  0999 V2000
    7.2811  -14.5591   18.5649 C   0  0  0  0  0  0  0  0  0  0  0  0
    8.0721  -14.8929   19.8320 C   0  0  2  0  0  0  0  0  0  0  0  0
    7.6343  -16.2577   20.2949 C   0  0  0  0  0  0  0  0  0  0  0  0
    7.7309  -13.8142   20.8368 C   0  0  2  0  0  0  0  0  0  0  0  0
    8.0286  -12.5355   20.2097 N   0  0  0  0  0  0  0  0  0  0  0  0
    8.4787  -13.9680   22.1042 C   0  0  0  0  0  0  0  0  0  0  0  0
    9.6037  -13.4523   22.2240 O   0  0  0  0  0  0  0  0  0  0  0  0
    7.9196  -14.6878   23.1533 N   0  0  0  0  0  0  0  0  0  0  0  0
    8.5768  -14.9572   24.4228 C   0  0  1  0  0  0  0  0  0  0  0  0
    7.5223  -14.9397   25.4710 C   0  0  0  0  0  0  0  0  0  0  0  0
    7.2414  -13.5734   25.9850 C   0  0  0  0  0  0  0  0  0  0  0  0
    8.2090  -12.6450   26.2732 C   0  0  0  0  0  0  0  0  0  0  0  0
    7.8938  -11.3889   26.7486 C   0  0  0  0  0  0  0  0  0  0  0  0
    6.5816  -11.0188   26.9527 C   0  0  0  0  0  0  0  0  0  0  0  0
    5.5922  -11.9254   26.6737 C   0  0  0  0  0  0  0  0  0  0  0  0
    5.9210  -13.1634   26.2042 C   0  0  0  0  0  0  0  0  0  0  0  0
    9.4452  -16.1199   24.3880 C   0  0  0  0  0  0  0  0  0  0  0  0
    9.9956  -16.5106   25.4520 O   0  0  0  0  0  0  0  0  0  0  0  0
    9.7365  -16.8793   23.2191 N   0  0  0  0  0  0  0  0  0  0  0  0
   10.4780  -18.1088   23.2628 C   0  0  0  0  0  0  0  0  0  0  0  0
   11.9251  -17.8410   23.4143 C   0  0  0  0  0  0  0  0  0  0  0  0
   12.8397  -18.8838   23.4006 O   0  0  0  0  0  0  0  0  0  0  0  0
   12.3711  -16.6745   23.5588 O   0  0  0  0  0  0  0  0  0  0  0  0
  2  1  1  6
  2  3  1  0
  4  6  1  0
  4  2  1  0
  4  5  1  6
  6  7  2  0
  8  6  1  0
  8  9  1  0
  9 17  1  0
 10 11  1  0
  9 10  1  1
 11 16  2  0
 11 12  1  0
 12 13  2  0
 13 14  1  0
 15 14  2  0
 16 15  1  0
 17 18  2  0
 17 19  1  0
 19 20  1  0
 20 21  1  0
 21 22  1  0
 23 21  2  0
M  END
$$$$
