VFG.pdb
     RDKit          3D

 23 23  0  0  1  0  0  0  0  0999 V2000
    8.8346  -19.4672   20.1581 C   0  0  0  0  0  0  0  0  0  0  0  0
    9.0934  -18.6432   21.4216 C   0  0  2  0  0  0  0  0  0  0  0  0
    8.0000  -18.9649   22.4062 C   0  0  0  0  0  0  0  0  0  0  0  0
    9.0634  -17.1929   20.9910 C   0  0  2  0  0  0  0  0  0  0  0  0
   10.1064  -17.0216   19.9910 N   0  0  0  0  0  0  0  0  0  0  0  0
    9.2616  -16.2641   22.1256 C   0  0  0  0  0  0  0  0  0  0  0  0
   10.4056  -16.0694   22.5719 O   0  0  0  0  0  0  0  0  0  0  0  0
    8.1681  -15.6148   22.6860 N   0  0  0  0  0  0  0  0  0  0  0  0
    8.2008  -14.8358   23.9140 C   0  0  1  0  0  0  0  0  0  0  0  0
    7.0888  -13.8517   23.8348 C   0  0  0  0  0  0  0  0  0  0  0  0
    6.9295  -13.0585   25.0819 C   0  0  0  0  0  0  0  0  0  0  0  0
    5.9809  -13.3115   26.0397 C   0  0  0  0  0  0  0  0  0  0  0  0
    5.8758  -12.5435   27.1808 C   0  0  0  0  0  0  0  0  0  0  0  0
    6.7295  -11.4836   27.4009 C   0  0  0  0  0  0  0  0  0  0  0  0
    7.6881  -11.2061   26.4614 C   0  0  0  0  0  0  0  0  0  0  0  0
    7.7785  -11.9754   25.3384 C   0  0  0  0  0  0  0  0  0  0  0  0
    8.2684  -15.6511   25.1132 C   0  0  0  0  0  0  0  0  0  0  0  0
    8.6791  -15.1356   26.1871 O   0  0  0  0  0  0  0  0  0  0  0  0
    7.8991  -17.0247   25.1812 N   0  0  0  0  0  0  0  0  0  0  0  0
    7.8406  -17.7473   26.4214 C   0  0  0  0  0  0  0  0  0  0  0  0
    9.1698  -18.2955   26.7698 C   0  0  0  0  0  0  0  0  0  0  0  0
    9.3315  -19.0882   27.8966 O   0  0  0  0  0  0  0  0  0  0  0  0
   10.1861  -18.0653   26.0665 O   0  0  0  0  0  0  0  0  0  0  0  0
  2  1  1  6
  2  3  1  0
  4  6  1  0
  4  2  1  0
  4  5  1  6
  6  7  2  0
  8  6  1  0
  8  9  1  0
  9 17  1  0
 10 11  1  0
  9 10  1  1
 11 16  2  0
 11 12  1  0
 12 13  2  0
 13 14  1  0
 15 14  2  0
 16 15  1  0
 17 18  2  0
 17 19  1  0
 19 20  1  0
 20 21  1  0
 21 22  1  0
 23 21  2  0
M  END
$$$$
