VFG.pdb
     RDKit          3D

 23 23  0  0  1  0  0  0  0  0999 V2000
    7.3859  -12.6329   21.4963 C   0  0  0  0  0  0  0  0  0  0  0  0
    8.3467  -13.2891   20.5019 C   0  0  2  0  0  0  0  0  0  0  0  0
    7.7030  -13.2302   19.1414 C   0  0  0  0  0  0  0  0  0  0  0  0
    8.5392  -14.7118   20.9797 C   0  0  2  0  0  0  0  0  0  0  0  0
    7.2424  -15.3675   20.9052 N   0  0  0  0  0  0  0  0  0  0  0  0
    9.0854  -14.7757   22.3534 C   0  0  0  0  0  0  0  0  0  0  0  0
   10.2005  -14.2831   22.5981 O   0  0  0  0  0  0  0  0  0  0  0  0
    8.3492  -15.3857   23.3619 N   0  0  0  0  0  0  0  0  0  0  0  0
    8.7550  -15.4685   24.7564 C   0  0  1  0  0  0  0  0  0  0  0  0
    7.5227  -15.3298   25.5771 C   0  0  0  0  0  0  0  0  0  0  0  0
    7.2037  -13.9156   25.9057 C   0  0  0  0  0  0  0  0  0  0  0  0
    5.9584  -13.3561   25.7728 C   0  0  0  0  0  0  0  0  0  0  0  0
    5.7156  -12.0364   26.0926 C   0  0  0  0  0  0  0  0  0  0  0  0
    6.7264  -11.2249   26.5619 C   0  0  0  0  0  0  0  0  0  0  0  0
    7.9819  -11.7558   26.7055 C   0  0  0  0  0  0  0  0  0  0  0  0
    8.2052  -13.0628   26.3847 C   0  0  0  0  0  0  0  0  0  0  0  0
    9.6068  -16.6084   25.0431 C   0  0  0  0  0  0  0  0  0  0  0  0
    9.9535  -16.8355   26.2330 O   0  0  0  0  0  0  0  0  0  0  0  0
   10.0985  -17.5190   24.0649 N   0  0  0  0  0  0  0  0  0  0  0  0
   10.7805  -18.7338   24.4155 C   0  0  0  0  0  0  0  0  0  0  0  0
   12.2424  -18.5787   24.2495 C   0  0  0  0  0  0  0  0  0  0  0  0
   13.0597  -19.6931   24.1293 O   0  0  0  0  0  0  0  0  0  0  0  0
   12.7882  -17.4469   24.2119 O   0  0  0  0  0  0  0  0  0  0  0  0
  2  1  1  1
  2  3  1  0
  4  6  1  0
  4  2  1  0
  4  5  1  1
  6  7  2  0
  8  6  1  0
  8  9  1  0
  9 17  1  0
 10 11  1  0
  9 10  1  1
 11 16  2  0
 11 12  1  0
 12 13  2  0
 13 14  1  0
 15 14  2  0
 16 15  1  0
 17 18  2  0
 17 19  1  0
 19 20  1  0
 20 21  1  0
 21 22  1  0
 23 21  2  0
M  END
$$$$
