VFG.pdb
     RDKit          3D

 23 23  0  0  1  0  0  0  0  0999 V2000
    7.2064  -12.7645   21.3122 C   0  0  0  0  0  0  0  0  0  0  0  0
    8.2385  -13.3495   20.3452 C   0  0  2  0  0  0  0  0  0  0  0  0
    7.6279  -13.3405   18.9684 C   0  0  0  0  0  0  0  0  0  0  0  0
    8.5230  -14.7534   20.8330 C   0  0  2  0  0  0  0  0  0  0  0  0
    7.2724  -15.4935   20.7597 N   0  0  0  0  0  0  0  0  0  0  0  0
    9.0684  -14.7723   22.2082 C   0  0  0  0  0  0  0  0  0  0  0  0
   10.1611  -14.2292   22.4468 O   0  0  0  0  0  0  0  0  0  0  0  0
    8.3565  -15.3967   23.2253 N   0  0  0  0  0  0  0  0  0  0  0  0
    8.7989  -15.5060   24.6068 C   0  0  1  0  0  0  0  0  0  0  0  0
    7.5865  -15.4024   25.4614 C   0  0  0  0  0  0  0  0  0  0  0  0
    7.2873  -14.0055   25.8727 C   0  0  0  0  0  0  0  0  0  0  0  0
    8.2278  -13.1204   26.3345 C   0  0  0  0  0  0  0  0  0  0  0  0
    7.8966  -11.8332   26.7034 C   0  0  0  0  0  0  0  0  0  0  0  0
    6.5951  -11.3863   26.6201 C   0  0  0  0  0  0  0  0  0  0  0  0
    5.6327  -12.2481   26.1622 C   0  0  0  0  0  0  0  0  0  0  0  0
    5.9770  -13.5179   25.8014 C   0  0  0  0  0  0  0  0  0  0  0  0
    9.6721  -16.6408   24.8452 C   0  0  0  0  0  0  0  0  0  0  0  0
   10.0600  -16.8846   26.0190 O   0  0  0  0  0  0  0  0  0  0  0  0
   10.1417  -17.5284   23.8355 N   0  0  0  0  0  0  0  0  0  0  0  0
   10.8252  -18.7539   24.1427 C   0  0  0  0  0  0  0  0  0  0  0  0
   12.2912  -18.5616   24.0915 C   0  0  0  0  0  0  0  0  0  0  0  0
   13.1499  -19.6217   24.3424 O   0  0  0  0  0  0  0  0  0  0  0  0
   12.8036  -17.4456   23.8225 O   0  0  0  0  0  0  0  0  0  0  0  0
  2  1  1  1
  2  3  1  0
  4  6  1  0
  4  2  1  0
  4  5  1  1
  6  7  2  0
  8  6  1  0
  8  9  1  0
  9 17  1  0
 10 11  1  0
  9 10  1  1
 11 16  2  0
 11 12  1  0
 12 13  2  0
 13 14  1  0
 15 14  2  0
 16 15  1  0
 17 18  2  0
 17 19  1  0
 19 20  1  0
 20 21  1  0
 21 22  1  0
 23 21  2  0
M  END
$$$$
