VFG.pdb
     RDKit          3D

 23 23  0  0  1  0  0  0  0  0999 V2000
   10.9980  -18.3522   21.0693 C   0  0  0  0  0  0  0  0  0  0  0  0
    9.4918  -18.5451   20.8771 C   0  0  2  0  0  0  0  0  0  0  0  0
    9.2998  -19.5974   19.8169 C   0  0  0  0  0  0  0  0  0  0  0  0
    8.9471  -17.1997   20.4495 C   0  0  2  0  0  0  0  0  0  0  0  0
    9.5978  -16.8536   19.1950 N   0  0  0  0  0  0  0  0  0  0  0  0
    9.1724  -16.1509   21.4686 C   0  0  0  0  0  0  0  0  0  0  0  0
   10.1546  -15.3949   21.3701 O   0  0  0  0  0  0  0  0  0  0  0  0
    8.2852  -16.0167   22.5297 N   0  0  0  0  0  0  0  0  0  0  0  0
    8.3863  -15.0143   23.5791 C   0  0  1  0  0  0  0  0  0  0  0  0
    7.0070  -14.7618   24.0740 C   0  0  0  0  0  0  0  0  0  0  0  0
    6.9506  -13.6953   25.1081 C   0  0  0  0  0  0  0  0  0  0  0  0
    7.2300  -13.8947   26.4360 C   0  0  0  0  0  0  0  0  0  0  0  0
    7.1626  -12.8689   27.3559 C   0  0  0  0  0  0  0  0  0  0  0  0
    6.8085  -11.5940   26.9688 C   0  0  0  0  0  0  0  0  0  0  0  0
    6.5235  -11.3638   25.6480 C   0  0  0  0  0  0  0  0  0  0  0  0
    6.5948  -12.3893   24.7511 C   0  0  0  0  0  0  0  0  0  0  0  0
    9.3932  -15.3238   24.5779 C   0  0  0  0  0  0  0  0  0  0  0  0
    9.7556  -14.4280   25.3864 O   0  0  0  0  0  0  0  0  0  0  0  0
   10.0249  -16.5914   24.7262 N   0  0  0  0  0  0  0  0  0  0  0  0
   11.0500  -16.8328   25.7032 C   0  0  0  0  0  0  0  0  0  0  0  0
   10.5203  -17.6328   26.8294 C   0  0  0  0  0  0  0  0  0  0  0  0
   11.3813  -18.1944   27.7608 O   0  0  0  0  0  0  0  0  0  0  0  0
    9.2878  -17.8291   26.9801 O   0  0  0  0  0  0  0  0  0  0  0  0
  2  1  1  6
  2  3  1  0
  4  6  1  0
  4  2  1  0
  4  5  1  6
  6  7  2  0
  8  6  1  0
  8  9  1  0
  9 17  1  0
 10 11  1  0
  9 10  1  1
 11 16  2  0
 11 12  1  0
 12 13  2  0
 13 14  1  0
 15 14  2  0
 16 15  1  0
 17 18  2  0
 17 19  1  0
 19 20  1  0
 20 21  1  0
 21 22  1  0
 23 21  2  0
M  END
$$$$
