VFG.pdb
     RDKit          3D

 23 23  0  0  1  0  0  0  0  0999 V2000
    9.2931  -19.0647   21.4232 C   0  0  0  0  0  0  0  0  0  0  0  0
    8.3791  -18.1493   20.6051 C   0  0  2  0  0  0  0  0  0  0  0  0
    8.2810  -18.7271   19.2176 C   0  0  0  0  0  0  0  0  0  0  0  0
    9.0366  -16.7865   20.6094 C   0  0  2  0  0  0  0  0  0  0  0  0
   10.3567  -16.9462   20.0187 N   0  0  0  0  0  0  0  0  0  0  0  0
    9.1323  -16.2114   21.9693 C   0  0  0  0  0  0  0  0  0  0  0  0
   10.1973  -16.3016   22.6045 O   0  0  0  0  0  0  0  0  0  0  0  0
    8.0315  -15.5738   22.5288 N   0  0  0  0  0  0  0  0  0  0  0  0
    7.9882  -15.0067   23.8677 C   0  0  1  0  0  0  0  0  0  0  0  0
    7.1470  -13.7828   23.7949 C   0  0  0  0  0  0  0  0  0  0  0  0
    6.9265  -13.1535   25.1236 C   0  0  0  0  0  0  0  0  0  0  0  0
    5.7895  -13.3159   25.8734 C   0  0  0  0  0  0  0  0  0  0  0  0
    5.6354  -12.7087   27.1024 C   0  0  0  0  0  0  0  0  0  0  0  0
    6.6289  -11.9089   27.6256 C   0  0  0  0  0  0  0  0  0  0  0  0
    7.7771  -11.7277   26.8993 C   0  0  0  0  0  0  0  0  0  0  0  0
    7.9136  -12.3354   25.6856 C   0  0  0  0  0  0  0  0  0  0  0  0
    7.6466  -15.9750   24.8938 C   0  0  0  0  0  0  0  0  0  0  0  0
    6.4579  -16.3828   24.9858 O   0  0  0  0  0  0  0  0  0  0  0  0
    8.5678  -16.5195   25.8334 N   0  0  0  0  0  0  0  0  0  0  0  0
    8.1839  -17.4989   26.8115 C   0  0  0  0  0  0  0  0  0  0  0  0
    9.3516  -17.9179   27.6175 C   0  0  0  0  0  0  0  0  0  0  0  0
    9.1944  -18.7893   28.6853 O   0  0  0  0  0  0  0  0  0  0  0  0
   10.5120  -17.5045   27.3667 O   0  0  0  0  0  0  0  0  0  0  0  0
  2  1  1  1
  2  3  1  0
  4  6  1  0
  4  2  1  0
  4  5  1  1
  6  7  2  0
  8  6  1  0
  8  9  1  0
  9 17  1  0
 10 11  1  0
  9 10  1  6
 11 16  2  0
 11 12  1  0
 12 13  2  0
 13 14  1  0
 15 14  2  0
 16 15  1  0
 17 18  2  0
 17 19  1  0
 19 20  1  0
 20 21  1  0
 21 22  1  0
 23 21  2  0
M  END
$$$$
