VFG.pdb
     RDKit          3D

 23 23  0  0  1  0  0  0  0  0999 V2000
    7.8100  -15.5386   17.4144 C   0  0  0  0  0  0  0  0  0  0  0  0
    8.4002  -15.3854   18.8183 C   0  0  2  0  0  0  0  0  0  0  0  0
    8.0160  -16.6084   19.6090 C   0  0  0  0  0  0  0  0  0  0  0  0
    7.7958  -14.1227   19.3928 C   0  0  2  0  0  0  0  0  0  0  0  0
    8.1622  -13.0302   18.5045 N   0  0  0  0  0  0  0  0  0  0  0  0
    8.2539  -13.8569   20.7744 C   0  0  0  0  0  0  0  0  0  0  0  0
    9.3668  -13.3370   20.9667 O   0  0  0  0  0  0  0  0  0  0  0  0
    7.4379  -14.1897   21.8489 N   0  0  0  0  0  0  0  0  0  0  0  0
    7.7537  -13.9341   23.2457 C   0  0  1  0  0  0  0  0  0  0  0  0
    6.4688  -13.6459   23.9366 C   0  0  0  0  0  0  0  0  0  0  0  0
    6.6584  -13.1380   25.3208 C   0  0  0  0  0  0  0  0  0  0  0  0
    6.2269  -11.9112   25.7568 C   0  0  0  0  0  0  0  0  0  0  0  0
    6.4286  -11.4877   27.0541 C   0  0  0  0  0  0  0  0  0  0  0  0
    7.0777  -12.2909   27.9674 C   0  0  0  0  0  0  0  0  0  0  0  0
    7.5206  -13.5227   27.5610 C   0  0  0  0  0  0  0  0  0  0  0  0
    7.3131  -13.9263   26.2745 C   0  0  0  0  0  0  0  0  0  0  0  0
    8.6026  -14.9500   23.8409 C   0  0  0  0  0  0  0  0  0  0  0  0
    8.9768  -14.8179   25.0368 O   0  0  0  0  0  0  0  0  0  0  0  0
    9.0623  -16.1180   23.1683 N   0  0  0  0  0  0  0  0  0  0  0  0
    9.9295  -17.0774   23.7937 C   0  0  0  0  0  0  0  0  0  0  0  0
   11.3295  -16.5992   23.7859 C   0  0  0  0  0  0  0  0  0  0  0  0
   12.0618  -16.5830   22.6080 O   0  0  0  0  0  0  0  0  0  0  0  0
   11.8973  -16.1960   24.8326 O   0  0  0  0  0  0  0  0  0  0  0  0
  2  1  1  6
  2  3  1  0
  4  6  1  0
  4  2  1  0
  4  5  1  6
  6  7  2  0
  8  6  1  0
  8  9  1  0
  9 17  1  0
 10 11  1  0
  9 10  1  1
 11 16  2  0
 11 12  1  0
 12 13  2  0
 13 14  1  0
 15 14  2  0
 16 15  1  0
 17 18  2  0
 17 19  1  0
 19 20  1  0
 20 21  1  0
 21 22  1  0
 23 21  2  0
M  END
$$$$
