VFG.pdb
     RDKit          3D

 23 23  0  0  1  0  0  0  0  0999 V2000
    6.9596  -13.3944   19.1505 C   0  0  0  0  0  0  0  0  0  0  0  0
    7.4401  -13.3165   20.6015 C   0  0  2  0  0  0  0  0  0  0  0  0
    8.3476  -12.1199   20.7162 C   0  0  0  0  0  0  0  0  0  0  0  0
    8.1708  -14.6135   20.8725 C   0  0  2  0  0  0  0  0  0  0  0  0
    7.1863  -15.6824   20.8014 N   0  0  0  0  0  0  0  0  0  0  0  0
    8.8545  -14.6113   22.1847 C   0  0  0  0  0  0  0  0  0  0  0  0
    9.8869  -13.9365   22.3421 O   0  0  0  0  0  0  0  0  0  0  0  0
    8.3392  -15.3635   23.2335 N   0  0  0  0  0  0  0  0  0  0  0  0
    8.8921  -15.4071   24.5783 C   0  0  1  0  0  0  0  0  0  0  0  0
    7.7474  -15.3125   25.5227 C   0  0  0  0  0  0  0  0  0  0  0  0
    7.4182  -13.9108   25.8928 C   0  0  0  0  0  0  0  0  0  0  0  0
    8.3514  -12.9645   26.2320 C   0  0  0  0  0  0  0  0  0  0  0  0
    7.9920  -11.6757   26.5677 C   0  0  0  0  0  0  0  0  0  0  0  0
    6.6686  -11.2895   26.5742 C   0  0  0  0  0  0  0  0  0  0  0  0
    5.7130  -12.2133   26.2396 C   0  0  0  0  0  0  0  0  0  0  0  0
    6.0853  -13.4837   25.9101 C   0  0  0  0  0  0  0  0  0  0  0  0
    9.8216  -16.5028   24.7850 C   0  0  0  0  0  0  0  0  0  0  0  0
   10.3021  -16.6955   25.9338 O   0  0  0  0  0  0  0  0  0  0  0  0
   10.2493  -17.4052   23.7699 N   0  0  0  0  0  0  0  0  0  0  0  0
   11.0543  -18.5606   24.0540 C   0  0  0  0  0  0  0  0  0  0  0  0
   12.4442  -18.3557   23.5903 C   0  0  0  0  0  0  0  0  0  0  0  0
   13.3059  -19.4336   23.4495 O   0  0  0  0  0  0  0  0  0  0  0  0
   12.8875  -17.2129   23.3113 O   0  0  0  0  0  0  0  0  0  0  0  0
  2  1  1  6
  2  3  1  0
  4  6  1  0
  4  2  1  0
  4  5  1  1
  6  7  2  0
  8  6  1  0
  8  9  1  0
  9 17  1  0
 10 11  1  0
  9 10  1  1
 11 16  2  0
 11 12  1  0
 12 13  2  0
 13 14  1  0
 15 14  2  0
 16 15  1  0
 17 18  2  0
 17 19  1  0
 19 20  1  0
 20 21  1  0
 21 22  1  0
 23 21  2  0
M  END
$$$$
