VFG.pdb
     RDKit          3D

 23 23  0  0  1  0  0  0  0  0999 V2000
    7.3335  -12.7182   21.8096 C   0  0  0  0  0  0  0  0  0  0  0  0
    8.2438  -13.3528   20.7554 C   0  0  2  0  0  0  0  0  0  0  0  0
    7.5621  -13.2089   19.4201 C   0  0  0  0  0  0  0  0  0  0  0  0
    8.4068  -14.8022   21.1585 C   0  0  2  0  0  0  0  0  0  0  0  0
    7.0888  -15.4152   21.0939 N   0  0  0  0  0  0  0  0  0  0  0  0
    8.9921  -14.9488   22.5095 C   0  0  0  0  0  0  0  0  0  0  0  0
   10.1387  -14.5243   22.7352 O   0  0  0  0  0  0  0  0  0  0  0  0
    8.2572  -15.5601   23.5182 N   0  0  0  0  0  0  0  0  0  0  0  0
    8.7237  -15.7682   24.8802 C   0  0  1  0  0  0  0  0  0  0  0  0
    7.5765  -15.4815   25.7818 C   0  0  0  0  0  0  0  0  0  0  0  0
    7.3580  -14.0265   25.9938 C   0  0  0  0  0  0  0  0  0  0  0  0
    8.3437  -13.1446   26.3570 C   0  0  0  0  0  0  0  0  0  0  0  0
    8.0872  -11.8017   26.5409 C   0  0  0  0  0  0  0  0  0  0  0  0
    6.8179  -11.2936   26.3644 C   0  0  0  0  0  0  0  0  0  0  0  0
    5.8117  -12.1506   26.0014 C   0  0  0  0  0  0  0  0  0  0  0  0
    6.0823  -13.4758   25.8235 C   0  0  0  0  0  0  0  0  0  0  0  0
    9.4035  -17.0367   25.0700 C   0  0  0  0  0  0  0  0  0  0  0  0
    8.8357  -17.9481   25.7293 O   0  0  0  0  0  0  0  0  0  0  0  0
   10.6959  -17.3480   24.5595 N   0  0  0  0  0  0  0  0  0  0  0  0
   11.7930  -17.7174   25.4101 C   0  0  0  0  0  0  0  0  0  0  0  0
   11.4570  -18.9202   26.2033 C   0  0  0  0  0  0  0  0  0  0  0  0
   12.0624  -20.1374   25.9278 O   0  0  0  0  0  0  0  0  0  0  0  0
   10.6222  -18.8821   27.1425 O   0  0  0  0  0  0  0  0  0  0  0  0
  2  1  1  1
  2  3  1  0
  4  6  1  0
  4  2  1  0
  4  5  1  1
  6  7  2  0
  8  6  1  0
  8  9  1  0
  9 17  1  0
 10 11  1  0
  9 10  1  1
 11 16  2  0
 11 12  1  0
 12 13  2  0
 13 14  1  0
 15 14  2  0
 16 15  1  0
 17 18  2  0
 17 19  1  0
 19 20  1  0
 20 21  1  0
 21 22  1  0
 23 21  2  0
M  END
$$$$
