VFG.pdb
     RDKit          3D

 23 23  0  0  1  0  0  0  0  0999 V2000
    8.4858  -16.3126   20.3388 C   0  0  0  0  0  0  0  0  0  0  0  0
    7.1905  -15.6267   20.7799 C   0  0  2  0  0  0  0  0  0  0  0  0
    6.3580  -15.3914   19.5470 C   0  0  0  0  0  0  0  0  0  0  0  0
    7.6055  -14.3313   21.4427 C   0  0  2  0  0  0  0  0  0  0  0  0
    8.3478  -13.5635   20.4545 N   0  0  0  0  0  0  0  0  0  0  0  0
    8.4195  -14.5558   22.6578 C   0  0  0  0  0  0  0  0  0  0  0  0
    9.6169  -14.2213   22.6695 O   0  0  0  0  0  0  0  0  0  0  0  0
    7.8411  -15.1389   23.7788 N   0  0  0  0  0  0  0  0  0  0  0  0
    8.5196  -15.3618   25.0462 C   0  0  1  0  0  0  0  0  0  0  0  0
    7.4963  -15.2286   26.1168 C   0  0  0  0  0  0  0  0  0  0  0  0
    7.1792  -13.8127   26.4400 C   0  0  0  0  0  0  0  0  0  0  0  0
    8.1146  -12.8127   26.5187 C   0  0  0  0  0  0  0  0  0  0  0  0
    7.7666  -11.5129   26.8225 C   0  0  0  0  0  0  0  0  0  0  0  0
    6.4527  -11.1697   27.0602 C   0  0  0  0  0  0  0  0  0  0  0  0
    5.4950  -12.1476   26.9886 C   0  0  0  0  0  0  0  0  0  0  0  0
    5.8560  -13.4282   26.6870 C   0  0  0  0  0  0  0  0  0  0  0  0
    9.3307  -16.5655   25.0628 C   0  0  0  0  0  0  0  0  0  0  0  0
   10.0929  -16.7820   26.0426 O   0  0  0  0  0  0  0  0  0  0  0  0
    9.3387  -17.5518   24.0357 N   0  0  0  0  0  0  0  0  0  0  0  0
   10.4801  -17.7796   23.1937 C   0  0  0  0  0  0  0  0  0  0  0  0
   11.6611  -18.1506   24.0039 C   0  0  0  0  0  0  0  0  0  0  0  0
   12.0284  -19.4806   24.1457 O   0  0  0  0  0  0  0  0  0  0  0  0
   12.3641  -17.2851   24.5845 O   0  0  0  0  0  0  0  0  0  0  0  0
  2  1  1  6
  2  3  1  0
  4  6  1  0
  4  2  1  0
  4  5  1  6
  6  7  2  0
  8  6  1  0
  8  9  1  0
  9 17  1  0
 10 11  1  0
  9 10  1  1
 11 16  2  0
 11 12  1  0
 12 13  2  0
 13 14  1  0
 15 14  2  0
 16 15  1  0
 17 18  2  0
 17 19  1  0
 19 20  1  0
 20 21  1  0
 21 22  1  0
 23 21  2  0
M  END
$$$$
