VFG.pdb
     RDKit          3D

 23 23  0  0  1  0  0  0  0  0999 V2000
   10.0869  -17.8089   18.6111 C   0  0  0  0  0  0  0  0  0  0  0  0
   10.0061  -16.6432   19.5997 C   0  0  2  0  0  0  0  0  0  0  0  0
   11.2995  -15.8772   19.5060 C   0  0  0  0  0  0  0  0  0  0  0  0
    9.8093  -17.2636   20.9658 C   0  0  2  0  0  0  0  0  0  0  0  0
    8.5271  -17.9509   20.9431 N   0  0  0  0  0  0  0  0  0  0  0  0
    9.8515  -16.2596   22.0518 C   0  0  0  0  0  0  0  0  0  0  0  0
   10.8999  -15.6271   22.2678 O   0  0  0  0  0  0  0  0  0  0  0  0
    8.7194  -16.0293   22.8242 N   0  0  0  0  0  0  0  0  0  0  0  0
    8.6361  -15.0720   23.9164 C   0  0  1  0  0  0  0  0  0  0  0  0
    7.3240  -14.3835   23.7924 C   0  0  0  0  0  0  0  0  0  0  0  0
    7.0891  -13.3893   24.8723 C   0  0  0  0  0  0  0  0  0  0  0  0
    6.2715  -13.6042   25.9525 C   0  0  0  0  0  0  0  0  0  0  0  0
    6.0880  -12.6466   26.9282 C   0  0  0  0  0  0  0  0  0  0  0  0
    6.7265  -11.4271   26.8513 C   0  0  0  0  0  0  0  0  0  0  0  0
    7.5500  -11.1830   25.7832 C   0  0  0  0  0  0  0  0  0  0  0  0
    7.7206  -12.1408   24.8268 C   0  0  0  0  0  0  0  0  0  0  0  0
    8.9543  -15.6450   25.2116 C   0  0  0  0  0  0  0  0  0  0  0  0
    9.0674  -14.8857   26.2109 O   0  0  0  0  0  0  0  0  0  0  0  0
    9.1554  -17.0333   25.4565 N   0  0  0  0  0  0  0  0  0  0  0  0
    9.3643  -17.5616   26.7759 C   0  0  0  0  0  0  0  0  0  0  0  0
   10.7971  -17.8537   27.0008 C   0  0  0  0  0  0  0  0  0  0  0  0
   11.7696  -17.2607   26.2092 O   0  0  0  0  0  0  0  0  0  0  0  0
   11.1787  -18.6391   27.9052 O   0  0  0  0  0  0  0  0  0  0  0  0
  2  1  1  6
  2  3  1  0
  4  6  1  0
  4  2  1  0
  4  5  1  6
  6  7  2  0
  8  6  1  0
  8  9  1  0
  9 17  1  0
 10 11  1  0
  9 10  1  1
 11 16  2  0
 11 12  1  0
 12 13  2  0
 13 14  1  0
 15 14  2  0
 16 15  1  0
 17 18  2  0
 17 19  1  0
 19 20  1  0
 20 21  1  0
 21 22  1  0
 23 21  2  0
M  END
$$$$
