VFG.pdb
     RDKit          3D

 23 23  0  0  1  0  0  0  0  0999 V2000
   10.0598  -18.1591   20.7089 C   0  0  0  0  0  0  0  0  0  0  0  0
    8.5721  -17.9311   20.4307 C   0  0  2  0  0  0  0  0  0  0  0  0
    8.1831  -18.8216   19.2799 C   0  0  0  0  0  0  0  0  0  0  0  0
    8.4283  -16.4640   20.0895 C   0  0  2  0  0  0  0  0  0  0  0  0
    9.3264  -16.1932   18.9773 N   0  0  0  0  0  0  0  0  0  0  0  0
    8.7328  -15.5854   21.2405 C   0  0  0  0  0  0  0  0  0  0  0  0
    9.8126  -14.9704   21.2794 O   0  0  0  0  0  0  0  0  0  0  0  0
    7.8102  -15.4527   22.2713 N   0  0  0  0  0  0  0  0  0  0  0  0
    8.0019  -14.6388   23.4616 C   0  0  1  0  0  0  0  0  0  0  0  0
    6.7223  -13.9233   23.7102 C   0  0  0  0  0  0  0  0  0  0  0  0
    6.7453  -13.1149   24.9576 C   0  0  0  0  0  0  0  0  0  0  0  0
    6.0817  -13.4559   26.1085 C   0  0  0  0  0  0  0  0  0  0  0  0
    6.1364  -12.6692   27.2404 C   0  0  0  0  0  0  0  0  0  0  0  0
    6.8675  -11.5005   27.2547 C   0  0  0  0  0  0  0  0  0  0  0  0
    7.5417  -11.1334   26.1192 C   0  0  0  0  0  0  0  0  0  0  0  0
    7.4772  -11.9227   25.0083 C   0  0  0  0  0  0  0  0  0  0  0  0
    8.5679  -15.3735   24.5783 C   0  0  0  0  0  0  0  0  0  0  0  0
    8.9619  -14.7427   25.5954 O   0  0  0  0  0  0  0  0  0  0  0  0
    8.7204  -16.7886   24.6235 N   0  0  0  0  0  0  0  0  0  0  0  0
    9.9886  -17.4345   24.4285 C   0  0  0  0  0  0  0  0  0  0  0  0
   10.9482  -17.0295   25.4792 C   0  0  0  0  0  0  0  0  0  0  0  0
   10.6104  -17.1354   26.8204 O   0  0  0  0  0  0  0  0  0  0  0  0
   12.0883  -16.5811   25.1975 O   0  0  0  0  0  0  0  0  0  0  0  0
  2  1  1  6
  2  3  1  0
  4  6  1  0
  4  2  1  0
  4  5  1  6
  6  7  2  0
  8  6  1  0
  8  9  1  0
  9 17  1  0
 10 11  1  0
  9 10  1  1
 11 16  2  0
 11 12  1  0
 12 13  2  0
 13 14  1  0
 15 14  2  0
 16 15  1  0
 17 18  2  0
 17 19  1  0
 19 20  1  0
 20 21  1  0
 21 22  1  0
 23 21  2  0
M  END
$$$$
