VFG.pdb
     RDKit          3D

 23 23  0  0  1  0  0  0  0  0999 V2000
    7.4756  -12.5976   21.7133 C   0  0  0  0  0  0  0  0  0  0  0  0
    8.2824  -13.2594   20.5937 C   0  0  2  0  0  0  0  0  0  0  0  0
    7.4956  -13.1118   19.3179 C   0  0  0  0  0  0  0  0  0  0  0  0
    8.4489  -14.7086   20.9957 C   0  0  2  0  0  0  0  0  0  0  0  0
    7.1200  -15.3006   21.0227 N   0  0  0  0  0  0  0  0  0  0  0  0
    9.1198  -14.8562   22.3062 C   0  0  0  0  0  0  0  0  0  0  0  0
   10.2805  -14.4365   22.4565 O   0  0  0  0  0  0  0  0  0  0  0  0
    8.4491  -15.4628   23.3613 N   0  0  0  0  0  0  0  0  0  0  0  0
    8.9603  -15.5771   24.7184 C   0  0  1  0  0  0  0  0  0  0  0  0
    7.7946  -15.4594   25.6340 C   0  0  0  0  0  0  0  0  0  0  0  0
    7.3514  -14.0537   25.8272 C   0  0  0  0  0  0  0  0  0  0  0  0
    6.1308  -13.5696   25.4309 C   0  0  0  0  0  0  0  0  0  0  0  0
    5.7685  -12.2542   25.6346 C   0  0  0  0  0  0  0  0  0  0  0  0
    6.6294  -11.3707   26.2500 C   0  0  0  0  0  0  0  0  0  0  0  0
    7.8567  -11.8253   26.6573 C   0  0  0  0  0  0  0  0  0  0  0  0
    8.1995  -13.1291   26.4482 C   0  0  0  0  0  0  0  0  0  0  0  0
    9.8314  -16.7219   24.9126 C   0  0  0  0  0  0  0  0  0  0  0  0
   10.2354  -16.9997   26.0734 O   0  0  0  0  0  0  0  0  0  0  0  0
   10.2817  -17.5835   23.8721 N   0  0  0  0  0  0  0  0  0  0  0  0
   11.0738  -18.7542   24.1284 C   0  0  0  0  0  0  0  0  0  0  0  0
   12.5118  -18.4105   24.1817 C   0  0  0  0  0  0  0  0  0  0  0  0
   13.4645  -19.3969   24.3909 O   0  0  0  0  0  0  0  0  0  0  0  0
   12.9158  -17.2284   24.0412 O   0  0  0  0  0  0  0  0  0  0  0  0
  2  1  1  1
  2  3  1  0
  4  6  1  0
  4  2  1  0
  4  5  1  1
  6  7  2  0
  8  6  1  0
  8  9  1  0
  9 17  1  0
 10 11  1  0
  9 10  1  1
 11 16  2  0
 11 12  1  0
 12 13  2  0
 13 14  1  0
 15 14  2  0
 16 15  1  0
 17 18  2  0
 17 19  1  0
 19 20  1  0
 20 21  1  0
 21 22  1  0
 23 21  2  0
M  END
$$$$
