VFG.pdb
     RDKit          3D

 23 23  0  0  1  0  0  0  0  0999 V2000
    8.6132  -16.3330   20.2150 C   0  0  0  0  0  0  0  0  0  0  0  0
    7.2424  -16.3955   20.8929 C   0  0  2  0  0  0  0  0  0  0  0  0
    6.2151  -16.6426   19.8195 C   0  0  0  0  0  0  0  0  0  0  0  0
    7.0473  -15.0567   21.5706 C   0  0  2  0  0  0  0  0  0  0  0  0
    7.1115  -14.0385   20.5332 N   0  0  0  0  0  0  0  0  0  0  0  0
    8.0578  -14.8047   22.6216 C   0  0  0  0  0  0  0  0  0  0  0  0
    9.0260  -14.0624   22.3822 O   0  0  0  0  0  0  0  0  0  0  0  0
    7.9190  -15.3990   23.8701 N   0  0  0  0  0  0  0  0  0  0  0  0
    8.8413  -15.2278   24.9819 C   0  0  1  0  0  0  0  0  0  0  0  0
    8.0177  -15.0351   26.2049 C   0  0  0  0  0  0  0  0  0  0  0  0
    7.3581  -13.7038   26.2533 C   0  0  0  0  0  0  0  0  0  0  0  0
    6.0170  -13.5009   26.0494 C   0  0  0  0  0  0  0  0  0  0  0  0
    5.4544  -12.2426   26.1057 C   0  0  0  0  0  0  0  0  0  0  0  0
    6.2284  -11.1332   26.3716 C   0  0  0  0  0  0  0  0  0  0  0  0
    7.5723  -11.3043   26.5798 C   0  0  0  0  0  0  0  0  0  0  0  0
    8.1128  -12.5555   26.5206 C   0  0  0  0  0  0  0  0  0  0  0  0
    9.8704  -16.2499   25.0408 C   0  0  0  0  0  0  0  0  0  0  0  0
   10.7430  -16.1949   25.9481 O   0  0  0  0  0  0  0  0  0  0  0  0
    9.9811  -17.3419   24.1336 N   0  0  0  0  0  0  0  0  0  0  0  0
   11.0391  -17.4374   23.1666 C   0  0  0  0  0  0  0  0  0  0  0  0
   12.3586  -17.4503   23.8356 C   0  0  0  0  0  0  0  0  0  0  0  0
   12.9791  -16.2621   24.1926 O   0  0  0  0  0  0  0  0  0  0  0  0
   12.9562  -18.5241   24.1007 O   0  0  0  0  0  0  0  0  0  0  0  0
  2  1  1  6
  2  3  1  0
  4  6  1  0
  4  2  1  0
  4  5  1  6
  6  7  2  0
  8  6  1  0
  8  9  1  0
  9 17  1  0
 10 11  1  0
  9 10  1  1
 11 16  2  0
 11 12  1  0
 12 13  2  0
 13 14  1  0
 15 14  2  0
 16 15  1  0
 17 18  2  0
 17 19  1  0
 19 20  1  0
 20 21  1  0
 21 22  1  0
 23 21  2  0
M  END
$$$$
