LPC.pdb
     RDKit          3D

 22 22  0  0  1  0  0  0  0  0999 V2000
   20.5110  -27.5549    4.0947 C   0  0  0  0  0  0  0  0  0  0  0  0
   20.0933  -28.1512    5.4284 C   0  0  2  0  0  0  0  0  0  0  0  0
   19.8203  -27.0114    6.3955 C   0  0  0  0  0  0  0  0  0  0  0  0
   21.1490  -29.0845    5.9687 C   0  0  0  0  0  0  0  0  0  0  0  0
   21.2761  -30.2367    4.9699 C   0  0  2  0  0  0  0  0  0  0  0  0
   20.0188  -30.8768    4.8647 N   0  0  0  0  0  0  0  0  0  0  0  0
   22.4236  -31.0812    5.3435 C   0  0  0  0  0  0  0  0  0  0  0  0
   22.1258  -32.2425    5.8089 O   0  0  0  0  0  0  0  0  0  0  0  0
   23.7896  -30.7668    5.2515 N   0  0  0  0  0  0  0  0  0  0  0  0
   24.4285  -29.5544    4.8483 C   0  0  0  0  0  0  0  0  0  0  0  0
   25.6543  -30.0786    4.0819 C   0  0  0  0  0  0  0  0  0  0  0  0
   25.7980  -31.5225    4.4346 C   0  0  0  0  0  0  0  0  0  0  0  0
   24.8536  -31.6913    5.5809 C   0  0  1  0  0  0  0  0  0  0  0  0
   25.4581  -31.4079    6.9095 C   0  0  0  0  0  0  0  0  0  0  0  0
   25.2278  -30.3023    7.4445 O   0  0  0  0  0  0  0  0  0  0  0  0
   26.2773  -32.3193    7.5986 N   0  0  0  0  0  0  0  0  0  0  0  0
   26.3221  -32.4265    9.0444 C   0  0  1  0  0  0  0  0  0  0  0  0
   24.9351  -32.8835    9.4816 C   0  0  0  0  0  0  0  0  0  0  0  0
   24.8953  -33.2038   11.2647 S   0  0  0  0  0  0  0  0  0  0  0  0
   27.2612  -33.5211    9.4183 C   0  0  0  0  0  0  0  0  0  0  0  0
   28.0789  -33.4429   10.5348 O   0  0  0  0  0  0  0  0  0  0  0  0
   27.3487  -34.5753    8.7229 O   0  0  0  0  0  0  0  0  0  0  0  0
  2  1  1  6
  2  4  1  0
  2  3  1  0
  5  7  1  0
  5  4  1  0
  5  6  1  1
  7  8  2  0
  9 13  1  0
  9  7  1  0
 10  9  1  0
 11 10  1  0
 11 12  1  0
 12 13  1  0
 13 14  1  1
 14 15  2  0
 16 14  1  0
 17 16  1  0
 17 20  1  0
 17 18  1  6
 19 18  1  0
 20 22  2  0
 20 21  1  0
M  END
$$$$
