LPC.pdb
     RDKit          3D

 22 22  0  0  1  0  0  0  0  0999 V2000
   21.8339  -18.2075  -17.3275 C   0  0  0  0  0  0  0  0  0  0  0  0
   21.5957  -19.6113  -16.7973 C   0  0  2  0  0  0  0  0  0  0  0  0
   20.1683  -19.6906  -16.2824 C   0  0  0  0  0  0  0  0  0  0  0  0
   22.5866  -19.9664  -15.7158 C   0  0  0  0  0  0  0  0  0  0  0  0
   23.8991  -20.3239  -16.4163 C   0  0  2  0  0  0  0  0  0  0  0  0
   23.6511  -21.3917  -17.3106 N   0  0  0  0  0  0  0  0  0  0  0  0
   24.9499  -20.5329  -15.4055 C   0  0  0  0  0  0  0  0  0  0  0  0
   25.3688  -21.7429  -15.2869 O   0  0  0  0  0  0  0  0  0  0  0  0
   25.5391  -19.5732  -14.5656 N   0  0  0  0  0  0  0  0  0  0  0  0
   25.2900  -18.1709  -14.4559 C   0  0  0  0  0  0  0  0  0  0  0  0
   26.7006  -17.6148  -14.1996 C   0  0  0  0  0  0  0  0  0  0  0  0
   27.5594  -18.7761  -13.8206 C   0  0  0  0  0  0  0  0  0  0  0  0
   26.5712  -19.8750  -13.5966 C   0  0  1  0  0  0  0  0  0  0  0  0
   26.0422  -19.9391  -12.2083 C   0  0  0  0  0  0  0  0  0  0  0  0
   24.8857  -19.5181  -11.9921 O   0  0  0  0  0  0  0  0  0  0  0  0
   26.7751  -20.4494  -11.1225 N   0  0  0  0  0  0  0  0  0  0  0  0
   26.1686  -21.1093   -9.9820 C   0  0  1  0  0  0  0  0  0  0  0  0
   27.0675  -20.8098   -8.7879 C   0  0  0  0  0  0  0  0  0  0  0  0
   26.8613  -19.0945   -8.2412 S   0  0  0  0  0  0  0  0  0  0  0  0
   24.8576  -20.4637   -9.6919 C   0  0  0  0  0  0  0  0  0  0  0  0
   24.3956  -19.3740  -10.4135 O   0  0  0  0  0  0  0  0  0  0  0  0
   24.1078  -20.8904   -8.7655 O   0  0  0  0  0  0  0  0  0  0  0  0
  2  1  1  1
  2  4  1  0
  2  3  1  0
  5  7  1  0
  5  4  1  0
  5  6  1  1
  7  8  2  0
  9 13  1  0
  9  7  1  0
 10  9  1  0
 11 10  1  0
 11 12  1  0
 12 13  1  0
 13 14  1  1
 14 15  2  0
 16 14  1  0
 17 16  1  0
 17 20  1  0
 17 18  1  1
 19 18  1  0
 20 22  2  0
 20 21  1  0
M  END
$$$$
