LPC.pdb
     RDKit          3D

 22 22  0  0  1  0  0  0  0  0999 V2000
   15.9998   -5.7499   -8.6925 C   0  0  0  0  0  0  0  0  0  0  0  0
   15.1113   -6.4826   -9.6837 C   0  0  2  0  0  0  0  0  0  0  0  0
   13.7430   -5.8217   -9.6765 C   0  0  0  0  0  0  0  0  0  0  0  0
   15.0099   -7.9511   -9.3507 C   0  0  0  0  0  0  0  0  0  0  0  0
   14.7752   -8.6902  -10.6697 C   0  0  2  0  0  0  0  0  0  0  0  0
   14.4349  -10.0314  -10.3752 N   0  0  0  0  0  0  0  0  0  0  0  0
   15.9289   -8.4766  -11.5601 C   0  0  0  0  0  0  0  0  0  0  0  0
   16.9432   -9.2361  -11.3410 O   0  0  0  0  0  0  0  0  0  0  0  0
   16.0469   -7.5486  -12.6082 N   0  0  0  0  0  0  0  0  0  0  0  0
   15.1302   -6.5503  -13.0593 C   0  0  0  0  0  0  0  0  0  0  0  0
   15.3340   -6.5942  -14.5829 C   0  0  0  0  0  0  0  0  0  0  0  0
   16.6026   -7.3434  -14.8265 C   0  0  0  0  0  0  0  0  0  0  0  0
   17.2094   -7.4428  -13.4641 C   0  0  1  0  0  0  0  0  0  0  0  0
   18.0753   -6.2895  -13.1019 C   0  0  0  0  0  0  0  0  0  0  0  0
   17.5477   -5.2980  -12.5543 O   0  0  0  0  0  0  0  0  0  0  0  0
   19.4600   -6.2542  -13.3431 N   0  0  0  0  0  0  0  0  0  0  0  0
   20.3252   -5.1752  -12.9057 C   0  0  1  0  0  0  0  0  0  0  0  0
   21.3993   -5.8160  -12.0344 C   0  0  0  0  0  0  0  0  0  0  0  0
   22.0605   -7.3086  -12.8210 S   0  0  0  0  0  0  0  0  0  0  0  0
   21.0291   -4.6104  -14.0912 C   0  0  0  0  0  0  0  0  0  0  0  0
   21.8550   -3.5009  -13.9999 O   0  0  0  0  0  0  0  0  0  0  0  0
   20.8982   -5.1281  -15.2390 O   0  0  0  0  0  0  0  0  0  0  0  0
  2  1  1  1
  2  4  1  0
  2  3  1  0
  5  7  1  0
  5  4  1  0
  5  6  1  1
  7  8  2  0
  9 13  1  0
  9  7  1  0
 10  9  1  0
 11 10  1  0
 11 12  1  0
 12 13  1  0
 13 14  1  1
 14 15  2  0
 16 14  1  0
 17 16  1  0
 17 20  1  0
 17 18  1  1
 19 18  1  0
 20 22  2  0
 20 21  1  0
M  END
$$$$
