LPC.pdb
     RDKit          3D

 22 22  0  0  1  0  0  0  0  0999 V2000
   19.0466  -15.7371    2.0385 C   0  0  0  0  0  0  0  0  0  0  0  0
   19.0312  -17.2069    2.4234 C   0  0  2  0  0  0  0  0  0  0  0  0
   19.9929  -17.9488    1.5103 C   0  0  0  0  0  0  0  0  0  0  0  0
   17.6396  -17.7843    2.3352 C   0  0  0  0  0  0  0  0  0  0  0  0
   17.4984  -18.7803    3.4881 C   0  0  2  0  0  0  0  0  0  0  0  0
   16.2878  -19.4922    3.3170 N   0  0  0  0  0  0  0  0  0  0  0  0
   17.6796  -18.0737    4.7677 C   0  0  0  0  0  0  0  0  0  0  0  0
   16.6329  -17.4828    5.2249 O   0  0  0  0  0  0  0  0  0  0  0  0
   18.8512  -17.9718    5.5361 N   0  0  0  0  0  0  0  0  0  0  0  0
   20.1418  -18.5463    5.3247 C   0  0  0  0  0  0  0  0  0  0  0  0
   20.5793  -18.8864    6.7592 C   0  0  0  0  0  0  0  0  0  0  0  0
   19.6654  -18.1423    7.6762 C   0  0  0  0  0  0  0  0  0  0  0  0
   18.9487  -17.2042    6.7594 C   0  0  1  0  0  0  0  0  0  0  0  0
   19.6443  -15.9054    6.5583 C   0  0  0  0  0  0  0  0  0  0  0  0
   20.5685  -15.8490    5.7192 O   0  0  0  0  0  0  0  0  0  0  0  0
   19.3175  -14.7338    7.2634 N   0  0  0  0  0  0  0  0  0  0  0  0
   19.7896  -13.4136    6.8921 C   0  0  1  0  0  0  0  0  0  0  0  0
   18.6693  -12.7719    6.0816 C   0  0  0  0  0  0  0  0  0  0  0  0
   19.2605  -11.2854    5.2305 S   0  0  0  0  0  0  0  0  0  0  0  0
   19.9396  -12.5903    8.1248 C   0  0  0  0  0  0  0  0  0  0  0  0
   20.7754  -11.4858    8.1777 O   0  0  0  0  0  0  0  0  0  0  0  0
   19.3023  -12.8714    9.1819 O   0  0  0  0  0  0  0  0  0  0  0  0
  2  1  1  6
  2  4  1  0
  2  3  1  0
  5  7  1  0
  5  4  1  0
  5  6  1  1
  7  8  2  0
  9 13  1  0
  9  7  1  0
 10  9  1  0
 11 10  1  0
 11 12  1  0
 12 13  1  0
 13 14  1  6
 14 15  2  0
 16 14  1  0
 17 16  1  0
 17 20  1  0
 17 18  1  6
 19 18  1  0
 20 22  2  0
 20 21  1  0
M  END
$$$$
