LPC.pdb
     RDKit          3D

 22 22  0  0  1  0  0  0  0  0999 V2000
   23.8859  -13.3300  -20.4385 C   0  0  0  0  0  0  0  0  0  0  0  0
   22.4328  -12.9195  -20.2698 C   0  0  2  0  0  0  0  0  0  0  0  0
   21.9348  -12.3725  -21.5971 C   0  0  0  0  0  0  0  0  0  0  0  0
   22.2727  -11.9029  -19.1659 C   0  0  0  0  0  0  0  0  0  0  0  0
   22.7094  -12.5849  -17.8677 C   0  0  2  0  0  0  0  0  0  0  0  0
   21.8183  -13.6513  -17.6024 N   0  0  0  0  0  0  0  0  0  0  0  0
   22.8649  -11.5695  -16.8121 C   0  0  0  0  0  0  0  0  0  0  0  0
   21.8760  -11.4649  -15.9968 O   0  0  0  0  0  0  0  0  0  0  0  0
   23.9566  -10.7119  -16.5973 N   0  0  0  0  0  0  0  0  0  0  0  0
   25.1366  -10.5130  -17.3774 C   0  0  0  0  0  0  0  0  0  0  0  0
   26.2058  -10.3035  -16.2922 C   0  0  0  0  0  0  0  0  0  0  0  0
   25.4779  -10.0350  -15.0163 C   0  0  0  0  0  0  0  0  0  0  0  0
   24.0686   -9.8178  -15.4644 C   0  0  1  0  0  0  0  0  0  0  0  0
   23.7583   -8.4086  -15.8233 C   0  0  0  0  0  0  0  0  0  0  0  0
   24.1505   -7.9756  -16.9279 O   0  0  0  0  0  0  0  0  0  0  0  0
   23.0452   -7.5342  -14.9845 N   0  0  0  0  0  0  0  0  0  0  0  0
   22.6315   -6.2008  -15.3782 C   0  0  1  0  0  0  0  0  0  0  0  0
   21.1297   -6.2761  -15.6277 C   0  0  0  0  0  0  0  0  0  0  0  0
   20.4469   -4.6284  -15.9479 S   0  0  0  0  0  0  0  0  0  0  0  0
   22.8188   -5.2771  -14.2242 C   0  0  0  0  0  0  0  0  0  0  0  0
   23.0635   -3.9234  -14.3943 O   0  0  0  0  0  0  0  0  0  0  0  0
   22.7607   -5.6983  -13.0318 O   0  0  0  0  0  0  0  0  0  0  0  0
  2  1  1  6
  2  4  1  0
  2  3  1  0
  5  7  1  0
  5  4  1  0
  5  6  1  1
  7  8  2  0
  9 13  1  0
  9  7  1  0
 10  9  1  0
 11 10  1  0
 11 12  1  0
 12 13  1  0
 13 14  1  6
 14 15  2  0
 16 14  1  0
 17 16  1  0
 17 20  1  0
 17 18  1  1
 19 18  1  0
 20 22  2  0
 20 21  1  0
M  END
$$$$
