LPC.pdb
     RDKit          3D

 22 22  0  0  1  0  0  0  0  0999 V2000
   13.9607   -9.5425  -16.5511 C   0  0  0  0  0  0  0  0  0  0  0  0
   14.5259  -10.8286  -15.9724 C   0  0  2  0  0  0  0  0  0  0  0  0
   13.5680  -11.9611  -16.3020 C   0  0  0  0  0  0  0  0  0  0  0  0
   14.7429  -10.7131  -14.4833 C   0  0  0  0  0  0  0  0  0  0  0  0
   16.2338  -10.9487  -14.2324 C   0  0  2  0  0  0  0  0  0  0  0  0
   16.4480  -12.3400  -14.0908 N   0  0  0  0  0  0  0  0  0  0  0  0
   16.6830  -10.0901  -13.1231 C   0  0  0  0  0  0  0  0  0  0  0  0
   16.7900  -10.6735  -11.9821 O   0  0  0  0  0  0  0  0  0  0  0  0
   17.0032   -8.7231  -13.1683 N   0  0  0  0  0  0  0  0  0  0  0  0
   16.9229   -7.7957  -14.2519 C   0  0  0  0  0  0  0  0  0  0  0  0
   18.1681   -6.9238  -14.0193 C   0  0  0  0  0  0  0  0  0  0  0  0
   18.6329   -7.1989  -12.6271 C   0  0  0  0  0  0  0  0  0  0  0  0
   17.5005   -7.9737  -12.0341 C   0  0  1  0  0  0  0  0  0  0  0  0
   16.4491   -7.1269  -11.4107 C   0  0  0  0  0  0  0  0  0  0  0  0
   15.6133   -6.5715  -12.1552 O   0  0  0  0  0  0  0  0  0  0  0  0
   16.3442   -6.9168  -10.0245 N   0  0  0  0  0  0  0  0  0  0  0  0
   15.2657   -6.1718   -9.4035 C   0  0  1  0  0  0  0  0  0  0  0  0
   15.1017   -6.7471   -8.0014 C   0  0  0  0  0  0  0  0  0  0  0  0
   14.4916   -8.4519   -8.0725 S   0  0  0  0  0  0  0  0  0  0  0  0
   15.6958   -4.7561   -9.2279 C   0  0  0  0  0  0  0  0  0  0  0  0
   14.8080   -3.7541   -8.8683 O   0  0  0  0  0  0  0  0  0  0  0  0
   16.9013   -4.4111   -9.4022 O   0  0  0  0  0  0  0  0  0  0  0  0
  2  1  1  1
  2  4  1  0
  2  3  1  0
  5  7  1  0
  5  4  1  0
  5  6  1  1
  7  8  2  0
  9 13  1  0
  9  7  1  0
 10  9  1  0
 11 10  1  0
 11 12  1  0
 12 13  1  0
 13 14  1  6
 14 15  2  0
 16 14  1  0
 17 16  1  0
 17 20  1  0
 17 18  1  1
 19 18  1  0
 20 22  2  0
 20 21  1  0
M  END
$$$$
