LPC.pdb
     RDKit          3D

 22 22  0  0  1  0  0  0  0  0999 V2000
   18.4660   -9.8226  -19.0273 C   0  0  0  0  0  0  0  0  0  0  0  0
   17.2218  -10.2931  -18.2930 C   0  0  2  0  0  0  0  0  0  0  0  0
   16.0051   -9.7264  -19.0052 C   0  0  0  0  0  0  0  0  0  0  0  0
   17.2484   -9.8768  -16.8426 C   0  0  0  0  0  0  0  0  0  0  0  0
   18.4192  -10.6150  -16.1903 C   0  0  2  0  0  0  0  0  0  0  0  0
   18.1451  -12.0027  -16.2223 N   0  0  0  0  0  0  0  0  0  0  0  0
   18.6951  -10.0216  -14.8707 C   0  0  0  0  0  0  0  0  0  0  0  0
   18.2640  -10.6933  -13.8624 O   0  0  0  0  0  0  0  0  0  0  0  0
   19.3666   -8.8198  -14.5911 N   0  0  0  0  0  0  0  0  0  0  0  0
   19.8951   -7.8341  -15.4796 C   0  0  0  0  0  0  0  0  0  0  0  0
   21.1822   -7.4071  -14.7544 C   0  0  0  0  0  0  0  0  0  0  0  0
   21.0767   -7.9154  -13.3542 C   0  0  0  0  0  0  0  0  0  0  0  0
   19.6492   -8.3469  -13.2525 C   0  0  1  0  0  0  0  0  0  0  0  0
   18.7199   -7.2673  -12.8261 C   0  0  0  0  0  0  0  0  0  0  0  0
   18.1854   -6.5599  -13.7066 O   0  0  0  0  0  0  0  0  0  0  0  0
   18.4091   -6.9984  -11.4816 N   0  0  0  0  0  0  0  0  0  0  0  0
   17.3369   -6.1146  -11.0652 C   0  0  1  0  0  0  0  0  0  0  0  0
   17.0226   -6.4770   -9.6184 C   0  0  0  0  0  0  0  0  0  0  0  0
   15.8648   -5.2863   -8.8935 S   0  0  0  0  0  0  0  0  0  0  0  0
   17.8460   -4.7145  -11.0454 C   0  0  0  0  0  0  0  0  0  0  0  0
   17.0277   -3.6276  -11.3109 O   0  0  0  0  0  0  0  0  0  0  0  0
   19.0582   -4.4617  -10.7824 O   0  0  0  0  0  0  0  0  0  0  0  0
  2  1  1  6
  2  4  1  0
  2  3  1  0
  5  7  1  0
  5  4  1  0
  5  6  1  1
  7  8  2  0
  9 13  1  0
  9  7  1  0
 10  9  1  0
 11 10  1  0
 11 12  1  0
 12 13  1  0
 13 14  1  6
 14 15  2  0
 16 14  1  0
 17 16  1  0
 17 20  1  0
 17 18  1  1
 19 18  1  0
 20 22  2  0
 20 21  1  0
M  END
$$$$
