LPC.pdb
     RDKit          3D

 22 22  0  0  1  0  0  0  0  0999 V2000
   22.5652  -12.9704  -19.9879 C   0  0  0  0  0  0  0  0  0  0  0  0
   21.5570  -11.9053  -20.3849 C   0  0  2  0  0  0  0  0  0  0  0  0
   22.0593  -11.2192  -21.6442 C   0  0  0  0  0  0  0  0  0  0  0  0
   21.3401  -10.9105  -19.2708 C   0  0  0  0  0  0  0  0  0  0  0  0
   20.7512  -11.6866  -18.0910 C   0  0  2  0  0  0  0  0  0  0  0  0
   19.4951  -12.2073  -18.4819 N   0  0  0  0  0  0  0  0  0  0  0  0
   20.7741  -10.8367  -16.8883 C   0  0  0  0  0  0  0  0  0  0  0  0
   19.6277  -10.4086  -16.4931 O   0  0  0  0  0  0  0  0  0  0  0  0
   21.8917  -10.4442  -16.1331 N   0  0  0  0  0  0  0  0  0  0  0  0
   23.2836  -10.6586  -16.3720 C   0  0  0  0  0  0  0  0  0  0  0  0
   23.8194  -10.8944  -14.9500 C   0  0  0  0  0  0  0  0  0  0  0  0
   22.7591  -10.4285  -14.0073 C   0  0  0  0  0  0  0  0  0  0  0  0
   21.8068   -9.6963  -14.8967 C   0  0  1  0  0  0  0  0  0  0  0  0
   22.1361   -8.2581  -15.0818 C   0  0  0  0  0  0  0  0  0  0  0  0
   23.0376   -7.9535  -15.8916 O   0  0  0  0  0  0  0  0  0  0  0  0
   21.4859   -7.2193  -14.3928 N   0  0  0  0  0  0  0  0  0  0  0  0
   21.7169   -5.8117  -14.6561 C   0  0  1  0  0  0  0  0  0  0  0  0
   20.3402   -5.1671  -14.7691 C   0  0  0  0  0  0  0  0  0  0  0  0
   19.4153   -5.8646  -16.1626 S   0  0  0  0  0  0  0  0  0  0  0  0
   22.3701   -5.1989  -13.4655 C   0  0  0  0  0  0  0  0  0  0  0  0
   22.9417   -3.9367  -13.5049 O   0  0  0  0  0  0  0  0  0  0  0  0
   22.4283   -5.8144  -12.3608 O   0  0  0  0  0  0  0  0  0  0  0  0
  2  1  1  1
  2  4  1  0
  2  3  1  0
  5  7  1  0
  5  4  1  0
  5  6  1  6
  7  8  2  0
  9 13  1  0
  9  7  1  0
 10  9  1  0
 11 10  1  0
 11 12  1  0
 12 13  1  0
 13 14  1  6
 14 15  2  0
 16 14  1  0
 17 16  1  0
 17 20  1  0
 17 18  1  1
 19 18  1  0
 20 22  2  0
 20 21  1  0
M  END
$$$$
