LPC.pdb
     RDKit          3D

 22 22  0  0  1  0  0  0  0  0999 V2000
   21.7022  -28.9041  -10.3838 C   0  0  0  0  0  0  0  0  0  0  0  0
   22.1481  -30.1900  -11.0590 C   0  0  2  0  0  0  0  0  0  0  0  0
   21.5441  -30.2310  -12.4527 C   0  0  0  0  0  0  0  0  0  0  0  0
   21.7465  -31.4020  -10.2542 C   0  0  0  0  0  0  0  0  0  0  0  0
   22.3552  -32.6200  -10.9521 C   0  0  2  0  0  0  0  0  0  0  0  0
   21.3820  -33.1700  -11.8192 N   0  0  0  0  0  0  0  0  0  0  0  0
   22.9324  -33.5228   -9.9415 C   0  0  0  0  0  0  0  0  0  0  0  0
   22.1971  -34.5252   -9.6127 O   0  0  0  0  0  0  0  0  0  0  0  0
   24.1789  -33.4149   -9.3028 N   0  0  0  0  0  0  0  0  0  0  0  0
   25.1501  -32.3686   -9.3536 C   0  0  0  0  0  0  0  0  0  0  0  0
   26.4705  -33.1563   -9.3236 C   0  0  0  0  0  0  0  0  0  0  0  0
   26.1344  -34.5444   -8.8874 C   0  0  0  0  0  0  0  0  0  0  0  0
   24.7208  -34.4234   -8.4170 C   0  0  1  0  0  0  0  0  0  0  0  0
   24.5901  -34.0470   -6.9844 C   0  0  0  0  0  0  0  0  0  0  0  0
   24.7926  -32.8572   -6.6608 O   0  0  0  0  0  0  0  0  0  0  0  0
   24.2500  -34.9603   -5.9710 N   0  0  0  0  0  0  0  0  0  0  0  0
   24.1389  -34.6022   -4.5699 C   0  0  1  0  0  0  0  0  0  0  0  0
   23.0051  -35.4480   -4.0018 C   0  0  0  0  0  0  0  0  0  0  0  0
   21.4713  -34.4879   -3.9061 S   0  0  0  0  0  0  0  0  0  0  0  0
   25.3775  -35.0320   -3.8622 C   0  0  0  0  0  0  0  0  0  0  0  0
   25.6720  -34.6187   -2.5723 O   0  0  0  0  0  0  0  0  0  0  0  0
   26.2170  -35.7993   -4.4182 O   0  0  0  0  0  0  0  0  0  0  0  0
  2  1  1  1
  2  4  1  0
  2  3  1  0
  5  7  1  0
  5  4  1  0
  5  6  1  1
  7  8  2  0
  9 13  1  0
  9  7  1  0
 10  9  1  0
 11 10  1  0
 11 12  1  0
 12 13  1  0
 13 14  1  1
 14 15  2  0
 16 14  1  0
 17 16  1  0
 17 20  1  0
 17 18  1  1
 19 18  1  0
 20 22  2  0
 20 21  1  0
M  END
$$$$
