LPC.pdb
     RDKit          3D

 22 22  0  0  1  0  0  0  0  0999 V2000
   24.3653  -18.8592  -16.3494 C   0  0  0  0  0  0  0  0  0  0  0  0
   23.3163  -19.4373  -15.4145 C   0  0  2  0  0  0  0  0  0  0  0  0
   22.1847  -18.4313  -15.2874 C   0  0  0  0  0  0  0  0  0  0  0  0
   23.9051  -19.7700  -14.0653 C   0  0  0  0  0  0  0  0  0  0  0  0
   24.5764  -21.1384  -14.1991 C   0  0  2  0  0  0  0  0  0  0  0  0
   23.6069  -22.0699  -14.6396 N   0  0  0  0  0  0  0  0  0  0  0  0
   25.2859  -21.4576  -12.9484 C   0  0  0  0  0  0  0  0  0  0  0  0
   24.7350  -22.3600  -12.2163 O   0  0  0  0  0  0  0  0  0  0  0  0
   26.4806  -20.8952  -12.4691 N   0  0  0  0  0  0  0  0  0  0  0  0
   27.2551  -19.8093  -12.9804 C   0  0  0  0  0  0  0  0  0  0  0  0
   28.6918  -20.2847  -12.7069 C   0  0  0  0  0  0  0  0  0  0  0  0
   28.5939  -21.4175  -11.7389 C   0  0  0  0  0  0  0  0  0  0  0  0
   27.1712  -21.3584  -11.2843 C   0  0  1  0  0  0  0  0  0  0  0  0
   26.9464  -20.4685  -10.1144 C   0  0  0  0  0  0  0  0  0  0  0  0
   26.8190  -19.2418  -10.3155 O   0  0  0  0  0  0  0  0  0  0  0  0
   26.8694  -20.9340   -8.7900 N   0  0  0  0  0  0  0  0  0  0  0  0
   26.4859  -20.1014   -7.6659 C   0  0  1  0  0  0  0  0  0  0  0  0
   25.6923  -20.9975   -6.7222 C   0  0  0  0  0  0  0  0  0  0  0  0
   24.0524  -21.3580   -7.4039 S   0  0  0  0  0  0  0  0  0  0  0  0
   27.7133  -19.6955   -6.9252 C   0  0  0  0  0  0  0  0  0  0  0  0
   27.7128  -18.6545   -6.0099 O   0  0  0  0  0  0  0  0  0  0  0  0
   28.8150  -20.2925   -7.1056 O   0  0  0  0  0  0  0  0  0  0  0  0
  2  1  1  6
  2  4  1  0
  2  3  1  0
  5  7  1  0
  5  4  1  0
  5  6  1  1
  7  8  2  0
  9 13  1  0
  9  7  1  0
 10  9  1  0
 11 10  1  0
 11 12  1  0
 12 13  1  0
 13 14  1  1
 14 15  2  0
 16 14  1  0
 17 16  1  0
 17 20  1  0
 17 18  1  1
 19 18  1  0
 20 22  2  0
 20 21  1  0
M  END
$$$$
