LPC.pdb
     RDKit          3D

 22 22  0  0  1  0  0  0  0  0999 V2000
   20.8403  -34.1702  -11.6312 C   0  0  0  0  0  0  0  0  0  0  0  0
   21.1783  -35.5857  -11.1946 C   0  0  2  0  0  0  0  0  0  0  0  0
   19.9254  -36.2163  -10.6102 C   0  0  0  0  0  0  0  0  0  0  0  0
   22.3116  -35.5984  -10.1980 C   0  0  0  0  0  0  0  0  0  0  0  0
   23.5405  -35.0369  -10.9161 C   0  0  2  0  0  0  0  0  0  0  0  0
   23.9040  -35.9350  -11.9470 N   0  0  0  0  0  0  0  0  0  0  0  0
   24.5777  -34.7088   -9.9231 C   0  0  0  0  0  0  0  0  0  0  0  0
   25.5888  -35.5031   -9.8981 O   0  0  0  0  0  0  0  0  0  0  0  0
   24.5882  -33.6409   -9.0104 N   0  0  0  0  0  0  0  0  0  0  0  0
   23.5621  -32.7033   -8.6811 C   0  0  0  0  0  0  0  0  0  0  0  0
   24.3663  -31.4091   -8.4733 C   0  0  0  0  0  0  0  0  0  0  0  0
   25.7990  -31.8087   -8.3401 C   0  0  0  0  0  0  0  0  0  0  0  0
   25.7282  -33.2941   -8.1885 C   0  0  1  0  0  0  0  0  0  0  0  0
   25.5720  -33.7519   -6.7824 C   0  0  0  0  0  0  0  0  0  0  0  0
   24.4255  -33.7677   -6.2856 O   0  0  0  0  0  0  0  0  0  0  0  0
   26.6477  -34.1693   -5.9792 N   0  0  0  0  0  0  0  0  0  0  0  0
   26.4872  -34.7700   -4.6687 C   0  0  1  0  0  0  0  0  0  0  0  0
   27.7760  -35.5341   -4.3887 C   0  0  0  0  0  0  0  0  0  0  0  0
   27.9093  -36.9871   -5.4634 S   0  0  0  0  0  0  0  0  0  0  0  0
   26.4116  -33.6875   -3.6477 C   0  0  0  0  0  0  0  0  0  0  0  0
   26.1195  -33.9463   -2.3177 O   0  0  0  0  0  0  0  0  0  0  0  0
   26.6134  -32.4773   -3.9597 O   0  0  0  0  0  0  0  0  0  0  0  0
  2  1  1  1
  2  4  1  0
  2  3  1  0
  5  7  1  0
  5  4  1  0
  5  6  1  6
  7  8  2  0
  9 13  1  0
  9  7  1  0
 10  9  1  0
 11 10  1  0
 11 12  1  0
 12 13  1  0
 13 14  1  1
 14 15  2  0
 16 14  1  0
 17 16  1  0
 17 20  1  0
 17 18  1  1
 19 18  1  0
 20 22  2  0
 20 21  1  0
M  END
$$$$
