LPC.pdb
     RDKit          3D

 22 22  0  0  1  0  0  0  0  0999 V2000
   22.8936  -20.1946  -10.4117 C   0  0  0  0  0  0  0  0  0  0  0  0
   23.9917  -20.3162  -11.4547 C   0  0  2  0  0  0  0  0  0  0  0  0
   23.8065  -19.2044  -12.4738 C   0  0  0  0  0  0  0  0  0  0  0  0
   23.9739  -21.6722  -12.1169 C   0  0  0  0  0  0  0  0  0  0  0  0
   25.4034  -21.9580  -12.5818 C   0  0  2  0  0  0  0  0  0  0  0  0
   25.3724  -23.0612  -13.4670 N   0  0  0  0  0  0  0  0  0  0  0  0
   26.2844  -22.0721  -11.4070 C   0  0  0  0  0  0  0  0  0  0  0  0
   25.9970  -23.0244  -10.5920 O   0  0  0  0  0  0  0  0  0  0  0  0
   27.3888  -21.2686  -11.0784 N   0  0  0  0  0  0  0  0  0  0  0  0
   27.8942  -20.0951  -11.7172 C   0  0  0  0  0  0  0  0  0  0  0  0
   29.4136  -20.2785  -11.5670 C   0  0  0  0  0  0  0  0  0  0  0  0
   29.6198  -21.3430  -10.5403 C   0  0  0  0  0  0  0  0  0  0  0  0
   28.2584  -21.5168   -9.9481 C   0  0  1  0  0  0  0  0  0  0  0  0
   27.9750  -20.6076   -8.8061 C   0  0  0  0  0  0  0  0  0  0  0  0
   27.3968  -19.5242   -9.0372 O   0  0  0  0  0  0  0  0  0  0  0  0
   28.3233  -20.9019   -7.4762 N   0  0  0  0  0  0  0  0  0  0  0  0
   27.9811  -20.0555   -6.3490 C   0  0  1  0  0  0  0  0  0  0  0  0
   28.4511  -20.7950   -5.1017 C   0  0  0  0  0  0  0  0  0  0  0  0
   27.0928  -20.9884   -3.9179 S   0  0  0  0  0  0  0  0  0  0  0  0
   28.7868  -18.8044   -6.4229 C   0  0  0  0  0  0  0  0  0  0  0  0
   28.4232  -17.6511   -5.7454 O   0  0  0  0  0  0  0  0  0  0  0  0
   29.8454  -18.7467   -7.1148 O   0  0  0  0  0  0  0  0  0  0  0  0
  2  1  1  1
  2  4  1  0
  2  3  1  0
  5  7  1  0
  5  4  1  0
  5  6  1  1
  7  8  2  0
  9 13  1  0
  9  7  1  0
 10  9  1  0
 11 10  1  0
 11 12  1  0
 12 13  1  0
 13 14  1  1
 14 15  2  0
 16 14  1  0
 17 16  1  0
 17 20  1  0
 17 18  1  1
 19 18  1  0
 20 22  2  0
 20 21  1  0
M  END
$$$$
