LPC.pdb
     RDKit          3D

 22 22  0  0  1  0  0  0  0  0999 V2000
   23.4977  -18.7615  -14.2219 C   0  0  0  0  0  0  0  0  0  0  0  0
   22.6654  -19.8625  -13.5866 C   0  0  2  0  0  0  0  0  0  0  0  0
   21.2774  -19.3105  -13.3081 C   0  0  0  0  0  0  0  0  0  0  0  0
   23.3102  -20.3807  -12.3242 C   0  0  0  0  0  0  0  0  0  0  0  0
   24.4165  -21.3460  -12.7548 C   0  0  2  0  0  0  0  0  0  0  0  0
   23.8170  -22.4499  -13.4058 N   0  0  0  0  0  0  0  0  0  0  0  0
   25.2804  -21.6437  -11.5996 C   0  0  0  0  0  0  0  0  0  0  0  0
   24.8651  -22.5846  -10.8277 O   0  0  0  0  0  0  0  0  0  0  0  0
   26.4913  -21.0242  -11.2484 N   0  0  0  0  0  0  0  0  0  0  0  0
   27.1509  -19.8990  -11.8311 C   0  0  0  0  0  0  0  0  0  0  0  0
   28.6305  -20.3032  -11.7205 C   0  0  0  0  0  0  0  0  0  0  0  0
   28.6950  -21.4432  -10.7582 C   0  0  0  0  0  0  0  0  0  0  0  0
   27.3295  -21.4569  -10.1504 C   0  0  1  0  0  0  0  0  0  0  0  0
   27.1907  -20.5838   -8.9548 C   0  0  0  0  0  0  0  0  0  0  0  0
   26.7708  -19.4178   -9.1148 O   0  0  0  0  0  0  0  0  0  0  0  0
   27.5073  -21.0005   -7.6499 N   0  0  0  0  0  0  0  0  0  0  0  0
   27.3223  -20.1718   -6.4739 C   0  0  1  0  0  0  0  0  0  0  0  0
   27.7170  -21.0321   -5.2791 C   0  0  0  0  0  0  0  0  0  0  0  0
   27.7652  -20.0430   -3.7615 S   0  0  0  0  0  0  0  0  0  0  0  0
   28.2964  -19.0453   -6.5193 C   0  0  0  0  0  0  0  0  0  0  0  0
   28.0424  -17.8248   -5.9133 O   0  0  0  0  0  0  0  0  0  0  0  0
   29.4050  -19.1616   -7.1193 O   0  0  0  0  0  0  0  0  0  0  0  0
  2  1  1  1
  2  4  1  0
  2  3  1  0
  5  7  1  0
  5  4  1  0
  5  6  1  1
  7  8  2  0
  9 13  1  0
  9  7  1  0
 10  9  1  0
 11 10  1  0
 11 12  1  0
 12 13  1  0
 13 14  1  1
 14 15  2  0
 16 14  1  0
 17 16  1  0
 17 20  1  0
 17 18  1  1
 19 18  1  0
 20 22  2  0
 20 21  1  0
M  END
$$$$
