LPC.pdb
     RDKit          3D

 22 22  0  0  1  0  0  0  0  0999 V2000
   13.6991  -10.0061  -12.6768 C   0  0  0  0  0  0  0  0  0  0  0  0
   14.0272   -8.9608  -11.6241 C   0  0  2  0  0  0  0  0  0  0  0  0
   13.3729   -7.6515  -12.0321 C   0  0  0  0  0  0  0  0  0  0  0  0
   15.5182   -8.7972  -11.4572 C   0  0  0  0  0  0  0  0  0  0  0  0
   16.1638  -10.1006  -11.9320 C   0  0  2  0  0  0  0  0  0  0  0  0
   16.2954  -10.9645  -10.8193 N   0  0  0  0  0  0  0  0  0  0  0  0
   17.3925   -9.7907  -12.6828 C   0  0  0  0  0  0  0  0  0  0  0  0
   18.4909  -10.1367  -12.1107 O   0  0  0  0  0  0  0  0  0  0  0  0
   17.5004   -9.1671  -13.9370 N   0  0  0  0  0  0  0  0  0  0  0  0
   16.4808   -8.7060  -14.8249 C   0  0  0  0  0  0  0  0  0  0  0  0
   17.0789   -9.0431  -16.2009 C   0  0  0  0  0  0  0  0  0  0  0  0
   18.5296   -9.3224  -15.9836 C   0  0  0  0  0  0  0  0  0  0  0  0
   18.7610   -8.8630  -14.5802 C   0  0  1  0  0  0  0  0  0  0  0  0
   19.1217   -7.4249  -14.4661 C   0  0  0  0  0  0  0  0  0  0  0  0
   18.2015   -6.5885  -14.3436 O   0  0  0  0  0  0  0  0  0  0  0  0
   20.4461   -6.9539  -14.4889 N   0  0  0  0  0  0  0  0  0  0  0  0
   20.8259   -5.6035  -14.1199 C   0  0  1  0  0  0  0  0  0  0  0  0
   22.2261   -5.7014  -13.5254 C   0  0  0  0  0  0  0  0  0  0  0  0
   22.8193   -4.0705  -13.0037 S   0  0  0  0  0  0  0  0  0  0  0  0
   20.9523   -4.7827  -15.3569 C   0  0  0  0  0  0  0  0  0  0  0  0
   20.6836   -3.4230  -15.3712 O   0  0  0  0  0  0  0  0  0  0  0  0
   21.3138   -5.3017  -16.4535 O   0  0  0  0  0  0  0  0  0  0  0  0
  2  1  1  6
  2  4  1  0
  2  3  1  0
  5  7  1  0
  5  4  1  0
  5  6  1  1
  7  8  2  0
  9 13  1  0
  9  7  1  0
 10  9  1  0
 11 10  1  0
 11 12  1  0
 12 13  1  0
 13 14  1  6
 14 15  2  0
 16 14  1  0
 17 16  1  0
 17 20  1  0
 17 18  1  6
 19 18  1  0
 20 22  2  0
 20 21  1  0
M  END
$$$$
