RNK.pdb
     RDKit          3D

 29 28  0  0  1  0  0  0  0  0999 V2000
   29.9340  -23.4320  -15.9906 N   0  0  0  0  0  0  0  0  0  0  0  0
   29.8910  -24.4736  -16.9505 C   0  0  0  0  0  0  0  0  0  0  0  0
   30.9292  -25.1232  -17.3494 N   0  0  0  0  0  0  0  0  0  0  0  0
   28.6336  -24.8246  -17.5068 N   0  0  0  0  0  0  0  0  0  0  0  0
   27.4137  -24.1434  -17.0809 C   0  0  0  0  0  0  0  0  0  0  0  0
   27.4193  -22.6939  -17.4886 C   0  0  0  0  0  0  0  0  0  0  0  0
   26.1089  -22.0531  -17.0641 C   0  0  0  0  0  0  0  0  0  0  0  0
   26.3356  -21.1058  -15.8923 C   0  0  2  0  0  0  0  0  0  0  0  0
   26.9205  -21.7715  -14.7603 N   0  0  0  0  0  0  0  0  0  0  0  0
   25.0159  -20.5100  -15.5088 C   0  0  0  0  0  0  0  0  0  0  0  0
   24.4858  -20.7710  -14.3908 O   0  0  0  0  0  0  0  0  0  0  0  0
   30.8103  -25.8459  -18.0862 N   0  0  0  0  0  0  0  0  0  0  0  0
   21.5634  -16.0836  -14.9650 C   0  0  0  0  0  0  0  0  0  0  0  0
   21.6797  -16.9406  -16.0586 O   0  0  0  0  0  0  0  0  0  0  0  0
   20.6354  -17.1903  -16.7310 C   0  0  0  0  0  0  0  0  0  0  0  0
   22.9245  -17.5974  -16.5173 C   0  0  1  0  0  0  0  0  0  0  0  0
   23.1088  -18.9697  -15.9351 N   0  0  0  0  0  0  0  0  0  0  0  0
   24.2926  -19.6353  -16.3551 C   0  0  0  0  0  0  0  0  0  0  0  0
   21.9172  -19.8279  -16.1107 O   0  0  0  0  0  0  0  0  0  0  0  0
   22.0408  -20.9084  -16.7289 N   0  0  0  0  0  0  0  0  0  0  0  0
   20.6410  -19.4778  -15.6082 C   0  0  1  0  0  0  0  0  0  0  0  0
   19.7173  -20.4450  -15.0508 C   0  0  0  0  0  0  0  0  0  0  0  0
   20.4979  -21.4602  -14.2449 C   0  0  0  0  0  0  0  0  0  0  0  0
   19.9415  -21.6191  -12.8534 C   0  0  0  0  0  0  0  0  0  0  0  0
   20.0510  -23.0400  -12.3561 C   0  0  0  0  0  0  0  0  0  0  0  0
   19.5580  -23.2117  -10.9392 N   0  0  0  0  0  0  0  0  0  0  0  0
   19.6396  -24.5875  -10.5039 C   0  0  0  0  0  0  0  0  0  0  0  0
   18.6605  -19.7813  -14.2643 O   0  0  0  0  0  0  0  0  0  0  0  0
   17.6795  -20.4724  -13.8845 O   0  0  0  0  0  0  0  0  0  0  0  0
  1  2  1  0
  2  3  2  0
  4  5  1  0
  4  2  1  0
  6  7  1  0
  6  5  1  0
  8  9  1  1
  8  7  1  0
 10 11  2  0
 10  8  1  0
 12 13  1  0
 13 15  1  0
 13 14  2  0
 16 15  1  1
 16 18  1  0
 16 17  1  0
 17 10  1  0
 18 20  1  0
 19 18  2  0
 20 21  1  0
 21 27  1  0
 21 22  1  6
 23 22  1  0
 24 25  1  0
 24 23  1  0
 26 25  1  0
 27 28  2  0
 27 29  1  0
M  END
$$$$
