RNK.pdb
     RDKit          3D

 29 28  0  0  1  0  0  0  0  0999 V2000
   34.0584  -23.9887  -19.5893 N   0  0  0  0  0  0  0  0  0  0  0  0
   35.2542  -24.7377  -19.4590 C   0  0  0  0  0  0  0  0  0  0  0  0
   36.3586  -24.4316  -20.0469 N   0  0  0  0  0  0  0  0  0  0  0  0
   35.2385  -25.8923  -18.6342 N   0  0  0  0  0  0  0  0  0  0  0  0
   33.9987  -26.6308  -18.4090 C   0  0  0  0  0  0  0  0  0  0  0  0
   33.4387  -27.1757  -19.6962 C   0  0  0  0  0  0  0  0  0  0  0  0
   32.1107  -27.8566  -19.4118 C   0  0  0  0  0  0  0  0  0  0  0  0
   32.3381  -29.2058  -18.7413 C   0  0  2  0  0  0  0  0  0  0  0  0
   33.2991  -30.0087  -19.4471 N   0  0  0  0  0  0  0  0  0  0  0  0
   31.0247  -29.9229  -18.6734 C   0  0  0  0  0  0  0  0  0  0  0  0
   30.5512  -30.5085  -19.6892 O   0  0  0  0  0  0  0  0  0  0  0  0
   37.1781  -25.0579  -19.9220 N   0  0  0  0  0  0  0  0  0  0  0  0
   30.4448  -33.1361  -16.9759 C   0  0  0  0  0  0  0  0  0  0  0  0
   29.5919  -32.6129  -16.0050 O   0  0  0  0  0  0  0  0  0  0  0  0
   29.5219  -33.2122  -14.8909 C   0  0  0  0  0  0  0  0  0  0  0  0
   28.7471  -31.4063  -16.1518 C   0  0  2  0  0  0  0  0  0  0  0  0
   28.9990  -30.6705  -17.4368 N   0  0  0  0  0  0  0  0  0  0  0  0
   30.2457  -29.9899  -17.4930 C   0  0  0  0  0  0  0  0  0  0  0  0
   27.8807  -29.7778  -17.8109 O   0  0  0  0  0  0  0  0  0  0  0  0
   27.6867  -28.7425  -17.1360 N   0  0  0  0  0  0  0  0  0  0  0  0
   27.0194  -30.0458  -18.9018 C   0  0  1  0  0  0  0  0  0  0  0  0
   26.0294  -29.1017  -19.3790 C   0  0  0  0  0  0  0  0  0  0  0  0
   26.0497  -29.0929  -20.8919 C   0  0  0  0  0  0  0  0  0  0  0  0
   27.2406  -28.3438  -21.4323 C   0  0  0  0  0  0  0  0  0  0  0  0
   27.4591  -28.6078  -22.9022 C   0  0  0  0  0  0  0  0  0  0  0  0
   28.6886  -27.9240  -23.4508 N   0  0  0  0  0  0  0  0  0  0  0  0
   28.8895  -28.2200  -24.8512 C   0  0  0  0  0  0  0  0  0  0  0  0
   24.6951  -29.4036  -18.8270 O   0  0  0  0  0  0  0  0  0  0  0  0
   23.7453  -28.6277  -19.1102 O   0  0  0  0  0  0  0  0  0  0  0  0
  1  2  1  0
  2  3  2  0
  4  5  1  0
  4  2  1  0
  6  7  1  0
  6  5  1  0
  8  9  1  6
  8  7  1  0
 10 11  2  0
 10  8  1  0
 12 13  1  0
 13 15  1  0
 13 14  2  0
 16 15  1  6
 16 18  1  0
 16 17  1  0
 17 10  1  0
 18 20  1  0
 19 18  2  0
 20 21  1  0
 21 27  1  0
 21 22  1  6
 23 22  1  0
 24 25  1  0
 24 23  1  0
 26 25  1  0
 27 28  2  0
 27 29  1  0
M  END
$$$$
