RNK.pdb
     RDKit          3D

 29 28  0  0  1  0  0  0  0  0999 V2000
   31.8179  -21.3310  -10.1621 N   0  0  0  0  0  0  0  0  0  0  0  0
   30.9219  -22.0223  -11.0148 C   0  0  0  0  0  0  0  0  0  0  0  0
   31.2048  -22.3662  -12.2234 N   0  0  0  0  0  0  0  0  0  0  0  0
   29.6376  -22.3571  -10.5123 N   0  0  0  0  0  0  0  0  0  0  0  0
   28.4345  -22.0650  -11.2872 C   0  0  0  0  0  0  0  0  0  0  0  0
   28.0752  -20.6043  -11.2202 C   0  0  0  0  0  0  0  0  0  0  0  0
   26.6308  -20.4678  -10.7697 C   0  0  0  0  0  0  0  0  0  0  0  0
   25.7750  -21.5661  -11.3886 C   0  0  2  0  0  0  0  0  0  0  0  0
   26.4649  -22.2673  -12.4369 N   0  0  0  0  0  0  0  0  0  0  0  0
   24.5265  -20.9393  -11.9290 C   0  0  0  0  0  0  0  0  0  0  0  0
   23.8667  -20.1083  -11.2411 O   0  0  0  0  0  0  0  0  0  0  0  0
   30.4643  -22.8129  -12.7992 N   0  0  0  0  0  0  0  0  0  0  0  0
   24.4359  -18.6724  -15.8463 C   0  0  0  0  0  0  0  0  0  0  0  0
   23.2640  -18.9587  -15.1472 O   0  0  0  0  0  0  0  0  0  0  0  0
   22.6739  -18.0032  -14.5610 C   0  0  0  0  0  0  0  0  0  0  0  0
   22.6327  -20.2917  -15.0216 C   0  0  2  0  0  0  0  0  0  0  0  0
   22.7104  -20.8451  -13.6274 N   0  0  0  0  0  0  0  0  0  0  0  0
   24.0156  -21.2307  -13.2169 C   0  0  0  0  0  0  0  0  0  0  0  0
   21.7293  -21.9255  -13.3877 O   0  0  0  0  0  0  0  0  0  0  0  0
   22.1500  -23.0888  -13.2020 N   0  0  0  0  0  0  0  0  0  0  0  0
   20.3323  -21.6984  -13.3595 C   0  0  1  0  0  0  0  0  0  0  0  0
   19.3926  -22.6208  -12.7550 C   0  0  0  0  0  0  0  0  0  0  0  0
   19.7979  -22.8612  -11.3171 C   0  0  0  0  0  0  0  0  0  0  0  0
   18.9146  -23.8832  -10.6489 C   0  0  0  0  0  0  0  0  0  0  0  0
   18.9180  -23.7420   -9.1462 C   0  0  0  0  0  0  0  0  0  0  0  0
   18.0453  -24.7610   -8.4533 N   0  0  0  0  0  0  0  0  0  0  0  0
   17.9634  -24.5208   -7.0304 C   0  0  0  0  0  0  0  0  0  0  0  0
   18.0070  -22.1316  -12.8842 O   0  0  0  0  0  0  0  0  0  0  0  0
   17.0707  -22.9684  -12.7981 O   0  0  0  0  0  0  0  0  0  0  0  0
  1  2  1  0
  2  3  2  0
  4  5  1  0
  4  2  1  0
  6  7  1  0
  6  5  1  0
  8  9  1  6
  8  7  1  0
 10 11  2  0
 10  8  1  0
 12 13  1  0
 13 15  1  0
 13 14  2  0
 16 15  1  1
 16 18  1  0
 16 17  1  0
 17 10  1  0
 18 20  1  0
 19 18  2  0
 20 21  1  0
 21 27  1  0
 21 22  1  6
 23 22  1  0
 24 25  1  0
 24 23  1  0
 26 25  1  0
 27 28  2  0
 27 29  1  0
M  END
$$$$
