RNK.pdb
     RDKit          3D

 29 28  0  0  1  0  0  0  0  0999 V2000
   10.5380  -11.9245  -10.9346 N   0  0  0  0  0  0  0  0  0  0  0  0
   10.5871  -11.7565   -9.5284 C   0  0  0  0  0  0  0  0  0  0  0  0
    9.5972  -12.0043   -8.7425 N   0  0  0  0  0  0  0  0  0  0  0  0
   11.7947  -11.2886   -8.9483 N   0  0  0  0  0  0  0  0  0  0  0  0
   12.6057  -10.2805   -9.6261 C   0  0  0  0  0  0  0  0  0  0  0  0
   13.8760   -9.9937   -8.8702 C   0  0  0  0  0  0  0  0  0  0  0  0
   14.6966   -8.9766   -9.6448 C   0  0  0  0  0  0  0  0  0  0  0  0
   14.6434   -7.6172   -8.9586 C   0  0  2  0  0  0  0  0  0  0  0  0
   13.3180   -7.0606   -8.9567 N   0  0  0  0  0  0  0  0  0  0  0  0
   15.5838   -6.6948   -9.6716 C   0  0  0  0  0  0  0  0  0  0  0  0
   15.1922   -5.9989  -10.6522 O   0  0  0  0  0  0  0  0  0  0  0  0
    9.7074  -11.8095   -7.7280 N   0  0  0  0  0  0  0  0  0  0  0  0
   16.0215   -3.5695   -9.2424 C   0  0  0  0  0  0  0  0  0  0  0  0
   17.3474   -3.5672   -8.8113 O   0  0  0  0  0  0  0  0  0  0  0  0
   17.7151   -2.6426   -8.0270 C   0  0  0  0  0  0  0  0  0  0  0  0
   18.3834   -4.5556   -9.1869 C   0  0  2  0  0  0  0  0  0  0  0  0
   17.8369   -5.6921  -10.0029 N   0  0  0  0  0  0  0  0  0  0  0  0
   16.9424   -6.5459   -9.3018 C   0  0  0  0  0  0  0  0  0  0  0  0
   18.8973   -6.4658  -10.6842 O   0  0  0  0  0  0  0  0  0  0  0  0
   19.2488   -7.5626  -10.1960 N   0  0  0  0  0  0  0  0  0  0  0  0
   19.5323   -6.0170  -11.8671 C   0  0  1  0  0  0  0  0  0  0  0  0
   20.3317   -6.8803  -12.7127 C   0  0  0  0  0  0  0  0  0  0  0  0
   19.4711   -8.0278  -13.1944 C   0  0  0  0  0  0  0  0  0  0  0  0
   20.2139   -8.9213  -14.1542 C   0  0  0  0  0  0  0  0  0  0  0  0
   19.3992  -10.1270  -14.5550 C   0  0  0  0  0  0  0  0  0  0  0  0
   20.1680  -11.1031  -15.4131 N   0  0  0  0  0  0  0  0  0  0  0  0
   19.3414  -12.2075  -15.8445 C   0  0  0  0  0  0  0  0  0  0  0  0
   20.9459   -6.1226  -13.8193 O   0  0  0  0  0  0  0  0  0  0  0  0
   20.2839   -5.1862  -14.3379 O   0  0  0  0  0  0  0  0  0  0  0  0
  1  2  1  0
  2  3  2  0
  4  5  1  0
  4  2  1  0
  6  7  1  0
  6  5  1  0
  8  9  1  6
  8  7  1  0
 10 11  2  0
 10  8  1  0
 12 13  1  0
 13 15  1  0
 13 14  2  0
 16 15  1  6
 16 18  1  0
 16 17  1  0
 17 10  1  0
 18 20  1  0
 19 18  2  0
 20 21  1  0
 21 27  1  0
 21 22  1  1
 23 22  1  0
 24 25  1  0
 24 23  1  0
 26 25  1  0
 27 28  2  0
 27 29  1  0
M  END
$$$$
