RNK.pdb
     RDKit          3D

 29 28  0  0  1  0  0  0  0  0999 V2000
   29.1203  -26.2380  -16.3331 N   0  0  0  0  0  0  0  0  0  0  0  0
   28.3736  -26.7089  -17.4416 C   0  0  0  0  0  0  0  0  0  0  0  0
   28.8493  -27.4964  -18.3430 N   0  0  0  0  0  0  0  0  0  0  0  0
   27.0234  -26.2913  -17.5698 N   0  0  0  0  0  0  0  0  0  0  0  0
   26.3748  -25.5286  -16.5063 C   0  0  0  0  0  0  0  0  0  0  0  0
   26.5845  -24.0479  -16.6816 C   0  0  0  0  0  0  0  0  0  0  0  0
   25.9045  -23.3110  -15.5403 C   0  0  0  0  0  0  0  0  0  0  0  0
   24.4043  -23.5771  -15.5549 C   0  0  2  0  0  0  0  0  0  0  0  0
   23.7938  -23.1806  -16.7945 N   0  0  0  0  0  0  0  0  0  0  0  0
   23.7838  -22.8265  -14.4168 C   0  0  0  0  0  0  0  0  0  0  0  0
   24.3013  -22.8515  -13.2633 O   0  0  0  0  0  0  0  0  0  0  0  0
   28.2410  -27.7613  -19.1425 N   0  0  0  0  0  0  0  0  0  0  0  0
   21.7490  -19.4121  -11.1213 C   0  0  0  0  0  0  0  0  0  0  0  0
   21.3351  -19.2157  -12.4382 O   0  0  0  0  0  0  0  0  0  0  0  0
   20.4000  -18.3874  -12.6494 C   0  0  0  0  0  0  0  0  0  0  0  0
   21.8908  -19.8918  -13.6320 C   0  0  1  0  0  0  0  0  0  0  0  0
   21.9977  -21.3804  -13.4627 N   0  0  0  0  0  0  0  0  0  0  0  0
   22.6033  -22.0572  -14.5562 C   0  0  0  0  0  0  0  0  0  0  0  0
   20.7104  -22.0052  -13.0888 O   0  0  0  0  0  0  0  0  0  0  0  0
   19.8367  -22.1554  -13.9714 N   0  0  0  0  0  0  0  0  0  0  0  0
   20.4247  -22.4409  -11.7726 C   0  0  1  0  0  0  0  0  0  0  0  0
   19.1713  -23.0648  -11.4000 C   0  0  0  0  0  0  0  0  0  0  0  0
   19.1321  -23.2260   -9.8960 C   0  0  0  0  0  0  0  0  0  0  0  0
   18.4731  -24.5184   -9.4876 C   0  0  0  0  0  0  0  0  0  0  0  0
   18.5737  -24.7631   -8.0016 C   0  0  0  0  0  0  0  0  0  0  0  0
   17.9115  -26.0485   -7.5665 N   0  0  0  0  0  0  0  0  0  0  0  0
   17.9880  -26.2357   -6.1354 C   0  0  0  0  0  0  0  0  0  0  0  0
   18.0208  -22.3043  -11.9235 O   0  0  0  0  0  0  0  0  0  0  0  0
   17.9791  -21.0651  -11.7067 O   0  0  0  0  0  0  0  0  0  0  0  0
  1  2  1  0
  2  3  2  0
  4  5  1  0
  4  2  1  0
  6  7  1  0
  6  5  1  0
  8  9  1  6
  8  7  1  0
 10 11  2  0
 10  8  1  0
 12 13  1  0
 13 15  1  0
 13 14  2  0
 16 15  1  1
 16 18  1  0
 16 17  1  0
 17 10  1  0
 18 20  1  0
 19 18  2  0
 20 21  1  0
 21 27  1  0
 21 22  1  1
 23 22  1  0
 24 25  1  0
 24 23  1  0
 26 25  1  0
 27 28  2  0
 27 29  1  0
M  END
$$$$
