RNK.pdb
     RDKit          3D

 29 28  0  0  1  0  0  0  0  0999 V2000
   10.6630  -12.4888  -11.5301 N   0  0  0  0  0  0  0  0  0  0  0  0
   10.8507  -12.6934  -10.1405 C   0  0  0  0  0  0  0  0  0  0  0  0
   10.1848  -13.5499   -9.4464 N   0  0  0  0  0  0  0  0  0  0  0  0
   11.8277  -11.9116   -9.4711 N   0  0  0  0  0  0  0  0  0  0  0  0
   12.6946  -11.0031  -10.2171 C   0  0  0  0  0  0  0  0  0  0  0  0
   13.8911  -11.7211  -10.7828 C   0  0  0  0  0  0  0  0  0  0  0  0
   14.7804  -10.7182  -11.4980 C   0  0  0  0  0  0  0  0  0  0  0  0
   16.2283  -10.8783  -11.0512 C   0  0  2  0  0  0  0  0  0  0  0  0
   16.4119  -12.0238  -10.2023 N   0  0  0  0  0  0  0  0  0  0  0  0
   16.6350   -9.6334  -10.3242 C   0  0  0  0  0  0  0  0  0  0  0  0
   16.4314   -9.5107   -9.0822 O   0  0  0  0  0  0  0  0  0  0  0  0
   10.3801  -13.6241   -8.4286 N   0  0  0  0  0  0  0  0  0  0  0  0
   18.6147   -4.9930   -8.9194 C   0  0  0  0  0  0  0  0  0  0  0  0
   19.3046   -5.5248  -10.0080 O   0  0  0  0  0  0  0  0  0  0  0  0
   20.3551   -4.9305  -10.3930 C   0  0  0  0  0  0  0  0  0  0  0  0
   18.9227   -6.7354  -10.7695 C   0  0  1  0  0  0  0  0  0  0  0  0
   17.6541   -7.3641  -10.2679 N   0  0  0  0  0  0  0  0  0  0  0  0
   17.2601   -8.5375  -10.9668 C   0  0  0  0  0  0  0  0  0  0  0  0
   16.5397   -6.3970  -10.1680 O   0  0  0  0  0  0  0  0  0  0  0  0
   15.9645   -6.0325  -11.2175 N   0  0  0  0  0  0  0  0  0  0  0  0
   16.0958   -5.8655   -8.9334 C   0  0  1  0  0  0  0  0  0  0  0  0
   15.0016   -4.9218   -8.8256 C   0  0  0  0  0  0  0  0  0  0  0  0
   14.4257   -4.9967   -7.4284 C   0  0  0  0  0  0  0  0  0  0  0  0
   13.3025   -4.0114   -7.2314 C   0  0  0  0  0  0  0  0  0  0  0  0
   12.7795   -4.0212   -5.8156 C   0  0  0  0  0  0  0  0  0  0  0  0
   11.5614   -3.1488   -5.6277 N   0  0  0  0  0  0  0  0  0  0  0  0
   11.0131   -3.2695   -4.2959 C   0  0  0  0  0  0  0  0  0  0  0  0
   15.4336   -3.5602   -9.1937 O   0  0  0  0  0  0  0  0  0  0  0  0
   16.6614   -3.2897   -9.1342 O   0  0  0  0  0  0  0  0  0  0  0  0
  1  2  1  0
  2  3  2  0
  4  5  1  0
  4  2  1  0
  6  7  1  0
  6  5  1  0
  8  9  1  1
  8  7  1  0
 10 11  2  0
 10  8  1  0
 12 13  1  0
 13 15  1  0
 13 14  2  0
 16 15  1  1
 16 18  1  0
 16 17  1  0
 17 10  1  0
 18 20  1  0
 19 18  2  0
 20 21  1  0
 21 27  1  0
 21 22  1  6
 23 22  1  0
 24 25  1  0
 24 23  1  0
 26 25  1  0
 27 28  2  0
 27 29  1  0
M  END
$$$$
