RNK.pdb
     RDKit          3D

 29 28  0  0  1  0  0  0  0  0999 V2000
   26.4381  -20.7077   -8.4282 N   0  0  0  0  0  0  0  0  0  0  0  0
   25.1814  -21.0700   -8.9738 C   0  0  0  0  0  0  0  0  0  0  0  0
   24.0775  -21.0401   -8.3109 N   0  0  0  0  0  0  0  0  0  0  0  0
   25.1317  -21.4905  -10.3282 N   0  0  0  0  0  0  0  0  0  0  0  0
   26.3232  -21.4324  -11.1710 C   0  0  0  0  0  0  0  0  0  0  0  0
   26.2398  -20.3077  -12.1687 C   0  0  0  0  0  0  0  0  0  0  0  0
   25.1885  -20.6456  -13.2121 C   0  0  0  0  0  0  0  0  0  0  0  0
   25.8517  -21.0754  -14.5149 C   0  0  2  0  0  0  0  0  0  0  0  0
   26.9784  -21.9400  -14.2921 N   0  0  0  0  0  0  0  0  0  0  0  0
   26.2898  -19.8439  -15.2465 C   0  0  0  0  0  0  0  0  0  0  0  0
   26.9127  -18.9202  -14.6485 O   0  0  0  0  0  0  0  0  0  0  0  0
   23.2123  -21.3855   -8.7707 N   0  0  0  0  0  0  0  0  0  0  0  0
   27.7408  -16.3384  -18.8166 C   0  0  0  0  0  0  0  0  0  0  0  0
   28.5245  -17.1922  -18.0415 O   0  0  0  0  0  0  0  0  0  0  0  0
   29.7775  -17.0053  -18.0346 C   0  0  0  0  0  0  0  0  0  0  0  0
   28.0268  -18.3135  -17.2131 C   0  0  1  0  0  0  0  0  0  0  0  0
   26.5434  -18.5155  -17.3351 N   0  0  0  0  0  0  0  0  0  0  0  0
   26.0400  -19.6393  -16.6251 C   0  0  0  0  0  0  0  0  0  0  0  0
   26.0821  -18.5153  -18.7403 O   0  0  0  0  0  0  0  0  0  0  0  0
   26.6743  -19.2436  -19.5672 N   0  0  0  0  0  0  0  0  0  0  0  0
   24.9972  -17.7248  -19.1897 C   0  0  2  0  0  0  0  0  0  0  0  0
   24.5215  -17.7385  -20.5582 C   0  0  0  0  0  0  0  0  0  0  0  0
   24.0542  -16.3478  -20.9285 C   0  0  0  0  0  0  0  0  0  0  0  0
   22.9939  -15.8425  -19.9842 C   0  0  0  0  0  0  0  0  0  0  0  0
   22.4563  -14.4953  -20.4014 C   0  0  0  0  0  0  0  0  0  0  0  0
   21.4198  -13.9498  -19.4484 N   0  0  0  0  0  0  0  0  0  0  0  0
   20.8858  -12.6851  -19.9003 C   0  0  0  0  0  0  0  0  0  0  0  0
   25.5526  -18.2584  -21.4760 O   0  0  0  0  0  0  0  0  0  0  0  0
   26.1115  -17.4493  -22.2617 O   0  0  0  0  0  0  0  0  0  0  0  0
  1  2  1  0
  2  3  2  0
  4  5  1  0
  4  2  1  0
  6  7  1  0
  6  5  1  0
  8  9  1  1
  8  7  1  0
 10 11  2  0
 10  8  1  0
 12 13  1  0
 13 15  1  0
 13 14  2  0
 16 15  1  1
 16 18  1  0
 16 17  1  0
 17 10  1  0
 18 20  1  0
 19 18  2  0
 20 21  1  0
 21 27  1  0
 21 22  1  1
 23 22  1  0
 24 25  1  0
 24 23  1  0
 26 25  1  0
 27 28  2  0
 27 29  1  0
M  END
$$$$
