RNK.pdb
     RDKit          3D

 29 28  0  0  1  0  0  0  0  0999 V2000
   26.3466  -15.4411  -18.5069 N   0  0  0  0  0  0  0  0  0  0  0  0
   26.7488  -16.5070  -19.3496 C   0  0  0  0  0  0  0  0  0  0  0  0
   27.2927  -16.3403  -20.5052 N   0  0  0  0  0  0  0  0  0  0  0  0
   26.5423  -17.8365  -18.8982 N   0  0  0  0  0  0  0  0  0  0  0  0
   26.3734  -18.1230  -17.4760 C   0  0  0  0  0  0  0  0  0  0  0  0
   27.6488  -17.8900  -16.7102 C   0  0  0  0  0  0  0  0  0  0  0  0
   27.4130  -18.2076  -15.2434 C   0  0  0  0  0  0  0  0  0  0  0  0
   27.9439  -19.5960  -14.9082 C   0  0  2  0  0  0  0  0  0  0  0  0
   28.2104  -20.3752  -16.0865 N   0  0  0  0  0  0  0  0  0  0  0  0
   26.9294  -20.2923  -14.0540 C   0  0  0  0  0  0  0  0  0  0  0  0
   26.4164  -21.3892  -14.4185 O   0  0  0  0  0  0  0  0  0  0  0  0
   27.5013  -17.1790  -21.0817 N   0  0  0  0  0  0  0  0  0  0  0  0
   25.0395  -22.1459   -9.0794 C   0  0  0  0  0  0  0  0  0  0  0  0
   24.7297  -20.9308   -9.6891 O   0  0  0  0  0  0  0  0  0  0  0  0
   23.5643  -20.4629   -9.5219 C   0  0  0  0  0  0  0  0  0  0  0  0
   25.6445  -20.1220  -10.5257 C   0  0  1  0  0  0  0  0  0  0  0  0
   25.5576  -20.4657  -11.9853 N   0  0  0  0  0  0  0  0  0  0  0  0
   26.4890  -19.7784  -12.8104 C   0  0  0  0  0  0  0  0  0  0  0  0
   24.1819  -20.3527  -12.5163 O   0  0  0  0  0  0  0  0  0  0  0  0
   23.2868  -21.0751  -12.0246 N   0  0  0  0  0  0  0  0  0  0  0  0
   23.8347  -19.4603  -13.5589 C   0  0  2  0  0  0  0  0  0  0  0  0
   22.4942  -19.3574  -14.0991 C   0  0  0  0  0  0  0  0  0  0  0  0
   22.5234  -19.7480  -15.5606 C   0  0  0  0  0  0  0  0  0  0  0  0
   21.1482  -19.7193  -16.1763 C   0  0  0  0  0  0  0  0  0  0  0  0
   21.1638  -20.1497  -17.6229 C   0  0  0  0  0  0  0  0  0  0  0  0
   19.7984  -20.1142  -18.2665 N   0  0  0  0  0  0  0  0  0  0  0  0
   19.8509  -20.4892  -19.6614 C   0  0  0  0  0  0  0  0  0  0  0  0
   21.5391  -20.1600  -13.3119 O   0  0  0  0  0  0  0  0  0  0  0  0
   21.8081  -21.3726  -13.1080 O   0  0  0  0  0  0  0  0  0  0  0  0
  1  2  1  0
  2  3  2  0
  4  5  1  0
  4  2  1  0
  6  7  1  0
  6  5  1  0
  8  9  1  6
  8  7  1  0
 10 11  2  0
 10  8  1  0
 12 13  1  0
 13 15  1  0
 13 14  2  0
 16 15  1  1
 16 18  1  0
 16 17  1  0
 17 10  1  0
 18 20  1  0
 19 18  2  0
 20 21  1  0
 21 27  1  0
 21 22  1  6
 23 22  1  0
 24 25  1  0
 24 23  1  0
 26 25  1  0
 27 28  2  0
 27 29  1  0
M  END
$$$$
