RNK.pdb
     RDKit          3D

 29 28  0  0  1  0  0  0  0  0999 V2000
   17.0597  -30.7090   -8.0582 N   0  0  0  0  0  0  0  0  0  0  0  0
   16.5774  -32.0371   -7.9500 C   0  0  0  0  0  0  0  0  0  0  0  0
   15.9573  -32.6532   -8.8959 N   0  0  0  0  0  0  0  0  0  0  0  0
   16.7877  -32.7321   -6.7307 N   0  0  0  0  0  0  0  0  0  0  0  0
   17.3750  -32.0543   -5.5780 C   0  0  0  0  0  0  0  0  0  0  0  0
   16.3348  -31.3037   -4.7894 C   0  0  0  0  0  0  0  0  0  0  0  0
   17.0002  -30.6362   -3.5978 C   0  0  0  0  0  0  0  0  0  0  0  0
   18.3124  -29.9853   -4.0176 C   0  0  2  0  0  0  0  0  0  0  0  0
   19.4458  -30.5689   -3.3532 N   0  0  0  0  0  0  0  0  0  0  0  0
   18.2325  -28.5232   -3.7022 C   0  0  0  0  0  0  0  0  0  0  0  0
   19.2562  -27.8830   -3.3262 O   0  0  0  0  0  0  0  0  0  0  0  0
   15.6312  -33.6248   -8.7259 N   0  0  0  0  0  0  0  0  0  0  0  0
   19.3104  -25.7309   -5.1525 C   0  0  0  0  0  0  0  0  0  0  0  0
   18.0462  -25.2743   -5.5232 O   0  0  0  0  0  0  0  0  0  0  0  0
   17.9551  -24.5594   -6.5652 C   0  0  0  0  0  0  0  0  0  0  0  0
   16.7805  -25.5481   -4.8062 C   0  0  2  0  0  0  0  0  0  0  0  0
   16.9779  -26.3785   -3.5702 N   0  0  0  0  0  0  0  0  0  0  0  0
   17.0317  -27.7798   -3.8025 C   0  0  0  0  0  0  0  0  0  0  0  0
   16.0119  -26.0465   -2.5006 O   0  0  0  0  0  0  0  0  0  0  0  0
   14.8343  -26.4549   -2.6065 N   0  0  0  0  0  0  0  0  0  0  0  0
   16.3642  -25.2850   -1.3604 C   0  0  2  0  0  0  0  0  0  0  0  0
   15.4071  -24.8867   -0.3482 C   0  0  0  0  0  0  0  0  0  0  0  0
   16.1308  -24.1162    0.7344 C   0  0  0  0  0  0  0  0  0  0  0  0
   15.1783  -23.5724    1.7679 C   0  0  0  0  0  0  0  0  0  0  0  0
   15.8722  -22.6773    2.7656 C   0  0  0  0  0  0  0  0  0  0  0  0
   14.9137  -21.9642    3.6891 N   0  0  0  0  0  0  0  0  0  0  0  0
   15.5949  -21.0246    4.5506 C   0  0  0  0  0  0  0  0  0  0  0  0
   14.2896  -24.1275   -0.9403 O   0  0  0  0  0  0  0  0  0  0  0  0
   13.1160  -24.5179   -0.7067 O   0  0  0  0  0  0  0  0  0  0  0  0
  1  2  1  0
  2  3  2  0
  4  5  1  0
  4  2  1  0
  6  7  1  0
  6  5  1  0
  8  9  1  1
  8  7  1  0
 10 11  2  0
 10  8  1  0
 12 13  1  0
 13 15  1  0
 13 14  2  0
 16 15  1  6
 16 18  1  0
 16 17  1  0
 17 10  1  0
 18 20  1  0
 19 18  2  0
 20 21  1  0
 21 27  1  0
 21 22  1  6
 23 22  1  0
 24 25  1  0
 24 23  1  0
 26 25  1  0
 27 28  2  0
 27 29  1  0
M  END
$$$$
