RNK.pdb
     RDKit          3D

 29 28  0  0  1  0  0  0  0  0999 V2000
   28.8838  -21.7036  -15.7953 N   0  0  0  0  0  0  0  0  0  0  0  0
   28.3779  -21.7447  -17.1183 C   0  0  0  0  0  0  0  0  0  0  0  0
   28.9362  -22.3965  -18.0787 N   0  0  0  0  0  0  0  0  0  0  0  0
   27.1874  -21.0277  -17.4061 N   0  0  0  0  0  0  0  0  0  0  0  0
   26.3858  -20.4513  -16.3299 C   0  0  0  0  0  0  0  0  0  0  0  0
   26.2953  -21.3816  -15.1493 C   0  0  0  0  0  0  0  0  0  0  0  0
   25.3554  -20.7838  -14.1162 C   0  0  0  0  0  0  0  0  0  0  0  0
   24.4761  -21.8688  -13.5068 C   0  0  2  0  0  0  0  0  0  0  0  0
   24.3606  -23.0188  -14.3615 N   0  0  0  0  0  0  0  0  0  0  0  0
   23.1208  -21.2849  -13.2501 C   0  0  0  0  0  0  0  0  0  0  0  0
   22.9874  -20.2282  -12.5684 O   0  0  0  0  0  0  0  0  0  0  0  0
   28.5088  -22.3509  -19.0245 N   0  0  0  0  0  0  0  0  0  0  0  0
   20.7158  -18.2233  -14.7448 C   0  0  0  0  0  0  0  0  0  0  0  0
   20.7545  -19.5536  -15.1605 O   0  0  0  0  0  0  0  0  0  0  0  0
   21.5379  -19.8566  -16.1090 C   0  0  0  0  0  0  0  0  0  0  0  0
   19.9567  -20.6635  -14.5923 C   0  0  2  0  0  0  0  0  0  0  0  0
   20.6406  -21.3438  -13.4410 N   0  0  0  0  0  0  0  0  0  0  0  0
   21.9276  -21.8659  -13.7435 C   0  0  0  0  0  0  0  0  0  0  0  0
   19.7859  -22.3609  -12.7910 O   0  0  0  0  0  0  0  0  0  0  0  0
   20.2542  -23.5046  -12.5978 N   0  0  0  0  0  0  0  0  0  0  0  0
   18.4585  -22.0943  -12.3778 C   0  0  1  0  0  0  0  0  0  0  0  0
   17.6477  -23.0521  -11.6535 C   0  0  0  0  0  0  0  0  0  0  0  0
   18.3661  -23.4378  -10.3789 C   0  0  0  0  0  0  0  0  0  0  0  0
   17.5549  -24.3968   -9.5462 C   0  0  0  0  0  0  0  0  0  0  0  0
   18.1833  -24.6509   -8.1976 C   0  0  0  0  0  0  0  0  0  0  0  0
   17.4016  -25.6297   -7.3545 N   0  0  0  0  0  0  0  0  0  0  0  0
   18.0364  -25.8674   -6.0779 C   0  0  0  0  0  0  0  0  0  0  0  0
   16.2917  -22.5256  -11.4085 O   0  0  0  0  0  0  0  0  0  0  0  0
   16.1566  -21.2852  -11.2431 O   0  0  0  0  0  0  0  0  0  0  0  0
  1  2  1  0
  2  3  2  0
  4  5  1  0
  4  2  1  0
  6  7  1  0
  6  5  1  0
  8  9  1  6
  8  7  1  0
 10 11  2  0
 10  8  1  0
 12 13  1  0
 13 15  1  0
 13 14  2  0
 16 15  1  1
 16 18  1  0
 16 17  1  0
 17 10  1  0
 18 20  1  0
 19 18  2  0
 20 21  1  0
 21 27  1  0
 21 22  1  6
 23 22  1  0
 24 25  1  0
 24 23  1  0
 26 25  1  0
 27 28  2  0
 27 29  1  0
M  END
$$$$
