RNK.pdb
     RDKit          3D

 29 28  0  0  1  0  0  0  0  0999 V2000
   27.0798  -17.8605  -19.6951 N   0  0  0  0  0  0  0  0  0  0  0  0
   28.3475  -18.4934  -19.7154 C   0  0  0  0  0  0  0  0  0  0  0  0
   29.0999  -18.5565  -20.7589 N   0  0  0  0  0  0  0  0  0  0  0  0
   28.8192  -19.0937  -18.5191 N   0  0  0  0  0  0  0  0  0  0  0  0
   27.8877  -19.4905  -17.4666 C   0  0  0  0  0  0  0  0  0  0  0  0
   27.8046  -18.4502  -16.3812 C   0  0  0  0  0  0  0  0  0  0  0  0
   26.7062  -18.8365  -15.4053 C   0  0  0  0  0  0  0  0  0  0  0  0
   27.1002  -20.0877  -14.6299 C   0  0  2  0  0  0  0  0  0  0  0  0
   27.6513  -21.1050  -15.4831 N   0  0  0  0  0  0  0  0  0  0  0  0
   25.8818  -20.6105  -13.9329 C   0  0  0  0  0  0  0  0  0  0  0  0
   25.1443  -21.4806  -14.4789 O   0  0  0  0  0  0  0  0  0  0  0  0
   29.9939  -19.0818  -20.6958 N   0  0  0  0  0  0  0  0  0  0  0  0
   26.5010  -22.0368  -10.4157 C   0  0  0  0  0  0  0  0  0  0  0  0
   25.6798  -21.0394   -9.8914 O   0  0  0  0  0  0  0  0  0  0  0  0
   26.0463  -20.4709   -8.8201 C   0  0  0  0  0  0  0  0  0  0  0  0
   24.4015  -20.5729  -10.4741 C   0  0  2  0  0  0  0  0  0  0  0  0
   24.3570  -20.7109  -11.9692 N   0  0  0  0  0  0  0  0  0  0  0  0
   25.4858  -20.1736  -12.6457 C   0  0  0  0  0  0  0  0  0  0  0  0
   23.0923  -20.2105  -12.5501 O   0  0  0  0  0  0  0  0  0  0  0  0
   23.0134  -19.0033  -12.8682 N   0  0  0  0  0  0  0  0  0  0  0  0
   21.9658  -21.0412  -12.7617 C   0  0  1  0  0  0  0  0  0  0  0  0
   20.8560  -20.6674  -13.6149 C   0  0  0  0  0  0  0  0  0  0  0  0
   21.1091  -21.1984  -15.0090 C   0  0  0  0  0  0  0  0  0  0  0  0
   20.0307  -20.7773  -15.9738 C   0  0  0  0  0  0  0  0  0  0  0  0
   20.2825  -21.2945  -17.3692 C   0  0  0  0  0  0  0  0  0  0  0  0
   19.2723  -20.7991  -18.3762 N   0  0  0  0  0  0  0  0  0  0  0  0
   19.4702  -21.3981  -19.6766 C   0  0  0  0  0  0  0  0  0  0  0  0
   19.5723  -21.1275  -13.0523 O   0  0  0  0  0  0  0  0  0  0  0  0
   18.7076  -20.2614  -12.7584 O   0  0  0  0  0  0  0  0  0  0  0  0
  1  2  1  0
  2  3  2  0
  4  5  1  0
  4  2  1  0
  6  7  1  0
  6  5  1  0
  8  9  1  6
  8  7  1  0
 10 11  2  0
 10  8  1  0
 12 13  1  0
 13 15  1  0
 13 14  2  0
 16 15  1  1
 16 18  1  0
 16 17  1  0
 17 10  1  0
 18 20  1  0
 19 18  2  0
 20 21  1  0
 21 27  1  0
 21 22  1  1
 23 22  1  0
 24 25  1  0
 24 23  1  0
 26 25  1  0
 27 28  2  0
 27 29  1  0
M  END
$$$$
