RNK.pdb
     RDKit          3D

 29 28  0  0  1  0  0  0  0  0999 V2000
   22.4178  -18.0846  -19.9955 N   0  0  0  0  0  0  0  0  0  0  0  0
   23.7314  -17.6110  -20.2364 C   0  0  0  0  0  0  0  0  0  0  0  0
   23.9944  -16.5135  -20.8570 N   0  0  0  0  0  0  0  0  0  0  0  0
   24.8232  -18.3876  -19.7686 N   0  0  0  0  0  0  0  0  0  0  0  0
   24.6275  -19.7738  -19.3519 C   0  0  0  0  0  0  0  0  0  0  0  0
   24.9553  -19.9640  -17.8946 C   0  0  0  0  0  0  0  0  0  0  0  0
   23.8487  -20.7712  -17.2374 C   0  0  0  0  0  0  0  0  0  0  0  0
   22.7151  -19.8552  -16.7926 C   0  0  2  0  0  0  0  0  0  0  0  0
   23.1906  -18.5633  -16.3787 N   0  0  0  0  0  0  0  0  0  0  0  0
   21.9917  -20.5197  -15.6617 C   0  0  0  0  0  0  0  0  0  0  0  0
   21.7541  -21.7615  -15.6831 O   0  0  0  0  0  0  0  0  0  0  0  0
   24.9891  -16.2508  -21.0021 N   0  0  0  0  0  0  0  0  0  0  0  0
   19.1011  -18.2360  -12.7759 C   0  0  0  0  0  0  0  0  0  0  0  0
   20.0912  -18.6683  -11.8945 O   0  0  0  0  0  0  0  0  0  0  0  0
   20.2256  -18.0443  -10.8001 C   0  0  0  0  0  0  0  0  0  0  0  0
   21.0150  -19.8033  -12.1169 C   0  0  1  0  0  0  0  0  0  0  0  0
   20.8330  -20.4491  -13.4608 N   0  0  0  0  0  0  0  0  0  0  0  0
   21.5370  -19.8154  -14.5207 C   0  0  0  0  0  0  0  0  0  0  0  0
   19.4097  -20.6540  -13.8064 O   0  0  0  0  0  0  0  0  0  0  0  0
   18.8355  -19.8009  -14.5188 N   0  0  0  0  0  0  0  0  0  0  0  0
   18.6686  -21.7762  -13.3644 C   0  0  1  0  0  0  0  0  0  0  0  0
   17.3016  -22.0318  -13.7709 C   0  0  0  0  0  0  0  0  0  0  0  0
   16.9034  -23.4163  -13.3081 C   0  0  0  0  0  0  0  0  0  0  0  0
   15.4850  -23.7498  -13.6929 C   0  0  0  0  0  0  0  0  0  0  0  0
   15.0276  -25.0597  -13.0986 C   0  0  0  0  0  0  0  0  0  0  0  0
   13.6626  -25.4859  -13.5833 N   0  0  0  0  0  0  0  0  0  0  0  0
   13.1889  -26.6629  -12.8910 C   0  0  0  0  0  0  0  0  0  0  0  0
   16.3927  -20.9804  -13.2763 O   0  0  0  0  0  0  0  0  0  0  0  0
   16.6695  -20.4214  -12.1831 O   0  0  0  0  0  0  0  0  0  0  0  0
  1  2  1  0
  2  3  2  0
  4  5  1  0
  4  2  1  0
  6  7  1  0
  6  5  1  0
  8  9  1  1
  8  7  1  0
 10 11  2  0
 10  8  1  0
 12 13  1  0
 13 15  1  0
 13 14  2  0
 16 15  1  1
 16 18  1  0
 16 17  1  0
 17 10  1  0
 18 20  1  0
 19 18  2  0
 20 21  1  0
 21 27  1  0
 21 22  1  1
 23 22  1  0
 24 25  1  0
 24 23  1  0
 26 25  1  0
 27 28  2  0
 27 29  1  0
M  END
$$$$
