TCG.pdb
     RDKit          3D

 18 17  0  0  1  0  0  0  0  0999 V2000
    6.2137  -14.6762   19.7826 C   0  0  0  0  0  0  0  0  0  0  0  0
    6.8114  -14.9778   21.1378 C   0  0  1  0  0  0  0  0  0  0  0  0
    7.6659  -16.0508   21.1270 O   0  0  0  0  0  0  0  0  0  0  0  0
    7.5491  -13.7476   21.6111 C   0  0  2  0  0  0  0  0  0  0  0  0
    8.5875  -13.4902   20.5984 N   0  0  0  0  0  0  0  0  0  0  0  0
    8.1496  -13.8780   22.9441 C   0  0  0  0  0  0  0  0  0  0  0  0
    9.3275  -14.2980   23.1419 O   0  0  0  0  0  0  0  0  0  0  0  0
    7.3949  -13.5218   24.0926 N   0  0  0  0  0  0  0  0  0  0  0  0
    7.8877  -13.7741   25.4395 C   0  0  1  0  0  0  0  0  0  0  0  0
    7.1956  -12.8211   26.4219 C   0  0  0  0  0  0  0  0  0  0  0  0
    5.4032  -13.0405   26.2794 S   0  0  0  0  0  0  0  0  0  0  0  0
    7.6947  -15.1772   25.8439 C   0  0  0  0  0  0  0  0  0  0  0  0
    6.6678  -15.8577   25.5776 O   0  0  0  0  0  0  0  0  0  0  0  0
    8.7218  -15.8217   26.5823 N   0  0  0  0  0  0  0  0  0  0  0  0
    8.6079  -17.1914   27.0512 C   0  0  0  0  0  0  0  0  0  0  0  0
    9.8335  -17.5984   27.7562 C   0  0  0  0  0  0  0  0  0  0  0  0
    9.9657  -18.8790   28.2718 O   0  0  0  0  0  0  0  0  0  0  0  0
   10.7874  -16.8006   27.9087 O   0  0  0  0  0  0  0  0  0  0  0  0
  2  3  1  0
  2  1  1  6
  4  5  1  6
  4  2  1  0
  6  4  1  0
  7  6  2  0
  8  6  1  0
  9  8  1  0
  9 12  1  0
  9 10  1  1
 11 10  1  0
 12 14  1  0
 13 12  2  0
 14 15  1  0
 16 17  1  0
 16 15  1  0
 18 16  2  0
M  END
$$$$
