TCG.pdb
     RDKit          3D

 18 17  0  0  1  0  0  0  0  0999 V2000
    6.5189  -16.9871   19.4810 C   0  0  0  0  0  0  0  0  0  0  0  0
    7.1781  -16.9137   20.8392 C   0  0  1  0  0  0  0  0  0  0  0  0
    7.9612  -18.0039   21.1217 O   0  0  0  0  0  0  0  0  0  0  0  0
    8.0192  -15.6599   20.8869 C   0  0  2  0  0  0  0  0  0  0  0  0
    9.0455  -15.8275   19.8435 N   0  0  0  0  0  0  0  0  0  0  0  0
    8.6448  -15.4006   22.1892 C   0  0  0  0  0  0  0  0  0  0  0  0
    9.8406  -15.7125   22.4645 O   0  0  0  0  0  0  0  0  0  0  0  0
    7.8952  -14.7673   23.2152 N   0  0  0  0  0  0  0  0  0  0  0  0
    8.4157  -14.6299   24.5682 C   0  0  1  0  0  0  0  0  0  0  0  0
    7.7546  -13.4245   25.2483 C   0  0  0  0  0  0  0  0  0  0  0  0
    5.9885  -13.7698   25.4543 S   0  0  0  0  0  0  0  0  0  0  0  0
    8.2189  -15.8548   25.3623 C   0  0  0  0  0  0  0  0  0  0  0  0
    7.1499  -16.5222   25.3841 O   0  0  0  0  0  0  0  0  0  0  0  0
    9.2921  -16.3297   26.1611 N   0  0  0  0  0  0  0  0  0  0  0  0
    9.1919  -17.5280   26.9753 C   0  0  0  0  0  0  0  0  0  0  0  0
   10.4091  -17.7058   27.7825 C   0  0  0  0  0  0  0  0  0  0  0  0
   10.4690  -18.6714   28.7762 O   0  0  0  0  0  0  0  0  0  0  0  0
   11.4208  -16.9912   27.5937 O   0  0  0  0  0  0  0  0  0  0  0  0
  2  3  1  0
  2  1  1  6
  4  5  1  6
  4  2  1  0
  6  4  1  0
  7  6  2  0
  8  6  1  0
  9  8  1  0
  9 12  1  0
  9 10  1  1
 11 10  1  0
 12 14  1  0
 13 12  2  0
 14 15  1  0
 16 17  1  0
 16 15  1  0
 18 16  2  0
M  END
$$$$
