TCG.pdb
     RDKit          3D

 18 17  0  0  1  0  0  0  0  0999 V2000
    7.2784  -16.2971   19.3418 C   0  0  0  0  0  0  0  0  0  0  0  0
    7.9038  -15.0672   18.7246 C   0  0  1  0  0  0  0  0  0  0  0  0
    7.4236  -14.7858   17.4708 O   0  0  0  0  0  0  0  0  0  0  0  0
    7.6426  -13.8957   19.6417 C   0  0  2  0  0  0  0  0  0  0  0  0
    8.0223  -12.6961   18.8755 N   0  0  0  0  0  0  0  0  0  0  0  0
    8.3739  -13.9485   20.9133 C   0  0  0  0  0  0  0  0  0  0  0  0
    9.6329  -13.8466   21.0002 O   0  0  0  0  0  0  0  0  0  0  0  0
    7.6597  -14.1217   22.1280 N   0  0  0  0  0  0  0  0  0  0  0  0
    8.3416  -14.4172   23.3802 C   0  0  1  0  0  0  0  0  0  0  0  0
    7.3574  -14.2591   24.5458 C   0  0  0  0  0  0  0  0  0  0  0  0
    6.7970  -12.5376   24.6038 S   0  0  0  0  0  0  0  0  0  0  0  0
    8.9418  -15.7624   23.3776 C   0  0  0  0  0  0  0  0  0  0  0  0
    8.2837  -16.8329   23.2790 O   0  0  0  0  0  0  0  0  0  0  0  0
   10.3518  -15.8804   23.4928 N   0  0  0  0  0  0  0  0  0  0  0  0
   11.0291  -17.1642   23.5408 C   0  0  0  0  0  0  0  0  0  0  0  0
   12.4772  -16.9765   23.7210 C   0  0  0  0  0  0  0  0  0  0  0  0
   13.3202  -18.0649   23.8890 O   0  0  0  0  0  0  0  0  0  0  0  0
   12.9853  -15.8313   23.7274 O   0  0  0  0  0  0  0  0  0  0  0  0
  2  3  1  0
  2  1  1  1
  4  5  1  6
  4  2  1  0
  6  4  1  0
  7  6  2  0
  8  6  1  0
  9  8  1  0
  9 12  1  0
  9 10  1  1
 11 10  1  0
 12 14  1  0
 13 12  2  0
 14 15  1  0
 16 17  1  0
 16 15  1  0
 18 16  2  0
M  END
$$$$
