TCG.pdb
     RDKit          3D

 18 17  0  0  1  0  0  0  0  0999 V2000
   13.1033  -19.5573   19.6819 C   0  0  0  0  0  0  0  0  0  0  0  0
   12.6487  -18.6873   18.5325 C   0  0  1  0  0  0  0  0  0  0  0  0
   12.3416  -19.3999   17.4014 O   0  0  0  0  0  0  0  0  0  0  0  0
   11.4369  -17.9065   18.9838 C   0  0  2  0  0  0  0  0  0  0  0  0
   10.8896  -17.2802   17.7679 N   0  0  0  0  0  0  0  0  0  0  0  0
   11.7180  -16.8909   20.0056 C   0  0  0  0  0  0  0  0  0  0  0  0
   12.4015  -15.8483   19.7850 O   0  0  0  0  0  0  0  0  0  0  0  0
   11.2098  -17.0578   21.3207 N   0  0  0  0  0  0  0  0  0  0  0  0
   11.4868  -16.0926   22.3753 C   0  0  1  0  0  0  0  0  0  0  0  0
   10.1693  -15.6677   23.0357 C   0  0  0  0  0  0  0  0  0  0  0  0
    8.8431  -16.7439   22.4324 S   0  0  0  0  0  0  0  0  0  0  0  0
   12.4291  -16.6232   23.3753 C   0  0  0  0  0  0  0  0  0  0  0  0
   12.8297  -15.9815   24.3835 O   0  0  0  0  0  0  0  0  0  0  0  0
   12.9292  -17.9415   23.2094 N   0  0  0  0  0  0  0  0  0  0  0  0
   13.7935  -18.5801   24.1861 C   0  0  0  0  0  0  0  0  0  0  0  0
   15.1858  -18.5944   23.7109 C   0  0  0  0  0  0  0  0  0  0  0  0
   16.1762  -19.2472   24.4296 O   0  0  0  0  0  0  0  0  0  0  0  0
   15.5124  -18.0185   22.6472 O   0  0  0  0  0  0  0  0  0  0  0  0
  2  3  1  0
  2  1  1  1
  4  5  1  6
  4  2  1  0
  6  4  1  0
  7  6  2  0
  8  6  1  0
  9  8  1  0
  9 12  1  0
  9 10  1  1
 11 10  1  0
 12 14  1  0
 13 12  2  0
 14 15  1  0
 16 17  1  0
 16 15  1  0
 18 16  2  0
M  END
$$$$
