TCG.pdb
     RDKit          3D

 18 17  0  0  1  0  0  0  0  0999 V2000
    7.4818  -15.7717   14.9317 C   0  0  0  0  0  0  0  0  0  0  0  0
    8.2116  -15.6716   16.2516 C   0  0  1  0  0  0  0  0  0  0  0  0
    9.5764  -15.6482   16.1162 O   0  0  0  0  0  0  0  0  0  0  0  0
    7.7502  -14.4144   16.9503 C   0  0  2  0  0  0  0  0  0  0  0  0
    8.1779  -13.2987   16.0885 N   0  0  0  0  0  0  0  0  0  0  0  0
    8.2795  -14.2489   18.3093 C   0  0  0  0  0  0  0  0  0  0  0  0
    9.4323  -13.7887   18.5590 O   0  0  0  0  0  0  0  0  0  0  0  0
    7.4802  -14.6148   19.4241 N   0  0  0  0  0  0  0  0  0  0  0  0
    8.0126  -14.6138   20.7795 C   0  0  1  0  0  0  0  0  0  0  0  0
    6.8752  -14.3469   21.7732 C   0  0  0  0  0  0  0  0  0  0  0  0
    7.5028  -14.5926   23.4545 S   0  0  0  0  0  0  0  0  0  0  0  0
    8.7068  -15.8726   21.1006 C   0  0  0  0  0  0  0  0  0  0  0  0
    8.2110  -17.0192   20.9327 O   0  0  0  0  0  0  0  0  0  0  0  0
   10.0206  -15.8099   21.6349 N   0  0  0  0  0  0  0  0  0  0  0  0
   10.7329  -16.9859   22.1024 C   0  0  0  0  0  0  0  0  0  0  0  0
   12.1017  -16.6314   22.5093 C   0  0  0  0  0  0  0  0  0  0  0  0
   12.9464  -17.5799   23.0664 O   0  0  0  0  0  0  0  0  0  0  0  0
   12.5388  -15.4664   22.3635 O   0  0  0  0  0  0  0  0  0  0  0  0
  2  3  1  0
  2  1  1  6
  4  5  1  6
  4  2  1  0
  6  4  1  0
  7  6  2  0
  8  6  1  0
  9  8  1  0
  9 12  1  0
  9 10  1  1
 11 10  1  0
 12 14  1  0
 13 12  2  0
 14 15  1  0
 16 17  1  0
 16 15  1  0
 18 16  2  0
M  END
$$$$
