TCG.pdb
     RDKit          3D

 18 17  0  0  1  0  0  0  0  0999 V2000
    7.9247  -16.5869   18.5617 C   0  0  0  0  0  0  0  0  0  0  0  0
    8.3000  -15.2365   17.9957 C   0  0  1  0  0  0  0  0  0  0  0  0
    7.7364  -14.9864   16.7704 O   0  0  0  0  0  0  0  0  0  0  0  0
    7.8644  -14.1763   18.9796 C   0  0  2  0  0  0  0  0  0  0  0  0
    8.0165  -12.8913   18.2754 N   0  0  0  0  0  0  0  0  0  0  0  0
    8.6230  -14.1691   20.2361 C   0  0  0  0  0  0  0  0  0  0  0  0
    9.8564  -13.8922   20.3062 O   0  0  0  0  0  0  0  0  0  0  0  0
    7.9668  -14.4848   21.4549 N   0  0  0  0  0  0  0  0  0  0  0  0
    8.7105  -14.7232   22.6839 C   0  0  1  0  0  0  0  0  0  0  0  0
    7.7500  -14.6721   23.8785 C   0  0  0  0  0  0  0  0  0  0  0  0
    7.1089  -12.9854   24.0371 S   0  0  0  0  0  0  0  0  0  0  0  0
    9.4384  -16.0033   22.6489 C   0  0  0  0  0  0  0  0  0  0  0  0
    8.9127  -17.1108   22.3559 O   0  0  0  0  0  0  0  0  0  0  0  0
   10.8229  -16.0095   22.9626 N   0  0  0  0  0  0  0  0  0  0  0  0
   11.6138  -17.2271   22.9928 C   0  0  0  0  0  0  0  0  0  0  0  0
   12.9962  -16.9337   23.4020 C   0  0  0  0  0  0  0  0  0  0  0  0
   13.9026  -17.9578   23.6323 O   0  0  0  0  0  0  0  0  0  0  0  0
   13.3898  -15.7538   23.5527 O   0  0  0  0  0  0  0  0  0  0  0  0
  2  3  1  0
  2  1  1  1
  4  5  1  6
  4  2  1  0
  6  4  1  0
  7  6  2  0
  8  6  1  0
  9  8  1  0
  9 12  1  0
  9 10  1  1
 11 10  1  0
 12 14  1  0
 13 12  2  0
 14 15  1  0
 16 17  1  0
 16 15  1  0
 18 16  2  0
M  END
$$$$
