TCG.pdb
     RDKit          3D

 18 17  0  0  1  0  0  0  0  0999 V2000
    8.4965  -16.3150   18.2227 C   0  0  0  0  0  0  0  0  0  0  0  0
    8.6095  -14.9140   17.6668 C   0  0  1  0  0  0  0  0  0  0  0  0
    8.0421  -14.7756   16.4256 O   0  0  0  0  0  0  0  0  0  0  0  0
    7.9425  -13.9676   18.6370 C   0  0  2  0  0  0  0  0  0  0  0  0
    7.9867  -12.6419   17.9961 N   0  0  0  0  0  0  0  0  0  0  0  0
    8.5692  -13.9206   19.9635 C   0  0  0  0  0  0  0  0  0  0  0  0
    9.7005  -13.3966   20.1837 O   0  0  0  0  0  0  0  0  0  0  0  0
    7.8956  -14.4837   21.0792 N   0  0  0  0  0  0  0  0  0  0  0  0
    8.5227  -14.5614   22.3911 C   0  0  1  0  0  0  0  0  0  0  0  0
    7.4366  -14.6505   23.4704 C   0  0  0  0  0  0  0  0  0  0  0  0
    8.2316  -14.9348   25.0729 S   0  0  0  0  0  0  0  0  0  0  0  0
    9.4565  -15.6963   22.4900 C   0  0  0  0  0  0  0  0  0  0  0  0
    9.1785  -16.8761   22.1445 O   0  0  0  0  0  0  0  0  0  0  0  0
   10.7588  -15.4651   23.0057 N   0  0  0  0  0  0  0  0  0  0  0  0
   11.7812  -16.4958   23.0421 C   0  0  0  0  0  0  0  0  0  0  0  0
   11.7341  -17.2234   24.3201 C   0  0  0  0  0  0  0  0  0  0  0  0
   10.9325  -18.3450   24.4710 O   0  0  0  0  0  0  0  0  0  0  0  0
   12.4153  -16.8496   25.3029 O   0  0  0  0  0  0  0  0  0  0  0  0
  2  3  1  0
  2  1  1  1
  4  5  1  6
  4  2  1  0
  6  4  1  0
  7  6  2  0
  8  6  1  0
  9  8  1  0
  9 12  1  0
  9 10  1  1
 11 10  1  0
 12 14  1  0
 13 12  2  0
 14 15  1  0
 16 17  1  0
 16 15  1  0
 18 16  2  0
M  END
$$$$
