TCG.pdb
     RDKit          3D

 18 17  0  0  1  0  0  0  0  0999 V2000
    7.2650  -19.0979   19.1167 C   0  0  0  0  0  0  0  0  0  0  0  0
    7.9888  -18.7947   17.8249 C   0  0  1  0  0  0  0  0  0  0  0  0
    7.4671  -19.4568   16.7427 O   0  0  0  0  0  0  0  0  0  0  0  0
    7.9229  -17.3045   17.5871 C   0  0  2  0  0  0  0  0  0  0  0  0
    8.5058  -17.0869   16.2518 N   0  0  0  0  0  0  0  0  0  0  0  0
    8.6251  -16.4998   18.5940 C   0  0  0  0  0  0  0  0  0  0  0  0
    9.8700  -16.5813   18.8095 O   0  0  0  0  0  0  0  0  0  0  0  0
    7.8973  -15.5714   19.3839 N   0  0  0  0  0  0  0  0  0  0  0  0
    8.5509  -14.7466   20.3904 C   0  0  1  0  0  0  0  0  0  0  0  0
    7.6314  -13.5783   20.7670 C   0  0  0  0  0  0  0  0  0  0  0  0
    7.5215  -12.4471   19.3565 S   0  0  0  0  0  0  0  0  0  0  0  0
    8.9268  -15.5254   21.5828 C   0  0  0  0  0  0  0  0  0  0  0  0
    8.1132  -16.1810   22.2877 O   0  0  0  0  0  0  0  0  0  0  0  0
   10.2898  -15.5509   21.9791 N   0  0  0  0  0  0  0  0  0  0  0  0
   10.7667  -16.3508   23.0933 C   0  0  0  0  0  0  0  0  0  0  0  0
   12.1923  -16.0870   23.3442 C   0  0  0  0  0  0  0  0  0  0  0  0
   12.8309  -16.6238   24.4522 O   0  0  0  0  0  0  0  0  0  0  0  0
   12.8649  -15.3723   22.5655 O   0  0  0  0  0  0  0  0  0  0  0  0
  2  3  1  0
  2  1  1  1
  4  5  1  6
  4  2  1  0
  6  4  1  0
  7  6  2  0
  8  6  1  0
  9  8  1  0
  9 12  1  0
  9 10  1  1
 11 10  1  0
 12 14  1  0
 13 12  2  0
 14 15  1  0
 16 17  1  0
 16 15  1  0
 18 16  2  0
M  END
$$$$
