TCG.pdb
     RDKit          3D

 18 17  0  0  1  0  0  0  0  0999 V2000
    6.7656  -16.0756   20.9496 C   0  0  0  0  0  0  0  0  0  0  0  0
    7.4307  -14.9883   20.1372 C   0  0  1  0  0  0  0  0  0  0  0  0
    6.9031  -14.8521   18.8784 O   0  0  0  0  0  0  0  0  0  0  0  0
    7.2896  -13.6859   20.8893 C   0  0  2  0  0  0  0  0  0  0  0  0
    7.6922  -12.6320   19.9420 N   0  0  0  0  0  0  0  0  0  0  0  0
    8.0883  -13.6076   22.1183 C   0  0  0  0  0  0  0  0  0  0  0  0
    9.3393  -13.4131   22.1274 O   0  0  0  0  0  0  0  0  0  0  0  0
    7.4531  -13.7534   23.3795 N   0  0  0  0  0  0  0  0  0  0  0  0
    8.2186  -13.9504   24.6026 C   0  0  1  0  0  0  0  0  0  0  0  0
    7.5790  -13.1435   25.7393 C   0  0  0  0  0  0  0  0  0  0  0  0
    5.7881  -13.4130   25.7072 S   0  0  0  0  0  0  0  0  0  0  0  0
    8.3246  -15.3745   24.9638 C   0  0  0  0  0  0  0  0  0  0  0  0
    7.3655  -16.1911   24.9197 O   0  0  0  0  0  0  0  0  0  0  0  0
    9.5812  -15.8779   25.3916 N   0  0  0  0  0  0  0  0  0  0  0  0
    9.8185  -17.2903   25.6318 C   0  0  0  0  0  0  0  0  0  0  0  0
    9.9808  -17.5482   27.0713 C   0  0  0  0  0  0  0  0  0  0  0  0
   10.2923  -18.8171   27.5361 O   0  0  0  0  0  0  0  0  0  0  0  0
    9.8421  -16.6302   27.9127 O   0  0  0  0  0  0  0  0  0  0  0  0
  2  3  1  0
  2  1  1  1
  4  5  1  6
  4  2  1  0
  6  4  1  0
  7  6  2  0
  8  6  1  0
  9  8  1  0
  9 12  1  0
  9 10  1  1
 11 10  1  0
 12 14  1  0
 13 12  2  0
 14 15  1  0
 16 17  1  0
 16 15  1  0
 18 16  2  0
M  END
$$$$
