TCG.pdb
     RDKit          3D

 18 17  0  0  1  0  0  0  0  0999 V2000
    7.5769  -15.6449   16.3920 C   0  0  0  0  0  0  0  0  0  0  0  0
    8.3497  -15.4717   17.6794 C   0  0  1  0  0  0  0  0  0  0  0  0
    9.7072  -15.4080   17.4926 O   0  0  0  0  0  0  0  0  0  0  0  0
    7.8707  -14.2053   18.3491 C   0  0  2  0  0  0  0  0  0  0  0  0
    8.0644  -13.1319   17.3588 N   0  0  0  0  0  0  0  0  0  0  0  0
    8.5653  -13.8835   19.6014 C   0  0  0  0  0  0  0  0  0  0  0  0
    9.5529  -13.0941   19.6698 O   0  0  0  0  0  0  0  0  0  0  0  0
    8.1302  -14.4723   20.8177 N   0  0  0  0  0  0  0  0  0  0  0  0
    8.8646  -14.2886   22.0616 C   0  0  1  0  0  0  0  0  0  0  0  0
    7.9029  -13.8055   23.1544 C   0  0  0  0  0  0  0  0  0  0  0  0
    6.5652  -15.0145   23.3273 S   0  0  0  0  0  0  0  0  0  0  0  0
    9.5596  -15.5184   22.4789 C   0  0  0  0  0  0  0  0  0  0  0  0
    9.1783  -16.6834   22.1853 O   0  0  0  0  0  0  0  0  0  0  0  0
   10.7373  -15.4038   23.2633 N   0  0  0  0  0  0  0  0  0  0  0  0
   11.4400  -16.5583   23.7946 C   0  0  0  0  0  0  0  0  0  0  0  0
   12.5772  -16.9119   22.9306 C   0  0  0  0  0  0  0  0  0  0  0  0
   13.4681  -17.9086   23.2996 O   0  0  0  0  0  0  0  0  0  0  0  0
   12.7699  -16.3232   21.8415 O   0  0  0  0  0  0  0  0  0  0  0  0
  2  3  1  0
  2  1  1  6
  4  5  1  6
  4  2  1  0
  6  4  1  0
  7  6  2  0
  8  6  1  0
  9  8  1  0
  9 12  1  0
  9 10  1  1
 11 10  1  0
 12 14  1  0
 13 12  2  0
 14 15  1  0
 16 17  1  0
 16 15  1  0
 18 16  2  0
M  END
$$$$
