TCG.pdb
     RDKit          3D

 18 17  0  0  1  0  0  0  0  0999 V2000
   -3.5362  -27.4711   23.4977 C   0  0  0  0  0  0  0  0  0  0  0  0
   -3.1713  -26.5507   24.6398 C   0  0  1  0  0  0  0  0  0  0  0  0
   -2.6538  -25.3501   24.2246 O   0  0  0  0  0  0  0  0  0  0  0  0
   -4.4135  -26.3089   25.4646 C   0  0  2  0  0  0  0  0  0  0  0  0
   -5.3974  -25.7181   24.5409 N   0  0  0  0  0  0  0  0  0  0  0  0
   -4.2074  -25.4358   26.6264 C   0  0  0  0  0  0  0  0  0  0  0  0
   -3.3376  -25.6552   27.5198 O   0  0  0  0  0  0  0  0  0  0  0  0
   -5.0101  -24.2755   26.7846 N   0  0  0  0  0  0  0  0  0  0  0  0
   -4.7559  -23.3088   27.8436 C   0  0  1  0  0  0  0  0  0  0  0  0
   -4.6331  -21.9066   27.2345 C   0  0  0  0  0  0  0  0  0  0  0  0
   -4.4167  -20.7076   28.5749 S   0  0  0  0  0  0  0  0  0  0  0  0
   -5.7996  -23.3413   28.8824 C   0  0  0  0  0  0  0  0  0  0  0  0
   -5.6372  -22.9348   30.0645 O   0  0  0  0  0  0  0  0  0  0  0  0
   -7.0781  -23.8607   28.5490 N   0  0  0  0  0  0  0  0  0  0  0  0
   -8.1761  -23.9082   29.4982 C   0  0  0  0  0  0  0  0  0  0  0  0
   -8.3310  -22.6097   30.1725 C   0  0  0  0  0  0  0  0  0  0  0  0
   -8.2487  -21.4233   29.4591 O   0  0  0  0  0  0  0  0  0  0  0  0
   -8.5407  -22.5421   31.4059 O   0  0  0  0  0  0  0  0  0  0  0  0
  2  3  1  0
  2  1  1  6
  4  5  1  6
  4  2  1  0
  6  4  1  0
  7  6  2  0
  8  6  1  0
  9  8  1  0
  9 12  1  0
  9 10  1  6
 11 10  1  0
 12 14  1  0
 13 12  2  0
 14 15  1  0
 16 17  1  0
 16 15  1  0
 18 16  2  0
M  END
$$$$
