HQQ.pdb
     RDKit          3D

 29 29  0  0  1  0  0  0  0  0999 V2000
   19.6530  -12.8184  -16.3350 N   0  0  0  0  0  0  0  0  0  0  0  0
   19.8099  -12.1433  -17.5677 C   0  0  1  0  0  0  0  0  0  0  0  0
   19.5109  -12.9798  -18.7815 C   0  0  0  0  0  0  0  0  0  0  0  0
   20.2400  -14.2637  -18.8352 C   0  0  0  0  0  0  0  0  0  0  0  0
   21.3633  -14.6768  -18.1666 C   0  0  0  0  0  0  0  0  0  0  0  0
   21.6741  -15.9511  -18.5166 N   0  0  0  0  0  0  0  0  0  0  0  0
   20.7376  -16.3211  -19.4040 C   0  0  0  0  0  0  0  0  0  0  0  0
   19.8636  -15.3283  -19.6147 N   0  0  0  0  0  0  0  0  0  0  0  0
   19.0381  -10.8838  -17.7262 C   0  0  0  0  0  0  0  0  0  0  0  0
   19.1969  -10.2931  -18.8129 O   0  0  0  0  0  0  0  0  0  0  0  0
   14.2661  -10.6488  -15.5302 N   0  0  0  0  0  0  0  0  0  0  0  0
   14.3982  -11.0141  -16.8812 C   0  0  0  0  0  0  0  0  0  0  0  0
   13.7132  -11.9446  -17.3428 O   0  0  0  0  0  0  0  0  0  0  0  0
   15.3451  -10.2947  -17.7548 C   0  0  0  0  0  0  0  0  0  0  0  0
   15.9598   -9.1026  -17.0241 C   0  0  0  0  0  0  0  0  0  0  0  0
   17.4195   -9.1420  -16.8678 C   0  0  2  0  0  0  0  0  0  0  0  0
   18.1711  -10.3140  -16.7891 N   0  0  0  0  0  0  0  0  0  0  0  0
   17.9111   -8.0711  -16.0001 C   0  0  0  0  0  0  0  0  0  0  0  0
   18.2844   -8.3769  -14.8310 O   0  0  0  0  0  0  0  0  0  0  0  0
   22.7604   -6.4767  -14.4397 N   0  0  0  0  0  0  0  0  0  0  0  0
   22.1141   -5.3428  -13.8242 C   0  0  0  0  0  0  0  0  0  0  0  0
   22.7815   -4.6588  -13.0310 O   0  0  0  0  0  0  0  0  0  0  0  0
   20.6970   -5.0409  -14.1576 C   0  0  0  0  0  0  0  0  0  0  0  0
   20.0292   -5.9828  -15.0924 C   0  0  0  0  0  0  0  0  0  0  0  0
   18.6289   -5.7072  -15.4563 C   0  0  2  0  0  0  0  0  0  0  0  0
   18.0192   -6.6907  -16.3236 N   0  0  0  0  0  0  0  0  0  0  0  0
   18.6188   -4.3533  -16.1183 C   0  0  0  0  0  0  0  0  0  0  0  0
   18.7006   -3.1677  -15.4374 O   0  0  0  0  0  0  0  0  0  0  0  0
   18.5278   -4.3377  -17.3854 O   0  0  0  0  0  0  0  0  0  0  0  0
  2  1  1  1
  2  3  1  0
  3  4  1  0
  4  8  1  0
  4  5  2  0
  5  6  1  0
  7  6  1  0
  8  7  2  0
  9  2  1  0
 10  9  2  0
 11 12  1  0
 12 13  2  0
 14 12  1  0
 14 15  1  0
 16 15  1  1
 16 17  1  0
 17  9  1  0
 18 26  1  0
 18 16  1  0
 19 18  2  0
 21 20  1  0
 22 21  2  0
 23 21  1  0
 24 23  1  0
 25 24  1  6
 25 26  1  0
 27 25  1  0
 28 27  1  0
 29 27  2  0
M  END
$$$$
