HQQ.pdb
     RDKit          3D

 29 29  0  0  1  0  0  0  0  0999 V2000
   25.5944  -10.8144  -19.4570 N   0  0  0  0  0  0  0  0  0  0  0  0
   25.4599  -10.4948  -18.0859 C   0  0  1  0  0  0  0  0  0  0  0  0
   26.5270   -9.5806  -17.5491 C   0  0  0  0  0  0  0  0  0  0  0  0
   27.9080  -10.0620  -17.7586 C   0  0  0  0  0  0  0  0  0  0  0  0
   28.3686  -11.2232  -18.3233 C   0  0  0  0  0  0  0  0  0  0  0  0
   29.7261  -11.2383  -18.3207 N   0  0  0  0  0  0  0  0  0  0  0  0
   30.0996  -10.0816  -17.7518 C   0  0  0  0  0  0  0  0  0  0  0  0
   29.0294   -9.3552  -17.4042 N   0  0  0  0  0  0  0  0  0  0  0  0
   24.1587   -9.9061  -17.6765 C   0  0  0  0  0  0  0  0  0  0  0  0
   23.7169   -9.0130  -18.4263 O   0  0  0  0  0  0  0  0  0  0  0  0
   19.0365  -12.2877  -14.8234 N   0  0  0  0  0  0  0  0  0  0  0  0
   18.7337  -10.9164  -14.8863 C   0  0  0  0  0  0  0  0  0  0  0  0
   17.5985  -10.5159  -14.5720 O   0  0  0  0  0  0  0  0  0  0  0  0
   19.7602   -9.9496  -15.3210 C   0  0  0  0  0  0  0  0  0  0  0  0
   21.0603  -10.6643  -15.6841 C   0  0  0  0  0  0  0  0  0  0  0  0
   22.1513   -9.7955  -16.1439 C   0  0  2  0  0  0  0  0  0  0  0  0
   23.4033  -10.2540  -16.5528 N   0  0  0  0  0  0  0  0  0  0  0  0
   22.2022   -8.5341  -15.4039 C   0  0  0  0  0  0  0  0  0  0  0  0
   23.1969   -8.3258  -14.6511 O   0  0  0  0  0  0  0  0  0  0  0  0
   24.1475   -3.6295  -17.0762 N   0  0  0  0  0  0  0  0  0  0  0  0
   23.6091   -3.1243  -15.8364 C   0  0  0  0  0  0  0  0  0  0  0  0
   23.9616   -1.9899  -15.4741 O   0  0  0  0  0  0  0  0  0  0  0  0
   22.6677   -3.9670  -15.0526 C   0  0  0  0  0  0  0  0  0  0  0  0
   22.3673   -5.3091  -15.6142 C   0  0  0  0  0  0  0  0  0  0  0  0
   21.4565   -6.1806  -14.8526 C   0  0  2  0  0  0  0  0  0  0  0  0
   21.2389   -7.4885  -15.4299 N   0  0  0  0  0  0  0  0  0  0  0  0
   20.1497   -5.4381  -14.7410 C   0  0  0  0  0  0  0  0  0  0  0  0
   19.9231   -4.4159  -13.8581 O   0  0  0  0  0  0  0  0  0  0  0  0
   19.2176   -5.8015  -15.5242 O   0  0  0  0  0  0  0  0  0  0  0  0
  2  1  1  6
  2  3  1  0
  3  4  1  0
  4  8  1  0
  4  5  2  0
  5  6  1  0
  7  6  1  0
  8  7  2  0
  9  2  1  0
 10  9  2  0
 11 12  1  0
 12 13  2  0
 14 12  1  0
 14 15  1  0
 16 15  1  1
 16 17  1  0
 17  9  1  0
 18 26  1  0
 18 16  1  0
 19 18  2  0
 21 20  1  0
 22 21  2  0
 23 21  1  0
 24 23  1  0
 25 24  1  6
 25 26  1  0
 27 25  1  0
 28 27  1  0
 29 27  2  0
M  END
$$$$
