HQQ.pdb
     RDKit          3D

 29 29  0  0  1  0  0  0  0  0999 V2000
   23.2830  -21.3377  -18.4945 N   0  0  0  0  0  0  0  0  0  0  0  0
   22.3188  -20.4926  -19.0913 C   0  0  1  0  0  0  0  0  0  0  0  0
   21.3206  -21.2018  -19.9650 C   0  0  0  0  0  0  0  0  0  0  0  0
   21.9197  -22.0257  -21.0350 C   0  0  0  0  0  0  0  0  0  0  0  0
   21.8998  -23.3828  -21.2286 C   0  0  0  0  0  0  0  0  0  0  0  0
   22.5741  -23.7036  -22.3624 N   0  0  0  0  0  0  0  0  0  0  0  0
   23.0096  -22.5383  -22.8661 C   0  0  0  0  0  0  0  0  0  0  0  0
   22.6318  -21.5140  -22.0903 N   0  0  0  0  0  0  0  0  0  0  0  0
   21.5322  -19.6404  -18.1627 C   0  0  0  0  0  0  0  0  0  0  0  0
   21.1818  -20.1906  -17.0999 O   0  0  0  0  0  0  0  0  0  0  0  0
   22.4694  -15.0413  -15.5822 N   0  0  0  0  0  0  0  0  0  0  0  0
   21.1050  -14.7911  -15.3547 C   0  0  0  0  0  0  0  0  0  0  0  0
   20.7436  -14.2240  -14.3079 O   0  0  0  0  0  0  0  0  0  0  0  0
   20.0997  -15.1965  -16.3559 C   0  0  0  0  0  0  0  0  0  0  0  0
   20.7543  -15.9639  -17.5028 C   0  0  0  0  0  0  0  0  0  0  0  0
   20.5319  -17.4155  -17.4996 C   0  0  2  0  0  0  0  0  0  0  0  0
   21.1574  -18.3094  -18.3682 N   0  0  0  0  0  0  0  0  0  0  0  0
   19.1405  -17.7604  -17.2057 C   0  0  0  0  0  0  0  0  0  0  0  0
   18.2762  -17.5664  -18.1084 O   0  0  0  0  0  0  0  0  0  0  0  0
   17.6365  -22.7475  -15.8003 N   0  0  0  0  0  0  0  0  0  0  0  0
   16.5611  -22.1677  -15.0324 C   0  0  0  0  0  0  0  0  0  0  0  0
   16.0609  -22.8568  -14.1283 O   0  0  0  0  0  0  0  0  0  0  0  0
   16.1004  -20.7895  -15.3472 C   0  0  0  0  0  0  0  0  0  0  0  0
   16.9525  -19.6827  -14.8414 C   0  0  0  0  0  0  0  0  0  0  0  0
   17.2293  -18.5609  -15.7548 C   0  0  2  0  0  0  0  0  0  0  0  0
   18.6315  -18.2996  -15.9924 N   0  0  0  0  0  0  0  0  0  0  0  0
   16.5696  -17.3473  -15.1518 C   0  0  0  0  0  0  0  0  0  0  0  0
   17.2335  -16.1905  -14.8404 O   0  0  0  0  0  0  0  0  0  0  0  0
   15.3215  -17.4275  -14.9283 O   0  0  0  0  0  0  0  0  0  0  0  0
  2  1  1  1
  2  3  1  0
  3  4  1  0
  4  8  1  0
  4  5  2  0
  5  6  1  0
  7  6  1  0
  8  7  2  0
  9  2  1  0
 10  9  2  0
 11 12  1  0
 12 13  2  0
 14 12  1  0
 14 15  1  0
 16 15  1  6
 16 17  1  0
 17  9  1  0
 18 26  1  0
 18 16  1  0
 19 18  2  0
 21 20  1  0
 22 21  2  0
 23 21  1  0
 24 23  1  0
 25 24  1  1
 25 26  1  0
 27 25  1  0
 28 27  1  0
 29 27  2  0
M  END
$$$$
