HQQ.pdb
     RDKit          3D

 29 29  0  0  1  0  0  0  0  0999 V2000
   27.9117  -18.9066  -15.7920 N   0  0  0  0  0  0  0  0  0  0  0  0
   27.3377  -19.7378  -14.8023 C   0  0  1  0  0  0  0  0  0  0  0  0
   26.5695  -19.0037  -13.7375 C   0  0  0  0  0  0  0  0  0  0  0  0
   26.1755  -19.8365  -12.5825 C   0  0  0  0  0  0  0  0  0  0  0  0
   26.4775  -21.1395  -12.2818 C   0  0  0  0  0  0  0  0  0  0  0  0
   25.9082  -21.4911  -11.1006 N   0  0  0  0  0  0  0  0  0  0  0  0
   25.2539  -20.3992  -10.6753 C   0  0  0  0  0  0  0  0  0  0  0  0
   25.3965  -19.3905  -11.5448 N   0  0  0  0  0  0  0  0  0  0  0  0
   26.4445  -20.8185  -15.2938 C   0  0  0  0  0  0  0  0  0  0  0  0
   25.4928  -20.4423  -16.0063 O   0  0  0  0  0  0  0  0  0  0  0  0
   27.2156  -27.1918  -15.9017 N   0  0  0  0  0  0  0  0  0  0  0  0
   25.9457  -26.9411  -16.4500 C   0  0  0  0  0  0  0  0  0  0  0  0
   25.3061  -27.8653  -16.9836 O   0  0  0  0  0  0  0  0  0  0  0  0
   25.3672  -25.5849  -16.3913 C   0  0  0  0  0  0  0  0  0  0  0  0
   26.3033  -24.6264  -15.6579 C   0  0  0  0  0  0  0  0  0  0  0  0
   25.8028  -23.2553  -15.4958 C   0  0  2  0  0  0  0  0  0  0  0  0
   26.5710  -22.1865  -15.0350 N   0  0  0  0  0  0  0  0  0  0  0  0
   24.4165  -23.2251  -15.0284 C   0  0  0  0  0  0  0  0  0  0  0  0
   24.2102  -23.1553  -13.7825 O   0  0  0  0  0  0  0  0  0  0  0  0
   19.5605  -19.9125  -16.9477 N   0  0  0  0  0  0  0  0  0  0  0  0
   18.9924  -20.6710  -15.8595 C   0  0  0  0  0  0  0  0  0  0  0  0
   17.8742  -20.3297  -15.4403 O   0  0  0  0  0  0  0  0  0  0  0  0
   19.7544  -21.8141  -15.2908 C   0  0  0  0  0  0  0  0  0  0  0  0
   21.1049  -22.0501  -15.8629 C   0  0  0  0  0  0  0  0  0  0  0  0
   21.9026  -23.1529  -15.3002 C   0  0  2  0  0  0  0  0  0  0  0  0
   23.2430  -23.2685  -15.8303 N   0  0  0  0  0  0  0  0  0  0  0  0
   21.1281  -24.4183  -15.5658 C   0  0  0  0  0  0  0  0  0  0  0  0
   20.0347  -24.8128  -14.8413 O   0  0  0  0  0  0  0  0  0  0  0  0
   21.5341  -25.1458  -16.5249 O   0  0  0  0  0  0  0  0  0  0  0  0
  2  1  1  6
  2  3  1  0
  3  4  1  0
  4  8  1  0
  4  5  2  0
  5  6  1  0
  7  6  1  0
  8  7  2  0
  9  2  1  0
 10  9  2  0
 11 12  1  0
 12 13  2  0
 14 12  1  0
 14 15  1  0
 16 15  1  1
 16 17  1  0
 17  9  1  0
 18 26  1  0
 18 16  1  0
 19 18  2  0
 21 20  1  0
 22 21  2  0
 23 21  1  0
 24 23  1  0
 25 24  1  6
 25 26  1  0
 27 25  1  0
 28 27  1  0
 29 27  2  0
M  END
$$$$
