HQQ.pdb
     RDKit          3D

 29 29  0  0  1  0  0  0  0  0999 V2000
   24.2432  -11.1624  -17.5133 N   0  0  0  0  0  0  0  0  0  0  0  0
   24.1800  -10.3266  -16.3743 C   0  0  1  0  0  0  0  0  0  0  0  0
   25.3622   -9.4125  -16.2028 C   0  0  0  0  0  0  0  0  0  0  0  0
   26.6747  -10.0834  -16.3024 C   0  0  0  0  0  0  0  0  0  0  0  0
   27.1291  -11.2384  -15.7202 C   0  0  0  0  0  0  0  0  0  0  0  0
   28.4062  -11.4868  -16.1079 N   0  0  0  0  0  0  0  0  0  0  0  0
   28.7366  -10.4797  -16.9312 C   0  0  0  0  0  0  0  0  0  0  0  0
   27.7167   -9.6221  -17.0665 N   0  0  0  0  0  0  0  0  0  0  0  0
   22.9696   -9.4733  -16.2559 C   0  0  0  0  0  0  0  0  0  0  0  0
   22.5267   -9.0225  -17.3309 O   0  0  0  0  0  0  0  0  0  0  0  0
   18.4385   -9.2785  -11.7130 N   0  0  0  0  0  0  0  0  0  0  0  0
   17.9324   -8.4575  -12.7357 C   0  0  0  0  0  0  0  0  0  0  0  0
   16.7625   -8.0386  -12.6743 O   0  0  0  0  0  0  0  0  0  0  0  0
   18.7864   -8.0882  -13.8810 C   0  0  0  0  0  0  0  0  0  0  0  0
   20.1372   -8.7966  -13.8020 C   0  0  0  0  0  0  0  0  0  0  0  0
   21.0679   -8.5058  -14.9001 C   0  0  2  0  0  0  0  0  0  0  0  0
   22.2989   -9.1372  -15.0763 N   0  0  0  0  0  0  0  0  0  0  0  0
   21.0826   -7.0851  -15.2502 C   0  0  0  0  0  0  0  0  0  0  0  0
   21.9026   -6.3328  -14.6492 O   0  0  0  0  0  0  0  0  0  0  0  0
   21.6481   -4.2152  -20.5953 N   0  0  0  0  0  0  0  0  0  0  0  0
   21.5364   -3.1010  -19.6852 C   0  0  0  0  0  0  0  0  0  0  0  0
   21.8447   -1.9756  -20.1104 O   0  0  0  0  0  0  0  0  0  0  0  0
   21.0637   -3.3385  -18.2956 C   0  0  0  0  0  0  0  0  0  0  0  0
   20.8075   -4.7538  -17.9240 C   0  0  0  0  0  0  0  0  0  0  0  0
   20.3733   -5.0304  -16.5440 C   0  0  2  0  0  0  0  0  0  0  0  0
   20.2605   -6.4327  -16.2096 N   0  0  0  0  0  0  0  0  0  0  0  0
   19.0417   -4.3462  -16.3706 C   0  0  0  0  0  0  0  0  0  0  0  0
   18.8964   -3.0114  -16.1004 O   0  0  0  0  0  0  0  0  0  0  0  0
   18.0064   -5.0736  -16.4865 O   0  0  0  0  0  0  0  0  0  0  0  0
  2  1  1  6
  2  3  1  0
  3  4  1  0
  4  8  1  0
  4  5  2  0
  5  6  1  0
  7  6  1  0
  8  7  2  0
  9  2  1  0
 10  9  2  0
 11 12  1  0
 12 13  2  0
 14 12  1  0
 14 15  1  0
 16 15  1  1
 16 17  1  0
 17  9  1  0
 18 26  1  0
 18 16  1  0
 19 18  2  0
 21 20  1  0
 22 21  2  0
 23 21  1  0
 24 23  1  0
 25 24  1  6
 25 26  1  0
 27 25  1  0
 28 27  1  0
 29 27  2  0
M  END
$$$$
