HQQ.pdb
     RDKit          3D

 29 29  0  0  1  0  0  0  0  0999 V2000
   25.7791  -19.7764  -18.0455 N   0  0  0  0  0  0  0  0  0  0  0  0
   25.0981  -18.9538  -17.1184 C   0  0  1  0  0  0  0  0  0  0  0  0
   24.1528  -17.9617  -17.7389 C   0  0  0  0  0  0  0  0  0  0  0  0
   24.7951  -16.9887  -18.6464 C   0  0  0  0  0  0  0  0  0  0  0  0
   25.2108  -15.7021  -18.4199 C   0  0  0  0  0  0  0  0  0  0  0  0
   25.7658  -15.1847  -19.5457 N   0  0  0  0  0  0  0  0  0  0  0  0
   25.6900  -16.1581  -20.4666 C   0  0  0  0  0  0  0  0  0  0  0  0
   25.1117  -17.2526  -19.9551 N   0  0  0  0  0  0  0  0  0  0  0  0
   24.3303  -19.6586  -16.0597 C   0  0  0  0  0  0  0  0  0  0  0  0
   23.6277  -20.6107  -16.4535 O   0  0  0  0  0  0  0  0  0  0  0  0
   25.4421  -20.7819   -9.9045 N   0  0  0  0  0  0  0  0  0  0  0  0
   24.1206  -21.2344  -10.0624 C   0  0  0  0  0  0  0  0  0  0  0  0
   23.5685  -21.8711   -9.1471 O   0  0  0  0  0  0  0  0  0  0  0  0
   23.3847  -20.9534  -11.3101 C   0  0  0  0  0  0  0  0  0  0  0  0
   24.2875  -20.2607  -12.3289 C   0  0  0  0  0  0  0  0  0  0  0  0
   23.6801  -20.0077  -13.6418 C   0  0  2  0  0  0  0  0  0  0  0  0
   24.3238  -19.3577  -14.6945 N   0  0  0  0  0  0  0  0  0  0  0  0
   22.2558  -19.6883  -13.5392 C   0  0  0  0  0  0  0  0  0  0  0  0
   21.9325  -18.5131  -13.2016 O   0  0  0  0  0  0  0  0  0  0  0  0
   19.9167  -21.9401  -17.1275 N   0  0  0  0  0  0  0  0  0  0  0  0
   19.4282  -20.5889  -17.2609 C   0  0  0  0  0  0  0  0  0  0  0  0
   19.4441  -20.0789  -18.3932 O   0  0  0  0  0  0  0  0  0  0  0  0
   18.9319  -19.8703  -16.0577 C   0  0  0  0  0  0  0  0  0  0  0  0
   18.9216  -20.6449  -14.7901 C   0  0  0  0  0  0  0  0  0  0  0  0
   19.7766  -20.1673  -13.6901 C   0  0  2  0  0  0  0  0  0  0  0  0
   21.1635  -20.5669  -13.7779 N   0  0  0  0  0  0  0  0  0  0  0  0
   19.1648  -20.6910  -12.4162 C   0  0  0  0  0  0  0  0  0  0  0  0
   17.9314  -20.3198  -11.9503 O   0  0  0  0  0  0  0  0  0  0  0  0
   19.8548  -21.5260  -11.7522 O   0  0  0  0  0  0  0  0  0  0  0  0
  2  1  1  6
  2  3  1  0
  3  4  1  0
  4  8  1  0
  4  5  2  0
  5  6  1  0
  7  6  1  0
  8  7  2  0
  9  2  1  0
 10  9  2  0
 11 12  1  0
 12 13  2  0
 14 12  1  0
 14 15  1  0
 16 15  1  1
 16 17  1  0
 17  9  1  0
 18 26  1  0
 18 16  1  0
 19 18  2  0
 21 20  1  0
 22 21  2  0
 23 21  1  0
 24 23  1  0
 25 24  1  6
 25 26  1  0
 27 25  1  0
 28 27  1  0
 29 27  2  0
M  END
$$$$
