HQQ.pdb
     RDKit          3D

 29 29  0  0  1  0  0  0  0  0999 V2000
   14.7733  -12.1416  -13.5258 N   0  0  0  0  0  0  0  0  0  0  0  0
   15.9460  -11.6433  -12.9121 C   0  0  1  0  0  0  0  0  0  0  0  0
   17.1991  -11.8140  -13.7265 C   0  0  0  0  0  0  0  0  0  0  0  0
   17.4699  -13.2034  -14.1497 C   0  0  0  0  0  0  0  0  0  0  0  0
   18.0218  -14.2514  -13.4594 C   0  0  0  0  0  0  0  0  0  0  0  0
   18.0653  -15.3579  -14.2447 N   0  0  0  0  0  0  0  0  0  0  0  0
   17.5381  -14.9868  -15.4219 C   0  0  0  0  0  0  0  0  0  0  0  0
   17.1720  -13.6988  -15.3940 N   0  0  0  0  0  0  0  0  0  0  0  0
   15.9095  -10.2185  -12.4927 C   0  0  0  0  0  0  0  0  0  0  0  0
   15.6214   -9.4042  -13.3921 O   0  0  0  0  0  0  0  0  0  0  0  0
   13.7877   -7.3654   -7.3295 N   0  0  0  0  0  0  0  0  0  0  0  0
   14.5140   -6.3231   -7.9313 C   0  0  0  0  0  0  0  0  0  0  0  0
   14.5190   -5.1910   -7.4152 O   0  0  0  0  0  0  0  0  0  0  0  0
   15.2736   -6.5687   -9.1722 C   0  0  0  0  0  0  0  0  0  0  0  0
   15.3105   -8.0600   -9.5002 C   0  0  0  0  0  0  0  0  0  0  0  0
   16.0429   -8.4202  -10.7211 C   0  0  2  0  0  0  0  0  0  0  0  0
   16.1637   -9.7200  -11.2116 N   0  0  0  0  0  0  0  0  0  0  0  0
   17.2492   -7.6116  -10.9004 C   0  0  0  0  0  0  0  0  0  0  0  0
   18.2318   -7.8312  -10.1348 O   0  0  0  0  0  0  0  0  0  0  0  0
   21.3699   -7.8449  -14.8774 N   0  0  0  0  0  0  0  0  0  0  0  0
   21.8198   -6.6235  -14.2545 C   0  0  0  0  0  0  0  0  0  0  0  0
   22.9591   -6.2176  -14.5367 O   0  0  0  0  0  0  0  0  0  0  0  0
   20.9169   -5.9084  -13.3142 C   0  0  0  0  0  0  0  0  0  0  0  0
   19.6322   -6.5843  -12.9983 C   0  0  0  0  0  0  0  0  0  0  0  0
   18.7173   -5.9100  -12.0615 C   0  0  2  0  0  0  0  0  0  0  0  0
   17.4518   -6.5792  -11.8569 N   0  0  0  0  0  0  0  0  0  0  0  0
   18.4898   -4.5249  -12.6102 C   0  0  0  0  0  0  0  0  0  0  0  0
   19.3856   -3.4961  -12.4871 O   0  0  0  0  0  0  0  0  0  0  0  0
   17.3929   -4.3248  -13.2192 O   0  0  0  0  0  0  0  0  0  0  0  0
  2  1  1  6
  2  3  1  0
  3  4  1  0
  4  8  1  0
  4  5  2  0
  5  6  1  0
  7  6  1  0
  8  7  2  0
  9  2  1  0
 10  9  2  0
 11 12  1  0
 12 13  2  0
 14 12  1  0
 14 15  1  0
 16 15  1  1
 16 17  1  0
 17  9  1  0
 18 26  1  0
 18 16  1  0
 19 18  2  0
 21 20  1  0
 22 21  2  0
 23 21  1  0
 24 23  1  0
 25 24  1  6
 25 26  1  0
 27 25  1  0
 28 27  1  0
 29 27  2  0
M  END
$$$$
