HQQ.pdb
     RDKit          3D

 29 29  0  0  1  0  0  0  0  0999 V2000
   19.4847  -10.3423  -15.1361 N   0  0  0  0  0  0  0  0  0  0  0  0
   19.5836   -9.6139  -13.9279 C   0  0  1  0  0  0  0  0  0  0  0  0
   20.6984   -8.6045  -13.8955 C   0  0  0  0  0  0  0  0  0  0  0  0
   21.9985   -9.1122  -14.3801 C   0  0  0  0  0  0  0  0  0  0  0  0
   22.8731  -10.0020  -13.8119 C   0  0  0  0  0  0  0  0  0  0  0  0
   23.9446  -10.1886  -14.6244 N   0  0  0  0  0  0  0  0  0  0  0  0
   23.7264   -9.4097  -15.6953 C   0  0  0  0  0  0  0  0  0  0  0  0
   22.5659   -8.7517  -15.5762 N   0  0  0  0  0  0  0  0  0  0  0  0
   18.3566   -8.8972  -13.4942 C   0  0  0  0  0  0  0  0  0  0  0  0
   17.5299   -8.6591  -14.3969 O   0  0  0  0  0  0  0  0  0  0  0  0
   14.3983  -11.9330  -11.2503 N   0  0  0  0  0  0  0  0  0  0  0  0
   13.8704  -10.7618  -10.6796 C   0  0  0  0  0  0  0  0  0  0  0  0
   12.7483  -10.7838  -10.1426 O   0  0  0  0  0  0  0  0  0  0  0  0
   14.6450   -9.5063  -10.7128 C   0  0  0  0  0  0  0  0  0  0  0  0
   15.9608   -9.6998  -11.4639 C   0  0  0  0  0  0  0  0  0  0  0  0
   16.8441   -8.5272  -11.5027 C   0  0  2  0  0  0  0  0  0  0  0  0
   18.0527   -8.4751  -12.1966 N   0  0  0  0  0  0  0  0  0  0  0  0
   16.8701   -7.8128  -10.2260 C   0  0  0  0  0  0  0  0  0  0  0  0
   17.9437   -7.8280   -9.5576 O   0  0  0  0  0  0  0  0  0  0  0  0
   18.5222   -2.8021  -10.2165 N   0  0  0  0  0  0  0  0  0  0  0  0
   17.9749   -2.6639   -8.8885 C   0  0  0  0  0  0  0  0  0  0  0  0
   18.3080   -1.6661   -8.2283 O   0  0  0  0  0  0  0  0  0  0  0  0
   17.0478   -3.7039   -8.3694 C   0  0  0  0  0  0  0  0  0  0  0  0
   16.8405   -4.8897   -9.2398 C   0  0  0  0  0  0  0  0  0  0  0  0
   15.9922   -5.9772   -8.7231 C   0  0  2  0  0  0  0  0  0  0  0  0
   15.8022   -7.0865   -9.6310 N   0  0  0  0  0  0  0  0  0  0  0  0
   14.6637   -5.3546   -8.3783 C   0  0  0  0  0  0  0  0  0  0  0  0
   14.4195   -4.6632   -7.2215 O   0  0  0  0  0  0  0  0  0  0  0  0
   13.7298   -5.4939   -9.2284 O   0  0  0  0  0  0  0  0  0  0  0  0
  2  1  1  6
  2  3  1  0
  3  4  1  0
  4  8  1  0
  4  5  2  0
  5  6  1  0
  7  6  1  0
  8  7  2  0
  9  2  1  0
 10  9  2  0
 11 12  1  0
 12 13  2  0
 14 12  1  0
 14 15  1  0
 16 15  1  1
 16 17  1  0
 17  9  1  0
 18 26  1  0
 18 16  1  0
 19 18  2  0
 21 20  1  0
 22 21  2  0
 23 21  1  0
 24 23  1  0
 25 24  1  6
 25 26  1  0
 27 25  1  0
 28 27  1  0
 29 27  2  0
M  END
$$$$
