HQQ.pdb
     RDKit          3D

 29 29  0  0  1  0  0  0  0  0999 V2000
   20.1320  -14.8867  -17.0549 N   0  0  0  0  0  0  0  0  0  0  0  0
   20.0132  -13.4835  -17.1846 C   0  0  1  0  0  0  0  0  0  0  0  0
   18.6348  -12.9448  -16.9153 C   0  0  0  0  0  0  0  0  0  0  0  0
   17.5607  -13.5934  -17.6953 C   0  0  0  0  0  0  0  0  0  0  0  0
   16.7282  -14.6325  -17.3687 C   0  0  0  0  0  0  0  0  0  0  0  0
   15.8756  -14.8888  -18.3935 N   0  0  0  0  0  0  0  0  0  0  0  0
   16.1867  -14.0034  -19.3529 C   0  0  0  0  0  0  0  0  0  0  0  0
   17.1948  -13.2130  -18.9618 N   0  0  0  0  0  0  0  0  0  0  0  0
   20.9485  -12.6698  -16.3658 C   0  0  0  0  0  0  0  0  0  0  0  0
   21.0898  -13.0450  -15.1850 O   0  0  0  0  0  0  0  0  0  0  0  0
   26.7752  -11.8909  -16.7097 N   0  0  0  0  0  0  0  0  0  0  0  0
   26.5160  -10.9014  -15.7454 C   0  0  0  0  0  0  0  0  0  0  0  0
   27.4560  -10.3965  -15.1054 O   0  0  0  0  0  0  0  0  0  0  0  0
   25.1319  -10.4573  -15.4921 C   0  0  0  0  0  0  0  0  0  0  0  0
   24.1402  -11.2703  -16.3218 C   0  0  0  0  0  0  0  0  0  0  0  0
   22.7303  -10.8866  -16.1752 C   0  0  2  0  0  0  0  0  0  0  0  0
   21.6668  -11.5476  -16.7892 N   0  0  0  0  0  0  0  0  0  0  0  0
   22.5571   -9.4351  -16.1070 C   0  0  0  0  0  0  0  0  0  0  0  0
   22.5767   -8.7822  -17.1900 O   0  0  0  0  0  0  0  0  0  0  0  0
   24.1554   -4.7960  -17.8772 N   0  0  0  0  0  0  0  0  0  0  0  0
   23.0210   -5.5691  -18.3218 C   0  0  0  0  0  0  0  0  0  0  0  0
   22.6915   -5.4758  -19.5156 O   0  0  0  0  0  0  0  0  0  0  0  0
   22.3016   -6.4344  -17.3499 C   0  0  0  0  0  0  0  0  0  0  0  0
   22.8560   -6.4730  -15.9722 C   0  0  0  0  0  0  0  0  0  0  0  0
   22.1062   -7.2289  -14.9545 C   0  0  2  0  0  0  0  0  0  0  0  0
   22.3670   -8.6511  -14.9360 N   0  0  0  0  0  0  0  0  0  0  0  0
   20.6455   -6.9721  -15.2227 C   0  0  0  0  0  0  0  0  0  0  0  0
   20.0847   -5.7236  -15.2748 O   0  0  0  0  0  0  0  0  0  0  0  0
   19.9109   -7.9920  -15.4082 O   0  0  0  0  0  0  0  0  0  0  0  0
  2  1  1  1
  2  3  1  0
  3  4  1  0
  4  8  1  0
  4  5  2  0
  5  6  1  0
  7  6  1  0
  8  7  2  0
  9  2  1  0
 10  9  2  0
 11 12  1  0
 12 13  2  0
 14 12  1  0
 14 15  1  0
 16 15  1  6
 16 17  1  0
 17  9  1  0
 18 26  1  0
 18 16  1  0
 19 18  2  0
 21 20  1  0
 22 21  2  0
 23 21  1  0
 24 23  1  0
 25 24  1  6
 25 26  1  0
 27 25  1  0
 28 27  1  0
 29 27  2  0
M  END
$$$$
