HQQ.pdb
     RDKit          3D

 29 29  0  0  1  0  0  0  0  0999 V2000
   18.6609  -15.1016  -16.9421 N   0  0  0  0  0  0  0  0  0  0  0  0
   17.9566  -13.9943  -16.4150 C   0  0  1  0  0  0  0  0  0  0  0  0
   17.7677  -14.0256  -14.9230 C   0  0  0  0  0  0  0  0  0  0  0  0
   16.9200  -15.1333  -14.4362 C   0  0  0  0  0  0  0  0  0  0  0  0
   16.3417  -16.1747  -15.1148 C   0  0  0  0  0  0  0  0  0  0  0  0
   15.6548  -16.9696  -14.2550 N   0  0  0  0  0  0  0  0  0  0  0  0
   15.8123  -16.4132  -13.0438 C   0  0  0  0  0  0  0  0  0  0  0  0
   16.5670  -15.3095  -13.1220 N   0  0  0  0  0  0  0  0  0  0  0  0
   18.5086  -12.6537  -16.7396 C   0  0  0  0  0  0  0  0  0  0  0  0
   19.7346  -12.6212  -16.9653 O   0  0  0  0  0  0  0  0  0  0  0  0
   16.7988   -8.5909  -20.9335 N   0  0  0  0  0  0  0  0  0  0  0  0
   17.8015   -7.8529  -20.2809 C   0  0  0  0  0  0  0  0  0  0  0  0
   18.2202   -6.7945  -20.7832 O   0  0  0  0  0  0  0  0  0  0  0  0
   18.3570   -8.3285  -18.9992 C   0  0  0  0  0  0  0  0  0  0  0  0
   17.6860   -9.6305  -18.5663 C   0  0  0  0  0  0  0  0  0  0  0  0
   18.1866  -10.2131  -17.3147 C   0  0  2  0  0  0  0  0  0  0  0  0
   17.7950  -11.4538  -16.8123 N   0  0  0  0  0  0  0  0  0  0  0  0
   18.3953   -9.2008  -16.2789 C   0  0  0  0  0  0  0  0  0  0  0  0
   17.5082   -9.0709  -15.3868 O   0  0  0  0  0  0  0  0  0  0  0  0
   23.1372   -4.8170  -15.3685 N   0  0  0  0  0  0  0  0  0  0  0  0
   22.3399   -4.7361  -14.1684 C   0  0  0  0  0  0  0  0  0  0  0  0
   22.6888   -3.9220  -13.2978 O   0  0  0  0  0  0  0  0  0  0  0  0
   21.1501   -5.6157  -14.0222 C   0  0  0  0  0  0  0  0  0  0  0  0
   20.8683   -6.5304  -15.1584 C   0  0  0  0  0  0  0  0  0  0  0  0
   19.6604   -7.3691  -15.0775 C   0  0  2  0  0  0  0  0  0  0  0  0
   19.5055   -8.3210  -16.1550 N   0  0  0  0  0  0  0  0  0  0  0  0
   18.4865   -6.4244  -15.0462 C   0  0  0  0  0  0  0  0  0  0  0  0
   17.7739   -6.1261  -13.9152 O   0  0  0  0  0  0  0  0  0  0  0  0
   18.1576   -5.8852  -16.1487 O   0  0  0  0  0  0  0  0  0  0  0  0
  2  1  1  1
  2  3  1  0
  3  4  1  0
  4  8  1  0
  4  5  2  0
  5  6  1  0
  7  6  1  0
  8  7  2  0
  9  2  1  0
 10  9  2  0
 11 12  1  0
 12 13  2  0
 14 12  1  0
 14 15  1  0
 16 15  1  6
 16 17  1  0
 17  9  1  0
 18 26  1  0
 18 16  1  0
 19 18  2  0
 21 20  1  0
 22 21  2  0
 23 21  1  0
 24 23  1  0
 25 24  1  6
 25 26  1  0
 27 25  1  0
 28 27  1  0
 29 27  2  0
M  END
$$$$
