HQQ.pdb
     RDKit          3D

 29 29  0  0  1  0  0  0  0  0999 V2000
   19.9360   -9.3136  -14.8611 N   0  0  0  0  0  0  0  0  0  0  0  0
   19.4668   -8.2576  -14.0458 C   0  0  1  0  0  0  0  0  0  0  0  0
   19.5340   -6.8972  -14.6841 C   0  0  0  0  0  0  0  0  0  0  0  0
   20.8766   -6.5125  -15.1661 C   0  0  0  0  0  0  0  0  0  0  0  0
   21.8654   -5.7848  -14.5562 C   0  0  0  0  0  0  0  0  0  0  0  0
   22.9472   -5.6904  -15.3708 N   0  0  0  0  0  0  0  0  0  0  0  0
   22.6204   -6.3628  -16.4854 C   0  0  0  0  0  0  0  0  0  0  0  0
   21.3832   -6.8671  -16.3910 N   0  0  0  0  0  0  0  0  0  0  0  0
   18.0866   -8.4043  -13.5160 C   0  0  0  0  0  0  0  0  0  0  0  0
   17.2852   -8.9926  -14.2689 O   0  0  0  0  0  0  0  0  0  0  0  0
   14.3157  -11.7373  -11.0526 N   0  0  0  0  0  0  0  0  0  0  0  0
   15.6494  -11.7126  -10.6092 C   0  0  0  0  0  0  0  0  0  0  0  0
   16.1260  -12.6987  -10.0189 O   0  0  0  0  0  0  0  0  0  0  0  0
   16.4873  -10.5211  -10.8448 C   0  0  0  0  0  0  0  0  0  0  0  0
   15.6902   -9.4283  -11.5543 C   0  0  0  0  0  0  0  0  0  0  0  0
   16.3694   -8.1324  -11.6808 C   0  0  2  0  0  0  0  0  0  0  0  0
   17.6160   -7.9525  -12.2796 N   0  0  0  0  0  0  0  0  0  0  0  0
   16.1515   -7.2783  -10.5128 C   0  0  0  0  0  0  0  0  0  0  0  0
   17.0444   -7.2560   -9.6174 O   0  0  0  0  0  0  0  0  0  0  0  0
   11.2174   -3.3408   -9.1065 N   0  0  0  0  0  0  0  0  0  0  0  0
   12.4511   -2.6591   -8.7977 C   0  0  0  0  0  0  0  0  0  0  0  0
   12.3948   -1.4395   -8.5696 O   0  0  0  0  0  0  0  0  0  0  0  0
   13.7221   -3.4298   -8.7642 C   0  0  0  0  0  0  0  0  0  0  0  0
   13.6057   -4.8945   -8.9831 C   0  0  0  0  0  0  0  0  0  0  0  0
   14.8516   -5.6773   -9.0480 C   0  0  2  0  0  0  0  0  0  0  0  0
   15.0238   -6.4506  -10.2577 N   0  0  0  0  0  0  0  0  0  0  0  0
   14.8470   -6.5868   -7.8462 C   0  0  0  0  0  0  0  0  0  0  0  0
   15.0551   -6.1592   -6.5618 O   0  0  0  0  0  0  0  0  0  0  0  0
   14.6353   -7.8204   -8.0644 O   0  0  0  0  0  0  0  0  0  0  0  0
  2  1  1  6
  2  3  1  0
  3  4  1  0
  4  8  1  0
  4  5  2  0
  5  6  1  0
  7  6  1  0
  8  7  2  0
  9  2  1  0
 10  9  2  0
 11 12  1  0
 12 13  2  0
 14 12  1  0
 14 15  1  0
 16 15  1  1
 16 17  1  0
 17  9  1  0
 18 26  1  0
 18 16  1  0
 19 18  2  0
 21 20  1  0
 22 21  2  0
 23 21  1  0
 24 23  1  0
 25 24  1  6
 25 26  1  0
 27 25  1  0
 28 27  1  0
 29 27  2  0
M  END
$$$$
