HQQ.pdb
     RDKit          3D

 29 29  0  0  1  0  0  0  0  0999 V2000
   26.6965  -34.0814  -10.6140 N   0  0  0  0  0  0  0  0  0  0  0  0
   26.6137  -33.6286   -9.2768 C   0  0  1  0  0  0  0  0  0  0  0  0
   25.2192  -33.5907   -8.7143 C   0  0  0  0  0  0  0  0  0  0  0  0
   24.8269  -32.2887   -8.1368 C   0  0  0  0  0  0  0  0  0  0  0  0
   24.5948  -31.9274   -6.8348 C   0  0  0  0  0  0  0  0  0  0  0  0
   24.2705  -30.6110   -6.7652 N   0  0  0  0  0  0  0  0  0  0  0  0
   24.3035  -30.1631   -8.0300 C   0  0  0  0  0  0  0  0  0  0  0  0
   24.6344  -31.1482   -8.8748 N   0  0  0  0  0  0  0  0  0  0  0  0
   27.4455  -34.3596   -8.2864 C   0  0  0  0  0  0  0  0  0  0  0  0
   27.8871  -35.4612   -8.6691 O   0  0  0  0  0  0  0  0  0  0  0  0
   32.4600  -33.1764   -5.2416 N   0  0  0  0  0  0  0  0  0  0  0  0
   32.3132  -33.9615   -6.3985 C   0  0  0  0  0  0  0  0  0  0  0  0
   33.2892  -34.1556   -7.1453 O   0  0  0  0  0  0  0  0  0  0  0  0
   31.0049  -34.5590   -6.7281 C   0  0  0  0  0  0  0  0  0  0  0  0
   29.9442  -34.1375   -5.7132 C   0  0  0  0  0  0  0  0  0  0  0  0
   28.5696  -34.5461   -6.0298 C   0  0  2  0  0  0  0  0  0  0  0  0
   27.7694  -33.9347   -6.9946 N   0  0  0  0  0  0  0  0  0  0  0  0
   27.8316  -34.9708   -4.8397 C   0  0  0  0  0  0  0  0  0  0  0  0
   26.9016  -34.2243   -4.4186 O   0  0  0  0  0  0  0  0  0  0  0  0
   27.7281  -40.5904   -1.5648 N   0  0  0  0  0  0  0  0  0  0  0  0
   26.7450  -39.7672   -0.9031 C   0  0  0  0  0  0  0  0  0  0  0  0
   26.1266  -40.2630    0.0531 O   0  0  0  0  0  0  0  0  0  0  0  0
   26.5136  -38.3790   -1.3827 C   0  0  0  0  0  0  0  0  0  0  0  0
   27.3906  -37.9132   -2.4876 C   0  0  0  0  0  0  0  0  0  0  0  0
   27.2685  -36.5079   -2.9113 C   0  0  2  0  0  0  0  0  0  0  0  0
   28.0438  -36.1535   -4.0793 N   0  0  0  0  0  0  0  0  0  0  0  0
   27.6914  -35.6690   -1.7328 C   0  0  0  0  0  0  0  0  0  0  0  0
   26.8248  -35.1765   -0.7935 O   0  0  0  0  0  0  0  0  0  0  0  0
   28.9322  -35.4171   -1.6269 O   0  0  0  0  0  0  0  0  0  0  0  0
  2  1  1  6
  2  3  1  0
  3  4  1  0
  4  8  1  0
  4  5  2  0
  5  6  1  0
  7  6  1  0
  8  7  2  0
  9  2  1  0
 10  9  2  0
 11 12  1  0
 12 13  2  0
 14 12  1  0
 14 15  1  0
 16 15  1  1
 16 17  1  0
 17  9  1  0
 18 26  1  0
 18 16  1  0
 19 18  2  0
 21 20  1  0
 22 21  2  0
 23 21  1  0
 24 23  1  0
 25 24  1  1
 25 26  1  0
 27 25  1  0
 28 27  1  0
 29 27  2  0
M  END
$$$$
