WPQ.pdb
     RDKit          3D

 31 33  0  0  1  0  0  0  0  0999 V2000
    6.6473  -17.4634   24.2454 N   0  0  0  0  0  0  0  0  0  0  0  0
    7.0333  -16.2826   23.5567 C   0  0  1  0  0  0  0  0  0  0  0  0
    7.8845  -15.3518   24.3972 C   0  0  0  0  0  0  0  0  0  0  0  0
    7.0808  -14.6236   25.4129 C   0  0  0  0  0  0  0  0  0  0  0  0
    6.1139  -15.1824   26.2431 C   0  0  0  0  0  0  0  0  0  0  0  0
    5.5962  -14.2269   27.0315 N   0  0  0  0  0  0  0  0  0  0  0  0
    6.1735  -13.0294   26.7726 C   0  0  0  0  0  0  0  0  0  0  0  0
    6.0041  -11.7673   27.2908 C   0  0  0  0  0  0  0  0  0  0  0  0
    6.7536  -10.7206   26.8153 C   0  0  0  0  0  0  0  0  0  0  0  0
    7.6713  -10.9741   25.8123 C   0  0  0  0  0  0  0  0  0  0  0  0
    7.8405  -12.2392   25.2936 C   0  0  0  0  0  0  0  0  0  0  0  0
    7.0996  -13.2885   25.7597 C   0  0  0  0  0  0  0  0  0  0  0  0
    7.7528  -16.4776   22.2858 C   0  0  0  0  0  0  0  0  0  0  0  0
    7.9784  -17.7041   21.9832 O   0  0  0  0  0  0  0  0  0  0  0  0
    8.2026  -15.4929   21.3994 N   0  0  0  0  0  0  0  0  0  0  0  0
    8.0475  -14.0496   21.6629 C   0  0  0  0  0  0  0  0  0  0  0  0
    7.4415  -13.6065   20.3388 C   0  0  0  0  0  0  0  0  0  0  0  0
    8.2489  -14.4171   19.3564 C   0  0  0  0  0  0  0  0  0  0  0  0
    8.8681  -15.5624   20.1199 C   0  0  1  0  0  0  0  0  0  0  0  0
   10.3177  -15.3842   20.3559 C   0  0  0  0  0  0  0  0  0  0  0  0
   10.7151  -14.4018   21.0327 O   0  0  0  0  0  0  0  0  0  0  0  0
   11.5841  -19.8526   24.2962 N   0  0  0  0  0  0  0  0  0  0  0  0
   11.9804  -18.4956   24.1855 C   0  0  0  0  0  0  0  0  0  0  0  0
   11.7640  -17.7513   25.1514 O   0  0  0  0  0  0  0  0  0  0  0  0
   12.6252  -18.0559   22.9260 C   0  0  0  0  0  0  0  0  0  0  0  0
   11.6990  -17.3915   21.9588 C   0  0  0  0  0  0  0  0  0  0  0  0
   12.3313  -16.8058   20.7449 C   0  0  2  0  0  0  0  0  0  0  0  0
   11.2837  -16.2959   19.8376 N   0  0  0  0  0  0  0  0  0  0  0  0
   13.1269  -17.8365   20.0490 C   0  0  0  0  0  0  0  0  0  0  0  0
   12.5882  -18.4738   18.9496 O   0  0  0  0  0  0  0  0  0  0  0  0
   14.2682  -18.1353   20.4387 O   0  0  0  0  0  0  0  0  0  0  0  0
  2  1  1  1
  3  4  1  0
  3  2  1  0
  4  5  2  0
  6  5  1  0
  7  6  1  0
  8  7  2  0
  9  8  1  0
 10  9  2  0
 10 11  1  0
 11 12  2  0
 12  7  1  0
 12  4  1  0
 13 14  2  0
 13  2  1  0
 15 13  1  0
 16 17  1  0
 16 15  1  0
 18 19  1  0
 18 17  1  0
 19 15  1  0
 19 20  1  1
 21 20  2  0
 23 22  1  0
 24 23  2  0
 25 23  1  0
 27 26  1  1
 26 25  1  0
 27 28  1  0
 28 20  1  0
 29 30  1  0
 29 27  1  0
 31 29  2  0
M  END
$$$$
