WPQ.pdb
     RDKit          3D

 31 33  0  0  1  0  0  0  0  0999 V2000
    6.6860  -17.9982   25.6871 N   0  0  0  0  0  0  0  0  0  0  0  0
    6.4004  -17.3082   24.4788 C   0  0  1  0  0  0  0  0  0  0  0  0
    6.0032  -15.8617   24.6963 C   0  0  0  0  0  0  0  0  0  0  0  0
    6.9067  -15.1716   25.6530 C   0  0  0  0  0  0  0  0  0  0  0  0
    8.0275  -15.7266   26.2631 C   0  0  0  0  0  0  0  0  0  0  0  0
    8.5994  -14.8120   27.0626 N   0  0  0  0  0  0  0  0  0  0  0  0
    7.9108  -13.6464   27.0237 C   0  0  0  0  0  0  0  0  0  0  0  0
    8.0765  -12.4302   27.6431 C   0  0  0  0  0  0  0  0  0  0  0  0
    7.1939  -11.4075   27.4013 C   0  0  0  0  0  0  0  0  0  0  0  0
    6.1476  -11.6379   26.5268 C   0  0  0  0  0  0  0  0  0  0  0  0
    5.9822  -12.8569   25.9065 C   0  0  0  0  0  0  0  0  0  0  0  0
    6.8552  -13.8819   26.1401 C   0  0  0  0  0  0  0  0  0  0  0  0
    7.4699  -17.3027   23.4655 C   0  0  0  0  0  0  0  0  0  0  0  0
    8.0966  -18.4160   23.3451 O   0  0  0  0  0  0  0  0  0  0  0  0
    7.8621  -16.2404   22.6435 N   0  0  0  0  0  0  0  0  0  0  0  0
    7.2568  -14.8978   22.7300 C   0  0  0  0  0  0  0  0  0  0  0  0
    6.9410  -14.6592   21.2602 C   0  0  0  0  0  0  0  0  0  0  0  0
    8.1745  -15.2177   20.5967 C   0  0  0  0  0  0  0  0  0  0  0  0
    8.8460  -16.1319   21.5923 C   0  0  1  0  0  0  0  0  0  0  0  0
   10.0711  -15.5471   22.1806 C   0  0  0  0  0  0  0  0  0  0  0  0
    9.9797  -14.8404   23.2166 O   0  0  0  0  0  0  0  0  0  0  0  0
   11.2291  -19.3157   24.9581 N   0  0  0  0  0  0  0  0  0  0  0  0
   12.6334  -19.1326   24.8859 C   0  0  0  0  0  0  0  0  0  0  0  0
   13.3331  -19.6997   25.7360 O   0  0  0  0  0  0  0  0  0  0  0  0
   13.1725  -18.2773   23.8027 C   0  0  0  0  0  0  0  0  0  0  0  0
   12.1281  -17.6171   22.9612 C   0  0  0  0  0  0  0  0  0  0  0  0
   12.4481  -16.2457   22.4784 C   0  0  2  0  0  0  0  0  0  0  0  0
   11.3589  -15.7606   21.6071 N   0  0  0  0  0  0  0  0  0  0  0  0
   13.7142  -16.2657   21.7194 C   0  0  0  0  0  0  0  0  0  0  0  0
   14.8457  -15.7124   22.2837 O   0  0  0  0  0  0  0  0  0  0  0  0
   13.7730  -16.7713   20.5860 O   0  0  0  0  0  0  0  0  0  0  0  0
  2  1  1  1
  3  4  1  0
  3  2  1  0
  4  5  2  0
  6  5  1  0
  7  6  1  0
  8  7  2  0
  9  8  1  0
 10  9  2  0
 10 11  1  0
 11 12  2  0
 12  7  1  0
 12  4  1  0
 13 14  2  0
 13  2  1  0
 15 13  1  0
 16 17  1  0
 16 15  1  0
 18 19  1  0
 18 17  1  0
 19 15  1  0
 19 20  1  1
 21 20  2  0
 23 22  1  0
 24 23  2  0
 25 23  1  0
 27 26  1  6
 26 25  1  0
 27 28  1  0
 28 20  1  0
 29 30  1  0
 29 27  1  0
 31 29  2  0
M  END
$$$$
