WPQ.pdb
     RDKit          3D

 31 33  0  0  1  0  0  0  0  0999 V2000
    9.7822  -14.9249   21.7549 N   0  0  0  0  0  0  0  0  0  0  0  0
    8.6923  -14.6641   22.6276 C   0  0  1  0  0  0  0  0  0  0  0  0
    7.3983  -15.3128   22.1779 C   0  0  0  0  0  0  0  0  0  0  0  0
    7.2002  -15.2060   20.7093 C   0  0  0  0  0  0  0  0  0  0  0  0
    6.7937  -16.2333   19.8632 C   0  0  0  0  0  0  0  0  0  0  0  0
    6.7219  -15.7726   18.6042 N   0  0  0  0  0  0  0  0  0  0  0  0
    7.0650  -14.4633   18.5544 C   0  0  0  0  0  0  0  0  0  0  0  0
    7.1519  -13.5477   17.5324 C   0  0  0  0  0  0  0  0  0  0  0  0
    7.5384  -12.2572   17.7942 C   0  0  0  0  0  0  0  0  0  0  0  0
    7.8332  -11.9136   19.1009 C   0  0  0  0  0  0  0  0  0  0  0  0
    7.7458  -12.8317   20.1244 C   0  0  0  0  0  0  0  0  0  0  0  0
    7.3620  -14.1192   19.8750 C   0  0  0  0  0  0  0  0  0  0  0  0
    8.8845  -15.0431   24.0383 C   0  0  0  0  0  0  0  0  0  0  0  0
    9.8207  -15.8976   24.2383 O   0  0  0  0  0  0  0  0  0  0  0  0
    8.1733  -14.5812   25.1513 N   0  0  0  0  0  0  0  0  0  0  0  0
    6.8157  -14.0125   25.0520 C   0  0  0  0  0  0  0  0  0  0  0  0
    7.0119  -12.7291   25.8467 C   0  0  0  0  0  0  0  0  0  0  0  0
    7.8697  -13.2146   26.9879 C   0  0  0  0  0  0  0  0  0  0  0  0
    8.4947  -14.5192   26.5575 C   0  0  1  0  0  0  0  0  0  0  0  0
    7.8838  -15.6973   27.2116 C   0  0  0  0  0  0  0  0  0  0  0  0
    6.7445  -16.0831   26.8450 O   0  0  0  0  0  0  0  0  0  0  0  0
   13.0206  -18.7726   25.7194 N   0  0  0  0  0  0  0  0  0  0  0  0
   11.6071  -18.6613   25.7015 C   0  0  0  0  0  0  0  0  0  0  0  0
   11.0333  -18.7802   24.6105 O   0  0  0  0  0  0  0  0  0  0  0  0
   10.9090  -18.4101   26.9841 C   0  0  0  0  0  0  0  0  0  0  0  0
    9.4379  -18.1807   26.8505 C   0  0  0  0  0  0  0  0  0  0  0  0
    8.7067  -17.8747   28.1108 C   0  0  2  0  0  0  0  0  0  0  0  0
    8.5493  -16.4130   28.2497 N   0  0  0  0  0  0  0  0  0  0  0  0
    9.4600  -18.4012   29.2661 C   0  0  0  0  0  0  0  0  0  0  0  0
    9.5144  -19.7652   29.4690 O   0  0  0  0  0  0  0  0  0  0  0  0
   10.0419  -17.6358   30.0532 O   0  0  0  0  0  0  0  0  0  0  0  0
  2  1  1  6
  3  4  1  0
  3  2  1  0
  4  5  2  0
  6  5  1  0
  7  6  1  0
  8  7  2  0
  9  8  1  0
 10  9  2  0
 10 11  1  0
 11 12  2  0
 12  7  1  0
 12  4  1  0
 13 14  2  0
 13  2  1  0
 15 13  1  0
 16 17  1  0
 16 15  1  0
 18 19  1  0
 18 17  1  0
 19 15  1  0
 19 20  1  1
 21 20  2  0
 23 22  1  0
 24 23  2  0
 25 23  1  0
 27 26  1  6
 26 25  1  0
 27 28  1  0
 28 20  1  0
 29 30  1  0
 29 27  1  0
 31 29  2  0
M  END
$$$$
