WPQ.pdb
     RDKit          3D

 31 33  0  0  1  0  0  0  0  0999 V2000
    5.1423  -17.9646   24.3913 N   0  0  0  0  0  0  0  0  0  0  0  0
    6.0696  -16.9116   24.6127 C   0  0  1  0  0  0  0  0  0  0  0  0
    6.6589  -16.9181   26.0091 C   0  0  0  0  0  0  0  0  0  0  0  0
    7.0342  -15.5543   26.4639 C   0  0  0  0  0  0  0  0  0  0  0  0
    6.2057  -14.4363   26.4630 C   0  0  0  0  0  0  0  0  0  0  0  0
    6.8811  -13.3798   26.9429 N   0  0  0  0  0  0  0  0  0  0  0  0
    8.1461  -13.7320   27.2742 C   0  0  0  0  0  0  0  0  0  0  0  0
    9.2139  -13.0398   27.7947 C   0  0  0  0  0  0  0  0  0  0  0  0
   10.4034  -13.6826   28.0303 C   0  0  0  0  0  0  0  0  0  0  0  0
   10.4907  -15.0299   27.7309 C   0  0  0  0  0  0  0  0  0  0  0  0
    9.4202  -15.7229   27.2094 C   0  0  0  0  0  0  0  0  0  0  0  0
    8.2314  -15.0927   26.9710 C   0  0  0  0  0  0  0  0  0  0  0  0
    7.2057  -16.8391   23.6773 C   0  0  0  0  0  0  0  0  0  0  0  0
    7.5639  -17.9685   23.1844 O   0  0  0  0  0  0  0  0  0  0  0  0
    7.9143  -15.6995   23.2811 N   0  0  0  0  0  0  0  0  0  0  0  0
    7.7219  -14.3797   23.9118 C   0  0  0  0  0  0  0  0  0  0  0  0
    7.5345  -13.5216   22.6686 C   0  0  0  0  0  0  0  0  0  0  0  0
    8.5730  -14.1062   21.7447 C   0  0  0  0  0  0  0  0  0  0  0  0
    8.9194  -15.4787   22.2683 C   0  0  1  0  0  0  0  0  0  0  0  0
   10.2426  -15.5296   22.9282 C   0  0  0  0  0  0  0  0  0  0  0  0
   10.3757  -15.0411   24.0792 O   0  0  0  0  0  0  0  0  0  0  0  0
   13.1877  -20.6632   22.8698 N   0  0  0  0  0  0  0  0  0  0  0  0
   13.1607  -19.9602   21.6385 C   0  0  0  0  0  0  0  0  0  0  0  0
   13.3074  -20.6149   20.5976 O   0  0  0  0  0  0  0  0  0  0  0  0
   12.9601  -18.4926   21.6755 C   0  0  0  0  0  0  0  0  0  0  0  0
   12.8045  -17.9262   23.0501 C   0  0  0  0  0  0  0  0  0  0  0  0
   12.5487  -16.4617   23.1288 C   0  0  2  0  0  0  0  0  0  0  0  0
   11.3777  -16.1180   22.2972 N   0  0  0  0  0  0  0  0  0  0  0  0
   13.7307  -15.7210   22.6455 C   0  0  0  0  0  0  0  0  0  0  0  0
   14.8939  -15.7519   23.3876 O   0  0  0  0  0  0  0  0  0  0  0  0
   13.6911  -15.0741   21.5853 O   0  0  0  0  0  0  0  0  0  0  0  0
  2  1  1  6
  3  4  1  0
  3  2  1  0
  4  5  2  0
  6  5  1  0
  7  6  1  0
  8  7  2  0
  9  8  1  0
 10  9  2  0
 10 11  1  0
 11 12  2  0
 12  7  1  0
 12  4  1  0
 13 14  2  0
 13  2  1  0
 15 13  1  0
 16 17  1  0
 16 15  1  0
 18 19  1  0
 18 17  1  0
 19 15  1  0
 19 20  1  1
 21 20  2  0
 23 22  1  0
 24 23  2  0
 25 23  1  0
 27 26  1  6
 26 25  1  0
 27 28  1  0
 28 20  1  0
 29 30  1  0
 29 27  1  0
 31 29  2  0
M  END
$$$$
