WPQ.pdb
     RDKit          3D

 31 33  0  0  1  0  0  0  0  0999 V2000
    6.5677  -18.1923   24.9771 N   0  0  0  0  0  0  0  0  0  0  0  0
    6.9943  -16.9581   24.4181 C   0  0  1  0  0  0  0  0  0  0  0  0
    7.8218  -16.1230   25.3748 C   0  0  0  0  0  0  0  0  0  0  0  0
    7.0273  -15.0313   25.9949 C   0  0  0  0  0  0  0  0  0  0  0  0
    5.8049  -15.1778   26.6434 C   0  0  0  0  0  0  0  0  0  0  0  0
    5.3832  -13.9792   27.0772 N   0  0  0  0  0  0  0  0  0  0  0  0
    6.2734  -13.0125   26.7497 C   0  0  0  0  0  0  0  0  0  0  0  0
    6.3116  -11.6540   26.9571 C   0  0  0  0  0  0  0  0  0  0  0  0
    7.3731  -10.9159   26.4967 C   0  0  0  0  0  0  0  0  0  0  0  0
    8.3880  -11.5748   25.8270 C   0  0  0  0  0  0  0  0  0  0  0  0
    8.3489  -12.9362   25.6195 C   0  0  0  0  0  0  0  0  0  0  0  0
    7.2969  -13.6806   26.0737 C   0  0  0  0  0  0  0  0  0  0  0  0
    7.7616  -17.0440   23.1633 C   0  0  0  0  0  0  0  0  0  0  0  0
    8.1726  -18.2235   22.8689 O   0  0  0  0  0  0  0  0  0  0  0  0
    8.0795  -16.0033   22.2837 N   0  0  0  0  0  0  0  0  0  0  0  0
    7.6118  -14.6183   22.4826 C   0  0  0  0  0  0  0  0  0  0  0  0
    7.0493  -14.3318   21.0975 C   0  0  0  0  0  0  0  0  0  0  0  0
    8.0888  -14.9760   20.2155 C   0  0  0  0  0  0  0  0  0  0  0  0
    8.8568  -15.9566   21.0679 C   0  0  1  0  0  0  0  0  0  0  0  0
   10.2132  -15.4806   21.4183 C   0  0  0  0  0  0  0  0  0  0  0  0
   10.3416  -14.5420   22.2452 O   0  0  0  0  0  0  0  0  0  0  0  0
   11.2806  -20.0685   24.6787 N   0  0  0  0  0  0  0  0  0  0  0  0
   12.1562  -18.9531   24.6634 C   0  0  0  0  0  0  0  0  0  0  0  0
   12.3750  -18.3773   25.7378 O   0  0  0  0  0  0  0  0  0  0  0  0
   12.7508  -18.5486   23.3679 C   0  0  0  0  0  0  0  0  0  0  0  0
   11.8190  -17.8017   22.4686 C   0  0  0  0  0  0  0  0  0  0  0  0
   12.4002  -16.6361   21.7475 C   0  0  2  0  0  0  0  0  0  0  0  0
   11.3854  -16.0555   20.8454 N   0  0  0  0  0  0  0  0  0  0  0  0
   13.5705  -17.0693   20.9586 C   0  0  0  0  0  0  0  0  0  0  0  0
   14.8343  -16.6972   21.3699 O   0  0  0  0  0  0  0  0  0  0  0  0
   13.4323  -17.7603   19.9352 O   0  0  0  0  0  0  0  0  0  0  0  0
  2  1  1  1
  3  4  1  0
  3  2  1  0
  4  5  2  0
  6  5  1  0
  7  6  1  0
  8  7  2  0
  9  8  1  0
 10  9  2  0
 10 11  1  0
 11 12  2  0
 12  7  1  0
 12  4  1  0
 13 14  2  0
 13  2  1  0
 15 13  1  0
 16 17  1  0
 16 15  1  0
 18 19  1  0
 18 17  1  0
 19 15  1  0
 19 20  1  1
 21 20  2  0
 23 22  1  0
 24 23  2  0
 25 23  1  0
 27 26  1  6
 26 25  1  0
 27 28  1  0
 28 20  1  0
 29 30  1  0
 29 27  1  0
 31 29  2  0
M  END
$$$$
