WPQ.pdb
     RDKit          3D

 31 33  0  0  1  0  0  0  0  0999 V2000
    6.4709  -17.9254   24.5172 N   0  0  0  0  0  0  0  0  0  0  0  0
    6.9400  -16.7083   23.9550 C   0  0  1  0  0  0  0  0  0  0  0  0
    7.8249  -15.9168   24.8973 C   0  0  0  0  0  0  0  0  0  0  0  0
    7.0522  -14.9253   25.6895 C   0  0  0  0  0  0  0  0  0  0  0  0
    5.9275  -15.1960   26.4629 C   0  0  0  0  0  0  0  0  0  0  0  0
    5.4958  -14.0609   27.0354 N   0  0  0  0  0  0  0  0  0  0  0  0
    6.2846  -13.0180   26.6827 C   0  0  0  0  0  0  0  0  0  0  0  0
    6.2723  -11.6780   26.9899 C   0  0  0  0  0  0  0  0  0  0  0  0
    7.2274  -10.8423   26.4677 C   0  0  0  0  0  0  0  0  0  0  0  0
    8.1884  -11.3851   25.6345 C   0  0  0  0  0  0  0  0  0  0  0  0
    8.2001  -12.7280   25.3272 C   0  0  0  0  0  0  0  0  0  0  0  0
    7.2539  -13.5690   25.8416 C   0  0  0  0  0  0  0  0  0  0  0  0
    7.6752  -16.8210   22.6831 C   0  0  0  0  0  0  0  0  0  0  0  0
    8.0416  -18.0135   22.3826 O   0  0  0  0  0  0  0  0  0  0  0  0
    8.0058  -15.7926   21.7938 N   0  0  0  0  0  0  0  0  0  0  0  0
    7.6499  -14.3815   22.0363 C   0  0  0  0  0  0  0  0  0  0  0  0
    7.0179  -14.0379   20.6948 C   0  0  0  0  0  0  0  0  0  0  0  0
    7.9492  -14.7400   19.7390 C   0  0  0  0  0  0  0  0  0  0  0  0
    8.7020  -15.7828   20.5289 C   0  0  1  0  0  0  0  0  0  0  0  0
   10.1084  -15.4063   20.7918 C   0  0  0  0  0  0  0  0  0  0  0  0
   10.3534  -14.3808   21.4769 O   0  0  0  0  0  0  0  0  0  0  0  0
   11.8027  -20.2572   24.0035 N   0  0  0  0  0  0  0  0  0  0  0  0
   12.0427  -18.8927   24.3055 C   0  0  0  0  0  0  0  0  0  0  0  0
   11.7214  -18.4861   25.4304 O   0  0  0  0  0  0  0  0  0  0  0  0
   12.6597  -18.0431   23.2601 C   0  0  0  0  0  0  0  0  0  0  0  0
   11.6903  -17.4835   22.2693 C   0  0  0  0  0  0  0  0  0  0  0  0
   12.2635  -16.5859   21.2290 C   0  0  2  0  0  0  0  0  0  0  0  0
   11.2006  -16.1735   20.2903 N   0  0  0  0  0  0  0  0  0  0  0  0
   13.3270  -17.2936   20.4889 C   0  0  0  0  0  0  0  0  0  0  0  0
   12.9877  -18.0617   19.3936 O   0  0  0  0  0  0  0  0  0  0  0  0
   14.5162  -17.2067   20.8382 O   0  0  0  0  0  0  0  0  0  0  0  0
  2  1  1  1
  3  4  1  0
  3  2  1  0
  4  5  2  0
  6  5  1  0
  7  6  1  0
  8  7  2  0
  9  8  1  0
 10  9  2  0
 10 11  1  0
 11 12  2  0
 12  7  1  0
 12  4  1  0
 13 14  2  0
 13  2  1  0
 15 13  1  0
 16 17  1  0
 16 15  1  0
 18 19  1  0
 18 17  1  0
 19 15  1  0
 19 20  1  1
 21 20  2  0
 23 22  1  0
 24 23  2  0
 25 23  1  0
 27 26  1  1
 26 25  1  0
 27 28  1  0
 28 20  1  0
 29 30  1  0
 29 27  1  0
 31 29  2  0
M  END
$$$$
