WPQ.pdb
     RDKit          3D

 31 33  0  0  1  0  0  0  0  0999 V2000
    6.9434  -17.3799   24.1018 N   0  0  0  0  0  0  0  0  0  0  0  0
    7.1591  -16.1604   23.4062 C   0  0  1  0  0  0  0  0  0  0  0  0
    7.8952  -15.1239   24.2315 C   0  0  0  0  0  0  0  0  0  0  0  0
    7.0264  -14.5201   25.2747 C   0  0  0  0  0  0  0  0  0  0  0  0
    6.0209  -15.1748   25.9793 C   0  0  0  0  0  0  0  0  0  0  0  0
    5.4478  -14.3178   26.8394 N   0  0  0  0  0  0  0  0  0  0  0  0
    6.0243  -13.0955   26.7511 C   0  0  0  0  0  0  0  0  0  0  0  0
    5.8106  -11.9012   27.3979 C   0  0  0  0  0  0  0  0  0  0  0  0
    6.5731  -10.8032   27.0877 C   0  0  0  0  0  0  0  0  0  0  0  0
    7.5493  -10.9362   26.1171 C   0  0  0  0  0  0  0  0  0  0  0  0
    7.7629  -12.1333   25.4695 C   0  0  0  0  0  0  0  0  0  0  0  0
    7.0094  -13.2328   25.7706 C   0  0  0  0  0  0  0  0  0  0  0  0
    7.8759  -16.2626   22.1230 C   0  0  0  0  0  0  0  0  0  0  0  0
    8.1755  -17.4603   21.7731 O   0  0  0  0  0  0  0  0  0  0  0  0
    8.2530  -15.2194   21.2701 N   0  0  0  0  0  0  0  0  0  0  0  0
    7.9744  -13.8020   21.5699 C   0  0  0  0  0  0  0  0  0  0  0  0
    7.3504  -13.3741   20.2491 C   0  0  0  0  0  0  0  0  0  0  0  0
    8.2352  -14.0868   19.2577 C   0  0  0  0  0  0  0  0  0  0  0  0
    8.9382  -15.1975   19.9993 C   0  0  1  0  0  0  0  0  0  0  0  0
   10.3648  -14.9059   20.2618 C   0  0  0  0  0  0  0  0  0  0  0  0
   10.6691  -13.9286   20.9920 O   0  0  0  0  0  0  0  0  0  0  0  0
   12.9897  -16.7962   24.3594 N   0  0  0  0  0  0  0  0  0  0  0  0
   12.6601  -17.7850   23.3979 C   0  0  0  0  0  0  0  0  0  0  0  0
   12.6609  -18.9680   23.7641 O   0  0  0  0  0  0  0  0  0  0  0  0
   12.3375  -17.3417   22.0213 C   0  0  0  0  0  0  0  0  0  0  0  0
   12.7576  -15.9412   21.7104 C   0  0  0  0  0  0  0  0  0  0  0  0
   12.7709  -15.5671   20.2695 C   0  0  2  0  0  0  0  0  0  0  0  0
   11.4109  -15.7022   19.7101 N   0  0  0  0  0  0  0  0  0  0  0  0
   13.6967  -16.4497   19.5324 C   0  0  0  0  0  0  0  0  0  0  0  0
   13.1905  -17.3112   18.5804 O   0  0  0  0  0  0  0  0  0  0  0  0
   14.9185  -16.4266   19.7575 O   0  0  0  0  0  0  0  0  0  0  0  0
  2  1  1  1
  3  4  1  0
  3  2  1  0
  4  5  2  0
  6  5  1  0
  7  6  1  0
  8  7  2  0
  9  8  1  0
 10  9  2  0
 10 11  1  0
 11 12  2  0
 12  7  1  0
 12  4  1  0
 13 14  2  0
 13  2  1  0
 15 13  1  0
 16 17  1  0
 16 15  1  0
 18 19  1  0
 18 17  1  0
 19 15  1  0
 19 20  1  1
 21 20  2  0
 23 22  1  0
 24 23  2  0
 25 23  1  0
 27 26  1  1
 26 25  1  0
 27 28  1  0
 28 20  1  0
 29 30  1  0
 29 27  1  0
 31 29  2  0
M  END
$$$$
