WPQ.pdb
     RDKit          3D

 31 33  0  0  1  0  0  0  0  0999 V2000
    6.5918  -18.4825   25.1457 N   0  0  0  0  0  0  0  0  0  0  0  0
    6.9735  -17.2378   24.5776 C   0  0  1  0  0  0  0  0  0  0  0  0
    7.6859  -16.3271   25.5577 C   0  0  0  0  0  0  0  0  0  0  0  0
    6.8134  -15.2203   26.0281 C   0  0  0  0  0  0  0  0  0  0  0  0
    5.4904  -15.3428   26.4419 C   0  0  0  0  0  0  0  0  0  0  0  0
    5.0205  -14.1365   26.7978 N   0  0  0  0  0  0  0  0  0  0  0  0
    5.9745  -13.1877   26.6432 C   0  0  0  0  0  0  0  0  0  0  0  0
    6.0012  -11.8305   26.8613 C   0  0  0  0  0  0  0  0  0  0  0  0
    7.1433  -11.1136   26.6061 C   0  0  0  0  0  0  0  0  0  0  0  0
    8.2500  -11.7920   26.1293 C   0  0  0  0  0  0  0  0  0  0  0  0
    8.2225  -13.1520   25.9111 C   0  0  0  0  0  0  0  0  0  0  0  0
    7.0907  -13.8755   26.1618 C   0  0  0  0  0  0  0  0  0  0  0  0
    7.8210  -17.3055   23.3743 C   0  0  0  0  0  0  0  0  0  0  0  0
    8.3343  -18.4595   23.1475 O   0  0  0  0  0  0  0  0  0  0  0  0
    8.1157  -16.2722   22.4781 N   0  0  0  0  0  0  0  0  0  0  0  0
    7.6496  -14.8864   22.6754 C   0  0  0  0  0  0  0  0  0  0  0  0
    7.0540  -14.6137   21.3014 C   0  0  0  0  0  0  0  0  0  0  0  0
    8.0741  -15.2638   20.4010 C   0  0  0  0  0  0  0  0  0  0  0  0
    8.8642  -16.2350   21.2439 C   0  0  1  0  0  0  0  0  0  0  0  0
   10.2272  -15.7530   21.5581 C   0  0  0  0  0  0  0  0  0  0  0  0
   10.3885  -14.9304   22.4953 O   0  0  0  0  0  0  0  0  0  0  0  0
   12.1962  -18.4737   26.2099 N   0  0  0  0  0  0  0  0  0  0  0  0
   12.0943  -18.6375   24.8051 C   0  0  0  0  0  0  0  0  0  0  0  0
   11.8312  -19.7684   24.3741 O   0  0  0  0  0  0  0  0  0  0  0  0
   12.3088  -17.4500   23.9452 C   0  0  0  0  0  0  0  0  0  0  0  0
   12.2529  -17.7330   22.4784 C   0  0  0  0  0  0  0  0  0  0  0  0
   12.5774  -16.5915   21.5794 C   0  0  2  0  0  0  0  0  0  0  0  0
   11.3698  -16.1940   20.8281 N   0  0  0  0  0  0  0  0  0  0  0  0
   13.6388  -16.9870   20.6326 C   0  0  0  0  0  0  0  0  0  0  0  0
   14.9478  -16.6486   20.9095 O   0  0  0  0  0  0  0  0  0  0  0  0
   13.3695  -17.6167   19.5958 O   0  0  0  0  0  0  0  0  0  0  0  0
  2  1  1  1
  3  4  1  0
  3  2  1  0
  4  5  2  0
  6  5  1  0
  7  6  1  0
  8  7  2  0
  9  8  1  0
 10  9  2  0
 10 11  1  0
 11 12  2  0
 12  7  1  0
 12  4  1  0
 13 14  2  0
 13  2  1  0
 15 13  1  0
 16 17  1  0
 16 15  1  0
 18 19  1  0
 18 17  1  0
 19 15  1  0
 19 20  1  1
 21 20  2  0
 23 22  1  0
 24 23  2  0
 25 23  1  0
 27 26  1  1
 26 25  1  0
 27 28  1  0
 28 20  1  0
 29 30  1  0
 29 27  1  0
 31 29  2  0
M  END
$$$$
