WPQ.pdb
     RDKit          3D

 31 33  0  0  1  0  0  0  0  0999 V2000
    6.6826  -17.6988   24.6809 N   0  0  0  0  0  0  0  0  0  0  0  0
    7.0152  -16.5278   23.9490 C   0  0  1  0  0  0  0  0  0  0  0  0
    7.7894  -15.5124   24.7658 C   0  0  0  0  0  0  0  0  0  0  0  0
    6.8934  -14.6415   25.5698 C   0  0  0  0  0  0  0  0  0  0  0  0
    5.7230  -15.0412   26.2076 C   0  0  0  0  0  0  0  0  0  0  0  0
    5.1770  -13.9894   26.8386 N   0  0  0  0  0  0  0  0  0  0  0  0
    5.9313  -12.8793   26.6573 C   0  0  0  0  0  0  0  0  0  0  0  0
    5.8138  -11.5773   27.0829 C   0  0  0  0  0  0  0  0  0  0  0  0
    6.7605  -10.6485   26.7300 C   0  0  0  0  0  0  0  0  0  0  0  0
    7.8210  -11.0600   25.9436 C   0  0  0  0  0  0  0  0  0  0  0  0
    7.9382  -12.3649   25.5176 C   0  0  0  0  0  0  0  0  0  0  0  0
    7.0013  -13.2977   25.8631 C   0  0  0  0  0  0  0  0  0  0  0  0
    7.7758  -16.7339   22.7041 C   0  0  0  0  0  0  0  0  0  0  0  0
    8.0257  -17.9621   22.4287 O   0  0  0  0  0  0  0  0  0  0  0  0
    8.2406  -15.7579   21.8157 N   0  0  0  0  0  0  0  0  0  0  0  0
    8.0000  -14.3161   22.0157 C   0  0  0  0  0  0  0  0  0  0  0  0
    7.4689  -13.9469   20.6378 C   0  0  0  0  0  0  0  0  0  0  0  0
    8.3806  -14.7486   19.7433 C   0  0  0  0  0  0  0  0  0  0  0  0
    8.9971  -15.8365   20.5885 C   0  0  1  0  0  0  0  0  0  0  0  0
   10.4166  -15.5798   20.9172 C   0  0  0  0  0  0  0  0  0  0  0  0
   10.7115  -14.6021   21.6508 O   0  0  0  0  0  0  0  0  0  0  0  0
   10.5743  -19.2842   24.5158 N   0  0  0  0  0  0  0  0  0  0  0  0
   11.8508  -18.8456   24.0810 C   0  0  0  0  0  0  0  0  0  0  0  0
   12.7833  -18.8894   24.8948 O   0  0  0  0  0  0  0  0  0  0  0  0
   11.9872  -18.3641   22.6864 C   0  0  0  0  0  0  0  0  0  0  0  0
   12.4660  -16.9531   22.5656 C   0  0  0  0  0  0  0  0  0  0  0  0
   12.7329  -16.4692   21.1832 C   0  0  2  0  0  0  0  0  0  0  0  0
   11.4664  -16.4101   20.4260 N   0  0  0  0  0  0  0  0  0  0  0  0
   13.6702  -17.3862   20.5049 C   0  0  0  0  0  0  0  0  0  0  0  0
   13.2239  -18.1333   19.4337 O   0  0  0  0  0  0  0  0  0  0  0  0
   14.8485  -17.4928   20.8844 O   0  0  0  0  0  0  0  0  0  0  0  0
  2  1  1  1
  3  4  1  0
  3  2  1  0
  4  5  2  0
  6  5  1  0
  7  6  1  0
  8  7  2  0
  9  8  1  0
 10  9  2  0
 10 11  1  0
 11 12  2  0
 12  7  1  0
 12  4  1  0
 13 14  2  0
 13  2  1  0
 15 13  1  0
 16 17  1  0
 16 15  1  0
 18 19  1  0
 18 17  1  0
 19 15  1  0
 19 20  1  1
 21 20  2  0
 23 22  1  0
 24 23  2  0
 25 23  1  0
 27 26  1  1
 26 25  1  0
 27 28  1  0
 28 20  1  0
 29 30  1  0
 29 27  1  0
 31 29  2  0
M  END
$$$$
