WPQ.pdb
     RDKit          3D

 31 33  0  0  1  0  0  0  0  0999 V2000
    6.5068  -18.2853   24.6728 N   0  0  0  0  0  0  0  0  0  0  0  0
    6.9393  -17.0565   24.1065 C   0  0  1  0  0  0  0  0  0  0  0  0
    7.7621  -16.2151   25.0619 C   0  0  0  0  0  0  0  0  0  0  0  0
    6.9380  -15.1951   25.7603 C   0  0  0  0  0  0  0  0  0  0  0  0
    5.7458  -15.4325   26.4375 C   0  0  0  0  0  0  0  0  0  0  0  0
    5.2827  -14.2786   26.9441 N   0  0  0  0  0  0  0  0  0  0  0  0
    6.1152  -13.2548   26.6390 C   0  0  0  0  0  0  0  0  0  0  0  0
    6.0964  -11.9078   26.9137 C   0  0  0  0  0  0  0  0  0  0  0  0
    7.1063  -11.0974   26.4591 C   0  0  0  0  0  0  0  0  0  0  0  0
    8.1284  -11.6725   25.7263 C   0  0  0  0  0  0  0  0  0  0  0  0
    8.1466  -13.0223   25.4515 C   0  0  0  0  0  0  0  0  0  0  0  0
    7.1462  -13.8383   25.8992 C   0  0  0  0  0  0  0  0  0  0  0  0
    7.7148  -17.1540   22.8576 C   0  0  0  0  0  0  0  0  0  0  0  0
    8.1799  -18.3237   22.6083 O   0  0  0  0  0  0  0  0  0  0  0  0
    7.9888  -16.1333   21.9406 N   0  0  0  0  0  0  0  0  0  0  0  0
    7.5741  -14.7338   22.1554 C   0  0  0  0  0  0  0  0  0  0  0  0
    6.9113  -14.4497   20.8149 C   0  0  0  0  0  0  0  0  0  0  0  0
    7.8608  -15.1327   19.8632 C   0  0  0  0  0  0  0  0  0  0  0  0
    8.6683  -16.1228   20.6666 C   0  0  1  0  0  0  0  0  0  0  0  0
   10.0600  -15.6791   20.9021 C   0  0  0  0  0  0  0  0  0  0  0  0
   10.2677  -14.6235   21.5531 O   0  0  0  0  0  0  0  0  0  0  0  0
   11.7318  -18.3125   25.1283 N   0  0  0  0  0  0  0  0  0  0  0  0
   12.6011  -19.0571   24.2912 C   0  0  0  0  0  0  0  0  0  0  0  0
   13.3140  -19.9195   24.8221 O   0  0  0  0  0  0  0  0  0  0  0  0
   12.6018  -18.7568   22.8402 C   0  0  0  0  0  0  0  0  0  0  0  0
   11.7522  -17.5896   22.4520 C   0  0  0  0  0  0  0  0  0  0  0  0
   12.2746  -16.7394   21.3471 C   0  0  2  0  0  0  0  0  0  0  0  0
   11.1789  -16.4142   20.4119 N   0  0  0  0  0  0  0  0  0  0  0  0
   13.3419  -17.4591   20.6243 C   0  0  0  0  0  0  0  0  0  0  0  0
   12.9969  -18.3602   19.6376 O   0  0  0  0  0  0  0  0  0  0  0  0
   14.5395  -17.2645   20.8921 O   0  0  0  0  0  0  0  0  0  0  0  0
  2  1  1  1
  3  4  1  0
  3  2  1  0
  4  5  2  0
  6  5  1  0
  7  6  1  0
  8  7  2  0
  9  8  1  0
 10  9  2  0
 10 11  1  0
 11 12  2  0
 12  7  1  0
 12  4  1  0
 13 14  2  0
 13  2  1  0
 15 13  1  0
 16 17  1  0
 16 15  1  0
 18 19  1  0
 18 17  1  0
 19 15  1  0
 19 20  1  1
 21 20  2  0
 23 22  1  0
 24 23  2  0
 25 23  1  0
 27 26  1  1
 26 25  1  0
 27 28  1  0
 28 20  1  0
 29 30  1  0
 29 27  1  0
 31 29  2  0
M  END
$$$$
