CRP.pdb
     RDKit          3D

 25 25  0  0  1  0  0  0  0  0999 V2000
   20.0679  -12.5838  -23.5800 N   0  0  0  0  0  0  0  0  0  0  0  0
   20.1347  -11.2518  -23.0675 C   0  0  1  0  0  0  0  0  0  0  0  0
   19.1225  -10.3250  -23.7050 C   0  0  0  0  0  0  0  0  0  0  0  0
   19.5212  -10.1382  -25.4679 S   0  0  0  0  0  0  0  0  0  0  0  0
   19.9815  -11.1396  -21.6134 C   0  0  0  0  0  0  0  0  0  0  0  0
   19.0177  -11.7586  -21.0928 O   0  0  0  0  0  0  0  0  0  0  0  0
   25.6199  -10.5276  -15.0378 N   0  0  0  0  0  0  0  0  0  0  0  0
   24.3669  -10.2750  -14.3961 C   0  0  0  0  0  0  0  0  0  0  0  0
   24.3357  -10.1177  -13.1136 N   0  0  0  0  0  0  0  0  0  0  0  0
   23.1519  -10.1888  -15.1153 N   0  0  0  0  0  0  0  0  0  0  0  0
   23.1478  -10.2601  -16.5452 C   0  0  0  0  0  0  0  0  0  0  0  0
   21.7128  -10.1683  -17.1002 C   0  0  0  0  0  0  0  0  0  0  0  0
   21.8499  -10.2833  -18.5833 C   0  0  0  0  0  0  0  0  0  0  0  0
   20.5484  -10.3323  -19.3562 C   0  0  2  0  0  0  0  0  0  0  0  0
   20.8235  -10.3968  -20.7555 N   0  0  0  0  0  0  0  0  0  0  0  0
   19.5600   -9.3237  -18.9416 C   0  0  0  0  0  0  0  0  0  0  0  0
   19.6541   -8.1340  -19.4550 O   0  0  0  0  0  0  0  0  0  0  0  0
   25.2020  -10.2607  -12.5514 N   0  0  0  0  0  0  0  0  0  0  0  0
   18.4929   -9.4762  -18.0355 C   0  0  0  0  0  0  0  0  0  0  0  0
   18.1755  -10.7588  -17.3836 C   0  0  0  0  0  0  0  0  0  0  0  0
   16.9746  -10.5133  -16.5268 C   0  0  0  0  0  0  0  0  0  0  0  0
   16.3032   -9.3318  -17.1779 C   0  0  2  0  0  0  0  0  0  0  0  0
   17.5418   -8.5136  -17.5739 C   0  0  0  0  0  0  0  0  0  0  0  0
   17.9696   -7.8353  -16.3275 O   0  0  0  0  0  0  0  0  0  0  0  0
   17.2196   -6.8106  -15.7875 O   0  0  0  0  0  0  0  0  0  0  0  0
  2  5  1  0
  2  1  1  6
  3  2  1  0
  4  3  1  0
  5  6  2  0
  7  8  1  0
  8 10  1  0
  8  9  2  0
 10 11  1  0
 11 12  1  0
 14 13  1  1
 13 12  1  0
 15 14  1  0
 15  5  1  0
 16 17  2  0
 16 14  1  0
 18 16  1  0
 19 18  1  0
 20 21  1  0
 20 19  1  0
 21 22  1  0
 22 18  1  0
 22 23  1  1
 24 23  1  0
 25 23  2  0
M  END
$$$$
