CRP.pdb
     RDKit          3D

 25 25  0  0  1  0  0  0  0  0999 V2000
   23.4325  -13.7544  -16.2936 N   0  0  0  0  0  0  0  0  0  0  0  0
   23.7708  -14.9234  -17.0422 C   0  0  1  0  0  0  0  0  0  0  0  0
   24.6211  -14.6185  -18.2563 C   0  0  0  0  0  0  0  0  0  0  0  0
   24.8795  -16.1519  -19.1963 S   0  0  0  0  0  0  0  0  0  0  0  0
   24.4535  -15.9722  -16.2775 C   0  0  0  0  0  0  0  0  0  0  0  0
   25.5315  -15.6545  -15.7120 O   0  0  0  0  0  0  0  0  0  0  0  0
   25.0905  -21.8209  -10.9861 N   0  0  0  0  0  0  0  0  0  0  0  0
   23.9808  -20.9346  -10.8163 C   0  0  0  0  0  0  0  0  0  0  0  0
   23.7108  -20.4814   -9.6364 N   0  0  0  0  0  0  0  0  0  0  0  0
   23.1621  -20.5310  -11.8969 N   0  0  0  0  0  0  0  0  0  0  0  0
   23.3746  -21.0651  -13.2080 C   0  0  0  0  0  0  0  0  0  0  0  0
   24.5089  -20.3157  -13.9343 C   0  0  0  0  0  0  0  0  0  0  0  0
   23.8628  -19.1239  -14.5617 C   0  0  0  0  0  0  0  0  0  0  0  0
   24.7781  -18.2474  -15.3909 C   0  0  2  0  0  0  0  0  0  0  0  0
   24.0008  -17.3022  -16.1260 N   0  0  0  0  0  0  0  0  0  0  0  0
   25.7885  -18.9878  -16.1635 C   0  0  0  0  0  0  0  0  0  0  0  0
   25.4572  -19.4146  -17.3450 O   0  0  0  0  0  0  0  0  0  0  0  0
   22.9180  -19.8174   -9.5037 N   0  0  0  0  0  0  0  0  0  0  0  0
   27.1067  -19.3076  -15.7854 C   0  0  0  0  0  0  0  0  0  0  0  0
   27.6585  -18.9823  -14.4585 C   0  0  0  0  0  0  0  0  0  0  0  0
   29.0764  -19.4577  -14.4606 C   0  0  0  0  0  0  0  0  0  0  0  0
   29.4543  -19.4569  -15.9193 C   0  0  1  0  0  0  0  0  0  0  0  0
   28.1377  -19.9609  -16.5301 C   0  0  0  0  0  0  0  0  0  0  0  0
   28.1542  -21.4283  -16.3229 O   0  0  0  0  0  0  0  0  0  0  0  0
   29.0203  -22.2327  -17.0348 O   0  0  0  0  0  0  0  0  0  0  0  0
  2  5  1  0
  2  1  1  1
  3  2  1  0
  4  3  1  0
  5  6  2  0
  7  8  1  0
  8 10  1  0
  8  9  2  0
 10 11  1  0
 11 12  1  0
 14 13  1  6
 13 12  1  0
 15 14  1  0
 15  5  1  0
 16 17  2  0
 16 14  1  0
 18 16  1  0
 19 18  1  0
 20 21  1  0
 20 19  1  0
 21 22  1  0
 22 18  1  0
 22 23  1  1
 24 23  1  0
 25 23  2  0
M  END
$$$$
