CRP.pdb
     RDKit          3D

 25 25  0  0  1  0  0  0  0  0999 V2000
   28.9839  -19.8512  -16.8475 N   0  0  0  0  0  0  0  0  0  0  0  0
   28.2588  -19.1281  -15.8511 C   0  0  1  0  0  0  0  0  0  0  0  0
   27.6231  -17.8641  -16.3879 C   0  0  0  0  0  0  0  0  0  0  0  0
   26.8508  -16.9618  -15.0127 S   0  0  0  0  0  0  0  0  0  0  0  0
   27.2102  -19.8946  -15.1702 C   0  0  0  0  0  0  0  0  0  0  0  0
   26.4554  -20.5944  -15.8937 O   0  0  0  0  0  0  0  0  0  0  0  0
   22.2298  -19.9642   -9.2502 N   0  0  0  0  0  0  0  0  0  0  0  0
   22.8839  -20.9827   -8.4884 C   0  0  0  0  0  0  0  0  0  0  0  0
   22.2053  -21.6495   -7.6136 N   0  0  0  0  0  0  0  0  0  0  0  0
   24.2540  -21.2918   -8.6569 N   0  0  0  0  0  0  0  0  0  0  0  0
   25.0836  -20.4808   -9.4957 C   0  0  0  0  0  0  0  0  0  0  0  0
   24.6739  -20.6147  -10.9756 C   0  0  0  0  0  0  0  0  0  0  0  0
   25.9553  -20.6787  -11.7407 C   0  0  0  0  0  0  0  0  0  0  0  0
   25.8234  -20.5548  -13.2444 C   0  0  2  0  0  0  0  0  0  0  0  0
   26.9808  -19.9101  -13.7760 N   0  0  0  0  0  0  0  0  0  0  0  0
   24.5274  -20.0236  -13.6964 C   0  0  0  0  0  0  0  0  0  0  0  0
   24.3420  -18.7394  -13.6335 O   0  0  0  0  0  0  0  0  0  0  0  0
   22.6662  -22.4080   -7.0666 N   0  0  0  0  0  0  0  0  0  0  0  0
   23.4258  -20.7395  -14.2033 C   0  0  0  0  0  0  0  0  0  0  0  0
   23.3837  -22.2115  -14.2523 C   0  0  0  0  0  0  0  0  0  0  0  0
   22.0735  -22.5778  -14.8735 C   0  0  0  0  0  0  0  0  0  0  0  0
   21.7136  -21.3671  -15.6951 C   0  0  2  0  0  0  0  0  0  0  0  0
   22.1954  -20.2569  -14.7487 C   0  0  0  0  0  0  0  0  0  0  0  0
   21.1266  -20.1289  -13.7300 O   0  0  0  0  0  0  0  0  0  0  0  0
   19.9011  -19.5849  -14.0561 O   0  0  0  0  0  0  0  0  0  0  0  0
  2  5  1  0
  2  1  1  6
  3  2  1  0
  4  3  1  0
  5  6  2  0
  7  8  1  0
  8 10  1  0
  8  9  2  0
 10 11  1  0
 11 12  1  0
 14 13  1  1
 13 12  1  0
 15 14  1  0
 15  5  1  0
 16 17  2  0
 16 14  1  0
 18 16  1  0
 19 18  1  0
 20 21  1  0
 20 19  1  0
 21 22  1  0
 22 18  1  0
 22 23  1  1
 24 23  1  0
 25 23  2  0
M  END
$$$$
