CRP.pdb
     RDKit          3D

 25 25  0  0  1  0  0  0  0  0999 V2000
   22.3428  -28.1943  -16.0978 N   0  0  0  0  0  0  0  0  0  0  0  0
   22.9779  -29.3973  -15.6607 C   0  0  1  0  0  0  0  0  0  0  0  0
   21.9986  -30.4158  -15.1189 C   0  0  0  0  0  0  0  0  0  0  0  0
   22.9215  -31.7190  -14.2519 S   0  0  0  0  0  0  0  0  0  0  0  0
   23.7970  -30.0687  -16.6751 C   0  0  0  0  0  0  0  0  0  0  0  0
   23.2598  -30.2787  -17.7932 O   0  0  0  0  0  0  0  0  0  0  0  0
   31.6227  -32.1200  -15.7593 N   0  0  0  0  0  0  0  0  0  0  0  0
   31.5194  -32.2276  -17.1817 C   0  0  0  0  0  0  0  0  0  0  0  0
   32.3532  -32.9818  -17.8191 N   0  0  0  0  0  0  0  0  0  0  0  0
   30.5326  -31.5369  -17.9234 N   0  0  0  0  0  0  0  0  0  0  0  0
   29.5877  -30.6890  -17.2617 C   0  0  0  0  0  0  0  0  0  0  0  0
   28.2730  -31.4413  -16.9766 C   0  0  0  0  0  0  0  0  0  0  0  0
   27.2106  -30.6758  -17.6956 C   0  0  0  0  0  0  0  0  0  0  0  0
   25.8023  -31.2101  -17.5375 C   0  0  2  0  0  0  0  0  0  0  0  0
   25.1322  -30.4961  -16.4986 N   0  0  0  0  0  0  0  0  0  0  0  0
   25.7161  -32.6777  -17.4674 C   0  0  0  0  0  0  0  0  0  0  0  0
   25.9069  -33.2430  -16.3134 O   0  0  0  0  0  0  0  0  0  0  0  0
   32.2821  -33.0753  -18.8551 N   0  0  0  0  0  0  0  0  0  0  0  0
   25.4471  -33.5816  -18.5131 C   0  0  0  0  0  0  0  0  0  0  0  0
   25.2120  -33.1495  -19.9020 C   0  0  0  0  0  0  0  0  0  0  0  0
   24.9407  -34.3901  -20.6919 C   0  0  0  0  0  0  0  0  0  0  0  0
   24.4265  -35.3656  -19.6650 C   0  0  2  0  0  0  0  0  0  0  0  0
   25.3411  -35.0071  -18.4837 C   0  0  0  0  0  0  0  0  0  0  0  0
   26.6270  -35.6849  -18.7731 O   0  0  0  0  0  0  0  0  0  0  0  0
   26.7267  -37.0604  -18.7271 O   0  0  0  0  0  0  0  0  0  0  0  0
  2  5  1  0
  2  1  1  6
  3  2  1  0
  4  3  1  0
  5  6  2  0
  7  8  1  0
  8 10  1  0
  8  9  2  0
 10 11  1  0
 11 12  1  0
 14 13  1  1
 13 12  1  0
 15 14  1  0
 15  5  1  0
 16 17  2  0
 16 14  1  0
 18 16  1  0
 19 18  1  0
 20 21  1  0
 20 19  1  0
 21 22  1  0
 22 18  1  0
 22 23  1  6
 24 23  1  0
 25 23  2  0
M  END
$$$$
