CRP.pdb
     RDKit          3D

 25 25  0  0  1  0  0  0  0  0999 V2000
   28.9620  -21.2599  -18.0076 N   0  0  0  0  0  0  0  0  0  0  0  0
   28.1913  -20.3223  -17.2538 C   0  0  1  0  0  0  0  0  0  0  0  0
   27.3633  -19.4048  -18.1271 C   0  0  0  0  0  0  0  0  0  0  0  0
   28.4781  -18.3285  -19.0762 S   0  0  0  0  0  0  0  0  0  0  0  0
   27.2911  -20.9173  -16.2607 C   0  0  0  0  0  0  0  0  0  0  0  0
   26.5075  -21.8137  -16.6671 O   0  0  0  0  0  0  0  0  0  0  0  0
   23.3070  -19.8905  -10.4574 N   0  0  0  0  0  0  0  0  0  0  0  0
   23.7734  -20.6540   -9.3416 C   0  0  0  0  0  0  0  0  0  0  0  0
   22.9314  -21.0202   -8.4320 N   0  0  0  0  0  0  0  0  0  0  0  0
   25.1297  -21.0278   -9.1940 N   0  0  0  0  0  0  0  0  0  0  0  0
   26.0714  -20.7728  -10.2417 C   0  0  0  0  0  0  0  0  0  0  0  0
   25.4896  -21.1594  -11.6157 C   0  0  0  0  0  0  0  0  0  0  0  0
   26.5795  -20.8903  -12.6011 C   0  0  0  0  0  0  0  0  0  0  0  0
   26.2122  -21.1071  -14.0544 C   0  0  2  0  0  0  0  0  0  0  0  0
   27.2333  -20.5667  -14.8930 N   0  0  0  0  0  0  0  0  0  0  0  0
   24.8323  -20.7237  -14.3935 C   0  0  0  0  0  0  0  0  0  0  0  0
   24.5535  -19.4568  -14.4626 O   0  0  0  0  0  0  0  0  0  0  0  0
   23.2619  -21.5655   -7.6072 N   0  0  0  0  0  0  0  0  0  0  0  0
   23.7382  -21.5687  -14.6613 C   0  0  0  0  0  0  0  0  0  0  0  0
   23.8171  -23.0361  -14.5541 C   0  0  0  0  0  0  0  0  0  0  0  0
   22.4714  -23.5624  -14.9399 C   0  0  0  0  0  0  0  0  0  0  0  0
   21.9003  -22.4806  -15.8196 C   0  0  2  0  0  0  0  0  0  0  0  0
   22.4083  -21.2394  -15.0699 C   0  0  0  0  0  0  0  0  0  0  0  0
   21.4802  -21.0741  -13.9262 O   0  0  0  0  0  0  0  0  0  0  0  0
   20.1761  -20.6707  -14.1272 O   0  0  0  0  0  0  0  0  0  0  0  0
  2  5  1  0
  2  1  1  6
  3  2  1  0
  4  3  1  0
  5  6  2  0
  7  8  1  0
  8 10  1  0
  8  9  2  0
 10 11  1  0
 11 12  1  0
 14 13  1  1
 13 12  1  0
 15 14  1  0
 15  5  1  0
 16 17  2  0
 16 14  1  0
 18 16  1  0
 19 18  1  0
 20 21  1  0
 20 19  1  0
 21 22  1  0
 22 18  1  0
 22 23  1  1
 24 23  1  0
 25 23  2  0
M  END
$$$$
