CRP.pdb
     RDKit          3D

 25 25  0  0  1  0  0  0  0  0999 V2000
   19.1035  -16.5615  -16.8883 N   0  0  0  0  0  0  0  0  0  0  0  0
   19.9990  -17.6262  -17.2135 C   0  0  1  0  0  0  0  0  0  0  0  0
   20.3155  -17.6976  -18.6916 C   0  0  0  0  0  0  0  0  0  0  0  0
   18.8310  -18.2411  -19.5875 S   0  0  0  0  0  0  0  0  0  0  0  0
   21.2743  -17.6055  -16.4897 C   0  0  0  0  0  0  0  0  0  0  0  0
   21.9163  -16.5236  -16.4979 O   0  0  0  0  0  0  0  0  0  0  0  0
   25.1532  -23.2520  -15.1507 N   0  0  0  0  0  0  0  0  0  0  0  0
   26.2950  -22.6068  -14.5799 C   0  0  0  0  0  0  0  0  0  0  0  0
   27.4395  -22.7118  -15.1709 N   0  0  0  0  0  0  0  0  0  0  0  0
   26.2198  -21.8519  -13.3860 N   0  0  0  0  0  0  0  0  0  0  0  0
   25.1801  -20.8850  -13.2024 C   0  0  0  0  0  0  0  0  0  0  0  0
   24.3466  -20.7170  -14.4880 C   0  0  0  0  0  0  0  0  0  0  0  0
   23.3429  -19.6551  -14.1775 C   0  0  0  0  0  0  0  0  0  0  0  0
   23.1551  -18.6023  -15.2500 C   0  0  2  0  0  0  0  0  0  0  0  0
   21.8364  -18.6960  -15.7885 N   0  0  0  0  0  0  0  0  0  0  0  0
   24.2479  -18.5389  -16.2337 C   0  0  0  0  0  0  0  0  0  0  0  0
   24.1902  -19.3360  -17.2579 O   0  0  0  0  0  0  0  0  0  0  0  0
   28.2718  -22.2179  -14.7832 N   0  0  0  0  0  0  0  0  0  0  0  0
   25.3837  -17.7067  -16.2161 C   0  0  0  0  0  0  0  0  0  0  0  0
   25.6828  -16.7867  -15.1047 C   0  0  0  0  0  0  0  0  0  0  0  0
   26.9440  -16.0725  -15.4732 C   0  0  0  0  0  0  0  0  0  0  0  0
   26.9692  -16.1394  -16.9783 C   0  0  2  0  0  0  0  0  0  0  0  0
   26.4246  -17.5611  -17.1853 C   0  0  0  0  0  0  0  0  0  0  0  0
   27.5778  -18.4560  -16.9287 O   0  0  0  0  0  0  0  0  0  0  0  0
   28.6345  -18.5184  -17.8139 O   0  0  0  0  0  0  0  0  0  0  0  0
  2  5  1  0
  2  1  1  6
  3  2  1  0
  4  3  1  0
  5  6  2  0
  7  8  1  0
  8 10  1  0
  8  9  2  0
 10 11  1  0
 11 12  1  0
 14 13  1  1
 13 12  1  0
 15 14  1  0
 15  5  1  0
 16 17  2  0
 16 14  1  0
 18 16  1  0
 19 18  1  0
 20 21  1  0
 20 19  1  0
 21 22  1  0
 22 18  1  0
 22 23  1  1
 24 23  1  0
 25 23  2  0
M  END
$$$$
