CRP.pdb
     RDKit          3D

 25 25  0  0  1  0  0  0  0  0999 V2000
   26.6193  -24.4881  -16.4843 N   0  0  0  0  0  0  0  0  0  0  0  0
   27.3923  -25.4170  -17.2465 C   0  0  1  0  0  0  0  0  0  0  0  0
   28.8719  -25.0996  -17.2349 C   0  0  0  0  0  0  0  0  0  0  0  0
   29.1487  -23.5428  -18.1302 S   0  0  0  0  0  0  0  0  0  0  0  0
   27.2390  -26.8209  -16.8514 C   0  0  0  0  0  0  0  0  0  0  0  0
   27.1474  -27.0591  -15.6195 O   0  0  0  0  0  0  0  0  0  0  0  0
   22.1131  -33.3641  -17.6347 N   0  0  0  0  0  0  0  0  0  0  0  0
   22.1115  -32.6094  -16.4198 C   0  0  0  0  0  0  0  0  0  0  0  0
   21.7175  -33.1751  -15.3266 N   0  0  0  0  0  0  0  0  0  0  0  0
   22.5284  -31.2587  -16.3672 N   0  0  0  0  0  0  0  0  0  0  0  0
   23.2610  -30.6820  -17.4536 C   0  0  0  0  0  0  0  0  0  0  0  0
   24.7796  -30.7630  -17.2026 C   0  0  0  0  0  0  0  0  0  0  0  0
   25.3003  -29.3857  -17.4544 C   0  0  0  0  0  0  0  0  0  0  0  0
   26.7922  -29.2081  -17.2635 C   0  0  2  0  0  0  0  0  0  0  0  0
   27.1865  -27.9205  -17.7374 N   0  0  0  0  0  0  0  0  0  0  0  0
   27.6021  -30.3425  -17.7361 C   0  0  0  0  0  0  0  0  0  0  0  0
   27.9525  -30.3593  -18.9869 O   0  0  0  0  0  0  0  0  0  0  0  0
   21.3614  -34.1548  -15.3476 N   0  0  0  0  0  0  0  0  0  0  0  0
   28.0634  -31.4473  -16.9948 C   0  0  0  0  0  0  0  0  0  0  0  0
   27.6065  -31.7367  -15.6242 C   0  0  0  0  0  0  0  0  0  0  0  0
   28.3403  -32.9628  -15.1827 C   0  0  0  0  0  0  0  0  0  0  0  0
   29.5896  -32.9577  -16.0250 C   0  0  2  0  0  0  0  0  0  0  0  0
   29.0048  -32.4609  -17.3561 C   0  0  0  0  0  0  0  0  0  0  0  0
   28.3629  -33.6512  -17.9625 O   0  0  0  0  0  0  0  0  0  0  0  0
   29.1249  -34.6647  -18.5066 O   0  0  0  0  0  0  0  0  0  0  0  0
  2  5  1  0
  2  1  1  1
  3  2  1  0
  4  3  1  0
  5  6  2  0
  7  8  1  0
  8 10  1  0
  8  9  2  0
 10 11  1  0
 11 12  1  0
 14 13  1  6
 13 12  1  0
 15 14  1  0
 15  5  1  0
 16 17  2  0
 16 14  1  0
 18 16  1  0
 19 18  1  0
 20 21  1  0
 20 19  1  0
 21 22  1  0
 22 18  1  0
 22 23  1  1
 24 23  1  0
 25 23  2  0
M  END
$$$$
