CRP.pdb
     RDKit          3D

 25 25  0  0  1  0  0  0  0  0999 V2000
   18.5921  -27.6805  -13.6769 N   0  0  0  0  0  0  0  0  0  0  0  0
   19.4499  -27.9148  -12.5586 C   0  0  1  0  0  0  0  0  0  0  0  0
   18.8002  -27.5690  -11.2365 C   0  0  0  0  0  0  0  0  0  0  0  0
   20.0625  -27.6085   -9.9301 S   0  0  0  0  0  0  0  0  0  0  0  0
   19.9676  -29.2828  -12.4515 C   0  0  0  0  0  0  0  0  0  0  0  0
   19.1371  -30.1858  -12.1730 O   0  0  0  0  0  0  0  0  0  0  0  0
   27.2882  -33.2453  -15.3275 N   0  0  0  0  0  0  0  0  0  0  0  0
   26.6397  -34.2503  -14.5433 C   0  0  0  0  0  0  0  0  0  0  0  0
   27.1838  -35.4180  -14.4400 N   0  0  0  0  0  0  0  0  0  0  0  0
   25.4178  -34.0143  -13.8707 N   0  0  0  0  0  0  0  0  0  0  0  0
   24.8208  -32.7132  -13.8845 C   0  0  0  0  0  0  0  0  0  0  0  0
   23.5402  -32.6822  -13.0274 C   0  0  0  0  0  0  0  0  0  0  0  0
   23.0234  -31.2845  -13.1314 C   0  0  0  0  0  0  0  0  0  0  0  0
   21.7153  -31.0184  -12.4160 C   0  0  2  0  0  0  0  0  0  0  0  0
   21.3155  -29.6655  -12.6345 N   0  0  0  0  0  0  0  0  0  0  0  0
   21.6849  -31.4797  -11.0187 C   0  0  0  0  0  0  0  0  0  0  0  0
   22.1512  -30.6821  -10.1055 O   0  0  0  0  0  0  0  0  0  0  0  0
   26.7385  -36.1478  -13.8432 N   0  0  0  0  0  0  0  0  0  0  0  0
   21.2050  -32.7062  -10.5204 C   0  0  0  0  0  0  0  0  0  0  0  0
   20.5332  -33.7056  -11.3695 C   0  0  0  0  0  0  0  0  0  0  0  0
   20.1573  -34.8409  -10.4716 C   0  0  0  0  0  0  0  0  0  0  0  0
   20.0597  -34.2053   -9.1090 C   0  0  2  0  0  0  0  0  0  0  0  0
   21.2441  -33.2300   -9.1907 C   0  0  0  0  0  0  0  0  0  0  0  0
   22.4448  -34.0604   -8.9355 O   0  0  0  0  0  0  0  0  0  0  0  0
   22.7083  -34.5527   -7.6736 O   0  0  0  0  0  0  0  0  0  0  0  0
  2  5  1  0
  2  1  1  6
  3  2  1  0
  4  3  1  0
  5  6  2  0
  7  8  1  0
  8 10  1  0
  8  9  2  0
 10 11  1  0
 11 12  1  0
 14 13  1  1
 13 12  1  0
 15 14  1  0
 15  5  1  0
 16 17  2  0
 16 14  1  0
 18 16  1  0
 19 18  1  0
 20 21  1  0
 20 19  1  0
 21 22  1  0
 22 18  1  0
 22 23  1  1
 24 23  1  0
 25 23  2  0
M  END
$$$$
