CRP.pdb
     RDKit          3D

 25 25  0  0  1  0  0  0  0  0999 V2000
   19.8989  -20.0207  -13.3915 N   0  0  0  0  0  0  0  0  0  0  0  0
   20.7307  -20.0662  -14.5522 C   0  0  1  0  0  0  0  0  0  0  0  0
   19.9865  -19.7178  -15.8230 C   0  0  0  0  0  0  0  0  0  0  0  0
   21.1450  -19.7803  -17.2215 S   0  0  0  0  0  0  0  0  0  0  0  0
   21.9240  -19.2158  -14.4924 C   0  0  0  0  0  0  0  0  0  0  0  0
   21.7486  -18.0095  -14.1811 O   0  0  0  0  0  0  0  0  0  0  0  0
   29.4293  -21.5121  -11.9397 N   0  0  0  0  0  0  0  0  0  0  0  0
   27.9991  -21.5253  -11.9539 C   0  0  0  0  0  0  0  0  0  0  0  0
   27.3694  -22.3889  -11.2273 N   0  0  0  0  0  0  0  0  0  0  0  0
   27.2415  -20.6230  -12.7367 N   0  0  0  0  0  0  0  0  0  0  0  0
   27.6409  -19.2535  -12.8570 C   0  0  0  0  0  0  0  0  0  0  0  0
   26.6949  -18.4811  -13.7973 C   0  0  0  0  0  0  0  0  0  0  0  0
   25.4068  -19.2373  -13.7774 C   0  0  0  0  0  0  0  0  0  0  0  0
   24.3256  -18.7070  -14.6960 C   0  0  2  0  0  0  0  0  0  0  0  0
   23.2462  -19.6395  -14.7549 N   0  0  0  0  0  0  0  0  0  0  0  0
   24.8203  -18.2142  -15.9916 C   0  0  0  0  0  0  0  0  0  0  0  0
   24.8935  -19.0595  -16.9753 O   0  0  0  0  0  0  0  0  0  0  0  0
   26.3272  -22.3817  -11.1977 N   0  0  0  0  0  0  0  0  0  0  0  0
   25.2389  -16.9107  -16.3212 C   0  0  0  0  0  0  0  0  0  0  0  0
   25.3890  -15.8421  -15.3179 C   0  0  0  0  0  0  0  0  0  0  0  0
   25.8207  -14.6190  -16.0624 C   0  0  0  0  0  0  0  0  0  0  0  0
   25.3102  -14.8500  -17.4612 C   0  0  1  0  0  0  0  0  0  0  0  0
   25.5835  -16.3562  -17.5932 C   0  0  0  0  0  0  0  0  0  0  0  0
   27.0314  -16.4599  -17.8919 O   0  0  0  0  0  0  0  0  0  0  0  0
   27.5451  -15.9733  -19.0766 O   0  0  0  0  0  0  0  0  0  0  0  0
  2  5  1  0
  2  1  1  1
  3  2  1  0
  4  3  1  0
  5  6  2  0
  7  8  1  0
  8 10  1  0
  8  9  2  0
 10 11  1  0
 11 12  1  0
 14 13  1  6
 13 12  1  0
 15 14  1  0
 15  5  1  0
 16 17  2  0
 16 14  1  0
 18 16  1  0
 19 18  1  0
 20 21  1  0
 20 19  1  0
 21 22  1  0
 22 18  1  0
 22 23  1  6
 24 23  1  0
 25 23  2  0
M  END
$$$$
