CRP.pdb
     RDKit          3D

 25 25  0  0  1  0  0  0  0  0999 V2000
   30.5195  -23.0023  -10.2030 N   0  0  0  0  0  0  0  0  0  0  0  0
   29.8268  -21.7527  -10.1975 C   0  0  1  0  0  0  0  0  0  0  0  0
   30.7595  -20.5631  -10.2694 C   0  0  0  0  0  0  0  0  0  0  0  0
   31.7900  -20.5297   -8.7732 S   0  0  0  0  0  0  0  0  0  0  0  0
   28.8270  -21.5944  -11.2587 C   0  0  0  0  0  0  0  0  0  0  0  0
   29.1760  -21.9190  -12.4230 O   0  0  0  0  0  0  0  0  0  0  0  0
   19.2469  -20.8636  -13.2809 N   0  0  0  0  0  0  0  0  0  0  0  0
   20.3692  -20.6666  -12.4165 C   0  0  0  0  0  0  0  0  0  0  0  0
   20.1678  -20.4888  -11.1523 N   0  0  0  0  0  0  0  0  0  0  0  0
   21.7007  -20.6598  -12.8941 N   0  0  0  0  0  0  0  0  0  0  0  0
   22.8001  -20.7497  -11.9816 C   0  0  0  0  0  0  0  0  0  0  0  0
   24.1449  -20.7669  -12.7344 C   0  0  0  0  0  0  0  0  0  0  0  0
   25.1883  -20.9663  -11.6841 C   0  0  0  0  0  0  0  0  0  0  0  0
   26.6149  -21.0368  -12.1879 C   0  0  2  0  0  0  0  0  0  0  0  0
   27.5119  -21.1095  -11.0797 N   0  0  0  0  0  0  0  0  0  0  0  0
   26.9437  -20.0365  -13.2162 C   0  0  0  0  0  0  0  0  0  0  0  0
   27.2200  -18.8295  -12.8231 O   0  0  0  0  0  0  0  0  0  0  0  0
   20.9783  -20.3492  -10.5115 N   0  0  0  0  0  0  0  0  0  0  0  0
   27.0012  -20.2140  -14.6119 C   0  0  0  0  0  0  0  0  0  0  0  0
   26.8018  -21.5222  -15.2597 C   0  0  0  0  0  0  0  0  0  0  0  0
   26.9646  -21.2969  -16.7292 C   0  0  0  0  0  0  0  0  0  0  0  0
   27.8339  -20.0690  -16.8111 C   0  0  2  0  0  0  0  0  0  0  0  0
   27.2493  -19.2572  -15.6449 C   0  0  0  0  0  0  0  0  0  0  0  0
   26.0058  -18.6547  -16.1807 O   0  0  0  0  0  0  0  0  0  0  0  0
   26.0560  -17.5679  -17.0296 O   0  0  0  0  0  0  0  0  0  0  0  0
  2  5  1  0
  2  1  1  6
  3  2  1  0
  4  3  1  0
  5  6  2  0
  7  8  1  0
  8 10  1  0
  8  9  2  0
 10 11  1  0
 11 12  1  0
 14 13  1  1
 13 12  1  0
 15 14  1  0
 15  5  1  0
 16 17  2  0
 16 14  1  0
 18 16  1  0
 19 18  1  0
 20 21  1  0
 20 19  1  0
 21 22  1  0
 22 18  1  0
 22 23  1  6
 24 23  1  0
 25 23  2  0
M  END
$$$$
