CRP.pdb
     RDKit          3D

 25 25  0  0  1  0  0  0  0  0999 V2000
   21.7509  -16.2975  -16.8364 N   0  0  0  0  0  0  0  0  0  0  0  0
   21.8259  -17.6446  -16.3662 C   0  0  1  0  0  0  0  0  0  0  0  0
   21.5547  -18.6626  -17.4525 C   0  0  0  0  0  0  0  0  0  0  0  0
   19.8068  -18.5568  -17.9377 S   0  0  0  0  0  0  0  0  0  0  0  0
   23.0954  -18.0077  -15.7280 C   0  0  0  0  0  0  0  0  0  0  0  0
   24.1354  -17.4599  -16.1764 O   0  0  0  0  0  0  0  0  0  0  0  0
   24.2843  -21.0409   -8.0705 N   0  0  0  0  0  0  0  0  0  0  0  0
   23.4373  -20.8639   -9.2092 C   0  0  0  0  0  0  0  0  0  0  0  0
   22.1549  -20.9055   -9.0538 N   0  0  0  0  0  0  0  0  0  0  0  0
   23.9518  -20.6424  -10.5082 N   0  0  0  0  0  0  0  0  0  0  0  0
   25.3404  -20.8534  -10.7850 C   0  0  0  0  0  0  0  0  0  0  0  0
   25.6996  -20.3815  -12.2077 C   0  0  0  0  0  0  0  0  0  0  0  0
   24.4357  -19.8218  -12.7740 C   0  0  0  0  0  0  0  0  0  0  0  0
   24.5438  -19.2555  -14.1746 C   0  0  2  0  0  0  0  0  0  0  0  0
   23.2434  -18.9177  -14.6571 N   0  0  0  0  0  0  0  0  0  0  0  0
   25.3806  -20.0519  -15.0864 C   0  0  0  0  0  0  0  0  0  0  0  0
   24.8346  -21.0721  -15.6770 O   0  0  0  0  0  0  0  0  0  0  0  0
   21.5275  -20.7915   -9.8786 N   0  0  0  0  0  0  0  0  0  0  0  0
   26.7352  -19.8537  -15.4163 C   0  0  0  0  0  0  0  0  0  0  0  0
   27.5678  -18.8156  -14.7839 C   0  0  0  0  0  0  0  0  0  0  0  0
   28.9192  -18.9118  -15.4173 C   0  0  0  0  0  0  0  0  0  0  0  0
   28.6435  -19.5354  -16.7610 C   0  0  1  0  0  0  0  0  0  0  0  0
   27.5555  -20.5442  -16.3621 C   0  0  0  0  0  0  0  0  0  0  0  0
   28.2888  -21.6840  -15.7623 O   0  0  0  0  0  0  0  0  0  0  0  0
   28.2190  -21.9345  -14.4072 O   0  0  0  0  0  0  0  0  0  0  0  0
  2  5  1  0
  2  1  1  6
  3  2  1  0
  4  3  1  0
  5  6  2  0
  7  8  1  0
  8 10  1  0
  8  9  2  0
 10 11  1  0
 11 12  1  0
 14 13  1  1
 13 12  1  0
 15 14  1  0
 15  5  1  0
 16 17  2  0
 16 14  1  0
 18 16  1  0
 19 18  1  0
 20 21  1  0
 20 19  1  0
 21 22  1  0
 22 18  1  0
 22 23  1  1
 24 23  1  0
 25 23  2  0
M  END
$$$$
