CRP.pdb
     RDKit          3D

 25 25  0  0  1  0  0  0  0  0999 V2000
   18.0023  -11.4813    4.9803 N   0  0  0  0  0  0  0  0  0  0  0  0
   18.9160  -12.5037    5.3818 C   0  0  1  0  0  0  0  0  0  0  0  0
   19.9118  -12.0287    6.4175 C   0  0  0  0  0  0  0  0  0  0  0  0
   21.3932  -11.4053    5.5699 S   0  0  0  0  0  0  0  0  0  0  0  0
   18.2903  -13.7251    5.8987 C   0  0  0  0  0  0  0  0  0  0  0  0
   17.5381  -13.6001    6.8994 O   0  0  0  0  0  0  0  0  0  0  0  0
   16.4122  -20.7495    1.4257 N   0  0  0  0  0  0  0  0  0  0  0  0
   15.3600  -19.8010    1.6228 C   0  0  0  0  0  0  0  0  0  0  0  0
   14.2388  -19.9647    1.0010 N   0  0  0  0  0  0  0  0  0  0  0  0
   15.4989  -18.6833    2.4787 N   0  0  0  0  0  0  0  0  0  0  0  0
   16.6508  -18.5503    3.3183 C   0  0  0  0  0  0  0  0  0  0  0  0
   16.5229  -17.3247    4.2441 C   0  0  0  0  0  0  0  0  0  0  0  0
   17.7751  -17.3066    5.0585 C   0  0  0  0  0  0  0  0  0  0  0  0
   17.9023  -16.1540    6.0327 C   0  0  2  0  0  0  0  0  0  0  0  0
   18.4634  -15.0228    5.3668 N   0  0  0  0  0  0  0  0  0  0  0  0
   18.5202  -16.5142    7.3190 C   0  0  0  0  0  0  0  0  0  0  0  0
   19.8155  -16.4657    7.4054 O   0  0  0  0  0  0  0  0  0  0  0  0
   13.4601  -19.2870    1.1467 N   0  0  0  0  0  0  0  0  0  0  0  0
   17.8794  -16.9174    8.5063 C   0  0  0  0  0  0  0  0  0  0  0  0
   16.4134  -16.9663    8.6460 C   0  0  0  0  0  0  0  0  0  0  0  0
   16.1356  -17.4139   10.0457 C   0  0  0  0  0  0  0  0  0  0  0  0
   17.3723  -17.0094   10.8054 C   0  0  1  0  0  0  0  0  0  0  0  0
   18.4431  -17.3341    9.7524 C   0  0  0  0  0  0  0  0  0  0  0  0
   18.6318  -18.8018    9.8354 O   0  0  0  0  0  0  0  0  0  0  0  0
   19.2187  -19.3772   10.9438 O   0  0  0  0  0  0  0  0  0  0  0  0
  2  5  1  0
  2  1  1  1
  3  2  1  0
  4  3  1  0
  5  6  2  0
  7  8  1  0
  8 10  1  0
  8  9  2  0
 10 11  1  0
 11 12  1  0
 14 13  1  6
 13 12  1  0
 15 14  1  0
 15  5  1  0
 16 17  2  0
 16 14  1  0
 18 16  1  0
 19 18  1  0
 20 21  1  0
 20 19  1  0
 21 22  1  0
 22 18  1  0
 22 23  1  1
 24 23  1  0
 25 23  2  0
M  END
$$$$
