CRP.pdb
     RDKit          3D

 25 25  0  0  1  0  0  0  0  0999 V2000
   20.2252  -18.2547  -16.9231 N   0  0  0  0  0  0  0  0  0  0  0  0
   20.8110  -19.4752  -16.4664 C   0  0  1  0  0  0  0  0  0  0  0  0
   21.1630  -20.4177  -17.5968 C   0  0  0  0  0  0  0  0  0  0  0  0
   19.6429  -21.2094  -18.2003 S   0  0  0  0  0  0  0  0  0  0  0  0
   22.0094  -19.3142  -15.6366 C   0  0  0  0  0  0  0  0  0  0  0  0
   22.8005  -18.3883  -15.9523 O   0  0  0  0  0  0  0  0  0  0  0  0
   23.4436  -21.4818   -7.5793 N   0  0  0  0  0  0  0  0  0  0  0  0
   22.6128  -21.0830   -8.6731 C   0  0  0  0  0  0  0  0  0  0  0  0
   21.3284  -21.1091   -8.5315 N   0  0  0  0  0  0  0  0  0  0  0  0
   23.1456  -20.6571   -9.9123 N   0  0  0  0  0  0  0  0  0  0  0  0
   24.4680  -21.0404  -10.3045 C   0  0  0  0  0  0  0  0  0  0  0  0
   24.8149  -20.4851  -11.6999 C   0  0  0  0  0  0  0  0  0  0  0  0
   23.5238  -20.4564  -12.4507 C   0  0  0  0  0  0  0  0  0  0  0  0
   23.6101  -19.9523  -13.8763 C   0  0  2  0  0  0  0  0  0  0  0  0
   22.3450  -20.1105  -14.5185 N   0  0  0  0  0  0  0  0  0  0  0  0
   24.7768  -20.4483  -14.6240 C   0  0  0  0  0  0  0  0  0  0  0  0
   24.6651  -21.5876  -15.2381 O   0  0  0  0  0  0  0  0  0  0  0  0
   20.7124  -20.8300   -9.3249 N   0  0  0  0  0  0  0  0  0  0  0  0
   26.0375  -19.8380  -14.7690 C   0  0  0  0  0  0  0  0  0  0  0  0
   26.4260  -18.6222  -14.0327 C   0  0  0  0  0  0  0  0  0  0  0  0
   27.8124  -18.2817  -14.4782 C   0  0  0  0  0  0  0  0  0  0  0  0
   27.9153  -18.9070  -15.8452 C   0  0  1  0  0  0  0  0  0  0  0  0
   27.1438  -20.2117  -15.5940 C   0  0  0  0  0  0  0  0  0  0  0  0
   28.1052  -21.0994  -14.8981 O   0  0  0  0  0  0  0  0  0  0  0  0
   29.1290  -21.7129  -15.5905 O   0  0  0  0  0  0  0  0  0  0  0  0
  2  5  1  0
  2  1  1  6
  3  2  1  0
  4  3  1  0
  5  6  2  0
  7  8  1  0
  8 10  1  0
  8  9  2  0
 10 11  1  0
 11 12  1  0
 14 13  1  1
 13 12  1  0
 15 14  1  0
 15  5  1  0
 16 17  2  0
 16 14  1  0
 18 16  1  0
 19 18  1  0
 20 21  1  0
 20 19  1  0
 21 22  1  0
 22 18  1  0
 22 23  1  1
 24 23  1  0
 25 23  2  0
M  END
$$$$
