CRP.pdb
     RDKit          3D

 25 25  0  0  1  0  0  0  0  0999 V2000
   17.1072  -21.2940  -13.1941 N   0  0  0  0  0  0  0  0  0  0  0  0
   18.3075  -21.9354  -13.6292 C   0  0  1  0  0  0  0  0  0  0  0  0
   18.0941  -22.8285  -14.8321 C   0  0  0  0  0  0  0  0  0  0  0  0
   17.1337  -24.2846  -14.3232 S   0  0  0  0  0  0  0  0  0  0  0  0
   19.4153  -21.0276  -13.9445 C   0  0  0  0  0  0  0  0  0  0  0  0
   19.1302  -19.9812  -14.5822 O   0  0  0  0  0  0  0  0  0  0  0  0
   27.3170  -21.8044  -15.9671 N   0  0  0  0  0  0  0  0  0  0  0  0
   26.7011  -22.9881  -15.4521 C   0  0  0  0  0  0  0  0  0  0  0  0
   27.2113  -24.1403  -15.7392 N   0  0  0  0  0  0  0  0  0  0  0  0
   25.5478  -22.9467  -14.6341 N   0  0  0  0  0  0  0  0  0  0  0  0
   24.8875  -21.7037  -14.3721 C   0  0  0  0  0  0  0  0  0  0  0  0
   23.6879  -21.9026  -13.4249 C   0  0  0  0  0  0  0  0  0  0  0  0
   23.0565  -20.5554  -13.2915 C   0  0  0  0  0  0  0  0  0  0  0  0
   21.7804  -20.3527  -14.0816 C   0  0  2  0  0  0  0  0  0  0  0  0
   20.7683  -21.2325  -13.5921 N   0  0  0  0  0  0  0  0  0  0  0  0
   21.9681  -20.3382  -15.5412 C   0  0  0  0  0  0  0  0  0  0  0  0
   21.8047  -21.4542  -16.1859 O   0  0  0  0  0  0  0  0  0  0  0  0
   26.7417  -25.0122  -15.4133 N   0  0  0  0  0  0  0  0  0  0  0  0
   22.3121  -19.2458  -16.3606 C   0  0  0  0  0  0  0  0  0  0  0  0
   22.5039  -17.8825  -15.8357 C   0  0  0  0  0  0  0  0  0  0  0  0
   22.8304  -17.0176  -17.0112 C   0  0  0  0  0  0  0  0  0  0  0  0
   22.2179  -17.7488  -18.1776 C   0  0  2  0  0  0  0  0  0  0  0  0
   22.5333  -19.1969  -17.7723 C   0  0  0  0  0  0  0  0  0  0  0  0
   23.9554  -19.3979  -18.1382 O   0  0  0  0  0  0  0  0  0  0  0  0
   24.9145  -19.5929  -17.1655 O   0  0  0  0  0  0  0  0  0  0  0  0
  2  5  1  0
  2  1  1  6
  3  2  1  0
  4  3  1  0
  5  6  2  0
  7  8  1  0
  8 10  1  0
  8  9  2  0
 10 11  1  0
 11 12  1  0
 14 13  1  1
 13 12  1  0
 15 14  1  0
 15  5  1  0
 16 17  2  0
 16 14  1  0
 18 16  1  0
 19 18  1  0
 20 21  1  0
 20 19  1  0
 21 22  1  0
 22 18  1  0
 22 23  1  6
 24 23  1  0
 25 23  2  0
M  END
$$$$
