YYS.pdb
     RDKit          3D

 31 32  0  0  1  0  0  0  0  0999 V2000
    8.7554  -21.8629   15.9292 O   0  0  0  0  0  0  0  0  0  0  0  0
    9.0431  -21.1307   17.0746 C   0  0  0  0  0  0  0  0  0  0  0  0
   10.3127  -21.0573   17.6061 C   0  0  0  0  0  0  0  0  0  0  0  0
   10.5362  -20.3145   18.7451 C   0  0  0  0  0  0  0  0  0  0  0  0
    9.5023  -19.6494   19.3505 C   0  0  0  0  0  0  0  0  0  0  0  0
    9.7384  -18.8390   20.5903 C   0  0  0  0  0  0  0  0  0  0  0  0
    9.7153  -17.3513   20.2527 C   0  0  2  0  0  0  0  0  0  0  0  0
   10.7824  -17.0543   19.3425 N   0  0  0  0  0  0  0  0  0  0  0  0
    9.7250  -16.5170   21.4623 C   0  0  0  0  0  0  0  0  0  0  0  0
   10.8392  -16.2764   22.0220 O   0  0  0  0  0  0  0  0  0  0  0  0
    8.2428  -19.7215   18.8244 C   0  0  0  0  0  0  0  0  0  0  0  0
    8.0073  -20.4591   17.6886 C   0  0  0  0  0  0  0  0  0  0  0  0
    7.0108  -11.6361   28.3502 O   0  0  0  0  0  0  0  0  0  0  0  0
    7.1442  -12.2378   27.1146 C   0  0  0  0  0  0  0  0  0  0  0  0
    8.0425  -11.7625   26.1612 C   0  0  0  0  0  0  0  0  0  0  0  0
    8.1188  -12.4248   24.9365 C   0  0  0  0  0  0  0  0  0  0  0  0
    7.3559  -13.5088   24.6390 C   0  0  0  0  0  0  0  0  0  0  0  0
    7.4463  -14.1927   23.3519 C   0  0  0  0  0  0  0  0  0  0  0  0
    8.5713  -15.1805   23.2604 C   0  0  2  0  0  0  0  0  0  0  0  0
    8.5889  -15.9520   22.0646 N   0  0  0  0  0  0  0  0  0  0  0  0
    8.6498  -16.0609   24.4516 C   0  0  0  0  0  0  0  0  0  0  0  0
    7.7328  -16.8554   24.7761 O   0  0  0  0  0  0  0  0  0  0  0  0
    6.4635  -13.9800   25.5879 C   0  0  0  0  0  0  0  0  0  0  0  0
    6.3645  -13.3378   26.8234 C   0  0  0  0  0  0  0  0  0  0  0  0
   12.2533  -16.6905   25.4135 O   0  0  0  0  0  0  0  0  0  0  0  0
   11.3928  -17.6604   25.9647 C   0  0  0  0  0  0  0  0  0  0  0  0
   10.0935  -16.9410   26.3313 C   0  0  2  0  0  0  0  0  0  0  0  0
    9.8011  -16.0190   25.2725 N   0  0  0  0  0  0  0  0  0  0  0  0
   10.3713  -16.1858   27.5706 C   0  0  0  0  0  0  0  0  0  0  0  0
   10.2544  -14.8073   27.5579 O   0  0  0  0  0  0  0  0  0  0  0  0
   10.7089  -16.8027   28.6160 O   0  0  0  0  0  0  0  0  0  0  0  0
  2 12  2  0
  2  1  1  0
  3  2  1  0
  4  5  1  0
  4  3  2  0
  5 11  2  0
  6  7  1  0
  6  5  1  0
  7  8  1  6
  9  7  1  0
  9 20  1  0
 10  9  2  0
 11 12  1  0
 13 14  1  0
 14 15  2  0
 15 16  1  0
 17 18  1  0
 17 16  2  0
 19 18  1  1
 19 20  1  0
 19 21  1  0
 21 28  1  0
 22 21  2  0
 23 17  1  0
 24 23  2  0
 24 14  1  0
 25 26  1  0
 27 26  1  6
 27 29  1  0
 28 27  1  0
 29 31  2  0
 29 30  1  0
M  END
$$$$
