YYS.pdb
     RDKit          3D

 31 32  0  0  1  0  0  0  0  0999 V2000
    7.3557  -13.5761   17.0396 O   0  0  0  0  0  0  0  0  0  0  0  0
    7.6758  -13.6622   18.3890 C   0  0  0  0  0  0  0  0  0  0  0  0
    7.4804  -12.6153   19.2639 C   0  0  0  0  0  0  0  0  0  0  0  0
    7.8176  -12.7609   20.5921 C   0  0  0  0  0  0  0  0  0  0  0  0
    8.3460  -13.9412   21.0457 C   0  0  0  0  0  0  0  0  0  0  0  0
    8.7152  -14.1066   22.4899 C   0  0  0  0  0  0  0  0  0  0  0  0
    8.6755  -15.5831   22.8722 C   0  0  2  0  0  0  0  0  0  0  0  0
    7.3913  -16.1258   22.5379 N   0  0  0  0  0  0  0  0  0  0  0  0
    9.0556  -15.7939   24.2759 C   0  0  0  0  0  0  0  0  0  0  0  0
   10.2508  -15.5418   24.6230 O   0  0  0  0  0  0  0  0  0  0  0  0
    8.5403  -14.9801   20.1790 C   0  0  0  0  0  0  0  0  0  0  0  0
    8.2078  -14.8470   18.8519 C   0  0  0  0  0  0  0  0  0  0  0  0
    6.2004  -10.7002   25.6586 O   0  0  0  0  0  0  0  0  0  0  0  0
    6.6557  -11.9019   26.1636 C   0  0  0  0  0  0  0  0  0  0  0  0
    7.8573  -11.9946   26.8632 C   0  0  0  0  0  0  0  0  0  0  0  0
    8.2489  -13.2444   27.3420 C   0  0  0  0  0  0  0  0  0  0  0  0
    7.5087  -14.3679   27.1537 C   0  0  0  0  0  0  0  0  0  0  0  0
    7.9313  -15.6705   27.6608 C   0  0  0  0  0  0  0  0  0  0  0  0
    8.5657  -16.5539   26.6280 C   0  0  2  0  0  0  0  0  0  0  0  0
    8.1970  -16.2584   25.2856 N   0  0  0  0  0  0  0  0  0  0  0  0
    8.3698  -17.9952   26.9186 C   0  0  0  0  0  0  0  0  0  0  0  0
    8.2637  -18.4493   28.0848 O   0  0  0  0  0  0  0  0  0  0  0  0
    6.3146  -14.2739   26.4581 C   0  0  0  0  0  0  0  0  0  0  0  0
    5.8960  -13.0362   25.9665 C   0  0  0  0  0  0  0  0  0  0  0  0
    8.3806  -20.3286   23.6402 O   0  0  0  0  0  0  0  0  0  0  0  0
    7.5917  -20.8735   24.6726 C   0  0  0  0  0  0  0  0  0  0  0  0
    8.1555  -20.3367   25.9895 C   0  0  2  0  0  0  0  0  0  0  0  0
    8.2964  -18.9167   25.8478 N   0  0  0  0  0  0  0  0  0  0  0  0
    9.4929  -20.9447   26.1481 C   0  0  0  0  0  0  0  0  0  0  0  0
    9.5872  -22.2934   26.4419 O   0  0  0  0  0  0  0  0  0  0  0  0
   10.5233  -20.2321   26.0147 O   0  0  0  0  0  0  0  0  0  0  0  0
  2 12  2  0
  2  1  1  0
  3  2  1  0
  4  5  1  0
  4  3  2  0
  5 11  2  0
  6  7  1  0
  6  5  1  0
  7  8  1  1
  9  7  1  0
  9 20  1  0
 10  9  2  0
 11 12  1  0
 13 14  1  0
 14 15  2  0
 15 16  1  0
 17 18  1  0
 17 16  2  0
 19 18  1  1
 19 20  1  0
 19 21  1  0
 21 28  1  0
 22 21  2  0
 23 17  1  0
 24 23  2  0
 24 14  1  0
 25 26  1  0
 27 26  1  6
 27 29  1  0
 28 27  1  0
 29 31  2  0
 29 30  1  0
M  END
$$$$
