YYS.pdb
     RDKit          3D

 31 32  0  0  1  0  0  0  0  0999 V2000
    7.5794  -13.3443   16.0423 O   0  0  0  0  0  0  0  0  0  0  0  0
    7.9501  -13.5224   17.3696 C   0  0  0  0  0  0  0  0  0  0  0  0
    9.0784  -14.2248   17.7346 C   0  0  0  0  0  0  0  0  0  0  0  0
    9.3943  -14.3678   19.0683 C   0  0  0  0  0  0  0  0  0  0  0  0
    8.5919  -13.8150   20.0318 C   0  0  0  0  0  0  0  0  0  0  0  0
    8.9298  -13.9665   21.4852 C   0  0  0  0  0  0  0  0  0  0  0  0
    8.9818  -15.4453   21.8567 C   0  0  2  0  0  0  0  0  0  0  0  0
    7.8236  -16.1078   21.3323 N   0  0  0  0  0  0  0  0  0  0  0  0
    9.1660  -15.6389   23.3017 C   0  0  0  0  0  0  0  0  0  0  0  0
   10.2225  -15.1871   23.8424 O   0  0  0  0  0  0  0  0  0  0  0  0
    7.4726  -13.1182   19.6711 C   0  0  0  0  0  0  0  0  0  0  0  0
    7.1470  -12.9688   18.3440 C   0  0  0  0  0  0  0  0  0  0  0  0
    6.4737  -10.3377   26.4715 O   0  0  0  0  0  0  0  0  0  0  0  0
    6.6729  -11.7038   26.4519 C   0  0  0  0  0  0  0  0  0  0  0  0
    7.8160  -12.2855   26.9965 C   0  0  0  0  0  0  0  0  0  0  0  0
    7.9440  -13.6728   26.9378 C   0  0  0  0  0  0  0  0  0  0  0  0
    7.0030  -14.4739   26.3737 C   0  0  0  0  0  0  0  0  0  0  0  0
    7.1502  -15.9258   26.3192 C   0  0  0  0  0  0  0  0  0  0  0  0
    8.3626  -16.3912   25.5686 C   0  0  2  0  0  0  0  0  0  0  0  0
    8.2593  -16.2919   24.1527 N   0  0  0  0  0  0  0  0  0  0  0  0
    8.7858  -17.7557   25.9673 C   0  0  0  0  0  0  0  0  0  0  0  0
    7.9904  -18.7252   26.0370 O   0  0  0  0  0  0  0  0  0  0  0  0
    5.8672  -13.8940   25.8329 C   0  0  0  0  0  0  0  0  0  0  0  0
    5.7108  -12.5075   25.8766 C   0  0  0  0  0  0  0  0  0  0  0  0
   12.7109  -18.2213   26.1219 O   0  0  0  0  0  0  0  0  0  0  0  0
   12.0227  -19.4466   26.0224 C   0  0  0  0  0  0  0  0  0  0  0  0
   10.6762  -19.2550   26.7227 C   0  0  2  0  0  0  0  0  0  0  0  0
   10.1424  -17.9972   26.2876 N   0  0  0  0  0  0  0  0  0  0  0  0
   10.9660  -19.1858   28.1700 C   0  0  0  0  0  0  0  0  0  0  0  0
   11.4151  -20.3215   28.8202 O   0  0  0  0  0  0  0  0  0  0  0  0
   10.8015  -18.1010   28.7892 O   0  0  0  0  0  0  0  0  0  0  0  0
  2 12  2  0
  2  1  1  0
  3  2  1  0
  4  5  1  0
  4  3  2  0
  5 11  2  0
  6  7  1  0
  6  5  1  0
  7  8  1  1
  9  7  1  0
  9 20  1  0
 10  9  2  0
 11 12  1  0
 13 14  1  0
 14 15  2  0
 15 16  1  0
 17 18  1  0
 17 16  2  0
 19 18  1  1
 19 20  1  0
 19 21  1  0
 21 28  1  0
 22 21  2  0
 23 17  1  0
 24 23  2  0
 24 14  1  0
 25 26  1  0
 27 26  1  6
 27 29  1  0
 28 27  1  0
 29 31  2  0
 29 30  1  0
M  END
$$$$
