YYS.pdb
     RDKit          3D

 31 32  0  0  1  0  0  0  0  0999 V2000
    7.0597  -14.3310   14.0287 O   0  0  0  0  0  0  0  0  0  0  0  0
    7.7361  -14.3415   15.2426 C   0  0  0  0  0  0  0  0  0  0  0  0
    8.7832  -15.2004   15.4985 C   0  0  0  0  0  0  0  0  0  0  0  0
    9.4154  -15.1638   16.7224 C   0  0  0  0  0  0  0  0  0  0  0  0
    9.0073  -14.2777   17.6848 C   0  0  0  0  0  0  0  0  0  0  0  0
    9.6909  -14.2323   19.0191 C   0  0  0  0  0  0  0  0  0  0  0  0
    9.3362  -15.4755   19.8291 C   0  0  2  0  0  0  0  0  0  0  0  0
    8.0927  -16.0109   19.3572 N   0  0  0  0  0  0  0  0  0  0  0  0
    9.3506  -15.2081   21.2739 C   0  0  0  0  0  0  0  0  0  0  0  0
   10.4712  -15.0349   21.8456 O   0  0  0  0  0  0  0  0  0  0  0  0
    7.9690  -13.4254   17.4322 C   0  0  0  0  0  0  0  0  0  0  0  0
    7.3305  -13.4525   16.2152 C   0  0  0  0  0  0  0  0  0  0  0  0
    7.4333  -12.6060   29.4202 O   0  0  0  0  0  0  0  0  0  0  0  0
    7.3393  -12.9571   28.0882 C   0  0  0  0  0  0  0  0  0  0  0  0
    6.5808  -14.0486   27.6698 C   0  0  0  0  0  0  0  0  0  0  0  0
    6.5358  -14.3388   26.3066 C   0  0  0  0  0  0  0  0  0  0  0  0
    7.1988  -13.6031   25.3768 C   0  0  0  0  0  0  0  0  0  0  0  0
    7.1428  -13.9188   23.9521 C   0  0  0  0  0  0  0  0  0  0  0  0
    8.2053  -14.8730   23.4934 C   0  0  2  0  0  0  0  0  0  0  0  0
    8.2126  -15.1258   22.0929 N   0  0  0  0  0  0  0  0  0  0  0  0
    8.1894  -16.1461   24.2543 C   0  0  0  0  0  0  0  0  0  0  0  0
    7.2041  -16.9249   24.2634 O   0  0  0  0  0  0  0  0  0  0  0  0
    7.9523  -12.5184   25.7945 C   0  0  0  0  0  0  0  0  0  0  0  0
    8.0167  -12.2029   27.1528 C   0  0  0  0  0  0  0  0  0  0  0  0
   11.5911  -17.6737   24.7219 O   0  0  0  0  0  0  0  0  0  0  0  0
   10.5532  -18.5674   25.0520 C   0  0  0  0  0  0  0  0  0  0  0  0
    9.4642  -17.7439   25.7422 C   0  0  2  0  0  0  0  0  0  0  0  0
    9.3255  -16.5185   25.0104 N   0  0  0  0  0  0  0  0  0  0  0  0
    9.9657  -17.4456   27.0997 C   0  0  0  0  0  0  0  0  0  0  0  0
   10.1319  -18.4847   27.9979 O   0  0  0  0  0  0  0  0  0  0  0  0
   10.2336  -16.2568   27.4198 O   0  0  0  0  0  0  0  0  0  0  0  0
  2 12  2  0
  2  1  1  0
  3  2  1  0
  4  5  1  0
  4  3  2  0
  5 11  2  0
  6  7  1  0
  6  5  1  0
  7  8  1  6
  9  7  1  0
  9 20  1  0
 10  9  2  0
 11 12  1  0
 13 14  1  0
 14 15  2  0
 15 16  1  0
 17 18  1  0
 17 16  2  0
 19 18  1  6
 19 20  1  0
 19 21  1  0
 21 28  1  0
 22 21  2  0
 23 17  1  0
 24 23  2  0
 24 14  1  0
 25 26  1  0
 27 26  1  6
 27 29  1  0
 28 27  1  0
 29 31  2  0
 29 30  1  0
M  END
$$$$
