YYS.pdb
     RDKit          3D

 31 32  0  0  1  0  0  0  0  0999 V2000
    6.7803  -12.9685   15.7688 O   0  0  0  0  0  0  0  0  0  0  0  0
    7.1479  -13.5977   16.9520 C   0  0  0  0  0  0  0  0  0  0  0  0
    7.2975  -14.9645   17.0475 C   0  0  0  0  0  0  0  0  0  0  0  0
    7.6642  -15.5308   18.2491 C   0  0  0  0  0  0  0  0  0  0  0  0
    7.8805  -14.7412   19.3480 C   0  0  0  0  0  0  0  0  0  0  0  0
    8.2800  -15.3508   20.6588 C   0  0  0  0  0  0  0  0  0  0  0  0
    9.6079  -14.7614   21.1245 C   0  0  2  0  0  0  0  0  0  0  0  0
   10.6141  -15.0181   20.1361 N   0  0  0  0  0  0  0  0  0  0  0  0
    9.9714  -15.2299   22.4691 C   0  0  0  0  0  0  0  0  0  0  0  0
   10.7582  -16.2214   22.5716 O   0  0  0  0  0  0  0  0  0  0  0  0
    7.7325  -13.3855   19.2545 C   0  0  0  0  0  0  0  0  0  0  0  0
    7.3670  -12.8089   18.0614 C   0  0  0  0  0  0  0  0  0  0  0  0
   10.7206  -15.9464   31.2666 O   0  0  0  0  0  0  0  0  0  0  0  0
   10.3207  -15.5864   29.9951 C   0  0  0  0  0  0  0  0  0  0  0  0
    9.4259  -16.3626   29.2611 C   0  0  0  0  0  0  0  0  0  0  0  0
    9.0707  -15.9318   27.9833 C   0  0  0  0  0  0  0  0  0  0  0  0
    9.5603  -14.7918   27.4301 C   0  0  0  0  0  0  0  0  0  0  0  0
    9.1795  -14.3527   26.0904 C   0  0  0  0  0  0  0  0  0  0  0  0
    9.8576  -15.1039   24.9833 C   0  0  2  0  0  0  0  0  0  0  0  0
    9.5164  -14.6668   23.6726 N   0  0  0  0  0  0  0  0  0  0  0  0
    9.6841  -16.5719   25.1063 C   0  0  0  0  0  0  0  0  0  0  0  0
    8.5968  -17.1541   24.8688 O   0  0  0  0  0  0  0  0  0  0  0  0
   10.4497  -14.0215   28.1611 C   0  0  0  0  0  0  0  0  0  0  0  0
   10.8243  -14.4269   29.4433 C   0  0  0  0  0  0  0  0  0  0  0  0
   12.1051  -18.8849   23.8387 O   0  0  0  0  0  0  0  0  0  0  0  0
   10.9692  -19.4865   24.4155 C   0  0  0  0  0  0  0  0  0  0  0  0
   10.7273  -18.7825   25.7520 C   0  0  2  0  0  0  0  0  0  0  0  0
   10.7805  -17.3704   25.5079 N   0  0  0  0  0  0  0  0  0  0  0  0
   11.8493  -19.1663   26.6336 C   0  0  0  0  0  0  0  0  0  0  0  0
   12.7139  -18.1855   27.0860 O   0  0  0  0  0  0  0  0  0  0  0  0
   12.0033  -20.3735   26.9598 O   0  0  0  0  0  0  0  0  0  0  0  0
  2 12  2  0
  2  1  1  0
  3  2  1  0
  4  5  1  0
  4  3  2  0
  5 11  2  0
  6  7  1  0
  6  5  1  0
  7  8  1  6
  9  7  1  0
  9 20  1  0
 10  9  2  0
 11 12  1  0
 13 14  1  0
 14 15  2  0
 15 16  1  0
 17 18  1  0
 17 16  2  0
 19 18  1  1
 19 20  1  0
 19 21  1  0
 21 28  1  0
 22 21  2  0
 23 17  1  0
 24 23  2  0
 24 14  1  0
 25 26  1  0
 27 26  1  6
 27 29  1  0
 28 27  1  0
 29 31  2  0
 29 30  1  0
M  END
$$$$
