YYS.pdb
     RDKit          3D

 31 32  0  0  1  0  0  0  0  0999 V2000
    6.8166  -12.8490   15.7095 O   0  0  0  0  0  0  0  0  0  0  0  0
    7.2109  -13.4765   16.8850 C   0  0  0  0  0  0  0  0  0  0  0  0
    8.0738  -14.5512   16.8963 C   0  0  0  0  0  0  0  0  0  0  0  0
    8.4284  -15.1320   18.0946 C   0  0  0  0  0  0  0  0  0  0  0  0
    7.9269  -14.6457   19.2735 C   0  0  0  0  0  0  0  0  0  0  0  0
    8.3087  -15.2728   20.5814 C   0  0  0  0  0  0  0  0  0  0  0  0
    9.6657  -14.7443   21.0363 C   0  0  2  0  0  0  0  0  0  0  0  0
   10.6557  -15.0669   20.0507 N   0  0  0  0  0  0  0  0  0  0  0  0
   10.0077  -15.2100   22.3875 C   0  0  0  0  0  0  0  0  0  0  0  0
   10.8630  -16.1410   22.5076 O   0  0  0  0  0  0  0  0  0  0  0  0
    7.0711  -13.5800   19.2636 C   0  0  0  0  0  0  0  0  0  0  0  0
    6.7099  -12.9921   18.0747 C   0  0  0  0  0  0  0  0  0  0  0  0
   10.7174  -15.7972   31.1864 O   0  0  0  0  0  0  0  0  0  0  0  0
   10.3239  -15.4341   29.9137 C   0  0  0  0  0  0  0  0  0  0  0  0
   10.7715  -14.2575   29.3160 C   0  0  0  0  0  0  0  0  0  0  0  0
   10.3287  -13.9605   28.0276 C   0  0  0  0  0  0  0  0  0  0  0  0
    9.4831  -14.7690   27.3370 C   0  0  0  0  0  0  0  0  0  0  0  0
    9.0274  -14.4453   25.9879 C   0  0  0  0  0  0  0  0  0  0  0  0
    9.8254  -15.0978   24.8983 C   0  0  2  0  0  0  0  0  0  0  0  0
    9.4615  -14.7063   23.5793 N   0  0  0  0  0  0  0  0  0  0  0  0
    9.8443  -16.5761   25.0183 C   0  0  0  0  0  0  0  0  0  0  0  0
    8.8505  -17.2964   24.7520 O   0  0  0  0  0  0  0  0  0  0  0  0
    9.0392  -15.9381   27.9326 C   0  0  0  0  0  0  0  0  0  0  0  0
    9.4651  -16.2625   29.2219 C   0  0  0  0  0  0  0  0  0  0  0  0
   11.9044  -18.9259   23.4341 O   0  0  0  0  0  0  0  0  0  0  0  0
   12.3139  -19.1160   24.7687 C   0  0  0  0  0  0  0  0  0  0  0  0
   11.1641  -18.6359   25.6562 C   0  0  2  0  0  0  0  0  0  0  0  0
   11.0254  -17.2235   25.4506 N   0  0  0  0  0  0  0  0  0  0  0  0
   11.5830  -18.8854   27.0511 C   0  0  0  0  0  0  0  0  0  0  0  0
   11.8002  -20.1877   27.4646 O   0  0  0  0  0  0  0  0  0  0  0  0
   11.7360  -17.9156   27.8408 O   0  0  0  0  0  0  0  0  0  0  0  0
  2 12  2  0
  2  1  1  0
  3  2  1  0
  4  5  1  0
  4  3  2  0
  5 11  2  0
  6  7  1  0
  6  5  1  0
  7  8  1  6
  9  7  1  0
  9 20  1  0
 10  9  2  0
 11 12  1  0
 13 14  1  0
 14 15  2  0
 15 16  1  0
 17 18  1  0
 17 16  2  0
 19 18  1  1
 19 20  1  0
 19 21  1  0
 21 28  1  0
 22 21  2  0
 23 17  1  0
 24 23  2  0
 24 14  1  0
 25 26  1  0
 27 26  1  6
 27 29  1  0
 28 27  1  0
 29 31  2  0
 29 30  1  0
M  END
$$$$
