YYS.pdb
     RDKit          3D

 31 32  0  0  1  0  0  0  0  0999 V2000
    6.9407  -12.7287   16.2040 O   0  0  0  0  0  0  0  0  0  0  0  0
    7.1092  -13.3804   17.4196 C   0  0  0  0  0  0  0  0  0  0  0  0
    6.8929  -14.7332   17.5700 C   0  0  0  0  0  0  0  0  0  0  0  0
    7.0767  -15.3233   18.8016 C   0  0  0  0  0  0  0  0  0  0  0  0
    7.4733  -14.5711   19.8762 C   0  0  0  0  0  0  0  0  0  0  0  0
    7.6755  -15.2068   21.2195 C   0  0  0  0  0  0  0  0  0  0  0  0
    9.1660  -15.3802   21.4951 C   0  0  2  0  0  0  0  0  0  0  0  0
    9.7401  -16.2238   20.4880 N   0  0  0  0  0  0  0  0  0  0  0  0
    9.4170  -15.8464   22.8658 C   0  0  0  0  0  0  0  0  0  0  0  0
    9.5967  -17.0887   23.0584 O   0  0  0  0  0  0  0  0  0  0  0  0
    7.6882  -13.2293   19.7284 C   0  0  0  0  0  0  0  0  0  0  0  0
    7.5082  -12.6292   18.5048 C   0  0  0  0  0  0  0  0  0  0  0  0
   10.5163  -16.2426   31.6066 O   0  0  0  0  0  0  0  0  0  0  0  0
   10.3373  -15.7485   30.3298 C   0  0  0  0  0  0  0  0  0  0  0  0
    9.7727  -14.4951   30.1015 C   0  0  0  0  0  0  0  0  0  0  0  0
    9.6252  -14.0667   28.7827 C   0  0  0  0  0  0  0  0  0  0  0  0
   10.0084  -14.8194   27.7187 C   0  0  0  0  0  0  0  0  0  0  0  0
    9.8478  -14.3579   26.3426 C   0  0  0  0  0  0  0  0  0  0  0  0
    9.6548  -15.4609   25.3447 C   0  0  2  0  0  0  0  0  0  0  0  0
    9.4766  -15.0233   24.0023 N   0  0  0  0  0  0  0  0  0  0  0  0
    8.5729  -16.3965   25.7374 C   0  0  0  0  0  0  0  0  0  0  0  0
    7.3539  -16.1055   25.6546 O   0  0  0  0  0  0  0  0  0  0  0  0
   10.5694  -16.0651   27.9475 C   0  0  0  0  0  0  0  0  0  0  0  0
   10.7300  -16.5215   29.2569 C   0  0  0  0  0  0  0  0  0  0  0  0
    8.6018  -19.9633   24.7455 O   0  0  0  0  0  0  0  0  0  0  0  0
    7.4733  -19.3746   25.3495 C   0  0  0  0  0  0  0  0  0  0  0  0
    7.9638  -18.6846   26.6237 C   0  0  2  0  0  0  0  0  0  0  0  0
    8.9079  -17.6795   26.2301 N   0  0  0  0  0  0  0  0  0  0  0  0
    8.6583  -19.7201   27.4167 C   0  0  0  0  0  0  0  0  0  0  0  0
    7.9215  -20.7590   27.9571 O   0  0  0  0  0  0  0  0  0  0  0  0
    9.9040  -19.6443   27.5894 O   0  0  0  0  0  0  0  0  0  0  0  0
  2 12  2  0
  2  1  1  0
  3  2  1  0
  4  5  1  0
  4  3  2  0
  5 11  2  0
  6  7  1  0
  6  5  1  0
  7  8  1  6
  9  7  1  0
  9 20  1  0
 10  9  2  0
 11 12  1  0
 13 14  1  0
 14 15  2  0
 15 16  1  0
 17 18  1  0
 17 16  2  0
 19 18  1  1
 19 20  1  0
 19 21  1  0
 21 28  1  0
 22 21  2  0
 23 17  1  0
 24 23  2  0
 24 14  1  0
 25 26  1  0
 27 26  1  6
 27 29  1  0
 28 27  1  0
 29 31  2  0
 29 30  1  0
M  END
$$$$
