AAR.pdb
     RDKit          3D

 22 21  0  0  1  0  0  0  0  0999 V2000
    4.3483  -21.2745   21.2978 C   0  0  0  0  0  0  0  0  0  0  0  0
    5.8639  -21.0603   21.3564 C   0  0  2  0  0  0  0  0  0  0  0  0
    6.5786  -22.2860   21.5155 N   0  0  0  0  0  0  0  0  0  0  0  0
    6.1278  -20.1126   22.4979 C   0  0  0  0  0  0  0  0  0  0  0  0
    5.6842  -18.9372   22.4409 O   0  0  0  0  0  0  0  0  0  0  0  0
    7.6102  -20.2729   25.9063 C   0  0  0  0  0  0  0  0  0  0  0  0
    7.2154  -19.5273   24.6236 C   0  0  2  0  0  0  0  0  0  0  0  0
    6.8673  -20.5082   23.6446 N   0  0  0  0  0  0  0  0  0  0  0  0
    8.3934  -18.7165   24.2488 C   0  0  0  0  0  0  0  0  0  0  0  0
    9.3669  -19.2107   23.6267 O   0  0  0  0  0  0  0  0  0  0  0  0
    7.4920  -13.2957   17.8612 N   0  0  0  0  0  0  0  0  0  0  0  0
    7.7746  -13.1025   19.2350 C   0  0  0  0  0  0  0  0  0  0  0  0
    7.7332  -11.9240   19.7418 N   0  0  0  0  0  0  0  0  0  0  0  0
    8.1083  -14.2000   20.0800 N   0  0  0  0  0  0  0  0  0  0  0  0
    8.4231  -14.0535   21.4688 C   0  0  0  0  0  0  0  0  0  0  0  0
    8.5982  -15.4118   22.1062 C   0  0  0  0  0  0  0  0  0  0  0  0
    8.8876  -15.2730   23.5699 C   0  0  0  0  0  0  0  0  0  0  0  0
    9.5356  -16.4681   24.1996 C   0  0  2  0  0  0  0  0  0  0  0  0
    8.4253  -17.3546   24.5982 N   0  0  0  0  0  0  0  0  0  0  0  0
   10.1797  -16.0568   25.4667 C   0  0  0  0  0  0  0  0  0  0  0  0
    9.5112  -16.1211   26.5256 O   0  0  0  0  0  0  0  0  0  0  0  0
   11.4790  -15.6027   25.5639 O   0  0  0  0  0  0  0  0  0  0  0  0
  2  1  1  1
  2  4  1  0
  2  3  1  0
  4  5  2  0
  7  6  1  1
  7  9  1  0
  8  4  1  0
  8  7  1  0
  9 19  1  0
 10  9  2  0
 12 11  1  0
 12 13  2  0
 14 12  1  0
 15 14  1  0
 16 15  1  0
 17 16  1  0
 18 17  1  1
 19 18  1  0
 20 18  1  0
 21 20  2  0
 22 20  1  0
M  END
$$$$
