AAR.pdb
     RDKit          3D

 22 21  0  0  1  0  0  0  0  0999 V2000
    5.1986  -12.5864   26.5795 C   0  0  0  0  0  0  0  0  0  0  0  0
    6.4023  -11.7600   27.0427 C   0  0  2  0  0  0  0  0  0  0  0  0
    6.3770  -10.4292   26.5259 N   0  0  0  0  0  0  0  0  0  0  0  0
    7.6378  -12.5021   26.6024 C   0  0  0  0  0  0  0  0  0  0  0  0
    8.0115  -12.4247   25.4041 O   0  0  0  0  0  0  0  0  0  0  0  0
   10.3329  -14.4924   28.2410 C   0  0  0  0  0  0  0  0  0  0  0  0
    9.5420  -13.9997   27.0209 C   0  0  2  0  0  0  0  0  0  0  0  0
    8.3990  -13.2919   27.5051 N   0  0  0  0  0  0  0  0  0  0  0  0
    9.1974  -15.2112   26.2468 C   0  0  0  0  0  0  0  0  0  0  0  0
    8.1958  -15.9152   26.5296 O   0  0  0  0  0  0  0  0  0  0  0  0
    7.4613  -12.6029   20.4661 N   0  0  0  0  0  0  0  0  0  0  0  0
    8.4541  -13.3952   19.8406 C   0  0  0  0  0  0  0  0  0  0  0  0
    9.0914  -12.9439   18.8220 N   0  0  0  0  0  0  0  0  0  0  0  0
    8.7669  -14.6994   20.3215 N   0  0  0  0  0  0  0  0  0  0  0  0
    8.0721  -15.3230   21.4067 C   0  0  0  0  0  0  0  0  0  0  0  0
    8.8534  -15.1519   22.6883 C   0  0  0  0  0  0  0  0  0  0  0  0
    9.7139  -16.3516   22.9443 C   0  0  0  0  0  0  0  0  0  0  0  0
    9.7551  -16.8038   24.3720 C   0  0  2  0  0  0  0  0  0  0  0  0
   10.0131  -15.5858   25.1642 N   0  0  0  0  0  0  0  0  0  0  0  0
   10.9456  -17.6591   24.5738 C   0  0  0  0  0  0  0  0  0  0  0  0
   11.9476  -17.1645   25.1428 O   0  0  0  0  0  0  0  0  0  0  0  0
   11.0296  -18.9772   24.1747 O   0  0  0  0  0  0  0  0  0  0  0  0
  2  1  1  6
  2  4  1  0
  2  3  1  0
  4  5  2  0
  7  6  1  1
  7  9  1  0
  8  4  1  0
  8  7  1  0
  9 19  1  0
 10  9  2  0
 12 11  1  0
 12 13  2  0
 14 12  1  0
 15 14  1  0
 16 15  1  0
 17 16  1  0
 18 17  1  6
 19 18  1  0
 20 18  1  0
 21 20  2  0
 22 20  1  0
M  END
$$$$
