AAR.pdb
     RDKit          3D

 22 21  0  0  1  0  0  0  0  0999 V2000
    8.9398  -12.2386   19.2737 C   0  0  0  0  0  0  0  0  0  0  0  0
    8.4920  -13.4980   18.5256 C   0  0  2  0  0  0  0  0  0  0  0  0
    7.1074  -13.4588   18.1791 N   0  0  0  0  0  0  0  0  0  0  0  0
    8.8072  -14.6714   19.4170 C   0  0  0  0  0  0  0  0  0  0  0  0
    8.0108  -14.9778   20.3408 O   0  0  0  0  0  0  0  0  0  0  0  0
   11.3326  -17.4115   19.4681 C   0  0  0  0  0  0  0  0  0  0  0  0
   10.2067  -16.5760   20.0937 C   0  0  2  0  0  0  0  0  0  0  0  0
    9.9843  -15.4480   19.2452 N   0  0  0  0  0  0  0  0  0  0  0  0
   10.6794  -16.2091   21.4456 C   0  0  0  0  0  0  0  0  0  0  0  0
   11.4392  -15.2271   21.6378 O   0  0  0  0  0  0  0  0  0  0  0  0
    5.3062  -13.5277   26.9663 N   0  0  0  0  0  0  0  0  0  0  0  0
    6.4025  -12.6916   26.6444 C   0  0  0  0  0  0  0  0  0  0  0  0
    6.3436  -11.4318   26.8826 N   0  0  0  0  0  0  0  0  0  0  0  0
    7.5857  -13.2225   26.0543 N   0  0  0  0  0  0  0  0  0  0  0  0
    7.7077  -14.5842   25.6298 C   0  0  0  0  0  0  0  0  0  0  0  0
    9.0918  -14.8326   25.0780 C   0  0  0  0  0  0  0  0  0  0  0  0
    9.1926  -16.2167   24.5130 C   0  0  0  0  0  0  0  0  0  0  0  0
   10.5313  -16.5662   23.9382 C   0  0  2  0  0  0  0  0  0  0  0  0
   10.2671  -16.9806   22.5468 N   0  0  0  0  0  0  0  0  0  0  0  0
   11.0462  -17.7775   24.6143 C   0  0  0  0  0  0  0  0  0  0  0  0
   11.9980  -17.6529   25.4211 O   0  0  0  0  0  0  0  0  0  0  0  0
   10.5455  -19.0478   24.4159 O   0  0  0  0  0  0  0  0  0  0  0  0
  2  1  1  1
  2  4  1  0
  2  3  1  0
  4  5  2  0
  7  6  1  6
  7  9  1  0
  8  4  1  0
  8  7  1  0
  9 19  1  0
 10  9  2  0
 12 11  1  0
 12 13  2  0
 14 12  1  0
 15 14  1  0
 16 15  1  0
 17 16  1  0
 18 17  1  1
 19 18  1  0
 20 18  1  0
 21 20  2  0
 22 20  1  0
M  END
$$$$
