AAR.pdb
     RDKit          3D

 22 21  0  0  1  0  0  0  0  0999 V2000
    7.5745  -16.4161   15.4205 C   0  0  0  0  0  0  0  0  0  0  0  0
    8.3116  -15.0735   15.4039 C   0  0  2  0  0  0  0  0  0  0  0  0
    9.3990  -15.0639   14.4786 N   0  0  0  0  0  0  0  0  0  0  0  0
    8.7803  -14.8144   16.8124 C   0  0  0  0  0  0  0  0  0  0  0  0
    9.7720  -15.4452   17.2601 O   0  0  0  0  0  0  0  0  0  0  0  0
    7.7648  -12.5757   19.6324 C   0  0  0  0  0  0  0  0  0  0  0  0
    8.6339  -13.6585   18.9773 C   0  0  2  0  0  0  0  0  0  0  0  0
    8.1324  -13.8733   17.6566 N   0  0  0  0  0  0  0  0  0  0  0  0
    8.5219  -14.8479   19.8480 C   0  0  0  0  0  0  0  0  0  0  0  0
    7.8960  -15.8761   19.4877 O   0  0  0  0  0  0  0  0  0  0  0  0
   15.6403  -17.2474   19.0315 N   0  0  0  0  0  0  0  0  0  0  0  0
   15.0053  -16.1325   19.6302 C   0  0  0  0  0  0  0  0  0  0  0  0
   15.4734  -14.9511   19.4503 N   0  0  0  0  0  0  0  0  0  0  0  0
   13.8431  -16.2930   20.4386 N   0  0  0  0  0  0  0  0  0  0  0  0
   13.1039  -17.5165   20.5157 C   0  0  0  0  0  0  0  0  0  0  0  0
   11.9046  -17.3411   21.4173 C   0  0  0  0  0  0  0  0  0  0  0  0
   11.0378  -16.2209   20.9283 C   0  0  0  0  0  0  0  0  0  0  0  0
    9.7678  -16.0252   21.6985 C   0  0  2  0  0  0  0  0  0  0  0  0
    9.1328  -14.8280   21.1146 N   0  0  0  0  0  0  0  0  0  0  0  0
   10.1000  -15.6501   23.0908 C   0  0  0  0  0  0  0  0  0  0  0  0
   10.4522  -14.4695   23.3241 O   0  0  0  0  0  0  0  0  0  0  0  0
   10.0482  -16.5193   24.1611 O   0  0  0  0  0  0  0  0  0  0  0  0
  2  1  1  1
  2  4  1  0
  2  3  1  0
  4  5  2  0
  7  6  1  1
  7  9  1  0
  8  4  1  0
  8  7  1  0
  9 19  1  0
 10  9  2  0
 12 11  1  0
 12 13  2  0
 14 12  1  0
 15 14  1  0
 16 15  1  0
 17 16  1  0
 18 17  1  6
 19 18  1  0
 20 18  1  0
 21 20  2  0
 22 20  1  0
M  END
$$$$
