AAR.pdb
     RDKit          3D

 22 21  0  0  1  0  0  0  0  0999 V2000
    8.7108  -12.2309   19.5607 C   0  0  0  0  0  0  0  0  0  0  0  0
    8.2918  -13.5708   18.9480 C   0  0  2  0  0  0  0  0  0  0  0  0
    6.9580  -13.5406   18.4395 N   0  0  0  0  0  0  0  0  0  0  0  0
    8.4508  -14.6129   20.0249 C   0  0  0  0  0  0  0  0  0  0  0  0
    7.6240  -14.6549   20.9717 O   0  0  0  0  0  0  0  0  0  0  0  0
   10.4276  -17.7353   20.3737 C   0  0  0  0  0  0  0  0  0  0  0  0
    9.4960  -16.6473   20.9263 C   0  0  2  0  0  0  0  0  0  0  0  0
    9.5130  -15.5560   20.0042 N   0  0  0  0  0  0  0  0  0  0  0  0
   10.0300  -16.2972   22.2596 C   0  0  0  0  0  0  0  0  0  0  0  0
   11.0643  -15.5970   22.3959 O   0  0  0  0  0  0  0  0  0  0  0  0
    7.8091  -12.3431   27.2216 N   0  0  0  0  0  0  0  0  0  0  0  0
    6.5386  -12.3523   26.5967 C   0  0  0  0  0  0  0  0  0  0  0  0
    5.8579  -11.2681   26.5051 N   0  0  0  0  0  0  0  0  0  0  0  0
    5.9904  -13.5527   26.0596 N   0  0  0  0  0  0  0  0  0  0  0  0
    6.6088  -14.8346   26.2125 C   0  0  0  0  0  0  0  0  0  0  0  0
    7.8908  -14.8895   25.4153 C   0  0  0  0  0  0  0  0  0  0  0  0
    8.5467  -16.2284   25.5649 C   0  0  0  0  0  0  0  0  0  0  0  0
    9.8039  -16.4060   24.7695 C   0  0  2  0  0  0  0  0  0  0  0  0
    9.3619  -16.7608   23.4070 N   0  0  0  0  0  0  0  0  0  0  0  0
   10.5263  -17.5976   25.2673 C   0  0  0  0  0  0  0  0  0  0  0  0
   10.1959  -18.7242   24.8271 O   0  0  0  0  0  0  0  0  0  0  0  0
   11.5492  -17.5535   26.1922 O   0  0  0  0  0  0  0  0  0  0  0  0
  2  1  1  1
  2  4  1  0
  2  3  1  0
  4  5  2  0
  7  6  1  6
  7  9  1  0
  8  4  1  0
  8  7  1  0
  9 19  1  0
 10  9  2  0
 12 11  1  0
 12 13  2  0
 14 12  1  0
 15 14  1  0
 16 15  1  0
 17 16  1  0
 18 17  1  1
 19 18  1  0
 20 18  1  0
 21 20  2  0
 22 20  1  0
M  END
$$$$
