AAR.pdb
     RDKit          3D

 22 21  0  0  1  0  0  0  0  0999 V2000
    7.3684  -13.2740   19.9435 C   0  0  0  0  0  0  0  0  0  0  0  0
    7.5903  -14.4948   20.8417 C   0  0  2  0  0  0  0  0  0  0  0  0
    6.4053  -15.2760   20.9967 N   0  0  0  0  0  0  0  0  0  0  0  0
    8.0907  -13.9783   22.1660 C   0  0  0  0  0  0  0  0  0  0  0  0
    9.2823  -13.5889   22.2675 O   0  0  0  0  0  0  0  0  0  0  0  0
    6.6838  -12.7787   25.3371 C   0  0  0  0  0  0  0  0  0  0  0  0
    7.8029  -13.4828   24.5567 C   0  0  2  0  0  0  0  0  0  0  0  0
    7.2527  -13.9169   23.3115 N   0  0  0  0  0  0  0  0  0  0  0  0
    8.2571  -14.5956   25.4173 C   0  0  0  0  0  0  0  0  0  0  0  0
    8.5776  -14.4156   26.6188 O   0  0  0  0  0  0  0  0  0  0  0  0
    5.3953  -19.3395   21.9425 N   0  0  0  0  0  0  0  0  0  0  0  0
    6.0646  -20.5131   22.3663 C   0  0  0  0  0  0  0  0  0  0  0  0
    6.2490  -21.4818   21.5448 N   0  0  0  0  0  0  0  0  0  0  0  0
    6.5449  -20.6461   23.7010 N   0  0  0  0  0  0  0  0  0  0  0  0
    6.5128  -19.5803   24.6562 C   0  0  0  0  0  0  0  0  0  0  0  0
    7.2528  -18.3789   24.1167 C   0  0  0  0  0  0  0  0  0  0  0  0
    8.5897  -18.2429   24.7797 C   0  0  0  0  0  0  0  0  0  0  0  0
    8.7241  -17.0595   25.6887 C   0  0  2  0  0  0  0  0  0  0  0  0
    8.3326  -15.8915   24.8763 N   0  0  0  0  0  0  0  0  0  0  0  0
   10.1549  -16.8526   26.0041 C   0  0  0  0  0  0  0  0  0  0  0  0
   10.5406  -17.0399   27.1824 O   0  0  0  0  0  0  0  0  0  0  0  0
   11.1037  -16.4635   25.0809 O   0  0  0  0  0  0  0  0  0  0  0  0
  2  1  1  6
  2  4  1  0
  2  3  1  0
  4  5  2  0
  7  6  1  1
  7  9  1  0
  8  4  1  0
  8  7  1  0
  9 19  1  0
 10  9  2  0
 12 11  1  0
 12 13  2  0
 14 12  1  0
 15 14  1  0
 16 15  1  0
 17 16  1  0
 18 17  1  6
 19 18  1  0
 20 18  1  0
 21 20  2  0
 22 20  1  0
M  END
$$$$
