AAR.pdb
     RDKit          3D

 22 21  0  0  1  0  0  0  0  0999 V2000
    8.7372  -12.2726   19.3615 C   0  0  0  0  0  0  0  0  0  0  0  0
    8.3346  -13.6084   18.7291 C   0  0  2  0  0  0  0  0  0  0  0  0
    6.9433  -13.6609   18.4132 N   0  0  0  0  0  0  0  0  0  0  0  0
    8.7224  -14.6889   19.7055 C   0  0  0  0  0  0  0  0  0  0  0  0
    8.0385  -14.8548   20.7478 O   0  0  0  0  0  0  0  0  0  0  0  0
   11.3586  -17.3361   19.9008 C   0  0  0  0  0  0  0  0  0  0  0  0
   10.1226  -16.5822   20.4118 C   0  0  2  0  0  0  0  0  0  0  0  0
    9.8441  -15.5319   19.4838 N   0  0  0  0  0  0  0  0  0  0  0  0
   10.4766  -16.0939   21.7615 C   0  0  0  0  0  0  0  0  0  0  0  0
   11.2753  -15.1391   21.9321 O   0  0  0  0  0  0  0  0  0  0  0  0
    5.7519  -12.8071   27.5077 N   0  0  0  0  0  0  0  0  0  0  0  0
    6.0998  -12.1917   26.2809 C   0  0  0  0  0  0  0  0  0  0  0  0
    6.0915  -10.9125   26.1767 N   0  0  0  0  0  0  0  0  0  0  0  0
    6.4638  -12.9692   25.1438 N   0  0  0  0  0  0  0  0  0  0  0  0
    6.8690  -14.3396   25.2276 C   0  0  0  0  0  0  0  0  0  0  0  0
    8.2983  -14.4864   24.7612 C   0  0  0  0  0  0  0  0  0  0  0  0
    8.7101  -15.9271   24.7718 C   0  0  0  0  0  0  0  0  0  0  0  0
   10.0902  -16.1913   24.2522 C   0  0  2  0  0  0  0  0  0  0  0  0
    9.9036  -16.7154   22.8854 N   0  0  0  0  0  0  0  0  0  0  0  0
   10.6897  -17.3063   25.0184 C   0  0  0  0  0  0  0  0  0  0  0  0
   11.0627  -17.0901   26.1958 O   0  0  0  0  0  0  0  0  0  0  0  0
   10.8684  -18.5807   24.5207 O   0  0  0  0  0  0  0  0  0  0  0  0
  2  1  1  1
  2  4  1  0
  2  3  1  0
  4  5  2  0
  7  6  1  6
  7  9  1  0
  8  4  1  0
  8  7  1  0
  9 19  1  0
 10  9  2  0
 12 11  1  0
 12 13  2  0
 14 12  1  0
 15 14  1  0
 16 15  1  0
 17 16  1  0
 18 17  1  1
 19 18  1  0
 20 18  1  0
 21 20  2  0
 22 20  1  0
M  END
$$$$
