AAR.pdb
     RDKit          3D

 22 21  0  0  1  0  0  0  0  0999 V2000
   10.4193  -18.4854   15.3487 C   0  0  0  0  0  0  0  0  0  0  0  0
   11.3578  -17.7014   16.2710 C   0  0  2  0  0  0  0  0  0  0  0  0
   12.7336  -17.9667   15.9964 N   0  0  0  0  0  0  0  0  0  0  0  0
   10.9930  -18.0736   17.6849 C   0  0  0  0  0  0  0  0  0  0  0  0
    9.8453  -17.7995   18.1201 O   0  0  0  0  0  0  0  0  0  0  0  0
   12.5047  -20.0147   20.4762 C   0  0  0  0  0  0  0  0  0  0  0  0
   11.5502  -18.9527   19.9123 C   0  0  2  0  0  0  0  0  0  0  0  0
   11.9115  -18.7293   18.5479 N   0  0  0  0  0  0  0  0  0  0  0  0
   11.7226  -17.7594   20.7678 C   0  0  0  0  0  0  0  0  0  0  0  0
   12.5499  -16.8566   20.4864 O   0  0  0  0  0  0  0  0  0  0  0  0
    8.2072  -11.7923   20.0843 N   0  0  0  0  0  0  0  0  0  0  0  0
    7.8519  -12.9475   19.3468 C   0  0  0  0  0  0  0  0  0  0  0  0
    7.6628  -12.8699   18.0797 N   0  0  0  0  0  0  0  0  0  0  0  0
    7.6973  -14.2113   19.9863 N   0  0  0  0  0  0  0  0  0  0  0  0
    8.0309  -14.4418   21.3592 C   0  0  0  0  0  0  0  0  0  0  0  0
    9.4658  -14.9003   21.4734 C   0  0  0  0  0  0  0  0  0  0  0  0
    9.6396  -15.7941   22.6634 C   0  0  0  0  0  0  0  0  0  0  0  0
   10.9915  -16.4287   22.7820 C   0  0  2  0  0  0  0  0  0  0  0  0
   10.9391  -17.6314   21.9286 N   0  0  0  0  0  0  0  0  0  0  0  0
   11.1675  -16.9368   24.1606 C   0  0  0  0  0  0  0  0  0  0  0  0
   10.8066  -18.1102   24.4160 O   0  0  0  0  0  0  0  0  0  0  0  0
   11.7071  -16.2003   25.1951 O   0  0  0  0  0  0  0  0  0  0  0  0
  2  1  1  6
  2  4  1  0
  2  3  1  0
  4  5  2  0
  7  6  1  1
  7  9  1  0
  8  4  1  0
  8  7  1  0
  9 19  1  0
 10  9  2  0
 12 11  1  0
 12 13  2  0
 14 12  1  0
 15 14  1  0
 16 15  1  0
 17 16  1  0
 18 17  1  1
 19 18  1  0
 20 18  1  0
 21 20  2  0
 22 20  1  0
M  END
$$$$
