AAR.pdb
     RDKit          3D

 22 21  0  0  1  0  0  0  0  0999 V2000
    7.8663  -16.4155   14.5711 C   0  0  0  0  0  0  0  0  0  0  0  0
    7.4704  -14.9403   14.6864 C   0  0  2  0  0  0  0  0  0  0  0  0
    7.7876  -14.2004   13.5073 N   0  0  0  0  0  0  0  0  0  0  0  0
    8.1829  -14.3895   15.8948 C   0  0  0  0  0  0  0  0  0  0  0  0
    9.4244  -14.1944   15.8450 O   0  0  0  0  0  0  0  0  0  0  0  0
    7.2221  -13.3084   19.3445 C   0  0  0  0  0  0  0  0  0  0  0  0
    8.2296  -13.6125   18.2267 C   0  0  2  0  0  0  0  0  0  0  0  0
    7.4913  -14.0817   17.0968 N   0  0  0  0  0  0  0  0  0  0  0  0
    9.1566  -14.6215   18.7819 C   0  0  0  0  0  0  0  0  0  0  0  0
    8.9695  -15.8533   18.6196 O   0  0  0  0  0  0  0  0  0  0  0  0
   18.5552  -15.3672   21.3445 N   0  0  0  0  0  0  0  0  0  0  0  0
   17.4875  -14.5844   20.8426 C   0  0  0  0  0  0  0  0  0  0  0  0
   17.6910  -13.3668   20.4915 N   0  0  0  0  0  0  0  0  0  0  0  0
   16.1747  -15.1234   20.7162 N   0  0  0  0  0  0  0  0  0  0  0  0
   15.0324  -14.3334   20.3693 C   0  0  0  0  0  0  0  0  0  0  0  0
   13.7775  -15.1695   20.4605 C   0  0  0  0  0  0  0  0  0  0  0  0
   12.5891  -14.3883   19.9888 C   0  0  0  0  0  0  0  0  0  0  0  0
   11.2903  -15.1342   20.0256 C   0  0  2  0  0  0  0  0  0  0  0  0
   10.2788  -14.1906   19.5119 N   0  0  0  0  0  0  0  0  0  0  0  0
   10.9137  -15.3794   21.4354 C   0  0  0  0  0  0  0  0  0  0  0  0
   10.0850  -14.6088   21.9756 O   0  0  0  0  0  0  0  0  0  0  0  0
   11.4172  -16.4085   22.2044 O   0  0  0  0  0  0  0  0  0  0  0  0
  2  1  1  6
  2  4  1  0
  2  3  1  0
  4  5  2  0
  7  6  1  1
  7  9  1  0
  8  4  1  0
  8  7  1  0
  9 19  1  0
 10  9  2  0
 12 11  1  0
 12 13  2  0
 14 12  1  0
 15 14  1  0
 16 15  1  0
 17 16  1  0
 18 17  1  1
 19 18  1  0
 20 18  1  0
 21 20  2  0
 22 20  1  0
M  END
$$$$
