AAR.pdb
     RDKit          3D

 22 21  0  0  1  0  0  0  0  0999 V2000
    8.9837  -12.4019   18.1934 C   0  0  0  0  0  0  0  0  0  0  0  0
    9.0620  -13.9021   18.4926 C   0  0  2  0  0  0  0  0  0  0  0  0
    7.8744  -14.5943   18.1065 N   0  0  0  0  0  0  0  0  0  0  0  0
    9.3285  -14.0401   19.9694 C   0  0  0  0  0  0  0  0  0  0  0  0
   10.4855  -13.8225   20.4119 O   0  0  0  0  0  0  0  0  0  0  0  0
    7.3139  -14.5145   23.0580 C   0  0  0  0  0  0  0  0  0  0  0  0
    8.6292  -14.5630   22.2676 C   0  0  2  0  0  0  0  0  0  0  0  0
    8.3066  -14.4110   20.8839 N   0  0  0  0  0  0  0  0  0  0  0  0
    9.2442  -15.8690   22.5866 C   0  0  0  0  0  0  0  0  0  0  0  0
    8.7976  -16.9444   22.1145 O   0  0  0  0  0  0  0  0  0  0  0  0
   15.4264  -13.9652   19.9950 N   0  0  0  0  0  0  0  0  0  0  0  0
   14.2863  -14.5735   19.4161 C   0  0  0  0  0  0  0  0  0  0  0  0
   13.8567  -14.1797   18.2726 N   0  0  0  0  0  0  0  0  0  0  0  0
   13.5952  -15.6266   20.0818 N   0  0  0  0  0  0  0  0  0  0  0  0
   13.5139  -15.7337   21.5071 C   0  0  0  0  0  0  0  0  0  0  0  0
   12.6965  -16.9452   21.8895 C   0  0  0  0  0  0  0  0  0  0  0  0
   12.4692  -16.9807   23.3702 C   0  0  0  0  0  0  0  0  0  0  0  0
   11.0420  -17.1718   23.7837 C   0  0  2  0  0  0  0  0  0  0  0  0
   10.3597  -15.9087   23.4420 N   0  0  0  0  0  0  0  0  0  0  0  0
   10.9745  -17.2641   25.2590 C   0  0  0  0  0  0  0  0  0  0  0  0
   10.4889  -16.2999   25.8968 O   0  0  0  0  0  0  0  0  0  0  0  0
   11.4140  -18.3497   25.9885 O   0  0  0  0  0  0  0  0  0  0  0  0
  2  1  1  1
  2  4  1  0
  2  3  1  0
  4  5  2  0
  7  6  1  1
  7  9  1  0
  8  4  1  0
  8  7  1  0
  9 19  1  0
 10  9  2  0
 12 11  1  0
 12 13  2  0
 14 12  1  0
 15 14  1  0
 16 15  1  0
 17 16  1  0
 18 17  1  1
 19 18  1  0
 20 18  1  0
 21 20  2  0
 22 20  1  0
M  END
$$$$
