AAR.pdb
     RDKit          3D

 22 21  0  0  1  0  0  0  0  0999 V2000
    8.8473  -12.4060   19.0147 C   0  0  0  0  0  0  0  0  0  0  0  0
    8.0077  -13.6459   18.6925 C   0  0  2  0  0  0  0  0  0  0  0  0
    6.6091  -13.3604   18.6624 N   0  0  0  0  0  0  0  0  0  0  0  0
    8.3394  -14.6818   19.7355 C   0  0  0  0  0  0  0  0  0  0  0  0
    7.8812  -14.5558   20.8999 O   0  0  0  0  0  0  0  0  0  0  0  0
    9.9516  -18.0352   19.7861 C   0  0  0  0  0  0  0  0  0  0  0  0
    9.4176  -16.7668   20.4666 C   0  0  2  0  0  0  0  0  0  0  0  0
    9.1595  -15.8043   19.4425 N   0  0  0  0  0  0  0  0  0  0  0  0
   10.4687  -16.3451   21.4168 C   0  0  0  0  0  0  0  0  0  0  0  0
   11.4186  -15.6011   21.0663 O   0  0  0  0  0  0  0  0  0  0  0  0
   10.1711  -14.0826   30.1615 N   0  0  0  0  0  0  0  0  0  0  0  0
   10.7947  -15.3327   29.9305 C   0  0  0  0  0  0  0  0  0  0  0  0
   10.8699  -16.1992   30.8743 N   0  0  0  0  0  0  0  0  0  0  0  0
   11.3483  -15.6560   28.6581 N   0  0  0  0  0  0  0  0  0  0  0  0
   10.5498  -15.9342   27.5030 C   0  0  0  0  0  0  0  0  0  0  0  0
   11.4274  -16.0270   26.2770 C   0  0  0  0  0  0  0  0  0  0  0  0
   10.6006  -16.2982   25.0571 C   0  0  0  0  0  0  0  0  0  0  0  0
   11.3701  -16.3453   23.7726 C   0  0  2  0  0  0  0  0  0  0  0  0
   10.4035  -16.7889   22.7496 N   0  0  0  0  0  0  0  0  0  0  0  0
   12.3770  -17.4268   23.8519 C   0  0  0  0  0  0  0  0  0  0  0  0
   13.5616  -17.1217   24.1276 O   0  0  0  0  0  0  0  0  0  0  0  0
   12.0989  -18.7617   23.6410 O   0  0  0  0  0  0  0  0  0  0  0  0
  2  1  1  1
  2  4  1  0
  2  3  1  0
  4  5  2  0
  7  6  1  6
  7  9  1  0
  8  4  1  0
  8  7  1  0
  9 19  1  0
 10  9  2  0
 12 11  1  0
 12 13  2  0
 14 12  1  0
 15 14  1  0
 16 15  1  0
 17 16  1  0
 18 17  1  1
 19 18  1  0
 20 18  1  0
 21 20  2  0
 22 20  1  0
M  END
$$$$
