FLV.pdb
     RDKit          3D

 27 27  0  0  1  0  0  0  0  0999 V2000
    6.5494  -14.4336   20.9928 N   0  0  0  0  0  0  0  0  0  0  0  0
    7.9251  -14.6567   21.2993 C   0  0  1  0  0  0  0  0  0  0  0  0
    8.8735  -13.9291   20.3835 C   0  0  0  0  0  0  0  0  0  0  0  0
    8.7138  -14.4756   19.0198 C   0  0  0  0  0  0  0  0  0  0  0  0
    8.2188  -13.6893   18.0013 C   0  0  0  0  0  0  0  0  0  0  0  0
    8.0806  -14.2255   16.7394 C   0  0  0  0  0  0  0  0  0  0  0  0
    8.4256  -15.5300   16.4705 C   0  0  0  0  0  0  0  0  0  0  0  0
    8.9242  -16.3297   17.4867 C   0  0  0  0  0  0  0  0  0  0  0  0
    9.0581  -15.7805   18.7480 C   0  0  0  0  0  0  0  0  0  0  0  0
    8.1824  -14.1630   22.6796 C   0  0  0  0  0  0  0  0  0  0  0  0
    7.9507  -12.9738   23.0076 O   0  0  0  0  0  0  0  0  0  0  0  0
    7.5033  -12.0432   26.1279 C   0  0  0  0  0  0  0  0  0  0  0  0
    6.7541  -13.1082   25.3831 C   0  0  2  0  0  0  0  0  0  0  0  0
    5.3630  -13.2828   26.0351 C   0  0  0  0  0  0  0  0  0  0  0  0
    7.4163  -14.4074   25.4387 C   0  0  0  0  0  0  0  0  0  0  0  0
    8.8256  -14.6144   25.0667 C   0  0  2  0  0  0  0  0  0  0  0  0
    8.6899  -15.0408   23.6220 N   0  0  0  0  0  0  0  0  0  0  0  0
    9.6059  -15.6771   25.6750 C   0  0  0  0  0  0  0  0  0  0  0  0
    9.0961  -16.8523   25.7476 O   0  0  0  0  0  0  0  0  0  0  0  0
   10.8835  -13.7298   28.0782 C   0  0  0  0  0  0  0  0  0  0  0  0
   10.7105  -15.1355   28.6068 C   0  0  1  0  0  0  0  0  0  0  0  0
    9.2573  -15.3916   28.9195 C   0  0  0  0  0  0  0  0  0  0  0  0
   11.2376  -16.0868   27.5507 C   0  0  2  0  0  0  0  0  0  0  0  0
   10.9122  -15.5795   26.2081 N   0  0  0  0  0  0  0  0  0  0  0  0
   10.6573  -17.4118   27.7446 C   0  0  0  0  0  0  0  0  0  0  0  0
   11.2263  -18.2985   28.6432 O   0  0  0  0  0  0  0  0  0  0  0  0
    9.6517  -17.7810   27.1204 O   0  0  0  0  0  0  0  0  0  0  0  0
  2  1  1  6
  2  3  1  0
  3  4  1  0
  4  5  2  0
  5  6  1  0
  7  6  2  0
  8  7  1  0
  9  8  2  0
  9  4  1  0
 10 11  2  0
 10  2  1  0
 13 12  1  1
 14 13  1  0
 15 13  1  0
 16 15  1  1
 16 17  1  0
 17 10  1  0
 18 24  1  0
 18 16  1  0
 19 18  2  0
 21 20  1  6
 21 22  1  0
 23 21  1  0
 23 24  1  6
 25 26  1  0
 25 23  1  0
 27 25  2  0
M  END
$$$$
