FLV.pdb
     RDKit          3D

 27 27  0  0  1  0  0  0  0  0999 V2000
    4.9689  -17.3487   24.1494 N   0  0  0  0  0  0  0  0  0  0  0  0
    5.7889  -16.2349   24.5008 C   0  0  1  0  0  0  0  0  0  0  0  0
    6.0519  -16.1213   25.9792 C   0  0  0  0  0  0  0  0  0  0  0  0
    6.2653  -14.6958   26.3051 C   0  0  0  0  0  0  0  0  0  0  0  0
    6.7125  -14.3198   27.5538 C   0  0  0  0  0  0  0  0  0  0  0  0
    6.9025  -12.9832   27.8297 C   0  0  0  0  0  0  0  0  0  0  0  0
    6.6561  -12.0120   26.8867 C   0  0  0  0  0  0  0  0  0  0  0  0
    6.2063  -12.3783   25.6281 C   0  0  0  0  0  0  0  0  0  0  0  0
    6.0195  -13.7220   25.3635 C   0  0  0  0  0  0  0  0  0  0  0  0
    7.1083  -16.3962   23.8313 C   0  0  0  0  0  0  0  0  0  0  0  0
    7.6603  -17.5186   23.7256 O   0  0  0  0  0  0  0  0  0  0  0  0
    8.2244  -15.0915   19.6398 C   0  0  0  0  0  0  0  0  0  0  0  0
    8.1243  -14.0518   20.7164 C   0  0  2  0  0  0  0  0  0  0  0  0
    8.3940  -12.6638   20.0907 C   0  0  0  0  0  0  0  0  0  0  0  0
    9.1102  -14.2400   21.7757 C   0  0  0  0  0  0  0  0  0  0  0  0
    9.1097  -15.3969   22.6862 C   0  0  2  0  0  0  0  0  0  0  0  0
    7.7389  -15.2778   23.3138 N   0  0  0  0  0  0  0  0  0  0  0  0
   10.0129  -15.4488   23.8218 C   0  0  0  0  0  0  0  0  0  0  0  0
   11.2439  -15.7474   23.6173 O   0  0  0  0  0  0  0  0  0  0  0  0
   11.3262  -14.3995   28.4653 C   0  0  0  0  0  0  0  0  0  0  0  0
   10.2226  -14.3998   27.4323 C   0  0  1  0  0  0  0  0  0  0  0  0
    9.8274  -12.9821   27.1021 C   0  0  0  0  0  0  0  0  0  0  0  0
   10.7392  -15.1408   26.2147 C   0  0  2  0  0  0  0  0  0  0  0  0
    9.6977  -15.1907   25.1761 N   0  0  0  0  0  0  0  0  0  0  0  0
   11.1418  -16.4919   26.5919 C   0  0  0  0  0  0  0  0  0  0  0  0
   12.2791  -16.6938   27.3556 O   0  0  0  0  0  0  0  0  0  0  0  0
   10.4889  -17.4875   26.2458 O   0  0  0  0  0  0  0  0  0  0  0  0
  2  1  1  1
  2  3  1  0
  3  4  1  0
  4  5  2  0
  5  6  1  0
  7  6  2  0
  8  7  1  0
  9  8  2  0
  9  4  1  0
 10 11  2  0
 10  2  1  0
 13 12  1  6
 14 13  1  0
 15 13  1  0
 16 15  1  6
 16 17  1  0
 17 10  1  0
 18 24  1  0
 18 16  1  0
 19 18  2  0
 21 20  1  1
 21 22  1  0
 23 21  1  0
 23 24  1  6
 25 26  1  0
 25 23  1  0
 27 25  2  0
M  END
$$$$
