FLV.pdb
     RDKit          3D

 27 27  0  0  1  0  0  0  0  0999 V2000
    5.6411  -17.7736   24.3911 N   0  0  0  0  0  0  0  0  0  0  0  0
    6.1811  -16.4876   24.6927 C   0  0  1  0  0  0  0  0  0  0  0  0
    6.2139  -16.1768   26.1658 C   0  0  0  0  0  0  0  0  0  0  0  0
    6.2180  -14.7083   26.3310 C   0  0  0  0  0  0  0  0  0  0  0  0
    7.2046  -14.0867   27.0664 C   0  0  0  0  0  0  0  0  0  0  0  0
    7.1833  -12.7158   27.2036 C   0  0  0  0  0  0  0  0  0  0  0  0
    6.1986  -11.9501   26.6229 C   0  0  0  0  0  0  0  0  0  0  0  0
    5.2018  -12.5641   25.8814 C   0  0  0  0  0  0  0  0  0  0  0  0
    5.2340  -13.9398   25.7510 C   0  0  0  0  0  0  0  0  0  0  0  0
    7.5861  -16.4443   24.2036 C   0  0  0  0  0  0  0  0  0  0  0  0
    8.3062  -17.4720   24.1771 O   0  0  0  0  0  0  0  0  0  0  0  0
    7.5196  -14.2169   20.5540 C   0  0  0  0  0  0  0  0  0  0  0  0
    8.0021  -13.4405   21.7432 C   0  0  2  0  0  0  0  0  0  0  0  0
    8.2304  -11.9720   21.3162 C   0  0  0  0  0  0  0  0  0  0  0  0
    9.2731  -13.9354   22.2621 C   0  0  0  0  0  0  0  0  0  0  0  0
    9.4086  -15.2033   22.9979 C   0  0  2  0  0  0  0  0  0  0  0  0
    8.1075  -15.2382   23.7680 N   0  0  0  0  0  0  0  0  0  0  0  0
   10.4268  -15.3634   24.0206 C   0  0  0  0  0  0  0  0  0  0  0  0
   11.6612  -15.2833   23.6796 O   0  0  0  0  0  0  0  0  0  0  0  0
   11.6436  -13.4827   26.7836 C   0  0  0  0  0  0  0  0  0  0  0  0
   11.3689  -14.8253   27.4219 C   0  0  1  0  0  0  0  0  0  0  0  0
   10.0631  -14.7784   28.1754 C   0  0  0  0  0  0  0  0  0  0  0  0
   11.3452  -15.8596   26.3138 C   0  0  2  0  0  0  0  0  0  0  0  0
   10.2220  -15.5941   25.4008 N   0  0  0  0  0  0  0  0  0  0  0  0
   11.2252  -17.1963   26.8873 C   0  0  0  0  0  0  0  0  0  0  0  0
   12.2330  -17.7050   27.6892 O   0  0  0  0  0  0  0  0  0  0  0  0
   10.2324  -17.9089   26.6780 O   0  0  0  0  0  0  0  0  0  0  0  0
  2  1  1  1
  2  3  1  0
  3  4  1  0
  4  5  2  0
  5  6  1  0
  7  6  2  0
  8  7  1  0
  9  8  2  0
  9  4  1  0
 10 11  2  0
 10  2  1  0
 13 12  1  6
 14 13  1  0
 15 13  1  0
 16 15  1  1
 16 17  1  0
 17 10  1  0
 18 24  1  0
 18 16  1  0
 19 18  2  0
 21 20  1  6
 21 22  1  0
 23 21  1  0
 23 24  1  6
 25 26  1  0
 25 23  1  0
 27 25  2  0
M  END
$$$$
