FLV.pdb
     RDKit          3D

 27 27  0  0  1  0  0  0  0  0999 V2000
   10.3323  -16.4943   21.1796 N   0  0  0  0  0  0  0  0  0  0  0  0
    9.4343  -15.5526   21.7655 C   0  0  1  0  0  0  0  0  0  0  0  0
    8.0046  -15.7276   21.3261 C   0  0  0  0  0  0  0  0  0  0  0  0
    7.6024  -14.5271   20.5639 C   0  0  0  0  0  0  0  0  0  0  0  0
    7.6082  -13.2830   21.1580 C   0  0  0  0  0  0  0  0  0  0  0  0
    7.2282  -12.1811   20.4230 C   0  0  0  0  0  0  0  0  0  0  0  0
    6.8421  -12.2926   19.1071 C   0  0  0  0  0  0  0  0  0  0  0  0
    6.8324  -13.5381   18.4996 C   0  0  0  0  0  0  0  0  0  0  0  0
    7.2156  -14.6357   19.2472 C   0  0  0  0  0  0  0  0  0  0  0  0
    9.4649  -15.7341   23.2424 C   0  0  0  0  0  0  0  0  0  0  0  0
   10.4020  -16.3452   23.8116 O   0  0  0  0  0  0  0  0  0  0  0  0
    8.1182  -12.2710   26.7337 C   0  0  0  0  0  0  0  0  0  0  0  0
    7.1646  -12.9809   25.8190 C   0  0  2  0  0  0  0  0  0  0  0  0
    5.7193  -12.6624   26.2669 C   0  0  0  0  0  0  0  0  0  0  0  0
    7.3142  -14.4317   25.8640 C   0  0  0  0  0  0  0  0  0  0  0  0
    8.5613  -15.1286   25.5078 C   0  0  2  0  0  0  0  0  0  0  0  0
    8.4321  -15.2143   24.0035 N   0  0  0  0  0  0  0  0  0  0  0  0
    8.7883  -16.5022   25.9200 C   0  0  0  0  0  0  0  0  0  0  0  0
    7.7739  -17.2653   26.1072 O   0  0  0  0  0  0  0  0  0  0  0  0
   12.5581  -18.4106   26.4742 C   0  0  0  0  0  0  0  0  0  0  0  0
   11.3483  -19.1953   26.0206 C   0  0  1  0  0  0  0  0  0  0  0  0
   11.4714  -20.6316   26.4645 C   0  0  0  0  0  0  0  0  0  0  0  0
   10.1234  -18.5244   26.6103 C   0  0  2  0  0  0  0  0  0  0  0  0
   10.0349  -17.1332   26.1386 N   0  0  0  0  0  0  0  0  0  0  0  0
   10.1931  -18.5604   28.0676 C   0  0  0  0  0  0  0  0  0  0  0  0
   10.4808  -17.4093   28.7815 O   0  0  0  0  0  0  0  0  0  0  0  0
   10.0003  -19.6069   28.7040 O   0  0  0  0  0  0  0  0  0  0  0  0
  2  1  1  6
  2  3  1  0
  3  4  1  0
  4  5  2  0
  5  6  1  0
  7  6  2  0
  8  7  1  0
  9  8  2  0
  9  4  1  0
 10 11  2  0
 10  2  1  0
 13 12  1  1
 14 13  1  0
 15 13  1  0
 16 15  1  1
 16 17  1  0
 17 10  1  0
 18 24  1  0
 18 16  1  0
 19 18  2  0
 21 20  1  1
 21 22  1  0
 23 21  1  0
 23 24  1  6
 25 26  1  0
 25 23  1  0
 27 25  2  0
M  END
$$$$
