FLV.pdb
     RDKit          3D

 27 27  0  0  1  0  0  0  0  0999 V2000
    6.1854  -19.0138   24.1361 N   0  0  0  0  0  0  0  0  0  0  0  0
    6.3583  -17.7068   24.6821 C   0  0  1  0  0  0  0  0  0  0  0  0
    6.6290  -17.7020   26.1634 C   0  0  0  0  0  0  0  0  0  0  0  0
    6.4631  -16.3208   26.6618 C   0  0  0  0  0  0  0  0  0  0  0  0
    5.5471  -15.4696   26.0813 C   0  0  0  0  0  0  0  0  0  0  0  0
    5.4138  -14.1869   26.5668 C   0  0  0  0  0  0  0  0  0  0  0  0
    6.1748  -13.7337   27.6197 C   0  0  0  0  0  0  0  0  0  0  0  0
    7.0988  -14.5806   28.2110 C   0  0  0  0  0  0  0  0  0  0  0  0
    7.2233  -15.8647   27.7151 C   0  0  0  0  0  0  0  0  0  0  0  0
    7.5317  -17.0749   24.0194 C   0  0  0  0  0  0  0  0  0  0  0  0
    8.5764  -17.7246   23.7706 O   0  0  0  0  0  0  0  0  0  0  0  0
    9.2587  -13.5164   20.3228 C   0  0  0  0  0  0  0  0  0  0  0  0
    7.8768  -13.4973   20.9060 C   0  0  2  0  0  0  0  0  0  0  0  0
    7.3405  -12.0478   20.8612 C   0  0  0  0  0  0  0  0  0  0  0  0
    7.8482  -13.9188   22.3028 C   0  0  0  0  0  0  0  0  0  0  0  0
    8.5372  -15.1210   22.8001 C   0  0  2  0  0  0  0  0  0  0  0  0
    7.4647  -15.7370   23.6705 N   0  0  0  0  0  0  0  0  0  0  0  0
    9.6843  -15.0078   23.6830 C   0  0  0  0  0  0  0  0  0  0  0  0
   10.8285  -14.7276   23.1744 O   0  0  0  0  0  0  0  0  0  0  0  0
   10.2349  -12.8404   26.6818 C   0  0  0  0  0  0  0  0  0  0  0  0
   10.6843  -14.2158   27.1194 C   0  0  1  0  0  0  0  0  0  0  0  0
    9.6302  -14.8464   27.9948 C   0  0  0  0  0  0  0  0  0  0  0  0
   10.9406  -15.0307   25.8670 C   0  0  2  0  0  0  0  0  0  0  0  0
    9.6985  -15.1623   25.0887 N   0  0  0  0  0  0  0  0  0  0  0  0
   11.4514  -16.3487   26.2303 C   0  0  0  0  0  0  0  0  0  0  0  0
   12.6689  -16.4712   26.8784 O   0  0  0  0  0  0  0  0  0  0  0  0
   10.8217  -17.3855   25.9739 O   0  0  0  0  0  0  0  0  0  0  0  0
  2  1  1  6
  2  3  1  0
  3  4  1  0
  4  5  2  0
  5  6  1  0
  7  6  2  0
  8  7  1  0
  9  8  2  0
  9  4  1  0
 10 11  2  0
 10  2  1  0
 13 12  1  1
 14 13  1  0
 15 13  1  0
 16 15  1  1
 16 17  1  0
 17 10  1  0
 18 24  1  0
 18 16  1  0
 19 18  2  0
 21 20  1  6
 21 22  1  0
 23 21  1  0
 23 24  1  1
 25 26  1  0
 25 23  1  0
 27 25  2  0
M  END
$$$$
