FLV.pdb
     RDKit          3D

 27 27  0  0  1  0  0  0  0  0999 V2000
    5.7507  -17.6464   21.5178 N   0  0  0  0  0  0  0  0  0  0  0  0
    6.2010  -17.9284   22.8422 C   0  0  1  0  0  0  0  0  0  0  0  0
    6.8910  -19.2603   22.9747 C   0  0  0  0  0  0  0  0  0  0  0  0
    5.9369  -20.2213   23.5664 C   0  0  0  0  0  0  0  0  0  0  0  0
    5.9819  -20.5179   24.9120 C   0  0  0  0  0  0  0  0  0  0  0  0
    5.0797  -21.4178   25.4364 C   0  0  0  0  0  0  0  0  0  0  0  0
    4.1326  -22.0292   24.6476 C   0  0  0  0  0  0  0  0  0  0  0  0
    4.0780  -21.7386   23.2936 C   0  0  0  0  0  0  0  0  0  0  0  0
    4.9882  -20.8344   22.7795 C   0  0  0  0  0  0  0  0  0  0  0  0
    7.1855  -16.8831   23.2337 C   0  0  0  0  0  0  0  0  0  0  0  0
    8.0542  -16.4630   22.4310 O   0  0  0  0  0  0  0  0  0  0  0  0
    7.4252  -12.2853   25.2128 C   0  0  0  0  0  0  0  0  0  0  0  0
    6.6085  -13.4361   25.7212 C   0  0  2  0  0  0  0  0  0  0  0  0
    5.9413  -13.0198   27.0525 C   0  0  0  0  0  0  0  0  0  0  0  0
    7.4146  -14.6199   26.0010 C   0  0  0  0  0  0  0  0  0  0  0  0
    8.1662  -15.3506   24.9672 C   0  0  2  0  0  0  0  0  0  0  0  0
    7.1384  -16.3641   24.5161 N   0  0  0  0  0  0  0  0  0  0  0  0
    9.3225  -16.1553   25.3189 C   0  0  0  0  0  0  0  0  0  0  0  0
    9.1585  -17.1650   26.0934 O   0  0  0  0  0  0  0  0  0  0  0  0
   13.7646  -17.9751   24.2576 C   0  0  0  0  0  0  0  0  0  0  0  0
   12.7755  -16.8522   24.0430 C   0  0  1  0  0  0  0  0  0  0  0  0
   12.2262  -16.9126   22.6396 C   0  0  0  0  0  0  0  0  0  0  0  0
   11.6840  -17.0021   25.0843 C   0  0  2  0  0  0  0  0  0  0  0  0
   10.6568  -15.9662   24.8900 N   0  0  0  0  0  0  0  0  0  0  0  0
   12.2587  -16.8992   26.4218 C   0  0  0  0  0  0  0  0  0  0  0  0
   12.9137  -17.9813   26.9854 O   0  0  0  0  0  0  0  0  0  0  0  0
   12.1802  -15.8557   27.0868 O   0  0  0  0  0  0  0  0  0  0  0  0
  2  1  1  6
  2  3  1  0
  3  4  1  0
  4  5  2  0
  5  6  1  0
  7  6  2  0
  8  7  1  0
  9  8  2  0
  9  4  1  0
 10 11  2  0
 10  2  1  0
 13 12  1  1
 14 13  1  0
 15 13  1  0
 16 15  1  1
 16 17  1  0
 17 10  1  0
 18 24  1  0
 18 16  1  0
 19 18  2  0
 21 20  1  6
 21 22  1  0
 23 21  1  0
 23 24  1  6
 25 26  1  0
 25 23  1  0
 27 25  2  0
M  END
$$$$
