FLV.pdb
     RDKit          3D

 27 27  0  0  1  0  0  0  0  0999 V2000
    5.4703  -17.8939   25.2761 N   0  0  0  0  0  0  0  0  0  0  0  0
    6.1123  -16.6207   25.3307 C   0  0  1  0  0  0  0  0  0  0  0  0
    6.8279  -16.3605   26.6299 C   0  0  0  0  0  0  0  0  0  0  0  0
    7.1724  -14.9247   26.6914 C   0  0  0  0  0  0  0  0  0  0  0  0
    8.4891  -14.5198   26.7442 C   0  0  0  0  0  0  0  0  0  0  0  0
    8.7808  -13.1742   26.8009 C   0  0  0  0  0  0  0  0  0  0  0  0
    7.7872  -12.2225   26.8060 C   0  0  0  0  0  0  0  0  0  0  0  0
    6.4600  -12.6180   26.7532 C   0  0  0  0  0  0  0  0  0  0  0  0
    6.1802  -13.9704   26.6967 C   0  0  0  0  0  0  0  0  0  0  0  0
    7.1328  -16.5650   24.2488 C   0  0  0  0  0  0  0  0  0  0  0  0
    7.8502  -17.5561   23.9684 O   0  0  0  0  0  0  0  0  0  0  0  0
    7.7876  -12.2631   20.0401 C   0  0  0  0  0  0  0  0  0  0  0  0
    8.3518  -13.5925   20.4456 C   0  0  2  0  0  0  0  0  0  0  0  0
    8.0167  -14.6282   19.3473 C   0  0  0  0  0  0  0  0  0  0  0  0
    7.7787  -14.0923   21.6910 C   0  0  0  0  0  0  0  0  0  0  0  0
    8.2144  -15.3402   22.3394 C   0  0  2  0  0  0  0  0  0  0  0  0
    7.2913  -15.3887   23.5364 N   0  0  0  0  0  0  0  0  0  0  0  0
    9.5426  -15.4535   22.9150 C   0  0  0  0  0  0  0  0  0  0  0  0
    9.7948  -14.8345   24.0102 O   0  0  0  0  0  0  0  0  0  0  0  0
   13.1870  -17.9455   24.5206 C   0  0  0  0  0  0  0  0  0  0  0  0
   11.8143  -17.7000   23.9369 C   0  0  1  0  0  0  0  0  0  0  0  0
   10.7844  -17.6759   25.0386 C   0  0  0  0  0  0  0  0  0  0  0  0
   11.8682  -16.3849   23.1847 C   0  0  2  0  0  0  0  0  0  0  0  0
   10.6325  -16.1982   22.4074 N   0  0  0  0  0  0  0  0  0  0  0  0
   13.0289  -16.3683   22.3001 C   0  0  0  0  0  0  0  0  0  0  0  0
   14.2299  -15.8330   22.7343 O   0  0  0  0  0  0  0  0  0  0  0  0
   12.9780  -16.8255   21.1487 O   0  0  0  0  0  0  0  0  0  0  0  0
  2  1  1  1
  2  3  1  0
  3  4  1  0
  4  5  2  0
  5  6  1  0
  7  6  2  0
  8  7  1  0
  9  8  2  0
  9  4  1  0
 10 11  2  0
 10  2  1  0
 13 12  1  6
 14 13  1  0
 15 13  1  0
 16 15  1  1
 16 17  1  0
 17 10  1  0
 18 24  1  0
 18 16  1  0
 19 18  2  0
 21 20  1  1
 21 22  1  0
 23 21  1  0
 23 24  1  6
 25 26  1  0
 25 23  1  0
 27 25  2  0
M  END
$$$$
