FLV.pdb
     RDKit          3D

 27 27  0  0  1  0  0  0  0  0999 V2000
    5.6554  -18.1009   24.2139 N   0  0  0  0  0  0  0  0  0  0  0  0
    6.0421  -16.7651   24.5338 C   0  0  1  0  0  0  0  0  0  0  0  0
    5.9999  -16.4608   26.0080 C   0  0  0  0  0  0  0  0  0  0  0  0
    6.0075  -14.9931   26.1800 C   0  0  0  0  0  0  0  0  0  0  0  0
    6.9563  -14.3836   26.9731 C   0  0  0  0  0  0  0  0  0  0  0  0
    6.9392  -13.0130   27.1153 C   0  0  0  0  0  0  0  0  0  0  0  0
    5.9959  -12.2360   26.4833 C   0  0  0  0  0  0  0  0  0  0  0  0
    5.0374  -12.8379   25.6836 C   0  0  0  0  0  0  0  0  0  0  0  0
    5.0648  -14.2132   25.5488 C   0  0  0  0  0  0  0  0  0  0  0  0
    7.4468  -16.5649   24.0844 C   0  0  0  0  0  0  0  0  0  0  0  0
    8.2883  -17.4956   24.1190 O   0  0  0  0  0  0  0  0  0  0  0  0
    8.0688  -14.3112   20.1473 C   0  0  0  0  0  0  0  0  0  0  0  0
    7.9702  -13.5058   21.4089 C   0  0  2  0  0  0  0  0  0  0  0  0
    8.0987  -12.0071   21.0506 C   0  0  0  0  0  0  0  0  0  0  0  0
    9.0370  -13.8097   22.3570 C   0  0  0  0  0  0  0  0  0  0  0  0
    9.1976  -15.1238   23.0012 C   0  0  2  0  0  0  0  0  0  0  0  0
    7.8304  -15.3195   23.6173 N   0  0  0  0  0  0  0  0  0  0  0  0
   10.1131  -15.2982   24.1146 C   0  0  0  0  0  0  0  0  0  0  0  0
   11.3751  -15.2800   23.8837 O   0  0  0  0  0  0  0  0  0  0  0  0
   11.3840  -14.9888   28.8303 C   0  0  0  0  0  0  0  0  0  0  0  0
   10.3561  -14.7668   27.7443 C   0  0  1  0  0  0  0  0  0  0  0  0
   10.2247  -13.2923   27.4550 C   0  0  0  0  0  0  0  0  0  0  0  0
   10.8082  -15.5442   26.5239 C   0  0  2  0  0  0  0  0  0  0  0  0
    9.7768  -15.4813   25.4760 N   0  0  0  0  0  0  0  0  0  0  0  0
   11.0716  -16.9319   26.8911 C   0  0  0  0  0  0  0  0  0  0  0  0
   12.1345  -17.2447   27.7217 O   0  0  0  0  0  0  0  0  0  0  0  0
   10.3634  -17.8617   26.4772 O   0  0  0  0  0  0  0  0  0  0  0  0
  2  1  1  1
  2  3  1  0
  3  4  1  0
  4  5  2  0
  5  6  1  0
  7  6  2  0
  8  7  1  0
  9  8  2  0
  9  4  1  0
 10 11  2  0
 10  2  1  0
 13 12  1  6
 14 13  1  0
 15 13  1  0
 16 15  1  1
 16 17  1  0
 17 10  1  0
 18 24  1  0
 18 16  1  0
 19 18  2  0
 21 20  1  1
 21 22  1  0
 23 21  1  0
 23 24  1  6
 25 26  1  0
 25 23  1  0
 27 25  2  0
M  END
$$$$
