FLV.pdb
     RDKit          3D

 27 27  0  0  1  0  0  0  0  0999 V2000
    5.5855  -18.7260   24.2023 N   0  0  0  0  0  0  0  0  0  0  0  0
    5.8981  -17.4011   24.6303 C   0  0  1  0  0  0  0  0  0  0  0  0
    6.0310  -17.2646   26.1241 C   0  0  0  0  0  0  0  0  0  0  0  0
    6.1532  -15.8286   26.4505 C   0  0  0  0  0  0  0  0  0  0  0  0
    5.2210  -14.9221   25.9924 C   0  0  0  0  0  0  0  0  0  0  0  0
    5.3603  -13.5890   26.3125 C   0  0  0  0  0  0  0  0  0  0  0  0
    6.4099  -13.1395   27.0802 C   0  0  0  0  0  0  0  0  0  0  0  0
    7.3529  -14.0418   27.5462 C   0  0  0  0  0  0  0  0  0  0  0  0
    7.2024  -15.3761   27.2185 C   0  0  0  0  0  0  0  0  0  0  0  0
    7.2068  -17.0145   24.0361 C   0  0  0  0  0  0  0  0  0  0  0  0
    8.1721  -17.8157   23.9912 O   0  0  0  0  0  0  0  0  0  0  0  0
    8.3218  -12.1795   20.5759 C   0  0  0  0  0  0  0  0  0  0  0  0
    8.8973  -13.5068   20.9720 C   0  0  2  0  0  0  0  0  0  0  0  0
    8.8400  -14.4552   19.7521 C   0  0  0  0  0  0  0  0  0  0  0  0
    8.1469  -14.1491   22.0461 C   0  0  0  0  0  0  0  0  0  0  0  0
    8.5901  -15.3813   22.7191 C   0  0  2  0  0  0  0  0  0  0  0  0
    7.3589  -15.7385   23.5214 N   0  0  0  0  0  0  0  0  0  0  0  0
    9.6547  -15.3469   23.7057 C   0  0  0  0  0  0  0  0  0  0  0  0
   10.8663  -15.2252   23.3013 O   0  0  0  0  0  0  0  0  0  0  0  0
   11.5002  -14.2604   28.0767 C   0  0  0  0  0  0  0  0  0  0  0  0
   10.3507  -14.2537   27.0950 C   0  0  1  0  0  0  0  0  0  0  0  0
   10.1591  -12.8653   26.5376 C   0  0  0  0  0  0  0  0  0  0  0  0
   10.6747  -15.2595   26.0080 C   0  0  2  0  0  0  0  0  0  0  0  0
    9.5191  -15.4221   25.1114 N   0  0  0  0  0  0  0  0  0  0  0  0
   11.0316  -16.5404   26.6097 C   0  0  0  0  0  0  0  0  0  0  0  0
   12.2186  -16.6762   27.3097 O   0  0  0  0  0  0  0  0  0  0  0  0
   10.2951  -17.5333   26.5146 O   0  0  0  0  0  0  0  0  0  0  0  0
  2  1  1  1
  2  3  1  0
  3  4  1  0
  4  5  2  0
  5  6  1  0
  7  6  2  0
  8  7  1  0
  9  8  2  0
  9  4  1  0
 10 11  2  0
 10  2  1  0
 13 12  1  6
 14 13  1  0
 15 13  1  0
 16 15  1  1
 16 17  1  0
 17 10  1  0
 18 24  1  0
 18 16  1  0
 19 18  2  0
 21 20  1  1
 21 22  1  0
 23 21  1  0
 23 24  1  6
 25 26  1  0
 25 23  1  0
 27 25  2  0
M  END
$$$$
