FLV.pdb
     RDKit          3D

 27 27  0  0  1  0  0  0  0  0999 V2000
    5.5462  -17.9415   24.2993 N   0  0  0  0  0  0  0  0  0  0  0  0
    5.9895  -16.6088   24.5516 C   0  0  1  0  0  0  0  0  0  0  0  0
    5.9330  -16.2185   26.0049 C   0  0  0  0  0  0  0  0  0  0  0  0
    5.9712  -14.7438   26.0919 C   0  0  0  0  0  0  0  0  0  0  0  0
    7.0023  -14.1051   26.7474 C   0  0  0  0  0  0  0  0  0  0  0  0
    7.0120  -12.7287   26.8128 C   0  0  0  0  0  0  0  0  0  0  0  0
    6.0150  -11.9743   26.2384 C   0  0  0  0  0  0  0  0  0  0  0  0
    4.9736  -12.6056   25.5770 C   0  0  0  0  0  0  0  0  0  0  0  0
    4.9750  -13.9865   25.5181 C   0  0  0  0  0  0  0  0  0  0  0  0
    7.4105  -16.4998   24.1228 C   0  0  0  0  0  0  0  0  0  0  0  0
    8.2014  -17.4705   24.2112 O   0  0  0  0  0  0  0  0  0  0  0  0
    8.0342  -14.4583   20.1552 C   0  0  0  0  0  0  0  0  0  0  0  0
    8.0698  -13.5682   21.3620 C   0  0  2  0  0  0  0  0  0  0  0  0
    8.3196  -12.1145   20.8978 C   0  0  0  0  0  0  0  0  0  0  0  0
    9.1471  -13.9114   22.2846 C   0  0  0  0  0  0  0  0  0  0  0  0
    9.2366  -15.2065   22.9790 C   0  0  2  0  0  0  0  0  0  0  0  0
    7.8671  -15.2960   23.6143 N   0  0  0  0  0  0  0  0  0  0  0  0
   10.1524  -15.3915   24.0905 C   0  0  0  0  0  0  0  0  0  0  0  0
   11.4106  -15.2501   23.8827 O   0  0  0  0  0  0  0  0  0  0  0  0
   11.2688  -15.0769   28.8277 C   0  0  0  0  0  0  0  0  0  0  0  0
   10.2784  -14.9153   27.6971 C   0  0  1  0  0  0  0  0  0  0  0  0
   10.0812  -13.4513   27.3921 C   0  0  0  0  0  0  0  0  0  0  0  0
   10.8236  -15.6731   26.5027 C   0  0  2  0  0  0  0  0  0  0  0  0
    9.8191  -15.7092   25.4277 N   0  0  0  0  0  0  0  0  0  0  0  0
   11.1864  -17.0295   26.9010 C   0  0  0  0  0  0  0  0  0  0  0  0
   10.4995  -18.1157   26.3857 O   0  0  0  0  0  0  0  0  0  0  0  0
   12.1070  -17.2497   27.7018 O   0  0  0  0  0  0  0  0  0  0  0  0
  2  1  1  1
  2  3  1  0
  3  4  1  0
  4  5  2  0
  5  6  1  0
  7  6  2  0
  8  7  1  0
  9  8  2  0
  9  4  1  0
 10 11  2  0
 10  2  1  0
 13 12  1  6
 14 13  1  0
 15 13  1  0
 16 15  1  1
 16 17  1  0
 17 10  1  0
 18 24  1  0
 18 16  1  0
 19 18  2  0
 21 20  1  1
 21 22  1  0
 23 21  1  0
 23 24  1  6
 25 26  1  0
 25 23  1  0
 27 25  2  0
M  END
$$$$
