FLV.pdb
     RDKit          3D

 27 27  0  0  1  0  0  0  0  0999 V2000
    6.5949  -16.5722   21.4785 N   0  0  0  0  0  0  0  0  0  0  0  0
    8.0153  -16.6266   21.3531 C   0  0  1  0  0  0  0  0  0  0  0  0
    8.5369  -15.9672   20.1037 C   0  0  0  0  0  0  0  0  0  0  0  0
    8.0249  -14.5816   20.0610 C   0  0  0  0  0  0  0  0  0  0  0  0
    6.6735  -14.3352   19.9442 C   0  0  0  0  0  0  0  0  0  0  0  0
    6.2246  -13.0329   19.9070 C   0  0  0  0  0  0  0  0  0  0  0  0
    7.0945  -11.9697   19.9836 C   0  0  0  0  0  0  0  0  0  0  0  0
    8.4551  -12.2056   20.1012 C   0  0  0  0  0  0  0  0  0  0  0  0
    8.8931  -13.5160   20.1376 C   0  0  0  0  0  0  0  0  0  0  0  0
    8.6145  -15.9089   22.5111 C   0  0  0  0  0  0  0  0  0  0  0  0
    9.8316  -15.6032   22.5383 O   0  0  0  0  0  0  0  0  0  0  0  0
    5.9615  -12.8843   26.9694 C   0  0  0  0  0  0  0  0  0  0  0  0
    7.2814  -13.5168   26.6413 C   0  0  2  0  0  0  0  0  0  0  0  0
    8.3657  -12.4147   26.6154 C   0  0  0  0  0  0  0  0  0  0  0  0
    7.2908  -14.1541   25.3285 C   0  0  0  0  0  0  0  0  0  0  0  0
    8.4080  -14.9764   24.8356 C   0  0  2  0  0  0  0  0  0  0  0  0
    7.8056  -15.5720   23.5827 N   0  0  0  0  0  0  0  0  0  0  0  0
    8.8688  -16.1303   25.5869 C   0  0  0  0  0  0  0  0  0  0  0  0
    8.0231  -17.0460   25.8909 O   0  0  0  0  0  0  0  0  0  0  0  0
   12.3321  -19.4526   26.3205 C   0  0  0  0  0  0  0  0  0  0  0  0
   11.8832  -18.1280   25.7467 C   0  0  1  0  0  0  0  0  0  0  0  0
   11.6779  -18.2561   24.2580 C   0  0  0  0  0  0  0  0  0  0  0  0
   10.6063  -17.7318   26.4615 C   0  0  2  0  0  0  0  0  0  0  0  0
   10.1857  -16.3880   26.0335 N   0  0  0  0  0  0  0  0  0  0  0  0
   10.8186  -17.7591   27.9051 C   0  0  0  0  0  0  0  0  0  0  0  0
   10.6166  -18.9285   28.6185 O   0  0  0  0  0  0  0  0  0  0  0  0
   11.1809  -16.7514   28.5301 O   0  0  0  0  0  0  0  0  0  0  0  0
  2  1  1  1
  2  3  1  0
  3  4  1  0
  4  5  2  0
  5  6  1  0
  7  6  2  0
  8  7  1  0
  9  8  2  0
  9  4  1  0
 10 11  2  0
 10  2  1  0
 13 12  1  6
 14 13  1  0
 15 13  1  0
 16 15  1  1
 16 17  1  0
 17 10  1  0
 18 24  1  0
 18 16  1  0
 19 18  2  0
 21 20  1  1
 21 22  1  0
 23 21  1  0
 23 24  1  6
 25 26  1  0
 25 23  1  0
 27 25  2  0
M  END
$$$$
