PWQ.pdb
     RDKit          3D

 31 33  0  0  1  0  0  0  0  0999 V2000
   27.1053  -20.2516  -15.4047 N   0  0  0  0  0  0  0  0  0  0  0  0
   26.6901  -19.0793  -16.1119 C   0  0  0  0  0  0  0  0  0  0  0  0
   27.6289  -18.0090  -15.6137 C   0  0  0  0  0  0  0  0  0  0  0  0
   27.7122  -18.3574  -14.1217 C   0  0  0  0  0  0  0  0  0  0  0  0
   27.7589  -19.8523  -14.1870 C   0  0  1  0  0  0  0  0  0  0  0  0
   27.0919  -20.5266  -13.0487 C   0  0  0  0  0  0  0  0  0  0  0  0
   26.6610  -21.7066  -13.1087 O   0  0  0  0  0  0  0  0  0  0  0  0
   26.9402  -19.7958  -11.8446 N   0  0  0  0  0  0  0  0  0  0  0  0
   26.5357  -20.4789  -10.6014 C   0  0  1  0  0  0  0  0  0  0  0  0
   27.2382  -19.8109   -9.4379 C   0  0  0  0  0  0  0  0  0  0  0  0
   26.8288  -20.2992   -8.1313 C   0  0  0  0  0  0  0  0  0  0  0  0
   25.7981  -21.2125   -7.8594 C   0  0  0  0  0  0  0  0  0  0  0  0
   25.7108  -21.3982   -6.5387 N   0  0  0  0  0  0  0  0  0  0  0  0
   26.6298  -20.6580   -5.8955 C   0  0  0  0  0  0  0  0  0  0  0  0
   26.9716  -20.4742   -4.5624 C   0  0  0  0  0  0  0  0  0  0  0  0
   27.9777  -19.6383   -4.1637 C   0  0  0  0  0  0  0  0  0  0  0  0
   28.6861  -18.9448   -5.1391 C   0  0  0  0  0  0  0  0  0  0  0  0
   28.3376  -19.1347   -6.4673 C   0  0  0  0  0  0  0  0  0  0  0  0
   27.3337  -19.9678   -6.8772 C   0  0  0  0  0  0  0  0  0  0  0  0
   25.0634  -20.3777  -10.5263 C   0  0  0  0  0  0  0  0  0  0  0  0
   24.4888  -19.2327  -10.5162 O   0  0  0  0  0  0  0  0  0  0  0  0
   21.6783  -21.5900   -6.2027 N   0  0  0  0  0  0  0  0  0  0  0  0
   20.7983  -22.2010   -7.1528 C   0  0  0  0  0  0  0  0  0  0  0  0
   19.7703  -22.7761   -6.6604 O   0  0  0  0  0  0  0  0  0  0  0  0
   21.0494  -22.1680   -8.6046 C   0  0  0  0  0  0  0  0  0  0  0  0
   22.3043  -21.4395   -8.9234 C   0  0  0  0  0  0  0  0  0  0  0  0
   22.7125  -21.3058  -10.3354 C   0  0  2  0  0  0  0  0  0  0  0  0
   24.1719  -21.4846  -10.4631 N   0  0  0  0  0  0  0  0  0  0  0  0
   22.2213  -20.1922  -11.1100 C   0  0  0  0  0  0  0  0  0  0  0  0
   22.0035  -20.2139  -12.3389 O   0  0  0  0  0  0  0  0  0  0  0  0
   21.9522  -18.9663  -10.4797 O   0  0  0  0  0  0  0  0  0  0  0  0
  2  1  1  0
  3  4  1  0
  3  2  1  0
  4  5  1  0
  5  1  1  0
  5  6  1  1
  7  6  2  0
  8  6  1  0
  9 10  1  1
  9  8  1  0
 10 11  1  0
 11 19  1  0
 12 11  2  0
 12 13  1  0
 13 14  1  0
 14 15  2  0
 15 16  1  0
 17 16  2  0
 18 17  1  0
 19 18  2  0
 19 14  1  0
 20 21  2  0
 20  9  1  0
 22 23  1  0
 23 24  2  0
 25 26  1  0
 25 23  1  0
 27 26  1  1
 27 28  1  0
 28 20  1  0
 29 27  1  0
 29 31  1  0
 30 29  2  0
M  END
$$$$
