PWQ.pdb
     RDKit          3D

 31 33  0  0  1  0  0  0  0  0999 V2000
   27.4643  -20.2063  -16.7182 N   0  0  0  0  0  0  0  0  0  0  0  0
   28.7668  -19.6685  -16.9657 C   0  0  0  0  0  0  0  0  0  0  0  0
   29.5873  -20.8765  -17.3434 C   0  0  0  0  0  0  0  0  0  0  0  0
   29.0561  -21.9190  -16.3507 C   0  0  0  0  0  0  0  0  0  0  0  0
   27.5949  -21.5934  -16.3601 C   0  0  1  0  0  0  0  0  0  0  0  0
   26.9202  -21.8121  -15.0592 C   0  0  0  0  0  0  0  0  0  0  0  0
   27.0466  -22.8703  -14.3915 O   0  0  0  0  0  0  0  0  0  0  0  0
   26.0990  -20.7724  -14.5577 N   0  0  0  0  0  0  0  0  0  0  0  0
   25.4355  -20.9098  -13.2476 C   0  0  1  0  0  0  0  0  0  0  0  0
   25.9541  -19.8207  -12.3319 C   0  0  0  0  0  0  0  0  0  0  0  0
   27.0863  -20.2177  -11.5110 C   0  0  0  0  0  0  0  0  0  0  0  0
   28.3817  -20.5247  -11.9560 C   0  0  0  0  0  0  0  0  0  0  0  0
   29.1386  -20.8650  -10.9084 N   0  0  0  0  0  0  0  0  0  0  0  0
   28.4253  -20.8058   -9.7708 C   0  0  0  0  0  0  0  0  0  0  0  0
   28.7057  -21.0486   -8.4328 C   0  0  0  0  0  0  0  0  0  0  0  0
   27.7725  -20.9098   -7.4430 C   0  0  0  0  0  0  0  0  0  0  0  0
   26.4890  -20.5078   -7.7967 C   0  0  0  0  0  0  0  0  0  0  0  0
   26.2185  -20.2677   -9.1350 C   0  0  0  0  0  0  0  0  0  0  0  0
   27.1436  -20.4033  -10.1327 C   0  0  0  0  0  0  0  0  0  0  0  0
   23.9827  -20.8130  -13.5001 C   0  0  0  0  0  0  0  0  0  0  0  0
   23.5239  -19.9711  -14.3497 O   0  0  0  0  0  0  0  0  0  0  0  0
   19.6265  -25.0722  -11.9998 N   0  0  0  0  0  0  0  0  0  0  0  0
   18.8119  -24.0428  -12.5716 C   0  0  0  0  0  0  0  0  0  0  0  0
   17.5694  -24.3177  -12.6750 O   0  0  0  0  0  0  0  0  0  0  0  0
   19.3597  -22.7462  -13.0084 C   0  0  0  0  0  0  0  0  0  0  0  0
   20.8001  -22.6212  -12.6668 C   0  0  0  0  0  0  0  0  0  0  0  0
   21.5534  -21.4549  -13.1674 C   0  0  2  0  0  0  0  0  0  0  0  0
   22.9891  -21.6059  -12.8612 N   0  0  0  0  0  0  0  0  0  0  0  0
   21.0647  -20.1263  -12.8892 C   0  0  0  0  0  0  0  0  0  0  0  0
   21.3195  -19.4696  -11.8587 O   0  0  0  0  0  0  0  0  0  0  0  0
   20.2340  -19.4779  -13.8176 O   0  0  0  0  0  0  0  0  0  0  0  0
  2  1  1  0
  3  4  1  0
  3  2  1  0
  4  5  1  0
  5  1  1  0
  5  6  1  1
  7  6  2  0
  8  6  1  0
  9 10  1  1
  9  8  1  0
 10 11  1  0
 11 19  1  0
 12 11  2  0
 12 13  1  0
 13 14  1  0
 14 15  2  0
 15 16  1  0
 17 16  2  0
 18 17  1  0
 19 18  2  0
 19 14  1  0
 20 21  2  0
 20  9  1  0
 22 23  1  0
 23 24  2  0
 25 26  1  0
 25 23  1  0
 27 26  1  1
 27 28  1  0
 28 20  1  0
 29 27  1  0
 29 31  1  0
 30 29  2  0
M  END
$$$$
