PWQ.pdb
     RDKit          3D

 31 33  0  0  1  0  0  0  0  0999 V2000
   22.6218  -12.1660  -16.6662 N   0  0  0  0  0  0  0  0  0  0  0  0
   22.8216  -12.6749  -17.9883 C   0  0  0  0  0  0  0  0  0  0  0  0
   24.2931  -13.0040  -18.0270 C   0  0  0  0  0  0  0  0  0  0  0  0
   24.8847  -11.8119  -17.2633 C   0  0  0  0  0  0  0  0  0  0  0  0
   23.8705  -11.6476  -16.1745 C   0  0  1  0  0  0  0  0  0  0  0  0
   23.6652  -10.2433  -15.7488 C   0  0  0  0  0  0  0  0  0  0  0  0
   24.6148   -9.4513  -15.5197 O   0  0  0  0  0  0  0  0  0  0  0  0
   22.3327   -9.7866  -15.5977 N   0  0  0  0  0  0  0  0  0  0  0  0
   22.0573   -8.3672  -15.3065 C   0  0  1  0  0  0  0  0  0  0  0  0
   22.5855   -7.5319  -16.4541 C   0  0  0  0  0  0  0  0  0  0  0  0
   22.0135   -7.8635  -17.7487 C   0  0  0  0  0  0  0  0  0  0  0  0
   20.9855   -8.7848  -18.0033 C   0  0  0  0  0  0  0  0  0  0  0  0
   20.7487   -8.8288  -19.3179 N   0  0  0  0  0  0  0  0  0  0  0  0
   21.5630   -7.9841  -19.9735 C   0  0  0  0  0  0  0  0  0  0  0  0
   21.7394   -7.6412  -21.3073 C   0  0  0  0  0  0  0  0  0  0  0  0
   22.6662   -6.7245  -21.7205 C   0  0  0  0  0  0  0  0  0  0  0  0
   23.4637   -6.1121  -20.7598 C   0  0  0  0  0  0  0  0  0  0  0  0
   23.2802   -6.4608  -19.4307 C   0  0  0  0  0  0  0  0  0  0  0  0
   22.3569   -7.3758  -19.0064 C   0  0  0  0  0  0  0  0  0  0  0  0
   20.5950   -8.2507  -15.1285 C   0  0  0  0  0  0  0  0  0  0  0  0
   19.7958   -8.9910  -15.8027 O   0  0  0  0  0  0  0  0  0  0  0  0
   17.5376   -8.8550  -10.1978 N   0  0  0  0  0  0  0  0  0  0  0  0
   16.4727   -8.7464  -11.1489 C   0  0  0  0  0  0  0  0  0  0  0  0
   15.3274   -9.1350  -10.7398 O   0  0  0  0  0  0  0  0  0  0  0  0
   16.6729   -8.2163  -12.5094 C   0  0  0  0  0  0  0  0  0  0  0  0
   18.1066   -7.9339  -12.7777 C   0  0  0  0  0  0  0  0  0  0  0  0
   18.4848   -7.3288  -14.0697 C   0  0  2  0  0  0  0  0  0  0  0  0
   19.9513   -7.3517  -14.2333 N   0  0  0  0  0  0  0  0  0  0  0  0
   17.9045   -6.0652  -14.4544 C   0  0  0  0  0  0  0  0  0  0  0  0
   18.5480   -5.0203  -14.6827 O   0  0  0  0  0  0  0  0  0  0  0  0
   16.5120   -5.9492  -14.5962 O   0  0  0  0  0  0  0  0  0  0  0  0
  2  1  1  0
  3  4  1  0
  3  2  1  0
  4  5  1  0
  5  1  1  0
  5  6  1  6
  7  6  2  0
  8  6  1  0
  9 10  1  6
  9  8  1  0
 10 11  1  0
 11 19  1  0
 12 11  2  0
 12 13  1  0
 13 14  1  0
 14 15  2  0
 15 16  1  0
 17 16  2  0
 18 17  1  0
 19 18  2  0
 19 14  1  0
 20 21  2  0
 20  9  1  0
 22 23  1  0
 23 24  2  0
 25 26  1  0
 25 23  1  0
 27 26  1  1
 27 28  1  0
 28 20  1  0
 29 27  1  0
 29 31  1  0
 30 29  2  0
M  END
$$$$
