PWQ.pdb
     RDKit          3D

 31 33  0  0  1  0  0  0  0  0999 V2000
   26.9444  -19.4319  -14.1395 N   0  0  0  0  0  0  0  0  0  0  0  0
   28.1957  -18.8446  -14.5090 C   0  0  0  0  0  0  0  0  0  0  0  0
   28.9343  -19.9719  -15.1863 C   0  0  0  0  0  0  0  0  0  0  0  0
   28.5588  -21.1566  -14.2865 C   0  0  0  0  0  0  0  0  0  0  0  0
   27.1178  -20.8546  -14.0153 C   0  0  1  0  0  0  0  0  0  0  0  0
   26.6572  -21.2719  -12.6703 C   0  0  0  0  0  0  0  0  0  0  0  0
   26.6973  -22.4642  -12.2721 O   0  0  0  0  0  0  0  0  0  0  0  0
   26.1514  -20.2709  -11.8049 N   0  0  0  0  0  0  0  0  0  0  0  0
   25.7107  -20.6154  -10.4401 C   0  0  1  0  0  0  0  0  0  0  0  0
   26.3874  -19.6733   -9.4664 C   0  0  0  0  0  0  0  0  0  0  0  0
   26.2856  -20.0774   -8.0737 C   0  0  0  0  0  0  0  0  0  0  0  0
   25.2313  -20.7878   -7.4786 C   0  0  0  0  0  0  0  0  0  0  0  0
   25.4898  -20.9528   -6.1778 N   0  0  0  0  0  0  0  0  0  0  0  0
   26.6673  -20.3910   -5.8549 C   0  0  0  0  0  0  0  0  0  0  0  0
   27.3985  -20.2705   -4.6807 C   0  0  0  0  0  0  0  0  0  0  0  0
   28.6057  -19.6308   -4.6217 C   0  0  0  0  0  0  0  0  0  0  0  0
   29.1188  -19.0789   -5.7905 C   0  0  0  0  0  0  0  0  0  0  0  0
   28.3817  -19.2042   -6.9579 C   0  0  0  0  0  0  0  0  0  0  0  0
   27.1740  -19.8415   -7.0284 C   0  0  0  0  0  0  0  0  0  0  0  0
   24.2376  -20.4988  -10.4323 C   0  0  0  0  0  0  0  0  0  0  0  0
   23.6495  -19.6244  -11.1607 O   0  0  0  0  0  0  0  0  0  0  0  0
   19.6135  -23.8016   -6.7218 N   0  0  0  0  0  0  0  0  0  0  0  0
   19.4132  -23.6268   -8.1288 C   0  0  0  0  0  0  0  0  0  0  0  0
   18.8227  -24.5894   -8.7245 O   0  0  0  0  0  0  0  0  0  0  0  0
   19.8493  -22.4176   -8.8497 C   0  0  0  0  0  0  0  0  0  0  0  0
   21.2938  -22.4790   -9.1912 C   0  0  0  0  0  0  0  0  0  0  0  0
   21.9061  -21.3438   -9.9087 C   0  0  2  0  0  0  0  0  0  0  0  0
   23.3596  -21.3057   -9.6563 N   0  0  0  0  0  0  0  0  0  0  0  0
   21.2944  -20.0401   -9.8204 C   0  0  0  0  0  0  0  0  0  0  0  0
   20.1589  -19.7501  -10.2500 O   0  0  0  0  0  0  0  0  0  0  0  0
   21.9893  -18.9811   -9.2136 O   0  0  0  0  0  0  0  0  0  0  0  0
  2  1  1  0
  3  4  1  0
  3  2  1  0
  4  5  1  0
  5  1  1  0
  5  6  1  1
  7  6  2  0
  8  6  1  0
  9 10  1  1
  9  8  1  0
 10 11  1  0
 11 19  1  0
 12 11  2  0
 12 13  1  0
 13 14  1  0
 14 15  2  0
 15 16  1  0
 17 16  2  0
 18 17  1  0
 19 18  2  0
 19 14  1  0
 20 21  2  0
 20  9  1  0
 22 23  1  0
 23 24  2  0
 25 26  1  0
 25 23  1  0
 27 26  1  1
 27 28  1  0
 28 20  1  0
 29 27  1  0
 29 31  1  0
 30 29  2  0
M  END
$$$$
