PWQ.pdb
     RDKit          3D

 31 33  0  0  1  0  0  0  0  0999 V2000
   46.5782  -17.4122   -8.7262 N   0  0  0  0  0  0  0  0  0  0  0  0
   47.9036  -17.5980   -9.2320 C   0  0  0  0  0  0  0  0  0  0  0  0
   48.7868  -17.1197   -8.1067 C   0  0  0  0  0  0  0  0  0  0  0  0
   48.0132  -15.8851   -7.6255 C   0  0  0  0  0  0  0  0  0  0  0  0
   46.6050  -16.3847   -7.7197 C   0  0  1  0  0  0  0  0  0  0  0  0
   45.6181  -15.3408   -8.0825 C   0  0  0  0  0  0  0  0  0  0  0  0
   44.9985  -15.3349   -9.1769 O   0  0  0  0  0  0  0  0  0  0  0  0
   45.3719  -14.3092   -7.1433 N   0  0  0  0  0  0  0  0  0  0  0  0
   44.4545  -13.2021   -7.4722 C   0  0  1  0  0  0  0  0  0  0  0  0
   43.7585  -12.7633   -6.2007 C   0  0  0  0  0  0  0  0  0  0  0  0
   42.8889  -11.6096   -6.3619 C   0  0  0  0  0  0  0  0  0  0  0  0
   41.5394  -11.6205   -6.7480 C   0  0  0  0  0  0  0  0  0  0  0  0
   41.0869  -10.3642   -6.8042 N   0  0  0  0  0  0  0  0  0  0  0  0
   42.0592   -9.4964   -6.4759 C   0  0  0  0  0  0  0  0  0  0  0  0
   42.1355   -8.1138   -6.3734 C   0  0  0  0  0  0  0  0  0  0  0  0
   43.2796   -7.4598   -6.0083 C   0  0  0  0  0  0  0  0  0  0  0  0
   44.4126   -8.2163   -5.7287 C   0  0  0  0  0  0  0  0  0  0  0  0
   44.3267   -9.5959   -5.8337 C   0  0  0  0  0  0  0  0  0  0  0  0
   43.1883  -10.2602   -6.1977 C   0  0  0  0  0  0  0  0  0  0  0  0
   45.2808  -12.1377   -8.0788 C   0  0  0  0  0  0  0  0  0  0  0  0
   46.5595  -12.2005   -8.0339 O   0  0  0  0  0  0  0  0  0  0  0  0
   49.1153  -11.5444  -12.9469 N   0  0  0  0  0  0  0  0  0  0  0  0
   47.7573  -11.6755  -12.5122 C   0  0  0  0  0  0  0  0  0  0  0  0
   47.1907  -12.7821  -12.8025 O   0  0  0  0  0  0  0  0  0  0  0  0
   47.0534  -10.6129  -11.7722 C   0  0  0  0  0  0  0  0  0  0  0  0
   46.2604  -11.1683  -10.6454 C   0  0  0  0  0  0  0  0  0  0  0  0
   45.5726  -10.2369   -9.7300 C   0  0  2  0  0  0  0  0  0  0  0  0
   44.7706  -10.9892   -8.7456 N   0  0  0  0  0  0  0  0  0  0  0  0
   44.8613   -9.1067  -10.2758 C   0  0  0  0  0  0  0  0  0  0  0  0
   43.7558   -9.1654  -10.8524 O   0  0  0  0  0  0  0  0  0  0  0  0
   45.4131   -7.8189  -10.1771 O   0  0  0  0  0  0  0  0  0  0  0  0
  2  1  1  0
  3  4  1  0
  3  2  1  0
  4  5  1  0
  5  1  1  0
  5  6  1  6
  7  6  2  0
  8  6  1  0
  9 10  1  1
  9  8  1  0
 10 11  1  0
 11 19  1  0
 12 11  2  0
 12 13  1  0
 13 14  1  0
 14 15  2  0
 15 16  1  0
 17 16  2  0
 18 17  1  0
 19 18  2  0
 19 14  1  0
 20 21  2  0
 20  9  1  0
 22 23  1  0
 23 24  2  0
 25 26  1  0
 25 23  1  0
 27 26  1  6
 27 28  1  0
 28 20  1  0
 29 27  1  0
 29 31  1  0
 30 29  2  0
M  END
$$$$
