PWQ.pdb
     RDKit          3D

 31 33  0  0  1  0  0  0  0  0999 V2000
   27.7690  -18.5366  -14.8094 N   0  0  0  0  0  0  0  0  0  0  0  0
   29.0700  -17.9453  -14.7401 C   0  0  0  0  0  0  0  0  0  0  0  0
   29.7746  -18.4859  -15.9593 C   0  0  0  0  0  0  0  0  0  0  0  0
   29.2843  -19.9398  -15.9659 C   0  0  0  0  0  0  0  0  0  0  0  0
   27.8516  -19.7524  -15.5741 C   0  0  1  0  0  0  0  0  0  0  0  0
   27.2989  -20.8612  -14.7614 C   0  0  0  0  0  0  0  0  0  0  0  0
   27.2553  -22.0511  -15.1660 O   0  0  0  0  0  0  0  0  0  0  0  0
   26.8009  -20.5510  -13.4720 N   0  0  0  0  0  0  0  0  0  0  0  0
   26.1428  -21.5880  -12.6553 C   0  0  1  0  0  0  0  0  0  0  0  0
   26.9670  -21.8062  -11.4036 C   0  0  0  0  0  0  0  0  0  0  0  0
   26.6274  -20.9212  -10.3015 C   0  0  0  0  0  0  0  0  0  0  0  0
   25.4252  -20.2179  -10.1267 C   0  0  0  0  0  0  0  0  0  0  0  0
   25.4967  -19.4947   -9.0051 N   0  0  0  0  0  0  0  0  0  0  0  0
   26.6868  -19.6688   -8.4054 C   0  0  0  0  0  0  0  0  0  0  0  0
   27.2753  -19.1742   -7.2492 C   0  0  0  0  0  0  0  0  0  0  0  0
   28.5374  -19.5211   -6.8532 C   0  0  0  0  0  0  0  0  0  0  0  0
   29.2583  -20.4077   -7.6459 C   0  0  0  0  0  0  0  0  0  0  0  0
   28.6624  -20.8962   -8.7984 C   0  0  0  0  0  0  0  0  0  0  0  0
   27.4015  -20.5562   -9.2037 C   0  0  0  0  0  0  0  0  0  0  0  0
   24.7777  -21.0973  -12.3734 C   0  0  0  0  0  0  0  0  0  0  0  0
   24.5546  -19.8454  -12.2184 O   0  0  0  0  0  0  0  0  0  0  0  0
   20.0474  -20.6781   -9.6938 N   0  0  0  0  0  0  0  0  0  0  0  0
   19.8288  -19.7126  -10.7284 C   0  0  0  0  0  0  0  0  0  0  0  0
   18.6747  -19.1669  -10.7373 O   0  0  0  0  0  0  0  0  0  0  0  0
   20.8626  -19.3600  -11.7179 C   0  0  0  0  0  0  0  0  0  0  0  0
   22.0826  -20.1910  -11.5500 C   0  0  0  0  0  0  0  0  0  0  0  0
   22.2591  -21.3801  -12.4063 C   0  0  2  0  0  0  0  0  0  0  0  0
   23.6237  -21.9206  -12.2526 N   0  0  0  0  0  0  0  0  0  0  0  0
   21.8368  -21.3265  -13.7847 C   0  0  0  0  0  0  0  0  0  0  0  0
   22.5786  -21.0589  -14.7523 O   0  0  0  0  0  0  0  0  0  0  0  0
   20.4973  -21.5874  -14.1165 O   0  0  0  0  0  0  0  0  0  0  0  0
  2  1  1  0
  3  4  1  0
  3  2  1  0
  4  5  1  0
  5  1  1  0
  5  6  1  1
  7  6  2  0
  8  6  1  0
  9 10  1  1
  9  8  1  0
 10 11  1  0
 11 19  1  0
 12 11  2  0
 12 13  1  0
 13 14  1  0
 14 15  2  0
 15 16  1  0
 17 16  2  0
 18 17  1  0
 19 18  2  0
 19 14  1  0
 20 21  2  0
 20  9  1  0
 22 23  1  0
 23 24  2  0
 25 26  1  0
 25 23  1  0
 27 26  1  6
 27 28  1  0
 28 20  1  0
 29 27  1  0
 29 31  1  0
 30 29  2  0
M  END
$$$$
