PWQ.pdb
     RDKit          3D

 31 33  0  0  1  0  0  0  0  0999 V2000
   16.2199  -25.1463   -5.0656 N   0  0  0  0  0  0  0  0  0  0  0  0
   17.1926  -26.1863   -4.9270 C   0  0  0  0  0  0  0  0  0  0  0  0
   16.4068  -27.3372   -4.3498 C   0  0  0  0  0  0  0  0  0  0  0  0
   15.5040  -26.6074   -3.3465 C   0  0  0  0  0  0  0  0  0  0  0  0
   15.1535  -25.3801   -4.1287 C   0  0  1  0  0  0  0  0  0  0  0  0
   14.9783  -24.1656   -3.2983 C   0  0  0  0  0  0  0  0  0  0  0  0
   15.8972  -23.3286   -3.1065 O   0  0  0  0  0  0  0  0  0  0  0  0
   13.7122  -23.9511   -2.7000 N   0  0  0  0  0  0  0  0  0  0  0  0
   13.4973  -22.8065   -1.7949 C   0  0  1  0  0  0  0  0  0  0  0  0
   12.0727  -22.3220   -1.9658 C   0  0  0  0  0  0  0  0  0  0  0  0
   11.8839  -21.3957   -3.0702 C   0  0  0  0  0  0  0  0  0  0  0  0
   12.1664  -21.6324   -4.4246 C   0  0  0  0  0  0  0  0  0  0  0  0
   11.8798  -20.5358   -5.1328 N   0  0  0  0  0  0  0  0  0  0  0  0
   11.4159  -19.5626   -4.3303 C   0  0  0  0  0  0  0  0  0  0  0  0
   10.9813  -18.2595   -4.5323 C   0  0  0  0  0  0  0  0  0  0  0  0
   10.5465  -17.4570   -3.5140 C   0  0  0  0  0  0  0  0  0  0  0  0
   10.5411  -17.9729   -2.2224 C   0  0  0  0  0  0  0  0  0  0  0  0
   10.9767  -19.2750   -2.0307 C   0  0  0  0  0  0  0  0  0  0  0  0
   11.4134  -20.0860   -3.0412 C   0  0  0  0  0  0  0  0  0  0  0  0
   13.7859  -23.2910   -0.4290 C   0  0  0  0  0  0  0  0  0  0  0  0
   13.8597  -24.5464   -0.1852 O   0  0  0  0  0  0  0  0  0  0  0  0
   15.4945  -26.2948    2.3734 N   0  0  0  0  0  0  0  0  0  0  0  0
   16.5031  -25.5200    3.0311 C   0  0  0  0  0  0  0  0  0  0  0  0
   17.1198  -26.1109    3.9801 O   0  0  0  0  0  0  0  0  0  0  0  0
   16.8209  -24.1345    2.6421 C   0  0  0  0  0  0  0  0  0  0  0  0
   15.9266  -23.6552    1.5569 C   0  0  0  0  0  0  0  0  0  0  0  0
   14.6806  -22.9513    1.9180 C   0  0  2  0  0  0  0  0  0  0  0  0
   14.0040  -22.4573    0.7031 N   0  0  0  0  0  0  0  0  0  0  0  0
   14.7049  -21.9705    2.9758 C   0  0  0  0  0  0  0  0  0  0  0  0
   14.8636  -20.7432    2.8124 O   0  0  0  0  0  0  0  0  0  0  0  0
   14.5424  -22.3769    4.3103 O   0  0  0  0  0  0  0  0  0  0  0  0
  2  1  1  0
  3  4  1  0
  3  2  1  0
  4  5  1  0
  5  1  1  0
  5  6  1  1
  7  6  2  0
  8  6  1  0
  9 10  1  1
  9  8  1  0
 10 11  1  0
 11 19  1  0
 12 11  2  0
 12 13  1  0
 13 14  1  0
 14 15  2  0
 15 16  1  0
 17 16  2  0
 18 17  1  0
 19 18  2  0
 19 14  1  0
 20 21  2  0
 20  9  1  0
 22 23  1  0
 23 24  2  0
 25 26  1  0
 25 23  1  0
 27 26  1  6
 27 28  1  0
 28 20  1  0
 29 27  1  0
 29 31  1  0
 30 29  2  0
M  END
$$$$
