PWQ.pdb
     RDKit          3D

 31 33  0  0  1  0  0  0  0  0999 V2000
   26.7148  -21.6442  -14.7843 N   0  0  0  0  0  0  0  0  0  0  0  0
   27.9491  -21.6979  -15.5058 C   0  0  0  0  0  0  0  0  0  0  0  0
   28.9300  -21.0100  -14.5893 C   0  0  0  0  0  0  0  0  0  0  0  0
   28.0774  -19.8503  -14.0578 C   0  0  0  0  0  0  0  0  0  0  0  0
   26.7610  -20.5371  -13.8668 C   0  0  1  0  0  0  0  0  0  0  0  0
   25.5864  -19.6683  -14.1136 C   0  0  0  0  0  0  0  0  0  0  0  0
   25.3688  -18.6112  -13.4682 O   0  0  0  0  0  0  0  0  0  0  0  0
   24.6763  -20.0596  -15.1263 N   0  0  0  0  0  0  0  0  0  0  0  0
   23.4503  -19.2773  -15.3726 C   0  0  1  0  0  0  0  0  0  0  0  0
   23.5944  -18.5676  -16.7027 C   0  0  0  0  0  0  0  0  0  0  0  0
   24.8239  -17.8049  -16.8441 C   0  0  0  0  0  0  0  0  0  0  0  0
   25.9596  -18.1690  -17.5843 C   0  0  0  0  0  0  0  0  0  0  0  0
   26.8927  -17.2210  -17.4549 N   0  0  0  0  0  0  0  0  0  0  0  0
   26.4513  -16.2281  -16.6639 C   0  0  0  0  0  0  0  0  0  0  0  0
   26.9926  -15.0335  -16.2080 C   0  0  0  0  0  0  0  0  0  0  0  0
   26.3123  -14.1770  -15.3873 C   0  0  0  0  0  0  0  0  0  0  0  0
   25.0232  -14.5217  -14.9953 C   0  0  0  0  0  0  0  0  0  0  0  0
   24.4912  -15.7163  -15.4555 C   0  0  0  0  0  0  0  0  0  0  0  0
   25.1622  -16.5799  -16.2762 C   0  0  0  0  0  0  0  0  0  0  0  0
   22.3269  -20.2369  -15.3452 C   0  0  0  0  0  0  0  0  0  0  0  0
   22.5336  -21.4873  -15.5326 O   0  0  0  0  0  0  0  0  0  0  0  0
   19.2272  -23.7970  -12.1837 N   0  0  0  0  0  0  0  0  0  0  0  0
   19.5618  -22.5437  -11.5774 C   0  0  0  0  0  0  0  0  0  0  0  0
   19.2787  -22.4391  -10.3369 O   0  0  0  0  0  0  0  0  0  0  0  0
   20.1972  -21.4437  -12.3247 C   0  0  0  0  0  0  0  0  0  0  0  0
   20.4305  -21.8139  -13.7444 C   0  0  0  0  0  0  0  0  0  0  0  0
   19.9439  -20.9114  -14.8061 C   0  0  2  0  0  0  0  0  0  0  0  0
   20.9655  -19.8928  -15.1168 N   0  0  0  0  0  0  0  0  0  0  0  0
   18.6177  -20.3526  -14.7049 C   0  0  0  0  0  0  0  0  0  0  0  0
   18.3587  -19.1376  -14.5834 O   0  0  0  0  0  0  0  0  0  0  0  0
   17.4974  -21.1990  -14.7401 O   0  0  0  0  0  0  0  0  0  0  0  0
  2  1  1  0
  3  4  1  0
  3  2  1  0
  4  5  1  0
  5  1  1  0
  5  6  1  6
  7  6  2  0
  8  6  1  0
  9 10  1  6
  9  8  1  0
 10 11  1  0
 11 19  1  0
 12 11  2  0
 12 13  1  0
 13 14  1  0
 14 15  2  0
 15 16  1  0
 17 16  2  0
 18 17  1  0
 19 18  2  0
 19 14  1  0
 20 21  2  0
 20  9  1  0
 22 23  1  0
 23 24  2  0
 25 26  1  0
 25 23  1  0
 27 26  1  1
 27 28  1  0
 28 20  1  0
 29 27  1  0
 29 31  1  0
 30 29  2  0
M  END
$$$$
