PWQ.pdb
     RDKit          3D

 31 33  0  0  1  0  0  0  0  0999 V2000
   27.3862  -19.2301  -14.9184 N   0  0  0  0  0  0  0  0  0  0  0  0
   28.7289  -18.7391  -14.8618 C   0  0  0  0  0  0  0  0  0  0  0  0
   29.5259  -19.7905  -15.5928 C   0  0  0  0  0  0  0  0  0  0  0  0
   28.8587  -21.0757  -15.0856 C   0  0  0  0  0  0  0  0  0  0  0  0
   27.4208  -20.6593  -15.0793 C   0  0  1  0  0  0  0  0  0  0  0  0
   26.6190  -21.2770  -13.9971 C   0  0  0  0  0  0  0  0  0  0  0  0
   26.4823  -22.5207  -13.8706 O   0  0  0  0  0  0  0  0  0  0  0  0
   25.9839  -20.4140  -13.0703 N   0  0  0  0  0  0  0  0  0  0  0  0
   25.2088  -20.9670  -11.9439 C   0  0  1  0  0  0  0  0  0  0  0  0
   25.6292  -20.2519  -10.6768 C   0  0  0  0  0  0  0  0  0  0  0  0
   26.9400  -20.6362  -10.1794 C   0  0  0  0  0  0  0  0  0  0  0  0
   27.9173  -21.3741  -10.8656 C   0  0  0  0  0  0  0  0  0  0  0  0
   28.9794  -21.5435  -10.0723 N   0  0  0  0  0  0  0  0  0  0  0  0
   28.7766  -20.9585   -8.8794 C   0  0  0  0  0  0  0  0  0  0  0  0
   29.5270  -20.8310   -7.7181 C   0  0  0  0  0  0  0  0  0  0  0  0
   29.0744  -20.1654   -6.6126 C   0  0  0  0  0  0  0  0  0  0  0  0
   27.8076  -19.5933   -6.6584 C   0  0  0  0  0  0  0  0  0  0  0  0
   27.0659  -19.7258   -7.8221 C   0  0  0  0  0  0  0  0  0  0  0  0
   27.5084  -20.3890   -8.9330 C   0  0  0  0  0  0  0  0  0  0  0  0
   23.7829  -20.7681  -12.2771 C   0  0  0  0  0  0  0  0  0  0  0  0
   23.3780  -19.6570  -12.7696 O   0  0  0  0  0  0  0  0  0  0  0  0
   19.3122  -24.6316  -15.1043 N   0  0  0  0  0  0  0  0  0  0  0  0
   18.8725  -24.0412  -13.8761 C   0  0  0  0  0  0  0  0  0  0  0  0
   18.0628  -24.7462  -13.1852 O   0  0  0  0  0  0  0  0  0  0  0  0
   19.3236  -22.7120  -13.4268 C   0  0  0  0  0  0  0  0  0  0  0  0
   20.7500  -22.7330  -13.0120 C   0  0  0  0  0  0  0  0  0  0  0  0
   21.3641  -21.4899  -12.5060 C   0  0  2  0  0  0  0  0  0  0  0  0
   22.7600  -21.7406  -12.0981 N   0  0  0  0  0  0  0  0  0  0  0  0
   20.6438  -20.6850  -11.5496 C   0  0  0  0  0  0  0  0  0  0  0  0
   19.7491  -19.8623  -11.8339 O   0  0  0  0  0  0  0  0  0  0  0  0
   20.9346  -20.7982  -10.1803 O   0  0  0  0  0  0  0  0  0  0  0  0
  2  1  1  0
  3  4  1  0
  3  2  1  0
  4  5  1  0
  5  1  1  0
  5  6  1  1
  7  6  2  0
  8  6  1  0
  9 10  1  1
  9  8  1  0
 10 11  1  0
 11 19  1  0
 12 11  2  0
 12 13  1  0
 13 14  1  0
 14 15  2  0
 15 16  1  0
 17 16  2  0
 18 17  1  0
 19 18  2  0
 19 14  1  0
 20 21  2  0
 20  9  1  0
 22 23  1  0
 23 24  2  0
 25 26  1  0
 25 23  1  0
 27 26  1  1
 27 28  1  0
 28 20  1  0
 29 27  1  0
 29 31  1  0
 30 29  2  0
M  END
$$$$
