PWQ.pdb
     RDKit          3D

 31 33  0  0  1  0  0  0  0  0999 V2000
   26.6595  -21.1426  -14.8190 N   0  0  0  0  0  0  0  0  0  0  0  0
   27.8771  -21.1637  -15.5700 C   0  0  0  0  0  0  0  0  0  0  0  0
   28.8576  -20.4375  -14.6832 C   0  0  0  0  0  0  0  0  0  0  0  0
   27.9819  -19.3006  -14.1400 C   0  0  0  0  0  0  0  0  0  0  0  0
   26.6929  -20.0268  -13.9115 C   0  0  1  0  0  0  0  0  0  0  0  0
   25.4857  -19.1976  -14.1363 C   0  0  0  0  0  0  0  0  0  0  0  0
   25.3116  -18.0789  -13.5888 O   0  0  0  0  0  0  0  0  0  0  0  0
   24.4914  -19.7013  -15.0107 N   0  0  0  0  0  0  0  0  0  0  0  0
   23.2778  -18.9131  -15.2960 C   0  0  1  0  0  0  0  0  0  0  0  0
   23.2078  -18.6652  -16.7884 C   0  0  0  0  0  0  0  0  0  0  0  0
   24.2373  -17.7731  -17.2959 C   0  0  0  0  0  0  0  0  0  0  0  0
   25.3860  -18.1371  -18.0158 C   0  0  0  0  0  0  0  0  0  0  0  0
   26.1002  -17.0411  -18.2896 N   0  0  0  0  0  0  0  0  0  0  0  0
   25.4972  -15.9475  -17.7931 C   0  0  0  0  0  0  0  0  0  0  0  0
   25.7929  -14.5909  -17.7880 C   0  0  0  0  0  0  0  0  0  0  0  0
   24.9874  -13.6590  -17.1943 C   0  0  0  0  0  0  0  0  0  0  0  0
   23.8230  -14.0935  -16.5702 C   0  0  0  0  0  0  0  0  0  0  0  0
   23.5361  -15.4498  -16.5804 C   0  0  0  0  0  0  0  0  0  0  0  0
   24.3341  -16.3901  -17.1708 C   0  0  0  0  0  0  0  0  0  0  0  0
   22.1362  -19.6992  -14.7838 C   0  0  0  0  0  0  0  0  0  0  0  0
   22.1807  -20.9795  -14.7702 O   0  0  0  0  0  0  0  0  0  0  0  0
   20.6953  -21.8287  -10.4875 N   0  0  0  0  0  0  0  0  0  0  0  0
   19.2903  -21.5817  -10.6112 C   0  0  0  0  0  0  0  0  0  0  0  0
   18.5345  -22.3427   -9.9187 O   0  0  0  0  0  0  0  0  0  0  0  0
   18.7429  -20.5181  -11.4721 C   0  0  0  0  0  0  0  0  0  0  0  0
   19.8156  -19.8306  -12.2363 C   0  0  0  0  0  0  0  0  0  0  0  0
   19.8625  -19.9922  -13.7026 C   0  0  2  0  0  0  0  0  0  0  0  0
   20.9282  -19.1465  -14.2746 N   0  0  0  0  0  0  0  0  0  0  0  0
   18.6364  -19.9255  -14.4599 C   0  0  0  0  0  0  0  0  0  0  0  0
   17.8996  -20.8992  -14.7190 O   0  0  0  0  0  0  0  0  0  0  0  0
   18.1939  -18.6930  -14.9675 O   0  0  0  0  0  0  0  0  0  0  0  0
  2  1  1  0
  3  4  1  0
  3  2  1  0
  4  5  1  0
  5  1  1  0
  5  6  1  6
  7  6  2  0
  8  6  1  0
  9 10  1  6
  9  8  1  0
 10 11  1  0
 11 19  1  0
 12 11  2  0
 12 13  1  0
 13 14  1  0
 14 15  2  0
 15 16  1  0
 17 16  2  0
 18 17  1  0
 19 18  2  0
 19 14  1  0
 20 21  2  0
 20  9  1  0
 22 23  1  0
 23 24  2  0
 25 26  1  0
 25 23  1  0
 27 26  1  1
 27 28  1  0
 28 20  1  0
 29 27  1  0
 29 31  1  0
 30 29  2  0
M  END
$$$$
