PWQ.pdb
     RDKit          3D

 31 33  0  0  1  0  0  0  0  0999 V2000
   27.6232  -19.0455  -15.4530 N   0  0  0  0  0  0  0  0  0  0  0  0
   28.8964  -18.4098  -15.6005 C   0  0  0  0  0  0  0  0  0  0  0  0
   29.5896  -19.2363  -16.6548 C   0  0  0  0  0  0  0  0  0  0  0  0
   29.1681  -20.6539  -16.2460 C   0  0  0  0  0  0  0  0  0  0  0  0
   27.7404  -20.4200  -15.8613 C   0  0  1  0  0  0  0  0  0  0  0  0
   27.2645  -21.2844  -14.7560 C   0  0  0  0  0  0  0  0  0  0  0  0
   27.1446  -22.5315  -14.8649 O   0  0  0  0  0  0  0  0  0  0  0  0
   26.9337  -20.6630  -13.5266 N   0  0  0  0  0  0  0  0  0  0  0  0
   26.3883  -21.4577  -12.4102 C   0  0  1  0  0  0  0  0  0  0  0  0
   27.4086  -21.4742  -11.2911 C   0  0  0  0  0  0  0  0  0  0  0  0
   26.9327  -20.9096  -10.0388 C   0  0  0  0  0  0  0  0  0  0  0  0
   25.6225  -20.5009   -9.7442 C   0  0  0  0  0  0  0  0  0  0  0  0
   25.5814  -20.0163   -8.4994 N   0  0  0  0  0  0  0  0  0  0  0  0
   26.7972  -20.0735   -7.9294 C   0  0  0  0  0  0  0  0  0  0  0  0
   27.3082  -19.7156   -6.6890 C   0  0  0  0  0  0  0  0  0  0  0  0
   28.6227  -19.8843   -6.3522 C   0  0  0  0  0  0  0  0  0  0  0  0
   29.4807  -20.4386   -7.2960 C   0  0  0  0  0  0  0  0  0  0  0  0
   28.9614  -20.7929   -8.5316 C   0  0  0  0  0  0  0  0  0  0  0  0
   27.6492  -20.6287   -8.8790 C   0  0  0  0  0  0  0  0  0  0  0  0
   25.1129  -20.8193  -12.0237 C   0  0  0  0  0  0  0  0  0  0  0  0
   25.0811  -19.5879  -11.6719 O   0  0  0  0  0  0  0  0  0  0  0  0
   19.9460  -20.5328  -14.7787 N   0  0  0  0  0  0  0  0  0  0  0  0
   21.1488  -21.1468  -15.2549 C   0  0  0  0  0  0  0  0  0  0  0  0
   21.0436  -21.7815  -16.3577 O   0  0  0  0  0  0  0  0  0  0  0  0
   22.4295  -21.0528  -14.5317 C   0  0  0  0  0  0  0  0  0  0  0  0
   22.3231  -20.1576  -13.3509 C   0  0  0  0  0  0  0  0  0  0  0  0
   22.5805  -20.7142  -12.0083 C   0  0  2  0  0  0  0  0  0  0  0  0
   23.8479  -21.4702  -12.0045 N   0  0  0  0  0  0  0  0  0  0  0  0
   21.5208  -21.4064  -11.3159 C   0  0  0  0  0  0  0  0  0  0  0  0
   21.5521  -22.6062  -10.9731 O   0  0  0  0  0  0  0  0  0  0  0  0
   20.3416  -20.7220  -10.9790 O   0  0  0  0  0  0  0  0  0  0  0  0
  2  1  1  0
  3  4  1  0
  3  2  1  0
  4  5  1  0
  5  1  1  0
  5  6  1  1
  7  6  2  0
  8  6  1  0
  9 10  1  1
  9  8  1  0
 10 11  1  0
 11 19  1  0
 12 11  2  0
 12 13  1  0
 13 14  1  0
 14 15  2  0
 15 16  1  0
 17 16  2  0
 18 17  1  0
 19 18  2  0
 19 14  1  0
 20 21  2  0
 20  9  1  0
 22 23  1  0
 23 24  2  0
 25 26  1  0
 25 23  1  0
 27 26  1  6
 27 28  1  0
 28 20  1  0
 29 27  1  0
 29 31  1  0
 30 29  2  0
M  END
$$$$
