PWQ.pdb
     RDKit          3D

 31 33  0  0  1  0  0  0  0  0999 V2000
   27.2574  -20.0815  -16.2512 N   0  0  0  0  0  0  0  0  0  0  0  0
   27.1301  -18.6859  -16.5394 C   0  0  0  0  0  0  0  0  0  0  0  0
   28.4790  -18.1197  -16.1719 C   0  0  0  0  0  0  0  0  0  0  0  0
   28.7891  -18.8996  -14.8874 C   0  0  0  0  0  0  0  0  0  0  0  0
   28.2828  -20.2589  -15.2579 C   0  0  1  0  0  0  0  0  0  0  0  0
   27.7143  -21.0208  -14.1214 C   0  0  0  0  0  0  0  0  0  0  0  0
   28.3504  -21.9183  -13.5120 O   0  0  0  0  0  0  0  0  0  0  0  0
   26.3929  -20.7124  -13.7142 N   0  0  0  0  0  0  0  0  0  0  0  0
   25.9242  -21.0710  -12.3624 C   0  0  1  0  0  0  0  0  0  0  0  0
   26.8384  -20.4145  -11.3491 C   0  0  0  0  0  0  0  0  0  0  0  0
   26.3110  -20.3900   -9.9946 C   0  0  0  0  0  0  0  0  0  0  0  0
   25.0063  -20.7175   -9.5936 C   0  0  0  0  0  0  0  0  0  0  0  0
   24.8972  -20.5534   -8.2717 N   0  0  0  0  0  0  0  0  0  0  0  0
   26.0615  -20.1306   -7.7502 C   0  0  0  0  0  0  0  0  0  0  0  0
   26.4956  -19.8119   -6.4704 C   0  0  0  0  0  0  0  0  0  0  0  0
   27.7699  -19.3943   -6.2027 C   0  0  0  0  0  0  0  0  0  0  0  0
   28.6658  -19.2858   -7.2609 C   0  0  0  0  0  0  0  0  0  0  0  0
   28.2232  -19.6062   -8.5350 C   0  0  0  0  0  0  0  0  0  0  0  0
   26.9517  -20.0247   -8.8141 C   0  0  0  0  0  0  0  0  0  0  0  0
   24.5240  -20.6084  -12.2667 C   0  0  0  0  0  0  0  0  0  0  0  0
   24.1881  -19.4532  -12.7070 O   0  0  0  0  0  0  0  0  0  0  0  0
   18.9379  -23.4462   -9.7708 N   0  0  0  0  0  0  0  0  0  0  0  0
   18.9906  -23.1954  -11.1796 C   0  0  0  0  0  0  0  0  0  0  0  0
   18.3693  -24.0363  -11.9122 O   0  0  0  0  0  0  0  0  0  0  0  0
   19.7057  -22.0425  -11.7555 C   0  0  0  0  0  0  0  0  0  0  0  0
   21.1651  -22.1186  -11.4881 C   0  0  0  0  0  0  0  0  0  0  0  0
   22.0419  -21.0502  -12.0060 C   0  0  2  0  0  0  0  0  0  0  0  0
   23.4534  -21.3593  -11.7063 N   0  0  0  0  0  0  0  0  0  0  0  0
   21.7083  -19.6720  -11.7399 C   0  0  0  0  0  0  0  0  0  0  0  0
   21.9400  -19.0717  -10.6703 O   0  0  0  0  0  0  0  0  0  0  0  0
   21.0723  -18.9029  -12.7281 O   0  0  0  0  0  0  0  0  0  0  0  0
  2  1  1  0
  3  4  1  0
  3  2  1  0
  4  5  1  0
  5  1  1  0
  5  6  1  1
  7  6  2  0
  8  6  1  0
  9 10  1  1
  9  8  1  0
 10 11  1  0
 11 19  1  0
 12 11  2  0
 12 13  1  0
 13 14  1  0
 14 15  2  0
 15 16  1  0
 17 16  2  0
 18 17  1  0
 19 18  2  0
 19 14  1  0
 20 21  2  0
 20  9  1  0
 22 23  1  0
 23 24  2  0
 25 26  1  0
 25 23  1  0
 27 26  1  1
 27 28  1  0
 28 20  1  0
 29 27  1  0
 29 31  1  0
 30 29  2  0
M  END
$$$$
