RMM.pdb
     RDKit          3D

 28 27  0  0  1  0  0  0  0  0999 V2000
   23.1723  -17.8310  -18.4773 N   0  0  0  0  0  0  0  0  0  0  0  0
   22.4088  -19.0148  -18.3104 C   0  0  0  0  0  0  0  0  0  0  0  0
   21.5113  -19.3052  -19.1798 N   0  0  0  0  0  0  0  0  0  0  0  0
   22.6631  -19.8551  -17.1735 N   0  0  0  0  0  0  0  0  0  0  0  0
   22.8431  -19.3078  -15.8726 C   0  0  0  0  0  0  0  0  0  0  0  0
   24.1431  -18.6975  -15.5307 C   0  0  0  0  0  0  0  0  0  0  0  0
   24.9161  -19.3066  -14.4264 C   0  0  0  0  0  0  0  0  0  0  0  0
   24.1066  -19.6207  -13.2288 C   0  0  2  0  0  0  0  0  0  0  0  0
   23.4508  -18.4533  -12.6616 N   0  0  0  0  0  0  0  0  0  0  0  0
   24.9615  -20.2668  -12.1506 C   0  0  0  0  0  0  0  0  0  0  0  0
   25.6943  -21.2044  -12.4667 O   0  0  0  0  0  0  0  0  0  0  0  0
   20.9725  -20.1707  -19.0738 C   0  0  0  0  0  0  0  0  0  0  0  0
   27.9220  -17.4805   -7.0209 S   0  0  0  0  0  0  0  0  0  0  0  0
   28.7995  -18.9575   -7.6105 C   0  0  0  0  0  0  0  0  0  0  0  0
   27.5953  -20.2167   -8.1852 C   0  0  0  0  0  0  0  0  0  0  0  0
   26.6288  -19.5239   -9.0855 C   0  0  2  0  0  0  0  0  0  0  0  0
   25.5987  -20.3930   -9.6897 N   0  0  0  0  0  0  0  0  0  0  0  0
   24.9247  -19.8101  -10.8150 C   0  0  0  0  0  0  0  0  0  0  0  0
   24.6735  -21.0583   -8.7400 O   0  0  0  0  0  0  0  0  0  0  0  0
   23.5627  -20.5297   -8.5244 C   0  0  0  0  0  0  0  0  0  0  0  0
   28.4013  -20.4559   -4.8090 S   0  0  0  0  0  0  0  0  0  0  0  0
   26.9471  -20.4317   -3.7306 C   0  0  0  0  0  0  0  0  0  0  0  0
   25.6369  -21.3757   -4.4840 C   0  0  0  0  0  0  0  0  0  0  0  0
   25.7201  -21.6272   -5.9310 C   0  0  1  0  0  0  0  0  0  0  0  0
   24.6460  -22.3890   -6.6094 N   0  0  0  0  0  0  0  0  0  0  0  0
   24.9605  -22.2453   -8.0637 C   0  0  0  0  0  0  0  0  0  0  0  0
   23.2655  -21.9937   -6.3722 O   0  0  0  0  0  0  0  0  0  0  0  0
   22.3223  -22.7393   -5.7099 O   0  0  0  0  0  0  0  0  0  0  0  0
  2  1  1  0
  3  2  2  0
  4  2  1  0
  5  4  1  0
  6  5  1  0
  7  6  1  0
  7  8  1  0
  8  9  1  1
 10  8  1  0
 10 17  1  0
 11 10  2  0
 12 13  1  0
 13 14  1  0
 16 15  1  6
 15 14  1  0
 16 17  1  0
 18 16  1  0
 19 18  2  0
 21 20  1  0
 21 22  1  0
 22 23  1  0
 24 23  1  1
 24 25  1  0
 24 26  1  0
 25 18  1  0
 26 27  1  0
 28 26  2  0
M  END
$$$$
