RMM.pdb
     RDKit          3D

 28 27  0  0  1  0  0  0  0  0999 V2000
   16.0359  -23.3847   -2.4885 N   0  0  0  0  0  0  0  0  0  0  0  0
   14.9802  -24.1363   -1.9116 C   0  0  0  0  0  0  0  0  0  0  0  0
   15.1672  -25.3797   -1.6573 N   0  0  0  0  0  0  0  0  0  0  0  0
   13.7326  -23.4837   -1.6275 N   0  0  0  0  0  0  0  0  0  0  0  0
   13.6898  -22.2046   -1.0059 C   0  0  0  0  0  0  0  0  0  0  0  0
   14.7385  -21.8528   -0.0282 C   0  0  0  0  0  0  0  0  0  0  0  0
   14.6050  -20.5638    0.6850 C   0  0  0  0  0  0  0  0  0  0  0  0
   13.4466  -20.5026    1.6028 C   0  0  2  0  0  0  0  0  0  0  0  0
   12.2387  -20.0049    0.9642 N   0  0  0  0  0  0  0  0  0  0  0  0
   13.7537  -19.6261    2.8062 C   0  0  0  0  0  0  0  0  0  0  0  0
   13.6611  -18.4047    2.6809 O   0  0  0  0  0  0  0  0  0  0  0  0
   14.3965  -25.9334   -1.2700 C   0  0  0  0  0  0  0  0  0  0  0  0
   10.8044  -20.9894    9.0646 S   0  0  0  0  0  0  0  0  0  0  0  0
   12.5058  -21.1149    8.4407 C   0  0  0  0  0  0  0  0  0  0  0  0
   12.7405  -19.9765    7.0212 C   0  0  0  0  0  0  0  0  0  0  0  0
   14.1131  -20.2138    6.4880 C   0  0  2  0  0  0  0  0  0  0  0  0
   14.4432  -19.4765    5.2516 N   0  0  0  0  0  0  0  0  0  0  0  0
   14.1364  -20.1884    4.0435 C   0  0  0  0  0  0  0  0  0  0  0  0
   15.7770  -18.8279    5.2200 O   0  0  0  0  0  0  0  0  0  0  0  0
   16.4922  -18.9898    4.2091 C   0  0  0  0  0  0  0  0  0  0  0  0
   18.9384  -13.1183    2.6735 S   0  0  0  0  0  0  0  0  0  0  0  0
   17.6172  -14.3019    3.0366 C   0  0  0  0  0  0  0  0  0  0  0  0
   18.0399  -15.2293    4.4984 C   0  0  0  0  0  0  0  0  0  0  0  0
   17.1477  -16.3310    4.8910 C   0  0  1  0  0  0  0  0  0  0  0  0
   17.5106  -17.2018    6.0330 N   0  0  0  0  0  0  0  0  0  0  0  0
   16.2937  -18.0419    6.2515 C   0  0  0  0  0  0  0  0  0  0  0  0
   17.8932  -16.5700    7.2870 O   0  0  0  0  0  0  0  0  0  0  0  0
   19.1690  -16.2134    7.6468 O   0  0  0  0  0  0  0  0  0  0  0  0
  2  1  1  0
  3  2  2  0
  4  2  1  0
  5  4  1  0
  6  5  1  0
  7  6  1  0
  7  8  1  0
  8  9  1  6
 10  8  1  0
 10 17  1  0
 11 10  2  0
 12 13  1  0
 13 14  1  0
 16 15  1  6
 15 14  1  0
 16 17  1  0
 18 16  1  0
 19 18  2  0
 21 20  1  0
 21 22  1  0
 22 23  1  0
 24 23  1  6
 24 25  1  0
 24 26  1  0
 25 18  1  0
 26 27  1  0
 28 26  2  0
M  END
$$$$
