RMM.pdb
     RDKit          3D

 28 27  0  0  1  0  0  0  0  0999 V2000
   23.1201  -22.8995  -19.8821 N   0  0  0  0  0  0  0  0  0  0  0  0
   23.0340  -22.4339  -18.5450 C   0  0  0  0  0  0  0  0  0  0  0  0
   22.0755  -22.8500  -17.8008 N   0  0  0  0  0  0  0  0  0  0  0  0
   24.0229  -21.5108  -18.0621 N   0  0  0  0  0  0  0  0  0  0  0  0
   25.1023  -21.0834  -18.8845 C   0  0  0  0  0  0  0  0  0  0  0  0
   26.1966  -22.0316  -19.1724 C   0  0  0  0  0  0  0  0  0  0  0  0
   27.4270  -21.9248  -18.3582 C   0  0  0  0  0  0  0  0  0  0  0  0
   27.3492  -22.6256  -17.0578 C   0  0  2  0  0  0  0  0  0  0  0  0
   25.9885  -22.9650  -16.6735 N   0  0  0  0  0  0  0  0  0  0  0  0
   27.9693  -21.7871  -15.9518 C   0  0  0  0  0  0  0  0  0  0  0  0
   28.9943  -21.1523  -16.2018 O   0  0  0  0  0  0  0  0  0  0  0  0
   21.9938  -22.4938  -16.8432 C   0  0  0  0  0  0  0  0  0  0  0  0
   25.4165  -17.4139  -16.1825 S   0  0  0  0  0  0  0  0  0  0  0  0
   26.2223  -16.7520  -14.6953 C   0  0  0  0  0  0  0  0  0  0  0  0
   26.8184  -18.1277  -13.6380 C   0  0  0  0  0  0  0  0  0  0  0  0
   26.9481  -19.3303  -14.5109 C   0  0  1  0  0  0  0  0  0  0  0  0
   27.3117  -20.5788  -13.8105 N   0  0  0  0  0  0  0  0  0  0  0  0
   27.3916  -21.7296  -14.6648 C   0  0  0  0  0  0  0  0  0  0  0  0
   26.5877  -20.8459  -12.5436 O   0  0  0  0  0  0  0  0  0  0  0  0
   25.4587  -21.3763  -12.6053 C   0  0  0  0  0  0  0  0  0  0  0  0
   29.2316  -19.8435   -6.5728 S   0  0  0  0  0  0  0  0  0  0  0  0
   27.4860  -19.4436   -6.3058 C   0  0  0  0  0  0  0  0  0  0  0  0
   26.5040  -20.2000   -7.5861 C   0  0  0  0  0  0  0  0  0  0  0  0
   27.0473  -20.2027   -8.9531 C   0  0  1  0  0  0  0  0  0  0  0  0
   26.2776  -20.8327  -10.0507 N   0  0  0  0  0  0  0  0  0  0  0  0
   27.0847  -20.5425  -11.2749 C   0  0  0  0  0  0  0  0  0  0  0  0
   24.9038  -20.4022  -10.2643 O   0  0  0  0  0  0  0  0  0  0  0  0
   23.7946  -20.9346   -9.6557 O   0  0  0  0  0  0  0  0  0  0  0  0
  2  1  1  0
  3  2  2  0
  4  2  1  0
  5  4  1  0
  6  5  1  0
  7  6  1  0
  7  8  1  0
  8  9  1  1
 10  8  1  0
 10 17  1  0
 11 10  2  0
 12 13  1  0
 13 14  1  0
 16 15  1  6
 15 14  1  0
 16 17  1  0
 18 16  1  0
 19 18  2  0
 21 20  1  0
 21 22  1  0
 22 23  1  0
 24 23  1  1
 24 25  1  0
 24 26  1  0
 25 18  1  0
 26 27  1  0
 28 26  2  0
M  END
$$$$
