RMM.pdb
     RDKit          3D

 28 27  0  0  1  0  0  0  0  0999 V2000
   24.7838  -16.9272  -16.9692 N   0  0  0  0  0  0  0  0  0  0  0  0
   25.7214  -16.2717  -17.8080 C   0  0  0  0  0  0  0  0  0  0  0  0
   25.3640  -15.9247  -18.9901 N   0  0  0  0  0  0  0  0  0  0  0  0
   27.0436  -16.0141  -17.3094 N   0  0  0  0  0  0  0  0  0  0  0  0
   27.3890  -16.2762  -15.9543 C   0  0  0  0  0  0  0  0  0  0  0  0
   27.8204  -17.6375  -15.5801 C   0  0  0  0  0  0  0  0  0  0  0  0
   26.7855  -18.5722  -15.0866 C   0  0  0  0  0  0  0  0  0  0  0  0
   27.3272  -19.8441  -14.5601 C   0  0  2  0  0  0  0  0  0  0  0  0
   27.9028  -20.6899  -15.5935 N   0  0  0  0  0  0  0  0  0  0  0  0
   26.2497  -20.6331  -13.8339 C   0  0  0  0  0  0  0  0  0  0  0  0
   25.7087  -21.5680  -14.4250 O   0  0  0  0  0  0  0  0  0  0  0  0
   26.0062  -15.3702  -19.5652 C   0  0  0  0  0  0  0  0  0  0  0  0
   25.9723  -19.5958   -7.6014 S   0  0  0  0  0  0  0  0  0  0  0  0
   26.5920  -21.2364   -8.0746 C   0  0  0  0  0  0  0  0  0  0  0  0
   26.4391  -21.4673   -9.8881 C   0  0  0  0  0  0  0  0  0  0  0  0
   25.0952  -20.9569  -10.2858 C   0  0  2  0  0  0  0  0  0  0  0  0
   24.8356  -20.9364  -11.7397 N   0  0  0  0  0  0  0  0  0  0  0  0
   25.8710  -20.3110  -12.5124 C   0  0  0  0  0  0  0  0  0  0  0  0
   23.4727  -20.5176  -12.1490 O   0  0  0  0  0  0  0  0  0  0  0  0
   23.2074  -19.2973  -12.1691 C   0  0  0  0  0  0  0  0  0  0  0  0
   20.6146  -23.8721  -16.3349 S   0  0  0  0  0  0  0  0  0  0  0  0
   21.1989  -22.2417  -16.8627 C   0  0  0  0  0  0  0  0  0  0  0  0
   21.4564  -21.2138  -15.4300 C   0  0  0  0  0  0  0  0  0  0  0  0
   20.8076  -21.6178  -14.1731 C   0  0  2  0  0  0  0  0  0  0  0  0
   21.1107  -20.8885  -12.9198 N   0  0  0  0  0  0  0  0  0  0  0  0
   22.4559  -21.4006  -12.5167 C   0  0  0  0  0  0  0  0  0  0  0  0
   20.1873  -21.0244  -11.8031 O   0  0  0  0  0  0  0  0  0  0  0  0
   18.9900  -20.3662  -11.6702 O   0  0  0  0  0  0  0  0  0  0  0  0
  2  1  1  0
  3  2  2  0
  4  2  1  0
  5  4  1  0
  6  5  1  0
  7  6  1  0
  7  8  1  0
  8  9  1  6
 10  8  1  0
 10 17  1  0
 11 10  2  0
 12 13  1  0
 13 14  1  0
 16 15  1  6
 15 14  1  0
 16 17  1  0
 18 16  1  0
 19 18  2  0
 21 20  1  0
 21 22  1  0
 22 23  1  0
 24 23  1  6
 24 25  1  0
 24 26  1  0
 25 18  1  0
 26 27  1  0
 28 26  2  0
M  END
$$$$
