RMM.pdb
     RDKit          3D

 28 27  0  0  1  0  0  0  0  0999 V2000
   14.9245  -12.1527  -19.1497 N   0  0  0  0  0  0  0  0  0  0  0  0
   14.8930  -11.1597  -18.1371 C   0  0  0  0  0  0  0  0  0  0  0  0
   13.8500  -11.0569  -17.3974 N   0  0  0  0  0  0  0  0  0  0  0  0
   16.0301  -10.2984  -17.9683 N   0  0  0  0  0  0  0  0  0  0  0  0
   17.2598  -10.5546  -18.6364 C   0  0  0  0  0  0  0  0  0  0  0  0
   18.3008  -11.3340  -17.9376 C   0  0  0  0  0  0  0  0  0  0  0  0
   19.5806  -11.5560  -18.6453 C   0  0  0  0  0  0  0  0  0  0  0  0
   20.5413  -12.3975  -17.8989 C   0  0  2  0  0  0  0  0  0  0  0  0
   19.9207  -13.5556  -17.2758 N   0  0  0  0  0  0  0  0  0  0  0  0
   21.2478  -11.5896  -16.8224 C   0  0  0  0  0  0  0  0  0  0  0  0
   20.6495  -11.3658  -15.7698 O   0  0  0  0  0  0  0  0  0  0  0  0
   13.8422  -10.3722  -16.6347 C   0  0  0  0  0  0  0  0  0  0  0  0
   27.1578  -12.1968  -14.8401 S   0  0  0  0  0  0  0  0  0  0  0  0
   27.2168  -10.3931  -15.0462 C   0  0  0  0  0  0  0  0  0  0  0  0
   25.5148   -9.7101  -15.0976 C   0  0  0  0  0  0  0  0  0  0  0  0
   24.7444  -10.5199  -16.0853 C   0  0  2  0  0  0  0  0  0  0  0  0
   23.2940  -10.2444  -16.1289 N   0  0  0  0  0  0  0  0  0  0  0  0
   22.5594  -11.1031  -17.0139 C   0  0  0  0  0  0  0  0  0  0  0  0
   22.9087   -8.8172  -16.2528 O   0  0  0  0  0  0  0  0  0  0  0  0
   22.9928   -8.2747  -17.3746 C   0  0  0  0  0  0  0  0  0  0  0  0
   17.8178   -3.7219  -17.1894 S   0  0  0  0  0  0  0  0  0  0  0  0
   18.4671   -5.4002  -16.9895 C   0  0  0  0  0  0  0  0  0  0  0  0
   20.0882   -5.3231  -16.2536 C   0  0  0  0  0  0  0  0  0  0  0  0
   20.7922   -6.5926  -16.0155 C   0  0  1  0  0  0  0  0  0  0  0  0
   22.1387   -6.5840  -15.3982 N   0  0  0  0  0  0  0  0  0  0  0  0
   22.4545   -8.0305  -15.1929 C   0  0  0  0  0  0  0  0  0  0  0  0
   22.3171   -5.8676  -14.1440 O   0  0  0  0  0  0  0  0  0  0  0  0
   22.5043   -4.5138  -14.0154 O   0  0  0  0  0  0  0  0  0  0  0  0
  2  1  1  0
  3  2  2  0
  4  2  1  0
  5  4  1  0
  6  5  1  0
  7  6  1  0
  7  8  1  0
  8  9  1  1
 10  8  1  0
 10 17  1  0
 11 10  2  0
 12 13  1  0
 13 14  1  0
 16 15  1  1
 15 14  1  0
 16 17  1  0
 18 16  1  0
 19 18  2  0
 21 20  1  0
 21 22  1  0
 22 23  1  0
 24 23  1  6
 24 25  1  0
 24 26  1  0
 25 18  1  0
 26 27  1  0
 28 26  2  0
M  END
$$$$
