RMM.pdb
     RDKit          3D

 28 27  0  0  1  0  0  0  0  0999 V2000
   17.3245  -23.3522  -15.6173 N   0  0  0  0  0  0  0  0  0  0  0  0
   18.0631  -24.5312  -15.8941 C   0  0  0  0  0  0  0  0  0  0  0  0
   17.5802  -25.3909  -16.7147 N   0  0  0  0  0  0  0  0  0  0  0  0
   19.3311  -24.7284  -15.2486 N   0  0  0  0  0  0  0  0  0  0  0  0
   19.7251  -23.9396  -14.1321 C   0  0  0  0  0  0  0  0  0  0  0  0
   19.8818  -22.4824  -14.3098 C   0  0  0  0  0  0  0  0  0  0  0  0
   21.1721  -21.8789  -13.9113 C   0  0  0  0  0  0  0  0  0  0  0  0
   21.2448  -21.5066  -12.4815 C   0  0  2  0  0  0  0  0  0  0  0  0
   20.0105  -20.9233  -11.9808 N   0  0  0  0  0  0  0  0  0  0  0  0
   22.3789  -20.5252  -12.2336 C   0  0  0  0  0  0  0  0  0  0  0  0
   22.2008  -19.6161  -11.4225 O   0  0  0  0  0  0  0  0  0  0  0  0
   18.1251  -26.2290  -16.9407 C   0  0  0  0  0  0  0  0  0  0  0  0
   27.4025  -20.0518   -7.8288 S   0  0  0  0  0  0  0  0  0  0  0  0
   25.8766  -20.4303   -8.7385 C   0  0  0  0  0  0  0  0  0  0  0  0
   26.2773  -21.2928  -10.3073 C   0  0  0  0  0  0  0  0  0  0  0  0
   25.0017  -21.4441  -11.0655 C   0  0  2  0  0  0  0  0  0  0  0  0
   24.9188  -20.6651  -12.3177 N   0  0  0  0  0  0  0  0  0  0  0  0
   23.6120  -20.6443  -12.9110 C   0  0  0  0  0  0  0  0  0  0  0  0
   26.0001  -20.9065  -13.3041 O   0  0  0  0  0  0  0  0  0  0  0  0
   26.1442  -22.0617  -13.7565 C   0  0  0  0  0  0  0  0  0  0  0  0
   29.3581  -16.0092  -16.7526 S   0  0  0  0  0  0  0  0  0  0  0  0
   27.9934  -15.8763  -15.5701 C   0  0  0  0  0  0  0  0  0  0  0  0
   27.1916  -17.4599  -15.4127 C   0  0  0  0  0  0  0  0  0  0  0  0
   28.0456  -18.6565  -15.3590 C   0  0  2  0  0  0  0  0  0  0  0  0
   27.4340  -19.9896  -15.1518 N   0  0  0  0  0  0  0  0  0  0  0  0
   26.8766  -19.9232  -13.7664 C   0  0  0  0  0  0  0  0  0  0  0  0
   28.2842  -21.1644  -15.2749 O   0  0  0  0  0  0  0  0  0  0  0  0
   28.5173  -21.8658  -16.4316 O   0  0  0  0  0  0  0  0  0  0  0  0
  2  1  1  0
  3  2  2  0
  4  2  1  0
  5  4  1  0
  6  5  1  0
  7  6  1  0
  7  8  1  0
  8  9  1  6
 10  8  1  0
 10 17  1  0
 11 10  2  0
 12 13  1  0
 13 14  1  0
 16 15  1  1
 15 14  1  0
 16 17  1  0
 18 16  1  0
 19 18  2  0
 21 20  1  0
 21 22  1  0
 22 23  1  0
 24 23  1  6
 24 25  1  0
 24 26  1  0
 25 18  1  0
 26 27  1  0
 28 26  2  0
M  END
$$$$
