RMM.pdb
     RDKit          3D

 28 27  0  0  1  0  0  0  0  0999 V2000
   24.4005  -21.5941  -17.1623 N   0  0  0  0  0  0  0  0  0  0  0  0
   25.2911  -21.5519  -18.2656 C   0  0  0  0  0  0  0  0  0  0  0  0
   25.1737  -22.4282  -19.1951 N   0  0  0  0  0  0  0  0  0  0  0  0
   26.2981  -20.5287  -18.3112 N   0  0  0  0  0  0  0  0  0  0  0  0
   26.4188  -19.5607  -17.2755 C   0  0  0  0  0  0  0  0  0  0  0  0
   27.5893  -19.6207  -16.3779 C   0  0  0  0  0  0  0  0  0  0  0  0
   27.3332  -19.7129  -14.9240 C   0  0  0  0  0  0  0  0  0  0  0  0
   27.9280  -20.9065  -14.2840 C   0  0  2  0  0  0  0  0  0  0  0  0
   28.2076  -21.9787  -15.2257 N   0  0  0  0  0  0  0  0  0  0  0  0
   27.0185  -21.4466  -13.1922 C   0  0  0  0  0  0  0  0  0  0  0  0
   26.1938  -22.3109  -13.4903 O   0  0  0  0  0  0  0  0  0  0  0  0
   25.8070  -22.3926  -20.0002 C   0  0  0  0  0  0  0  0  0  0  0  0
   28.0934  -19.8921   -7.1496 S   0  0  0  0  0  0  0  0  0  0  0  0
   26.3911  -20.4426   -6.8356 C   0  0  0  0  0  0  0  0  0  0  0  0
   25.5345  -20.7741   -8.4237 C   0  0  0  0  0  0  0  0  0  0  0  0
   26.5485  -20.6363   -9.5088 C   0  0  2  0  0  0  0  0  0  0  0  0
   26.1059  -21.0879  -10.8436 N   0  0  0  0  0  0  0  0  0  0  0  0
   27.1091  -20.9761  -11.8640 C   0  0  0  0  0  0  0  0  0  0  0  0
   24.7745  -20.6036  -11.2833 O   0  0  0  0  0  0  0  0  0  0  0  0
   24.6683  -19.4170  -11.6581 C   0  0  0  0  0  0  0  0  0  0  0  0
   18.5256  -21.1103  -15.3516 S   0  0  0  0  0  0  0  0  0  0  0  0
   20.2696  -21.4085  -14.9670 C   0  0  0  0  0  0  0  0  0  0  0  0
   20.4348  -21.7974  -13.2358 C   0  0  0  0  0  0  0  0  0  0  0  0
   21.7950  -21.9097  -12.6869 C   0  0  1  0  0  0  0  0  0  0  0  0
   22.3315  -20.8339  -11.8215 N   0  0  0  0  0  0  0  0  0  0  0  0
   23.6206  -21.3890  -11.3073 C   0  0  0  0  0  0  0  0  0  0  0  0
   21.5196  -20.3809  -10.7018 O   0  0  0  0  0  0  0  0  0  0  0  0
   20.5991  -19.3633  -10.7409 O   0  0  0  0  0  0  0  0  0  0  0  0
  2  1  1  0
  3  2  2  0
  4  2  1  0
  5  4  1  0
  6  5  1  0
  7  6  1  0
  7  8  1  0
  8  9  1  6
 10  8  1  0
 10 17  1  0
 11 10  2  0
 12 13  1  0
 13 14  1  0
 16 15  1  1
 15 14  1  0
 16 17  1  0
 18 16  1  0
 19 18  2  0
 21 20  1  0
 21 22  1  0
 22 23  1  0
 24 23  1  6
 24 25  1  0
 24 26  1  0
 25 18  1  0
 26 27  1  0
 28 26  2  0
M  END
$$$$
