RMM.pdb
     RDKit          3D

 28 27  0  0  1  0  0  0  0  0999 V2000
   18.6077  -23.5242   -6.8841 N   0  0  0  0  0  0  0  0  0  0  0  0
   18.3233  -23.4325   -8.2707 C   0  0  0  0  0  0  0  0  0  0  0  0
   17.1749  -23.8127   -8.6977 N   0  0  0  0  0  0  0  0  0  0  0  0
   19.3285  -22.9154   -9.1570 N   0  0  0  0  0  0  0  0  0  0  0  0
   20.6968  -22.8561   -8.7718 C   0  0  0  0  0  0  0  0  0  0  0  0
   21.2713  -21.5526   -8.3843 C   0  0  0  0  0  0  0  0  0  0  0  0
   22.2954  -20.9638   -9.2746 C   0  0  0  0  0  0  0  0  0  0  0  0
   23.6862  -21.2743   -8.8777 C   0  0  2  0  0  0  0  0  0  0  0  0
   23.9836  -20.9024   -7.5037 N   0  0  0  0  0  0  0  0  0  0  0  0
   24.6798  -20.5777   -9.7932 C   0  0  0  0  0  0  0  0  0  0  0  0
   24.8206  -19.3591   -9.6868 O   0  0  0  0  0  0  0  0  0  0  0  0
   17.0103  -23.8721   -9.7076 C   0  0  0  0  0  0  0  0  0  0  0  0
   31.0272  -21.2602  -11.5593 S   0  0  0  0  0  0  0  0  0  0  0  0
   30.0561  -21.9511  -10.1885 C   0  0  0  0  0  0  0  0  0  0  0  0
   28.3989  -21.1659  -10.1337 C   0  0  0  0  0  0  0  0  0  0  0  0
   27.7646  -21.3814  -11.4663 C   0  0  2  0  0  0  0  0  0  0  0  0
   26.4285  -20.7739  -11.6320 N   0  0  0  0  0  0  0  0  0  0  0  0
   25.4297  -21.3010  -10.7462 C   0  0  0  0  0  0  0  0  0  0  0  0
   25.9492  -20.6329  -13.0288 O   0  0  0  0  0  0  0  0  0  0  0  0
   25.2900  -21.5691  -13.5277 C   0  0  0  0  0  0  0  0  0  0  0  0
   23.9673  -15.1180  -14.8408 S   0  0  0  0  0  0  0  0  0  0  0  0
   23.9952  -15.7746  -16.5280 C   0  0  0  0  0  0  0  0  0  0  0  0
   24.4771  -17.4897  -16.4867 C   0  0  0  0  0  0  0  0  0  0  0  0
   25.1341  -17.9863  -15.2678 C   0  0  1  0  0  0  0  0  0  0  0  0
   25.5577  -19.4033  -15.1841 N   0  0  0  0  0  0  0  0  0  0  0  0
   26.1859  -19.5163  -13.8325 C   0  0  0  0  0  0  0  0  0  0  0  0
   26.4812  -19.9069  -16.1899 O   0  0  0  0  0  0  0  0  0  0  0  0
   26.1276  -20.4617  -17.3946 O   0  0  0  0  0  0  0  0  0  0  0  0
  2  1  1  0
  3  2  2  0
  4  2  1  0
  5  4  1  0
  6  5  1  0
  7  6  1  0
  7  8  1  0
  8  9  1  1
 10  8  1  0
 10 17  1  0
 11 10  2  0
 12 13  1  0
 13 14  1  0
 16 15  1  1
 15 14  1  0
 16 17  1  0
 18 16  1  0
 19 18  2  0
 21 20  1  0
 21 22  1  0
 22 23  1  0
 24 23  1  1
 24 25  1  0
 24 26  1  0
 25 18  1  0
 26 27  1  0
 28 26  2  0
M  END
$$$$
