RMM.pdb
     RDKit          3D

 28 27  0  0  1  0  0  0  0  0999 V2000
   23.4018  -22.8749  -17.4858 N   0  0  0  0  0  0  0  0  0  0  0  0
   24.3116  -21.9525  -16.9081 C   0  0  0  0  0  0  0  0  0  0  0  0
   24.1026  -20.6955  -17.0560 N   0  0  0  0  0  0  0  0  0  0  0  0
   25.4401  -22.4521  -16.1731 N   0  0  0  0  0  0  0  0  0  0  0  0
   25.7042  -23.8468  -16.0779 C   0  0  0  0  0  0  0  0  0  0  0  0
   25.4330  -24.5372  -14.8014 C   0  0  0  0  0  0  0  0  0  0  0  0
   24.0897  -25.1275  -14.6142 C   0  0  0  0  0  0  0  0  0  0  0  0
   24.0531  -26.5982  -14.7692 C   0  0  2  0  0  0  0  0  0  0  0  0
   24.3170  -27.0348  -16.1309 N   0  0  0  0  0  0  0  0  0  0  0  0
   22.7076  -27.1561  -14.3346 C   0  0  0  0  0  0  0  0  0  0  0  0
   21.8222  -27.2782  -15.1815 O   0  0  0  0  0  0  0  0  0  0  0  0
   24.7877  -20.0271  -16.6894 C   0  0  0  0  0  0  0  0  0  0  0  0
   18.8298  -32.3046  -10.0561 S   0  0  0  0  0  0  0  0  0  0  0  0
   20.3720  -31.4082  -10.3990 C   0  0  0  0  0  0  0  0  0  0  0  0
   20.0051  -29.8367  -11.2718 C   0  0  0  0  0  0  0  0  0  0  0  0
   21.2974  -29.3161  -11.8043 C   0  0  2  0  0  0  0  0  0  0  0  0
   21.2246  -27.9845  -12.4393 N   0  0  0  0  0  0  0  0  0  0  0  0
   22.4677  -27.5296  -12.9942 C   0  0  0  0  0  0  0  0  0  0  0  0
   20.5160  -26.9354  -11.6659 O   0  0  0  0  0  0  0  0  0  0  0  0
   21.1941  -26.1503  -10.9705 C   0  0  0  0  0  0  0  0  0  0  0  0
   18.1473  -24.2334   -5.7831 S   0  0  0  0  0  0  0  0  0  0  0  0
   18.5473  -25.5334   -6.9782 C   0  0  0  0  0  0  0  0  0  0  0  0
   19.1782  -24.7908   -8.4701 C   0  0  0  0  0  0  0  0  0  0  0  0
   19.4670  -25.6788   -9.6068 C   0  0  1  0  0  0  0  0  0  0  0  0
   18.4851  -25.8090  -10.7083 N   0  0  0  0  0  0  0  0  0  0  0  0
   19.1307  -26.7630  -11.6608 C   0  0  0  0  0  0  0  0  0  0  0  0
   18.0890  -24.6052  -11.4240 O   0  0  0  0  0  0  0  0  0  0  0  0
   17.0615  -23.7660  -11.0711 O   0  0  0  0  0  0  0  0  0  0  0  0
  2  1  1  0
  3  2  2  0
  4  2  1  0
  5  4  1  0
  6  5  1  0
  7  6  1  0
  7  8  1  0
  8  9  1  6
 10  8  1  0
 10 17  1  0
 11 10  2  0
 12 13  1  0
 13 14  1  0
 16 15  1  6
 15 14  1  0
 16 17  1  0
 18 16  1  0
 19 18  2  0
 21 20  1  0
 21 22  1  0
 22 23  1  0
 24 23  1  1
 24 25  1  0
 24 26  1  0
 25 18  1  0
 26 27  1  0
 28 26  2  0
M  END
$$$$
