RMM.pdb
     RDKit          3D

 28 27  0  0  1  0  0  0  0  0999 V2000
   30.0428  -25.9091  -17.1307 N   0  0  0  0  0  0  0  0  0  0  0  0
   28.7553  -26.3101  -16.6905 C   0  0  0  0  0  0  0  0  0  0  0  0
   28.6204  -27.4479  -16.1136 N   0  0  0  0  0  0  0  0  0  0  0  0
   27.6397  -25.4304  -16.9022 N   0  0  0  0  0  0  0  0  0  0  0  0
   27.7969  -24.1791  -17.5609 C   0  0  0  0  0  0  0  0  0  0  0  0
   28.4572  -23.0731  -16.8398 C   0  0  0  0  0  0  0  0  0  0  0  0
   28.0065  -22.7899  -15.4596 C   0  0  0  0  0  0  0  0  0  0  0  0
   27.1853  -21.5658  -15.3354 C   0  0  2  0  0  0  0  0  0  0  0  0
   27.9477  -20.4106  -14.8894 N   0  0  0  0  0  0  0  0  0  0  0  0
   26.0294  -21.7836  -14.3726 C   0  0  0  0  0  0  0  0  0  0  0  0
   25.2094  -22.6652  -14.6305 O   0  0  0  0  0  0  0  0  0  0  0  0
   27.7093  -27.7058  -15.7211 C   0  0  0  0  0  0  0  0  0  0  0  0
   25.3926  -19.4642   -8.1754 S   0  0  0  0  0  0  0  0  0  0  0  0
   26.7923  -20.5126   -8.6665 C   0  0  0  0  0  0  0  0  0  0  0  0
   26.4246  -21.3471  -10.2584 C   0  0  0  0  0  0  0  0  0  0  0  0
   25.2648  -20.6370  -10.8709 C   0  0  2  0  0  0  0  0  0  0  0  0
   24.8659  -21.1217  -12.2079 N   0  0  0  0  0  0  0  0  0  0  0  0
   25.8898  -20.9998  -13.2064 C   0  0  0  0  0  0  0  0  0  0  0  0
   23.5331  -20.6799  -12.6865 O   0  0  0  0  0  0  0  0  0  0  0  0
   23.4445  -19.5731  -13.2584 C   0  0  0  0  0  0  0  0  0  0  0  0
   18.6896  -24.3559  -15.1720 S   0  0  0  0  0  0  0  0  0  0  0  0
   17.8473  -23.3785  -13.9017 C   0  0  0  0  0  0  0  0  0  0  0  0
   18.7885  -21.9017  -13.5716 C   0  0  0  0  0  0  0  0  0  0  0  0
   20.2171  -22.0573  -13.2573 C   0  0  1  0  0  0  0  0  0  0  0  0
   21.0444  -20.8610  -12.9768 N   0  0  0  0  0  0  0  0  0  0  0  0
   22.3596  -21.4218  -12.5408 C   0  0  0  0  0  0  0  0  0  0  0  0
   20.5691  -19.9128  -11.9802 O   0  0  0  0  0  0  0  0  0  0  0  0
   19.8389  -18.7794  -12.2381 O   0  0  0  0  0  0  0  0  0  0  0  0
  2  1  1  0
  3  2  2  0
  4  2  1  0
  5  4  1  0
  6  5  1  0
  7  6  1  0
  7  8  1  0
  8  9  1  1
 10  8  1  0
 10 17  1  0
 11 10  2  0
 12 13  1  0
 13 14  1  0
 16 15  1  1
 15 14  1  0
 16 17  1  0
 18 16  1  0
 19 18  2  0
 21 20  1  0
 21 22  1  0
 22 23  1  0
 24 23  1  6
 24 25  1  0
 24 26  1  0
 25 18  1  0
 26 27  1  0
 28 26  2  0
M  END
$$$$
