RMM.pdb
     RDKit          3D

 28 27  0  0  1  0  0  0  0  0999 V2000
   29.7216  -18.9070  -18.0106 N   0  0  0  0  0  0  0  0  0  0  0  0
   29.4279  -18.5772  -19.3587 C   0  0  0  0  0  0  0  0  0  0  0  0
   30.3491  -18.0645  -20.0896 N   0  0  0  0  0  0  0  0  0  0  0  0
   28.1081  -18.8278  -19.8672 N   0  0  0  0  0  0  0  0  0  0  0  0
   27.0327  -17.9322  -19.6113 C   0  0  0  0  0  0  0  0  0  0  0  0
   26.1990  -18.1451  -18.4116 C   0  0  0  0  0  0  0  0  0  0  0  0
   26.2119  -19.4915  -17.7992 C   0  0  0  0  0  0  0  0  0  0  0  0
   25.3306  -19.6224  -16.6183 C   0  0  2  0  0  0  0  0  0  0  0  0
   25.0057  -18.3446  -16.0049 N   0  0  0  0  0  0  0  0  0  0  0  0
   25.9640  -20.5172  -15.5653 C   0  0  0  0  0  0  0  0  0  0  0  0
   26.1453  -21.7044  -15.8367 O   0  0  0  0  0  0  0  0  0  0  0  0
   30.1571  -17.8757  -21.0785 C   0  0  0  0  0  0  0  0  0  0  0  0
   31.1799  -20.9599  -13.4471 S   0  0  0  0  0  0  0  0  0  0  0  0
   30.5975  -21.2368  -11.7490 C   0  0  0  0  0  0  0  0  0  0  0  0
   28.7669  -21.3569  -11.7239 C   0  0  0  0  0  0  0  0  0  0  0  0
   28.2605  -20.6222  -12.9190 C   0  0  1  0  0  0  0  0  0  0  0  0
   26.8138  -20.7671  -13.1793 N   0  0  0  0  0  0  0  0  0  0  0  0
   26.3403  -20.0094  -14.3027 C   0  0  0  0  0  0  0  0  0  0  0  0
   25.9282  -20.6621  -11.9938 O   0  0  0  0  0  0  0  0  0  0  0  0
   25.3430  -19.5789  -11.7839 C   0  0  0  0  0  0  0  0  0  0  0  0
   27.8344  -19.7682   -7.0081 S   0  0  0  0  0  0  0  0  0  0  0  0
   26.1182  -19.4967   -6.4990 C   0  0  0  0  0  0  0  0  0  0  0  0
   25.0223  -20.1656   -7.7347 C   0  0  0  0  0  0  0  0  0  0  0  0
   25.6228  -20.6777   -8.9762 C   0  0  1  0  0  0  0  0  0  0  0  0
   24.8097  -21.4965   -9.9050 N   0  0  0  0  0  0  0  0  0  0  0  0
   25.7012  -21.6993  -11.0875 C   0  0  0  0  0  0  0  0  0  0  0  0
   23.5294  -20.9665  -10.3502 O   0  0  0  0  0  0  0  0  0  0  0  0
   22.2951  -21.4392   -9.9795 O   0  0  0  0  0  0  0  0  0  0  0  0
  2  1  1  0
  3  2  2  0
  4  2  1  0
  5  4  1  0
  6  5  1  0
  7  6  1  0
  7  8  1  0
  8  9  1  1
 10  8  1  0
 10 17  1  0
 11 10  2  0
 12 13  1  0
 13 14  1  0
 16 15  1  6
 15 14  1  0
 16 17  1  0
 18 16  1  0
 19 18  2  0
 21 20  1  0
 21 22  1  0
 22 23  1  0
 24 23  1  1
 24 25  1  0
 24 26  1  0
 25 18  1  0
 26 27  1  0
 28 26  2  0
M  END
$$$$
