RMM.pdb
     RDKit          3D

 28 27  0  0  1  0  0  0  0  0999 V2000
   27.5314  -21.2136  -10.6055 N   0  0  0  0  0  0  0  0  0  0  0  0
   26.1510  -21.3633  -10.3148 C   0  0  0  0  0  0  0  0  0  0  0  0
   25.7383  -21.1429   -9.1204 N   0  0  0  0  0  0  0  0  0  0  0  0
   25.2548  -21.7562  -11.3663 N   0  0  0  0  0  0  0  0  0  0  0  0
   25.6936  -22.5664  -12.4503 C   0  0  0  0  0  0  0  0  0  0  0  0
   24.7351  -22.9019  -13.5218 C   0  0  0  0  0  0  0  0  0  0  0  0
   24.0288  -21.7834  -14.1836 C   0  0  0  0  0  0  0  0  0  0  0  0
   24.8895  -20.9707  -15.0708 C   0  0  2  0  0  0  0  0  0  0  0  0
   26.2718  -21.4217  -15.0934 N   0  0  0  0  0  0  0  0  0  0  0  0
   24.8649  -19.5077  -14.6589 C   0  0  0  0  0  0  0  0  0  0  0  0
   25.1555  -19.2205  -13.4974 O   0  0  0  0  0  0  0  0  0  0  0  0
   24.7345  -21.1936   -8.9197 C   0  0  0  0  0  0  0  0  0  0  0  0
   28.0057  -14.9935  -17.2772 S   0  0  0  0  0  0  0  0  0  0  0  0
   27.4510  -14.3074  -15.6894 C   0  0  0  0  0  0  0  0  0  0  0  0
   25.7729  -14.9302  -15.2872 C   0  0  0  0  0  0  0  0  0  0  0  0
   25.7924  -16.4086  -15.4842 C   0  0  1  0  0  0  0  0  0  0  0  0
   24.4868  -17.0809  -15.3262 N   0  0  0  0  0  0  0  0  0  0  0  0
   24.5191  -18.4935  -15.5785 C   0  0  0  0  0  0  0  0  0  0  0  0
   23.3285  -16.4047  -15.9602 O   0  0  0  0  0  0  0  0  0  0  0  0
   23.1583  -16.5459  -17.1894 C   0  0  0  0  0  0  0  0  0  0  0  0
   16.3901  -12.8987  -14.5893 S   0  0  0  0  0  0  0  0  0  0  0  0
   17.8946  -13.6470  -13.9148 C   0  0  0  0  0  0  0  0  0  0  0  0
   19.0661  -13.9086  -15.2319 C   0  0  0  0  0  0  0  0  0  0  0  0
   20.3132  -14.6179  -14.9069 C   0  0  1  0  0  0  0  0  0  0  0  0
   21.2538  -14.9886  -15.9896 N   0  0  0  0  0  0  0  0  0  0  0  0
   22.4067  -15.6136  -15.2723 C   0  0  0  0  0  0  0  0  0  0  0  0
   21.7437  -13.9359  -16.8670 O   0  0  0  0  0  0  0  0  0  0  0  0
   22.7868  -13.0866  -16.5929 O   0  0  0  0  0  0  0  0  0  0  0  0
  2  1  1  0
  3  2  2  0
  4  2  1  0
  5  4  1  0
  6  5  1  0
  7  6  1  0
  7  8  1  0
  8  9  1  1
 10  8  1  0
 10 17  1  0
 11 10  2  0
 12 13  1  0
 13 14  1  0
 16 15  1  1
 15 14  1  0
 16 17  1  0
 18 16  1  0
 19 18  2  0
 21 20  1  0
 21 22  1  0
 22 23  1  0
 24 23  1  6
 24 25  1  0
 24 26  1  0
 25 18  1  0
 26 27  1  0
 28 26  2  0
M  END
$$$$
