RMM.pdb
     RDKit          3D

 28 27  0  0  1  0  0  0  0  0999 V2000
   31.0420  -24.4619  -16.5713 N   0  0  0  0  0  0  0  0  0  0  0  0
   30.6610  -24.0730  -17.8813 C   0  0  0  0  0  0  0  0  0  0  0  0
   31.4896  -24.2391  -18.8464 N   0  0  0  0  0  0  0  0  0  0  0  0
   29.3580  -23.5055  -18.0899 N   0  0  0  0  0  0  0  0  0  0  0  0
   28.6483  -22.8701  -17.0331 C   0  0  0  0  0  0  0  0  0  0  0  0
   28.1072  -23.7004  -15.9389 C   0  0  0  0  0  0  0  0  0  0  0  0
   26.6458  -23.6675  -15.7129 C   0  0  0  0  0  0  0  0  0  0  0  0
   26.0918  -22.3041  -15.5636 C   0  0  2  0  0  0  0  0  0  0  0  0
   27.1096  -21.3018  -15.2913 N   0  0  0  0  0  0  0  0  0  0  0  0
   25.0574  -22.2577  -14.4507 C   0  0  0  0  0  0  0  0  0  0  0  0
   24.0945  -23.0225  -14.5128 O   0  0  0  0  0  0  0  0  0  0  0  0
   31.2442  -23.8990  -19.7816 C   0  0  0  0  0  0  0  0  0  0  0  0
   26.2191  -19.1529   -8.9431 S   0  0  0  0  0  0  0  0  0  0  0  0
   26.3575  -20.9578   -8.7934 C   0  0  0  0  0  0  0  0  0  0  0  0
   25.6433  -21.7684  -10.2762 C   0  0  0  0  0  0  0  0  0  0  0  0
   24.8834  -20.7262  -11.0254 C   0  0  2  0  0  0  0  0  0  0  0  0
   24.2617  -21.1850  -12.2841 N   0  0  0  0  0  0  0  0  0  0  0  0
   25.1881  -21.3633  -13.3660 C   0  0  0  0  0  0  0  0  0  0  0  0
   23.0235  -20.4767  -12.6913 O   0  0  0  0  0  0  0  0  0  0  0  0
   23.1175  -19.5412  -13.5134 C   0  0  0  0  0  0  0  0  0  0  0  0
   21.5998  -22.7327  -16.8070 S   0  0  0  0  0  0  0  0  0  0  0  0
   20.0635  -21.7825  -16.9291 C   0  0  0  0  0  0  0  0  0  0  0  0
   19.7178  -21.0136  -15.3591 C   0  0  0  0  0  0  0  0  0  0  0  0
   20.7678  -21.0585  -14.3297 C   0  0  1  0  0  0  0  0  0  0  0  0
   20.5319  -20.4315  -13.0086 N   0  0  0  0  0  0  0  0  0  0  0  0
   21.7481  -20.7856  -12.2150 C   0  0  0  0  0  0  0  0  0  0  0  0
   19.3411  -20.8167  -12.2658 O   0  0  0  0  0  0  0  0  0  0  0  0
   18.0827  -20.2992  -12.4470 O   0  0  0  0  0  0  0  0  0  0  0  0
  2  1  1  0
  3  2  2  0
  4  2  1  0
  5  4  1  0
  6  5  1  0
  7  6  1  0
  7  8  1  0
  8  9  1  1
 10  8  1  0
 10 17  1  0
 11 10  2  0
 12 13  1  0
 13 14  1  0
 16 15  1  1
 15 14  1  0
 16 17  1  0
 18 16  1  0
 19 18  2  0
 21 20  1  0
 21 22  1  0
 22 23  1  0
 24 23  1  6
 24 25  1  0
 24 26  1  0
 25 18  1  0
 26 27  1  0
 28 26  2  0
M  END
$$$$
