RMM.pdb
     RDKit          3D

 28 27  0  0  1  0  0  0  0  0999 V2000
   18.5254  -23.5197  -10.9318 N   0  0  0  0  0  0  0  0  0  0  0  0
   18.5603  -22.4137  -11.8195 C   0  0  0  0  0  0  0  0  0  0  0  0
   17.4570  -21.9527  -12.2841 N   0  0  0  0  0  0  0  0  0  0  0  0
   19.8295  -21.8410  -12.1718 N   0  0  0  0  0  0  0  0  0  0  0  0
   20.9833  -22.0416  -11.3639 C   0  0  0  0  0  0  0  0  0  0  0  0
   21.7246  -20.8619  -10.8759 C   0  0  0  0  0  0  0  0  0  0  0  0
   23.1511  -20.7469  -11.2499 C   0  0  0  0  0  0  0  0  0  0  0  0
   24.0870  -21.1666  -10.1839 C   0  0  2  0  0  0  0  0  0  0  0  0
   23.6658  -20.7457   -8.8572 N   0  0  0  0  0  0  0  0  0  0  0  0
   25.4830  -20.6236  -10.4431 C   0  0  0  0  0  0  0  0  0  0  0  0
   25.7916  -19.5392   -9.9482 O   0  0  0  0  0  0  0  0  0  0  0  0
   16.5811  -22.4409  -12.0720 C   0  0  0  0  0  0  0  0  0  0  0  0
   31.2121  -22.3926   -9.7926 S   0  0  0  0  0  0  0  0  0  0  0  0
   31.4728  -22.0194  -11.5511 C   0  0  0  0  0  0  0  0  0  0  0  0
   30.0622  -21.0440  -12.2027 C   0  0  0  0  0  0  0  0  0  0  0  0
   28.8327  -21.5326  -11.5138 C   0  0  1  0  0  0  0  0  0  0  0  0
   27.5910  -20.8102  -11.8570 N   0  0  0  0  0  0  0  0  0  0  0  0
   26.4122  -21.3378  -11.2305 C   0  0  0  0  0  0  0  0  0  0  0  0
   27.3959  -20.5035  -13.2952 O   0  0  0  0  0  0  0  0  0  0  0  0
   26.7967  -21.3388  -14.0045 C   0  0  0  0  0  0  0  0  0  0  0  0
   27.3647  -14.4885  -14.9892 S   0  0  0  0  0  0  0  0  0  0  0  0
   27.1628  -15.0970  -16.6825 C   0  0  0  0  0  0  0  0  0  0  0  0
   27.2263  -16.8779  -16.6820 C   0  0  0  0  0  0  0  0  0  0  0  0
   27.4538  -17.5537  -15.3954 C   0  0  1  0  0  0  0  0  0  0  0  0
   27.4603  -19.0336  -15.3314 N   0  0  0  0  0  0  0  0  0  0  0  0
   27.8397  -19.3353  -13.9174 C   0  0  0  0  0  0  0  0  0  0  0  0
   28.3428  -19.7584  -16.2337 O   0  0  0  0  0  0  0  0  0  0  0  0
   28.0061  -20.2224  -17.4809 O   0  0  0  0  0  0  0  0  0  0  0  0
  2  1  1  0
  3  2  2  0
  4  2  1  0
  5  4  1  0
  6  5  1  0
  7  6  1  0
  7  8  1  0
  8  9  1  1
 10  8  1  0
 10 17  1  0
 11 10  2  0
 12 13  1  0
 13 14  1  0
 16 15  1  1
 15 14  1  0
 16 17  1  0
 18 16  1  0
 19 18  2  0
 21 20  1  0
 21 22  1  0
 22 23  1  0
 24 23  1  1
 24 25  1  0
 24 26  1  0
 25 18  1  0
 26 27  1  0
 28 26  2  0
M  END
$$$$
