LYL.pdb
     RDKit          3D

 29 29  0  0  1  0  0  0  0  0999 V2000
   29.0686  -27.0053  -16.4429 C   0  0  0  0  0  0  0  0  0  0  0  0
   28.8547  -25.8012  -17.3288 C   0  0  2  0  0  0  0  0  0  0  0  0
   28.9742  -24.5096  -16.5638 C   0  0  0  0  0  0  0  0  0  0  0  0
   27.5474  -25.8291  -18.0558 C   0  0  0  0  0  0  0  0  0  0  0  0
   27.2713  -27.1017  -18.7870 C   0  0  2  0  0  0  0  0  0  0  0  0
   28.1220  -27.1670  -19.9643 N   0  0  0  0  0  0  0  0  0  0  0  0
   25.8337  -27.1305  -19.1596 C   0  0  0  0  0  0  0  0  0  0  0  0
   25.4604  -26.4685  -20.1621 O   0  0  0  0  0  0  0  0  0  0  0  0
   17.6418  -30.6303  -19.5408 O   0  0  0  0  0  0  0  0  0  0  0  0
   18.9868  -30.3422  -19.3125 C   0  0  0  0  0  0  0  0  0  0  0  0
   19.4796  -30.1607  -18.0381 C   0  0  0  0  0  0  0  0  0  0  0  0
   20.8113  -29.8760  -17.8189 C   0  0  0  0  0  0  0  0  0  0  0  0
   21.7198  -29.7574  -18.8540 C   0  0  0  0  0  0  0  0  0  0  0  0
   23.1373  -29.4470  -18.5724 C   0  0  0  0  0  0  0  0  0  0  0  0
   23.5071  -27.9992  -18.7361 C   0  0  2  0  0  0  0  0  0  0  0  0
   24.9102  -27.8894  -18.3973 N   0  0  0  0  0  0  0  0  0  0  0  0
   22.7348  -27.0963  -17.8437 C   0  0  0  0  0  0  0  0  0  0  0  0
   22.9473  -27.1257  -16.6113 O   0  0  0  0  0  0  0  0  0  0  0  0
   21.2263  -29.9389  -20.1297 C   0  0  0  0  0  0  0  0  0  0  0  0
   19.8816  -30.2268  -20.3555 C   0  0  0  0  0  0  0  0  0  0  0  0
   19.0998  -22.3838  -18.4497 C   0  0  0  0  0  0  0  0  0  0  0  0
   19.7163  -23.6652  -18.8689 C   0  0  1  0  0  0  0  0  0  0  0  0
   19.8652  -23.7562  -20.3884 C   0  0  0  0  0  0  0  0  0  0  0  0
   20.9636  -24.0166  -18.1885 C   0  0  0  0  0  0  0  0  0  0  0  0
   21.1028  -25.2694  -17.4114 C   0  0  2  0  0  0  0  0  0  0  0  0
   21.7721  -26.2114  -18.3540 N   0  0  0  0  0  0  0  0  0  0  0  0
   19.9011  -25.9769  -16.9869 C   0  0  0  0  0  0  0  0  0  0  0  0
   19.2861  -26.9236  -17.7752 O   0  0  0  0  0  0  0  0  0  0  0  0
   19.3309  -25.7648  -15.8605 O   0  0  0  0  0  0  0  0  0  0  0  0
  2  1  1  1
  2  4  1  0
  3  2  1  0
  5  4  1  0
  5  6  1  6
  7  5  1  0
  7  8  2  0
  9 10  1  0
 10 20  2  0
 10 11  1  0
 11 12  2  0
 12 13  1  0
 13 14  1  0
 15 14  1  1
 15 16  1  0
 15 17  1  0
 16  7  1  0
 17 18  2  0
 19 13  2  0
 20 19  1  0
 22 21  1  6
 22 24  1  0
 23 22  1  0
 25 24  1  6
 25 27  1  0
 26 17  1  0
 26 25  1  0
 27 29  2  0
 27 28  1  0
M  END
$$$$
