LYL.pdb
     RDKit          3D

 29 29  0  0  1  0  0  0  0  0999 V2000
   30.3311  -19.4997  -21.8386 C   0  0  0  0  0  0  0  0  0  0  0  0
   29.9622  -18.7400  -23.0905 C   0  0  2  0  0  0  0  0  0  0  0  0
   31.1774  -18.2332  -23.8213 C   0  0  0  0  0  0  0  0  0  0  0  0
   29.0254  -17.6019  -22.8347 C   0  0  0  0  0  0  0  0  0  0  0  0
   27.7690  -17.9808  -22.1221 C   0  0  2  0  0  0  0  0  0  0  0  0
   27.0331  -18.9374  -22.9329 N   0  0  0  0  0  0  0  0  0  0  0  0
   26.9710  -16.7508  -21.8842 C   0  0  0  0  0  0  0  0  0  0  0  0
   27.4464  -15.6463  -22.2542 O   0  0  0  0  0  0  0  0  0  0  0  0
   19.2977  -12.3289  -20.9704 O   0  0  0  0  0  0  0  0  0  0  0  0
   20.3520  -13.2108  -21.2047 C   0  0  0  0  0  0  0  0  0  0  0  0
   20.5104  -14.3601  -20.4605 C   0  0  0  0  0  0  0  0  0  0  0  0
   21.5556  -15.2284  -20.6974 C   0  0  0  0  0  0  0  0  0  0  0  0
   22.4953  -14.9989  -21.6848 C   0  0  0  0  0  0  0  0  0  0  0  0
   23.6015  -15.9553  -21.9006 C   0  0  0  0  0  0  0  0  0  0  0  0
   24.8337  -15.6843  -21.0833 C   0  0  2  0  0  0  0  0  0  0  0  0
   25.7036  -16.8287  -21.2538 N   0  0  0  0  0  0  0  0  0  0  0  0
   24.5474  -15.5217  -19.6343 C   0  0  0  0  0  0  0  0  0  0  0  0
   24.3183  -16.5356  -18.9384 O   0  0  0  0  0  0  0  0  0  0  0  0
   22.3367  -13.8483  -22.4296 C   0  0  0  0  0  0  0  0  0  0  0  0
   21.2822  -12.9684  -22.1937 C   0  0  0  0  0  0  0  0  0  0  0  0
   25.1508  -14.6471  -14.6241 C   0  0  0  0  0  0  0  0  0  0  0  0
   25.5386  -13.5104  -15.4933 C   0  0  1  0  0  0  0  0  0  0  0  0
   26.9026  -12.9364  -15.1065 C   0  0  0  0  0  0  0  0  0  0  0  0
   25.4537  -13.7605  -16.9329 C   0  0  0  0  0  0  0  0  0  0  0  0
   24.1852  -14.1641  -17.5816 C   0  0  2  0  0  0  0  0  0  0  0  0
   24.5285  -14.2550  -19.0299 N   0  0  0  0  0  0  0  0  0  0  0  0
   23.0465  -13.2553  -17.5371 C   0  0  0  0  0  0  0  0  0  0  0  0
   22.0283  -13.3940  -16.6206 O   0  0  0  0  0  0  0  0  0  0  0  0
   22.9088  -12.2731  -18.3467 O   0  0  0  0  0  0  0  0  0  0  0  0
  2  1  1  1
  2  4  1  0
  3  2  1  0
  5  4  1  0
  5  6  1  6
  7  5  1  0
  7  8  2  0
  9 10  1  0
 10 20  2  0
 10 11  1  0
 11 12  2  0
 12 13  1  0
 13 14  1  0
 15 14  1  6
 15 16  1  0
 15 17  1  0
 16  7  1  0
 17 18  2  0
 19 13  2  0
 20 19  1  0
 22 21  1  1
 22 24  1  0
 23 22  1  0
 25 24  1  1
 25 27  1  0
 26 17  1  0
 26 25  1  0
 27 29  2  0
 27 28  1  0
M  END
$$$$
