LYL.pdb
     RDKit          3D

 29 29  0  0  1  0  0  0  0  0999 V2000
   19.7050   -9.7541  -12.9834 C   0  0  0  0  0  0  0  0  0  0  0  0
   18.5072   -9.6610  -13.8985 C   0  0  2  0  0  0  0  0  0  0  0  0
   18.8679   -9.0863  -15.2429 C   0  0  0  0  0  0  0  0  0  0  0  0
   17.3759   -8.8780  -13.3106 C   0  0  0  0  0  0  0  0  0  0  0  0
   16.9570   -9.3215  -11.9475 C   0  0  2  0  0  0  0  0  0  0  0  0
   16.3434  -10.6362  -12.0436 N   0  0  0  0  0  0  0  0  0  0  0  0
   16.0056   -8.3226  -11.3969 C   0  0  0  0  0  0  0  0  0  0  0  0
   14.8814   -8.1976  -11.9478 O   0  0  0  0  0  0  0  0  0  0  0  0
   10.0586   -9.3618   -7.5444 O   0  0  0  0  0  0  0  0  0  0  0  0
   11.3196   -8.7948   -7.7243 C   0  0  0  0  0  0  0  0  0  0  0  0
   11.5025   -7.4286   -7.7281 C   0  0  0  0  0  0  0  0  0  0  0  0
   12.7528   -6.8739   -7.9065 C   0  0  0  0  0  0  0  0  0  0  0  0
   13.8833   -7.6479   -8.0899 C   0  0  0  0  0  0  0  0  0  0  0  0
   15.2029   -7.0099   -8.2814 C   0  0  0  0  0  0  0  0  0  0  0  0
   15.4796   -6.5501   -9.6856 C   0  0  2  0  0  0  0  0  0  0  0  0
   16.3642   -7.5322  -10.2760 N   0  0  0  0  0  0  0  0  0  0  0  0
   16.1441   -5.2223   -9.7433 C   0  0  0  0  0  0  0  0  0  0  0  0
   17.3191   -5.1077   -9.3299 O   0  0  0  0  0  0  0  0  0  0  0  0
   13.7000   -9.0154   -8.0862 C   0  0  0  0  0  0  0  0  0  0  0  0
   12.4386   -9.5800   -7.9062 C   0  0  0  0  0  0  0  0  0  0  0  0
   17.9810   -0.7583  -11.7893 C   0  0  0  0  0  0  0  0  0  0  0  0
   16.5141   -0.9076  -11.9444 C   0  0  1  0  0  0  0  0  0  0  0  0
   16.0435   -0.4958  -13.3403 C   0  0  0  0  0  0  0  0  0  0  0  0
   15.9694   -2.2107  -11.5605 C   0  0  0  0  0  0  0  0  0  0  0  0
   16.1838   -2.7792  -10.2101 C   0  0  2  0  0  0  0  0  0  0  0  0
   15.4815   -4.0941  -10.2517 N   0  0  0  0  0  0  0  0  0  0  0  0
   15.6087   -2.0995   -9.0560 C   0  0  0  0  0  0  0  0  0  0  0  0
   16.3266   -1.2046   -8.2946 O   0  0  0  0  0  0  0  0  0  0  0  0
   14.4044   -2.2902   -8.6657 O   0  0  0  0  0  0  0  0  0  0  0  0
  2  1  1  1
  2  4  1  0
  3  2  1  0
  5  4  1  0
  5  6  1  6
  7  5  1  0
  7  8  2  0
  9 10  1  0
 10 20  2  0
 10 11  1  0
 11 12  2  0
 12 13  1  0
 13 14  1  0
 15 14  1  1
 15 16  1  0
 15 17  1  0
 16  7  1  0
 17 18  2  0
 19 13  2  0
 20 19  1  0
 22 21  1  6
 22 24  1  0
 23 22  1  0
 25 24  1  6
 25 27  1  0
 26 17  1  0
 26 25  1  0
 27 29  2  0
 27 28  1  0
M  END
$$$$
