LYL.pdb
     RDKit          3D

 29 29  0  0  1  0  0  0  0  0999 V2000
   28.9067  -18.6507  -16.1985 C   0  0  0  0  0  0  0  0  0  0  0  0
   27.4064  -18.4804  -16.2241 C   0  0  2  0  0  0  0  0  0  0  0  0
   26.9931  -17.2294  -16.9535 C   0  0  0  0  0  0  0  0  0  0  0  0
   26.7890  -18.4881  -14.8613 C   0  0  0  0  0  0  0  0  0  0  0  0
   27.3183  -19.5431  -13.9465 C   0  0  2  0  0  0  0  0  0  0  0  0
   26.9868  -20.8512  -14.4881 N   0  0  0  0  0  0  0  0  0  0  0  0
   26.7164  -19.3489  -12.6025 C   0  0  0  0  0  0  0  0  0  0  0  0
   26.5729  -18.1750  -12.1734 O   0  0  0  0  0  0  0  0  0  0  0  0
   19.7659  -19.0990  -13.0931 O   0  0  0  0  0  0  0  0  0  0  0  0
   20.9048  -19.6290  -12.4881 C   0  0  0  0  0  0  0  0  0  0  0  0
   21.8474  -20.3276  -13.2115 C   0  0  0  0  0  0  0  0  0  0  0  0
   22.9721  -20.8494  -12.6070 C   0  0  0  0  0  0  0  0  0  0  0  0
   23.2167  -20.7035  -11.2543 C   0  0  0  0  0  0  0  0  0  0  0  0
   24.4338  -21.2832  -10.6481 C   0  0  0  0  0  0  0  0  0  0  0  0
   25.6053  -20.3443  -10.5723 C   0  0  2  0  0  0  0  0  0  0  0  0
   26.3157  -20.4664  -11.8276 N   0  0  0  0  0  0  0  0  0  0  0  0
   26.5428  -20.6708   -9.4667 C   0  0  0  0  0  0  0  0  0  0  0  0
   27.2909  -21.6676   -9.5731 O   0  0  0  0  0  0  0  0  0  0  0  0
   22.2729  -20.0044  -10.5302 C   0  0  0  0  0  0  0  0  0  0  0  0
   21.1353  -19.4755  -11.1371 C   0  0  0  0  0  0  0  0  0  0  0  0
   29.8310  -20.2896   -5.2241 C   0  0  0  0  0  0  0  0  0  0  0  0
   28.6628  -19.3769   -5.2078 C   0  0  1  0  0  0  0  0  0  0  0  0
   29.0241  -17.9980   -4.6533 C   0  0  0  0  0  0  0  0  0  0  0  0
   27.9299  -19.2691   -6.4702 C   0  0  0  0  0  0  0  0  0  0  0  0
   27.2920  -20.4448   -7.1053 C   0  0  2  0  0  0  0  0  0  0  0  0
   26.6067  -19.8846   -8.3056 N   0  0  0  0  0  0  0  0  0  0  0  0
   26.2401  -21.1540   -6.3876 C   0  0  0  0  0  0  0  0  0  0  0  0
   26.5095  -22.1806   -5.5105 O   0  0  0  0  0  0  0  0  0  0  0  0
   24.9973  -20.8794   -6.5259 O   0  0  0  0  0  0  0  0  0  0  0  0
  2  1  1  1
  2  4  1  0
  3  2  1  0
  5  4  1  0
  5  6  1  6
  7  5  1  0
  7  8  2  0
  9 10  1  0
 10 20  2  0
 10 11  1  0
 11 12  2  0
 12 13  1  0
 13 14  1  0
 15 14  1  6
 15 16  1  0
 15 17  1  0
 16  7  1  0
 17 18  2  0
 19 13  2  0
 20 19  1  0
 22 21  1  6
 22 24  1  0
 23 22  1  0
 25 24  1  1
 25 27  1  0
 26 17  1  0
 26 25  1  0
 27 29  2  0
 27 28  1  0
M  END
$$$$
