LYL.pdb
     RDKit          3D

 29 29  0  0  1  0  0  0  0  0999 V2000
   20.2371  -11.6899  -19.1284 C   0  0  0  0  0  0  0  0  0  0  0  0
   18.7316  -11.7957  -19.0741 C   0  0  2  0  0  0  0  0  0  0  0  0
   18.1120  -11.7332  -20.4452 C   0  0  0  0  0  0  0  0  0  0  0  0
   18.0995  -10.7628  -18.1955 C   0  0  0  0  0  0  0  0  0  0  0  0
   18.6433  -10.7138  -16.8055 C   0  0  2  0  0  0  0  0  0  0  0  0
   18.3283  -11.9613  -16.1282 N   0  0  0  0  0  0  0  0  0  0  0  0
   18.0402   -9.5527  -16.1025 C   0  0  0  0  0  0  0  0  0  0  0  0
   17.2185   -8.8337  -16.7274 O   0  0  0  0  0  0  0  0  0  0  0  0
   15.2654   -5.1877   -8.8297 O   0  0  0  0  0  0  0  0  0  0  0  0
   15.7316   -6.0808   -9.7935 C   0  0  0  0  0  0  0  0  0  0  0  0
   16.8930   -6.7998   -9.6093 C   0  0  0  0  0  0  0  0  0  0  0  0
   17.3488   -7.6818  -10.5668 C   0  0  0  0  0  0  0  0  0  0  0  0
   16.6743   -7.8939  -11.7545 C   0  0  0  0  0  0  0  0  0  0  0  0
   17.2021   -8.8462  -12.7542 C   0  0  0  0  0  0  0  0  0  0  0  0
   17.7729   -8.2072  -13.9894 C   0  0  2  0  0  0  0  0  0  0  0  0
   18.3883   -9.2684  -14.7579 N   0  0  0  0  0  0  0  0  0  0  0  0
   18.8059   -7.1818  -13.6904 C   0  0  0  0  0  0  0  0  0  0  0  0
   19.9642   -7.5489  -13.3931 O   0  0  0  0  0  0  0  0  0  0  0  0
   15.5117   -7.1740  -11.9389 C   0  0  0  0  0  0  0  0  0  0  0  0
   15.0476   -6.2819  -10.9741 C   0  0  0  0  0  0  0  0  0  0  0  0
   22.6459   -4.0945  -13.6888 C   0  0  0  0  0  0  0  0  0  0  0  0
   21.7332   -4.2502  -14.8467 C   0  0  1  0  0  0  0  0  0  0  0  0
   22.4837   -4.6685  -16.1121 C   0  0  0  0  0  0  0  0  0  0  0  0
   20.5621   -5.0974  -14.6163 C   0  0  0  0  0  0  0  0  0  0  0  0
   19.6165   -4.8372  -13.5069 C   0  0  2  0  0  0  0  0  0  0  0  0
   18.5098   -5.8105  -13.7343 N   0  0  0  0  0  0  0  0  0  0  0  0
   18.9494   -3.5432  -13.4335 C   0  0  0  0  0  0  0  0  0  0  0  0
   19.5384   -2.4424  -12.8529 O   0  0  0  0  0  0  0  0  0  0  0  0
   17.7724   -3.3407  -13.8945 O   0  0  0  0  0  0  0  0  0  0  0  0
  2  1  1  6
  2  4  1  0
  3  2  1  0
  5  4  1  0
  5  6  1  1
  7  5  1  0
  7  8  2  0
  9 10  1  0
 10 20  2  0
 10 11  1  0
 11 12  2  0
 12 13  1  0
 13 14  1  0
 15 14  1  1
 15 16  1  0
 15 17  1  0
 16  7  1  0
 17 18  2  0
 19 13  2  0
 20 19  1  0
 22 21  1  1
 22 24  1  0
 23 22  1  0
 25 24  1  6
 25 27  1  0
 26 17  1  0
 26 25  1  0
 27 29  2  0
 27 28  1  0
M  END
$$$$
