LYL.pdb
     RDKit          3D

 29 29  0  0  1  0  0  0  0  0999 V2000
   28.7237  -19.5098  -19.6196 C   0  0  0  0  0  0  0  0  0  0  0  0
   28.0572  -20.7778  -19.1416 C   0  0  2  0  0  0  0  0  0  0  0  0
   28.2255  -21.9079  -20.1226 C   0  0  0  0  0  0  0  0  0  0  0  0
   26.6040  -20.5997  -18.8331 C   0  0  0  0  0  0  0  0  0  0  0  0
   26.3169  -19.6212  -17.7421 C   0  0  2  0  0  0  0  0  0  0  0  0
   27.5138  -18.8387  -17.4789 N   0  0  0  0  0  0  0  0  0  0  0  0
   25.8884  -20.3720  -16.5343 C   0  0  0  0  0  0  0  0  0  0  0  0
   25.0280  -21.2803  -16.6665 O   0  0  0  0  0  0  0  0  0  0  0  0
   24.9355  -20.7520   -7.6076 O   0  0  0  0  0  0  0  0  0  0  0  0
   25.4086  -20.6252   -8.9130 C   0  0  0  0  0  0  0  0  0  0  0  0
   25.9356  -19.4393   -9.3775 C   0  0  0  0  0  0  0  0  0  0  0  0
   26.4021  -19.3205  -10.6702 C   0  0  0  0  0  0  0  0  0  0  0  0
   26.3685  -20.3729  -11.5657 C   0  0  0  0  0  0  0  0  0  0  0  0
   26.8759  -20.1988  -12.9430 C   0  0  0  0  0  0  0  0  0  0  0  0
   25.9008  -20.5757  -14.0233 C   0  0  2  0  0  0  0  0  0  0  0  0
   26.4415  -20.0657  -15.2654 N   0  0  0  0  0  0  0  0  0  0  0  0
   24.5511  -19.9882  -13.8204 C   0  0  0  0  0  0  0  0  0  0  0  0
   24.3628  -18.7809  -14.0883 O   0  0  0  0  0  0  0  0  0  0  0  0
   25.8408  -21.5599  -11.1006 C   0  0  0  0  0  0  0  0  0  0  0  0
   25.3685  -21.6844   -9.7954 C   0  0  0  0  0  0  0  0  0  0  0  0
   20.1100  -17.9496  -14.2345 C   0  0  0  0  0  0  0  0  0  0  0  0
   20.3532  -19.2982  -14.8002 C   0  0  1  0  0  0  0  0  0  0  0  0
   20.0118  -19.3619  -16.2898 C   0  0  0  0  0  0  0  0  0  0  0  0
   21.6755  -19.8652  -14.5311 C   0  0  0  0  0  0  0  0  0  0  0  0
   22.1579  -20.1003  -13.1510 C   0  0  2  0  0  0  0  0  0  0  0  0
   23.4833  -20.7588  -13.3346 N   0  0  0  0  0  0  0  0  0  0  0  0
   21.4182  -21.0128  -12.2879 C   0  0  0  0  0  0  0  0  0  0  0  0
   20.5265  -20.5683  -11.3376 O   0  0  0  0  0  0  0  0  0  0  0  0
   21.5492  -22.2850  -12.3465 O   0  0  0  0  0  0  0  0  0  0  0  0
  2  1  1  6
  2  4  1  0
  3  2  1  0
  5  4  1  0
  5  6  1  1
  7  5  1  0
  7  8  2  0
  9 10  1  0
 10 20  2  0
 10 11  1  0
 11 12  2  0
 12 13  1  0
 13 14  1  0
 15 14  1  1
 15 16  1  0
 15 17  1  0
 16  7  1  0
 17 18  2  0
 19 13  2  0
 20 19  1  0
 22 21  1  6
 22 24  1  0
 23 22  1  0
 25 24  1  6
 25 27  1  0
 26 17  1  0
 26 25  1  0
 27 29  2  0
 27 28  1  0
M  END
$$$$
