LYL.pdb
     RDKit          3D

 29 29  0  0  1  0  0  0  0  0999 V2000
   16.0244  -12.7655  -12.8675 C   0  0  0  0  0  0  0  0  0  0  0  0
   15.1064  -11.8834  -13.6796 C   0  0  2  0  0  0  0  0  0  0  0  0
   15.3433  -12.0331  -15.1592 C   0  0  0  0  0  0  0  0  0  0  0  0
   15.1958  -10.4374  -13.3058 C   0  0  0  0  0  0  0  0  0  0  0  0
   14.9855  -10.1579  -11.8540 C   0  0  2  0  0  0  0  0  0  0  0  0
   13.5868  -10.3804  -11.5253 N   0  0  0  0  0  0  0  0  0  0  0  0
   15.3860   -8.7540  -11.5800 C   0  0  0  0  0  0  0  0  0  0  0  0
   14.6546   -7.8262  -12.0124 O   0  0  0  0  0  0  0  0  0  0  0  0
   11.6986   -6.0267   -7.1304 O   0  0  0  0  0  0  0  0  0  0  0  0
   12.9871   -6.2313   -7.6221 C   0  0  0  0  0  0  0  0  0  0  0  0
   13.5772   -7.4768   -7.6038 C   0  0  0  0  0  0  0  0  0  0  0  0
   14.8523   -7.6725   -8.0919 C   0  0  0  0  0  0  0  0  0  0  0  0
   15.6050   -6.6415   -8.6223 C   0  0  0  0  0  0  0  0  0  0  0  0
   16.9694   -6.8968   -9.1303 C   0  0  0  0  0  0  0  0  0  0  0  0
   17.0532   -7.1318  -10.6127 C   0  0  2  0  0  0  0  0  0  0  0  0
   16.5670   -8.4750  -10.8471 N   0  0  0  0  0  0  0  0  0  0  0  0
   18.4388   -7.0334  -11.1406 C   0  0  0  0  0  0  0  0  0  0  0  0
   19.3783   -7.5450  -10.4922 O   0  0  0  0  0  0  0  0  0  0  0  0
   15.0143   -5.3947   -8.6404 C   0  0  0  0  0  0  0  0  0  0  0  0
   13.7262   -5.1926   -8.1484 C   0  0  0  0  0  0  0  0  0  0  0  0
   20.2180   -9.8328  -14.7426 C   0  0  0  0  0  0  0  0  0  0  0  0
   20.2882   -8.8952  -13.5963 C   0  0  1  0  0  0  0  0  0  0  0  0
   21.5718   -9.0811  -12.7854 C   0  0  0  0  0  0  0  0  0  0  0  0
   20.0610   -7.4861  -13.9201 C   0  0  0  0  0  0  0  0  0  0  0  0
   20.1077   -6.4296  -12.8836 C   0  0  2  0  0  0  0  0  0  0  0  0
   18.7157   -6.3787  -12.3509 N   0  0  0  0  0  0  0  0  0  0  0  0
   20.3912   -5.0569  -13.2836 C   0  0  0  0  0  0  0  0  0  0  0  0
   21.6669   -4.5388  -13.2868 O   0  0  0  0  0  0  0  0  0  0  0  0
   19.4789   -4.2375  -13.6517 O   0  0  0  0  0  0  0  0  0  0  0  0
  2  1  1  1
  2  4  1  0
  3  2  1  0
  5  4  1  0
  5  6  1  6
  7  5  1  0
  7  8  2  0
  9 10  1  0
 10 20  2  0
 10 11  1  0
 11 12  2  0
 12 13  1  0
 13 14  1  0
 15 14  1  1
 15 16  1  0
 15 17  1  0
 16  7  1  0
 17 18  2  0
 19 13  2  0
 20 19  1  0
 22 21  1  6
 22 24  1  0
 23 22  1  0
 25 24  1  6
 25 27  1  0
 26 17  1  0
 26 25  1  0
 27 29  2  0
 27 28  1  0
M  END
$$$$
