LYL.pdb
     RDKit          3D

 29 29  0  0  1  0  0  0  0  0999 V2000
   27.8439  -17.7885  -18.4126 C   0  0  0  0  0  0  0  0  0  0  0  0
   26.4399  -18.3107  -18.2211 C   0  0  2  0  0  0  0  0  0  0  0  0
   25.5031  -17.8157  -19.2912 C   0  0  0  0  0  0  0  0  0  0  0  0
   25.8705  -17.9904  -16.8751 C   0  0  0  0  0  0  0  0  0  0  0  0
   26.7180  -18.4230  -15.7241 C   0  0  2  0  0  0  0  0  0  0  0  0
   27.3741  -19.6758  -16.0620 N   0  0  0  0  0  0  0  0  0  0  0  0
   25.8498  -18.5756  -14.5287 C   0  0  0  0  0  0  0  0  0  0  0  0
   25.1919  -17.5786  -14.1339 O   0  0  0  0  0  0  0  0  0  0  0  0
   18.2991  -19.9560  -12.7369 O   0  0  0  0  0  0  0  0  0  0  0  0
   19.6526  -20.2462  -12.9038 C   0  0  0  0  0  0  0  0  0  0  0  0
   20.4075  -19.6309  -13.8792 C   0  0  0  0  0  0  0  0  0  0  0  0
   21.7462  -19.9224  -14.0391 C   0  0  0  0  0  0  0  0  0  0  0  0
   22.4018  -20.8391  -13.2386 C   0  0  0  0  0  0  0  0  0  0  0  0
   23.8370  -21.1232  -13.4487 C   0  0  0  0  0  0  0  0  0  0  0  0
   24.7716  -20.1110  -12.8472 C   0  0  2  0  0  0  0  0  0  0  0  0
   25.7702  -19.8199  -13.8540 N   0  0  0  0  0  0  0  0  0  0  0  0
   25.4618  -20.6074  -11.6286 C   0  0  0  0  0  0  0  0  0  0  0  0
   26.2263  -21.5935  -11.7173 O   0  0  0  0  0  0  0  0  0  0  0  0
   21.6459  -21.4550  -12.2624 C   0  0  0  0  0  0  0  0  0  0  0  0
   20.2932  -21.1634  -12.0974 C   0  0  0  0  0  0  0  0  0  0  0  0
   28.2786  -18.1747   -7.2673 C   0  0  0  0  0  0  0  0  0  0  0  0
   27.8824  -19.3902   -8.0180 C   0  0  1  0  0  0  0  0  0  0  0  0
   28.2795  -20.6703   -7.2810 C   0  0  0  0  0  0  0  0  0  0  0  0
   26.4852  -19.4356   -8.4515 C   0  0  0  0  0  0  0  0  0  0  0  0
   25.9331  -20.5967   -9.1860 C   0  0  2  0  0  0  0  0  0  0  0  0
   25.2742  -19.9937  -10.3803 N   0  0  0  0  0  0  0  0  0  0  0  0
   24.8866  -21.3970   -8.5624 C   0  0  0  0  0  0  0  0  0  0  0  0
   25.1658  -22.4178   -7.6814 O   0  0  0  0  0  0  0  0  0  0  0  0
   23.6407  -21.2139   -8.7931 O   0  0  0  0  0  0  0  0  0  0  0  0
  2  1  1  6
  2  4  1  0
  3  2  1  0
  5  4  1  0
  5  6  1  6
  7  5  1  0
  7  8  2  0
  9 10  1  0
 10 20  2  0
 10 11  1  0
 11 12  2  0
 12 13  1  0
 13 14  1  0
 15 14  1  6
 15 16  1  0
 15 17  1  0
 16  7  1  0
 17 18  2  0
 19 13  2  0
 20 19  1  0
 22 21  1  1
 22 24  1  0
 23 22  1  0
 25 24  1  1
 25 27  1  0
 26 17  1  0
 26 25  1  0
 27 29  2  0
 27 28  1  0
M  END
$$$$
