LYL.pdb
     RDKit          3D

 29 29  0  0  1  0  0  0  0  0999 V2000
   29.9024  -18.6525  -18.2406 C   0  0  0  0  0  0  0  0  0  0  0  0
   28.5211  -18.0650  -18.0750 C   0  0  2  0  0  0  0  0  0  0  0  0
   28.3699  -16.7622  -18.8149 C   0  0  0  0  0  0  0  0  0  0  0  0
   28.1304  -17.8720  -16.6438 C   0  0  0  0  0  0  0  0  0  0  0  0
   28.3769  -19.0564  -15.7683 C   0  0  2  0  0  0  0  0  0  0  0  0
   28.2324  -20.2688  -16.5578 N   0  0  0  0  0  0  0  0  0  0  0  0
   27.4040  -19.0258  -14.6463 C   0  0  0  0  0  0  0  0  0  0  0  0
   27.3621  -18.0019  -13.9165 O   0  0  0  0  0  0  0  0  0  0  0  0
   19.6886  -21.3323  -10.7627 O   0  0  0  0  0  0  0  0  0  0  0  0
   20.8216  -21.2106  -11.5662 C   0  0  0  0  0  0  0  0  0  0  0  0
   21.4658  -22.3168  -12.0774 C   0  0  0  0  0  0  0  0  0  0  0  0
   22.5863  -22.1896  -12.8718 C   0  0  0  0  0  0  0  0  0  0  0  0
   23.1226  -20.9581  -13.1981 C   0  0  0  0  0  0  0  0  0  0  0  0
   24.3276  -20.8696  -14.0496 C   0  0  0  0  0  0  0  0  0  0  0  0
   25.4687  -20.1010  -13.4440 C   0  0  2  0  0  0  0  0  0  0  0  0
   26.5461  -20.1295  -14.4103 N   0  0  0  0  0  0  0  0  0  0  0  0
   25.9602  -20.6930  -12.1728 C   0  0  0  0  0  0  0  0  0  0  0  0
   26.7290  -21.6788  -12.2140 O   0  0  0  0  0  0  0  0  0  0  0  0
   22.4777  -19.8509  -12.6862 C   0  0  0  0  0  0  0  0  0  0  0  0
   21.3454  -19.9749  -11.8833 C   0  0  0  0  0  0  0  0  0  0  0  0
   28.5257  -19.5382   -7.1777 C   0  0  0  0  0  0  0  0  0  0  0  0
   27.4412  -20.4155   -7.6801 C   0  0  1  0  0  0  0  0  0  0  0  0
   26.3081  -20.5608   -6.6630 C   0  0  0  0  0  0  0  0  0  0  0  0
   26.9260  -20.0824   -9.0089 C   0  0  0  0  0  0  0  0  0  0  0  0
   25.9315  -20.9367   -9.6973 C   0  0  2  0  0  0  0  0  0  0  0  0
   25.5800  -20.1698  -10.9270 N   0  0  0  0  0  0  0  0  0  0  0  0
   24.6495  -21.1917   -9.0524 C   0  0  0  0  0  0  0  0  0  0  0  0
   23.5639  -20.3607   -9.2163 O   0  0  0  0  0  0  0  0  0  0  0  0
   24.4442  -22.1968   -8.2864 O   0  0  0  0  0  0  0  0  0  0  0  0
  2  1  1  1
  2  4  1  0
  3  2  1  0
  5  4  1  0
  5  6  1  6
  7  5  1  0
  7  8  2  0
  9 10  1  0
 10 20  2  0
 10 11  1  0
 11 12  2  0
 12 13  1  0
 13 14  1  0
 15 14  1  6
 15 16  1  0
 15 17  1  0
 16  7  1  0
 17 18  2  0
 19 13  2  0
 20 19  1  0
 22 21  1  1
 22 24  1  0
 23 22  1  0
 25 24  1  1
 25 27  1  0
 26 17  1  0
 26 25  1  0
 27 29  2  0
 27 28  1  0
M  END
$$$$
