LYL.pdb
     RDKit          3D

 29 29  0  0  1  0  0  0  0  0999 V2000
   23.1578  -15.4771  -21.6934 C   0  0  0  0  0  0  0  0  0  0  0  0
   22.2499  -16.0366  -20.6242 C   0  0  2  0  0  0  0  0  0  0  0  0
   21.3982  -17.1656  -21.1416 C   0  0  0  0  0  0  0  0  0  0  0  0
   21.3731  -15.0008  -19.9943 C   0  0  0  0  0  0  0  0  0  0  0  0
   22.0972  -13.7908  -19.5027 C   0  0  2  0  0  0  0  0  0  0  0  0
   23.1036  -14.1997  -18.5363 N   0  0  0  0  0  0  0  0  0  0  0  0
   21.1097  -12.8644  -18.8920 C   0  0  0  0  0  0  0  0  0  0  0  0
   20.1483  -12.4626  -19.5970 O   0  0  0  0  0  0  0  0  0  0  0  0
   16.0166  -16.4437  -16.4970 O   0  0  0  0  0  0  0  0  0  0  0  0
   16.9653  -15.4444  -16.2841 C   0  0  0  0  0  0  0  0  0  0  0  0
   16.5983  -14.1289  -16.0980 C   0  0  0  0  0  0  0  0  0  0  0  0
   17.5419  -13.1449  -15.8878 C   0  0  0  0  0  0  0  0  0  0  0  0
   18.8964  -13.4182  -15.8519 C   0  0  0  0  0  0  0  0  0  0  0  0
   19.8725  -12.3310  -15.6276 C   0  0  0  0  0  0  0  0  0  0  0  0
   20.2939  -11.5997  -16.8716 C   0  0  2  0  0  0  0  0  0  0  0  0
   21.2549  -12.4475  -17.5448 N   0  0  0  0  0  0  0  0  0  0  0  0
   20.9376  -10.2908  -16.5879 C   0  0  0  0  0  0  0  0  0  0  0  0
   22.1685  -10.2491  -16.3687 O   0  0  0  0  0  0  0  0  0  0  0  0
   19.2636  -14.7351  -16.0383 C   0  0  0  0  0  0  0  0  0  0  0  0
   18.3136  -15.7322  -16.2510 C   0  0  0  0  0  0  0  0  0  0  0  0
   22.6870   -5.5320  -17.5723 C   0  0  0  0  0  0  0  0  0  0  0  0
   21.2395   -5.7272  -17.8269 C   0  0  1  0  0  0  0  0  0  0  0  0
   20.8189   -5.1657  -19.1861 C   0  0  0  0  0  0  0  0  0  0  0  0
   20.7447   -7.0914  -17.6368 C   0  0  0  0  0  0  0  0  0  0  0  0
   20.9202   -7.8141  -16.3564 C   0  0  2  0  0  0  0  0  0  0  0  0
   20.1942   -9.1006  -16.5605 N   0  0  0  0  0  0  0  0  0  0  0  0
   20.3344   -7.2580  -15.1430 C   0  0  0  0  0  0  0  0  0  0  0  0
   19.1210   -7.6818  -14.6493 O   0  0  0  0  0  0  0  0  0  0  0  0
   20.8996   -6.3362  -14.4575 O   0  0  0  0  0  0  0  0  0  0  0  0
  2  1  1  6
  2  4  1  0
  3  2  1  0
  5  4  1  0
  5  6  1  1
  7  5  1  0
  7  8  2  0
  9 10  1  0
 10 20  2  0
 10 11  1  0
 11 12  2  0
 12 13  1  0
 13 14  1  0
 15 14  1  1
 15 16  1  0
 15 17  1  0
 16  7  1  0
 17 18  2  0
 19 13  2  0
 20 19  1  0
 22 21  1  6
 22 24  1  0
 23 22  1  0
 25 24  1  6
 25 27  1  0
 26 17  1  0
 26 25  1  0
 27 29  2  0
 27 28  1  0
M  END
$$$$
