LYL.pdb
     RDKit          3D

 29 29  0  0  1  0  0  0  0  0999 V2000
   36.0905   -2.0851  -14.6109 C   0  0  0  0  0  0  0  0  0  0  0  0
   37.0450   -2.8388  -15.5060 C   0  0  2  0  0  0  0  0  0  0  0  0
   36.3207   -3.6389  -16.5563 C   0  0  0  0  0  0  0  0  0  0  0  0
   37.9760   -3.7354  -14.7525 C   0  0  0  0  0  0  0  0  0  0  0  0
   38.7117   -3.0689  -13.6368 C   0  0  2  0  0  0  0  0  0  0  0  0
   39.6630   -2.1212  -14.1945 N   0  0  0  0  0  0  0  0  0  0  0  0
   39.3993   -4.1123  -12.8340 C   0  0  0  0  0  0  0  0  0  0  0  0
   40.3298   -4.7665  -13.3714 O   0  0  0  0  0  0  0  0  0  0  0  0
   36.6621   -0.9401   -6.8374 O   0  0  0  0  0  0  0  0  0  0  0  0
   37.5681   -1.7696   -7.4969 C   0  0  0  0  0  0  0  0  0  0  0  0
   38.2891   -1.3291   -8.5860 C   0  0  0  0  0  0  0  0  0  0  0  0
   39.1839   -2.1548   -9.2341 C   0  0  0  0  0  0  0  0  0  0  0  0
   39.4075   -3.4587   -8.8331 C   0  0  0  0  0  0  0  0  0  0  0  0
   40.3734   -4.3091   -9.5603 C   0  0  0  0  0  0  0  0  0  0  0  0
   39.7606   -5.2105  -10.5955 C   0  0  2  0  0  0  0  0  0  0  0  0
   39.0094   -4.3590  -11.4934 N   0  0  0  0  0  0  0  0  0  0  0  0
   38.8343   -6.2176  -10.0161 C   0  0  0  0  0  0  0  0  0  0  0  0
   37.6072   -5.9765   -9.9897 O   0  0  0  0  0  0  0  0  0  0  0  0
   38.6856   -3.8995   -7.7430 C   0  0  0  0  0  0  0  0  0  0  0  0
   37.7806   -3.0686   -7.0853 C   0  0  0  0  0  0  0  0  0  0  0  0
   39.8546  -11.6042  -10.3013 C   0  0  0  0  0  0  0  0  0  0  0  0
   39.1968  -10.2756  -10.3090 C   0  0  1  0  0  0  0  0  0  0  0  0
   37.9390  -10.2671  -11.1794 C   0  0  0  0  0  0  0  0  0  0  0  0
   38.9379   -9.6930   -8.9915 C   0  0  0  0  0  0  0  0  0  0  0  0
   38.3338   -8.3500   -8.8368 C   0  0  2  0  0  0  0  0  0  0  0  0
   39.3069   -7.4334   -9.4978 N   0  0  0  0  0  0  0  0  0  0  0  0
   38.1695   -7.7971   -7.4982 C   0  0  0  0  0  0  0  0  0  0  0  0
   37.0573   -8.0511   -6.7273 O   0  0  0  0  0  0  0  0  0  0  0  0
   39.0392   -7.0345   -6.9494 O   0  0  0  0  0  0  0  0  0  0  0  0
  2  1  1  1
  2  4  1  0
  3  2  1  0
  5  4  1  0
  5  6  1  6
  7  5  1  0
  7  8  2  0
  9 10  1  0
 10 20  2  0
 10 11  1  0
 11 12  2  0
 12 13  1  0
 13 14  1  0
 15 14  1  1
 15 16  1  0
 15 17  1  0
 16  7  1  0
 17 18  2  0
 19 13  2  0
 20 19  1  0
 22 21  1  1
 22 24  1  0
 23 22  1  0
 25 24  1  1
 25 27  1  0
 26 17  1  0
 26 25  1  0
 27 29  2  0
 27 28  1  0
M  END
$$$$
