LYL.pdb
     RDKit          3D

 29 29  0  0  1  0  0  0  0  0999 V2000
   27.0208  -31.2507   -9.2495 C   0  0  0  0  0  0  0  0  0  0  0  0
   26.1342  -32.3941   -8.8169 C   0  0  2  0  0  0  0  0  0  0  0  0
   24.8062  -31.9121   -8.2957 C   0  0  0  0  0  0  0  0  0  0  0  0
   26.7746  -33.2838   -7.7987 C   0  0  0  0  0  0  0  0  0  0  0  0
   28.1475  -33.7493   -8.1573 C   0  0  2  0  0  0  0  0  0  0  0  0
   28.0554  -34.6988   -9.2547 N   0  0  0  0  0  0  0  0  0  0  0  0
   28.7642  -34.3713   -6.9578 C   0  0  0  0  0  0  0  0  0  0  0  0
   28.7566  -35.6257   -6.8615 O   0  0  0  0  0  0  0  0  0  0  0  0
   35.1767  -35.3418   -8.5667 O   0  0  0  0  0  0  0  0  0  0  0  0
   34.2512  -34.8820   -7.6307 C   0  0  0  0  0  0  0  0  0  0  0  0
   33.5098  -33.7408   -7.8494 C   0  0  0  0  0  0  0  0  0  0  0  0
   32.5958  -33.2913   -6.9193 C   0  0  0  0  0  0  0  0  0  0  0  0
   32.3725  -33.9523   -5.7260 C   0  0  0  0  0  0  0  0  0  0  0  0
   31.3857  -33.4317   -4.7565 C   0  0  0  0  0  0  0  0  0  0  0  0
   30.0434  -34.1070   -4.8036 C   0  0  2  0  0  0  0  0  0  0  0  0
   29.3460  -33.5625   -5.9492 N   0  0  0  0  0  0  0  0  0  0  0  0
   29.2230  -33.8574   -3.5901 C   0  0  0  0  0  0  0  0  0  0  0  0
   29.2859  -32.7418   -3.0279 O   0  0  0  0  0  0  0  0  0  0  0  0
   33.1149  -35.0946   -5.5072 C   0  0  0  0  0  0  0  0  0  0  0  0
   34.0393  -35.5523   -6.4442 C   0  0  0  0  0  0  0  0  0  0  0  0
   24.0222  -34.9221   -3.5400 C   0  0  0  0  0  0  0  0  0  0  0  0
   25.3561  -34.3235   -3.2948 C   0  0  1  0  0  0  0  0  0  0  0  0
   25.2663  -32.8198   -3.0292 C   0  0  0  0  0  0  0  0  0  0  0  0
   26.1723  -34.9962   -2.2832 C   0  0  0  0  0  0  0  0  0  0  0  0
   27.5118  -34.4942   -1.9006 C   0  0  2  0  0  0  0  0  0  0  0  0
   28.3792  -34.8467   -3.0613 N   0  0  0  0  0  0  0  0  0  0  0  0
   28.1882  -35.0846   -0.7523 C   0  0  0  0  0  0  0  0  0  0  0  0
   29.2092  -35.9983   -0.8882 O   0  0  0  0  0  0  0  0  0  0  0  0
   27.8785  -34.8029    0.4575 O   0  0  0  0  0  0  0  0  0  0  0  0
  2  1  1  1
  2  4  1  0
  3  2  1  0
  5  4  1  0
  5  6  1  6
  7  5  1  0
  7  8  2  0
  9 10  1  0
 10 20  2  0
 10 11  1  0
 11 12  2  0
 12 13  1  0
 13 14  1  0
 15 14  1  1
 15 16  1  0
 15 17  1  0
 16  7  1  0
 17 18  2  0
 19 13  2  0
 20 19  1  0
 22 21  1  1
 22 24  1  0
 23 22  1  0
 25 24  1  6
 25 27  1  0
 26 17  1  0
 26 25  1  0
 27 29  2  0
 27 28  1  0
M  END
$$$$
