LYL.pdb
     RDKit          3D

 29 29  0  0  1  0  0  0  0  0999 V2000
   28.6446  -22.6710  -19.5272 C   0  0  0  0  0  0  0  0  0  0  0  0
   27.5440  -23.6629  -19.8191 C   0  0  2  0  0  0  0  0  0  0  0  0
   26.7619  -23.2912  -21.0512 C   0  0  0  0  0  0  0  0  0  0  0  0
   26.6028  -23.8536  -18.6718 C   0  0  0  0  0  0  0  0  0  0  0  0
   27.2658  -24.1697  -17.3716 C   0  0  2  0  0  0  0  0  0  0  0  0
   27.6951  -25.5589  -17.3829 N   0  0  0  0  0  0  0  0  0  0  0  0
   26.2990  -23.9142  -16.2734 C   0  0  0  0  0  0  0  0  0  0  0  0
   25.4438  -24.7983  -16.0091 O   0  0  0  0  0  0  0  0  0  0  0  0
   23.6015  -19.9854   -8.7016 O   0  0  0  0  0  0  0  0  0  0  0  0
   24.2369  -20.3306   -9.8937 C   0  0  0  0  0  0  0  0  0  0  0  0
   25.3078  -21.1980   -9.9157 C   0  0  0  0  0  0  0  0  0  0  0  0
   25.9320  -21.5355  -11.0985 C   0  0  0  0  0  0  0  0  0  0  0  0
   25.5240  -21.0287  -12.3181 C   0  0  0  0  0  0  0  0  0  0  0  0
   26.2254  -21.4151  -13.5605 C   0  0  0  0  0  0  0  0  0  0  0  0
   25.5015  -22.4307  -14.3998 C   0  0  2  0  0  0  0  0  0  0  0  0
   26.3457  -22.6990  -15.5447 N   0  0  0  0  0  0  0  0  0  0  0  0
   24.1835  -21.9493  -14.8886 C   0  0  0  0  0  0  0  0  0  0  0  0
   24.1249  -21.3133  -15.9641 O   0  0  0  0  0  0  0  0  0  0  0  0
   24.4520  -20.1603  -12.2959 C   0  0  0  0  0  0  0  0  0  0  0  0
   23.8184  -19.8167  -11.1032 C   0  0  0  0  0  0  0  0  0  0  0  0
   19.1790  -22.0084  -16.2634 C   0  0  0  0  0  0  0  0  0  0  0  0
   20.4363  -22.4790  -16.8926 C   0  0  1  0  0  0  0  0  0  0  0  0
   20.7850  -21.6710  -18.1437 C   0  0  0  0  0  0  0  0  0  0  0  0
   21.5859  -22.5939  -15.9940 C   0  0  0  0  0  0  0  0  0  0  0  0
   21.7052  -21.7696  -14.7698 C   0  0  2  0  0  0  0  0  0  0  0  0
   23.0030  -22.1930  -14.1694 N   0  0  0  0  0  0  0  0  0  0  0  0
   20.7354  -21.9504  -13.6967 C   0  0  0  0  0  0  0  0  0  0  0  0
   19.6239  -21.1484  -13.5651 O   0  0  0  0  0  0  0  0  0  0  0  0
   20.8506  -22.8580  -12.8011 O   0  0  0  0  0  0  0  0  0  0  0  0
  2  1  1  1
  2  4  1  0
  3  2  1  0
  5  4  1  0
  5  6  1  6
  7  5  1  0
  7  8  2  0
  9 10  1  0
 10 20  2  0
 10 11  1  0
 11 12  2  0
 12 13  1  0
 13 14  1  0
 15 14  1  1
 15 16  1  0
 15 17  1  0
 16  7  1  0
 17 18  2  0
 19 13  2  0
 20 19  1  0
 22 21  1  1
 22 24  1  0
 23 22  1  0
 25 24  1  6
 25 27  1  0
 26 17  1  0
 26 25  1  0
 27 29  2  0
 27 28  1  0
M  END
$$$$
