KNS.pdb
     RDKit          3D

 24 23  0  0  1  0  0  0  0  0999 V2000
   20.0104  -12.5792  -16.0801 N   0  0  0  0  0  0  0  0  0  0  0  0
   19.2470  -11.3964  -16.3168 C   0  0  1  0  0  0  0  0  0  0  0  0
   18.3281  -11.1499  -15.1429 C   0  0  0  0  0  0  0  0  0  0  0  0
   17.2804  -12.2320  -15.0322 C   0  0  0  0  0  0  0  0  0  0  0  0
   15.8808  -11.7332  -15.1766 C   0  0  0  0  0  0  0  0  0  0  0  0
   14.9490  -12.9059  -14.9407 C   0  0  0  0  0  0  0  0  0  0  0  0
   13.5697  -12.4967  -14.9645 N   0  0  0  0  0  0  0  0  0  0  0  0
   20.1225  -10.2664  -16.6091 C   0  0  0  0  0  0  0  0  0  0  0  0
   20.9575   -9.7755  -15.8051 O   0  0  0  0  0  0  0  0  0  0  0  0
   21.5656   -9.8212  -21.5846 N   0  0  0  0  0  0  0  0  0  0  0  0
   21.8932   -9.3307  -20.2830 C   0  0  0  0  0  0  0  0  0  0  0  0
   22.8785   -9.7858  -19.6496 O   0  0  0  0  0  0  0  0  0  0  0  0
   21.0657   -8.2719  -19.6646 C   0  0  0  0  0  0  0  0  0  0  0  0
   20.8493   -8.4629  -18.1876 C   0  0  2  0  0  0  0  0  0  0  0  0
   20.0536   -9.6450  -17.8968 N   0  0  0  0  0  0  0  0  0  0  0  0
   20.1467   -7.3022  -17.5762 C   0  0  0  0  0  0  0  0  0  0  0  0
   18.8834   -7.1877  -17.5967 O   0  0  0  0  0  0  0  0  0  0  0  0
   19.4928   -4.2326  -14.2584 O   0  0  0  0  0  0  0  0  0  0  0  0
   20.1466   -5.3133  -14.8398 C   0  0  0  0  0  0  0  0  0  0  0  0
   20.1629   -5.0975  -16.3378 C   0  0  2  0  0  0  0  0  0  0  0  0
   20.8505   -6.2452  -16.9285 N   0  0  0  0  0  0  0  0  0  0  0  0
   20.8397   -3.8283  -16.6990 C   0  0  0  0  0  0  0  0  0  0  0  0
   22.0016   -3.7534  -17.1396 O   0  0  0  0  0  0  0  0  0  0  0  0
   20.1193   -2.6574  -16.5298 O   0  0  0  0  0  0  0  0  0  0  0  0
  2  8  1  0
  2  1  1  1
  3  2  1  0
  4  3  1  0
  5  4  1  0
  6  7  1  0
  6  5  1  0
  8  9  2  0
 11 10  1  0
 11 12  2  0
 13 11  1  0
 14 13  1  6
 15 14  1  0
 15  8  1  0
 16 14  1  0
 17 16  2  0
 18 19  1  0
 20 19  1  1
 20 21  1  0
 21 16  1  0
 22 24  1  0
 22 20  1  0
 23 22  2  0
M  END
$$$$
