KNS.pdb
     RDKit          3D

 24 23  0  0  1  0  0  0  0  0999 V2000
   20.1947  -14.4076  -16.9540 N   0  0  0  0  0  0  0  0  0  0  0  0
   19.3360  -13.3094  -17.2612 C   0  0  1  0  0  0  0  0  0  0  0  0
   18.1494  -13.3241  -16.3259 C   0  0  0  0  0  0  0  0  0  0  0  0
   17.2658  -14.5217  -16.5828 C   0  0  0  0  0  0  0  0  0  0  0  0
   16.1298  -14.6497  -15.6228 C   0  0  0  0  0  0  0  0  0  0  0  0
   15.3078  -15.8529  -16.0423 C   0  0  0  0  0  0  0  0  0  0  0  0
   14.2950  -16.1651  -15.0691 N   0  0  0  0  0  0  0  0  0  0  0  0
   20.0753  -12.0518  -17.2326 C   0  0  0  0  0  0  0  0  0  0  0  0
   20.9105  -11.7274  -16.3485 O   0  0  0  0  0  0  0  0  0  0  0  0
   22.1818   -7.5544  -18.6472 N   0  0  0  0  0  0  0  0  0  0  0  0
   21.5140   -8.0564  -19.8066 C   0  0  0  0  0  0  0  0  0  0  0  0
   21.6061   -7.4662  -20.9121 O   0  0  0  0  0  0  0  0  0  0  0  0
   20.7003   -9.2882  -19.7129 C   0  0  0  0  0  0  0  0  0  0  0  0
   20.6551   -9.8754  -18.3279 C   0  0  2  0  0  0  0  0  0  0  0  0
   19.8596  -11.0916  -18.2720 N   0  0  0  0  0  0  0  0  0  0  0  0
   20.0706   -8.9256  -17.3425 C   0  0  0  0  0  0  0  0  0  0  0  0
   18.8640   -8.5390  -17.4079 O   0  0  0  0  0  0  0  0  0  0  0  0
   21.4151   -8.3937  -13.4931 O   0  0  0  0  0  0  0  0  0  0  0  0
   20.1347   -8.1637  -13.9841 C   0  0  0  0  0  0  0  0  0  0  0  0
   20.2655   -7.4389  -15.3063 C   0  0  2  0  0  0  0  0  0  0  0  0
   20.8312   -8.3902  -16.2623 N   0  0  0  0  0  0  0  0  0  0  0  0
   21.1213   -6.2337  -15.1856 C   0  0  0  0  0  0  0  0  0  0  0  0
   22.2113   -6.0858  -15.7685 O   0  0  0  0  0  0  0  0  0  0  0  0
   20.6648   -5.2137  -14.3670 O   0  0  0  0  0  0  0  0  0  0  0  0
  2  8  1  0
  2  1  1  1
  3  2  1  0
  4  3  1  0
  5  4  1  0
  6  7  1  0
  6  5  1  0
  8  9  2  0
 11 10  1  0
 11 12  2  0
 13 11  1  0
 14 13  1  6
 15 14  1  0
 15  8  1  0
 16 14  1  0
 17 16  2  0
 18 19  1  0
 20 19  1  1
 20 21  1  0
 21 16  1  0
 22 24  1  0
 22 20  1  0
 23 22  2  0
M  END
$$$$
