KNS.pdb
     RDKit          3D

 24 23  0  0  1  0  0  0  0  0999 V2000
   15.6534   -9.6074  -15.5012 N   0  0  0  0  0  0  0  0  0  0  0  0
   16.8407  -10.1899  -14.9639 C   0  0  1  0  0  0  0  0  0  0  0  0
   16.8993  -11.6507  -15.3456 C   0  0  0  0  0  0  0  0  0  0  0  0
   15.5741  -12.3329  -15.1021 C   0  0  0  0  0  0  0  0  0  0  0  0
   15.6073  -13.8095  -15.3187 C   0  0  0  0  0  0  0  0  0  0  0  0
   14.2287  -14.3519  -14.9956 C   0  0  0  0  0  0  0  0  0  0  0  0
   14.1600  -15.7744  -15.2011 N   0  0  0  0  0  0  0  0  0  0  0  0
   18.0196   -9.4385  -15.3817 C   0  0  0  0  0  0  0  0  0  0  0  0
   19.2025   -9.7106  -15.0483 O   0  0  0  0  0  0  0  0  0  0  0  0
   21.1640   -6.0419  -17.6460 N   0  0  0  0  0  0  0  0  0  0  0  0
   19.9502   -6.0142  -18.3997 C   0  0  0  0  0  0  0  0  0  0  0  0
   19.8605   -5.3402  -19.4565 O   0  0  0  0  0  0  0  0  0  0  0  0
   18.7772   -6.7871  -17.9363 C   0  0  0  0  0  0  0  0  0  0  0  0
   19.0080   -7.5094  -16.6362 C   0  0  2  0  0  0  0  0  0  0  0  0
   17.8558   -8.3007  -16.2348 N   0  0  0  0  0  0  0  0  0  0  0  0
   19.2992   -6.5658  -15.5228 C   0  0  0  0  0  0  0  0  0  0  0  0
   18.4868   -5.6548  -15.1771 O   0  0  0  0  0  0  0  0  0  0  0  0
   22.1411   -7.2906  -12.6365 O   0  0  0  0  0  0  0  0  0  0  0  0
   21.0336   -6.4720  -12.4443 C   0  0  0  0  0  0  0  0  0  0  0  0
   20.8198   -5.6717  -13.7110 C   0  0  2  0  0  0  0  0  0  0  0  0
   20.5108   -6.6271  -14.7743 N   0  0  0  0  0  0  0  0  0  0  0  0
   22.0146   -4.8627  -14.0536 C   0  0  0  0  0  0  0  0  0  0  0  0
   22.7125   -5.0373  -15.0696 O   0  0  0  0  0  0  0  0  0  0  0  0
   22.3651   -3.8498  -13.1760 O   0  0  0  0  0  0  0  0  0  0  0  0
  2  8  1  0
  2  1  1  6
  3  2  1  0
  4  3  1  0
  5  4  1  0
  6  7  1  0
  6  5  1  0
  8  9  2  0
 11 10  1  0
 11 12  2  0
 13 11  1  0
 14 13  1  6
 15 14  1  0
 15  8  1  0
 16 14  1  0
 17 16  2  0
 18 19  1  0
 20 19  1  1
 20 21  1  0
 21 16  1  0
 22 24  1  0
 22 20  1  0
 23 22  2  0
M  END
$$$$
