KNS.pdb
     RDKit          3D

 24 23  0  0  1  0  0  0  0  0999 V2000
   24.6838  -20.2646   -8.4639 N   0  0  0  0  0  0  0  0  0  0  0  0
   24.1701  -21.0507   -9.5390 C   0  0  1  0  0  0  0  0  0  0  0  0
   22.6611  -21.0746   -9.4661 C   0  0  0  0  0  0  0  0  0  0  0  0
   22.1835  -21.8951   -8.2916 C   0  0  0  0  0  0  0  0  0  0  0  0
   20.7147  -22.1612   -8.2994 C   0  0  0  0  0  0  0  0  0  0  0  0
   20.3796  -22.9241   -7.0326 C   0  0  0  0  0  0  0  0  0  0  0  0
   18.9647  -23.1580   -6.9163 N   0  0  0  0  0  0  0  0  0  0  0  0
   24.6765  -20.5683  -10.8196 C   0  0  0  0  0  0  0  0  0  0  0  0
   25.1309  -19.4125  -11.0250 O   0  0  0  0  0  0  0  0  0  0  0  0
   28.1059  -21.7942  -15.4004 N   0  0  0  0  0  0  0  0  0  0  0  0
   26.7181  -21.5928  -15.1256 C   0  0  0  0  0  0  0  0  0  0  0  0
   25.9606  -21.0631  -15.9768 O   0  0  0  0  0  0  0  0  0  0  0  0
   26.1567  -22.0111  -13.8225 C   0  0  0  0  0  0  0  0  0  0  0  0
   25.2047  -21.0085  -13.2278 C   0  0  2  0  0  0  0  0  0  0  0  0
   24.6713  -21.4485  -11.9484 N   0  0  0  0  0  0  0  0  0  0  0  0
   24.0422  -20.7516  -14.1207 C   0  0  0  0  0  0  0  0  0  0  0  0
   23.1035  -21.5920  -14.2692 O   0  0  0  0  0  0  0  0  0  0  0  0
   24.0955  -17.4718  -16.4274 O   0  0  0  0  0  0  0  0  0  0  0  0
   22.7920  -17.8172  -16.0884 C   0  0  0  0  0  0  0  0  0  0  0  0
   22.7734  -19.2923  -15.7501 C   0  0  2  0  0  0  0  0  0  0  0  0
   23.9107  -19.5434  -14.8657 N   0  0  0  0  0  0  0  0  0  0  0  0
   22.8521  -20.1328  -16.9695 C   0  0  0  0  0  0  0  0  0  0  0  0
   23.8190  -20.8621  -17.2578 O   0  0  0  0  0  0  0  0  0  0  0  0
   21.7714  -20.0936  -17.8352 O   0  0  0  0  0  0  0  0  0  0  0  0
  2  8  1  0
  2  1  1  1
  3  2  1  0
  4  3  1  0
  5  4  1  0
  6  7  1  0
  6  5  1  0
  8  9  2  0
 11 10  1  0
 11 12  2  0
 13 11  1  0
 14 13  1  6
 15 14  1  0
 15  8  1  0
 16 14  1  0
 17 16  2  0
 18 19  1  0
 20 19  1  6
 20 21  1  0
 21 16  1  0
 22 24  1  0
 22 20  1  0
 23 22  2  0
M  END
$$$$
