KNS.pdb
     RDKit          3D

 24 23  0  0  1  0  0  0  0  0999 V2000
   25.5486  -21.8459  -10.6705 N   0  0  0  0  0  0  0  0  0  0  0  0
   24.5673  -20.8433  -10.9343 C   0  0  1  0  0  0  0  0  0  0  0  0
   24.4432  -19.9352   -9.7329 C   0  0  0  0  0  0  0  0  0  0  0  0
   23.9399  -20.6911   -8.5261 C   0  0  0  0  0  0  0  0  0  0  0  0
   22.5203  -21.1375   -8.6432 C   0  0  0  0  0  0  0  0  0  0  0  0
   22.1491  -21.8317   -7.3473 C   0  0  0  0  0  0  0  0  0  0  0  0
   20.7848  -22.2885   -7.3656 N   0  0  0  0  0  0  0  0  0  0  0  0
   24.8786  -20.1272  -12.1668 C   0  0  0  0  0  0  0  0  0  0  0  0
   24.2564  -19.1181  -12.5901 O   0  0  0  0  0  0  0  0  0  0  0  0
   29.4889  -20.1231  -12.6038 N   0  0  0  0  0  0  0  0  0  0  0  0
   28.7068  -19.3306  -13.4996 C   0  0  0  0  0  0  0  0  0  0  0  0
   28.7600  -18.0755  -13.4672 O   0  0  0  0  0  0  0  0  0  0  0  0
   27.8189  -19.9890  -14.4825 C   0  0  0  0  0  0  0  0  0  0  0  0
   26.3550  -19.8354  -14.1686 C   0  0  2  0  0  0  0  0  0  0  0  0
   25.9665  -20.5784  -12.9803 N   0  0  0  0  0  0  0  0  0  0  0  0
   25.4960  -20.3162  -15.2847 C   0  0  0  0  0  0  0  0  0  0  0  0
   25.2572  -21.5478  -15.4734 O   0  0  0  0  0  0  0  0  0  0  0  0
   22.5448  -18.2013  -16.6365 O   0  0  0  0  0  0  0  0  0  0  0  0
   23.1984  -18.7120  -17.7525 C   0  0  0  0  0  0  0  0  0  0  0  0
   24.0346  -19.8912  -17.3042 C   0  0  2  0  0  0  0  0  0  0  0  0
   24.8870  -19.4216  -16.2125 N   0  0  0  0  0  0  0  0  0  0  0  0
   24.8484  -20.4377  -18.4170 C   0  0  0  0  0  0  0  0  0  0  0  0
   26.0600  -20.2036  -18.5811 O   0  0  0  0  0  0  0  0  0  0  0  0
   24.2045  -21.2613  -19.3259 O   0  0  0  0  0  0  0  0  0  0  0  0
  2  8  1  0
  2  1  1  1
  3  2  1  0
  4  3  1  0
  5  4  1  0
  6  7  1  0
  6  5  1  0
  8  9  2  0
 11 10  1  0
 11 12  2  0
 13 11  1  0
 14 13  1  6
 15 14  1  0
 15  8  1  0
 16 14  1  0
 17 16  2  0
 18 19  1  0
 20 19  1  6
 20 21  1  0
 21 16  1  0
 22 24  1  0
 22 20  1  0
 23 22  2  0
M  END
$$$$
