KNS.pdb
     RDKit          3D

 24 23  0  0  1  0  0  0  0  0999 V2000
   15.7708  -11.8631  -13.3799 N   0  0  0  0  0  0  0  0  0  0  0  0
   16.1837  -10.5772  -13.8419 C   0  0  1  0  0  0  0  0  0  0  0  0
   14.9835   -9.8242  -14.3672 C   0  0  0  0  0  0  0  0  0  0  0  0
   13.7131  -10.6176  -14.1740 C   0  0  0  0  0  0  0  0  0  0  0  0
   13.2146  -10.6243  -12.7669 C   0  0  0  0  0  0  0  0  0  0  0  0
   11.8447  -11.2744  -12.7684 C   0  0  0  0  0  0  0  0  0  0  0  0
   11.3595  -11.4855  -11.4303 N   0  0  0  0  0  0  0  0  0  0  0  0
   16.9008   -9.8576  -12.7945 C   0  0  0  0  0  0  0  0  0  0  0  0
   16.9181  -10.1841  -11.5789 O   0  0  0  0  0  0  0  0  0  0  0  0
   20.1735   -6.7877  -10.2557 N   0  0  0  0  0  0  0  0  0  0  0  0
   20.6005   -6.8786  -11.6164 C   0  0  0  0  0  0  0  0  0  0  0  0
   21.6297   -6.2764  -12.0127 O   0  0  0  0  0  0  0  0  0  0  0  0
   19.8255   -7.6914  -12.5791 C   0  0  0  0  0  0  0  0  0  0  0  0
   18.4197   -7.9816  -12.1269 C   0  0  2  0  0  0  0  0  0  0  0  0
   17.6514   -8.6886  -13.1393 N   0  0  0  0  0  0  0  0  0  0  0  0
   17.6736   -6.7352  -11.8037 C   0  0  0  0  0  0  0  0  0  0  0  0
   17.3890   -5.8683  -12.6851 O   0  0  0  0  0  0  0  0  0  0  0  0
   16.9181   -5.8405   -7.9374 O   0  0  0  0  0  0  0  0  0  0  0  0
   15.9040   -5.4013   -8.7814 C   0  0  0  0  0  0  0  0  0  0  0  0
   16.4946   -5.2150  -10.1624 C   0  0  2  0  0  0  0  0  0  0  0  0
   17.2316   -6.4373  -10.4815 N   0  0  0  0  0  0  0  0  0  0  0  0
   17.3821   -4.0283  -10.2209 C   0  0  0  0  0  0  0  0  0  0  0  0
   18.5957   -4.0723  -10.4948 O   0  0  0  0  0  0  0  0  0  0  0  0
   16.8090   -2.7965   -9.9506 O   0  0  0  0  0  0  0  0  0  0  0  0
  2  8  1  0
  2  1  1  1
  3  2  1  0
  4  3  1  0
  5  4  1  0
  6  7  1  0
  6  5  1  0
  8  9  2  0
 11 10  1  0
 11 12  2  0
 13 11  1  0
 14 13  1  6
 15 14  1  0
 15  8  1  0
 16 14  1  0
 17 16  2  0
 18 19  1  0
 20 19  1  1
 20 21  1  0
 21 16  1  0
 22 24  1  0
 22 20  1  0
 23 22  2  0
M  END
$$$$
