KNS.pdb
     RDKit          3D

 24 23  0  0  1  0  0  0  0  0999 V2000
   25.6431  -23.1292  -16.4536 N   0  0  0  0  0  0  0  0  0  0  0  0
   25.3247  -22.0315  -15.5983 C   0  0  1  0  0  0  0  0  0  0  0  0
   26.5054  -21.0911  -15.5292 C   0  0  0  0  0  0  0  0  0  0  0  0
   27.8080  -21.8357  -15.7011 C   0  0  0  0  0  0  0  0  0  0  0  0
   28.1147  -22.1953  -17.1170 C   0  0  0  0  0  0  0  0  0  0  0  0
   29.5057  -22.7980  -17.1466 C   0  0  0  0  0  0  0  0  0  0  0  0
   29.8596  -23.2434  -18.4683 N   0  0  0  0  0  0  0  0  0  0  0  0
   24.0940  -21.3787  -16.0320 C   0  0  0  0  0  0  0  0  0  0  0  0
   23.6045  -21.4608  -17.1888 O   0  0  0  0  0  0  0  0  0  0  0  0
   20.3827  -22.5455  -13.7615 N   0  0  0  0  0  0  0  0  0  0  0  0
   20.4738  -21.6361  -14.8600 C   0  0  0  0  0  0  0  0  0  0  0  0
   20.1373  -21.9863  -16.0190 O   0  0  0  0  0  0  0  0  0  0  0  0
   20.9704  -20.2604  -14.6385 C   0  0  0  0  0  0  0  0  0  0  0  0
   22.1441  -19.8972  -15.5077 C   0  0  2  0  0  0  0  0  0  0  0  0
   23.3627  -20.5771  -15.0985 N   0  0  0  0  0  0  0  0  0  0  0  0
   22.4267  -18.4364  -15.4743 C   0  0  0  0  0  0  0  0  0  0  0  0
   22.5493  -17.7950  -14.3866 O   0  0  0  0  0  0  0  0  0  0  0  0
   24.9161  -16.7668  -17.6045 O   0  0  0  0  0  0  0  0  0  0  0  0
   24.3470  -16.0587  -16.5518 C   0  0  0  0  0  0  0  0  0  0  0  0
   22.8452  -16.2284  -16.6336 C   0  0  2  0  0  0  0  0  0  0  0  0
   22.5776  -17.6659  -16.6641 N   0  0  0  0  0  0  0  0  0  0  0  0
   22.2847  -15.5576  -17.8316 C   0  0  0  0  0  0  0  0  0  0  0  0
   21.7040  -16.1495  -18.7601 O   0  0  0  0  0  0  0  0  0  0  0  0
   22.4240  -14.1815  -17.9087 O   0  0  0  0  0  0  0  0  0  0  0  0
  2  8  1  0
  2  1  1  6
  3  2  1  0
  4  3  1  0
  5  4  1  0
  6  7  1  0
  6  5  1  0
  8  9  2  0
 11 10  1  0
 11 12  2  0
 13 11  1  0
 14 13  1  1
 15 14  1  0
 15  8  1  0
 16 14  1  0
 17 16  2  0
 18 19  1  0
 20 19  1  6
 20 21  1  0
 21 16  1  0
 22 24  1  0
 22 20  1  0
 23 22  2  0
M  END
$$$$
