KNS.pdb
     RDKit          3D

 24 23  0  0  1  0  0  0  0  0999 V2000
   14.6580  -10.1194  -15.5544 N   0  0  0  0  0  0  0  0  0  0  0  0
   15.1147  -10.1091  -14.2019 C   0  0  1  0  0  0  0  0  0  0  0  0
   14.5918  -11.3333  -13.4870 C   0  0  0  0  0  0  0  0  0  0  0  0
   13.0839  -11.3957  -13.5416 C   0  0  0  0  0  0  0  0  0  0  0  0
   12.5177  -12.7010  -13.0898 C   0  0  0  0  0  0  0  0  0  0  0  0
   11.0153  -12.6423  -13.2863 C   0  0  0  0  0  0  0  0  0  0  0  0
   10.3771  -13.8514  -12.8381 N   0  0  0  0  0  0  0  0  0  0  0  0
   16.5679   -9.9886  -14.1484 C   0  0  0  0  0  0  0  0  0  0  0  0
   17.2507   -9.9734  -13.0910 O   0  0  0  0  0  0  0  0  0  0  0  0
   21.5506   -9.8279  -15.4888 N   0  0  0  0  0  0  0  0  0  0  0  0
   20.8493  -10.5380  -16.5116 C   0  0  0  0  0  0  0  0  0  0  0  0
   21.4701  -11.1267  -17.4320 O   0  0  0  0  0  0  0  0  0  0  0  0
   19.3709  -10.5858  -16.4943 C   0  0  0  0  0  0  0  0  0  0  0  0
   18.7576   -9.8212  -15.3523 C   0  0  2  0  0  0  0  0  0  0  0  0
   17.3045   -9.8772  -15.3706 N   0  0  0  0  0  0  0  0  0  0  0  0
   19.1396   -8.3831  -15.3801 C   0  0  0  0  0  0  0  0  0  0  0  0
   18.6289   -7.5625  -16.2018 O   0  0  0  0  0  0  0  0  0  0  0  0
   21.8639   -6.7669  -12.6424 O   0  0  0  0  0  0  0  0  0  0  0  0
   20.7904   -6.0103  -13.0992 C   0  0  0  0  0  0  0  0  0  0  0  0
   20.4974   -6.4293  -14.5238 C   0  0  2  0  0  0  0  0  0  0  0  0
   20.1046   -7.8375  -14.4840 N   0  0  0  0  0  0  0  0  0  0  0  0
   21.6740   -6.2300  -15.4042 C   0  0  0  0  0  0  0  0  0  0  0  0
   22.2785   -7.1495  -15.9864 O   0  0  0  0  0  0  0  0  0  0  0  0
   22.1184   -4.9300  -15.5809 O   0  0  0  0  0  0  0  0  0  0  0  0
  2  8  1  0
  2  1  1  6
  3  2  1  0
  4  3  1  0
  5  4  1  0
  6  7  1  0
  6  5  1  0
  8  9  2  0
 11 10  1  0
 11 12  2  0
 13 11  1  0
 14 13  1  6
 15 14  1  0
 15  8  1  0
 16 14  1  0
 17 16  2  0
 18 19  1  0
 20 19  1  1
 20 21  1  0
 21 16  1  0
 22 24  1  0
 22 20  1  0
 23 22  2  0
M  END
$$$$
