KNS.pdb
     RDKit          3D

 24 23  0  0  1  0  0  0  0  0999 V2000
   24.3548  -23.8143  -13.9238 N   0  0  0  0  0  0  0  0  0  0  0  0
   23.9896  -23.3111  -15.2087 C   0  0  1  0  0  0  0  0  0  0  0  0
   23.8932  -24.4583  -16.1874 C   0  0  0  0  0  0  0  0  0  0  0  0
   25.1373  -25.3138  -16.1510 C   0  0  0  0  0  0  0  0  0  0  0  0
   26.3226  -24.6823  -16.8027 C   0  0  0  0  0  0  0  0  0  0  0  0
   27.4772  -25.6598  -16.7012 C   0  0  0  0  0  0  0  0  0  0  0  0
   28.6817  -25.1143  -17.2687 N   0  0  0  0  0  0  0  0  0  0  0  0
   22.7654  -22.5216  -15.1255 C   0  0  0  0  0  0  0  0  0  0  0  0
   22.0678  -22.1686  -16.1120 O   0  0  0  0  0  0  0  0  0  0  0  0
   19.3694  -23.4243  -13.5297 N   0  0  0  0  0  0  0  0  0  0  0  0
   19.5755  -22.6398  -12.3531 C   0  0  0  0  0  0  0  0  0  0  0  0
   19.0567  -22.9695  -11.2571 O   0  0  0  0  0  0  0  0  0  0  0  0
   20.4103  -21.4203  -12.4174 C   0  0  0  0  0  0  0  0  0  0  0  0
   21.1206  -21.2461  -13.7327 C   0  0  2  0  0  0  0  0  0  0  0  0
   22.2930  -22.0997  -13.8419 N   0  0  0  0  0  0  0  0  0  0  0  0
   21.5805  -19.8448  -13.9323 C   0  0  0  0  0  0  0  0  0  0  0  0
   22.5427  -19.3473  -13.2720 O   0  0  0  0  0  0  0  0  0  0  0  0
   22.2603  -17.9975  -17.1620 O   0  0  0  0  0  0  0  0  0  0  0  0
   22.6157  -17.5632  -15.8897 C   0  0  0  0  0  0  0  0  0  0  0  0
   21.3714  -17.5755  -15.0282 C   0  0  2  0  0  0  0  0  0  0  0  0
   20.9674  -18.9732  -14.8792 N   0  0  0  0  0  0  0  0  0  0  0  0
   20.2826  -16.7686  -15.6305 C   0  0  0  0  0  0  0  0  0  0  0  0
   19.2065  -17.2390  -16.0433 O   0  0  0  0  0  0  0  0  0  0  0  0
   20.4910  -15.4030  -15.7342 O   0  0  0  0  0  0  0  0  0  0  0  0
  2  8  1  0
  2  1  1  1
  3  2  1  0
  4  3  1  0
  5  4  1  0
  6  7  1  0
  6  5  1  0
  8  9  2  0
 11 10  1  0
 11 12  2  0
 13 11  1  0
 14 13  1  1
 15 14  1  0
 15  8  1  0
 16 14  1  0
 17 16  2  0
 18 19  1  0
 20 19  1  6
 20 21  1  0
 21 16  1  0
 22 24  1  0
 22 20  1  0
 23 22  2  0
M  END
$$$$
