KNS.pdb
     RDKit          3D

 24 23  0  0  1  0  0  0  0  0999 V2000
   38.8199   -6.6538   -9.8063 N   0  0  0  0  0  0  0  0  0  0  0  0
   39.8613   -6.7029  -10.7814 C   0  0  1  0  0  0  0  0  0  0  0  0
   40.8909   -7.7269  -10.3638 C   0  0  0  0  0  0  0  0  0  0  0  0
   40.2665   -8.8222   -9.5324 C   0  0  0  0  0  0  0  0  0  0  0  0
   40.7661   -8.8711   -8.1265 C   0  0  0  0  0  0  0  0  0  0  0  0
   40.2214  -10.1348   -7.4896 C   0  0  0  0  0  0  0  0  0  0  0  0
   40.4506  -10.1506   -6.0692 N   0  0  0  0  0  0  0  0  0  0  0  0
   39.3128   -6.9479  -12.1111 C   0  0  0  0  0  0  0  0  0  0  0  0
   39.9957   -7.0550  -13.1632 O   0  0  0  0  0  0  0  0  0  0  0  0
   38.3715   -9.7278  -14.3144 N   0  0  0  0  0  0  0  0  0  0  0  0
   36.9861   -9.6843  -13.9668 C   0  0  0  0  0  0  0  0  0  0  0  0
   36.2975  -10.7344  -13.9214 O   0  0  0  0  0  0  0  0  0  0  0  0
   36.3452   -8.3882  -13.6543 C   0  0  0  0  0  0  0  0  0  0  0  0
   37.3135   -7.2378  -13.5912 C   0  0  2  0  0  0  0  0  0  0  0  0
   37.8964   -7.0817  -12.2680 N   0  0  0  0  0  0  0  0  0  0  0  0
   36.6612   -5.9455  -13.9364 C   0  0  0  0  0  0  0  0  0  0  0  0
   36.0308   -5.7741  -15.0239 O   0  0  0  0  0  0  0  0  0  0  0  0
   35.3123   -1.5509  -12.4290 O   0  0  0  0  0  0  0  0  0  0  0  0
   35.9736   -2.7380  -12.1343 C   0  0  0  0  0  0  0  0  0  0  0  0
   36.0858   -3.5392  -13.4135 C   0  0  2  0  0  0  0  0  0  0  0  0
   36.7042   -4.8180  -13.0652 N   0  0  0  0  0  0  0  0  0  0  0  0
   36.8849   -2.8234  -14.4374 C   0  0  0  0  0  0  0  0  0  0  0  0
   38.1276   -2.8538  -14.5052 O   0  0  0  0  0  0  0  0  0  0  0  0
   36.1892   -2.0759  -15.3734 O   0  0  0  0  0  0  0  0  0  0  0  0
  2  8  1  0
  2  1  1  1
  3  2  1  0
  4  3  1  0
  5  4  1  0
  6  7  1  0
  6  5  1  0
  8  9  2  0
 11 10  1  0
 11 12  2  0
 13 11  1  0
 14 13  1  1
 15 14  1  0
 15  8  1  0
 16 14  1  0
 17 16  2  0
 18 19  1  0
 20 19  1  1
 20 21  1  0
 21 16  1  0
 22 24  1  0
 22 20  1  0
 23 22  2  0
M  END
$$$$
