KNS.pdb
     RDKit          3D

 24 23  0  0  1  0  0  0  0  0999 V2000
   13.6066  -24.0951   -3.0504 N   0  0  0  0  0  0  0  0  0  0  0  0
   14.9602  -24.0003   -2.6072 C   0  0  1  0  0  0  0  0  0  0  0  0
   15.8527  -23.6881   -3.7858 C   0  0  0  0  0  0  0  0  0  0  0  0
   15.7163  -24.7338   -4.8668 C   0  0  0  0  0  0  0  0  0  0  0  0
   17.0085  -25.3737   -5.2531 C   0  0  0  0  0  0  0  0  0  0  0  0
   16.7154  -26.3690   -6.3588 C   0  0  0  0  0  0  0  0  0  0  0  0
   17.9204  -26.9854   -6.8469 N   0  0  0  0  0  0  0  0  0  0  0  0
   15.0817  -23.0331   -1.5215 C   0  0  0  0  0  0  0  0  0  0  0  0
   15.4936  -21.8509   -1.6531 O   0  0  0  0  0  0  0  0  0  0  0  0
   14.7363  -19.6927    1.2976 N   0  0  0  0  0  0  0  0  0  0  0  0
   13.4739  -20.3623    1.3006 C   0  0  0  0  0  0  0  0  0  0  0  0
   12.4012  -19.7192    1.4219 O   0  0  0  0  0  0  0  0  0  0  0  0
   13.4200  -21.8338    1.1595 C   0  0  0  0  0  0  0  0  0  0  0  0
   14.7617  -22.4626    0.8960 C   0  0  2  0  0  0  0  0  0  0  0  0
   14.7139  -23.4236   -0.1944 N   0  0  0  0  0  0  0  0  0  0  0  0
   15.2798  -23.1830    2.0907 C   0  0  0  0  0  0  0  0  0  0  0  0
   15.0399  -24.4114    2.2977 O   0  0  0  0  0  0  0  0  0  0  0  0
   17.1488  -21.0494    4.9462 O   0  0  0  0  0  0  0  0  0  0  0  0
   17.5986  -22.3649    4.9190 C   0  0  0  0  0  0  0  0  0  0  0  0
   16.5119  -23.2165    4.2987 C   0  0  2  0  0  0  0  0  0  0  0  0
   16.0791  -22.5366    3.0783 N   0  0  0  0  0  0  0  0  0  0  0  0
   15.3745  -23.4132    5.2298 C   0  0  0  0  0  0  0  0  0  0  0  0
   14.2230  -22.9838    5.0315 O   0  0  0  0  0  0  0  0  0  0  0  0
   15.6249  -24.1233    6.3925 O   0  0  0  0  0  0  0  0  0  0  0  0
  2  8  1  0
  2  1  1  6
  3  2  1  0
  4  3  1  0
  5  4  1  0
  6  7  1  0
  6  5  1  0
  8  9  2  0
 11 10  1  0
 11 12  2  0
 13 11  1  0
 14 13  1  1
 15 14  1  0
 15  8  1  0
 16 14  1  0
 17 16  2  0
 18 19  1  0
 20 19  1  1
 20 21  1  0
 21 16  1  0
 22 24  1  0
 22 20  1  0
 23 22  2  0
M  END
$$$$
