VAS.pdb
     RDKit          3D

 19 18  0  0  1  0  0  0  0  0999 V2000
    7.5206  -12.4799   20.3711 C   0  0  0  0  0  0  0  0  0  0  0  0
    8.2272  -13.5382   19.5517 C   0  0  2  0  0  0  0  0  0  0  0  0
    7.6748  -13.5661   18.1429 C   0  0  0  0  0  0  0  0  0  0  0  0
    8.1246  -14.9020   20.2117 C   0  0  2  0  0  0  0  0  0  0  0  0
    6.7654  -15.3917   20.2137 N   0  0  0  0  0  0  0  0  0  0  0  0
    8.6313  -14.7625   21.5940 C   0  0  0  0  0  0  0  0  0  0  0  0
    9.8697  -14.5444   21.7463 O   0  0  0  0  0  0  0  0  0  0  0  0
    7.4142  -14.2247   25.0292 C   0  0  0  0  0  0  0  0  0  0  0  0
    8.3848  -14.8468   24.0394 C   0  0  2  0  0  0  0  0  0  0  0  0
    7.7948  -14.8624   22.7398 N   0  0  0  0  0  0  0  0  0  0  0  0
    8.6967  -16.2083   24.5493 C   0  0  0  0  0  0  0  0  0  0  0  0
    7.8979  -17.1576   24.5641 O   0  0  0  0  0  0  0  0  0  0  0  0
   11.6625  -18.1456   23.5060 O   0  0  0  0  0  0  0  0  0  0  0  0
   11.8507  -17.9173   24.8672 C   0  0  0  0  0  0  0  0  0  0  0  0
   10.4793  -17.7050   25.5165 C   0  0  2  0  0  0  0  0  0  0  0  0
   10.0098  -16.4207   25.0525 N   0  0  0  0  0  0  0  0  0  0  0  0
   10.6856  -17.6378   26.9762 C   0  0  0  0  0  0  0  0  0  0  0  0
   10.7414  -16.5453   27.5931 O   0  0  0  0  0  0  0  0  0  0  0  0
   10.8223  -18.8116   27.6913 O   0  0  0  0  0  0  0  0  0  0  0  0
  2  4  1  0
  2  1  1  1
  3  2  1  0
  4  5  1  1
  6  4  1  0
  7  6  2  0
  9  8  1  1
  9 11  1  0
  9 10  1  0
 10  6  1  0
 11 12  2  0
 14 13  1  0
 15 14  1  6
 16 11  1  0
 16 15  1  0
 17 19  1  0
 17 15  1  0
 18 17  2  0
M  END
$$$$
