VAS.pdb
     RDKit          3D

 19 18  0  0  1  0  0  0  0  0999 V2000
    6.2235  -18.2368   22.1518 C   0  0  0  0  0  0  0  0  0  0  0  0
    5.1743  -17.4307   21.4169 C   0  0  2  0  0  0  0  0  0  0  0  0
    3.8485  -18.1606   21.4290 C   0  0  0  0  0  0  0  0  0  0  0  0
    5.6180  -17.1162   19.9991 C   0  0  2  0  0  0  0  0  0  0  0  0
    5.9673  -18.3148   19.2722 N   0  0  0  0  0  0  0  0  0  0  0  0
    6.7791  -16.2048   20.0920 C   0  0  0  0  0  0  0  0  0  0  0  0
    7.9326  -16.7061   19.9419 O   0  0  0  0  0  0  0  0  0  0  0  0
    7.4114  -12.5313   20.1891 C   0  0  0  0  0  0  0  0  0  0  0  0
    7.8188  -13.9886   20.3272 C   0  0  2  0  0  0  0  0  0  0  0  0
    6.6516  -14.8101   20.3393 N   0  0  0  0  0  0  0  0  0  0  0  0
    8.6110  -14.0910   21.5813 C   0  0  0  0  0  0  0  0  0  0  0  0
    9.7069  -13.5414   21.7719 O   0  0  0  0  0  0  0  0  0  0  0  0
    6.7276  -16.2717   24.4165 O   0  0  0  0  0  0  0  0  0  0  0  0
    7.5761  -15.2894   24.9219 C   0  0  0  0  0  0  0  0  0  0  0  0
    8.7012  -15.0539   23.9090 C   0  0  2  0  0  0  0  0  0  0  0  0
    8.0583  -14.8796   22.6278 N   0  0  0  0  0  0  0  0  0  0  0  0
    9.5232  -16.2787   23.8668 C   0  0  0  0  0  0  0  0  0  0  0  0
    9.5356  -17.0405   22.8683 O   0  0  0  0  0  0  0  0  0  0  0  0
   10.3057  -16.6021   24.9581 O   0  0  0  0  0  0  0  0  0  0  0  0
  2  4  1  0
  2  1  1  6
  3  2  1  0
  4  5  1  1
  6  4  1  0
  7  6  2  0
  9  8  1  1
  9 11  1  0
  9 10  1  0
 10  6  1  0
 11 12  2  0
 14 13  1  0
 15 14  1  1
 16 11  1  0
 16 15  1  0
 17 19  1  0
 17 15  1  0
 18 17  2  0
M  END
$$$$
