VAS.pdb
     RDKit          3D

 19 18  0  0  1  0  0  0  0  0999 V2000
    8.6792  -12.3273   19.6388 C   0  0  0  0  0  0  0  0  0  0  0  0
    7.6512  -13.4356   19.5647 C   0  0  2  0  0  0  0  0  0  0  0  0
    6.7083  -13.3561   20.7458 C   0  0  0  0  0  0  0  0  0  0  0  0
    8.3180  -14.7974   19.4817 C   0  0  2  0  0  0  0  0  0  0  0  0
    7.3491  -15.8552   19.3100 N   0  0  0  0  0  0  0  0  0  0  0  0
    9.0853  -14.9899   20.7313 C   0  0  0  0  0  0  0  0  0  0  0  0
   10.1440  -14.3109   20.8808 O   0  0  0  0  0  0  0  0  0  0  0  0
    8.6952  -16.7505   24.0034 C   0  0  0  0  0  0  0  0  0  0  0  0
    9.4797  -16.0072   22.9353 C   0  0  2  0  0  0  0  0  0  0  0  0
    8.6860  -15.8936   21.7544 N   0  0  0  0  0  0  0  0  0  0  0  0
   10.7337  -16.7757   22.7174 C   0  0  0  0  0  0  0  0  0  0  0  0
   10.8528  -17.7248   21.9270 O   0  0  0  0  0  0  0  0  0  0  0  0
   15.0269  -15.7433   24.0734 O   0  0  0  0  0  0  0  0  0  0  0  0
   14.1537  -15.9159   23.0018 C   0  0  0  0  0  0  0  0  0  0  0  0
   13.1578  -17.0228   23.3624 C   0  0  2  0  0  0  0  0  0  0  0  0
   11.8691  -16.3817   23.4778 N   0  0  0  0  0  0  0  0  0  0  0  0
   13.5453  -17.5545   24.6834 C   0  0  0  0  0  0  0  0  0  0  0  0
   12.8398  -17.3780   25.7073 O   0  0  0  0  0  0  0  0  0  0  0  0
   14.7208  -18.2698   24.8026 O   0  0  0  0  0  0  0  0  0  0  0  0
  2  4  1  0
  2  1  1  1
  3  2  1  0
  4  5  1  1
  6  4  1  0
  7  6  2  0
  9  8  1  1
  9 11  1  0
  9 10  1  0
 10  6  1  0
 11 12  2  0
 14 13  1  0
 15 14  1  1
 16 11  1  0
 16 15  1  0
 17 19  1  0
 17 15  1  0
 18 17  2  0
M  END
$$$$
