VAS.pdb
     RDKit          3D

 19 18  0  0  1  0  0  0  0  0999 V2000
    7.1962  -14.4215   17.9305 C   0  0  0  0  0  0  0  0  0  0  0  0
    7.7912  -14.6214   19.3077 C   0  0  2  0  0  0  0  0  0  0  0  0
    7.0416  -15.7065   20.0502 C   0  0  0  0  0  0  0  0  0  0  0  0
    7.8032  -13.3222   20.0937 C   0  0  2  0  0  0  0  0  0  0  0  0
    8.5674  -12.2986   19.4190 N   0  0  0  0  0  0  0  0  0  0  0  0
    8.3825  -13.6157   21.4225 C   0  0  0  0  0  0  0  0  0  0  0  0
    9.6209  -13.8755   21.4788 O   0  0  0  0  0  0  0  0  0  0  0  0
    7.2756  -13.7621   24.9979 C   0  0  0  0  0  0  0  0  0  0  0  0
    8.2277  -14.0229   23.8428 C   0  0  2  0  0  0  0  0  0  0  0  0
    7.6144  -13.6172   22.6195 N   0  0  0  0  0  0  0  0  0  0  0  0
    8.5476  -15.4746   23.8757 C   0  0  0  0  0  0  0  0  0  0  0  0
    7.7794  -16.3761   23.5061 O   0  0  0  0  0  0  0  0  0  0  0  0
   12.2359  -18.4960   24.0168 O   0  0  0  0  0  0  0  0  0  0  0  0
   11.7339  -17.1993   23.9336 C   0  0  0  0  0  0  0  0  0  0  0  0
   10.2891  -17.2061   24.4433 C   0  0  2  0  0  0  0  0  0  0  0  0
    9.8306  -15.8388   24.3693 N   0  0  0  0  0  0  0  0  0  0  0  0
   10.3205  -17.6220   25.8589 C   0  0  0  0  0  0  0  0  0  0  0  0
   10.1418  -16.8077   26.7982 O   0  0  0  0  0  0  0  0  0  0  0  0
   10.5537  -18.9484   26.1657 O   0  0  0  0  0  0  0  0  0  0  0  0
  2  4  1  0
  2  1  1  6
  3  2  1  0
  4  5  1  6
  6  4  1  0
  7  6  2  0
  9  8  1  1
  9 11  1  0
  9 10  1  0
 10  6  1  0
 11 12  2  0
 14 13  1  0
 15 14  1  1
 16 11  1  0
 16 15  1  0
 17 19  1  0
 17 15  1  0
 18 17  2  0
M  END
$$$$
