VAS.pdb
     RDKit          3D

 19 18  0  0  1  0  0  0  0  0999 V2000
    7.0975  -19.2298   17.7451 C   0  0  0  0  0  0  0  0  0  0  0  0
    7.7385  -18.5287   18.9234 C   0  0  2  0  0  0  0  0  0  0  0  0
    7.0306  -18.9063   20.2067 C   0  0  0  0  0  0  0  0  0  0  0  0
    7.7536  -17.0234   18.7239 C   0  0  2  0  0  0  0  0  0  0  0  0
    8.3320  -16.6608   17.4507 N   0  0  0  0  0  0  0  0  0  0  0  0
    8.5325  -16.4386   19.8368 C   0  0  0  0  0  0  0  0  0  0  0  0
    9.7854  -16.6246   19.8380 O   0  0  0  0  0  0  0  0  0  0  0  0
    7.9346  -14.2652   22.8295 C   0  0  0  0  0  0  0  0  0  0  0  0
    8.7657  -15.1575   21.9230 C   0  0  2  0  0  0  0  0  0  0  0  0
    7.9379  -15.6877   20.8881 N   0  0  0  0  0  0  0  0  0  0  0  0
    9.3549  -16.2123   22.7897 C   0  0  0  0  0  0  0  0  0  0  0  0
    8.7545  -17.2274   23.1749 O   0  0  0  0  0  0  0  0  0  0  0  0
   13.3076  -16.8025   22.6256 O   0  0  0  0  0  0  0  0  0  0  0  0
   12.8930  -16.5986   23.9397 C   0  0  0  0  0  0  0  0  0  0  0  0
   11.4090  -16.9654   24.0414 C   0  0  2  0  0  0  0  0  0  0  0  0
   10.7050  -16.0288   23.1974 N   0  0  0  0  0  0  0  0  0  0  0  0
   10.9942  -16.7502   25.4411 C   0  0  0  0  0  0  0  0  0  0  0  0
   10.1974  -15.8363   25.7685 O   0  0  0  0  0  0  0  0  0  0  0  0
   11.4956  -17.5781   26.4266 O   0  0  0  0  0  0  0  0  0  0  0  0
  2  4  1  0
  2  1  1  6
  3  2  1  0
  4  5  1  6
  6  4  1  0
  7  6  2  0
  9  8  1  1
  9 11  1  0
  9 10  1  0
 10  6  1  0
 11 12  2  0
 14 13  1  0
 15 14  1  1
 16 11  1  0
 16 15  1  0
 17 19  1  0
 17 15  1  0
 18 17  2  0
M  END
$$$$
