VAS.pdb
     RDKit          3D

 19 18  0  0  1  0  0  0  0  0999 V2000
    7.7131  -12.1621   19.1863 C   0  0  0  0  0  0  0  0  0  0  0  0
    8.4751  -13.2837   19.8586 C   0  0  2  0  0  0  0  0  0  0  0  0
    9.9608  -12.9959   19.8354 C   0  0  0  0  0  0  0  0  0  0  0  0
    8.1624  -14.6225   19.2139 C   0  0  2  0  0  0  0  0  0  0  0  0
    6.7501  -14.9221   19.2667 N   0  0  0  0  0  0  0  0  0  0  0  0
    8.9418  -15.6522   19.9346 C   0  0  0  0  0  0  0  0  0  0  0  0
    8.5505  -15.9806   21.0937 O   0  0  0  0  0  0  0  0  0  0  0  0
   11.8145  -17.9570   19.2658 C   0  0  0  0  0  0  0  0  0  0  0  0
   10.7762  -17.2770   20.1423 C   0  0  2  0  0  0  0  0  0  0  0  0
   10.0949  -16.2773   19.3848 N   0  0  0  0  0  0  0  0  0  0  0  0
   11.5067  -16.7192   21.3110 C   0  0  0  0  0  0  0  0  0  0  0  0
   11.8105  -15.5242   21.4499 O   0  0  0  0  0  0  0  0  0  0  0  0
   11.2107  -16.5450   25.7019 O   0  0  0  0  0  0  0  0  0  0  0  0
   10.9170  -16.9737   24.4094 C   0  0  0  0  0  0  0  0  0  0  0  0
   12.2360  -17.2225   23.6707 C   0  0  2  0  0  0  0  0  0  0  0  0
   11.8763  -17.6349   22.3345 N   0  0  0  0  0  0  0  0  0  0  0  0
   12.9186  -18.3423   24.3474 C   0  0  0  0  0  0  0  0  0  0  0  0
   12.6202  -19.5410   24.1209 O   0  0  0  0  0  0  0  0  0  0  0  0
   13.9185  -18.0683   25.2600 O   0  0  0  0  0  0  0  0  0  0  0  0
  2  4  1  0
  2  1  1  6
  3  2  1  0
  4  5  1  1
  6  4  1  0
  7  6  2  0
  9  8  1  6
  9 11  1  0
  9 10  1  0
 10  6  1  0
 11 12  2  0
 14 13  1  0
 15 14  1  1
 16 11  1  0
 16 15  1  0
 17 19  1  0
 17 15  1  0
 18 17  2  0
M  END
$$$$
