VAS.pdb
     RDKit          3D

 19 18  0  0  1  0  0  0  0  0999 V2000
    8.3014  -13.1085   18.2680 C   0  0  0  0  0  0  0  0  0  0  0  0
    7.8627  -13.4972   19.6634 C   0  0  2  0  0  0  0  0  0  0  0  0
    8.4714  -12.5605   20.6845 C   0  0  0  0  0  0  0  0  0  0  0  0
    8.2118  -14.9441   19.9648 C   0  0  2  0  0  0  0  0  0  0  0  0
    7.5902  -15.8487   19.0255 N   0  0  0  0  0  0  0  0  0  0  0  0
    7.7579  -15.2296   21.3431 C   0  0  0  0  0  0  0  0  0  0  0  0
    6.5100  -15.3035   21.5470 O   0  0  0  0  0  0  0  0  0  0  0  0
    8.5972  -17.0488   24.2022 C   0  0  0  0  0  0  0  0  0  0  0  0
    8.1296  -15.6818   23.7317 C   0  0  2  0  0  0  0  0  0  0  0  0
    8.6547  -15.4211   22.4303 N   0  0  0  0  0  0  0  0  0  0  0  0
    8.5926  -14.7013   24.7491 C   0  0  0  0  0  0  0  0  0  0  0  0
    9.7354  -14.2208   24.7988 O   0  0  0  0  0  0  0  0  0  0  0  0
    5.8534  -12.1763   26.2185 O   0  0  0  0  0  0  0  0  0  0  0  0
    6.5420  -12.8256   27.2405 C   0  0  0  0  0  0  0  0  0  0  0  0
    7.9082  -13.2624   26.7021 C   0  0  2  0  0  0  0  0  0  0  0  0
    7.6445  -14.2956   25.7284 N   0  0  0  0  0  0  0  0  0  0  0  0
    8.6611  -13.8493   27.8274 C   0  0  0  0  0  0  0  0  0  0  0  0
    8.9303  -15.0747   27.8839 O   0  0  0  0  0  0  0  0  0  0  0  0
    9.0855  -13.0286   28.8541 O   0  0  0  0  0  0  0  0  0  0  0  0
  2  4  1  0
  2  1  1  6
  3  2  1  0
  4  5  1  6
  6  4  1  0
  7  6  2  0
  9  8  1  1
  9 11  1  0
  9 10  1  0
 10  6  1  0
 11 12  2  0
 14 13  1  0
 15 14  1  1
 16 11  1  0
 16 15  1  0
 17 19  1  0
 17 15  1  0
 18 17  2  0
M  END
$$$$
