VAS.pdb
     RDKit          3D

 19 18  0  0  1  0  0  0  0  0999 V2000
    8.9709  -16.3654   17.6559 C   0  0  0  0  0  0  0  0  0  0  0  0
    7.6247  -15.6955   17.8277 C   0  0  2  0  0  0  0  0  0  0  0  0
    6.8278  -15.7831   16.5439 C   0  0  0  0  0  0  0  0  0  0  0  0
    7.7828  -14.2551   18.2817 C   0  0  2  0  0  0  0  0  0  0  0  0
    8.5185  -13.4705   17.3171 N   0  0  0  0  0  0  0  0  0  0  0  0
    8.4863  -14.2770   19.5823 C   0  0  0  0  0  0  0  0  0  0  0  0
    9.7522  -14.3164   19.5647 O   0  0  0  0  0  0  0  0  0  0  0  0
    7.6681  -14.0900   23.2285 C   0  0  0  0  0  0  0  0  0  0  0  0
    8.5550  -14.4104   22.0370 C   0  0  2  0  0  0  0  0  0  0  0  0
    7.8066  -14.2560   20.8314 N   0  0  0  0  0  0  0  0  0  0  0  0
    9.0496  -15.7983   22.2369 C   0  0  0  0  0  0  0  0  0  0  0  0
    8.4226  -16.8234   21.9278 O   0  0  0  0  0  0  0  0  0  0  0  0
   12.8340  -15.9086   23.6301 O   0  0  0  0  0  0  0  0  0  0  0  0
   12.4340  -17.0590   22.9541 C   0  0  0  0  0  0  0  0  0  0  0  0
   10.9220  -17.2261   23.1361 C   0  0  2  0  0  0  0  0  0  0  0  0
   10.3358  -15.9434   22.8260 N   0  0  0  0  0  0  0  0  0  0  0  0
   10.6777  -17.5298   24.5594 C   0  0  0  0  0  0  0  0  0  0  0  0
   10.0066  -16.7683   25.2991 O   0  0  0  0  0  0  0  0  0  0  0  0
   11.2021  -18.6876   25.1002 O   0  0  0  0  0  0  0  0  0  0  0  0
  2  4  1  0
  2  1  1  6
  3  2  1  0
  4  5  1  6
  6  4  1  0
  7  6  2  0
  9  8  1  1
  9 11  1  0
  9 10  1  0
 10  6  1  0
 11 12  2  0
 14 13  1  0
 15 14  1  1
 16 11  1  0
 16 15  1  0
 17 19  1  0
 17 15  1  0
 18 17  2  0
M  END
$$$$
