VAS.pdb
     RDKit          3D

 19 18  0  0  1  0  0  0  0  0999 V2000
    8.6521  -17.5310   16.2478 C   0  0  0  0  0  0  0  0  0  0  0  0
    7.7552  -16.3962   15.8022 C   0  0  2  0  0  0  0  0  0  0  0  0
    7.0722  -16.7486   14.4984 C   0  0  0  0  0  0  0  0  0  0  0  0
    8.5322  -15.0969   15.6845 C   0  0  2  0  0  0  0  0  0  0  0  0
    9.6383  -15.2195   14.7632 N   0  0  0  0  0  0  0  0  0  0  0  0
    9.0161  -14.7479   17.0377 C   0  0  0  0  0  0  0  0  0  0  0  0
   10.1236  -15.2373   17.4097 O   0  0  0  0  0  0  0  0  0  0  0  0
    7.8681  -12.7328   19.9844 C   0  0  0  0  0  0  0  0  0  0  0  0
    8.8046  -13.6667   19.2364 C   0  0  2  0  0  0  0  0  0  0  0  0
    8.2970  -13.8978   17.9225 N   0  0  0  0  0  0  0  0  0  0  0  0
    8.9006  -14.9099   20.0462 C   0  0  0  0  0  0  0  0  0  0  0  0
    8.0422  -15.8055   20.0707 O   0  0  0  0  0  0  0  0  0  0  0  0
   12.6018  -15.5933   21.4517 O   0  0  0  0  0  0  0  0  0  0  0  0
   11.7536  -16.6865   21.2913 C   0  0  0  0  0  0  0  0  0  0  0  0
   10.3271  -16.2470   21.6369 C   0  0  2  0  0  0  0  0  0  0  0  0
   10.0668  -15.0683   20.8446 N   0  0  0  0  0  0  0  0  0  0  0  0
   10.3119  -15.8742   23.0647 C   0  0  0  0  0  0  0  0  0  0  0  0
   10.1688  -14.6851   23.4428 O   0  0  0  0  0  0  0  0  0  0  0  0
   10.4594  -16.8612   24.0197 O   0  0  0  0  0  0  0  0  0  0  0  0
  2  4  1  0
  2  1  1  6
  3  2  1  0
  4  5  1  6
  6  4  1  0
  7  6  2  0
  9  8  1  1
  9 11  1  0
  9 10  1  0
 10  6  1  0
 11 12  2  0
 14 13  1  0
 15 14  1  6
 16 11  1  0
 16 15  1  0
 17 19  1  0
 17 15  1  0
 18 17  2  0
M  END
$$$$
