VAS.pdb
     RDKit          3D

 19 18  0  0  1  0  0  0  0  0999 V2000
    7.3940  -14.8423   17.0912 C   0  0  0  0  0  0  0  0  0  0  0  0
    8.0044  -14.9546   18.4716 C   0  0  2  0  0  0  0  0  0  0  0  0
    7.4211  -16.1413   19.2079 C   0  0  0  0  0  0  0  0  0  0  0  0
    7.8179  -13.6701   19.2598 C   0  0  2  0  0  0  0  0  0  0  0  0
    8.3994  -12.5374   18.5774 N   0  0  0  0  0  0  0  0  0  0  0  0
    8.4535  -13.8666   20.5806 C   0  0  0  0  0  0  0  0  0  0  0  0
    9.7133  -13.9929   20.6131 O   0  0  0  0  0  0  0  0  0  0  0  0
    7.4733  -13.9232   24.1901 C   0  0  0  0  0  0  0  0  0  0  0  0
    8.3999  -14.1960   23.0172 C   0  0  2  0  0  0  0  0  0  0  0  0
    7.7158  -13.9184   21.7956 N   0  0  0  0  0  0  0  0  0  0  0  0
    8.8240  -15.6164   23.1325 C   0  0  0  0  0  0  0  0  0  0  0  0
    8.1013  -16.5926   22.8788 O   0  0  0  0  0  0  0  0  0  0  0  0
   12.7693  -15.9991   23.8150 O   0  0  0  0  0  0  0  0  0  0  0  0
   12.1569  -17.0971   23.2152 C   0  0  0  0  0  0  0  0  0  0  0  0
   10.7122  -17.1801   23.7182 C   0  0  2  0  0  0  0  0  0  0  0  0
   10.1572  -15.8557   23.5660 N   0  0  0  0  0  0  0  0  0  0  0  0
   10.7615  -17.5137   25.1549 C   0  0  0  0  0  0  0  0  0  0  0  0
   10.3854  -16.7070   26.0410 O   0  0  0  0  0  0  0  0  0  0  0  0
   11.2357  -18.7517   25.5425 O   0  0  0  0  0  0  0  0  0  0  0  0
  2  4  1  0
  2  1  1  6
  3  2  1  0
  4  5  1  6
  6  4  1  0
  7  6  2  0
  9  8  1  1
  9 11  1  0
  9 10  1  0
 10  6  1  0
 11 12  2  0
 14 13  1  0
 15 14  1  1
 16 11  1  0
 16 15  1  0
 17 19  1  0
 17 15  1  0
 18 17  2  0
M  END
$$$$
