VAS.pdb
     RDKit          3D

 19 18  0  0  1  0  0  0  0  0999 V2000
    7.1952  -12.3148   19.3365 C   0  0  0  0  0  0  0  0  0  0  0  0
    8.0090  -13.3508   20.0817 C   0  0  2  0  0  0  0  0  0  0  0  0
    9.4225  -13.3943   19.5425 C   0  0  0  0  0  0  0  0  0  0  0  0
    7.3506  -14.7175   20.0144 C   0  0  2  0  0  0  0  0  0  0  0  0
    6.0147  -14.6926   20.5638 N   0  0  0  0  0  0  0  0  0  0  0  0
    8.2077  -15.6579   20.7683 C   0  0  0  0  0  0  0  0  0  0  0  0
    8.1459  -15.6238   22.0330 O   0  0  0  0  0  0  0  0  0  0  0  0
   10.4962  -18.5299   20.0374 C   0  0  0  0  0  0  0  0  0  0  0  0
    9.8057  -17.5194   20.9380 C   0  0  2  0  0  0  0  0  0  0  0  0
    9.0841  -16.5835   20.1376 N   0  0  0  0  0  0  0  0  0  0  0  0
   10.8713  -16.8809   21.7551 C   0  0  0  0  0  0  0  0  0  0  0  0
   11.6792  -16.0403   21.3307 O   0  0  0  0  0  0  0  0  0  0  0  0
   10.7840  -18.0997   25.6141 O   0  0  0  0  0  0  0  0  0  0  0  0
   11.1636  -16.7713   25.4363 C   0  0  0  0  0  0  0  0  0  0  0  0
   11.8419  -16.6407   24.0688 C   0  0  2  0  0  0  0  0  0  0  0  0
   10.9568  -17.2733   23.1193 N   0  0  0  0  0  0  0  0  0  0  0  0
   13.1038  -17.4038   24.1253 C   0  0  0  0  0  0  0  0  0  0  0  0
   13.2355  -18.5190   23.5630 O   0  0  0  0  0  0  0  0  0  0  0  0
   14.1774  -16.8787   24.8178 O   0  0  0  0  0  0  0  0  0  0  0  0
  2  4  1  0
  2  1  1  6
  3  2  1  0
  4  5  1  1
  6  4  1  0
  7  6  2  0
  9  8  1  6
  9 11  1  0
  9 10  1  0
 10  6  1  0
 11 12  2  0
 14 13  1  0
 15 14  1  1
 16 11  1  0
 16 15  1  0
 17 19  1  0
 17 15  1  0
 18 17  2  0
M  END
$$$$
