VAS.pdb
     RDKit          3D

 19 18  0  0  1  0  0  0  0  0999 V2000
   13.1102  -23.6559   16.7252 C   0  0  0  0  0  0  0  0  0  0  0  0
   12.7709  -23.1045   15.3571 C   0  0  2  0  0  0  0  0  0  0  0  0
   13.1476  -21.6411   15.2733 C   0  0  0  0  0  0  0  0  0  0  0  0
   11.3034  -23.3161   15.0291 C   0  0  2  0  0  0  0  0  0  0  0  0
   11.0196  -23.0218   13.6435 N   0  0  0  0  0  0  0  0  0  0  0  0
   10.5202  -22.4342   15.9213 C   0  0  0  0  0  0  0  0  0  0  0  0
   10.5346  -21.1911   15.6786 O   0  0  0  0  0  0  0  0  0  0  0  0
    7.6673  -22.6451   18.1721 C   0  0  0  0  0  0  0  0  0  0  0  0
    8.9946  -22.0049   17.8018 C   0  0  2  0  0  0  0  0  0  0  0  0
    9.7640  -22.9209   17.0231 N   0  0  0  0  0  0  0  0  0  0  0  0
    9.6578  -21.6329   19.0795 C   0  0  0  0  0  0  0  0  0  0  0  0
    9.1444  -20.9300   19.9638 O   0  0  0  0  0  0  0  0  0  0  0  0
   11.8297  -22.9290   22.6885 O   0  0  0  0  0  0  0  0  0  0  0  0
   11.0674  -22.9370   21.5226 C   0  0  0  0  0  0  0  0  0  0  0  0
   11.6957  -21.9567   20.5269 C   0  0  2  0  0  0  0  0  0  0  0  0
   10.9752  -22.1265   19.2871 N   0  0  0  0  0  0  0  0  0  0  0  0
   13.0979  -22.3695   20.3234 C   0  0  0  0  0  0  0  0  0  0  0  0
   13.4074  -23.3487   19.6004 O   0  0  0  0  0  0  0  0  0  0  0  0
   14.1057  -21.6593   20.9460 O   0  0  0  0  0  0  0  0  0  0  0  0
  2  4  1  0
  2  1  1  1
  3  2  1  0
  4  5  1  6
  6  4  1  0
  7  6  2  0
  9  8  1  1
  9 11  1  0
  9 10  1  0
 10  6  1  0
 11 12  2  0
 14 13  1  0
 15 14  1  1
 16 11  1  0
 16 15  1  0
 17 19  1  0
 17 15  1  0
 18 17  2  0
M  END
$$$$
