VAS.pdb
     RDKit          3D

 19 18  0  0  1  0  0  0  0  0999 V2000
    5.1037  -21.0984   22.5555 C   0  0  0  0  0  0  0  0  0  0  0  0
    4.1274  -19.9448   22.4739 C   0  0  2  0  0  0  0  0  0  0  0  0
    2.8728  -20.3704   21.7422 C   0  0  0  0  0  0  0  0  0  0  0  0
    4.7645  -18.7327   21.8175 C   0  0  2  0  0  0  0  0  0  0  0  0
    5.1512  -19.0077   20.4530 N   0  0  0  0  0  0  0  0  0  0  0  0
    5.9432  -18.3598   22.6292 C   0  0  0  0  0  0  0  0  0  0  0  0
    7.0512  -18.9002   22.3383 O   0  0  0  0  0  0  0  0  0  0  0  0
    6.7992  -15.9625   25.3754 C   0  0  0  0  0  0  0  0  0  0  0  0
    7.0718  -17.1177   24.4268 C   0  0  2  0  0  0  0  0  0  0  0  0
    5.8808  -17.4329   23.7061 N   0  0  0  0  0  0  0  0  0  0  0  0
    7.5584  -18.2474   25.2621 C   0  0  0  0  0  0  0  0  0  0  0  0
    6.8300  -18.9963   25.9316 O   0  0  0  0  0  0  0  0  0  0  0  0
   11.5734  -18.6830   25.0699 O   0  0  0  0  0  0  0  0  0  0  0  0
   10.8840  -19.8759   25.2747 C   0  0  0  0  0  0  0  0  0  0  0  0
    9.5769  -19.5595   26.0086 C   0  0  2  0  0  0  0  0  0  0  0  0
    8.9625  -18.4719   25.2842 N   0  0  0  0  0  0  0  0  0  0  0  0
    9.9309  -19.0904   27.3622 C   0  0  0  0  0  0  0  0  0  0  0  0
    9.7773  -17.8952   27.7161 O   0  0  0  0  0  0  0  0  0  0  0  0
   10.4483  -19.9910   28.2728 O   0  0  0  0  0  0  0  0  0  0  0  0
  2  4  1  0
  2  1  1  6
  3  2  1  0
  4  5  1  6
  6  4  1  0
  7  6  2  0
  9  8  1  1
  9 11  1  0
  9 10  1  0
 10  6  1  0
 11 12  2  0
 14 13  1  0
 15 14  1  6
 16 11  1  0
 16 15  1  0
 17 19  1  0
 17 15  1  0
 18 17  2  0
M  END
$$$$
