VAS.pdb
     RDKit          3D

 19 18  0  0  1  0  0  0  0  0999 V2000
    6.8269  -17.3306   18.7502 C   0  0  0  0  0  0  0  0  0  0  0  0
    7.3464  -17.0536   20.1445 C   0  0  2  0  0  0  0  0  0  0  0  0
    6.2827  -17.3717   21.1732 C   0  0  0  0  0  0  0  0  0  0  0  0
    7.8290  -15.6197   20.2752 C   0  0  2  0  0  0  0  0  0  0  0  0
    8.8647  -15.3169   19.3146 N   0  0  0  0  0  0  0  0  0  0  0  0
    8.3305  -15.4469   21.6557 C   0  0  0  0  0  0  0  0  0  0  0  0
    9.4220  -16.0133   21.9592 O   0  0  0  0  0  0  0  0  0  0  0  0
    7.2910  -13.7145   24.8144 C   0  0  0  0  0  0  0  0  0  0  0  0
    8.1601  -14.6306   23.9692 C   0  0  2  0  0  0  0  0  0  0  0  0
    7.6449  -14.6816   22.6390 N   0  0  0  0  0  0  0  0  0  0  0  0
    8.1581  -15.9569   24.6413 C   0  0  0  0  0  0  0  0  0  0  0  0
    7.1693  -16.7007   24.7341 O   0  0  0  0  0  0  0  0  0  0  0  0
   11.4813  -17.9186   24.5283 O   0  0  0  0  0  0  0  0  0  0  0  0
   10.3015  -18.5623   24.8944 C   0  0  0  0  0  0  0  0  0  0  0  0
    9.5437  -17.6624   25.8759 C   0  0  2  0  0  0  0  0  0  0  0  0
    9.3862  -16.3890   25.2137 N   0  0  0  0  0  0  0  0  0  0  0  0
   10.4019  -17.4794   27.0624 C   0  0  0  0  0  0  0  0  0  0  0  0
   10.7239  -18.4376   27.8078 O   0  0  0  0  0  0  0  0  0  0  0  0
   10.8684  -16.2156   27.3672 O   0  0  0  0  0  0  0  0  0  0  0  0
  2  4  1  0
  2  1  1  6
  3  2  1  0
  4  5  1  6
  6  4  1  0
  7  6  2  0
  9  8  1  1
  9 11  1  0
  9 10  1  0
 10  6  1  0
 11 12  2  0
 14 13  1  0
 15 14  1  6
 16 11  1  0
 16 15  1  0
 17 19  1  0
 17 15  1  0
 18 17  2  0
M  END
$$$$
