VAS.pdb
     RDKit          3D

 19 18  0  0  1  0  0  0  0  0999 V2000
    7.8234  -13.4138   21.0421 C   0  0  0  0  0  0  0  0  0  0  0  0
    8.8800  -13.1084   20.0024 C   0  0  2  0  0  0  0  0  0  0  0  0
    8.5567  -11.8120   19.2914 C   0  0  0  0  0  0  0  0  0  0  0  0
    9.0286  -14.2552   19.0182 C   0  0  2  0  0  0  0  0  0  0  0  0
    7.8023  -14.4977   18.2940 N   0  0  0  0  0  0  0  0  0  0  0  0
    9.4236  -15.4522   19.7918 C   0  0  0  0  0  0  0  0  0  0  0  0
    8.5016  -16.2218   20.1944 O   0  0  0  0  0  0  0  0  0  0  0  0
   12.4898  -17.3880   20.5751 C   0  0  0  0  0  0  0  0  0  0  0  0
   11.0678  -16.9357   20.8614 C   0  0  2  0  0  0  0  0  0  0  0  0
   10.7769  -15.7667   20.0958 N   0  0  0  0  0  0  0  0  0  0  0  0
   10.9833  -16.7026   22.3274 C   0  0  0  0  0  0  0  0  0  0  0  0
   11.2315  -15.6233   22.8869 O   0  0  0  0  0  0  0  0  0  0  0  0
    8.2267  -18.0596   24.6432 O   0  0  0  0  0  0  0  0  0  0  0  0
    9.4224  -18.6671   25.0197 C   0  0  0  0  0  0  0  0  0  0  0  0
   10.5820  -17.7698   24.5753 C   0  0  2  0  0  0  0  0  0  0  0  0
   10.5882  -17.8068   23.1319 N   0  0  0  0  0  0  0  0  0  0  0  0
   11.8302  -18.3799   25.0729 C   0  0  0  0  0  0  0  0  0  0  0  0
   12.6284  -18.9819   24.3127 O   0  0  0  0  0  0  0  0  0  0  0  0
   12.1349  -18.2884   26.4170 O   0  0  0  0  0  0  0  0  0  0  0  0
  2  4  1  0
  2  1  1  1
  3  2  1  0
  4  5  1  1
  6  4  1  0
  7  6  2  0
  9  8  1  1
  9 11  1  0
  9 10  1  0
 10  6  1  0
 11 12  2  0
 14 13  1  0
 15 14  1  1
 16 11  1  0
 16 15  1  0
 17 19  1  0
 17 15  1  0
 18 17  2  0
M  END
$$$$
