YQA.pdb
     RDKit          3D

 27 27  0  0  1  0  0  0  0  0999 V2000
    6.0850  -11.2141   28.9746 O   0  0  0  0  0  0  0  0  0  0  0  0
    6.5439  -12.0105   27.9137 C   0  0  0  0  0  0  0  0  0  0  0  0
    7.6713  -12.7459   28.1323 C   0  0  0  0  0  0  0  0  0  0  0  0
    8.1536  -13.5484   27.0970 C   0  0  0  0  0  0  0  0  0  0  0  0
    7.5271  -13.6135   25.8796 C   0  0  0  0  0  0  0  0  0  0  0  0
    8.0729  -14.4715   24.8244 C   0  0  0  0  0  0  0  0  0  0  0  0
    7.0272  -15.4672   24.3048 C   0  0  2  0  0  0  0  0  0  0  0  0
    6.8982  -16.5936   25.1723 N   0  0  0  0  0  0  0  0  0  0  0  0
    7.4772  -15.8381   22.9394 C   0  0  0  0  0  0  0  0  0  0  0  0
    7.8585  -17.0213   22.7715 O   0  0  0  0  0  0  0  0  0  0  0  0
    6.3950  -12.8666   25.6797 C   0  0  0  0  0  0  0  0  0  0  0  0
    5.8956  -12.0549   26.7069 C   0  0  0  0  0  0  0  0  0  0  0  0
    8.8119  -12.4421   17.6434 N   0  0  0  0  0  0  0  0  0  0  0  0
    8.4713  -13.7361   17.1648 C   0  0  0  0  0  0  0  0  0  0  0  0
    8.8079  -14.0514   16.0146 O   0  0  0  0  0  0  0  0  0  0  0  0
    7.7351  -14.6548   18.0339 C   0  0  0  0  0  0  0  0  0  0  0  0
    7.5409  -14.2700   19.4436 C   0  0  0  0  0  0  0  0  0  0  0  0
    7.7909  -15.2744   20.5033 C   0  0  2  0  0  0  0  0  0  0  0  0
    7.4910  -14.9277   21.8479 N   0  0  0  0  0  0  0  0  0  0  0  0
    9.2393  -15.6523   20.4245 C   0  0  0  0  0  0  0  0  0  0  0  0
    9.6089  -16.2052   19.3578 O   0  0  0  0  0  0  0  0  0  0  0  0
   12.4426  -14.6161   20.9732 C   0  0  0  0  0  0  0  0  0  0  0  0
   11.5534  -15.7993   21.2816 C   0  0  2  0  0  0  0  0  0  0  0  0
   10.1776  -15.4324   21.4385 N   0  0  0  0  0  0  0  0  0  0  0  0
   12.0839  -16.4306   22.5180 C   0  0  0  0  0  0  0  0  0  0  0  0
   13.3725  -16.8748   22.6309 O   0  0  0  0  0  0  0  0  0  0  0  0
   11.3185  -16.5618   23.4994 O   0  0  0  0  0  0  0  0  0  0  0  0
  2  3  2  0
  2  1  1  0
  4  3  1  0
  5  4  2  0
  6  5  1  0
  7  9  1  0
  7  6  1  0
  7  8  1  1
  9 10  2  0
 11  5  1  0
 11 12  2  0
 12  2  1  0
 14 15  2  0
 14 13  1  0
 16 14  1  0
 17 16  1  0
 18 17  1  6
 19  9  1  0
 19 18  1  0
 20 24  1  0
 20 18  1  0
 21 20  2  0
 23 22  1  1
 23 24  1  0
 25 23  1  0
 25 26  1  0
 27 25  2  0
M  END
$$$$
