YQA.pdb
     RDKit          3D

 27 27  0  0  1  0  0  0  0  0999 V2000
    8.9099  -12.6825   17.6650 O   0  0  0  0  0  0  0  0  0  0  0  0
    8.3965  -13.1761   18.8747 C   0  0  0  0  0  0  0  0  0  0  0  0
    7.0699  -13.4904   18.9035 C   0  0  0  0  0  0  0  0  0  0  0  0
    6.5286  -13.9838   20.0918 C   0  0  0  0  0  0  0  0  0  0  0  0
    7.2911  -14.1575   21.2175 C   0  0  0  0  0  0  0  0  0  0  0  0
    6.6758  -14.6789   22.4410 C   0  0  0  0  0  0  0  0  0  0  0  0
    6.5997  -16.2116   22.4294 C   0  0  2  0  0  0  0  0  0  0  0  0
    5.3263  -16.6705   21.9756 N   0  0  0  0  0  0  0  0  0  0  0  0
    6.9041  -16.6340   23.8198 C   0  0  0  0  0  0  0  0  0  0  0  0
    5.9280  -16.7716   24.5956 O   0  0  0  0  0  0  0  0  0  0  0  0
    8.6229  -13.8356   21.1681 C   0  0  0  0  0  0  0  0  0  0  0  0
    9.1845  -13.3390   19.9843 C   0  0  0  0  0  0  0  0  0  0  0  0
   10.8722  -21.0159   25.9029 N   0  0  0  0  0  0  0  0  0  0  0  0
   10.4045  -20.4092   27.0999 C   0  0  0  0  0  0  0  0  0  0  0  0
   10.6859  -20.9400   28.1838 O   0  0  0  0  0  0  0  0  0  0  0  0
    9.6066  -19.1851   27.0228 C   0  0  0  0  0  0  0  0  0  0  0  0
    9.2650  -18.6631   25.6871 C   0  0  0  0  0  0  0  0  0  0  0  0
    8.5470  -17.3717   25.5827 C   0  0  2  0  0  0  0  0  0  0  0  0
    8.2227  -16.8809   24.2896 N   0  0  0  0  0  0  0  0  0  0  0  0
    9.3807  -16.3418   26.2836 C   0  0  0  0  0  0  0  0  0  0  0  0
   10.5318  -16.1511   25.8158 O   0  0  0  0  0  0  0  0  0  0  0  0
    9.0968  -13.4748   28.6097 C   0  0  0  0  0  0  0  0  0  0  0  0
    9.8363  -14.6651   28.0421 C   0  0  2  0  0  0  0  0  0  0  0  0
    8.9659  -15.6014   27.3956 N   0  0  0  0  0  0  0  0  0  0  0  0
   10.5651  -15.3017   29.1700 C   0  0  0  0  0  0  0  0  0  0  0  0
   11.5585  -14.6680   29.8642 O   0  0  0  0  0  0  0  0  0  0  0  0
   10.2567  -16.4690   29.4996 O   0  0  0  0  0  0  0  0  0  0  0  0
  2  3  2  0
  2  1  1  0
  4  3  1  0
  5  4  2  0
  6  5  1  0
  7  9  1  0
  7  6  1  0
  7  8  1  1
  9 10  2  0
 11  5  1  0
 11 12  2  0
 12  2  1  0
 14 15  2  0
 14 13  1  0
 16 14  1  0
 17 16  1  0
 18 17  1  6
 19  9  1  0
 19 18  1  0
 20 24  1  0
 20 18  1  0
 21 20  2  0
 23 22  1  1
 23 24  1  0
 25 23  1  0
 25 26  1  0
 27 25  2  0
M  END
$$$$
