YQA.pdb
     RDKit          3D

 27 27  0  0  1  0  0  0  0  0999 V2000
    8.2535  -12.7042   16.4577 O   0  0  0  0  0  0  0  0  0  0  0  0
    8.1350  -13.1641   17.7786 C   0  0  0  0  0  0  0  0  0  0  0  0
    9.2147  -13.8036   18.3123 C   0  0  0  0  0  0  0  0  0  0  0  0
    9.1288  -14.2731   19.6240 C   0  0  0  0  0  0  0  0  0  0  0  0
    7.9970  -14.1081   20.3794 C   0  0  0  0  0  0  0  0  0  0  0  0
    7.9563  -14.6192   21.7521 C   0  0  0  0  0  0  0  0  0  0  0  0
    7.9936  -16.1529   21.7882 C   0  0  2  0  0  0  0  0  0  0  0  0
    6.7712  -16.7190   21.3158 N   0  0  0  0  0  0  0  0  0  0  0  0
    8.2879  -16.5091   23.1992 C   0  0  0  0  0  0  0  0  0  0  0  0
    7.3246  -16.4812   24.0023 O   0  0  0  0  0  0  0  0  0  0  0  0
    6.9222  -13.4626   19.8246 C   0  0  0  0  0  0  0  0  0  0  0  0
    6.9894  -12.9841   18.5093 C   0  0  0  0  0  0  0  0  0  0  0  0
   13.0370  -20.1385   25.6952 N   0  0  0  0  0  0  0  0  0  0  0  0
   12.4440  -19.5042   26.8203 C   0  0  0  0  0  0  0  0  0  0  0  0
   12.8369  -19.8164   27.9534 O   0  0  0  0  0  0  0  0  0  0  0  0
   11.3912  -18.5091   26.6142 C   0  0  0  0  0  0  0  0  0  0  0  0
   10.9895  -18.2013   25.2297 C   0  0  0  0  0  0  0  0  0  0  0  0
    9.9026  -17.2220   24.9980 C   0  0  2  0  0  0  0  0  0  0  0  0
    9.5836  -16.8700   23.6591 N   0  0  0  0  0  0  0  0  0  0  0  0
   10.2650  -15.9719   25.7416 C   0  0  0  0  0  0  0  0  0  0  0  0
   11.2748  -15.3522   25.3215 O   0  0  0  0  0  0  0  0  0  0  0  0
    9.0091  -13.2227   27.6566 C   0  0  0  0  0  0  0  0  0  0  0  0
   10.0361  -14.3293   27.5748 C   0  0  2  0  0  0  0  0  0  0  0  0
    9.5662  -15.4683   26.8439 N   0  0  0  0  0  0  0  0  0  0  0  0
   10.3901  -14.6972   28.9704 C   0  0  0  0  0  0  0  0  0  0  0  0
   10.2610  -15.9680   29.4590 O   0  0  0  0  0  0  0  0  0  0  0  0
   10.8256  -13.8053   29.7328 O   0  0  0  0  0  0  0  0  0  0  0  0
  2  3  2  0
  2  1  1  0
  4  3  1  0
  5  4  2  0
  6  5  1  0
  7  9  1  0
  7  6  1  0
  7  8  1  1
  9 10  2  0
 11  5  1  0
 11 12  2  0
 12  2  1  0
 14 15  2  0
 14 13  1  0
 16 14  1  0
 17 16  1  0
 18 17  1  6
 19  9  1  0
 19 18  1  0
 20 24  1  0
 20 18  1  0
 21 20  2  0
 23 22  1  1
 23 24  1  0
 25 23  1  0
 25 26  1  0
 27 25  2  0
M  END
$$$$
