YQA.pdb
     RDKit          3D

 27 27  0  0  1  0  0  0  0  0999 V2000
    6.4470  -13.4603   16.4632 O   0  0  0  0  0  0  0  0  0  0  0  0
    7.2591  -13.7128   17.5800 C   0  0  0  0  0  0  0  0  0  0  0  0
    6.9752  -13.0241   18.7222 C   0  0  0  0  0  0  0  0  0  0  0  0
    7.7643  -13.2526   19.8507 C   0  0  0  0  0  0  0  0  0  0  0  0
    8.8062  -14.1432   19.8373 C   0  0  0  0  0  0  0  0  0  0  0  0
    9.6053  -14.3479   21.0484 C   0  0  0  0  0  0  0  0  0  0  0  0
   10.0966  -15.7969   21.1662 C   0  0  2  0  0  0  0  0  0  0  0  0
    9.0114  -16.7059   21.3500 N   0  0  0  0  0  0  0  0  0  0  0  0
   11.0520  -15.8003   22.3027 C   0  0  0  0  0  0  0  0  0  0  0  0
   11.9725  -14.9487   22.2703 O   0  0  0  0  0  0  0  0  0  0  0  0
    9.0755  -14.8257   18.6791 C   0  0  0  0  0  0  0  0  0  0  0  0
    8.2945  -14.6099   17.5359 C   0  0  0  0  0  0  0  0  0  0  0  0
   10.6126  -18.6564   28.1485 N   0  0  0  0  0  0  0  0  0  0  0  0
   10.6831  -19.4634   26.9809 C   0  0  0  0  0  0  0  0  0  0  0  0
   10.4035  -20.6672   27.0733 O   0  0  0  0  0  0  0  0  0  0  0  0
   11.0836  -18.8584   25.7102 C   0  0  0  0  0  0  0  0  0  0  0  0
   11.4956  -17.4430   25.7156 C   0  0  0  0  0  0  0  0  0  0  0  0
   11.9157  -16.8123   24.4429 C   0  0  2  0  0  0  0  0  0  0  0  0
   10.9637  -16.7070   23.3938 N   0  0  0  0  0  0  0  0  0  0  0  0
   13.0966  -17.5827   23.9339 C   0  0  0  0  0  0  0  0  0  0  0  0
   12.8363  -18.6055   23.2510 O   0  0  0  0  0  0  0  0  0  0  0  0
   16.5982  -17.1667   23.0183 C   0  0  0  0  0  0  0  0  0  0  0  0
   15.5113  -18.0186   23.6336 C   0  0  2  0  0  0  0  0  0  0  0  0
   14.4329  -17.2409   24.1669 N   0  0  0  0  0  0  0  0  0  0  0  0
   16.1520  -18.8425   24.6916 C   0  0  0  0  0  0  0  0  0  0  0  0
   17.1664  -19.7231   24.4347 O   0  0  0  0  0  0  0  0  0  0  0  0
   15.7460  -18.7258   25.8697 O   0  0  0  0  0  0  0  0  0  0  0  0
  2  3  2  0
  2  1  1  0
  4  3  1  0
  5  4  2  0
  6  5  1  0
  7  9  1  0
  7  6  1  0
  7  8  1  1
  9 10  2  0
 11  5  1  0
 11 12  2  0
 12  2  1  0
 14 15  2  0
 14 13  1  0
 16 14  1  0
 17 16  1  0
 18 17  1  1
 19  9  1  0
 19 18  1  0
 20 24  1  0
 20 18  1  0
 21 20  2  0
 23 22  1  1
 23 24  1  0
 25 23  1  0
 25 26  1  0
 27 25  2  0
M  END
$$$$
