YQA.pdb
     RDKit          3D

 27 27  0  0  1  0  0  0  0  0999 V2000
    5.6703  -10.0736   26.7560 O   0  0  0  0  0  0  0  0  0  0  0  0
    6.2972  -11.2414   26.2938 C   0  0  0  0  0  0  0  0  0  0  0  0
    5.6953  -12.4283   26.5914 C   0  0  0  0  0  0  0  0  0  0  0  0
    6.2937  -13.6081   26.1460 C   0  0  0  0  0  0  0  0  0  0  0  0
    7.4592  -13.6012   25.4246 C   0  0  0  0  0  0  0  0  0  0  0  0
    8.0481  -14.8670   24.9796 C   0  0  0  0  0  0  0  0  0  0  0  0
    7.9839  -15.0176   23.4538 C   0  0  2  0  0  0  0  0  0  0  0  0
    6.6384  -14.9769   22.9784 N   0  0  0  0  0  0  0  0  0  0  0  0
    8.6641  -16.3027   23.1533 C   0  0  0  0  0  0  0  0  0  0  0  0
    8.1671  -17.0059   22.2411 O   0  0  0  0  0  0  0  0  0  0  0  0
    8.0488  -12.3976   25.1357 C   0  0  0  0  0  0  0  0  0  0  0  0
    7.4631  -11.2025   25.5741 C   0  0  0  0  0  0  0  0  0  0  0  0
   13.2730  -17.8743   20.0743 N   0  0  0  0  0  0  0  0  0  0  0  0
   12.2866  -16.8695   20.2664 C   0  0  0  0  0  0  0  0  0  0  0  0
   12.0336  -16.0989   19.3294 O   0  0  0  0  0  0  0  0  0  0  0  0
   11.6024  -16.7690   21.5560 C   0  0  0  0  0  0  0  0  0  0  0  0
   11.2949  -18.0176   22.2769 C   0  0  0  0  0  0  0  0  0  0  0  0
   10.5342  -17.9457   23.5458 C   0  0  2  0  0  0  0  0  0  0  0  0
    9.8239  -16.7515   23.8417 N   0  0  0  0  0  0  0  0  0  0  0  0
   11.5025  -18.2077   24.6597 C   0  0  0  0  0  0  0  0  0  0  0  0
   12.5089  -17.4558   24.7054 O   0  0  0  0  0  0  0  0  0  0  0  0
   11.3875  -18.9974   28.0667 C   0  0  0  0  0  0  0  0  0  0  0  0
   12.1743  -19.2465   26.8000 C   0  0  2  0  0  0  0  0  0  0  0  0
   11.3571  -19.2107   25.6240 N   0  0  0  0  0  0  0  0  0  0  0  0
   12.8357  -20.5686   26.9527 C   0  0  0  0  0  0  0  0  0  0  0  0
   13.7226  -20.8438   27.9567 O   0  0  0  0  0  0  0  0  0  0  0  0
   12.5699  -21.4703   26.1265 O   0  0  0  0  0  0  0  0  0  0  0  0
  2  3  2  0
  2  1  1  0
  4  3  1  0
  5  4  2  0
  6  5  1  0
  7  9  1  0
  7  6  1  0
  7  8  1  1
  9 10  2  0
 11  5  1  0
 11 12  2  0
 12  2  1  0
 14 15  2  0
 14 13  1  0
 16 14  1  0
 17 16  1  0
 18 17  1  6
 19  9  1  0
 19 18  1  0
 20 24  1  0
 20 18  1  0
 21 20  2  0
 23 22  1  1
 23 24  1  0
 25 23  1  0
 25 26  1  0
 27 25  2  0
M  END
$$$$
