YQA.pdb
     RDKit          3D

 27 27  0  0  1  0  0  0  0  0999 V2000
    8.8615  -12.9040   16.8806 O   0  0  0  0  0  0  0  0  0  0  0  0
    8.4645  -13.3343   18.1564 C   0  0  0  0  0  0  0  0  0  0  0  0
    7.2714  -12.8688   18.6249 C   0  0  0  0  0  0  0  0  0  0  0  0
    6.8481  -13.2781   19.8906 C   0  0  0  0  0  0  0  0  0  0  0  0
    7.5956  -14.1274   20.6644 C   0  0  0  0  0  0  0  0  0  0  0  0
    7.1075  -14.5278   21.9868 C   0  0  0  0  0  0  0  0  0  0  0  0
    6.9081  -16.0464   22.0823 C   0  0  2  0  0  0  0  0  0  0  0  0
    5.8237  -16.4860   21.2645 N   0  0  0  0  0  0  0  0  0  0  0  0
    6.6953  -16.3282   23.5245 C   0  0  0  0  0  0  0  0  0  0  0  0
    5.5671  -16.0466   23.9952 O   0  0  0  0  0  0  0  0  0  0  0  0
    8.7922  -14.5842   20.1754 C   0  0  0  0  0  0  0  0  0  0  0  0
    9.2340  -14.1846   18.9071 C   0  0  0  0  0  0  0  0  0  0  0  0
    7.3811  -20.8712   27.6455 N   0  0  0  0  0  0  0  0  0  0  0  0
    8.4915  -20.5906   26.8041 C   0  0  0  0  0  0  0  0  0  0  0  0
    9.3630  -21.4601   26.6614 O   0  0  0  0  0  0  0  0  0  0  0  0
    8.5786  -19.2919   26.1356 C   0  0  0  0  0  0  0  0  0  0  0  0
    7.5302  -18.2949   26.4182 C   0  0  0  0  0  0  0  0  0  0  0  0
    7.6185  -16.9599   25.7827 C   0  0  2  0  0  0  0  0  0  0  0  0
    7.6942  -16.8891   24.3658 N   0  0  0  0  0  0  0  0  0  0  0  0
    8.8222  -16.2741   26.3551 C   0  0  0  0  0  0  0  0  0  0  0  0
    9.8940  -16.4113   25.7126 O   0  0  0  0  0  0  0  0  0  0  0  0
    9.7749  -13.5137   28.5844 C   0  0  0  0  0  0  0  0  0  0  0  0
   10.0191  -14.8957   28.0221 C   0  0  2  0  0  0  0  0  0  0  0  0
    8.8239  -15.5121   27.5282 N   0  0  0  0  0  0  0  0  0  0  0  0
   10.6296  -15.7050   29.1088 C   0  0  0  0  0  0  0  0  0  0  0  0
   11.8271  -15.3875   29.6881 O   0  0  0  0  0  0  0  0  0  0  0  0
   10.0217  -16.7219   29.5121 O   0  0  0  0  0  0  0  0  0  0  0  0
  2  3  2  0
  2  1  1  0
  4  3  1  0
  5  4  2  0
  6  5  1  0
  7  9  1  0
  7  6  1  0
  7  8  1  6
  9 10  2  0
 11  5  1  0
 11 12  2  0
 12  2  1  0
 14 15  2  0
 14 13  1  0
 16 14  1  0
 17 16  1  0
 18 17  1  6
 19  9  1  0
 19 18  1  0
 20 24  1  0
 20 18  1  0
 21 20  2  0
 23 22  1  1
 23 24  1  0
 25 23  1  0
 25 26  1  0
 27 25  2  0
M  END
$$$$
