YQA.pdb
     RDKit          3D

 27 27  0  0  1  0  0  0  0  0999 V2000
    8.8484  -12.2008   17.9536 O   0  0  0  0  0  0  0  0  0  0  0  0
    8.2562  -13.0298   18.9191 C   0  0  0  0  0  0  0  0  0  0  0  0
    8.6035  -12.8137   20.2199 C   0  0  0  0  0  0  0  0  0  0  0  0
    8.0319  -13.6215   21.2044 C   0  0  0  0  0  0  0  0  0  0  0  0
    7.1396  -14.6156   20.8971 C   0  0  0  0  0  0  0  0  0  0  0  0
    6.5669  -15.4368   21.9671 C   0  0  0  0  0  0  0  0  0  0  0  0
    7.0616  -14.9926   23.3502 C   0  0  2  0  0  0  0  0  0  0  0  0
    7.3704  -13.5991   23.3747 N   0  0  0  0  0  0  0  0  0  0  0  0
    8.2372  -15.8502   23.6450 C   0  0  0  0  0  0  0  0  0  0  0  0
    8.0090  -17.0605   23.8829 O   0  0  0  0  0  0  0  0  0  0  0  0
    6.8033  -14.8170   19.5834 C   0  0  0  0  0  0  0  0  0  0  0  0
    7.3667  -14.0163   18.5809 C   0  0  0  0  0  0  0  0  0  0  0  0
   12.7950  -14.6989   20.0179 N   0  0  0  0  0  0  0  0  0  0  0  0
   13.1549  -14.7733   21.3907 C   0  0  0  0  0  0  0  0  0  0  0  0
   14.3557  -14.8537   21.6862 O   0  0  0  0  0  0  0  0  0  0  0  0
   12.1071  -14.7564   22.4120 C   0  0  0  0  0  0  0  0  0  0  0  0
   11.9678  -15.9382   23.2821 C   0  0  0  0  0  0  0  0  0  0  0  0
   10.7104  -16.1265   24.0421 C   0  0  2  0  0  0  0  0  0  0  0  0
    9.5725  -15.3634   23.6665 N   0  0  0  0  0  0  0  0  0  0  0  0
   11.0151  -15.8431   25.4822 C   0  0  0  0  0  0  0  0  0  0  0  0
   12.0999  -16.3045   25.9186 O   0  0  0  0  0  0  0  0  0  0  0  0
    9.8409  -13.6676   28.2926 C   0  0  0  0  0  0  0  0  0  0  0  0
   10.5592  -14.8609   27.7044 C   0  0  2  0  0  0  0  0  0  0  0  0
   10.1876  -15.1164   26.3447 N   0  0  0  0  0  0  0  0  0  0  0  0
   10.2484  -16.0262   28.5728 C   0  0  0  0  0  0  0  0  0  0  0  0
    9.5820  -17.1319   28.1215 O   0  0  0  0  0  0  0  0  0  0  0  0
   10.6123  -15.9950   29.7699 O   0  0  0  0  0  0  0  0  0  0  0  0
  2  3  2  0
  2  1  1  0
  4  3  1  0
  5  4  2  0
  6  5  1  0
  7  9  1  0
  7  6  1  0
  7  8  1  6
  9 10  2  0
 11  5  1  0
 11 12  2  0
 12  2  1  0
 14 15  2  0
 14 13  1  0
 16 14  1  0
 17 16  1  0
 18 17  1  6
 19  9  1  0
 19 18  1  0
 20 24  1  0
 20 18  1  0
 21 20  2  0
 23 22  1  1
 23 24  1  0
 25 23  1  0
 25 26  1  0
 27 25  2  0
M  END
$$$$
