YQA.pdb
     RDKit          3D

 27 27  0  0  1  0  0  0  0  0999 V2000
    4.8160  -10.9361   28.3257 O   0  0  0  0  0  0  0  0  0  0  0  0
    5.5541  -11.8003   27.5019 C   0  0  0  0  0  0  0  0  0  0  0  0
    6.6433  -12.4058   28.0555 C   0  0  0  0  0  0  0  0  0  0  0  0
    7.3985  -13.2713   27.2624 C   0  0  0  0  0  0  0  0  0  0  0  0
    7.0742  -13.5236   25.9547 C   0  0  0  0  0  0  0  0  0  0  0  0
    7.8990  -14.4405   25.1634 C   0  0  0  0  0  0  0  0  0  0  0  0
    7.0608  -15.5664   24.5431 C   0  0  2  0  0  0  0  0  0  0  0  0
    6.8643  -16.6416   25.4614 N   0  0  0  0  0  0  0  0  0  0  0  0
    7.7940  -15.9784   23.3195 C   0  0  0  0  0  0  0  0  0  0  0  0
    8.3584  -17.0983   23.3486 O   0  0  0  0  0  0  0  0  0  0  0  0
    5.9754  -12.9049   25.4166 C   0  0  0  0  0  0  0  0  0  0  0  0
    5.2048  -12.0328   26.1970 C   0  0  0  0  0  0  0  0  0  0  0  0
    8.3047  -12.8471   17.5537 N   0  0  0  0  0  0  0  0  0  0  0  0
    8.8605  -14.1388   17.3481 C   0  0  0  0  0  0  0  0  0  0  0  0
    9.2821  -14.4310   16.2200 O   0  0  0  0  0  0  0  0  0  0  0  0
    8.9177  -15.0842   18.4635 C   0  0  0  0  0  0  0  0  0  0  0  0
    8.3189  -14.6781   19.7479 C   0  0  0  0  0  0  0  0  0  0  0  0
    8.3937  -15.6057   20.9003 C   0  0  2  0  0  0  0  0  0  0  0  0
    7.8770  -15.1733   22.1511 N   0  0  0  0  0  0  0  0  0  0  0  0
    9.8361  -15.9691   21.0852 C   0  0  0  0  0  0  0  0  0  0  0  0
   10.5810  -15.0624   21.5360 O   0  0  0  0  0  0  0  0  0  0  0  0
   11.9921  -19.0066   21.2952 C   0  0  0  0  0  0  0  0  0  0  0  0
   11.7550  -17.5277   21.0896 C   0  0  2  0  0  0  0  0  0  0  0  0
   10.3870  -17.2216   20.7943 N   0  0  0  0  0  0  0  0  0  0  0  0
   12.6513  -17.0934   19.9866 C   0  0  0  0  0  0  0  0  0  0  0  0
   12.2020  -16.8434   18.7193 O   0  0  0  0  0  0  0  0  0  0  0  0
   13.8711  -16.9499   20.2273 O   0  0  0  0  0  0  0  0  0  0  0  0
  2  3  2  0
  2  1  1  0
  4  3  1  0
  5  4  2  0
  6  5  1  0
  7  9  1  0
  7  6  1  0
  7  8  1  1
  9 10  2  0
 11  5  1  0
 11 12  2  0
 12  2  1  0
 14 15  2  0
 14 13  1  0
 16 14  1  0
 17 16  1  0
 18 17  1  6
 19  9  1  0
 19 18  1  0
 20 24  1  0
 20 18  1  0
 21 20  2  0
 23 22  1  6
 23 24  1  0
 25 23  1  0
 25 26  1  0
 27 25  2  0
M  END
$$$$
