YQA.pdb
     RDKit          3D

 27 27  0  0  1  0  0  0  0  0999 V2000
    8.8672  -12.6794   16.9653 O   0  0  0  0  0  0  0  0  0  0  0  0
    8.4771  -13.1300   18.2361 C   0  0  0  0  0  0  0  0  0  0  0  0
    7.1416  -13.1304   18.5115 C   0  0  0  0  0  0  0  0  0  0  0  0
    6.7210  -13.5728   19.7668 C   0  0  0  0  0  0  0  0  0  0  0  0
    7.6095  -14.0021   20.7183 C   0  0  0  0  0  0  0  0  0  0  0  0
    7.1179  -14.4573   22.0215 C   0  0  0  0  0  0  0  0  0  0  0  0
    6.8905  -15.9747   22.0440 C   0  0  2  0  0  0  0  0  0  0  0  0
    5.7347  -16.3435   21.2916 N   0  0  0  0  0  0  0  0  0  0  0  0
    6.7856  -16.3386   23.4796 C   0  0  0  0  0  0  0  0  0  0  0  0
    5.6348  -16.3439   23.9790 O   0  0  0  0  0  0  0  0  0  0  0  0
    8.9481  -13.9940   20.4220 C   0  0  0  0  0  0  0  0  0  0  0  0
    9.3896  -13.5534   19.1672 C   0  0  0  0  0  0  0  0  0  0  0  0
    6.0566  -20.8600   23.9348 N   0  0  0  0  0  0  0  0  0  0  0  0
    6.9876  -20.5760   24.9703 C   0  0  0  0  0  0  0  0  0  0  0  0
    7.9301  -21.3597   25.1527 O   0  0  0  0  0  0  0  0  0  0  0  0
    6.8095  -19.3772   25.7903 C   0  0  0  0  0  0  0  0  0  0  0  0
    7.9720  -18.4923   25.9862 C   0  0  0  0  0  0  0  0  0  0  0  0
    7.8452  -17.0550   25.6509 C   0  0  2  0  0  0  0  0  0  0  0  0
    7.9088  -16.6712   24.2846 N   0  0  0  0  0  0  0  0  0  0  0  0
    8.9235  -16.3281   26.3966 C   0  0  0  0  0  0  0  0  0  0  0  0
   10.0768  -16.3904   25.9003 O   0  0  0  0  0  0  0  0  0  0  0  0
    9.3405  -13.7211   29.0234 C   0  0  0  0  0  0  0  0  0  0  0  0
    9.8058  -14.9177   28.2251 C   0  0  2  0  0  0  0  0  0  0  0  0
    8.7282  -15.6051   27.5781 N   0  0  0  0  0  0  0  0  0  0  0  0
   10.5250  -15.8148   29.1667 C   0  0  0  0  0  0  0  0  0  0  0  0
   11.6942  -15.4619   29.7821 O   0  0  0  0  0  0  0  0  0  0  0  0
   10.0399  -16.9431   29.4075 O   0  0  0  0  0  0  0  0  0  0  0  0
  2  3  2  0
  2  1  1  0
  4  3  1  0
  5  4  2  0
  6  5  1  0
  7  9  1  0
  7  6  1  0
  7  8  1  6
  9 10  2  0
 11  5  1  0
 11 12  2  0
 12  2  1  0
 14 15  2  0
 14 13  1  0
 16 14  1  0
 17 16  1  0
 18 17  1  6
 19  9  1  0
 19 18  1  0
 20 24  1  0
 20 18  1  0
 21 20  2  0
 23 22  1  1
 23 24  1  0
 25 23  1  0
 25 26  1  0
 27 25  2  0
M  END
$$$$
