YQA.pdb
     RDKit          3D

 27 27  0  0  1  0  0  0  0  0999 V2000
    7.1403  -14.1834   25.4726 O   0  0  0  0  0  0  0  0  0  0  0  0
    7.2720  -13.9050   24.1031 C   0  0  0  0  0  0  0  0  0  0  0  0
    6.8288  -14.8552   23.2313 C   0  0  0  0  0  0  0  0  0  0  0  0
    6.9456  -14.6087   21.8623 C   0  0  0  0  0  0  0  0  0  0  0  0
    7.4895  -13.4467   21.3797 C   0  0  0  0  0  0  0  0  0  0  0  0
    7.5900  -13.2351   19.9332 C   0  0  0  0  0  0  0  0  0  0  0  0
    8.9964  -13.5546   19.4091 C   0  0  2  0  0  0  0  0  0  0  0  0
    9.0612  -13.4568   17.9863 N   0  0  0  0  0  0  0  0  0  0  0  0
    9.3056  -14.9179   19.9092 C   0  0  0  0  0  0  0  0  0  0  0  0
    8.9998  -15.8775   19.1613 O   0  0  0  0  0  0  0  0  0  0  0  0
    7.9293  -12.5038   22.2726 C   0  0  0  0  0  0  0  0  0  0  0  0
    7.8205  -12.7332   23.6507 C   0  0  0  0  0  0  0  0  0  0  0  0
   13.2890  -13.8745   18.3612 N   0  0  0  0  0  0  0  0  0  0  0  0
   13.6052  -14.9440   19.2421 C   0  0  0  0  0  0  0  0  0  0  0  0
   14.5075  -15.7306   18.9212 O   0  0  0  0  0  0  0  0  0  0  0  0
   12.8616  -15.0899   20.4939 C   0  0  0  0  0  0  0  0  0  0  0  0
   12.0763  -16.3213   20.6942 C   0  0  0  0  0  0  0  0  0  0  0  0
   10.8005  -16.2458   21.4431 C   0  0  2  0  0  0  0  0  0  0  0  0
    9.9175  -15.1675   21.1676 N   0  0  0  0  0  0  0  0  0  0  0  0
   11.1429  -16.2151   22.9021 C   0  0  0  0  0  0  0  0  0  0  0  0
   11.6721  -15.1555   23.3233 O   0  0  0  0  0  0  0  0  0  0  0  0
    8.7346  -16.7273   24.7818 C   0  0  0  0  0  0  0  0  0  0  0  0
   10.1884  -17.0698   25.0163 C   0  0  2  0  0  0  0  0  0  0  0  0
   10.9152  -17.2656   23.7974 N   0  0  0  0  0  0  0  0  0  0  0  0
   10.2157  -18.2937   25.8588 C   0  0  0  0  0  0  0  0  0  0  0  0
   10.4786  -18.2658   27.2007 O   0  0  0  0  0  0  0  0  0  0  0  0
    9.9884  -19.3988   25.3174 O   0  0  0  0  0  0  0  0  0  0  0  0
  2  3  2  0
  2  1  1  0
  4  3  1  0
  5  4  2  0
  6  5  1  0
  7  9  1  0
  7  6  1  0
  7  8  1  6
  9 10  2  0
 11  5  1  0
 11 12  2  0
 12  2  1  0
 14 15  2  0
 14 13  1  0
 16 14  1  0
 17 16  1  0
 18 17  1  6
 19  9  1  0
 19 18  1  0
 20 24  1  0
 20 18  1  0
 21 20  2  0
 23 22  1  6
 23 24  1  0
 25 23  1  0
 25 26  1  0
 27 25  2  0
M  END
$$$$
