YQA.pdb
     RDKit          3D

 27 27  0  0  1  0  0  0  0  0999 V2000
    8.6749  -12.9335   16.7710 O   0  0  0  0  0  0  0  0  0  0  0  0
    8.2635  -13.4082   18.0263 C   0  0  0  0  0  0  0  0  0  0  0  0
    7.9125  -12.4760   18.9577 C   0  0  0  0  0  0  0  0  0  0  0  0
    7.4988  -12.9157   20.2163 C   0  0  0  0  0  0  0  0  0  0  0  0
    7.4379  -14.2478   20.5338 C   0  0  0  0  0  0  0  0  0  0  0  0
    6.9967  -14.6589   21.8694 C   0  0  0  0  0  0  0  0  0  0  0  0
    6.8578  -16.1833   21.9771 C   0  0  2  0  0  0  0  0  0  0  0  0
    5.5138  -16.6057   21.7459 N   0  0  0  0  0  0  0  0  0  0  0  0
    7.3470  -16.5310   23.3351 C   0  0  0  0  0  0  0  0  0  0  0  0
    6.4911  -16.5723   24.2512 O   0  0  0  0  0  0  0  0  0  0  0  0
    7.7949  -15.1693   19.5835 C   0  0  0  0  0  0  0  0  0  0  0  0
    8.2128  -14.7473   18.3144 C   0  0  0  0  0  0  0  0  0  0  0  0
   12.5453  -19.9702   25.0515 N   0  0  0  0  0  0  0  0  0  0  0  0
   11.9996  -19.5031   26.2777 C   0  0  0  0  0  0  0  0  0  0  0  0
   12.5170  -19.8790   27.3392 O   0  0  0  0  0  0  0  0  0  0  0  0
   10.8484  -18.6001   26.2562 C   0  0  0  0  0  0  0  0  0  0  0  0
   10.3103  -18.1938   24.9453 C   0  0  0  0  0  0  0  0  0  0  0  0
    9.2057  -17.2082   24.8964 C   0  0  2  0  0  0  0  0  0  0  0  0
    8.7101  -16.8103   23.6259 N   0  0  0  0  0  0  0  0  0  0  0  0
    9.6698  -15.9842   25.6269 C   0  0  0  0  0  0  0  0  0  0  0  0
   10.6560  -15.3844   25.1290 O   0  0  0  0  0  0  0  0  0  0  0  0
    8.5651  -13.2697   27.7113 C   0  0  0  0  0  0  0  0  0  0  0  0
    9.6133  -14.3308   27.4637 C   0  0  2  0  0  0  0  0  0  0  0  0
    9.0874  -15.4841   26.7963 N   0  0  0  0  0  0  0  0  0  0  0  0
   10.1862  -14.6921   28.7865 C   0  0  0  0  0  0  0  0  0  0  0  0
   10.1691  -15.9674   29.2800 O   0  0  0  0  0  0  0  0  0  0  0  0
   10.7075  -13.7900   29.4801 O   0  0  0  0  0  0  0  0  0  0  0  0
  2  3  2  0
  2  1  1  0
  4  3  1  0
  5  4  2  0
  6  5  1  0
  7  9  1  0
  7  6  1  0
  7  8  1  1
  9 10  2  0
 11  5  1  0
 11 12  2  0
 12  2  1  0
 14 15  2  0
 14 13  1  0
 16 14  1  0
 17 16  1  0
 18 17  1  6
 19  9  1  0
 19 18  1  0
 20 24  1  0
 20 18  1  0
 21 20  2  0
 23 22  1  1
 23 24  1  0
 25 23  1  0
 25 26  1  0
 27 25  2  0
M  END
$$$$
