SYG.pdb
     RDKit          3D

 23 23  0  0  1  0  0  0  0  0999 V2000
    9.6970  -17.8552   19.5630 O   0  0  0  0  0  0  0  0  0  0  0  0
    8.3533  -18.0987   19.7342 C   0  0  0  0  0  0  0  0  0  0  0  0
    7.6044  -16.7973   19.6115 C   0  0  2  0  0  0  0  0  0  0  0  0
    7.8900  -16.1842   18.3119 N   0  0  0  0  0  0  0  0  0  0  0  0
    7.9371  -15.8086   20.6395 C   0  0  0  0  0  0  0  0  0  0  0  0
    8.6346  -14.7672   20.3734 O   0  0  0  0  0  0  0  0  0  0  0  0
    6.9739  -10.9827   28.0568 O   0  0  0  0  0  0  0  0  0  0  0  0
    6.9546  -11.9823   27.0801 C   0  0  0  0  0  0  0  0  0  0  0  0
    6.0970  -11.8773   26.0147 C   0  0  0  0  0  0  0  0  0  0  0  0
    6.0861  -12.8732   25.0529 C   0  0  0  0  0  0  0  0  0  0  0  0
    6.9088  -13.9762   25.1226 C   0  0  0  0  0  0  0  0  0  0  0  0
    6.8237  -14.9816   24.0637 C   0  0  0  0  0  0  0  0  0  0  0  0
    7.8492  -14.8413   22.9658 C   0  0  2  0  0  0  0  0  0  0  0  0
    7.5367  -15.8864   22.0093 N   0  0  0  0  0  0  0  0  0  0  0  0
    9.2036  -15.1000   23.4993 C   0  0  0  0  0  0  0  0  0  0  0  0
    9.7261  -14.1961   24.2381 O   0  0  0  0  0  0  0  0  0  0  0  0
    7.7591  -14.0528   26.2051 C   0  0  0  0  0  0  0  0  0  0  0  0
    7.7867  -13.0748   27.1721 C   0  0  0  0  0  0  0  0  0  0  0  0
    9.9456  -16.2851   23.2375 N   0  0  0  0  0  0  0  0  0  0  0  0
   11.2315  -16.4202   23.8604 C   0  0  0  0  0  0  0  0  0  0  0  0
   11.2234  -17.2815   25.0472 C   0  0  0  0  0  0  0  0  0  0  0  0
   12.4429  -17.7011   25.5591 O   0  0  0  0  0  0  0  0  0  0  0  0
   10.1760  -17.6425   25.6010 O   0  0  0  0  0  0  0  0  0  0  0  0
  2  1  1  0
  3  2  1  0
  3  4  1  6
  5  3  1  0
  5  6  2  0
  7  8  1  0
  8 18  2  0
  9 10  2  0
  9  8  1  0
 10 11  1  0
 11 12  1  0
 11 17  2  0
 13 12  1  1
 13 14  1  0
 14  5  1  0
 15 13  1  0
 16 15  2  0
 18 17  1  0
 19 15  1  0
 20 19  1  0
 21 20  1  0
 22 21  1  0
 23 21  2  0
M  END
$$$$
