SYG.pdb
     RDKit          3D

 23 23  0  0  1  0  0  0  0  0999 V2000
    7.1821  -18.8827   20.0258 O   0  0  0  0  0  0  0  0  0  0  0  0
    8.5399  -18.7460   20.2041 C   0  0  0  0  0  0  0  0  0  0  0  0
    8.8925  -17.2825   20.1471 C   0  0  2  0  0  0  0  0  0  0  0  0
   10.1991  -17.1143   19.5062 N   0  0  0  0  0  0  0  0  0  0  0  0
    8.9635  -16.6259   21.4544 C   0  0  0  0  0  0  0  0  0  0  0  0
   10.0318  -16.6446   22.1616 O   0  0  0  0  0  0  0  0  0  0  0  0
    6.7534  -11.3102   28.2576 O   0  0  0  0  0  0  0  0  0  0  0  0
    6.8086  -12.0170   27.0531 C   0  0  0  0  0  0  0  0  0  0  0  0
    7.9278  -11.9329   26.2644 C   0  0  0  0  0  0  0  0  0  0  0  0
    7.9718  -12.6373   25.0732 C   0  0  0  0  0  0  0  0  0  0  0  0
    6.9277  -13.4267   24.6430 C   0  0  0  0  0  0  0  0  0  0  0  0
    7.0604  -14.1296   23.3672 C   0  0  0  0  0  0  0  0  0  0  0  0
    8.0227  -15.2917   23.3753 C   0  0  2  0  0  0  0  0  0  0  0  0
    7.8892  -15.9131   22.0711 N   0  0  0  0  0  0  0  0  0  0  0  0
    7.6166  -16.2808   24.3965 C   0  0  0  0  0  0  0  0  0  0  0  0
    6.4417  -16.7768   24.2987 O   0  0  0  0  0  0  0  0  0  0  0  0
    5.8173  -13.4907   25.4576 C   0  0  0  0  0  0  0  0  0  0  0  0
    5.7521  -12.7994   26.6450 C   0  0  0  0  0  0  0  0  0  0  0  0
    8.4524  -16.7036   25.4670 N   0  0  0  0  0  0  0  0  0  0  0  0
    7.9745  -17.7616   26.3109 C   0  0  0  0  0  0  0  0  0  0  0  0
    8.9373  -18.1779   27.3356 C   0  0  0  0  0  0  0  0  0  0  0  0
    8.5383  -19.1353   28.2573 O   0  0  0  0  0  0  0  0  0  0  0  0
   10.0814  -17.7087   27.4045 O   0  0  0  0  0  0  0  0  0  0  0  0
  2  1  1  0
  3  2  1  0
  3  4  1  1
  5  3  1  0
  5  6  2  0
  7  8  1  0
  8 18  2  0
  9 10  2  0
  9  8  1  0
 10 11  1  0
 11 12  1  0
 11 17  2  0
 13 12  1  6
 13 14  1  0
 14  5  1  0
 15 13  1  0
 16 15  2  0
 18 17  1  0
 19 15  1  0
 20 19  1  0
 21 20  1  0
 22 21  1  0
 23 21  2  0
M  END
$$$$
