SYG.pdb
     RDKit          3D

 23 23  0  0  1  0  0  0  0  0999 V2000
    8.2221  -16.7979   17.9150 O   0  0  0  0  0  0  0  0  0  0  0  0
    8.9109  -15.6126   18.0367 C   0  0  0  0  0  0  0  0  0  0  0  0
    7.9539  -14.5383   18.4833 C   0  0  2  0  0  0  0  0  0  0  0  0
    8.0093  -13.4095   17.5509 N   0  0  0  0  0  0  0  0  0  0  0  0
    8.2214  -14.0079   19.8220 C   0  0  0  0  0  0  0  0  0  0  0  0
    8.9748  -12.9879   20.0054 O   0  0  0  0  0  0  0  0  0  0  0  0
    7.0065  -12.1101   28.4173 O   0  0  0  0  0  0  0  0  0  0  0  0
    6.9443  -12.6294   27.1212 C   0  0  0  0  0  0  0  0  0  0  0  0
    6.6542  -11.7998   26.0680 C   0  0  0  0  0  0  0  0  0  0  0  0
    6.5952  -12.3247   24.7882 C   0  0  0  0  0  0  0  0  0  0  0  0
    6.8176  -13.6590   24.5263 C   0  0  0  0  0  0  0  0  0  0  0  0
    6.7278  -14.1258   23.1431 C   0  0  0  0  0  0  0  0  0  0  0  0
    7.9900  -13.9663   22.3319 C   0  0  2  0  0  0  0  0  0  0  0  0
    7.6922  -14.5459   21.0357 N   0  0  0  0  0  0  0  0  0  0  0  0
    9.0876  -14.7478   22.9408 C   0  0  0  0  0  0  0  0  0  0  0  0
    9.5025  -14.3781   24.0928 O   0  0  0  0  0  0  0  0  0  0  0  0
    7.1067  -14.4667   25.6054 C   0  0  0  0  0  0  0  0  0  0  0  0
    7.1707  -13.9664   26.8852 C   0  0  0  0  0  0  0  0  0  0  0  0
    9.6977  -15.8734   22.3211 N   0  0  0  0  0  0  0  0  0  0  0  0
   10.7635  -16.5283   23.0247 C   0  0  0  0  0  0  0  0  0  0  0  0
   11.3666  -17.6380   22.2796 C   0  0  0  0  0  0  0  0  0  0  0  0
   12.4100  -18.3337   22.8733 O   0  0  0  0  0  0  0  0  0  0  0  0
   10.9798  -17.9706   21.1510 O   0  0  0  0  0  0  0  0  0  0  0  0
  2  1  1  0
  3  2  1  0
  3  4  1  6
  5  3  1  0
  5  6  2  0
  7  8  1  0
  8 18  2  0
  9 10  2  0
  9  8  1  0
 10 11  1  0
 11 12  1  0
 11 17  2  0
 13 12  1  1
 13 14  1  0
 14  5  1  0
 15 13  1  0
 16 15  2  0
 18 17  1  0
 19 15  1  0
 20 19  1  0
 21 20  1  0
 22 21  1  0
 23 21  2  0
M  END
$$$$
