SYG.pdb
     RDKit          3D

 23 23  0  0  1  0  0  0  0  0999 V2000
    7.2806  -17.0792   19.4788 O   0  0  0  0  0  0  0  0  0  0  0  0
    8.0756  -15.9600   19.3809 C   0  0  0  0  0  0  0  0  0  0  0  0
    7.5044  -14.8798   20.2620 C   0  0  2  0  0  0  0  0  0  0  0  0
    7.3746  -13.6368   19.4975 N   0  0  0  0  0  0  0  0  0  0  0  0
    8.3095  -14.5772   21.4475 C   0  0  0  0  0  0  0  0  0  0  0  0
    9.1387  -13.6007   21.4686 O   0  0  0  0  0  0  0  0  0  0  0  0
    5.8495  -10.5269   27.1922 O   0  0  0  0  0  0  0  0  0  0  0  0
    6.4270  -11.6722   26.6370 C   0  0  0  0  0  0  0  0  0  0  0  0
    7.2779  -12.4400   27.3907 C   0  0  0  0  0  0  0  0  0  0  0  0
    7.8445  -13.5724   26.8307 C   0  0  0  0  0  0  0  0  0  0  0  0
    7.5866  -13.9636   25.5351 C   0  0  0  0  0  0  0  0  0  0  0  0
    8.2355  -15.1715   25.0258 C   0  0  0  0  0  0  0  0  0  0  0  0
    9.1029  -14.9658   23.8085 C   0  0  2  0  0  0  0  0  0  0  0  0
    8.2652  -15.3084   22.6746 N   0  0  0  0  0  0  0  0  0  0  0  0
   10.2448  -15.9047   23.8334 C   0  0  0  0  0  0  0  0  0  0  0  0
   11.1679  -15.6837   24.6908 O   0  0  0  0  0  0  0  0  0  0  0  0
    6.7276  -13.1715   24.8035 C   0  0  0  0  0  0  0  0  0  0  0  0
    6.1534  -12.0424   25.3398 C   0  0  0  0  0  0  0  0  0  0  0  0
   10.3688  -17.0252   22.9660 N   0  0  0  0  0  0  0  0  0  0  0  0
   11.5132  -17.8753   23.1311 C   0  0  0  0  0  0  0  0  0  0  0  0
   11.3585  -18.8708   24.1967 C   0  0  0  0  0  0  0  0  0  0  0  0
   10.1896  -18.8523   24.9442 O   0  0  0  0  0  0  0  0  0  0  0  0
   12.2266  -19.7175   24.4484 O   0  0  0  0  0  0  0  0  0  0  0  0
  2  1  1  0
  3  2  1  0
  3  4  1  6
  5  3  1  0
  5  6  2  0
  7  8  1  0
  8 18  2  0
  9 10  2  0
  9  8  1  0
 10 11  1  0
 11 12  1  0
 11 17  2  0
 13 12  1  1
 13 14  1  0
 14  5  1  0
 15 13  1  0
 16 15  2  0
 18 17  1  0
 19 15  1  0
 20 19  1  0
 21 20  1  0
 22 21  1  0
 23 21  2  0
M  END
$$$$
