SYG.pdb
     RDKit          3D

 23 23  0  0  1  0  0  0  0  0999 V2000
    9.6626  -19.5976   27.1252 O   0  0  0  0  0  0  0  0  0  0  0  0
    8.9632  -19.1483   26.0283 C   0  0  0  0  0  0  0  0  0  0  0  0
    8.1307  -17.9608   26.4359 C   0  0  2  0  0  0  0  0  0  0  0  0
    6.8853  -18.4205   27.0555 N   0  0  0  0  0  0  0  0  0  0  0  0
    7.7628  -17.0720   25.3314 C   0  0  0  0  0  0  0  0  0  0  0  0
    6.6423  -17.1839   24.7201 O   0  0  0  0  0  0  0  0  0  0  0  0
    5.2607  -11.9005   28.4402 O   0  0  0  0  0  0  0  0  0  0  0  0
    6.0680  -12.3633   27.3974 C   0  0  0  0  0  0  0  0  0  0  0  0
    5.6012  -12.3299   26.1079 C   0  0  0  0  0  0  0  0  0  0  0  0
    6.4094  -12.7910   25.0826 C   0  0  0  0  0  0  0  0  0  0  0  0
    7.6752  -13.2869   25.3061 C   0  0  0  0  0  0  0  0  0  0  0  0
    8.4550  -13.7580   24.1618 C   0  0  0  0  0  0  0  0  0  0  0  0
    8.1569  -15.1707   23.7237 C   0  0  2  0  0  0  0  0  0  0  0  0
    8.5802  -16.0145   24.8255 N   0  0  0  0  0  0  0  0  0  0  0  0
    8.9734  -15.5192   22.5414 C   0  0  0  0  0  0  0  0  0  0  0  0
    8.7409  -14.8798   21.4583 O   0  0  0  0  0  0  0  0  0  0  0  0
    8.1156  -13.3072   26.6123 C   0  0  0  0  0  0  0  0  0  0  0  0
    7.3296  -12.8542   27.6463 C   0  0  0  0  0  0  0  0  0  0  0  0
    9.9897  -16.5144   22.5453 N   0  0  0  0  0  0  0  0  0  0  0  0
   10.7443  -16.7045   21.3393 C   0  0  0  0  0  0  0  0  0  0  0  0
   11.7702  -17.7470   21.4447 C   0  0  0  0  0  0  0  0  0  0  0  0
   12.5695  -17.9923   20.3373 O   0  0  0  0  0  0  0  0  0  0  0  0
   11.9444  -18.4080   22.4775 O   0  0  0  0  0  0  0  0  0  0  0  0
  2  1  1  0
  3  2  1  0
  3  4  1  6
  5  3  1  0
  5  6  2  0
  7  8  1  0
  8 18  2  0
  9 10  2  0
  9  8  1  0
 10 11  1  0
 11 12  1  0
 11 17  2  0
 13 12  1  1
 13 14  1  0
 14  5  1  0
 15 13  1  0
 16 15  2  0
 18 17  1  0
 19 15  1  0
 20 19  1  0
 21 20  1  0
 22 21  1  0
 23 21  2  0
M  END
$$$$
