SYG.pdb
     RDKit          3D

 23 23  0  0  1  0  0  0  0  0999 V2000
    7.6264  -15.3655   19.1450 O   0  0  0  0  0  0  0  0  0  0  0  0
    6.5368  -14.5964   19.4849 C   0  0  0  0  0  0  0  0  0  0  0  0
    7.0214  -13.3352   20.1513 C   0  0  2  0  0  0  0  0  0  0  0  0
    7.7491  -12.5129   19.1814 N   0  0  0  0  0  0  0  0  0  0  0  0
    7.9166  -13.5576   21.2889 C   0  0  0  0  0  0  0  0  0  0  0  0
    9.1836  -13.3920   21.1928 O   0  0  0  0  0  0  0  0  0  0  0  0
   10.4191  -14.7941   29.7866 O   0  0  0  0  0  0  0  0  0  0  0  0
    9.7213  -14.6338   28.5862 C   0  0  0  0  0  0  0  0  0  0  0  0
    9.4820  -13.3735   28.1003 C   0  0  0  0  0  0  0  0  0  0  0  0
    8.7899  -13.2262   26.9103 C   0  0  0  0  0  0  0  0  0  0  0  0
    8.3268  -14.3036   26.1870 C   0  0  0  0  0  0  0  0  0  0  0  0
    7.5994  -14.0519   24.9433 C   0  0  0  0  0  0  0  0  0  0  0  0
    8.4327  -14.1342   23.6881 C   0  0  2  0  0  0  0  0  0  0  0  0
    7.4971  -13.9694   22.5916 N   0  0  0  0  0  0  0  0  0  0  0  0
    9.0431  -15.4757   23.5703 C   0  0  0  0  0  0  0  0  0  0  0  0
    8.2561  -16.4627   23.3645 O   0  0  0  0  0  0  0  0  0  0  0  0
    8.5832  -15.5568   26.7014 C   0  0  0  0  0  0  0  0  0  0  0  0
    9.2690  -15.7263   27.8817 C   0  0  0  0  0  0  0  0  0  0  0  0
   10.4402  -15.7226   23.6724 N   0  0  0  0  0  0  0  0  0  0  0  0
   10.8901  -17.0800   23.5503 C   0  0  0  0  0  0  0  0  0  0  0  0
   12.3501  -17.2182   23.5446 C   0  0  0  0  0  0  0  0  0  0  0  0
   12.8857  -18.4950   23.4537 O   0  0  0  0  0  0  0  0  0  0  0  0
   13.1116  -16.2442   23.6174 O   0  0  0  0  0  0  0  0  0  0  0  0
  2  1  1  0
  3  2  1  0
  3  4  1  6
  5  3  1  0
  5  6  2  0
  7  8  1  0
  8 18  2  0
  9 10  2  0
  9  8  1  0
 10 11  1  0
 11 12  1  0
 11 17  2  0
 13 12  1  1
 13 14  1  0
 14  5  1  0
 15 13  1  0
 16 15  2  0
 18 17  1  0
 19 15  1  0
 20 19  1  0
 21 20  1  0
 22 21  1  0
 23 21  2  0
M  END
$$$$
