SYG.pdb
     RDKit          3D

 23 23  0  0  1  0  0  0  0  0999 V2000
    8.7531  -19.0681   19.4520 O   0  0  0  0  0  0  0  0  0  0  0  0
    7.5765  -18.4270   19.1375 C   0  0  0  0  0  0  0  0  0  0  0  0
    7.8683  -16.9699   18.8905 C   0  0  2  0  0  0  0  0  0  0  0  0
    8.9567  -16.8425   17.9180 N   0  0  0  0  0  0  0  0  0  0  0  0
    8.2650  -16.2212   20.0852 C   0  0  0  0  0  0  0  0  0  0  0  0
    9.4537  -15.7661   20.2323 O   0  0  0  0  0  0  0  0  0  0  0  0
    7.4299  -11.8502   27.8430 O   0  0  0  0  0  0  0  0  0  0  0  0
    7.2240  -12.5842   26.6716 C   0  0  0  0  0  0  0  0  0  0  0  0
    7.1922  -11.9403   25.4607 C   0  0  0  0  0  0  0  0  0  0  0  0
    6.9875  -12.6772   24.3066 C   0  0  0  0  0  0  0  0  0  0  0  0
    6.8125  -14.0437   24.3241 C   0  0  0  0  0  0  0  0  0  0  0  0
    6.5959  -14.7385   23.0554 C   0  0  0  0  0  0  0  0  0  0  0  0
    7.8530  -15.1496   22.3294 C   0  0  2  0  0  0  0  0  0  0  0  0
    7.4042  -15.9212   21.1858 N   0  0  0  0  0  0  0  0  0  0  0  0
    8.6685  -16.0359   23.1871 C   0  0  0  0  0  0  0  0  0  0  0  0
    8.1448  -17.1444   23.5515 O   0  0  0  0  0  0  0  0  0  0  0  0
    6.8498  -14.6616   25.5560 C   0  0  0  0  0  0  0  0  0  0  0  0
    7.0519  -13.9492   26.7152 C   0  0  0  0  0  0  0  0  0  0  0  0
    9.9865  -15.7246   23.6221 N   0  0  0  0  0  0  0  0  0  0  0  0
   10.6531  -16.6732   24.4681 C   0  0  0  0  0  0  0  0  0  0  0  0
   12.0326  -16.3006   24.7979 C   0  0  0  0  0  0  0  0  0  0  0  0
   12.7160  -17.0764   25.7234 O   0  0  0  0  0  0  0  0  0  0  0  0
   12.6009  -15.3278   24.2835 O   0  0  0  0  0  0  0  0  0  0  0  0
  2  1  1  0
  3  2  1  0
  3  4  1  6
  5  3  1  0
  5  6  2  0
  7  8  1  0
  8 18  2  0
  9 10  2  0
  9  8  1  0
 10 11  1  0
 11 12  1  0
 11 17  2  0
 13 12  1  1
 13 14  1  0
 14  5  1  0
 15 13  1  0
 16 15  2  0
 18 17  1  0
 19 15  1  0
 20 19  1  0
 21 20  1  0
 22 21  1  0
 23 21  2  0
M  END
$$$$
