SYG.pdb
     RDKit          3D

 23 23  0  0  1  0  0  0  0  0999 V2000
    6.6171  -19.7277   24.2371 O   0  0  0  0  0  0  0  0  0  0  0  0
    5.6550  -19.5875   23.2630 C   0  0  0  0  0  0  0  0  0  0  0  0
    6.2269  -18.7780   22.1284 C   0  0  2  0  0  0  0  0  0  0  0  0
    6.7301  -19.6761   21.0860 N   0  0  0  0  0  0  0  0  0  0  0  0
    7.3319  -17.8962   22.5112 C   0  0  0  0  0  0  0  0  0  0  0  0
    8.5379  -18.1285   22.1459 O   0  0  0  0  0  0  0  0  0  0  0  0
    7.5819  -12.7650   18.1133 O   0  0  0  0  0  0  0  0  0  0  0  0
    7.6315  -13.1842   19.4456 C   0  0  0  0  0  0  0  0  0  0  0  0
    8.8448  -13.4113   20.0438 C   0  0  0  0  0  0  0  0  0  0  0  0
    8.8823  -13.8263   21.3642 C   0  0  0  0  0  0  0  0  0  0  0  0
    7.7401  -14.0228   22.1092 C   0  0  0  0  0  0  0  0  0  0  0  0
    7.8763  -14.4685   23.4956 C   0  0  0  0  0  0  0  0  0  0  0  0
    8.3394  -15.8944   23.6656 C   0  0  2  0  0  0  0  0  0  0  0  0
    7.1991  -16.7165   23.3069 N   0  0  0  0  0  0  0  0  0  0  0  0
    8.6645  -16.1577   25.0838 C   0  0  0  0  0  0  0  0  0  0  0  0
    9.5952  -15.4575   25.6124 O   0  0  0  0  0  0  0  0  0  0  0  0
    6.5365  -13.7862   21.4800 C   0  0  0  0  0  0  0  0  0  0  0  0
    6.4759  -13.3732   20.1693 C   0  0  0  0  0  0  0  0  0  0  0  0
    8.0055  -17.1351   25.8798 N   0  0  0  0  0  0  0  0  0  0  0  0
    8.3861  -17.2411   27.2596 C   0  0  0  0  0  0  0  0  0  0  0  0
    9.2836  -18.3670   27.5380 C   0  0  0  0  0  0  0  0  0  0  0  0
    9.5433  -18.6839   28.8637 O   0  0  0  0  0  0  0  0  0  0  0  0
    9.8112  -19.0362   26.6393 O   0  0  0  0  0  0  0  0  0  0  0  0
  2  1  1  0
  3  2  1  0
  3  4  1  6
  5  3  1  0
  5  6  2  0
  7  8  1  0
  8 18  2  0
  9 10  2  0
  9  8  1  0
 10 11  1  0
 11 12  1  0
 11 17  2  0
 13 12  1  1
 13 14  1  0
 14  5  1  0
 15 13  1  0
 16 15  2  0
 18 17  1  0
 19 15  1  0
 20 19  1  0
 21 20  1  0
 22 21  1  0
 23 21  2  0
M  END
$$$$
