HKF.pdb
     RDKit          3D

 31 32  0  0  1  0  0  0  0  0999 V2000
    7.9570  -16.4831   18.8709 N   0  0  0  0  0  0  0  0  0  0  0  0
    8.1758  -15.2240   19.6495 C   0  0  1  0  0  0  0  0  0  0  0  0
    7.3712  -14.2001   18.8830 C   0  0  0  0  0  0  0  0  0  0  0  0
    7.6292  -14.1312   17.4396 C   0  0  0  0  0  0  0  0  0  0  0  0
    8.4525  -14.9912   16.7089 C   0  0  0  0  0  0  0  0  0  0  0  0
    8.4289  -14.6045   15.4296 N   0  0  0  0  0  0  0  0  0  0  0  0
    7.6168  -13.5244   15.3181 C   0  0  0  0  0  0  0  0  0  0  0  0
    7.1477  -13.2605   16.5463 N   0  0  0  0  0  0  0  0  0  0  0  0
    7.5097  -15.4832   20.9352 C   0  0  0  0  0  0  0  0  0  0  0  0
    7.3710  -14.4881   21.7289 O   0  0  0  0  0  0  0  0  0  0  0  0
    7.0034  -16.7578   21.3625 N   0  0  0  0  0  0  0  0  0  0  0  0
    6.5439  -16.8950   22.7148 C   0  0  1  0  0  0  0  0  0  0  0  0
    5.5257  -17.9334   22.9468 C   0  0  0  0  0  0  0  0  0  0  0  0
    4.3961  -18.1502   22.0508 C   0  0  0  0  0  0  0  0  0  0  0  0
    4.2609  -19.4890   21.3825 C   0  0  0  0  0  0  0  0  0  0  0  0
    2.9406  -19.5174   20.5638 C   0  0  0  0  0  0  0  0  0  0  0  0
    2.6998  -20.8296   20.0306 N   0  0  0  0  0  0  0  0  0  0  0  0
    7.6796  -16.9420   23.6827 C   0  0  0  0  0  0  0  0  0  0  0  0
    8.6807  -17.6662   23.4835 O   0  0  0  0  0  0  0  0  0  0  0  0
    7.6640  -16.1681   24.8608 N   0  0  0  0  0  0  0  0  0  0  0  0
    8.7937  -16.2701   25.7991 C   0  0  1  0  0  0  0  0  0  0  0  0
    9.5922  -14.9970   25.7820 C   0  0  0  0  0  0  0  0  0  0  0  0
    8.7124  -13.8347   25.9558 C   0  0  0  0  0  0  0  0  0  0  0  0
    8.7217  -13.1127   27.1571 C   0  0  0  0  0  0  0  0  0  0  0  0
    7.9337  -12.0089   27.3503 C   0  0  0  0  0  0  0  0  0  0  0  0
    7.0902  -11.5559   26.3642 C   0  0  0  0  0  0  0  0  0  0  0  0
    7.0540  -12.2372   25.1736 C   0  0  0  0  0  0  0  0  0  0  0  0
    7.8471  -13.3428   24.9871 C   0  0  0  0  0  0  0  0  0  0  0  0
    8.2232  -16.4817   27.1344 C   0  0  0  0  0  0  0  0  0  0  0  0
    9.0386  -16.7539   28.2132 O   0  0  0  0  0  0  0  0  0  0  0  0
    6.9904  -16.4194   27.3183 O   0  0  0  0  0  0  0  0  0  0  0  0
  2  1  1  6
  3  4  1  0
  3  2  1  0
  4  5  2  0
  5  6  1  0
  7  6  1  0
  8  4  1  0
  8  7  2  0
  9  2  1  0
  9 10  2  0
 11  9  1  0
 12 11  1  0
 12 13  1  6
 14 13  1  0
 14 15  1  0
 15 16  1  0
 17 16  1  0
 18 12  1  0
 19 18  2  0
 20 18  1  0
 21 29  1  0
 21 20  1  0
 22 23  1  0
 21 22  1  1
 23 28  1  0
 24 23  2  0
 24 25  1  0
 25 26  2  0
 26 27  1  0
 28 27  2  0
 29 30  1  0
 31 29  2  0
M  END
$$$$
