HKF.pdb
     RDKit          3D

 31 32  0  0  1  0  0  0  0  0999 V2000
    6.9397  -16.8576   19.7832 N   0  0  0  0  0  0  0  0  0  0  0  0
    7.7369  -15.9613   20.6779 C   0  0  1  0  0  0  0  0  0  0  0  0
    7.1633  -14.5924   20.3949 C   0  0  0  0  0  0  0  0  0  0  0  0
    7.6222  -13.9475   19.1587 C   0  0  0  0  0  0  0  0  0  0  0  0
    8.5778  -12.9327   19.0658 C   0  0  0  0  0  0  0  0  0  0  0  0
    8.7214  -12.6118   17.7761 N   0  0  0  0  0  0  0  0  0  0  0  0
    7.8884  -13.3888   17.0406 C   0  0  0  0  0  0  0  0  0  0  0  0
    7.2372  -14.1855   17.9006 N   0  0  0  0  0  0  0  0  0  0  0  0
    7.3386  -16.3702   22.0337 C   0  0  0  0  0  0  0  0  0  0  0  0
    6.2420  -15.8893   22.4871 O   0  0  0  0  0  0  0  0  0  0  0  0
    8.0793  -17.2646   22.8792 N   0  0  0  0  0  0  0  0  0  0  0  0
    7.6106  -17.4904   24.2164 C   0  0  1  0  0  0  0  0  0  0  0  0
    7.2276  -18.8751   24.5395 C   0  0  0  0  0  0  0  0  0  0  0  0
    6.2641  -19.6353   23.7522 C   0  0  0  0  0  0  0  0  0  0  0  0
    6.0183  -21.0719   24.1171 C   0  0  0  0  0  0  0  0  0  0  0  0
    5.0147  -21.6890   23.1039 C   0  0  0  0  0  0  0  0  0  0  0  0
    4.7533  -23.0659   23.4201 N   0  0  0  0  0  0  0  0  0  0  0  0
    8.5101  -16.8649   25.2306 C   0  0  0  0  0  0  0  0  0  0  0  0
    9.7452  -16.7801   25.0475 O   0  0  0  0  0  0  0  0  0  0  0  0
    7.9969  -16.3451   26.4363 N   0  0  0  0  0  0  0  0  0  0  0  0
    8.9182  -15.7045   27.3890 C   0  0  1  0  0  0  0  0  0  0  0  0
    8.2187  -14.5837   28.1056 C   0  0  0  0  0  0  0  0  0  0  0  0
    7.7746  -13.5601   27.1516 C   0  0  0  0  0  0  0  0  0  0  0  0
    6.4240  -13.1913   27.0863 C   0  0  0  0  0  0  0  0  0  0  0  0
    5.9732  -12.2243   26.2270 C   0  0  0  0  0  0  0  0  0  0  0  0
    6.8345  -11.5661   25.3820 C   0  0  0  0  0  0  0  0  0  0  0  0
    8.1650  -11.9003   25.4177 C   0  0  0  0  0  0  0  0  0  0  0  0
    8.6096  -12.8705   26.2820 C   0  0  0  0  0  0  0  0  0  0  0  0
    9.3225  -16.7351   28.3522 C   0  0  0  0  0  0  0  0  0  0  0  0
   10.2871  -16.4712   29.3023 O   0  0  0  0  0  0  0  0  0  0  0  0
    8.8013  -17.8688   28.3294 O   0  0  0  0  0  0  0  0  0  0  0  0
  2  1  1  6
  3  4  1  0
  3  2  1  0
  4  5  2  0
  5  6  1  0
  7  6  1  0
  8  4  1  0
  8  7  2  0
  9  2  1  0
  9 10  2  0
 11  9  1  0
 12 11  1  0
 12 13  1  1
 14 13  1  0
 14 15  1  0
 15 16  1  0
 17 16  1  0
 18 12  1  0
 19 18  2  0
 20 18  1  0
 21 29  1  0
 21 20  1  0
 22 23  1  0
 21 22  1  1
 23 28  1  0
 24 23  2  0
 24 25  1  0
 25 26  2  0
 26 27  1  0
 28 27  2  0
 29 30  1  0
 31 29  2  0
M  END
$$$$
