HKF.pdb
     RDKit          3D

 31 32  0  0  1  0  0  0  0  0999 V2000
   11.6156  -17.9739   18.5111 N   0  0  0  0  0  0  0  0  0  0  0  0
   10.4140  -18.3268   19.3302 C   0  0  1  0  0  0  0  0  0  0  0  0
   10.9258  -19.4184   20.2410 C   0  0  0  0  0  0  0  0  0  0  0  0
   11.1121  -20.7360   19.6215 C   0  0  0  0  0  0  0  0  0  0  0  0
   10.1791  -21.4140   18.8332 C   0  0  0  0  0  0  0  0  0  0  0  0
   10.7182  -22.5777   18.4567 N   0  0  0  0  0  0  0  0  0  0  0  0
   11.9664  -22.6664   18.9788 C   0  0  0  0  0  0  0  0  0  0  0  0
   12.1781  -21.5413   19.6772 N   0  0  0  0  0  0  0  0  0  0  0  0
   10.1658  -17.1189   20.1323 C   0  0  0  0  0  0  0  0  0  0  0  0
   11.1873  -16.5412   20.6442 O   0  0  0  0  0  0  0  0  0  0  0  0
    8.8741  -16.5409   20.3793 N   0  0  0  0  0  0  0  0  0  0  0  0
    8.7890  -15.3918   21.2343 C   0  0  1  0  0  0  0  0  0  0  0  0
    7.9724  -14.2740   20.7317 C   0  0  0  0  0  0  0  0  0  0  0  0
    8.3179  -13.5152   19.5356 C   0  0  0  0  0  0  0  0  0  0  0  0
    7.7757  -13.9796   18.2135 C   0  0  0  0  0  0  0  0  0  0  0  0
    8.3710  -13.0969   17.0817 C   0  0  0  0  0  0  0  0  0  0  0  0
    7.8324  -13.4745   15.8044 N   0  0  0  0  0  0  0  0  0  0  0  0
    8.4803  -15.7732   22.6443 C   0  0  0  0  0  0  0  0  0  0  0  0
    7.4427  -16.4079   22.9392 O   0  0  0  0  0  0  0  0  0  0  0  0
    9.3513  -15.4301   23.6982 N   0  0  0  0  0  0  0  0  0  0  0  0
    8.8123  -14.7202   24.8697 C   0  0  1  0  0  0  0  0  0  0  0  0
    7.8800  -13.6285   24.4248 C   0  0  0  0  0  0  0  0  0  0  0  0
    7.3305  -12.9158   25.5846 C   0  0  0  0  0  0  0  0  0  0  0  0
    8.0861  -11.9289   26.2325 C   0  0  0  0  0  0  0  0  0  0  0  0
    7.6009  -11.2249   27.3029 C   0  0  0  0  0  0  0  0  0  0  0  0
    6.3384  -11.4576   27.7939 C   0  0  0  0  0  0  0  0  0  0  0  0
    5.5687  -12.4167   27.1849 C   0  0  0  0  0  0  0  0  0  0  0  0
    6.0618  -13.1183   26.1122 C   0  0  0  0  0  0  0  0  0  0  0  0
    8.0769  -15.7080   25.6676 C   0  0  0  0  0  0  0  0  0  0  0  0
    7.2477  -16.6276   25.0596 O   0  0  0  0  0  0  0  0  0  0  0  0
    8.1880  -15.7341   26.9104 O   0  0  0  0  0  0  0  0  0  0  0  0
  2  1  1  6
  3  4  1  0
  3  2  1  0
  4  5  2  0
  5  6  1  0
  7  6  1  0
  8  4  1  0
  8  7  2  0
  9  2  1  0
  9 10  2  0
 11  9  1  0
 12 11  1  0
 12 13  1  6
 14 13  1  0
 14 15  1  0
 15 16  1  0
 17 16  1  0
 18 12  1  0
 19 18  2  0
 20 18  1  0
 21 29  1  0
 21 20  1  0
 22 23  1  0
 21 22  1  6
 23 28  1  0
 24 23  2  0
 24 25  1  0
 25 26  2  0
 26 27  1  0
 28 27  2  0
 29 30  1  0
 31 29  2  0
M  END
$$$$
