HKF.pdb
     RDKit          3D

 31 32  0  0  1  0  0  0  0  0999 V2000
    6.0984  -16.8137   20.3009 N   0  0  0  0  0  0  0  0  0  0  0  0
    7.1516  -16.0774   21.0678 C   0  0  1  0  0  0  0  0  0  0  0  0
    6.8032  -14.6269   20.8270 C   0  0  0  0  0  0  0  0  0  0  0  0
    7.4900  -13.9804   19.7023 C   0  0  0  0  0  0  0  0  0  0  0  0
    7.3253  -12.6562   19.2890 C   0  0  0  0  0  0  0  0  0  0  0  0
    8.1207  -12.4460   18.2355 N   0  0  0  0  0  0  0  0  0  0  0  0
    8.7893  -13.5933   17.9612 C   0  0  0  0  0  0  0  0  0  0  0  0
    8.3894  -14.5027   18.8620 N   0  0  0  0  0  0  0  0  0  0  0  0
    6.8617  -16.4068   22.4719 C   0  0  0  0  0  0  0  0  0  0  0  0
    5.7414  -16.9766   22.7158 O   0  0  0  0  0  0  0  0  0  0  0  0
    7.7358  -16.1430   23.5809 N   0  0  0  0  0  0  0  0  0  0  0  0
    7.7616  -17.0758   24.6709 C   0  0  1  0  0  0  0  0  0  0  0  0
    7.8051  -18.5000   24.2990 C   0  0  0  0  0  0  0  0  0  0  0  0
    7.8278  -19.5759   25.2829 C   0  0  0  0  0  0  0  0  0  0  0  0
    7.8281  -20.9951   24.7897 C   0  0  0  0  0  0  0  0  0  0  0  0
    7.8497  -21.9571   26.0097 C   0  0  0  0  0  0  0  0  0  0  0  0
    6.5166  -22.3549   26.3686 N   0  0  0  0  0  0  0  0  0  0  0  0
    8.7721  -16.6941   25.7015 C   0  0  0  0  0  0  0  0  0  0  0  0
   10.0001  -16.8095   25.4893 O   0  0  0  0  0  0  0  0  0  0  0  0
    8.3763  -16.1878   26.9561 N   0  0  0  0  0  0  0  0  0  0  0  0
    9.3407  -15.4089   27.7501 C   0  0  1  0  0  0  0  0  0  0  0  0
    8.6721  -14.1879   28.3168 C   0  0  0  0  0  0  0  0  0  0  0  0
    8.2406  -13.2897   27.2387 C   0  0  0  0  0  0  0  0  0  0  0  0
    9.0649  -13.0714   26.1263 C   0  0  0  0  0  0  0  0  0  0  0  0
    8.6890  -12.2597   25.0887 C   0  0  0  0  0  0  0  0  0  0  0  0
    7.4742  -11.6167   25.0927 C   0  0  0  0  0  0  0  0  0  0  0  0
    6.6399  -11.8065   26.1655 C   0  0  0  0  0  0  0  0  0  0  0  0
    7.0234  -12.6219   27.2019 C   0  0  0  0  0  0  0  0  0  0  0  0
    9.7973  -16.2776   28.8410 C   0  0  0  0  0  0  0  0  0  0  0  0
   10.7935  -15.8635   29.7006 O   0  0  0  0  0  0  0  0  0  0  0  0
    9.2929  -17.4064   29.0110 O   0  0  0  0  0  0  0  0  0  0  0  0
  2  1  1  6
  3  4  1  0
  3  2  1  0
  4  5  2  0
  5  6  1  0
  7  6  1  0
  8  4  1  0
  8  7  2  0
  9  2  1  0
  9 10  2  0
 11  9  1  0
 12 11  1  0
 12 13  1  6
 14 13  1  0
 14 15  1  0
 15 16  1  0
 17 16  1  0
 18 12  1  0
 19 18  2  0
 20 18  1  0
 21 29  1  0
 21 20  1  0
 22 23  1  0
 21 22  1  1
 23 28  1  0
 24 23  2  0
 24 25  1  0
 25 26  2  0
 26 27  1  0
 28 27  2  0
 29 30  1  0
 31 29  2  0
M  END
$$$$
