HKF.pdb
     RDKit          3D

 31 32  0  0  1  0  0  0  0  0999 V2000
    9.1764  -15.9077   20.2998 N   0  0  0  0  0  0  0  0  0  0  0  0
    8.3911  -14.8508   21.0110 C   0  0  1  0  0  0  0  0  0  0  0  0
    7.2367  -14.5881   20.0721 C   0  0  0  0  0  0  0  0  0  0  0  0
    7.5900  -14.0289   18.7618 C   0  0  0  0  0  0  0  0  0  0  0  0
    8.8814  -13.8892   18.2478 C   0  0  0  0  0  0  0  0  0  0  0  0
    8.7896  -13.3414   17.0320 N   0  0  0  0  0  0  0  0  0  0  0  0
    7.4807  -13.1260   16.7513 C   0  0  0  0  0  0  0  0  0  0  0  0
    6.7791  -13.5502   17.8125 N   0  0  0  0  0  0  0  0  0  0  0  0
    7.8806  -15.5356   22.2087 C   0  0  0  0  0  0  0  0  0  0  0  0
    7.2111  -14.8295   23.0408 O   0  0  0  0  0  0  0  0  0  0  0  0
    8.0717  -16.9269   22.5107 N   0  0  0  0  0  0  0  0  0  0  0  0
    7.7890  -17.3853   23.8406 C   0  0  1  0  0  0  0  0  0  0  0  0
    7.7108  -18.8454   24.0157 C   0  0  0  0  0  0  0  0  0  0  0  0
    7.4385  -19.4761   25.3018 C   0  0  0  0  0  0  0  0  0  0  0  0
    6.3876  -20.5482   25.3634 C   0  0  0  0  0  0  0  0  0  0  0  0
    6.1984  -20.9900   26.8411 C   0  0  0  0  0  0  0  0  0  0  0  0
    7.3753  -21.6539   27.3291 N   0  0  0  0  0  0  0  0  0  0  0  0
    8.6483  -16.7050   24.8544 C   0  0  0  0  0  0  0  0  0  0  0  0
    9.8424  -16.4174   24.6140 O   0  0  0  0  0  0  0  0  0  0  0  0
    8.1421  -16.3610   26.1242 N   0  0  0  0  0  0  0  0  0  0  0  0
    9.0262  -15.6856   27.0881 C   0  0  1  0  0  0  0  0  0  0  0  0
    8.2268  -14.7486   27.9494 C   0  0  0  0  0  0  0  0  0  0  0  0
    7.5383  -13.7498   27.1227 C   0  0  0  0  0  0  0  0  0  0  0  0
    8.2440  -12.6607   26.5931 C   0  0  0  0  0  0  0  0  0  0  0  0
    7.6439  -11.7203   25.7980 C   0  0  0  0  0  0  0  0  0  0  0  0
    6.3091  -11.8040   25.4811 C   0  0  0  0  0  0  0  0  0  0  0  0
    5.5853  -12.8571   25.9813 C   0  0  0  0  0  0  0  0  0  0  0  0
    6.1938  -13.7961   26.7775 C   0  0  0  0  0  0  0  0  0  0  0  0
    9.6312  -16.7321   27.9200 C   0  0  0  0  0  0  0  0  0  0  0  0
    9.2773  -18.0551   27.7549 O   0  0  0  0  0  0  0  0  0  0  0  0
   10.4765  -16.4445   28.7920 O   0  0  0  0  0  0  0  0  0  0  0  0
  2  1  1  6
  3  4  1  0
  3  2  1  0
  4  5  2  0
  5  6  1  0
  7  6  1  0
  8  4  1  0
  8  7  2  0
  9  2  1  0
  9 10  2  0
 11  9  1  0
 12 11  1  0
 12 13  1  6
 14 13  1  0
 14 15  1  0
 15 16  1  0
 17 16  1  0
 18 12  1  0
 19 18  2  0
 20 18  1  0
 21 29  1  0
 21 20  1  0
 22 23  1  0
 21 22  1  1
 23 28  1  0
 24 23  2  0
 24 25  1  0
 25 26  2  0
 26 27  1  0
 28 27  2  0
 29 30  1  0
 31 29  2  0
M  END
$$$$
