HKF.pdb
     RDKit          3D

 31 32  0  0  1  0  0  0  0  0999 V2000
    8.1713  -17.6091   17.2011 N   0  0  0  0  0  0  0  0  0  0  0  0
    8.7846  -16.5201   18.0241 C   0  0  1  0  0  0  0  0  0  0  0  0
    7.9279  -15.3184   17.6998 C   0  0  0  0  0  0  0  0  0  0  0  0
    8.1676  -14.6935   16.3934 C   0  0  0  0  0  0  0  0  0  0  0  0
    9.0388  -15.1595   15.4058 C   0  0  0  0  0  0  0  0  0  0  0  0
    8.9783  -14.3209   14.3666 N   0  0  0  0  0  0  0  0  0  0  0  0
    8.0963  -13.3330   14.6575 C   0  0  0  0  0  0  0  0  0  0  0  0
    7.6222  -13.5828   15.8868 N   0  0  0  0  0  0  0  0  0  0  0  0
    8.5168  -16.9316   19.4108 C   0  0  0  0  0  0  0  0  0  0  0  0
    7.3256  -16.7611   19.8480 O   0  0  0  0  0  0  0  0  0  0  0  0
    9.4827  -17.5096   20.3034 N   0  0  0  0  0  0  0  0  0  0  0  0
    9.0577  -17.8929   21.6191 C   0  0  1  0  0  0  0  0  0  0  0  0
    9.6100  -19.1583   22.1313 C   0  0  0  0  0  0  0  0  0  0  0  0
    9.5614  -20.4064   21.3791 C   0  0  0  0  0  0  0  0  0  0  0  0
   10.7329  -21.3425   21.4719 C   0  0  0  0  0  0  0  0  0  0  0  0
   10.2246  -22.8061   21.3542 C   0  0  0  0  0  0  0  0  0  0  0  0
   10.3225  -23.4827   22.6178 N   0  0  0  0  0  0  0  0  0  0  0  0
    9.1600  -16.7594   22.5854 C   0  0  0  0  0  0  0  0  0  0  0  0
   10.0960  -15.9306   22.5265 O   0  0  0  0  0  0  0  0  0  0  0  0
    8.2009  -16.5820   23.6031 N   0  0  0  0  0  0  0  0  0  0  0  0
    8.3208  -15.4254   24.5058 C   0  0  1  0  0  0  0  0  0  0  0  0
    7.0449  -14.6310   24.4951 C   0  0  0  0  0  0  0  0  0  0  0  0
    7.1133  -13.5335   25.4677 C   0  0  0  0  0  0  0  0  0  0  0  0
    6.3566  -13.5836   26.6464 C   0  0  0  0  0  0  0  0  0  0  0  0
    6.4102  -12.5916   27.5897 C   0  0  0  0  0  0  0  0  0  0  0  0
    7.2169  -11.4918   27.4202 C   0  0  0  0  0  0  0  0  0  0  0  0
    7.9730  -11.4079   26.2781 C   0  0  0  0  0  0  0  0  0  0  0  0
    7.9142  -12.4063   25.3370 C   0  0  0  0  0  0  0  0  0  0  0  0
    8.5648  -15.9565   25.8517 C   0  0  0  0  0  0  0  0  0  0  0  0
    9.4042  -15.2987   26.7266 O   0  0  0  0  0  0  0  0  0  0  0  0
    8.0176  -17.0127   26.2294 O   0  0  0  0  0  0  0  0  0  0  0  0
  2  1  1  6
  3  4  1  0
  3  2  1  0
  4  5  2  0
  5  6  1  0
  7  6  1  0
  8  4  1  0
  8  7  2  0
  9  2  1  0
  9 10  2  0
 11  9  1  0
 12 11  1  0
 12 13  1  1
 14 13  1  0
 14 15  1  0
 15 16  1  0
 17 16  1  0
 18 12  1  0
 19 18  2  0
 20 18  1  0
 21 29  1  0
 21 20  1  0
 22 23  1  0
 21 22  1  1
 23 28  1  0
 24 23  2  0
 24 25  1  0
 25 26  2  0
 26 27  1  0
 28 27  2  0
 29 30  1  0
 31 29  2  0
M  END
$$$$
