HKF.pdb
     RDKit          3D

 31 32  0  0  1  0  0  0  0  0999 V2000
    7.7621  -17.6222   17.7627 N   0  0  0  0  0  0  0  0  0  0  0  0
    8.8274  -16.7698   18.3775 C   0  0  1  0  0  0  0  0  0  0  0  0
    8.2710  -15.3714   18.2427 C   0  0  0  0  0  0  0  0  0  0  0  0
    8.3908  -14.7587   16.9142 C   0  0  0  0  0  0  0  0  0  0  0  0
    8.8817  -15.3794   15.7630 C   0  0  0  0  0  0  0  0  0  0  0  0
    8.8311  -14.4976   14.7597 N   0  0  0  0  0  0  0  0  0  0  0  0
    8.3235  -13.3323   15.2319 C   0  0  0  0  0  0  0  0  0  0  0  0
    8.0666  -13.5182   16.5349 N   0  0  0  0  0  0  0  0  0  0  0  0
    8.8092  -17.1513   19.7981 C   0  0  0  0  0  0  0  0  0  0  0  0
    7.6624  -17.2493   20.3590 O   0  0  0  0  0  0  0  0  0  0  0  0
    9.9720  -17.4239   20.5964 N   0  0  0  0  0  0  0  0  0  0  0  0
    9.7895  -17.7872   21.9725 C   0  0  1  0  0  0  0  0  0  0  0  0
   10.6675  -18.8557   22.4784 C   0  0  0  0  0  0  0  0  0  0  0  0
   10.7493  -20.1737   21.8601 C   0  0  0  0  0  0  0  0  0  0  0  0
   11.7549  -21.1530   22.3960 C   0  0  0  0  0  0  0  0  0  0  0  0
   11.6644  -22.4722   21.5799 C   0  0  0  0  0  0  0  0  0  0  0  0
   12.0839  -22.2612   20.2221 N   0  0  0  0  0  0  0  0  0  0  0  0
    9.7341  -16.5869   22.8585 C   0  0  0  0  0  0  0  0  0  0  0  0
   10.5987  -15.6843   22.7940 O   0  0  0  0  0  0  0  0  0  0  0  0
    8.7004  -16.4273   23.8036 N   0  0  0  0  0  0  0  0  0  0  0  0
    8.6732  -15.2137   24.6364 C   0  0  1  0  0  0  0  0  0  0  0  0
    7.2554  -14.8708   24.9985 C   0  0  0  0  0  0  0  0  0  0  0  0
    7.2206  -13.7249   25.9155 C   0  0  0  0  0  0  0  0  0  0  0  0
    7.0891  -12.4220   25.4160 C   0  0  0  0  0  0  0  0  0  0  0  0
    7.0289  -11.3285   26.2390 C   0  0  0  0  0  0  0  0  0  0  0  0
    7.0956  -11.4622   27.6054 C   0  0  0  0  0  0  0  0  0  0  0  0
    7.2243  -12.7230   28.1313 C   0  0  0  0  0  0  0  0  0  0  0  0
    7.2838  -13.8145   27.3000 C   0  0  0  0  0  0  0  0  0  0  0  0
    9.4390  -15.5116   25.8521 C   0  0  0  0  0  0  0  0  0  0  0  0
    9.3726  -16.7587   26.4381 O   0  0  0  0  0  0  0  0  0  0  0  0
   10.1641  -14.6426   26.3780 O   0  0  0  0  0  0  0  0  0  0  0  0
  2  1  1  6
  3  4  1  0
  3  2  1  0
  4  5  2  0
  5  6  1  0
  7  6  1  0
  8  4  1  0
  8  7  2  0
  9  2  1  0
  9 10  2  0
 11  9  1  0
 12 11  1  0
 12 13  1  1
 14 13  1  0
 14 15  1  0
 15 16  1  0
 17 16  1  0
 18 12  1  0
 19 18  2  0
 20 18  1  0
 21 29  1  0
 21 20  1  0
 22 23  1  0
 21 22  1  1
 23 28  1  0
 24 23  2  0
 24 25  1  0
 25 26  2  0
 26 27  1  0
 28 27  2  0
 29 30  1  0
 31 29  2  0
M  END
$$$$
