HKF.pdb
     RDKit          3D

 31 32  0  0  1  0  0  0  0  0999 V2000
    6.5580  -20.1193   22.0626 N   0  0  0  0  0  0  0  0  0  0  0  0
    6.2605  -19.0759   23.0932 C   0  0  1  0  0  0  0  0  0  0  0  0
    6.7312  -19.7163   24.3784 C   0  0  0  0  0  0  0  0  0  0  0  0
    5.9621  -20.8804   24.8342 C   0  0  0  0  0  0  0  0  0  0  0  0
    4.5890  -21.0761   24.6675 C   0  0  0  0  0  0  0  0  0  0  0  0
    4.2655  -22.2513   25.2160 N   0  0  0  0  0  0  0  0  0  0  0  0
    5.3875  -22.8142   25.7284 C   0  0  0  0  0  0  0  0  0  0  0  0
    6.3965  -21.9654   25.4839 N   0  0  0  0  0  0  0  0  0  0  0  0
    7.1722  -17.9727   22.7528 C   0  0  0  0  0  0  0  0  0  0  0  0
    8.4253  -18.1858   22.9065 O   0  0  0  0  0  0  0  0  0  0  0  0
    6.7659  -16.6856   22.2610 N   0  0  0  0  0  0  0  0  0  0  0  0
    7.7311  -15.6242   22.2376 C   0  0  1  0  0  0  0  0  0  0  0  0
    7.4439  -14.5126   21.3153 C   0  0  0  0  0  0  0  0  0  0  0  0
    8.2865  -14.1966   20.1681 C   0  0  0  0  0  0  0  0  0  0  0  0
    7.6401  -13.6019   18.9492 C   0  0  0  0  0  0  0  0  0  0  0  0
    8.7287  -13.3453   17.8705 C   0  0  0  0  0  0  0  0  0  0  0  0
    8.1583  -12.7200   16.7096 N   0  0  0  0  0  0  0  0  0  0  0  0
    8.0991  -15.1809   23.6149 C   0  0  0  0  0  0  0  0  0  0  0  0
    7.5875  -14.1636   24.1342 O   0  0  0  0  0  0  0  0  0  0  0  0
    9.0403  -15.8964   24.3825 N   0  0  0  0  0  0  0  0  0  0  0  0
    9.3838  -15.4101   25.7287 C   0  0  1  0  0  0  0  0  0  0  0  0
    8.1582  -15.3974   26.5986 C   0  0  0  0  0  0  0  0  0  0  0  0
    7.5288  -14.0712   26.5826 C   0  0  0  0  0  0  0  0  0  0  0  0
    8.3013  -12.9183   26.7791 C   0  0  0  0  0  0  0  0  0  0  0  0
    7.7564  -11.6618   26.7481 C   0  0  0  0  0  0  0  0  0  0  0  0
    6.4140  -11.4741   26.5205 C   0  0  0  0  0  0  0  0  0  0  0  0
    5.6255  -12.5798   26.3235 C   0  0  0  0  0  0  0  0  0  0  0  0
    6.1789  -13.8363   26.3558 C   0  0  0  0  0  0  0  0  0  0  0  0
   10.3754  -16.3408   26.2799 C   0  0  0  0  0  0  0  0  0  0  0  0
   10.9601  -16.1017   27.5062 O   0  0  0  0  0  0  0  0  0  0  0  0
   10.7078  -17.3653   25.6495 O   0  0  0  0  0  0  0  0  0  0  0  0
  2  1  1  6
  3  4  1  0
  3  2  1  0
  4  5  2  0
  5  6  1  0
  7  6  1  0
  8  4  1  0
  8  7  2  0
  9  2  1  0
  9 10  2  0
 11  9  1  0
 12 11  1  0
 12 13  1  6
 14 13  1  0
 14 15  1  0
 15 16  1  0
 17 16  1  0
 18 12  1  0
 19 18  2  0
 20 18  1  0
 21 29  1  0
 21 20  1  0
 22 23  1  0
 21 22  1  1
 23 28  1  0
 24 23  2  0
 24 25  1  0
 25 26  2  0
 26 27  1  0
 28 27  2  0
 29 30  1  0
 31 29  2  0
M  END
$$$$
