HKF.pdb
     RDKit          3D

 31 32  0  0  1  0  0  0  0  0999 V2000
    9.2379  -15.7122   19.7313 N   0  0  0  0  0  0  0  0  0  0  0  0
    8.3472  -14.8768   20.5962 C   0  0  1  0  0  0  0  0  0  0  0  0
    7.1641  -14.5926   19.7001 C   0  0  0  0  0  0  0  0  0  0  0  0
    7.4819  -14.0892   18.3585 C   0  0  0  0  0  0  0  0  0  0  0  0
    7.9486  -12.8093   18.0489 C   0  0  0  0  0  0  0  0  0  0  0  0
    8.1191  -12.7364   16.7252 N   0  0  0  0  0  0  0  0  0  0  0  0
    7.7765  -13.9284   16.1775 C   0  0  0  0  0  0  0  0  0  0  0  0
    7.3958  -14.7261   17.1859 N   0  0  0  0  0  0  0  0  0  0  0  0
    7.9232  -15.7984   21.6614 C   0  0  0  0  0  0  0  0  0  0  0  0
    7.0026  -15.3893   22.4516 O   0  0  0  0  0  0  0  0  0  0  0  0
    8.4573  -17.1143   21.8779 N   0  0  0  0  0  0  0  0  0  0  0  0
    8.0855  -17.8176   23.0721 C   0  0  1  0  0  0  0  0  0  0  0  0
    8.3120  -19.2726   23.0595 C   0  0  0  0  0  0  0  0  0  0  0  0
    7.8718  -20.1527   24.1355 C   0  0  0  0  0  0  0  0  0  0  0  0
    6.4487  -20.6343   24.1274 C   0  0  0  0  0  0  0  0  0  0  0  0
    6.2145  -21.5486   25.3619 C   0  0  0  0  0  0  0  0  0  0  0  0
    4.8893  -22.1031   25.3412 N   0  0  0  0  0  0  0  0  0  0  0  0
    8.6048  -17.1404   24.2971 C   0  0  0  0  0  0  0  0  0  0  0  0
    9.7543  -16.6468   24.3354 O   0  0  0  0  0  0  0  0  0  0  0  0
    7.8146  -17.0328   25.4594 N   0  0  0  0  0  0  0  0  0  0  0  0
    8.3644  -16.3419   26.6372 C   0  0  1  0  0  0  0  0  0  0  0  0
    7.2604  -15.6576   27.3933 C   0  0  0  0  0  0  0  0  0  0  0  0
    7.0755  -14.2854   26.9055 C   0  0  0  0  0  0  0  0  0  0  0  0
    5.8047  -13.8354   26.5220 C   0  0  0  0  0  0  0  0  0  0  0  0
    5.5861  -12.5559   26.0840 C   0  0  0  0  0  0  0  0  0  0  0  0
    6.6141  -11.6474   26.0004 C   0  0  0  0  0  0  0  0  0  0  0  0
    7.8729  -12.0518   26.3678 C   0  0  0  0  0  0  0  0  0  0  0  0
    8.0843  -13.3361   26.8061 C   0  0  0  0  0  0  0  0  0  0  0  0
    8.9857  -17.3672   27.4834 C   0  0  0  0  0  0  0  0  0  0  0  0
    9.8349  -17.0122   28.5109 O   0  0  0  0  0  0  0  0  0  0  0  0
    8.7574  -18.5787   27.2890 O   0  0  0  0  0  0  0  0  0  0  0  0
  2  1  1  6
  3  4  1  0
  3  2  1  0
  4  5  2  0
  5  6  1  0
  7  6  1  0
  8  4  1  0
  8  7  2  0
  9  2  1  0
  9 10  2  0
 11  9  1  0
 12 11  1  0
 12 13  1  6
 14 13  1  0
 14 15  1  0
 15 16  1  0
 17 16  1  0
 18 12  1  0
 19 18  2  0
 20 18  1  0
 21 29  1  0
 21 20  1  0
 22 23  1  0
 21 22  1  1
 23 28  1  0
 24 23  2  0
 24 25  1  0
 25 26  2  0
 26 27  1  0
 28 27  2  0
 29 30  1  0
 31 29  2  0
M  END
$$$$
