HKF.pdb
     RDKit          3D

 31 32  0  0  1  0  0  0  0  0999 V2000
    8.0669  -16.9566   20.0778 N   0  0  0  0  0  0  0  0  0  0  0  0
    8.7956  -15.8920   20.8360 C   0  0  1  0  0  0  0  0  0  0  0  0
    7.8389  -14.7231   20.7952 C   0  0  0  0  0  0  0  0  0  0  0  0
    7.9018  -13.8842   19.5924 C   0  0  0  0  0  0  0  0  0  0  0  0
    8.8075  -14.0242   18.5380 C   0  0  0  0  0  0  0  0  0  0  0  0
    8.5450  -13.0752   17.6339 N   0  0  0  0  0  0  0  0  0  0  0  0
    7.5004  -12.3323   18.0758 C   0  0  0  0  0  0  0  0  0  0  0  0
    7.1320  -12.8427   19.2600 N   0  0  0  0  0  0  0  0  0  0  0  0
    8.8497  -16.4115   22.2111 C   0  0  0  0  0  0  0  0  0  0  0  0
    7.7347  -16.7183   22.7608 O   0  0  0  0  0  0  0  0  0  0  0  0
   10.0501  -16.6028   22.9766 N   0  0  0  0  0  0  0  0  0  0  0  0
    9.9490  -17.2189   24.2685 C   0  0  1  0  0  0  0  0  0  0  0  0
   10.5343  -18.5650   24.3877 C   0  0  0  0  0  0  0  0  0  0  0  0
   10.1917  -19.6607   23.4889 C   0  0  0  0  0  0  0  0  0  0  0  0
   10.8451  -20.9957   23.7085 C   0  0  0  0  0  0  0  0  0  0  0  0
   10.3766  -21.9793   22.6005 C   0  0  0  0  0  0  0  0  0  0  0  0
   11.0937  -23.2213   22.6852 N   0  0  0  0  0  0  0  0  0  0  0  0
   10.3616  -16.2869   25.3594 C   0  0  0  0  0  0  0  0  0  0  0  0
   11.3426  -15.5205   25.2304 O   0  0  0  0  0  0  0  0  0  0  0  0
    9.6569  -16.2373   26.5793 N   0  0  0  0  0  0  0  0  0  0  0  0
   10.0804  -15.2775   27.6119 C   0  0  1  0  0  0  0  0  0  0  0  0
    8.8755  -14.6740   28.2775 C   0  0  0  0  0  0  0  0  0  0  0  0
    8.1474  -13.8105   27.3397 C   0  0  0  0  0  0  0  0  0  0  0  0
    6.8580  -14.1568   26.9133 C   0  0  0  0  0  0  0  0  0  0  0  0
    6.1363  -13.3667   26.0579 C   0  0  0  0  0  0  0  0  0  0  0  0
    6.6502  -12.1869   25.5751 C   0  0  0  0  0  0  0  0  0  0  0  0
    7.9103  -11.8145   25.9708 C   0  0  0  0  0  0  0  0  0  0  0  0
    8.6277  -12.6117   26.8287 C   0  0  0  0  0  0  0  0  0  0  0  0
   10.8687  -16.0278   28.5961 C   0  0  0  0  0  0  0  0  0  0  0  0
   11.5386  -15.3728   29.6086 O   0  0  0  0  0  0  0  0  0  0  0  0
   10.9477  -17.2718   28.5352 O   0  0  0  0  0  0  0  0  0  0  0  0
  2  1  1  6
  3  4  1  0
  3  2  1  0
  4  5  2  0
  5  6  1  0
  7  6  1  0
  8  4  1  0
  8  7  2  0
  9  2  1  0
  9 10  2  0
 11  9  1  0
 12 11  1  0
 12 13  1  6
 14 13  1  0
 14 15  1  0
 15 16  1  0
 17 16  1  0
 18 12  1  0
 19 18  2  0
 20 18  1  0
 21 29  1  0
 21 20  1  0
 22 23  1  0
 21 22  1  1
 23 28  1  0
 24 23  2  0
 24 25  1  0
 25 26  2  0
 26 27  1  0
 28 27  2  0
 29 30  1  0
 31 29  2  0
M  END
$$$$
