HKF.pdb
     RDKit          3D

 31 32  0  0  1  0  0  0  0  0999 V2000
    6.3502  -16.3158   20.8672 N   0  0  0  0  0  0  0  0  0  0  0  0
    7.6218  -15.8909   21.5320 C   0  0  1  0  0  0  0  0  0  0  0  0
    7.5051  -14.3848   21.5691 C   0  0  0  0  0  0  0  0  0  0  0  0
    7.8073  -13.6869   20.3137 C   0  0  0  0  0  0  0  0  0  0  0  0
    8.1513  -14.2878   19.1003 C   0  0  0  0  0  0  0  0  0  0  0  0
    8.3494  -13.3218   18.1978 N   0  0  0  0  0  0  0  0  0  0  0  0
    8.1432  -12.1219   18.7946 C   0  0  0  0  0  0  0  0  0  0  0  0
    7.8173  -12.3720   20.0712 N   0  0  0  0  0  0  0  0  0  0  0  0
    7.4943  -16.4092   22.9028 C   0  0  0  0  0  0  0  0  0  0  0  0
    6.3401  -16.3262   23.4506 O   0  0  0  0  0  0  0  0  0  0  0  0
    8.5581  -17.0006   23.6658 N   0  0  0  0  0  0  0  0  0  0  0  0
    8.2273  -17.7116   24.8674 C   0  0  1  0  0  0  0  0  0  0  0  0
    8.5488  -19.1487   24.8746 C   0  0  0  0  0  0  0  0  0  0  0  0
    8.2079  -20.0317   25.9837 C   0  0  0  0  0  0  0  0  0  0  0  0
    8.5955  -21.4802   25.8889 C   0  0  0  0  0  0  0  0  0  0  0  0
    8.1215  -22.2182   27.1715 C   0  0  0  0  0  0  0  0  0  0  0  0
    8.4956  -23.6047   27.1293 N   0  0  0  0  0  0  0  0  0  0  0  0
    8.6950  -16.9864   26.0857 C   0  0  0  0  0  0  0  0  0  0  0  0
    8.3491  -17.3439   27.2341 O   0  0  0  0  0  0  0  0  0  0  0  0
    9.5469  -15.8679   25.9845 N   0  0  0  0  0  0  0  0  0  0  0  0
    9.9034  -15.1270   27.2055 C   0  0  1  0  0  0  0  0  0  0  0  0
    8.6760  -14.4953   27.7999 C   0  0  0  0  0  0  0  0  0  0  0  0
    8.1079  -13.5050   26.8770 C   0  0  0  0  0  0  0  0  0  0  0  0
    6.7231  -13.4424   26.6699 C   0  0  0  0  0  0  0  0  0  0  0  0
    6.1519  -12.5182   25.8356 C   0  0  0  0  0  0  0  0  0  0  0  0
    6.9196  -11.6017   25.1575 C   0  0  0  0  0  0  0  0  0  0  0  0
    8.2799  -11.6321   25.3353 C   0  0  0  0  0  0  0  0  0  0  0  0
    8.8454  -12.5614   26.1736 C   0  0  0  0  0  0  0  0  0  0  0  0
   10.4676  -16.1006   28.1474 C   0  0  0  0  0  0  0  0  0  0  0  0
   11.0118  -15.6871   29.3456 O   0  0  0  0  0  0  0  0  0  0  0  0
   10.4654  -17.3200   27.8818 O   0  0  0  0  0  0  0  0  0  0  0  0
  2  1  1  6
  3  4  1  0
  3  2  1  0
  4  5  2  0
  5  6  1  0
  7  6  1  0
  8  4  1  0
  8  7  2  0
  9  2  1  0
  9 10  2  0
 11  9  1  0
 12 11  1  0
 12 13  1  6
 14 13  1  0
 14 15  1  0
 15 16  1  0
 17 16  1  0
 18 12  1  0
 19 18  2  0
 20 18  1  0
 21 29  1  0
 21 20  1  0
 22 23  1  0
 21 22  1  1
 23 28  1  0
 24 23  2  0
 24 25  1  0
 25 26  2  0
 26 27  1  0
 28 27  2  0
 29 30  1  0
 31 29  2  0
M  END
$$$$
