HKF.pdb
     RDKit          3D

 31 32  0  0  1  0  0  0  0  0999 V2000
    8.0180  -20.2743   19.6871 N   0  0  0  0  0  0  0  0  0  0  0  0
    7.2537  -19.6563   20.8155 C   0  0  1  0  0  0  0  0  0  0  0  0
    7.3988  -20.6700   21.9266 C   0  0  0  0  0  0  0  0  0  0  0  0
    6.6232  -21.9066   21.7721 C   0  0  0  0  0  0  0  0  0  0  0  0
    5.7929  -22.2280   20.6956 C   0  0  0  0  0  0  0  0  0  0  0  0
    5.2650  -23.4350   20.9219 N   0  0  0  0  0  0  0  0  0  0  0  0
    5.7308  -23.8964   22.1087 C   0  0  0  0  0  0  0  0  0  0  0  0
    6.5484  -22.9539   22.6000 N   0  0  0  0  0  0  0  0  0  0  0  0
    8.0380  -18.4606   21.1606 C   0  0  0  0  0  0  0  0  0  0  0  0
    9.2161  -18.6520   21.6240 O   0  0  0  0  0  0  0  0  0  0  0  0
    7.5868  -17.1046   21.0143 N   0  0  0  0  0  0  0  0  0  0  0  0
    8.4255  -16.0464   21.4996 C   0  0  1  0  0  0  0  0  0  0  0  0
    8.2687  -14.7428   20.8327 C   0  0  0  0  0  0  0  0  0  0  0  0
    8.2276  -14.5941   19.3829 C   0  0  0  0  0  0  0  0  0  0  0  0
    7.9584  -13.2306   18.8120 C   0  0  0  0  0  0  0  0  0  0  0  0
    7.8259  -13.3432   17.2679 C   0  0  0  0  0  0  0  0  0  0  0  0
    7.4228  -12.0875   16.6981 N   0  0  0  0  0  0  0  0  0  0  0  0
    8.4047  -15.9638   22.9902 C   0  0  0  0  0  0  0  0  0  0  0  0
    7.4216  -15.4948   23.6066 O   0  0  0  0  0  0  0  0  0  0  0  0
    9.4971  -16.4134   23.7592 N   0  0  0  0  0  0  0  0  0  0  0  0
    9.9122  -15.6339   24.9370 C   0  0  1  0  0  0  0  0  0  0  0  0
    8.8893  -15.7701   26.0297 C   0  0  0  0  0  0  0  0  0  0  0  0
    9.3456  -15.0933   27.2498 C   0  0  0  0  0  0  0  0  0  0  0  0
    9.1123  -13.7229   27.4290 C   0  0  0  0  0  0  0  0  0  0  0  0
    9.5010  -13.0595   28.5628 C   0  0  0  0  0  0  0  0  0  0  0  0
   10.1438  -13.7153   29.5855 C   0  0  0  0  0  0  0  0  0  0  0  0
   10.3894  -15.0581   29.4460 C   0  0  0  0  0  0  0  0  0  0  0  0
    9.9966  -15.7165   28.3066 C   0  0  0  0  0  0  0  0  0  0  0  0
   11.1955  -16.1865   25.3853 C   0  0  0  0  0  0  0  0  0  0  0  0
   11.4846  -17.5243   25.2131 O   0  0  0  0  0  0  0  0  0  0  0  0
   12.0486  -15.4567   25.9303 O   0  0  0  0  0  0  0  0  0  0  0  0
  2  1  1  6
  3  4  1  0
  3  2  1  0
  4  5  2  0
  5  6  1  0
  7  6  1  0
  8  4  1  0
  8  7  2  0
  9  2  1  0
  9 10  2  0
 11  9  1  0
 12 11  1  0
 12 13  1  6
 14 13  1  0
 14 15  1  0
 15 16  1  0
 17 16  1  0
 18 12  1  0
 19 18  2  0
 20 18  1  0
 21 29  1  0
 21 20  1  0
 22 23  1  0
 21 22  1  1
 23 28  1  0
 24 23  2  0
 24 25  1  0
 25 26  2  0
 26 27  1  0
 28 27  2  0
 29 30  1  0
 31 29  2  0
M  END
$$$$
