HKF.pdb
     RDKit          3D

 31 32  0  0  1  0  0  0  0  0999 V2000
   10.6675  -18.4028   18.9563 N   0  0  0  0  0  0  0  0  0  0  0  0
    9.5527  -18.8227   19.8621 C   0  0  1  0  0  0  0  0  0  0  0  0
   10.1502  -19.9775   20.6321 C   0  0  0  0  0  0  0  0  0  0  0  0
   10.1126  -21.2830   19.9622 C   0  0  0  0  0  0  0  0  0  0  0  0
    9.4903  -21.5650   18.7437 C   0  0  0  0  0  0  0  0  0  0  0  0
    9.6767  -22.8600   18.4700 N   0  0  0  0  0  0  0  0  0  0  0  0
   10.3983  -23.4160   19.4743 C   0  0  0  0  0  0  0  0  0  0  0  0
   10.6476  -22.4416   20.3613 N   0  0  0  0  0  0  0  0  0  0  0  0
    9.3889  -17.6802   20.7741 C   0  0  0  0  0  0  0  0  0  0  0  0
   10.4541  -17.1884   21.2868 O   0  0  0  0  0  0  0  0  0  0  0  0
    8.1339  -17.0769   21.1272 N   0  0  0  0  0  0  0  0  0  0  0  0
    8.1417  -15.9390   22.0013 C   0  0  1  0  0  0  0  0  0  0  0  0
    7.0762  -14.9475   21.7773 C   0  0  0  0  0  0  0  0  0  0  0  0
    6.8293  -14.3284   20.4805 C   0  0  0  0  0  0  0  0  0  0  0  0
    7.9519  -13.5776   19.8221 C   0  0  0  0  0  0  0  0  0  0  0  0
    7.5003  -13.1284   18.4047 C   0  0  0  0  0  0  0  0  0  0  0  0
    8.5178  -12.3345   17.7735 N   0  0  0  0  0  0  0  0  0  0  0  0
    8.2958  -16.3410   23.4308 C   0  0  0  0  0  0  0  0  0  0  0  0
    8.0441  -17.5052   23.8149 O   0  0  0  0  0  0  0  0  0  0  0  0
    8.7326  -15.4184   24.4030 N   0  0  0  0  0  0  0  0  0  0  0  0
    8.8696  -15.8618   25.8000 C   0  0  1  0  0  0  0  0  0  0  0  0
    9.0282  -14.6714   26.7037 C   0  0  0  0  0  0  0  0  0  0  0  0
    8.0109  -13.6568   26.4026 C   0  0  0  0  0  0  0  0  0  0  0  0
    6.9491  -13.4335   27.2898 C   0  0  0  0  0  0  0  0  0  0  0  0
    5.9929  -12.4805   27.0571 C   0  0  0  0  0  0  0  0  0  0  0  0
    6.0330  -11.6928   25.9314 C   0  0  0  0  0  0  0  0  0  0  0  0
    7.0584  -11.8824   25.0394 C   0  0  0  0  0  0  0  0  0  0  0  0
    8.0134  -12.8396   25.2796 C   0  0  0  0  0  0  0  0  0  0  0  0
    7.6396  -16.5854   26.1418 C   0  0  0  0  0  0  0  0  0  0  0  0
    7.5535  -17.3153   27.3092 O   0  0  0  0  0  0  0  0  0  0  0  0
    6.6494  -16.5539   25.3829 O   0  0  0  0  0  0  0  0  0  0  0  0
  2  1  1  6
  3  4  1  0
  3  2  1  0
  4  5  2  0
  5  6  1  0
  7  6  1  0
  8  4  1  0
  8  7  2  0
  9  2  1  0
  9 10  2  0
 11  9  1  0
 12 11  1  0
 12 13  1  1
 14 13  1  0
 14 15  1  0
 15 16  1  0
 17 16  1  0
 18 12  1  0
 19 18  2  0
 20 18  1  0
 21 29  1  0
 21 20  1  0
 22 23  1  0
 21 22  1  1
 23 28  1  0
 24 23  2  0
 24 25  1  0
 25 26  2  0
 26 27  1  0
 28 27  2  0
 29 30  1  0
 31 29  2  0
M  END
$$$$
