HKF.pdb
     RDKit          3D

 31 32  0  0  1  0  0  0  0  0999 V2000
    6.2088  -16.1863   20.2079 N   0  0  0  0  0  0  0  0  0  0  0  0
    7.6741  -16.1166   20.5034 C   0  0  1  0  0  0  0  0  0  0  0  0
    7.9625  -14.6337   20.4708 C   0  0  0  0  0  0  0  0  0  0  0  0
    8.1194  -14.0398   19.1377 C   0  0  0  0  0  0  0  0  0  0  0  0
    7.1895  -13.2278   18.4839 C   0  0  0  0  0  0  0  0  0  0  0  0
    7.6961  -12.8875   17.2947 N   0  0  0  0  0  0  0  0  0  0  0  0
    8.9205  -13.4557   17.1663 C   0  0  0  0  0  0  0  0  0  0  0  0
    9.1506  -14.1454   18.2931 N   0  0  0  0  0  0  0  0  0  0  0  0
    7.7773  -16.5883   21.8929 C   0  0  0  0  0  0  0  0  0  0  0  0
    6.7804  -16.3544   22.6616 O   0  0  0  0  0  0  0  0  0  0  0  0
    8.9018  -17.2896   22.4472 N   0  0  0  0  0  0  0  0  0  0  0  0
    8.7693  -17.8784   23.7489 C   0  0  1  0  0  0  0  0  0  0  0  0
    9.3202  -19.2356   23.9011 C   0  0  0  0  0  0  0  0  0  0  0  0
    9.2921  -19.9656   25.1629 C   0  0  0  0  0  0  0  0  0  0  0  0
    9.9294  -21.3252   25.2160 C   0  0  0  0  0  0  0  0  0  0  0  0
    9.7407  -21.9197   26.6392 C   0  0  0  0  0  0  0  0  0  0  0  0
   10.3753  -23.2044   26.7430 N   0  0  0  0  0  0  0  0  0  0  0  0
    9.1905  -16.9360   24.8275 C   0  0  0  0  0  0  0  0  0  0  0  0
   10.2364  -16.2555   24.7315 O   0  0  0  0  0  0  0  0  0  0  0  0
    8.4207  -16.7789   25.9980 N   0  0  0  0  0  0  0  0  0  0  0  0
    8.8787  -15.8400   27.0351 C   0  0  1  0  0  0  0  0  0  0  0  0
    7.7110  -15.0656   27.5789 C   0  0  0  0  0  0  0  0  0  0  0  0
    7.5618  -13.7906   26.8666 C   0  0  0  0  0  0  0  0  0  0  0  0
    6.3101  -13.3968   26.3741 C   0  0  0  0  0  0  0  0  0  0  0  0
    6.1243  -12.2047   25.7251 C   0  0  0  0  0  0  0  0  0  0  0  0
    7.1682  -11.3330   25.5262 C   0  0  0  0  0  0  0  0  0  0  0  0
    8.4091  -11.6843   25.9950 C   0  0  0  0  0  0  0  0  0  0  0  0
    8.5876  -12.8809   26.6448 C   0  0  0  0  0  0  0  0  0  0  0  0
    9.4833  -16.6440   28.1034 C   0  0  0  0  0  0  0  0  0  0  0  0
    9.5066  -18.0208   28.0210 O   0  0  0  0  0  0  0  0  0  0  0  0
    9.9871  -16.0972   29.1057 O   0  0  0  0  0  0  0  0  0  0  0  0
  2  1  1  1
  3  4  1  0
  3  2  1  0
  4  5  2  0
  5  6  1  0
  7  6  1  0
  8  4  1  0
  8  7  2  0
  9  2  1  0
  9 10  2  0
 11  9  1  0
 12 11  1  0
 12 13  1  6
 14 13  1  0
 14 15  1  0
 15 16  1  0
 17 16  1  0
 18 12  1  0
 19 18  2  0
 20 18  1  0
 21 29  1  0
 21 20  1  0
 22 23  1  0
 21 22  1  1
 23 28  1  0
 24 23  2  0
 24 25  1  0
 25 26  2  0
 26 27  1  0
 28 27  2  0
 29 30  1  0
 31 29  2  0
M  END
$$$$
