CMW.pdb
     RDKit          3D

 29 30  0  0  1  0  0  0  0  0999 V2000
   27.9471  -21.4320  -16.4010 N   0  0  0  0  0  0  0  0  0  0  0  0
   27.7865  -20.4031  -15.4003 C   0  0  1  0  0  0  0  0  0  0  0  0
   26.8810  -19.3227  -15.9763 C   0  0  0  0  0  0  0  0  0  0  0  0
   26.6806  -17.9286  -14.8519 S   0  0  0  0  0  0  0  0  0  0  0  0
   27.0486  -20.9755  -14.2364 C   0  0  0  0  0  0  0  0  0  0  0  0
   26.1510  -21.8095  -14.4901 O   0  0  0  0  0  0  0  0  0  0  0  0
   26.6521  -19.3667   -7.1855 C   0  0  0  0  0  0  0  0  0  0  0  0
   25.8423  -20.1638   -8.5498 S   0  0  0  0  0  0  0  0  0  0  0  0
   26.7220  -21.4957   -9.3266 C   0  0  0  0  0  0  0  0  0  0  0  0
   27.3776  -21.1109  -10.6156 C   0  0  0  0  0  0  0  0  0  0  0  0
   26.5452  -21.2293  -11.8012 C   0  0  2  0  0  0  0  0  0  0  0  0
   27.3451  -20.5968  -12.9041 N   0  0  0  0  0  0  0  0  0  0  0  0
   25.2578  -20.5592  -11.8917 C   0  0  0  0  0  0  0  0  0  0  0  0
   25.2773  -19.2623  -11.8676 O   0  0  0  0  0  0  0  0  0  0  0  0
   23.9610  -21.0813  -12.0036 N   0  0  0  0  0  0  0  0  0  0  0  0
   22.7498  -20.2408  -12.0978 C   0  0  1  0  0  0  0  0  0  0  0  0
   22.8828  -19.2605  -13.1992 C   0  0  0  0  0  0  0  0  0  0  0  0
   22.4762  -19.7966  -14.5028 C   0  0  0  0  0  0  0  0  0  0  0  0
   21.3690  -20.6065  -14.7544 C   0  0  0  0  0  0  0  0  0  0  0  0
   21.3139  -20.9499  -16.0489 N   0  0  0  0  0  0  0  0  0  0  0  0
   22.3609  -20.3821  -16.6543 C   0  0  0  0  0  0  0  0  0  0  0  0
   22.7056  -20.4440  -18.0109 C   0  0  0  0  0  0  0  0  0  0  0  0
   23.8282  -19.7445  -18.3863 C   0  0  0  0  0  0  0  0  0  0  0  0
   24.5756  -19.0224  -17.4864 C   0  0  0  0  0  0  0  0  0  0  0  0
   24.2239  -18.9743  -16.1649 C   0  0  0  0  0  0  0  0  0  0  0  0
   23.1046  -19.6627  -15.7454 C   0  0  0  0  0  0  0  0  0  0  0  0
   21.5223  -21.0276  -12.1973 C   0  0  0  0  0  0  0  0  0  0  0  0
   21.5924  -22.2553  -12.4718 O   0  0  0  0  0  0  0  0  0  0  0  0
   20.2975  -20.4599  -11.9912 O   0  0  0  0  0  0  0  0  0  0  0  0
  2  1  1  6
  3  4  1  0
  3  2  1  0
  5  2  1  0
  6  5  2  0
  7  8  1  0
  8  9  1  0
  9 10  1  0
 11 12  1  0
 11 10  1  1
 12  5  1  0
 13 11  1  0
 14 13  2  0
 15 13  1  0
 16 17  1  6
 16 15  1  0
 17 18  1  0
 18 19  2  0
 19 20  1  0
 21 22  2  0
 21 20  1  0
 23 22  1  0
 24 23  2  0
 25 24  1  0
 25 26  2  0
 26 18  1  0
 26 21  1  0
 27 29  1  0
 27 16  1  0
 28 27  2  0
M  END
$$$$
