CMW.pdb
     RDKit          3D

 29 30  0  0  1  0  0  0  0  0999 V2000
   28.2833  -20.8505  -16.1431 N   0  0  0  0  0  0  0  0  0  0  0  0
   27.9026  -19.8357  -15.1887 C   0  0  1  0  0  0  0  0  0  0  0  0
   27.2370  -18.6978  -15.9509 C   0  0  0  0  0  0  0  0  0  0  0  0
   28.4382  -17.5690  -16.6794 S   0  0  0  0  0  0  0  0  0  0  0  0
   26.8511  -20.3928  -14.2882 C   0  0  0  0  0  0  0  0  0  0  0  0
   26.2403  -21.4076  -14.6915 O   0  0  0  0  0  0  0  0  0  0  0  0
   26.7226  -20.5110   -7.5207 C   0  0  0  0  0  0  0  0  0  0  0  0
   25.4925  -21.3187   -8.5142 S   0  0  0  0  0  0  0  0  0  0  0  0
   24.7464  -20.3469   -9.7988 C   0  0  0  0  0  0  0  0  0  0  0  0
   25.7141  -19.8910  -10.8454 C   0  0  0  0  0  0  0  0  0  0  0  0
   25.5516  -20.4989  -12.1556 C   0  0  2  0  0  0  0  0  0  0  0  0
   26.5532  -19.8053  -13.0342 N   0  0  0  0  0  0  0  0  0  0  0  0
   24.3079  -20.3738  -12.8987 C   0  0  0  0  0  0  0  0  0  0  0  0
   24.1075  -19.2452  -13.5061 O   0  0  0  0  0  0  0  0  0  0  0  0
   23.2559  -21.2832  -13.0805 N   0  0  0  0  0  0  0  0  0  0  0  0
   21.9988  -20.9455  -13.7791 C   0  0  1  0  0  0  0  0  0  0  0  0
   22.2040  -20.9446  -15.2452 C   0  0  0  0  0  0  0  0  0  0  0  0
   21.0088  -20.5450  -15.9962 C   0  0  0  0  0  0  0  0  0  0  0  0
   20.4592  -19.2646  -16.0545 C   0  0  0  0  0  0  0  0  0  0  0  0
   19.3446  -19.2576  -16.7991 N   0  0  0  0  0  0  0  0  0  0  0  0
   19.1501  -20.5064  -17.2326 C   0  0  0  0  0  0  0  0  0  0  0  0
   18.1222  -20.9777  -18.0598 C   0  0  0  0  0  0  0  0  0  0  0  0
   18.1642  -22.3136  -18.3821 C   0  0  0  0  0  0  0  0  0  0  0  0
   19.1564  -23.1466  -17.9221 C   0  0  0  0  0  0  0  0  0  0  0  0
   20.1519  -22.6685  -17.1141 C   0  0  0  0  0  0  0  0  0  0  0  0
   20.1471  -21.3338  -16.7656 C   0  0  0  0  0  0  0  0  0  0  0  0
   20.8811  -21.7950  -13.3734 C   0  0  0  0  0  0  0  0  0  0  0  0
   21.0785  -23.0210  -13.1601 O   0  0  0  0  0  0  0  0  0  0  0  0
   19.6244  -21.2849  -13.2129 O   0  0  0  0  0  0  0  0  0  0  0  0
  2  1  1  6
  3  4  1  0
  3  2  1  0
  5  2  1  0
  6  5  2  0
  7  8  1  0
  8  9  1  0
  9 10  1  0
 11 12  1  0
 11 10  1  1
 12  5  1  0
 13 11  1  0
 14 13  2  0
 15 13  1  0
 16 17  1  6
 16 15  1  0
 17 18  1  0
 18 19  2  0
 19 20  1  0
 21 22  2  0
 21 20  1  0
 23 22  1  0
 24 23  2  0
 25 24  1  0
 25 26  2  0
 26 18  1  0
 26 21  1  0
 27 29  1  0
 27 16  1  0
 28 27  2  0
M  END
$$$$
