CMW.pdb
     RDKit          3D

 29 30  0  0  1  0  0  0  0  0999 V2000
   27.9723  -24.7498  -17.5201 N   0  0  0  0  0  0  0  0  0  0  0  0
   26.7925  -24.0315  -17.0984 C   0  0  1  0  0  0  0  0  0  0  0  0
   25.8491  -25.0244  -16.4327 C   0  0  0  0  0  0  0  0  0  0  0  0
   25.0825  -26.1409  -17.6217 S   0  0  0  0  0  0  0  0  0  0  0  0
   27.1768  -23.0583  -16.0345 C   0  0  0  0  0  0  0  0  0  0  0  0
   28.0980  -23.4010  -15.2602 O   0  0  0  0  0  0  0  0  0  0  0  0
   27.1798  -15.3397  -14.4196 C   0  0  0  0  0  0  0  0  0  0  0  0
   26.9933  -16.7850  -15.4338 S   0  0  0  0  0  0  0  0  0  0  0  0
   27.1209  -18.3532  -14.6116 C   0  0  0  0  0  0  0  0  0  0  0  0
   26.9480  -19.5257  -15.5253 C   0  0  0  0  0  0  0  0  0  0  0  0
   27.0925  -20.8312  -14.9028 C   0  0  2  0  0  0  0  0  0  0  0  0
   26.5330  -21.8036  -15.9015 N   0  0  0  0  0  0  0  0  0  0  0  0
   26.3883  -21.1662  -13.6754 C   0  0  0  0  0  0  0  0  0  0  0  0
   25.1363  -21.4840  -13.7946 O   0  0  0  0  0  0  0  0  0  0  0  0
   26.8356  -21.2077  -12.3468 N   0  0  0  0  0  0  0  0  0  0  0  0
   25.9682  -21.5676  -11.2063 C   0  0  1  0  0  0  0  0  0  0  0  0
   26.7858  -21.9186  -10.0230 C   0  0  0  0  0  0  0  0  0  0  0  0
   26.8594  -20.8407   -9.0307 C   0  0  0  0  0  0  0  0  0  0  0  0
   25.9381  -19.8071   -8.8634 C   0  0  0  0  0  0  0  0  0  0  0  0
   26.3306  -18.9712   -7.8918 N   0  0  0  0  0  0  0  0  0  0  0  0
   27.4902  -19.4338   -7.4157 C   0  0  0  0  0  0  0  0  0  0  0  0
   28.2665  -18.9003   -6.3786 C   0  0  0  0  0  0  0  0  0  0  0  0
   29.4149  -19.5870   -6.0624 C   0  0  0  0  0  0  0  0  0  0  0  0
   29.7870  -20.7340   -6.7227 C   0  0  0  0  0  0  0  0  0  0  0  0
   29.0163  -21.2399   -7.7340 C   0  0  0  0  0  0  0  0  0  0  0  0
   27.8559  -20.5812   -8.0839 C   0  0  0  0  0  0  0  0  0  0  0  0
   24.9702  -20.5421  -10.9098 C   0  0  0  0  0  0  0  0  0  0  0  0
   25.2194  -19.3369  -11.1797 O   0  0  0  0  0  0  0  0  0  0  0  0
   23.7665  -20.8645  -10.3511 O   0  0  0  0  0  0  0  0  0  0  0  0
  2  1  1  1
  3  4  1  0
  3  2  1  0
  5  2  1  0
  6  5  2  0
  7  8  1  0
  8  9  1  0
  9 10  1  0
 11 12  1  0
 11 10  1  6
 12  5  1  0
 13 11  1  0
 14 13  2  0
 15 13  1  0
 16 17  1  1
 16 15  1  0
 17 18  1  0
 18 19  2  0
 19 20  1  0
 21 22  2  0
 21 20  1  0
 23 22  1  0
 24 23  2  0
 25 24  1  0
 25 26  2  0
 26 18  1  0
 26 21  1  0
 27 29  1  0
 27 16  1  0
 28 27  2  0
M  END
$$$$
