CMW.pdb
     RDKit          3D

 29 30  0  0  1  0  0  0  0  0999 V2000
   29.6840  -23.1668  -18.2865 N   0  0  0  0  0  0  0  0  0  0  0  0
   28.3765  -23.1144  -17.6757 C   0  0  1  0  0  0  0  0  0  0  0  0
   28.0167  -24.5192  -17.2110 C   0  0  0  0  0  0  0  0  0  0  0  0
   26.4630  -24.5600  -16.2987 S   0  0  0  0  0  0  0  0  0  0  0  0
   28.4567  -22.2840  -16.4384 C   0  0  0  0  0  0  0  0  0  0  0  0
   29.4002  -22.5276  -15.6537 O   0  0  0  0  0  0  0  0  0  0  0  0
   24.7321  -16.9570  -14.9434 C   0  0  0  0  0  0  0  0  0  0  0  0
   26.4783  -16.6447  -14.8680 S   0  0  0  0  0  0  0  0  0  0  0  0
   27.5060  -18.0011  -14.3628 C   0  0  0  0  0  0  0  0  0  0  0  0
   27.6821  -19.0466  -15.4190 C   0  0  0  0  0  0  0  0  0  0  0  0
   27.7360  -20.4177  -14.9398 C   0  0  2  0  0  0  0  0  0  0  0  0
   27.5122  -21.2660  -16.1591 N   0  0  0  0  0  0  0  0  0  0  0  0
   26.7583  -20.9266  -13.9913 C   0  0  0  0  0  0  0  0  0  0  0  0
   25.5960  -21.2440  -14.4721 O   0  0  0  0  0  0  0  0  0  0  0  0
   26.8516  -21.1414  -12.6085 N   0  0  0  0  0  0  0  0  0  0  0  0
   25.7180  -21.5938  -11.7762 C   0  0  1  0  0  0  0  0  0  0  0  0
   26.2054  -22.1502  -10.4938 C   0  0  0  0  0  0  0  0  0  0  0  0
   26.4219  -21.1274   -9.4647 C   0  0  0  0  0  0  0  0  0  0  0  0
   25.5459  -20.0958   -9.1277 C   0  0  0  0  0  0  0  0  0  0  0  0
   26.0722  -19.3164   -8.1725 N   0  0  0  0  0  0  0  0  0  0  0  0
   27.2754  -19.8143   -7.8733 C   0  0  0  0  0  0  0  0  0  0  0  0
   28.1859  -19.3439   -6.9180 C   0  0  0  0  0  0  0  0  0  0  0  0
   29.3542  -20.0570   -6.7873 C   0  0  0  0  0  0  0  0  0  0  0  0
   29.6209  -21.1705   -7.5481 C   0  0  0  0  0  0  0  0  0  0  0  0
   28.7197  -21.6148   -8.4771 C   0  0  0  0  0  0  0  0  0  0  0  0
   27.5348  -20.9278   -8.6412 C   0  0  0  0  0  0  0  0  0  0  0  0
   24.7077  -20.5554  -11.5850 C   0  0  0  0  0  0  0  0  0  0  0  0
   25.0474  -19.3429  -11.6290 O   0  0  0  0  0  0  0  0  0  0  0  0
   23.3975  -20.8725  -11.3661 O   0  0  0  0  0  0  0  0  0  0  0  0
  2  1  1  1
  3  4  1  0
  3  2  1  0
  5  2  1  0
  6  5  2  0
  7  8  1  0
  8  9  1  0
  9 10  1  0
 11 12  1  0
 11 10  1  6
 12  5  1  0
 13 11  1  0
 14 13  2  0
 15 13  1  0
 16 17  1  1
 16 15  1  0
 17 18  1  0
 18 19  2  0
 19 20  1  0
 21 22  2  0
 21 20  1  0
 23 22  1  0
 24 23  2  0
 25 24  1  0
 25 26  2  0
 26 18  1  0
 26 21  1  0
 27 29  1  0
 27 16  1  0
 28 27  2  0
M  END
$$$$
