CMW.pdb
     RDKit          3D

 29 30  0  0  1  0  0  0  0  0999 V2000
   29.3726  -21.4823  -18.5264 N   0  0  0  0  0  0  0  0  0  0  0  0
   28.6323  -22.2914  -17.5868 C   0  0  1  0  0  0  0  0  0  0  0  0
   29.6333  -23.0756  -16.7489 C   0  0  0  0  0  0  0  0  0  0  0  0
   30.4817  -24.3438  -17.7080 S   0  0  0  0  0  0  0  0  0  0  0  0
   27.9200  -21.3909  -16.6335 C   0  0  0  0  0  0  0  0  0  0  0  0
   28.5105  -20.3395  -16.2998 O   0  0  0  0  0  0  0  0  0  0  0  0
   22.9086  -19.6126  -18.8233 C   0  0  0  0  0  0  0  0  0  0  0  0
   23.9901  -18.3983  -18.1104 S   0  0  0  0  0  0  0  0  0  0  0  0
   25.3012  -19.0098  -17.0815 C   0  0  0  0  0  0  0  0  0  0  0  0
   24.8889  -20.1411  -16.1928 C   0  0  0  0  0  0  0  0  0  0  0  0
   25.9262  -20.6584  -15.3159 C   0  0  2  0  0  0  0  0  0  0  0  0
   26.6355  -21.7055  -16.1262 N   0  0  0  0  0  0  0  0  0  0  0  0
   25.5964  -21.3535  -14.0819 C   0  0  0  0  0  0  0  0  0  0  0  0
   24.8261  -22.3916  -14.1902 O   0  0  0  0  0  0  0  0  0  0  0  0
   25.9744  -21.0930  -12.7566 N   0  0  0  0  0  0  0  0  0  0  0  0
   25.4948  -21.8813  -11.6030 C   0  0  1  0  0  0  0  0  0  0  0  0
   26.5846  -22.0796  -10.6208 C   0  0  0  0  0  0  0  0  0  0  0  0
   26.6888  -20.9894   -9.6447 C   0  0  0  0  0  0  0  0  0  0  0  0
   25.7217  -20.0191   -9.3832 C   0  0  0  0  0  0  0  0  0  0  0  0
   26.1567  -19.1489   -8.4610 N   0  0  0  0  0  0  0  0  0  0  0  0
   27.3890  -19.5271   -8.1096 C   0  0  0  0  0  0  0  0  0  0  0  0
   28.2324  -18.9319   -7.1623 C   0  0  0  0  0  0  0  0  0  0  0  0
   29.4521  -19.5360   -6.9681 C   0  0  0  0  0  0  0  0  0  0  0  0
   29.8300  -20.6616   -7.6611 C   0  0  0  0  0  0  0  0  0  0  0  0
   28.9931  -21.2285   -8.5835 C   0  0  0  0  0  0  0  0  0  0  0  0
   27.7598  -20.6536   -8.8098 C   0  0  0  0  0  0  0  0  0  0  0  0
   24.2918  -21.3174  -10.9942 C   0  0  0  0  0  0  0  0  0  0  0  0
   23.6176  -22.0146  -10.1900 O   0  0  0  0  0  0  0  0  0  0  0  0
   23.8857  -20.0439  -11.2741 O   0  0  0  0  0  0  0  0  0  0  0  0
  2  1  1  6
  3  4  1  0
  3  2  1  0
  5  2  1  0
  6  5  2  0
  7  8  1  0
  8  9  1  0
  9 10  1  0
 11 12  1  0
 11 10  1  6
 12  5  1  0
 13 11  1  0
 14 13  2  0
 15 13  1  0
 16 17  1  1
 16 15  1  0
 17 18  1  0
 18 19  2  0
 19 20  1  0
 21 22  2  0
 21 20  1  0
 23 22  1  0
 24 23  2  0
 25 24  1  0
 25 26  2  0
 26 18  1  0
 26 21  1  0
 27 29  1  0
 27 16  1  0
 28 27  2  0
M  END
$$$$
