CMW.pdb
     RDKit          3D

 29 30  0  0  1  0  0  0  0  0999 V2000
   22.3953  -15.9248  -17.2754 N   0  0  0  0  0  0  0  0  0  0  0  0
   21.5545  -15.2924  -16.2860 C   0  0  1  0  0  0  0  0  0  0  0  0
   22.3383  -15.2127  -14.9828 C   0  0  0  0  0  0  0  0  0  0  0  0
   22.3407  -16.7784  -14.0904 S   0  0  0  0  0  0  0  0  0  0  0  0
   21.3053  -13.8802  -16.6986 C   0  0  0  0  0  0  0  0  0  0  0  0
   22.1857  -13.3313  -17.3981 O   0  0  0  0  0  0  0  0  0  0  0  0
   15.5828   -8.8121  -18.4902 C   0  0  0  0  0  0  0  0  0  0  0  0
   16.2667  -10.3745  -17.9966 S   0  0  0  0  0  0  0  0  0  0  0  0
   18.0018  -10.3985  -17.6220 C   0  0  0  0  0  0  0  0  0  0  0  0
   18.5091  -11.7459  -17.2139 C   0  0  0  0  0  0  0  0  0  0  0  0
   19.9206  -11.8064  -16.8726 C   0  0  2  0  0  0  0  0  0  0  0  0
   20.1294  -13.1873  -16.3197 N   0  0  0  0  0  0  0  0  0  0  0  0
   20.4891  -10.9441  -15.8490 C   0  0  0  0  0  0  0  0  0  0  0  0
   20.3485  -11.3343  -14.6198 O   0  0  0  0  0  0  0  0  0  0  0  0
   21.1826   -9.7300  -15.9579 N   0  0  0  0  0  0  0  0  0  0  0  0
   21.6285   -8.9393  -14.7924 C   0  0  1  0  0  0  0  0  0  0  0  0
   22.7774   -9.5960  -14.1286 C   0  0  0  0  0  0  0  0  0  0  0  0
   23.9761   -9.6553  -14.9722 C   0  0  0  0  0  0  0  0  0  0  0  0
   24.4268   -8.6599  -15.8389 C   0  0  0  0  0  0  0  0  0  0  0  0
   25.5311   -9.0562  -16.4870 N   0  0  0  0  0  0  0  0  0  0  0  0
   25.8169  -10.2910  -16.0641 C   0  0  0  0  0  0  0  0  0  0  0  0
   26.8934  -11.1020  -16.4470 C   0  0  0  0  0  0  0  0  0  0  0  0
   26.9749  -12.3326  -15.8393 C   0  0  0  0  0  0  0  0  0  0  0  0
   26.0552  -12.7508  -14.9070 C   0  0  0  0  0  0  0  0  0  0  0  0
   25.0096  -11.9451  -14.5461 C   0  0  0  0  0  0  0  0  0  0  0  0
   24.8898  -10.7023  -15.1324 C   0  0  0  0  0  0  0  0  0  0  0  0
   21.9021   -7.5435  -15.1278 C   0  0  0  0  0  0  0  0  0  0  0  0
   21.8802   -7.1790  -16.3337 O   0  0  0  0  0  0  0  0  0  0  0  0
   22.1747   -6.6214  -14.1580 O   0  0  0  0  0  0  0  0  0  0  0  0
  2  1  1  6
  3  4  1  0
  3  2  1  0
  5  2  1  0
  6  5  2  0
  7  8  1  0
  8  9  1  0
  9 10  1  0
 11 12  1  0
 11 10  1  1
 12  5  1  0
 13 11  1  0
 14 13  2  0
 15 13  1  0
 16 17  1  6
 16 15  1  0
 17 18  1  0
 18 19  2  0
 19 20  1  0
 21 22  2  0
 21 20  1  0
 23 22  1  0
 24 23  2  0
 25 24  1  0
 25 26  2  0
 26 18  1  0
 26 21  1  0
 27 29  1  0
 27 16  1  0
 28 27  2  0
M  END
$$$$
