CMW.pdb
     RDKit          3D

 29 30  0  0  1  0  0  0  0  0999 V2000
   27.9426  -22.0659  -16.2515 N   0  0  0  0  0  0  0  0  0  0  0  0
   27.6144  -20.8147  -15.6092 C   0  0  1  0  0  0  0  0  0  0  0  0
   26.8729  -19.9475  -16.6176 C   0  0  0  0  0  0  0  0  0  0  0  0
   27.2597  -20.3964  -18.3196 S   0  0  0  0  0  0  0  0  0  0  0  0
   26.6432  -21.0800  -14.5078 C   0  0  0  0  0  0  0  0  0  0  0  0
   25.9191  -22.0937  -14.6238 O   0  0  0  0  0  0  0  0  0  0  0  0
   25.3609  -22.5407   -8.4246 C   0  0  0  0  0  0  0  0  0  0  0  0
   25.7741  -20.8234   -8.6051 S   0  0  0  0  0  0  0  0  0  0  0  0
   25.0230  -19.9653   -9.9656 C   0  0  0  0  0  0  0  0  0  0  0  0
   25.9202  -19.8238  -11.1549 C   0  0  0  0  0  0  0  0  0  0  0  0
   25.5165  -20.5687  -12.3358 C   0  0  2  0  0  0  0  0  0  0  0  0
   26.5404  -20.2281  -13.3807 N   0  0  0  0  0  0  0  0  0  0  0  0
   24.2524  -20.3017  -13.0032 C   0  0  0  0  0  0  0  0  0  0  0  0
   24.1733  -19.1924  -13.6709 O   0  0  0  0  0  0  0  0  0  0  0  0
   23.0690  -21.0527  -13.0546 N   0  0  0  0  0  0  0  0  0  0  0  0
   21.7542  -20.4778  -13.4053 C   0  0  1  0  0  0  0  0  0  0  0  0
   21.7893  -19.8934  -14.7650 C   0  0  0  0  0  0  0  0  0  0  0  0
   22.1236  -20.8712  -15.8063 C   0  0  0  0  0  0  0  0  0  0  0  0
   21.7442  -22.2131  -15.8323 C   0  0  0  0  0  0  0  0  0  0  0  0
   22.2534  -22.8317  -16.9069 N   0  0  0  0  0  0  0  0  0  0  0  0
   22.9588  -21.9248  -17.5888 C   0  0  0  0  0  0  0  0  0  0  0  0
   23.6546  -22.1055  -18.7914 C   0  0  0  0  0  0  0  0  0  0  0  0
   24.2844  -20.9955  -19.3031 C   0  0  0  0  0  0  0  0  0  0  0  0
   24.2382  -19.7734  -18.6754 C   0  0  0  0  0  0  0  0  0  0  0  0
   23.5542  -19.6161  -17.5007 C   0  0  0  0  0  0  0  0  0  0  0  0
   22.9086  -20.7047  -16.9520 C   0  0  0  0  0  0  0  0  0  0  0  0
   20.6581  -21.4295  -13.2359 C   0  0  0  0  0  0  0  0  0  0  0  0
   20.9100  -22.6070  -12.8653 O   0  0  0  0  0  0  0  0  0  0  0  0
   19.3617  -21.0660  -13.4646 O   0  0  0  0  0  0  0  0  0  0  0  0
  2  1  1  6
  3  4  1  0
  3  2  1  0
  5  2  1  0
  6  5  2  0
  7  8  1  0
  8  9  1  0
  9 10  1  0
 11 12  1  0
 11 10  1  1
 12  5  1  0
 13 11  1  0
 14 13  2  0
 15 13  1  0
 16 17  1  6
 16 15  1  0
 17 18  1  0
 18 19  2  0
 19 20  1  0
 21 22  2  0
 21 20  1  0
 23 22  1  0
 24 23  2  0
 25 24  1  0
 25 26  2  0
 26 18  1  0
 26 21  1  0
 27 29  1  0
 27 16  1  0
 28 27  2  0
M  END
$$$$
