CMW.pdb
     RDKit          3D

 29 30  0  0  1  0  0  0  0  0999 V2000
   43.4931  -27.2629  -17.2214 N   0  0  0  0  0  0  0  0  0  0  0  0
   42.5882  -27.0333  -18.3232 C   0  0  1  0  0  0  0  0  0  0  0  0
   42.4519  -28.3357  -19.1005 C   0  0  0  0  0  0  0  0  0  0  0  0
   43.8208  -28.5953  -20.2436 S   0  0  0  0  0  0  0  0  0  0  0  0
   41.2305  -26.7406  -17.7774 C   0  0  0  0  0  0  0  0  0  0  0  0
   40.9893  -27.1398  -16.6164 O   0  0  0  0  0  0  0  0  0  0  0  0
   37.5189  -21.3788  -18.9817 C   0  0  0  0  0  0  0  0  0  0  0  0
   38.7750  -21.5673  -17.7411 S   0  0  0  0  0  0  0  0  0  0  0  0
   39.1450  -23.2273  -17.2323 C   0  0  0  0  0  0  0  0  0  0  0  0
   38.7559  -24.2644  -18.2385 C   0  0  0  0  0  0  0  0  0  0  0  0
   38.9858  -25.6426  -17.8381 C   0  0  2  0  0  0  0  0  0  0  0  0
   40.2556  -26.0440  -18.5328 N   0  0  0  0  0  0  0  0  0  0  0  0
   38.0555  -26.7005  -18.1988 C   0  0  0  0  0  0  0  0  0  0  0  0
   38.2144  -27.2369  -19.3691 O   0  0  0  0  0  0  0  0  0  0  0  0
   36.9858  -27.2600  -17.4850 N   0  0  0  0  0  0  0  0  0  0  0  0
   35.9774  -28.1511  -18.0946 C   0  0  1  0  0  0  0  0  0  0  0  0
   34.9100  -28.4705  -17.1197 C   0  0  0  0  0  0  0  0  0  0  0  0
   33.9003  -29.3935  -17.6495 C   0  0  0  0  0  0  0  0  0  0  0  0
   34.0147  -30.7806  -17.7392 C   0  0  0  0  0  0  0  0  0  0  0  0
   32.9246  -31.3130  -18.3093 N   0  0  0  0  0  0  0  0  0  0  0  0
   32.0951  -30.3054  -18.5956 C   0  0  0  0  0  0  0  0  0  0  0  0
   30.8244  -30.3793  -19.1809 C   0  0  0  0  0  0  0  0  0  0  0  0
   30.1600  -29.1871  -19.3465 C   0  0  0  0  0  0  0  0  0  0  0  0
   30.7058  -27.9855  -18.9615 C   0  0  0  0  0  0  0  0  0  0  0  0
   31.9490  -27.9327  -18.3921 C   0  0  0  0  0  0  0  0  0  0  0  0
   32.6506  -29.1061  -18.2085 C   0  0  0  0  0  0  0  0  0  0  0  0
   35.4460  -27.6269  -19.3510 C   0  0  0  0  0  0  0  0  0  0  0  0
   35.2177  -28.4164  -20.3060 O   0  0  0  0  0  0  0  0  0  0  0  0
   35.1840  -26.2960  -19.5097 O   0  0  0  0  0  0  0  0  0  0  0  0
  2  1  1  1
  3  4  1  0
  3  2  1  0
  5  2  1  0
  6  5  2  0
  7  8  1  0
  8  9  1  0
  9 10  1  0
 11 12  1  0
 11 10  1  6
 12  5  1  0
 13 11  1  0
 14 13  2  0
 15 13  1  0
 16 17  1  1
 16 15  1  0
 17 18  1  0
 18 19  2  0
 19 20  1  0
 21 22  2  0
 21 20  1  0
 23 22  1  0
 24 23  2  0
 25 24  1  0
 25 26  2  0
 26 18  1  0
 26 21  1  0
 27 29  1  0
 27 16  1  0
 28 27  2  0
M  END
$$$$
