CMW.pdb
     RDKit          3D

 29 30  0  0  1  0  0  0  0  0999 V2000
   26.9026  -21.9389  -14.1267 N   0  0  0  0  0  0  0  0  0  0  0  0
   27.3301  -20.8545  -13.2742 C   0  0  1  0  0  0  0  0  0  0  0  0
   26.7785  -19.5569  -13.8497 C   0  0  0  0  0  0  0  0  0  0  0  0
   25.7325  -19.8387  -15.2899 S   0  0  0  0  0  0  0  0  0  0  0  0
   26.6877  -21.0124  -11.9366 C   0  0  0  0  0  0  0  0  0  0  0  0
   25.9313  -21.9976  -11.7850 O   0  0  0  0  0  0  0  0  0  0  0  0
   27.0318  -21.6979   -5.0194 C   0  0  0  0  0  0  0  0  0  0  0  0
   27.6368  -20.3937   -6.0613 S   0  0  0  0  0  0  0  0  0  0  0  0
   26.4700  -19.6721   -7.1879 C   0  0  0  0  0  0  0  0  0  0  0  0
   26.9715  -19.5814   -8.5949 C   0  0  0  0  0  0  0  0  0  0  0  0
   26.2076  -20.3273   -9.5811 C   0  0  2  0  0  0  0  0  0  0  0  0
   26.9188  -20.0939  -10.8834 N   0  0  0  0  0  0  0  0  0  0  0  0
   24.8272  -19.9858   -9.8853 C   0  0  0  0  0  0  0  0  0  0  0  0
   24.5962  -18.7546  -10.2222 O   0  0  0  0  0  0  0  0  0  0  0  0
   23.6674  -20.7743   -9.8788 N   0  0  0  0  0  0  0  0  0  0  0  0
   22.4394  -20.4230  -10.6210 C   0  0  1  0  0  0  0  0  0  0  0  0
   22.7534  -20.1415  -12.0401 C   0  0  0  0  0  0  0  0  0  0  0  0
   21.8505  -20.8185  -12.9774 C   0  0  0  0  0  0  0  0  0  0  0  0
   20.4936  -21.0731  -12.7799 C   0  0  0  0  0  0  0  0  0  0  0  0
   19.9784  -21.7454  -13.8188 N   0  0  0  0  0  0  0  0  0  0  0  0
   20.9678  -21.9376  -14.6961 C   0  0  0  0  0  0  0  0  0  0  0  0
   20.8990  -22.5757  -15.9415 C   0  0  0  0  0  0  0  0  0  0  0  0
   22.0652  -22.6193  -16.6685 C   0  0  0  0  0  0  0  0  0  0  0  0
   23.2371  -22.0694  -16.2057 C   0  0  0  0  0  0  0  0  0  0  0  0
   23.2853  -21.4507  -14.9861 C   0  0  0  0  0  0  0  0  0  0  0  0
   22.1377  -21.3855  -14.2236 C   0  0  0  0  0  0  0  0  0  0  0  0
   21.3834  -21.4221  -10.4715 C   0  0  0  0  0  0  0  0  0  0  0  0
   20.2850  -21.0913   -9.9505 O   0  0  0  0  0  0  0  0  0  0  0  0
   21.5603  -22.7092  -10.8925 O   0  0  0  0  0  0  0  0  0  0  0  0
  2  1  1  6
  3  4  1  0
  3  2  1  0
  5  2  1  0
  6  5  2  0
  7  8  1  0
  8  9  1  0
  9 10  1  0
 11 12  1  0
 11 10  1  1
 12  5  1  0
 13 11  1  0
 14 13  2  0
 15 13  1  0
 16 17  1  6
 16 15  1  0
 17 18  1  0
 18 19  2  0
 19 20  1  0
 21 22  2  0
 21 20  1  0
 23 22  1  0
 24 23  2  0
 25 24  1  0
 25 26  2  0
 26 18  1  0
 26 21  1  0
 27 29  1  0
 27 16  1  0
 28 27  2  0
M  END
$$$$
