CMW.pdb
     RDKit          3D

 29 30  0  0  1  0  0  0  0  0999 V2000
   27.1780  -15.3004  -17.8688 N   0  0  0  0  0  0  0  0  0  0  0  0
   26.7125  -15.7787  -16.5880 C   0  0  1  0  0  0  0  0  0  0  0  0
   25.5656  -14.8832  -16.1390 C   0  0  0  0  0  0  0  0  0  0  0  0
   26.1481  -13.3700  -15.3523 S   0  0  0  0  0  0  0  0  0  0  0  0
   26.1223  -17.1374  -16.7677 C   0  0  0  0  0  0  0  0  0  0  0  0
   25.2890  -17.2748  -17.6909 O   0  0  0  0  0  0  0  0  0  0  0  0
   29.4315  -22.5065  -15.6673 C   0  0  0  0  0  0  0  0  0  0  0  0
   27.7635  -23.1148  -15.6710 S   0  0  0  0  0  0  0  0  0  0  0  0
   26.5004  -21.9646  -16.1540 C   0  0  0  0  0  0  0  0  0  0  0  0
   26.9058  -20.5316  -16.0077 C   0  0  0  0  0  0  0  0  0  0  0  0
   25.8456  -19.5576  -16.2070 C   0  0  2  0  0  0  0  0  0  0  0  0
   26.4838  -18.2252  -15.9356 N   0  0  0  0  0  0  0  0  0  0  0  0
   24.6628  -19.5430  -15.3611 C   0  0  0  0  0  0  0  0  0  0  0  0
   24.8003  -19.0186  -14.1826 O   0  0  0  0  0  0  0  0  0  0  0  0
   23.3618  -20.0090  -15.6003 N   0  0  0  0  0  0  0  0  0  0  0  0
   22.2761  -19.9423  -14.6006 C   0  0  1  0  0  0  0  0  0  0  0  0
   21.9720  -18.5346  -14.2579 C   0  0  0  0  0  0  0  0  0  0  0  0
   21.5832  -17.7276  -15.4196 C   0  0  0  0  0  0  0  0  0  0  0  0
   20.8194  -18.1559  -16.5051 C   0  0  0  0  0  0  0  0  0  0  0  0
   20.6848  -17.1759  -17.4096 N   0  0  0  0  0  0  0  0  0  0  0  0
   21.3431  -16.1116  -16.9415 C   0  0  0  0  0  0  0  0  0  0  0  0
   21.4638  -14.8478  -17.5341 C   0  0  0  0  0  0  0  0  0  0  0  0
   22.1808  -13.9105  -16.8287 C   0  0  0  0  0  0  0  0  0  0  0  0
   22.7503  -14.1905  -15.6091 C   0  0  0  0  0  0  0  0  0  0  0  0
   22.6226  -15.4312  -15.0462 C   0  0  0  0  0  0  0  0  0  0  0  0
   21.9117  -16.4017  -15.7212 C   0  0  0  0  0  0  0  0  0  0  0  0
   21.0861  -20.6861  -15.0085 C   0  0  0  0  0  0  0  0  0  0  0  0
   20.1349  -20.8302  -14.1950 O   0  0  0  0  0  0  0  0  0  0  0  0
   20.9801  -21.2237  -16.2594 O   0  0  0  0  0  0  0  0  0  0  0  0
  2  1  1  6
  3  4  1  0
  3  2  1  0
  5  2  1  0
  6  5  2  0
  7  8  1  0
  8  9  1  0
  9 10  1  0
 11 12  1  0
 11 10  1  1
 12  5  1  0
 13 11  1  0
 14 13  2  0
 15 13  1  0
 16 17  1  6
 16 15  1  0
 17 18  1  0
 18 19  2  0
 19 20  1  0
 21 22  2  0
 21 20  1  0
 23 22  1  0
 24 23  2  0
 25 24  1  0
 25 26  2  0
 26 18  1  0
 26 21  1  0
 27 29  1  0
 27 16  1  0
 28 27  2  0
M  END
$$$$
