CMW.pdb
     RDKit          3D

 29 30  0  0  1  0  0  0  0  0999 V2000
   27.2767  -24.6340  -15.9675 N   0  0  0  0  0  0  0  0  0  0  0  0
   27.2844  -23.2209  -15.6693 C   0  0  1  0  0  0  0  0  0  0  0  0
   26.5947  -22.4935  -16.8157 C   0  0  0  0  0  0  0  0  0  0  0  0
   27.5939  -22.4799  -18.3155 S   0  0  0  0  0  0  0  0  0  0  0  0
   26.4371  -22.9791  -14.4650 C   0  0  0  0  0  0  0  0  0  0  0  0
   25.4493  -23.7309  -14.3079 O   0  0  0  0  0  0  0  0  0  0  0  0
   26.1276  -19.5909   -7.3203 C   0  0  0  0  0  0  0  0  0  0  0  0
   26.9059  -19.9986   -8.8632 S   0  0  0  0  0  0  0  0  0  0  0  0
   25.8655  -20.7105  -10.1131 C   0  0  0  0  0  0  0  0  0  0  0  0
   26.6051  -21.1202  -11.3478 C   0  0  0  0  0  0  0  0  0  0  0  0
   25.8030  -21.7689  -12.3718 C   0  0  2  0  0  0  0  0  0  0  0  0
   26.7314  -21.9485  -13.5388 N   0  0  0  0  0  0  0  0  0  0  0  0
   24.6477  -21.1090  -12.9588 C   0  0  0  0  0  0  0  0  0  0  0  0
   24.8430  -20.4910  -14.0825 O   0  0  0  0  0  0  0  0  0  0  0  0
   23.3212  -21.0194  -12.5126 N   0  0  0  0  0  0  0  0  0  0  0  0
   22.2686  -20.2727  -13.2316 C   0  0  1  0  0  0  0  0  0  0  0  0
   22.1542  -20.7516  -14.6277 C   0  0  0  0  0  0  0  0  0  0  0  0
   21.5123  -22.0661  -14.7373 C   0  0  0  0  0  0  0  0  0  0  0  0
   20.2135  -22.3871  -14.3431 C   0  0  0  0  0  0  0  0  0  0  0  0
   19.9609  -23.6875  -14.5475 N   0  0  0  0  0  0  0  0  0  0  0  0
   21.0657  -24.2285  -15.0690 C   0  0  0  0  0  0  0  0  0  0  0  0
   21.2664  -25.5573  -15.4651 C   0  0  0  0  0  0  0  0  0  0  0  0
   22.4979  -25.8540  -15.9996 C   0  0  0  0  0  0  0  0  0  0  0  0
   23.4824  -24.9049  -16.1406 C   0  0  0  0  0  0  0  0  0  0  0  0
   23.2684  -23.6118  -15.7472 C   0  0  0  0  0  0  0  0  0  0  0  0
   22.0467  -23.2714  -15.2048 C   0  0  0  0  0  0  0  0  0  0  0  0
   20.9864  -20.2873  -12.5306 C   0  0  0  0  0  0  0  0  0  0  0  0
   20.8661  -20.9571  -11.4703 O   0  0  0  0  0  0  0  0  0  0  0  0
   19.9146  -19.5819  -12.9982 O   0  0  0  0  0  0  0  0  0  0  0  0
  2  1  1  6
  3  4  1  0
  3  2  1  0
  5  2  1  0
  6  5  2  0
  7  8  1  0
  8  9  1  0
  9 10  1  0
 11 12  1  0
 11 10  1  1
 12  5  1  0
 13 11  1  0
 14 13  2  0
 15 13  1  0
 16 17  1  6
 16 15  1  0
 17 18  1  0
 18 19  2  0
 19 20  1  0
 21 22  2  0
 21 20  1  0
 23 22  1  0
 24 23  2  0
 25 24  1  0
 25 26  2  0
 26 18  1  0
 26 21  1  0
 27 29  1  0
 27 16  1  0
 28 27  2  0
M  END
$$$$
