CMW.pdb
     RDKit          3D

 29 30  0  0  1  0  0  0  0  0999 V2000
   29.5297  -20.7553  -19.0104 N   0  0  0  0  0  0  0  0  0  0  0  0
   28.9528  -21.6354  -18.0214 C   0  0  1  0  0  0  0  0  0  0  0  0
   27.5101  -21.9133  -18.4220 C   0  0  0  0  0  0  0  0  0  0  0  0
   26.7512  -23.1892  -17.4004 S   0  0  0  0  0  0  0  0  0  0  0  0
   29.6532  -22.9516  -18.0820 C   0  0  0  0  0  0  0  0  0  0  0  0
   29.8959  -23.4116  -19.2200 O   0  0  0  0  0  0  0  0  0  0  0  0
   34.3331  -24.8087  -13.6462 C   0  0  0  0  0  0  0  0  0  0  0  0
   33.5120  -26.1316  -14.4995 S   0  0  0  0  0  0  0  0  0  0  0  0
   33.0013  -25.8036  -16.1678 C   0  0  0  0  0  0  0  0  0  0  0  0
   32.0624  -24.6449  -16.2913 C   0  0  0  0  0  0  0  0  0  0  0  0
   30.8614  -24.8926  -17.0716 C   0  0  2  0  0  0  0  0  0  0  0  0
   30.0287  -23.6530  -16.9100 N   0  0  0  0  0  0  0  0  0  0  0  0
   29.9414  -25.9640  -16.7246 C   0  0  0  0  0  0  0  0  0  0  0  0
   29.6548  -26.0962  -15.4664 O   0  0  0  0  0  0  0  0  0  0  0  0
   29.2900  -26.9073  -17.5326 N   0  0  0  0  0  0  0  0  0  0  0  0
   28.4385  -27.9891  -16.9968 C   0  0  1  0  0  0  0  0  0  0  0  0
   27.1360  -28.0207  -17.6996 C   0  0  0  0  0  0  0  0  0  0  0  0
   26.6981  -29.3774  -18.0453 C   0  0  0  0  0  0  0  0  0  0  0  0
   26.0107  -30.2610  -17.2136 C   0  0  0  0  0  0  0  0  0  0  0  0
   25.8014  -31.4321  -17.8313 N   0  0  0  0  0  0  0  0  0  0  0  0
   26.3357  -31.3370  -19.0522 C   0  0  0  0  0  0  0  0  0  0  0  0
   26.3432  -32.3061  -20.0640 C   0  0  0  0  0  0  0  0  0  0  0  0
   26.9425  -31.9459  -21.2478 C   0  0  0  0  0  0  0  0  0  0  0  0
   27.5050  -30.7056  -21.4356 C   0  0  0  0  0  0  0  0  0  0  0  0
   27.4890  -29.7719  -20.4353 C   0  0  0  0  0  0  0  0  0  0  0  0
   26.8983  -30.0927  -19.2307 C   0  0  0  0  0  0  0  0  0  0  0  0
   29.1063  -29.2890  -17.0023 C   0  0  0  0  0  0  0  0  0  0  0  0
   28.6536  -30.2226  -16.2875 O   0  0  0  0  0  0  0  0  0  0  0  0
   30.2100  -29.5160  -17.7739 O   0  0  0  0  0  0  0  0  0  0  0  0
  2  1  1  6
  3  4  1  0
  3  2  1  0
  5  2  1  0
  6  5  2  0
  7  8  1  0
  8  9  1  0
  9 10  1  0
 11 12  1  0
 11 10  1  1
 12  5  1  0
 13 11  1  0
 14 13  2  0
 15 13  1  0
 16 17  1  6
 16 15  1  0
 17 18  1  0
 18 19  2  0
 19 20  1  0
 21 22  2  0
 21 20  1  0
 23 22  1  0
 24 23  2  0
 25 24  1  0
 25 26  2  0
 26 18  1  0
 26 21  1  0
 27 29  1  0
 27 16  1  0
 28 27  2  0
M  END
$$$$
