DDW.pdb
     RDKit          3D

 31 32  0  0  1  0  0  0  0  0999 V2000
    9.3026  -16.5936   18.0569 N   0  0  0  0  0  0  0  0  0  0  0  0
    9.2496  -15.5898   19.1133 C   0  0  1  0  0  0  0  0  0  0  0  0
    8.1724  -14.6191   18.8320 C   0  0  0  0  0  0  0  0  0  0  0  0
    8.1153  -14.2914   17.3946 C   0  0  0  0  0  0  0  0  0  0  0  0
    7.2655  -13.4124   17.0192 O   0  0  0  0  0  0  0  0  0  0  0  0
    9.1362  -16.3142   20.4063 C   0  0  0  0  0  0  0  0  0  0  0  0
    8.0113  -16.3721   20.9531 O   0  0  0  0  0  0  0  0  0  0  0  0
    8.9203  -14.8747   16.4377 O   0  0  0  0  0  0  0  0  0  0  0  0
   10.2136  -16.9354   21.0586 N   0  0  0  0  0  0  0  0  0  0  0  0
    9.9930  -17.6812   22.2765 C   0  0  1  0  0  0  0  0  0  0  0  0
   10.5164  -19.0692   22.2420 C   0  0  0  0  0  0  0  0  0  0  0  0
   11.9287  -19.2026   21.8582 C   0  0  0  0  0  0  0  0  0  0  0  0
   12.6286  -18.1967   21.6430 O   0  0  0  0  0  0  0  0  0  0  0  0
   10.6021  -16.8768   23.3985 C   0  0  0  0  0  0  0  0  0  0  0  0
   11.7684  -16.4152   23.3361 O   0  0  0  0  0  0  0  0  0  0  0  0
   12.5242  -20.4625   21.7240 O   0  0  0  0  0  0  0  0  0  0  0  0
    9.8599  -16.6129   24.5803 N   0  0  0  0  0  0  0  0  0  0  0  0
   10.5193  -16.3290   25.8715 C   0  0  1  0  0  0  0  0  0  0  0  0
   10.0834  -14.9250   26.2058 C   0  0  0  0  0  0  0  0  0  0  0  0
    8.6316  -14.7010   26.0976 C   0  0  0  0  0  0  0  0  0  0  0  0
    7.6512  -15.6847   25.8903 C   0  0  0  0  0  0  0  0  0  0  0  0
    6.4336  -15.1291   25.8974 N   0  0  0  0  0  0  0  0  0  0  0  0
    6.5995  -13.8044   26.1037 C   0  0  0  0  0  0  0  0  0  0  0  0
    5.6509  -12.8098   26.1812 C   0  0  0  0  0  0  0  0  0  0  0  0
    6.0852  -11.5216   26.3851 C   0  0  0  0  0  0  0  0  0  0  0  0
    7.4220  -11.2289   26.5090 C   0  0  0  0  0  0  0  0  0  0  0  0
    8.3873  -12.2067   26.4358 C   0  0  0  0  0  0  0  0  0  0  0  0
    7.9578  -13.5194   26.2297 C   0  0  0  0  0  0  0  0  0  0  0  0
   10.2230  -17.3612   26.8508 C   0  0  0  0  0  0  0  0  0  0  0  0
    9.3420  -18.4198   26.6221 O   0  0  0  0  0  0  0  0  0  0  0  0
   10.7618  -17.3520   27.9862 O   0  0  0  0  0  0  0  0  0  0  0  0
  2  3  1  0
  2  1  1  6
  3  4  1  0
  4  8  1  0
  4  5  2  0
  6  2  1  0
  7  6  2  0
  9  6  1  0
 10  9  1  0
 10 11  1  6
 12 11  1  0
 12 13  2  0
 14 10  1  0
 14 17  1  0
 15 14  2  0
 16 12  1  0
 18 17  1  0
 18 19  1  1
 18 29  1  0
 20 21  2  0
 20 19  1  0
 22 21  1  0
 23 28  2  0
 23 22  1  0
 24 23  1  0
 25 26  1  0
 25 24  2  0
 26 27  2  0
 27 28  1  0
 28 20  1  0
 29 30  1  0
 31 29  2  0
M  END
$$$$
