DDW.pdb
     RDKit          3D

 31 32  0  0  1  0  0  0  0  0999 V2000
    9.7714  -14.6820   17.7348 N   0  0  0  0  0  0  0  0  0  0  0  0
   10.5864  -14.8569   18.9313 C   0  0  1  0  0  0  0  0  0  0  0  0
   11.1528  -13.5582   19.3490 C   0  0  0  0  0  0  0  0  0  0  0  0
   12.2371  -13.1357   18.4421 C   0  0  0  0  0  0  0  0  0  0  0  0
   13.3707  -13.7160   18.5611 O   0  0  0  0  0  0  0  0  0  0  0  0
    9.7422  -15.5422   19.9449 C   0  0  0  0  0  0  0  0  0  0  0  0
    8.5708  -15.1325   20.1109 O   0  0  0  0  0  0  0  0  0  0  0  0
   12.1003  -12.1569   17.4792 O   0  0  0  0  0  0  0  0  0  0  0  0
   10.1770  -16.6192   20.7342 N   0  0  0  0  0  0  0  0  0  0  0  0
    9.3083  -17.1752   21.7463 C   0  0  1  0  0  0  0  0  0  0  0  0
    8.8436  -18.5544   21.4570 C   0  0  0  0  0  0  0  0  0  0  0  0
    9.9053  -19.5413   21.2155 C   0  0  0  0  0  0  0  0  0  0  0  0
   11.0037  -19.1938   20.7457 O   0  0  0  0  0  0  0  0  0  0  0  0
   10.0542  -17.0947   23.0555 C   0  0  0  0  0  0  0  0  0  0  0  0
   11.2029  -17.5802   23.2036 O   0  0  0  0  0  0  0  0  0  0  0  0
    9.7104  -20.8968   21.5062 O   0  0  0  0  0  0  0  0  0  0  0  0
    9.4679  -16.4549   24.1799 N   0  0  0  0  0  0  0  0  0  0  0  0
   10.1482  -16.3971   25.4901 C   0  0  1  0  0  0  0  0  0  0  0  0
    9.8336  -15.0161   26.0066 C   0  0  0  0  0  0  0  0  0  0  0  0
    8.3953  -14.7015   26.0538 C   0  0  0  0  0  0  0  0  0  0  0  0
    7.3389  -15.6213   25.9553 C   0  0  0  0  0  0  0  0  0  0  0  0
    6.1662  -14.9908   26.0911 N   0  0  0  0  0  0  0  0  0  0  0  0
    6.4355  -13.6799   26.2749 C   0  0  0  0  0  0  0  0  0  0  0  0
    5.5647  -12.6284   26.4507 C   0  0  0  0  0  0  0  0  0  0  0  0
    6.0979  -11.3706   26.6035 C   0  0  0  0  0  0  0  0  0  0  0  0
    7.4560  -11.1624   26.5828 C   0  0  0  0  0  0  0  0  0  0  0  0
    8.3449  -12.1982   26.4095 C   0  0  0  0  0  0  0  0  0  0  0  0
    7.8146  -13.4807   26.2541 C   0  0  0  0  0  0  0  0  0  0  0  0
    9.7638  -17.5182   26.3314 C   0  0  0  0  0  0  0  0  0  0  0  0
    8.7188  -18.3935   26.0304 O   0  0  0  0  0  0  0  0  0  0  0  0
   10.3719  -17.7627   27.4038 O   0  0  0  0  0  0  0  0  0  0  0  0
  2  3  1  0
  2  1  1  6
  3  4  1  0
  4  8  1  0
  4  5  2  0
  6  2  1  0
  7  6  2  0
  9  6  1  0
 10  9  1  0
 10 11  1  6
 12 11  1  0
 12 13  2  0
 14 10  1  0
 14 17  1  0
 15 14  2  0
 16 12  1  0
 18 17  1  0
 18 19  1  1
 18 29  1  0
 20 21  2  0
 20 19  1  0
 22 21  1  0
 23 28  2  0
 23 22  1  0
 24 23  1  0
 25 26  1  0
 25 24  2  0
 26 27  2  0
 27 28  1  0
 28 20  1  0
 29 30  1  0
 31 29  2  0
M  END
$$$$
