DDW.pdb
     RDKit          3D

 31 32  0  0  1  0  0  0  0  0999 V2000
   10.0735  -13.9251   18.9688 N   0  0  0  0  0  0  0  0  0  0  0  0
    8.8646  -13.9382   19.7844 C   0  0  1  0  0  0  0  0  0  0  0  0
    7.6706  -13.9142   18.9152 C   0  0  0  0  0  0  0  0  0  0  0  0
    8.0507  -13.9485   17.4900 C   0  0  0  0  0  0  0  0  0  0  0  0
    9.2767  -14.1786   17.2079 O   0  0  0  0  0  0  0  0  0  0  0  0
    8.9638  -15.1025   20.7031 C   0  0  0  0  0  0  0  0  0  0  0  0
    8.1104  -15.2101   21.6129 O   0  0  0  0  0  0  0  0  0  0  0  0
    7.1659  -13.7476   16.4504 O   0  0  0  0  0  0  0  0  0  0  0  0
    9.9591  -16.0896   20.6193 N   0  0  0  0  0  0  0  0  0  0  0  0
   10.0119  -17.1527   21.5968 C   0  0  1  0  0  0  0  0  0  0  0  0
   10.8629  -18.3014   21.1994 C   0  0  0  0  0  0  0  0  0  0  0  0
   10.6541  -18.7994   19.8326 C   0  0  0  0  0  0  0  0  0  0  0  0
   11.5614  -18.7318   18.9839 O   0  0  0  0  0  0  0  0  0  0  0  0
   10.4716  -16.5325   22.8933 C   0  0  0  0  0  0  0  0  0  0  0  0
   11.4604  -15.7606   22.9537 O   0  0  0  0  0  0  0  0  0  0  0  0
    9.4310  -19.3618   19.4484 O   0  0  0  0  0  0  0  0  0  0  0  0
    9.7862  -16.8086   24.1062 N   0  0  0  0  0  0  0  0  0  0  0  0
   10.2674  -16.3050   25.4091 C   0  0  1  0  0  0  0  0  0  0  0  0
    9.8359  -14.8606   25.4267 C   0  0  0  0  0  0  0  0  0  0  0  0
    8.4217  -14.6566   25.7849 C   0  0  0  0  0  0  0  0  0  0  0  0
    7.4166  -15.6370   25.7961 C   0  0  0  0  0  0  0  0  0  0  0  0
    6.2634  -15.1083   26.2228 N   0  0  0  0  0  0  0  0  0  0  0  0
    6.4952  -13.8044   26.4890 C   0  0  0  0  0  0  0  0  0  0  0  0
    5.6234  -12.8397   26.9408 C   0  0  0  0  0  0  0  0  0  0  0  0
    6.1099  -11.5665   27.1199 C   0  0  0  0  0  0  0  0  0  0  0  0
    7.4235  -11.2596   26.8585 C   0  0  0  0  0  0  0  0  0  0  0  0
    8.3127  -12.2078   26.4072 C   0  0  0  0  0  0  0  0  0  0  0  0
    7.8299  -13.5050   26.2223 C   0  0  0  0  0  0  0  0  0  0  0  0
    9.8026  -17.1444   26.5008 C   0  0  0  0  0  0  0  0  0  0  0  0
   10.2514  -17.0264   27.8175 O   0  0  0  0  0  0  0  0  0  0  0  0
    8.9476  -18.0451   26.3078 O   0  0  0  0  0  0  0  0  0  0  0  0
  2  3  1  0
  2  1  1  6
  3  4  1  0
  4  8  1  0
  4  5  2  0
  6  2  1  0
  7  6  2  0
  9  6  1  0
 10  9  1  0
 10 11  1  6
 12 11  1  0
 12 13  2  0
 14 10  1  0
 14 17  1  0
 15 14  2  0
 16 12  1  0
 18 17  1  0
 18 19  1  1
 18 29  1  0
 20 21  2  0
 20 19  1  0
 22 21  1  0
 23 28  2  0
 23 22  1  0
 24 23  1  0
 25 26  1  0
 25 24  2  0
 26 27  2  0
 27 28  1  0
 28 20  1  0
 29 30  1  0
 31 29  2  0
M  END
$$$$
