DDW.pdb
     RDKit          3D

 31 32  0  0  1  0  0  0  0  0999 V2000
    9.1933  -13.9104   20.0518 N   0  0  0  0  0  0  0  0  0  0  0  0
    8.0417  -14.6812   20.5058 C   0  0  1  0  0  0  0  0  0  0  0  0
    7.2658  -15.1591   19.3433 C   0  0  0  0  0  0  0  0  0  0  0  0
    8.0800  -15.1297   18.1133 C   0  0  0  0  0  0  0  0  0  0  0  0
    9.3129  -14.8083   18.2248 O   0  0  0  0  0  0  0  0  0  0  0  0
    8.5502  -15.7415   21.4151 C   0  0  0  0  0  0  0  0  0  0  0  0
    7.7246  -16.5484   21.8997 O   0  0  0  0  0  0  0  0  0  0  0  0
    7.5915  -15.4264   16.8574 O   0  0  0  0  0  0  0  0  0  0  0  0
    9.9001  -15.8936   21.7707 N   0  0  0  0  0  0  0  0  0  0  0  0
   10.2993  -16.9506   22.6717 C   0  0  1  0  0  0  0  0  0  0  0  0
   11.6671  -17.4717   22.4286 C   0  0  0  0  0  0  0  0  0  0  0  0
   11.9870  -17.7773   21.0271 C   0  0  0  0  0  0  0  0  0  0  0  0
   11.3029  -18.5902   20.3797 O   0  0  0  0  0  0  0  0  0  0  0  0
   10.1413  -16.4140   24.0730 C   0  0  0  0  0  0  0  0  0  0  0  0
   10.6162  -15.3056   24.4240 O   0  0  0  0  0  0  0  0  0  0  0  0
   13.0684  -17.1639   20.3835 O   0  0  0  0  0  0  0  0  0  0  0  0
    9.4371  -17.1608   25.0548 N   0  0  0  0  0  0  0  0  0  0  0  0
    9.4404  -16.7768   26.4814 C   0  0  1  0  0  0  0  0  0  0  0  0
    7.9794  -16.6512   26.8314 C   0  0  0  0  0  0  0  0  0  0  0  0
    7.3099  -15.4887   26.2230 C   0  0  0  0  0  0  0  0  0  0  0  0
    6.3616  -15.5225   25.1880 C   0  0  0  0  0  0  0  0  0  0  0  0
    5.9268  -14.2848   24.9223 N   0  0  0  0  0  0  0  0  0  0  0  0
    6.5721  -13.4452   25.7611 C   0  0  0  0  0  0  0  0  0  0  0  0
    6.4755  -12.0762   25.8673 C   0  0  0  0  0  0  0  0  0  0  0  0
    7.2612  -11.4469   26.8034 C   0  0  0  0  0  0  0  0  0  0  0  0
    8.1177  -12.1557   27.6110 C   0  0  0  0  0  0  0  0  0  0  0  0
    8.2299  -13.5243   27.5231 C   0  0  0  0  0  0  0  0  0  0  0  0
    7.4359  -14.1745   26.5760 C   0  0  0  0  0  0  0  0  0  0  0  0
   10.2299  -17.7052   27.2733 C   0  0  0  0  0  0  0  0  0  0  0  0
   10.5267  -17.5172   28.6245 O   0  0  0  0  0  0  0  0  0  0  0  0
   10.6982  -18.7552   26.7658 O   0  0  0  0  0  0  0  0  0  0  0  0
  2  3  1  0
  2  1  1  6
  3  4  1  0
  4  8  1  0
  4  5  2  0
  6  2  1  0
  7  6  2  0
  9  6  1  0
 10  9  1  0
 10 11  1  6
 12 11  1  0
 12 13  2  0
 14 10  1  0
 14 17  1  0
 15 14  2  0
 16 12  1  0
 18 17  1  0
 18 19  1  1
 18 29  1  0
 20 21  2  0
 20 19  1  0
 22 21  1  0
 23 28  2  0
 23 22  1  0
 24 23  1  0
 25 26  1  0
 25 24  2  0
 26 27  2  0
 27 28  1  0
 28 20  1  0
 29 30  1  0
 31 29  2  0
M  END
$$$$
