DDW.pdb
     RDKit          3D

 31 32  0  0  1  0  0  0  0  0999 V2000
    9.3113  -17.1449   19.5038 N   0  0  0  0  0  0  0  0  0  0  0  0
    8.4287  -17.1737   20.6643 C   0  0  1  0  0  0  0  0  0  0  0  0
    7.2973  -18.0898   20.4137 C   0  0  0  0  0  0  0  0  0  0  0  0
    6.6541  -17.7970   19.1186 C   0  0  0  0  0  0  0  0  0  0  0  0
    7.2321  -16.9588   18.3446 O   0  0  0  0  0  0  0  0  0  0  0  0
    9.2658  -17.5000   21.8484 C   0  0  0  0  0  0  0  0  0  0  0  0
    8.7866  -18.2642   22.7168 O   0  0  0  0  0  0  0  0  0  0  0  0
    5.4723  -18.3710   18.6968 O   0  0  0  0  0  0  0  0  0  0  0  0
   10.5614  -17.0009   22.0591 N   0  0  0  0  0  0  0  0  0  0  0  0
   11.2900  -17.3535   23.2562 C   0  0  1  0  0  0  0  0  0  0  0  0
   12.7580  -17.1644   23.1516 C   0  0  0  0  0  0  0  0  0  0  0  0
   13.3426  -17.4712   21.8387 C   0  0  0  0  0  0  0  0  0  0  0  0
   13.1744  -18.5851   21.3105 O   0  0  0  0  0  0  0  0  0  0  0  0
   10.6964  -16.5453   24.3837 C   0  0  0  0  0  0  0  0  0  0  0  0
   10.8362  -15.2997   24.4617 O   0  0  0  0  0  0  0  0  0  0  0  0
   14.1038  -16.5208   21.1477 O   0  0  0  0  0  0  0  0  0  0  0  0
    9.9475  -17.1818   25.4091 N   0  0  0  0  0  0  0  0  0  0  0  0
    9.7357  -16.5526   26.7288 C   0  0  1  0  0  0  0  0  0  0  0  0
    8.2371  -16.4332   26.8426 C   0  0  0  0  0  0  0  0  0  0  0  0
    7.6356  -15.4635   25.9111 C   0  0  0  0  0  0  0  0  0  0  0  0
    7.0977  -15.7490   24.6458 C   0  0  0  0  0  0  0  0  0  0  0  0
    6.5907  -14.6369   24.1003 N   0  0  0  0  0  0  0  0  0  0  0  0
    6.7876  -13.6328   24.9823 C   0  0  0  0  0  0  0  0  0  0  0  0
    6.4532  -12.3018   24.8753 C   0  0  0  0  0  0  0  0  0  0  0  0
    6.7809  -11.4705   25.9198 C   0  0  0  0  0  0  0  0  0  0  0  0
    7.4216  -11.9462   27.0384 C   0  0  0  0  0  0  0  0  0  0  0  0
    7.7646  -13.2725   27.1675 C   0  0  0  0  0  0  0  0  0  0  0  0
    7.4358  -14.1267   26.1128 C   0  0  0  0  0  0  0  0  0  0  0  0
   10.4190  -17.2904   27.7782 C   0  0  0  0  0  0  0  0  0  0  0  0
   11.1471  -18.4609   27.5578 O   0  0  0  0  0  0  0  0  0  0  0  0
   10.3877  -16.8990   28.9721 O   0  0  0  0  0  0  0  0  0  0  0  0
  2  3  1  0
  2  1  1  6
  3  4  1  0
  4  8  1  0
  4  5  2  0
  6  2  1  0
  7  6  2  0
  9  6  1  0
 10  9  1  0
 10 11  1  6
 12 11  1  0
 12 13  2  0
 14 10  1  0
 14 17  1  0
 15 14  2  0
 16 12  1  0
 18 17  1  0
 18 19  1  1
 18 29  1  0
 20 21  2  0
 20 19  1  0
 22 21  1  0
 23 28  2  0
 23 22  1  0
 24 23  1  0
 25 26  1  0
 25 24  2  0
 26 27  2  0
 27 28  1  0
 28 20  1  0
 29 30  1  0
 31 29  2  0
M  END
$$$$
