DDW.pdb
     RDKit          3D

 31 32  0  0  1  0  0  0  0  0999 V2000
    9.5228  -15.5517   19.8895 N   0  0  0  0  0  0  0  0  0  0  0  0
    8.5240  -15.7687   20.9297 C   0  0  1  0  0  0  0  0  0  0  0  0
    7.3361  -16.4335   20.3564 C   0  0  0  0  0  0  0  0  0  0  0  0
    7.2293  -16.1729   18.9081 C   0  0  0  0  0  0  0  0  0  0  0  0
    8.2153  -15.5945   18.3345 O   0  0  0  0  0  0  0  0  0  0  0  0
    9.1924  -16.4983   22.0389 C   0  0  0  0  0  0  0  0  0  0  0  0
    8.4801  -16.9327   22.9725 O   0  0  0  0  0  0  0  0  0  0  0  0
    6.1341  -16.5145   18.1414 O   0  0  0  0  0  0  0  0  0  0  0  0
   10.5760  -16.7279   22.1100 N   0  0  0  0  0  0  0  0  0  0  0  0
   11.1423  -17.4038   23.2549 C   0  0  1  0  0  0  0  0  0  0  0  0
   12.4997  -17.9567   23.0237 C   0  0  0  0  0  0  0  0  0  0  0  0
   12.6631  -18.7340   21.7872 C   0  0  0  0  0  0  0  0  0  0  0  0
   13.4257  -18.3436   20.8849 O   0  0  0  0  0  0  0  0  0  0  0  0
   11.1218  -16.4194   24.3983 C   0  0  0  0  0  0  0  0  0  0  0  0
   11.8301  -15.3823   24.4029 O   0  0  0  0  0  0  0  0  0  0  0  0
   11.9664  -19.9323   21.5906 O   0  0  0  0  0  0  0  0  0  0  0  0
   10.2847  -16.6411   25.5241 N   0  0  0  0  0  0  0  0  0  0  0  0
   10.7029  -16.2782   26.8938 C   0  0  1  0  0  0  0  0  0  0  0  0
   10.1072  -14.9102   27.1095 C   0  0  0  0  0  0  0  0  0  0  0  0
    8.7285  -14.7659   26.6111 C   0  0  0  0  0  0  0  0  0  0  0  0
    7.8511  -15.8101   26.2774 C   0  0  0  0  0  0  0  0  0  0  0  0
    6.6636  -15.3133   25.9107 N   0  0  0  0  0  0  0  0  0  0  0  0
    6.7487  -13.9679   25.9973 C   0  0  0  0  0  0  0  0  0  0  0  0
    5.7957  -13.0153   25.7156 C   0  0  0  0  0  0  0  0  0  0  0  0
    6.1414  -11.6941   25.8723 C   0  0  0  0  0  0  0  0  0  0  0  0
    7.3963  -11.3288   26.2965 C   0  0  0  0  0  0  0  0  0  0  0  0
    8.3640  -12.2635   26.5847 C   0  0  0  0  0  0  0  0  0  0  0  0
    8.0239  -13.6091   26.4299 C   0  0  0  0  0  0  0  0  0  0  0  0
   10.3372  -17.3133   27.8462 C   0  0  0  0  0  0  0  0  0  0  0  0
   10.7611  -17.3307   29.1763 O   0  0  0  0  0  0  0  0  0  0  0  0
    9.5986  -18.2728   27.5096 O   0  0  0  0  0  0  0  0  0  0  0  0
  2  3  1  0
  2  1  1  6
  3  4  1  0
  4  8  1  0
  4  5  2  0
  6  2  1  0
  7  6  2  0
  9  6  1  0
 10  9  1  0
 10 11  1  6
 12 11  1  0
 12 13  2  0
 14 10  1  0
 14 17  1  0
 15 14  2  0
 16 12  1  0
 18 17  1  0
 18 19  1  1
 18 29  1  0
 20 21  2  0
 20 19  1  0
 22 21  1  0
 23 28  2  0
 23 22  1  0
 24 23  1  0
 25 26  1  0
 25 24  2  0
 26 27  2  0
 27 28  1  0
 28 20  1  0
 29 30  1  0
 31 29  2  0
M  END
$$$$
