DDW.pdb
     RDKit          3D

 31 32  0  0  1  0  0  0  0  0999 V2000
    8.9866  -17.5833   19.8277 N   0  0  0  0  0  0  0  0  0  0  0  0
    9.2015  -16.4902   20.7687 C   0  0  1  0  0  0  0  0  0  0  0  0
    7.9501  -15.7259   20.9468 C   0  0  0  0  0  0  0  0  0  0  0  0
    7.5535  -15.0573   19.6928 C   0  0  0  0  0  0  0  0  0  0  0  0
    6.5255  -14.2969   19.7247 O   0  0  0  0  0  0  0  0  0  0  0  0
    9.7729  -17.0796   22.0078 C   0  0  0  0  0  0  0  0  0  0  0  0
    9.0455  -17.8360   22.6908 O   0  0  0  0  0  0  0  0  0  0  0  0
    8.2227  -15.2040   18.4951 O   0  0  0  0  0  0  0  0  0  0  0  0
   11.0782  -16.8378   22.4660 N   0  0  0  0  0  0  0  0  0  0  0  0
   11.5652  -17.5000   23.6545 C   0  0  1  0  0  0  0  0  0  0  0  0
   13.0115  -17.8291   23.6169 C   0  0  0  0  0  0  0  0  0  0  0  0
   13.4476  -18.6299   22.4644 C   0  0  0  0  0  0  0  0  0  0  0  0
   14.1834  -18.1395   21.5891 O   0  0  0  0  0  0  0  0  0  0  0  0
   11.2196  -16.6109   24.8236 C   0  0  0  0  0  0  0  0  0  0  0  0
   11.8815  -15.5801   25.1006 O   0  0  0  0  0  0  0  0  0  0  0  0
   13.0475  -19.9637   22.3195 O   0  0  0  0  0  0  0  0  0  0  0  0
   10.1143  -16.9193   25.6606 N   0  0  0  0  0  0  0  0  0  0  0  0
   10.0264  -16.4311   27.0522 C   0  0  1  0  0  0  0  0  0  0  0  0
    8.5487  -16.4377   27.3511 C   0  0  0  0  0  0  0  0  0  0  0  0
    7.7533  -15.5486   26.4870 C   0  0  0  0  0  0  0  0  0  0  0  0
    6.7963  -15.9471   25.5399 C   0  0  0  0  0  0  0  0  0  0  0  0
    6.2324  -14.8722   24.9759 N   0  0  0  0  0  0  0  0  0  0  0  0
    6.8021  -13.7820   25.5343 C   0  0  0  0  0  0  0  0  0  0  0  0
    6.5672  -12.4499   25.2793 C   0  0  0  0  0  0  0  0  0  0  0  0
    7.2997  -11.5221   25.9809 C   0  0  0  0  0  0  0  0  0  0  0  0
    8.2378  -11.9051   26.9090 C   0  0  0  0  0  0  0  0  0  0  0  0
    8.4885  -13.2305   27.1808 C   0  0  0  0  0  0  0  0  0  0  0  0
    7.7496  -14.1821   26.4746 C   0  0  0  0  0  0  0  0  0  0  0  0
   10.8804  -17.2070   27.9359 C   0  0  0  0  0  0  0  0  0  0  0  0
   11.2991  -16.7696   29.1938 O   0  0  0  0  0  0  0  0  0  0  0  0
   11.2966  -18.3448   27.6015 O   0  0  0  0  0  0  0  0  0  0  0  0
  2  3  1  0
  2  1  1  6
  3  4  1  0
  4  8  1  0
  4  5  2  0
  6  2  1  0
  7  6  2  0
  9  6  1  0
 10  9  1  0
 10 11  1  6
 12 11  1  0
 12 13  2  0
 14 10  1  0
 14 17  1  0
 15 14  2  0
 16 12  1  0
 18 17  1  0
 18 19  1  1
 18 29  1  0
 20 21  2  0
 20 19  1  0
 22 21  1  0
 23 28  2  0
 23 22  1  0
 24 23  1  0
 25 26  1  0
 25 24  2  0
 26 27  2  0
 27 28  1  0
 28 20  1  0
 29 30  1  0
 31 29  2  0
M  END
$$$$
