DDW.pdb
     RDKit          3D

 31 32  0  0  1  0  0  0  0  0999 V2000
    7.6290  -17.8105   21.8231 N   0  0  0  0  0  0  0  0  0  0  0  0
    8.3316  -18.9899   22.3149 C   0  0  1  0  0  0  0  0  0  0  0  0
    8.1729  -20.1054   21.3598 C   0  0  0  0  0  0  0  0  0  0  0  0
    6.8466  -20.0671   20.7146 C   0  0  0  0  0  0  0  0  0  0  0  0
    6.0400  -19.1403   21.0699 O   0  0  0  0  0  0  0  0  0  0  0  0
    9.7333  -18.5837   22.5969 C   0  0  0  0  0  0  0  0  0  0  0  0
   10.5378  -19.4652   22.9758 O   0  0  0  0  0  0  0  0  0  0  0  0
    6.4284  -20.9676   19.7564 O   0  0  0  0  0  0  0  0  0  0  0  0
   10.2137  -17.2702   22.4703 N   0  0  0  0  0  0  0  0  0  0  0  0
   11.5894  -16.9657   22.7911 C   0  0  1  0  0  0  0  0  0  0  0  0
   12.2317  -16.0049   21.8606 C   0  0  0  0  0  0  0  0  0  0  0  0
   12.5112  -16.5209   20.5132 C   0  0  0  0  0  0  0  0  0  0  0  0
   12.4886  -15.7663   19.5242 O   0  0  0  0  0  0  0  0  0  0  0  0
   11.6067  -16.4683   24.2156 C   0  0  0  0  0  0  0  0  0  0  0  0
   12.5328  -15.7475   24.6628 O   0  0  0  0  0  0  0  0  0  0  0  0
   12.8095  -17.8729   20.3057 O   0  0  0  0  0  0  0  0  0  0  0  0
   10.5559  -16.8070   25.1092 N   0  0  0  0  0  0  0  0  0  0  0  0
   10.5542  -16.3642   26.5186 C   0  0  1  0  0  0  0  0  0  0  0  0
    9.9755  -14.9732   26.4660 C   0  0  0  0  0  0  0  0  0  0  0  0
    8.5393  -14.9278   26.1418 C   0  0  0  0  0  0  0  0  0  0  0  0
    7.7053  -16.0319   25.9024 C   0  0  0  0  0  0  0  0  0  0  0  0
    6.4490  -15.6217   25.6907 N   0  0  0  0  0  0  0  0  0  0  0  0
    6.4466  -14.2741   25.7860 C   0  0  0  0  0  0  0  0  0  0  0  0
    5.3999  -13.3927   25.6368 C   0  0  0  0  0  0  0  0  0  0  0  0
    5.6657  -12.0505   25.7695 C   0  0  0  0  0  0  0  0  0  0  0  0
    6.9334  -11.5963   26.0428 C   0  0  0  0  0  0  0  0  0  0  0  0
    7.9943  -12.4589   26.1968 C   0  0  0  0  0  0  0  0  0  0  0  0
    7.7359  -13.8250   26.0650 C   0  0  0  0  0  0  0  0  0  0  0  0
    9.8770  -17.3273   27.3708 C   0  0  0  0  0  0  0  0  0  0  0  0
    9.3354  -18.5283   26.9090 O   0  0  0  0  0  0  0  0  0  0  0  0
    9.7417  -17.1206   28.6031 O   0  0  0  0  0  0  0  0  0  0  0  0
  2  3  1  0
  2  1  1  6
  3  4  1  0
  4  8  1  0
  4  5  2  0
  6  2  1  0
  7  6  2  0
  9  6  1  0
 10  9  1  0
 10 11  1  6
 12 11  1  0
 12 13  2  0
 14 10  1  0
 14 17  1  0
 15 14  2  0
 16 12  1  0
 18 17  1  0
 18 19  1  6
 18 29  1  0
 20 21  2  0
 20 19  1  0
 22 21  1  0
 23 28  2  0
 23 22  1  0
 24 23  1  0
 25 26  1  0
 25 24  2  0
 26 27  2  0
 27 28  1  0
 28 20  1  0
 29 30  1  0
 31 29  2  0
M  END
$$$$
