DDW.pdb
     RDKit          3D

 31 32  0  0  1  0  0  0  0  0999 V2000
    9.8707  -14.2967   18.1264 N   0  0  0  0  0  0  0  0  0  0  0  0
    8.6674  -14.3093   18.9500 C   0  0  1  0  0  0  0  0  0  0  0  0
    7.4717  -14.4402   18.0926 C   0  0  0  0  0  0  0  0  0  0  0  0
    7.8288  -14.3383   16.6647 C   0  0  0  0  0  0  0  0  0  0  0  0
    9.0714  -14.3370   16.3620 O   0  0  0  0  0  0  0  0  0  0  0  0
    8.8419  -15.3752   19.9713 C   0  0  0  0  0  0  0  0  0  0  0  0
    7.8940  -15.5989   20.7580 O   0  0  0  0  0  0  0  0  0  0  0  0
    6.9058  -14.2447   15.6433 O   0  0  0  0  0  0  0  0  0  0  0  0
   10.0070  -16.1461   20.1143 N   0  0  0  0  0  0  0  0  0  0  0  0
   10.0976  -17.1381   21.1611 C   0  0  1  0  0  0  0  0  0  0  0  0
   11.0965  -18.2045   20.9026 C   0  0  0  0  0  0  0  0  0  0  0  0
   10.9616  -18.8975   19.6137 C   0  0  0  0  0  0  0  0  0  0  0  0
    9.8626  -19.3489   19.2445 O   0  0  0  0  0  0  0  0  0  0  0  0
   10.3841  -16.3962   22.4434 C   0  0  0  0  0  0  0  0  0  0  0  0
   11.0562  -15.3355   22.4684 O   0  0  0  0  0  0  0  0  0  0  0  0
   12.0639  -19.0689   18.7677 O   0  0  0  0  0  0  0  0  0  0  0  0
    9.8924  -16.8847   23.6831 N   0  0  0  0  0  0  0  0  0  0  0  0
   10.1526  -16.1855   24.9583 C   0  0  1  0  0  0  0  0  0  0  0  0
    9.5894  -14.8040   24.7412 C   0  0  0  0  0  0  0  0  0  0  0  0
    8.2628  -14.5904   25.3449 C   0  0  0  0  0  0  0  0  0  0  0  0
    7.2274  -15.5347   25.4337 C   0  0  0  0  0  0  0  0  0  0  0  0
    6.1845  -15.0131   26.0906 N   0  0  0  0  0  0  0  0  0  0  0  0
    6.5176  -13.7489   26.4309 C   0  0  0  0  0  0  0  0  0  0  0  0
    5.7767  -12.8049   27.1053 C   0  0  0  0  0  0  0  0  0  0  0  0
    6.3454  -11.5711   27.3153 C   0  0  0  0  0  0  0  0  0  0  0  0
    7.6126  -11.2826   26.8693 C   0  0  0  0  0  0  0  0  0  0  0  0
    8.3715  -12.2107   26.1941 C   0  0  0  0  0  0  0  0  0  0  0  0
    7.8044  -13.4681   25.9757 C   0  0  0  0  0  0  0  0  0  0  0  0
    9.6314  -16.9393   26.0864 C   0  0  0  0  0  0  0  0  0  0  0  0
    9.9831  -16.6931   27.4148 O   0  0  0  0  0  0  0  0  0  0  0  0
    8.8134  -17.8782   25.9168 O   0  0  0  0  0  0  0  0  0  0  0  0
  2  3  1  0
  2  1  1  6
  3  4  1  0
  4  8  1  0
  4  5  2  0
  6  2  1  0
  7  6  2  0
  9  6  1  0
 10  9  1  0
 10 11  1  6
 12 11  1  0
 12 13  2  0
 14 10  1  0
 14 17  1  0
 15 14  2  0
 16 12  1  0
 18 17  1  0
 18 19  1  6
 18 29  1  0
 20 21  2  0
 20 19  1  0
 22 21  1  0
 23 28  2  0
 23 22  1  0
 24 23  1  0
 25 26  1  0
 25 24  2  0
 26 27  2  0
 27 28  1  0
 28 20  1  0
 29 30  1  0
 31 29  2  0
M  END
$$$$
