DDW.pdb
     RDKit          3D

 31 32  0  0  1  0  0  0  0  0999 V2000
    7.2210  -17.7373   17.4539 N   0  0  0  0  0  0  0  0  0  0  0  0
    8.3216  -17.0531   18.1226 C   0  0  1  0  0  0  0  0  0  0  0  0
    8.3084  -15.6178   17.7737 C   0  0  0  0  0  0  0  0  0  0  0  0
    8.7590  -15.4050   16.3850 C   0  0  0  0  0  0  0  0  0  0  0  0
    8.4475  -14.2994   15.8225 O   0  0  0  0  0  0  0  0  0  0  0  0
    8.2165  -17.3598   19.5732 C   0  0  0  0  0  0  0  0  0  0  0  0
    7.2529  -16.8762   20.2098 O   0  0  0  0  0  0  0  0  0  0  0  0
    9.4918  -16.3239   15.6622 O   0  0  0  0  0  0  0  0  0  0  0  0
    9.1341  -18.1549   20.2789 N   0  0  0  0  0  0  0  0  0  0  0  0
    8.9103  -18.4579   21.6740 C   0  0  1  0  0  0  0  0  0  0  0  0
    9.1348  -19.8807   22.0301 C   0  0  0  0  0  0  0  0  0  0  0  0
    8.6409  -20.2863   23.3535 C   0  0  0  0  0  0  0  0  0  0  0  0
    7.4341  -20.1907   23.6403 O   0  0  0  0  0  0  0  0  0  0  0  0
    9.7954  -17.5310   22.4704 C   0  0  0  0  0  0  0  0  0  0  0  0
   10.9772  -17.2758   22.1304 O   0  0  0  0  0  0  0  0  0  0  0  0
    9.5130  -20.7900   24.3260 O   0  0  0  0  0  0  0  0  0  0  0  0
    9.3084  -16.9077   23.6502 N   0  0  0  0  0  0  0  0  0  0  0  0
   10.1967  -16.1611   24.5645 C   0  0  1  0  0  0  0  0  0  0  0  0
    9.6432  -14.7589   24.5509 C   0  0  0  0  0  0  0  0  0  0  0  0
    8.3412  -14.6165   25.2250 C   0  0  0  0  0  0  0  0  0  0  0  0
    7.4740  -15.6594   25.5883 C   0  0  0  0  0  0  0  0  0  0  0  0
    6.4069  -15.1678   26.2294 N   0  0  0  0  0  0  0  0  0  0  0  0
    6.5596  -13.8270   26.2908 C   0  0  0  0  0  0  0  0  0  0  0  0
    5.7253  -12.8800   26.8404 C   0  0  0  0  0  0  0  0  0  0  0  0
    6.1065  -11.5618   26.7580 C   0  0  0  0  0  0  0  0  0  0  0  0
    7.2817  -11.1941   26.1483 C   0  0  0  0  0  0  0  0  0  0  0  0
    8.1312  -12.1233   25.5932 C   0  0  0  0  0  0  0  0  0  0  0  0
    7.7546  -13.4658   25.6716 C   0  0  0  0  0  0  0  0  0  0  0  0
   10.2924  -16.8187   25.8571 C   0  0  0  0  0  0  0  0  0  0  0  0
    9.5417  -17.9395   26.2166 O   0  0  0  0  0  0  0  0  0  0  0  0
   11.0799  -16.3985   26.7419 O   0  0  0  0  0  0  0  0  0  0  0  0
  2  3  1  0
  2  1  1  6
  3  4  1  0
  4  8  1  0
  4  5  2  0
  6  2  1  0
  7  6  2  0
  9  6  1  0
 10  9  1  0
 10 11  1  6
 12 11  1  0
 12 13  2  0
 14 10  1  0
 14 17  1  0
 15 14  2  0
 16 12  1  0
 18 17  1  0
 18 19  1  1
 18 29  1  0
 20 21  2  0
 20 19  1  0
 22 21  1  0
 23 28  2  0
 23 22  1  0
 24 23  1  0
 25 26  1  0
 25 24  2  0
 26 27  2  0
 27 28  1  0
 28 20  1  0
 29 30  1  0
 31 29  2  0
M  END
$$$$
