DDW.pdb
     RDKit          3D

 31 32  0  0  1  0  0  0  0  0999 V2000
    9.0559  -18.4482   19.4342 N   0  0  0  0  0  0  0  0  0  0  0  0
    8.9106  -17.3499   20.3825 C   0  0  1  0  0  0  0  0  0  0  0  0
    7.5107  -17.2671   20.8464 C   0  0  0  0  0  0  0  0  0  0  0  0
    6.5739  -17.2517   19.7067 C   0  0  0  0  0  0  0  0  0  0  0  0
    6.8270  -16.4526   18.7407 O   0  0  0  0  0  0  0  0  0  0  0  0
    9.9270  -17.5490   21.4487 C   0  0  0  0  0  0  0  0  0  0  0  0
   10.0403  -18.6910   21.9494 O   0  0  0  0  0  0  0  0  0  0  0  0
    5.4473  -18.0441   19.6232 O   0  0  0  0  0  0  0  0  0  0  0  0
   10.7672  -16.5346   21.9356 N   0  0  0  0  0  0  0  0  0  0  0  0
   11.6655  -16.8012   23.0357 C   0  0  1  0  0  0  0  0  0  0  0  0
   13.0425  -16.2864   22.8339 C   0  0  0  0  0  0  0  0  0  0  0  0
   14.0114  -16.6477   23.8780 C   0  0  0  0  0  0  0  0  0  0  0  0
   14.0036  -17.7815   24.3903 O   0  0  0  0  0  0  0  0  0  0  0  0
   11.0241  -16.2247   24.2738 C   0  0  0  0  0  0  0  0  0  0  0  0
   11.0940  -15.0035   24.5586 O   0  0  0  0  0  0  0  0  0  0  0  0
   14.9678  -15.7280   24.3245 O   0  0  0  0  0  0  0  0  0  0  0  0
   10.3084  -17.0623   25.1703 N   0  0  0  0  0  0  0  0  0  0  0  0
    9.8906  -16.5989   26.5095 C   0  0  1  0  0  0  0  0  0  0  0  0
    8.3962  -16.7974   26.5173 C   0  0  0  0  0  0  0  0  0  0  0  0
    7.6566  -15.8530   25.6624 C   0  0  0  0  0  0  0  0  0  0  0  0
    6.8988  -16.1779   24.5258 C   0  0  0  0  0  0  0  0  0  0  0  0
    6.3228  -15.0774   24.0273 N   0  0  0  0  0  0  0  0  0  0  0  0
    6.6898  -14.0423   24.8139 C   0  0  0  0  0  0  0  0  0  0  0  0
    6.3649  -12.7090   24.7062 C   0  0  0  0  0  0  0  0  0  0  0  0
    6.8864  -11.8429   25.6375 C   0  0  0  0  0  0  0  0  0  0  0  0
    7.7063  -12.2870   26.6468 C   0  0  0  0  0  0  0  0  0  0  0  0
    8.0435  -13.6149   26.7745 C   0  0  0  0  0  0  0  0  0  0  0  0
    7.5188  -14.5043   25.8343 C   0  0  0  0  0  0  0  0  0  0  0  0
   10.6488  -17.2645   27.5557 C   0  0  0  0  0  0  0  0  0  0  0  0
   11.6523  -18.2037   27.3109 O   0  0  0  0  0  0  0  0  0  0  0  0
   10.4323  -17.0199   28.7693 O   0  0  0  0  0  0  0  0  0  0  0  0
  2  3  1  0
  2  1  1  6
  3  4  1  0
  4  8  1  0
  4  5  2  0
  6  2  1  0
  7  6  2  0
  9  6  1  0
 10  9  1  0
 10 11  1  6
 12 11  1  0
 12 13  2  0
 14 10  1  0
 14 17  1  0
 15 14  2  0
 16 12  1  0
 18 17  1  0
 18 19  1  1
 18 29  1  0
 20 21  2  0
 20 19  1  0
 22 21  1  0
 23 28  2  0
 23 22  1  0
 24 23  1  0
 25 26  1  0
 25 24  2  0
 26 27  2  0
 27 28  1  0
 28 20  1  0
 29 30  1  0
 31 29  2  0
M  END
$$$$
