NER.pdb
     RDKit          3D

 29 28  0  0  1  0  0  0  0  0999 V2000
   28.2820  -16.5283  -16.2815 N   0  0  0  0  0  0  0  0  0  0  0  0
   27.2291  -17.1738  -16.9888 C   0  0  0  0  0  0  0  0  0  0  0  0
   27.0337  -16.9424  -18.1983 O   0  0  0  0  0  0  0  0  0  0  0  0
   26.3844  -18.1257  -16.2240 C   0  0  0  0  0  0  0  0  0  0  0  0
   27.2880  -19.1736  -15.6270 C   0  0  2  0  0  0  0  0  0  0  0  0
   27.8836  -20.0046  -16.6505 N   0  0  0  0  0  0  0  0  0  0  0  0
   26.5457  -20.0555  -14.6924 C   0  0  0  0  0  0  0  0  0  0  0  0
   25.8909  -21.0586  -15.1101 O   0  0  0  0  0  0  0  0  0  0  0  0
   26.5365  -19.8160  -13.3002 N   0  0  0  0  0  0  0  0  0  0  0  0
   25.6433  -20.5435  -12.4299 C   0  0  1  0  0  0  0  0  0  0  0  0
   26.1095  -20.2703  -11.0166 C   0  0  0  0  0  0  0  0  0  0  0  0
   25.2424  -20.9239   -9.9851 C   0  0  0  0  0  0  0  0  0  0  0  0
   25.6646  -20.7397   -8.6000 C   0  0  0  0  0  0  0  0  0  0  0  0
   26.6109  -20.0164   -8.2711 O   0  0  0  0  0  0  0  0  0  0  0  0
   24.2660  -20.0408  -12.6549 C   0  0  0  0  0  0  0  0  0  0  0  0
   24.1012  -18.8152  -12.8589 O   0  0  0  0  0  0  0  0  0  0  0  0
   24.9859  -21.3990   -7.5808 O   0  0  0  0  0  0  0  0  0  0  0  0
   22.4469  -19.0010  -19.3076 N   0  0  0  0  0  0  0  0  0  0  0  0
   22.6818  -20.3604  -19.0226 C   0  0  0  0  0  0  0  0  0  0  0  0
   22.9944  -21.1709  -19.9985 N   0  0  0  0  0  0  0  0  0  0  0  0
   22.5907  -20.8859  -17.7017 N   0  0  0  0  0  0  0  0  0  0  0  0
   22.2613  -19.9765  -16.6510 C   0  0  0  0  0  0  0  0  0  0  0  0
   22.1361  -20.5961  -15.2985 C   0  0  0  0  0  0  0  0  0  0  0  0
   21.7610  -19.6437  -14.2130 C   0  0  0  0  0  0  0  0  0  0  0  0
   21.8026  -20.3651  -12.8597 C   0  0  2  0  0  0  0  0  0  0  0  0
   23.1309  -20.8980  -12.6473 N   0  0  0  0  0  0  0  0  0  0  0  0
   20.8154  -21.4686  -12.8205 C   0  0  0  0  0  0  0  0  0  0  0  0
   19.4724  -21.1579  -12.6957 O   0  0  0  0  0  0  0  0  0  0  0  0
   21.1320  -22.6791  -12.8946 O   0  0  0  0  0  0  0  0  0  0  0  0
  1  2  1  0
  2  3  2  0
  4  5  1  0
  4  2  1  0
  5  6  1  6
  7  8  2  0
  7  5  1  0
  9  7  1  0
 10  9  1  0
 11 12  1  0
 10 11  1  1
 12 13  1  0
 13 14  2  0
 15 16  2  0
 15 10  1  0
 17 13  1  0
 19 18  1  0
 20 19  2  0
 21 19  1  0
 22 21  1  0
 23 22  1  0
 23 24  1  0
 25 24  1  6
 25 26  1  0
 26 15  1  0
 27 25  1  0
 28 27  1  0
 29 27  2  0
M  END
$$$$
