NER.pdb
     RDKit          3D

 29 28  0  0  1  0  0  0  0  0999 V2000
   21.7386  -17.8072  -18.3903 N   0  0  0  0  0  0  0  0  0  0  0  0
   20.7659  -16.7845  -18.2082 C   0  0  0  0  0  0  0  0  0  0  0  0
   19.6584  -16.8448  -18.7779 O   0  0  0  0  0  0  0  0  0  0  0  0
   21.1305  -15.6548  -17.3163 C   0  0  0  0  0  0  0  0  0  0  0  0
   22.5654  -15.8397  -16.8943 C   0  0  2  0  0  0  0  0  0  0  0  0
   22.7261  -17.0133  -16.0638 N   0  0  0  0  0  0  0  0  0  0  0  0
   23.0580  -14.6655  -16.1321 C   0  0  0  0  0  0  0  0  0  0  0  0
   22.7516  -14.4934  -14.9131 O   0  0  0  0  0  0  0  0  0  0  0  0
   23.8875  -13.6910  -16.7304 N   0  0  0  0  0  0  0  0  0  0  0  0
   24.3247  -12.5335  -15.9864 C   0  0  1  0  0  0  0  0  0  0  0  0
   25.7774  -12.3174  -16.3501 C   0  0  0  0  0  0  0  0  0  0  0  0
   26.3502  -11.0792  -15.7322 C   0  0  0  0  0  0  0  0  0  0  0  0
   27.7396  -10.7904  -16.0740 C   0  0  0  0  0  0  0  0  0  0  0  0
   28.4189  -11.5109  -16.8131 O   0  0  0  0  0  0  0  0  0  0  0  0
   23.4855  -11.3791  -16.3904 C   0  0  0  0  0  0  0  0  0  0  0  0
   23.2835  -11.1833  -17.6118 O   0  0  0  0  0  0  0  0  0  0  0  0
   28.3535   -9.6550  -15.5562 O   0  0  0  0  0  0  0  0  0  0  0  0
   15.8240   -8.1705  -14.0670 N   0  0  0  0  0  0  0  0  0  0  0  0
   16.2815   -7.2715  -15.0502 C   0  0  0  0  0  0  0  0  0  0  0  0
   15.4656   -6.3602  -15.5092 N   0  0  0  0  0  0  0  0  0  0  0  0
   17.6092   -7.3202  -15.5645 N   0  0  0  0  0  0  0  0  0  0  0  0
   18.4574   -8.3723  -15.1028 C   0  0  0  0  0  0  0  0  0  0  0  0
   19.8281   -8.3810  -15.6945 C   0  0  0  0  0  0  0  0  0  0  0  0
   20.6867   -9.5182  -15.2520 C   0  0  0  0  0  0  0  0  0  0  0  0
   22.0802   -9.3842  -15.8795 C   0  0  2  0  0  0  0  0  0  0  0  0
   22.9045  -10.4907  -15.4437 N   0  0  0  0  0  0  0  0  0  0  0  0
   22.7165   -8.1072  -15.4816 C   0  0  0  0  0  0  0  0  0  0  0  0
   22.2674   -6.9308  -16.0561 O   0  0  0  0  0  0  0  0  0  0  0  0
   23.6476   -8.0326  -14.6458 O   0  0  0  0  0  0  0  0  0  0  0  0
  1  2  1  0
  2  3  2  0
  4  5  1  0
  4  2  1  0
  5  6  1  1
  7  8  2  0
  7  5  1  0
  9  7  1  0
 10  9  1  0
 11 12  1  0
 10 11  1  6
 12 13  1  0
 13 14  2  0
 15 16  2  0
 15 10  1  0
 17 13  1  0
 19 18  1  0
 20 19  2  0
 21 19  1  0
 22 21  1  0
 23 22  1  0
 23 24  1  0
 25 24  1  1
 25 26  1  0
 26 15  1  0
 27 25  1  0
 28 27  1  0
 29 27  2  0
M  END
$$$$
