NER.pdb
     RDKit          3D

 29 28  0  0  1  0  0  0  0  0999 V2000
   15.2095  -19.4172  -13.9460 N   0  0  0  0  0  0  0  0  0  0  0  0
   16.1522  -18.7677  -13.1005 C   0  0  0  0  0  0  0  0  0  0  0  0
   15.9756  -17.5905  -12.7294 O   0  0  0  0  0  0  0  0  0  0  0  0
   17.3430  -19.5521  -12.6866 C   0  0  0  0  0  0  0  0  0  0  0  0
   17.2907  -20.8836  -13.3907 C   0  0  2  0  0  0  0  0  0  0  0  0
   16.2590  -21.7343  -12.8385 N   0  0  0  0  0  0  0  0  0  0  0  0
   18.5853  -21.6009  -13.2828 C   0  0  0  0  0  0  0  0  0  0  0  0
   19.5116  -21.1817  -12.5241 O   0  0  0  0  0  0  0  0  0  0  0  0
   18.8411  -22.7789  -14.0194 N   0  0  0  0  0  0  0  0  0  0  0  0
   20.1027  -23.4699  -13.8956 C   0  0  1  0  0  0  0  0  0  0  0  0
   19.8747  -24.8701  -14.4219 C   0  0  0  0  0  0  0  0  0  0  0  0
   21.1053  -25.7211  -14.3534 C   0  0  0  0  0  0  0  0  0  0  0  0
   20.9327  -27.1109  -14.7650 C   0  0  0  0  0  0  0  0  0  0  0  0
   19.8356  -27.6001  -15.0545 O   0  0  0  0  0  0  0  0  0  0  0  0
   21.1107  -22.7423  -14.7048 C   0  0  0  0  0  0  0  0  0  0  0  0
   20.7261  -22.1180  -15.7213 O   0  0  0  0  0  0  0  0  0  0  0  0
   22.0409  -27.9474  -14.8436 O   0  0  0  0  0  0  0  0  0  0  0  0
   27.5460  -18.6807  -14.3052 N   0  0  0  0  0  0  0  0  0  0  0  0
   28.2770  -19.2893  -15.3441 C   0  0  0  0  0  0  0  0  0  0  0  0
   29.0771  -18.5579  -16.0733 N   0  0  0  0  0  0  0  0  0  0  0  0
   28.1750  -20.6813  -15.6297 N   0  0  0  0  0  0  0  0  0  0  0  0
   27.2292  -21.4417  -14.8769 C   0  0  0  0  0  0  0  0  0  0  0  0
   25.8321  -21.4059  -15.4021 C   0  0  0  0  0  0  0  0  0  0  0  0
   24.8532  -22.2102  -14.6142 C   0  0  0  0  0  0  0  0  0  0  0  0
   23.4450  -22.0138  -15.1904 C   0  0  2  0  0  0  0  0  0  0  0  0
   22.4927  -22.7284  -14.3683 N   0  0  0  0  0  0  0  0  0  0  0  0
   23.3707  -22.5153  -16.5821 C   0  0  0  0  0  0  0  0  0  0  0  0
   23.4308  -21.6052  -17.6231 O   0  0  0  0  0  0  0  0  0  0  0  0
   23.2553  -23.7294  -16.8716 O   0  0  0  0  0  0  0  0  0  0  0  0
  1  2  1  0
  2  3  2  0
  4  5  1  0
  4  2  1  0
  5  6  1  1
  7  8  2  0
  7  5  1  0
  9  7  1  0
 10  9  1  0
 11 12  1  0
 10 11  1  6
 12 13  1  0
 13 14  2  0
 15 16  2  0
 15 10  1  0
 17 13  1  0
 19 18  1  0
 20 19  2  0
 21 19  1  0
 22 21  1  0
 23 22  1  0
 23 24  1  0
 25 24  1  1
 25 26  1  0
 26 15  1  0
 27 25  1  0
 28 27  1  0
 29 27  2  0
M  END
$$$$
