NER.pdb
     RDKit          3D

 29 28  0  0  1  0  0  0  0  0999 V2000
   32.2912  -17.6247  -18.6854 N   0  0  0  0  0  0  0  0  0  0  0  0
   33.1094  -16.5213  -19.0576 C   0  0  0  0  0  0  0  0  0  0  0  0
   33.9741  -16.6366  -19.9485 O   0  0  0  0  0  0  0  0  0  0  0  0
   32.8851  -15.2405  -18.3408 C   0  0  0  0  0  0  0  0  0  0  0  0
   32.0864  -14.3358  -19.2435 C   0  0  2  0  0  0  0  0  0  0  0  0
   32.9088  -13.7755  -20.2935 N   0  0  0  0  0  0  0  0  0  0  0  0
   31.4825  -13.2135  -18.4834 C   0  0  0  0  0  0  0  0  0  0  0  0
   30.6933  -13.4223  -17.5124 O   0  0  0  0  0  0  0  0  0  0  0  0
   31.7600  -11.8670  -18.8082 N   0  0  0  0  0  0  0  0  0  0  0  0
   31.2303  -10.7882  -18.0082 C   0  0  1  0  0  0  0  0  0  0  0  0
   31.8684   -9.5189  -18.5287 C   0  0  0  0  0  0  0  0  0  0  0  0
   31.4065   -8.2970  -17.7962 C   0  0  0  0  0  0  0  0  0  0  0  0
   31.9928   -7.0368  -18.2422 C   0  0  0  0  0  0  0  0  0  0  0  0
   33.2031   -6.8855  -18.4396 O   0  0  0  0  0  0  0  0  0  0  0  0
   29.7570  -10.7655  -18.1785 C   0  0  0  0  0  0  0  0  0  0  0  0
   29.2815  -10.9910  -19.3161 O   0  0  0  0  0  0  0  0  0  0  0  0
   31.1716   -5.9365  -18.4635 O   0  0  0  0  0  0  0  0  0  0  0  0
   22.7932   -9.5087  -13.2973 N   0  0  0  0  0  0  0  0  0  0  0  0
   22.2597  -10.3615  -14.2834 C   0  0  0  0  0  0  0  0  0  0  0  0
   20.9680  -10.3794  -14.4788 N   0  0  0  0  0  0  0  0  0  0  0  0
   23.0822  -11.2093  -15.0798 N   0  0  0  0  0  0  0  0  0  0  0  0
   24.4957  -11.1172  -14.8981 C   0  0  0  0  0  0  0  0  0  0  0  0
   25.2698  -10.8002  -16.1348 C   0  0  0  0  0  0  0  0  0  0  0  0
   26.7472  -10.7289  -15.9397 C   0  0  0  0  0  0  0  0  0  0  0  0
   27.4360  -10.5376  -17.2970 C   0  0  2  0  0  0  0  0  0  0  0  0
   28.8689  -10.4982  -17.1000 N   0  0  0  0  0  0  0  0  0  0  0  0
   26.9910   -9.2800  -17.9408 C   0  0  0  0  0  0  0  0  0  0  0  0
   25.8873   -9.3122  -18.7753 O   0  0  0  0  0  0  0  0  0  0  0  0
   27.5642   -8.1785  -17.7702 O   0  0  0  0  0  0  0  0  0  0  0  0
  1  2  1  0
  2  3  2  0
  4  5  1  0
  4  2  1  0
  5  6  1  6
  7  8  2  0
  7  5  1  0
  9  7  1  0
 10  9  1  0
 11 12  1  0
 10 11  1  6
 12 13  1  0
 13 14  2  0
 15 16  2  0
 15 10  1  0
 17 13  1  0
 19 18  1  0
 20 19  2  0
 21 19  1  0
 22 21  1  0
 23 22  1  0
 23 24  1  0
 25 24  1  1
 25 26  1  0
 26 15  1  0
 27 25  1  0
 28 27  1  0
 29 27  2  0
M  END
$$$$
