NER.pdb
     RDKit          3D

 29 28  0  0  1  0  0  0  0  0999 V2000
   36.2974  -11.8899  -18.5049 N   0  0  0  0  0  0  0  0  0  0  0  0
   36.3651  -11.2729  -17.2243 C   0  0  0  0  0  0  0  0  0  0  0  0
   37.3831  -11.3834  -16.5127 O   0  0  0  0  0  0  0  0  0  0  0  0
   35.1772  -10.4996  -16.7820 C   0  0  0  0  0  0  0  0  0  0  0  0
   34.0960  -10.6753  -17.8171 C   0  0  2  0  0  0  0  0  0  0  0  0
   34.2531   -9.7411  -18.9106 N   0  0  0  0  0  0  0  0  0  0  0  0
   32.7489  -10.4725  -17.2284 C   0  0  0  0  0  0  0  0  0  0  0  0
   32.3100  -11.2268  -16.3077 O   0  0  0  0  0  0  0  0  0  0  0  0
   31.8993   -9.4329  -17.6677 N   0  0  0  0  0  0  0  0  0  0  0  0
   30.5557   -9.3082  -17.1542 C   0  0  1  0  0  0  0  0  0  0  0  0
   29.9998   -8.0214  -17.7238 C   0  0  0  0  0  0  0  0  0  0  0  0
   29.4961   -8.1795  -19.1254 C   0  0  0  0  0  0  0  0  0  0  0  0
   28.9109   -6.9829  -19.7223 C   0  0  0  0  0  0  0  0  0  0  0  0
   29.5009   -5.8989  -19.7835 O   0  0  0  0  0  0  0  0  0  0  0  0
   29.7754  -10.4853  -17.6076 C   0  0  0  0  0  0  0  0  0  0  0  0
   30.1096  -11.0509  -18.6751 O   0  0  0  0  0  0  0  0  0  0  0  0
   27.6278   -7.0377  -20.2558 O   0  0  0  0  0  0  0  0  0  0  0  0
   25.5000  -16.5626  -14.0365 N   0  0  0  0  0  0  0  0  0  0  0  0
   24.7190  -16.6484  -15.2056 C   0  0  0  0  0  0  0  0  0  0  0  0
   24.0980  -17.7656  -15.4761 N   0  0  0  0  0  0  0  0  0  0  0  0
   24.5808  -15.5549  -16.1082 N   0  0  0  0  0  0  0  0  0  0  0  0
   25.1958  -14.3181  -15.7455 C   0  0  0  0  0  0  0  0  0  0  0  0
   26.2493  -13.8387  -16.6885 C   0  0  0  0  0  0  0  0  0  0  0  0
   26.9643  -12.6069  -16.2443 C   0  0  0  0  0  0  0  0  0  0  0  0
   27.9662  -12.1771  -17.3237 C   0  0  2  0  0  0  0  0  0  0  0  0
   28.6660  -10.9924  -16.8760 N   0  0  0  0  0  0  0  0  0  0  0  0
   27.2734  -11.8887  -18.6007 C   0  0  0  0  0  0  0  0  0  0  0  0
   27.2964  -12.8435  -19.6024 O   0  0  0  0  0  0  0  0  0  0  0  0
   26.6620  -10.8180  -18.8262 O   0  0  0  0  0  0  0  0  0  0  0  0
  1  2  1  0
  2  3  2  0
  4  5  1  0
  4  2  1  0
  5  6  1  6
  7  8  2  0
  7  5  1  0
  9  7  1  0
 10  9  1  0
 11 12  1  0
 10 11  1  6
 12 13  1  0
 13 14  2  0
 15 16  2  0
 15 10  1  0
 17 13  1  0
 19 18  1  0
 20 19  2  0
 21 19  1  0
 22 21  1  0
 23 22  1  0
 23 24  1  0
 25 24  1  1
 25 26  1  0
 26 15  1  0
 27 25  1  0
 28 27  1  0
 29 27  2  0
M  END
$$$$
