NER.pdb
     RDKit          3D

 29 28  0  0  1  0  0  0  0  0999 V2000
   17.3015  -14.1351  -15.3435 N   0  0  0  0  0  0  0  0  0  0  0  0
   17.7652  -12.8762  -15.8184 C   0  0  0  0  0  0  0  0  0  0  0  0
   17.5690  -12.5248  -16.9986 O   0  0  0  0  0  0  0  0  0  0  0  0
   18.4860  -12.0115  -14.8503 C   0  0  0  0  0  0  0  0  0  0  0  0
   17.8648  -10.6393  -14.8999 C   0  0  2  0  0  0  0  0  0  0  0  0
   18.1593   -9.9696  -16.1480 N   0  0  0  0  0  0  0  0  0  0  0  0
   18.3579   -9.7846  -13.7915 C   0  0  0  0  0  0  0  0  0  0  0  0
   18.2598  -10.1510  -12.5809 O   0  0  0  0  0  0  0  0  0  0  0  0
   18.9563   -8.5286  -14.0367 N   0  0  0  0  0  0  0  0  0  0  0  0
   19.4788   -7.7332  -12.9510 C   0  0  1  0  0  0  0  0  0  0  0  0
   20.2829   -6.6204  -13.5871 C   0  0  0  0  0  0  0  0  0  0  0  0
   20.8998   -5.7026  -12.5771 C   0  0  0  0  0  0  0  0  0  0  0  0
   21.6863   -4.6017  -13.1250 C   0  0  0  0  0  0  0  0  0  0  0  0
   22.7992   -4.7551  -13.6395 O   0  0  0  0  0  0  0  0  0  0  0  0
   18.3332   -7.2005  -12.1739 C   0  0  0  0  0  0  0  0  0  0  0  0
   17.4247   -6.5919  -12.7864 O   0  0  0  0  0  0  0  0  0  0  0  0
   21.1818   -3.3066  -13.0787 O   0  0  0  0  0  0  0  0  0  0  0  0
   11.6483   -9.4931   -7.5251 N   0  0  0  0  0  0  0  0  0  0  0  0
   11.5277   -8.1249   -7.8377 C   0  0  0  0  0  0  0  0  0  0  0  0
   10.3439   -7.5722   -7.8319 N   0  0  0  0  0  0  0  0  0  0  0  0
   12.6561   -7.3177   -8.1612 N   0  0  0  0  0  0  0  0  0  0  0  0
   13.8124   -7.9771   -8.6787 C   0  0  0  0  0  0  0  0  0  0  0  0
   14.9824   -7.0862   -8.9361 C   0  0  0  0  0  0  0  0  0  0  0  0
   16.1415   -7.7595   -9.5912 C   0  0  0  0  0  0  0  0  0  0  0  0
   17.1691   -6.7065  -10.0253 C   0  0  2  0  0  0  0  0  0  0  0  0
   18.2304   -7.3561  -10.7638 N   0  0  0  0  0  0  0  0  0  0  0  0
   17.7399   -6.0111   -8.8486 C   0  0  0  0  0  0  0  0  0  0  0  0
   17.1504   -4.8353   -8.4179 O   0  0  0  0  0  0  0  0  0  0  0  0
   18.7364   -6.4326   -8.2158 O   0  0  0  0  0  0  0  0  0  0  0  0
  1  2  1  0
  2  3  2  0
  4  5  1  0
  4  2  1  0
  5  6  1  6
  7  8  2  0
  7  5  1  0
  9  7  1  0
 10  9  1  0
 11 12  1  0
 10 11  1  6
 12 13  1  0
 13 14  2  0
 15 16  2  0
 15 10  1  0
 17 13  1  0
 19 18  1  0
 20 19  2  0
 21 19  1  0
 22 21  1  0
 23 22  1  0
 23 24  1  0
 25 24  1  1
 25 26  1  0
 26 15  1  0
 27 25  1  0
 28 27  1  0
 29 27  2  0
M  END
$$$$
