NER.pdb
     RDKit          3D

 29 28  0  0  1  0  0  0  0  0999 V2000
   27.3580  -17.2706  -17.0589 N   0  0  0  0  0  0  0  0  0  0  0  0
   28.1043  -18.4753  -16.9288 C   0  0  0  0  0  0  0  0  0  0  0  0
   29.1946  -18.6202  -17.5163 O   0  0  0  0  0  0  0  0  0  0  0  0
   27.5274  -19.5393  -16.0688 C   0  0  0  0  0  0  0  0  0  0  0  0
   26.2041  -19.0457  -15.5428 C   0  0  2  0  0  0  0  0  0  0  0  0
   26.3825  -18.1237  -14.4423 N   0  0  0  0  0  0  0  0  0  0  0  0
   25.3599  -20.1703  -15.0687 C   0  0  0  0  0  0  0  0  0  0  0  0
   25.1350  -21.1818  -15.8007 O   0  0  0  0  0  0  0  0  0  0  0  0
   24.7714  -20.1625  -13.7845 N   0  0  0  0  0  0  0  0  0  0  0  0
   23.9216  -21.2470  -13.3530 C   0  0  1  0  0  0  0  0  0  0  0  0
   24.3592  -21.5976  -11.9477 C   0  0  0  0  0  0  0  0  0  0  0  0
   24.0326  -20.5243  -10.9556 C   0  0  0  0  0  0  0  0  0  0  0  0
   24.4736  -20.7771   -9.5872 C   0  0  0  0  0  0  0  0  0  0  0  0
   23.8992  -20.3167   -8.5948 O   0  0  0  0  0  0  0  0  0  0  0  0
   22.5160  -20.7741  -13.3828 C   0  0  0  0  0  0  0  0  0  0  0  0
   22.1976  -19.7956  -12.6672 O   0  0  0  0  0  0  0  0  0  0  0  0
   25.5923  -21.5716   -9.3610 O   0  0  0  0  0  0  0  0  0  0  0  0
   19.0991  -24.6952   -7.9083 N   0  0  0  0  0  0  0  0  0  0  0  0
   17.9968  -23.9178   -8.3141 C   0  0  0  0  0  0  0  0  0  0  0  0
   16.9313  -23.8802   -7.5590 N   0  0  0  0  0  0  0  0  0  0  0  0
   18.0021  -23.1666   -9.5246 N   0  0  0  0  0  0  0  0  0  0  0  0
   19.1127  -23.3422  -10.4052 C   0  0  0  0  0  0  0  0  0  0  0  0
   19.1342  -22.4234  -11.5818 C   0  0  0  0  0  0  0  0  0  0  0  0
   20.2857  -22.6296  -12.5079 C   0  0  0  0  0  0  0  0  0  0  0  0
   20.1938  -21.6341  -13.6714 C   0  0  2  0  0  0  0  0  0  0  0  0
   21.5215  -21.3898  -14.1921 N   0  0  0  0  0  0  0  0  0  0  0  0
   19.5954  -20.3551  -13.2243 C   0  0  0  0  0  0  0  0  0  0  0  0
   18.3985  -19.9461  -13.7864 O   0  0  0  0  0  0  0  0  0  0  0  0
   20.1178  -19.6160  -12.3572 O   0  0  0  0  0  0  0  0  0  0  0  0
  1  2  1  0
  2  3  2  0
  4  5  1  0
  4  2  1  0
  5  6  1  1
  7  8  2  0
  7  5  1  0
  9  7  1  0
 10  9  1  0
 11 12  1  0
 10 11  1  1
 12 13  1  0
 13 14  2  0
 15 16  2  0
 15 10  1  0
 17 13  1  0
 19 18  1  0
 20 19  2  0
 21 19  1  0
 22 21  1  0
 23 22  1  0
 23 24  1  0
 25 24  1  1
 25 26  1  0
 26 15  1  0
 27 25  1  0
 28 27  1  0
 29 27  2  0
M  END
$$$$
