NER.pdb
     RDKit          3D

 29 28  0  0  1  0  0  0  0  0999 V2000
   14.7717  -12.8563  -14.6294 N   0  0  0  0  0  0  0  0  0  0  0  0
   16.1555  -13.1556  -14.4851 C   0  0  0  0  0  0  0  0  0  0  0  0
   16.5290  -14.2355  -13.9860 O   0  0  0  0  0  0  0  0  0  0  0  0
   17.1220  -12.1300  -14.9530 C   0  0  0  0  0  0  0  0  0  0  0  0
   16.3369  -10.9448  -15.4532 C   0  0  2  0  0  0  0  0  0  0  0  0
   15.5239  -11.2934  -16.5980 N   0  0  0  0  0  0  0  0  0  0  0  0
   17.2354   -9.8319  -15.8486 C   0  0  0  0  0  0  0  0  0  0  0  0
   17.9008   -9.8717  -16.9279 O   0  0  0  0  0  0  0  0  0  0  0  0
   17.3879   -8.6828  -15.0412 N   0  0  0  0  0  0  0  0  0  0  0  0
   18.1629   -7.5540  -15.4991 C   0  0  1  0  0  0  0  0  0  0  0  0
   17.2463   -6.3522  -15.4303 C   0  0  0  0  0  0  0  0  0  0  0  0
   16.2664   -6.3067  -16.5621 C   0  0  0  0  0  0  0  0  0  0  0  0
   15.3439   -5.1756  -16.5505 C   0  0  0  0  0  0  0  0  0  0  0  0
   15.3721   -4.2877  -15.6917 O   0  0  0  0  0  0  0  0  0  0  0  0
   19.3315   -7.3987  -14.5988 C   0  0  0  0  0  0  0  0  0  0  0  0
   19.1750   -7.6049  -13.3725 O   0  0  0  0  0  0  0  0  0  0  0  0
   14.3758   -5.0676  -17.5431 O   0  0  0  0  0  0  0  0  0  0  0  0
   26.2469  -11.2213  -15.6697 N   0  0  0  0  0  0  0  0  0  0  0  0
   25.0229  -11.2251  -16.3668 C   0  0  0  0  0  0  0  0  0  0  0  0
   24.8929  -11.9852  -17.4215 N   0  0  0  0  0  0  0  0  0  0  0  0
   23.9155  -10.4261  -15.9608 N   0  0  0  0  0  0  0  0  0  0  0  0
   23.9917   -9.7936  -14.6827 C   0  0  0  0  0  0  0  0  0  0  0  0
   22.8058   -8.9623  -14.3203 C   0  0  0  0  0  0  0  0  0  0  0  0
   22.9544   -7.5078  -14.6181 C   0  0  0  0  0  0  0  0  0  0  0  0
   21.6994   -6.7576  -14.1538 C   0  0  2  0  0  0  0  0  0  0  0  0
   20.6181   -7.0258  -15.0772 N   0  0  0  0  0  0  0  0  0  0  0  0
   21.9491   -5.2987  -14.0958 C   0  0  0  0  0  0  0  0  0  0  0  0
   22.7206   -4.7947  -13.0632 O   0  0  0  0  0  0  0  0  0  0  0  0
   21.4961   -4.4883  -14.9378 O   0  0  0  0  0  0  0  0  0  0  0  0
  1  2  1  0
  2  3  2  0
  4  5  1  0
  4  2  1  0
  5  6  1  6
  7  8  2  0
  7  5  1  0
  9  7  1  0
 10  9  1  0
 11 12  1  0
 10 11  1  1
 12 13  1  0
 13 14  2  0
 15 16  2  0
 15 10  1  0
 17 13  1  0
 19 18  1  0
 20 19  2  0
 21 19  1  0
 22 21  1  0
 23 22  1  0
 23 24  1  0
 25 24  1  6
 25 26  1  0
 26 15  1  0
 27 25  1  0
 28 27  1  0
 29 27  2  0
M  END
$$$$
