NER.pdb
     RDKit          3D

 29 28  0  0  1  0  0  0  0  0999 V2000
   21.7220  -31.1008  -10.4517 N   0  0  0  0  0  0  0  0  0  0  0  0
   21.6400  -30.3641  -11.6666 C   0  0  0  0  0  0  0  0  0  0  0  0
   22.4704  -30.5399  -12.5799 O   0  0  0  0  0  0  0  0  0  0  0  0
   20.5292  -29.3867  -11.7916 C   0  0  0  0  0  0  0  0  0  0  0  0
   19.8387  -29.2938  -10.4553 C   0  0  2  0  0  0  0  0  0  0  0  0
   19.0283  -30.4637  -10.1956 N   0  0  0  0  0  0  0  0  0  0  0  0
   18.9597  -28.1002  -10.3853 C   0  0  0  0  0  0  0  0  0  0  0  0
   17.8952  -28.0226  -11.0709 O   0  0  0  0  0  0  0  0  0  0  0  0
   19.2704  -27.0012   -9.5537 N   0  0  0  0  0  0  0  0  0  0  0  0
   18.3640  -25.8839   -9.4343 C   0  0  1  0  0  0  0  0  0  0  0  0
   18.6058  -25.2838   -8.0665 C   0  0  0  0  0  0  0  0  0  0  0  0
   17.8640  -26.0009   -6.9810 C   0  0  0  0  0  0  0  0  0  0  0  0
   18.0381  -25.4598   -5.6365 C   0  0  0  0  0  0  0  0  0  0  0  0
   17.3757  -24.5142   -5.1962 O   0  0  0  0  0  0  0  0  0  0  0  0
   18.6756  -24.9170  -10.5151 C   0  0  0  0  0  0  0  0  0  0  0  0
   19.8776  -24.6672  -10.7677 O   0  0  0  0  0  0  0  0  0  0  0  0
   18.9893  -26.0171   -4.7888 O   0  0  0  0  0  0  0  0  0  0  0  0
   21.4432  -23.7561  -17.2425 N   0  0  0  0  0  0  0  0  0  0  0  0
   20.4278  -22.8389  -17.5768 C   0  0  0  0  0  0  0  0  0  0  0  0
   20.4477  -22.2667  -18.7512 N   0  0  0  0  0  0  0  0  0  0  0  0
   19.3740  -22.5113  -16.6759 N   0  0  0  0  0  0  0  0  0  0  0  0
   19.0775  -23.4475  -15.6390 C   0  0  0  0  0  0  0  0  0  0  0  0
   17.8705  -23.1214  -14.8230 C   0  0  0  0  0  0  0  0  0  0  0  0
   17.6154  -24.0601  -13.6917 C   0  0  0  0  0  0  0  0  0  0  0  0
   18.0084  -23.3895  -12.3691 C   0  0  2  0  0  0  0  0  0  0  0  0
   17.6619  -24.2666  -11.2718 N   0  0  0  0  0  0  0  0  0  0  0  0
   17.3082  -22.0945  -12.2067 C   0  0  0  0  0  0  0  0  0  0  0  0
   17.8691  -20.9584  -12.7638 O   0  0  0  0  0  0  0  0  0  0  0  0
   16.2260  -21.9695  -11.5868 O   0  0  0  0  0  0  0  0  0  0  0  0
  1  2  1  0
  2  3  2  0
  4  5  1  0
  4  2  1  0
  5  6  1  6
  7  8  2  0
  7  5  1  0
  9  7  1  0
 10  9  1  0
 11 12  1  0
 10 11  1  1
 12 13  1  0
 13 14  2  0
 15 16  2  0
 15 10  1  0
 17 13  1  0
 19 18  1  0
 20 19  2  0
 21 19  1  0
 22 21  1  0
 23 22  1  0
 23 24  1  0
 25 24  1  6
 25 26  1  0
 26 15  1  0
 27 25  1  0
 28 27  1  0
 29 27  2  0
M  END
$$$$
