NER.pdb
     RDKit          3D

 29 28  0  0  1  0  0  0  0  0999 V2000
   14.9737  -13.0083  -15.3778 N   0  0  0  0  0  0  0  0  0  0  0  0
   16.1565  -12.9849  -14.5867 C   0  0  0  0  0  0  0  0  0  0  0  0
   16.2881  -13.7465  -13.6082 O   0  0  0  0  0  0  0  0  0  0  0  0
   17.2143  -12.0198  -14.9795 C   0  0  0  0  0  0  0  0  0  0  0  0
   16.7027  -11.2194  -16.1494 C   0  0  2  0  0  0  0  0  0  0  0  0
   16.6461  -12.0189  -17.3537 N   0  0  0  0  0  0  0  0  0  0  0  0
   17.5682  -10.0441  -16.4174 C   0  0  0  0  0  0  0  0  0  0  0  0
   18.5872  -10.1316  -17.1679 O   0  0  0  0  0  0  0  0  0  0  0  0
   17.2949   -8.7800  -15.8491 N   0  0  0  0  0  0  0  0  0  0  0  0
   18.1195   -7.6358  -16.1577 C   0  0  1  0  0  0  0  0  0  0  0  0
   17.3324   -6.4162  -15.7306 C   0  0  0  0  0  0  0  0  0  0  0  0
   18.1006   -5.1423  -15.9043 C   0  0  0  0  0  0  0  0  0  0  0  0
   17.3900   -3.9232  -15.5308 C   0  0  0  0  0  0  0  0  0  0  0  0
   16.2389   -3.9211  -15.0817 O   0  0  0  0  0  0  0  0  0  0  0  0
   19.3866   -7.7592  -15.3966 C   0  0  0  0  0  0  0  0  0  0  0  0
   19.3358   -8.1531  -14.2077 O   0  0  0  0  0  0  0  0  0  0  0  0
   18.0160   -2.6900  -15.6775 O   0  0  0  0  0  0  0  0  0  0  0  0
   27.2900  -10.9138  -17.1919 N   0  0  0  0  0  0  0  0  0  0  0  0
   27.2397  -10.7087  -15.7992 C   0  0  0  0  0  0  0  0  0  0  0  0
   28.1390  -11.2748  -15.0391 N   0  0  0  0  0  0  0  0  0  0  0  0
   26.2385   -9.9015  -15.1864 N   0  0  0  0  0  0  0  0  0  0  0  0
   25.1596   -9.4521  -16.0072 C   0  0  0  0  0  0  0  0  0  0  0  0
   24.1405   -8.6170  -15.3052 C   0  0  0  0  0  0  0  0  0  0  0  0
   22.8978   -8.3649  -16.0916 C   0  0  0  0  0  0  0  0  0  0  0  0
   21.8701   -7.6428  -15.2108 C   0  0  2  0  0  0  0  0  0  0  0  0
   20.6519   -7.4477  -15.9668 N   0  0  0  0  0  0  0  0  0  0  0  0
   22.3897   -6.3299  -14.7635 C   0  0  0  0  0  0  0  0  0  0  0  0
   22.8396   -6.1992  -13.4611 O   0  0  0  0  0  0  0  0  0  0  0  0
   22.4448   -5.3216  -15.5060 O   0  0  0  0  0  0  0  0  0  0  0  0
  1  2  1  0
  2  3  2  0
  4  5  1  0
  4  2  1  0
  5  6  1  6
  7  8  2  0
  7  5  1  0
  9  7  1  0
 10  9  1  0
 11 12  1  0
 10 11  1  1
 12 13  1  0
 13 14  2  0
 15 16  2  0
 15 10  1  0
 17 13  1  0
 19 18  1  0
 20 19  2  0
 21 19  1  0
 22 21  1  0
 23 22  1  0
 23 24  1  0
 25 24  1  6
 25 26  1  0
 26 15  1  0
 27 25  1  0
 28 27  1  0
 29 27  2  0
M  END
$$$$
