NER.pdb
     RDKit          3D

 29 28  0  0  1  0  0  0  0  0999 V2000
   21.5000  -30.6581   -1.0046 N   0  0  0  0  0  0  0  0  0  0  0  0
   20.6210  -29.5417   -1.0827 C   0  0  0  0  0  0  0  0  0  0  0  0
   20.4811  -28.7673   -0.1155 O   0  0  0  0  0  0  0  0  0  0  0  0
   19.8868  -29.3465   -2.3585 C   0  0  0  0  0  0  0  0  0  0  0  0
   18.5561  -28.7161   -2.0377 C   0  0  2  0  0  0  0  0  0  0  0  0
   17.6613  -29.6608   -1.4054 N   0  0  0  0  0  0  0  0  0  0  0  0
   17.8937  -28.2038   -3.2628 C   0  0  0  0  0  0  0  0  0  0  0  0
   17.4919  -28.9895   -4.1743 O   0  0  0  0  0  0  0  0  0  0  0  0
   17.6828  -26.8219   -3.4662 N   0  0  0  0  0  0  0  0  0  0  0  0
   16.9642  -26.3453   -4.6242 C   0  0  1  0  0  0  0  0  0  0  0  0
   16.1194  -25.1822   -4.1522 C   0  0  0  0  0  0  0  0  0  0  0  0
   15.3059  -24.5741   -5.2530 C   0  0  0  0  0  0  0  0  0  0  0  0
   14.4439  -23.4641   -4.8587 C   0  0  0  0  0  0  0  0  0  0  0  0
   14.0342  -22.6101   -5.6521 O   0  0  0  0  0  0  0  0  0  0  0  0
   17.9558  -25.9195   -5.6418 C   0  0  0  0  0  0  0  0  0  0  0  0
   18.9363  -25.2316   -5.2722 O   0  0  0  0  0  0  0  0  0  0  0  0
   14.0494  -23.3378   -3.5311 O   0  0  0  0  0  0  0  0  0  0  0  0
   21.7101  -28.4903  -12.5271 N   0  0  0  0  0  0  0  0  0  0  0  0
   20.5500  -29.0116  -11.9217 C   0  0  0  0  0  0  0  0  0  0  0  0
   20.4564  -30.3004  -11.7290 N   0  0  0  0  0  0  0  0  0  0  0  0
   19.4695  -28.1797  -11.5093 N   0  0  0  0  0  0  0  0  0  0  0  0
   19.6638  -26.7662  -11.5724 C   0  0  0  0  0  0  0  0  0  0  0  0
   19.7024  -26.0767  -10.2488 C   0  0  0  0  0  0  0  0  0  0  0  0
   18.7430  -26.6155   -9.2413 C   0  0  0  0  0  0  0  0  0  0  0  0
   18.7448  -25.7166   -7.9981 C   0  0  2  0  0  0  0  0  0  0  0  0
   17.8332  -26.2635   -7.0165 N   0  0  0  0  0  0  0  0  0  0  0  0
   18.3290  -24.3379   -8.3445 C   0  0  0  0  0  0  0  0  0  0  0  0
   19.3018  -23.4119   -8.6787 O   0  0  0  0  0  0  0  0  0  0  0  0
   17.1339  -23.9600   -8.3516 O   0  0  0  0  0  0  0  0  0  0  0  0
  1  2  1  0
  2  3  2  0
  4  5  1  0
  4  2  1  0
  5  6  1  6
  7  8  2  0
  7  5  1  0
  9  7  1  0
 10  9  1  0
 11 12  1  0
 10 11  1  1
 12 13  1  0
 13 14  2  0
 15 16  2  0
 15 10  1  0
 17 13  1  0
 19 18  1  0
 20 19  2  0
 21 19  1  0
 22 21  1  0
 23 22  1  0
 23 24  1  0
 25 24  1  6
 25 26  1  0
 26 15  1  0
 27 25  1  0
 28 27  1  0
 29 27  2  0
M  END
$$$$
