VMF.pdb
     RDKit          3D

 27 27  0  0  1  0  0  0  0  0999 V2000
    7.2800  -18.9328   19.1672 C   0  0  0  0  0  0  0  0  0  0  0  0
    8.0004  -18.2410   20.3052 C   0  0  1  0  0  0  0  0  0  0  0  0
    9.4168  -18.7771   20.3359 C   0  0  0  0  0  0  0  0  0  0  0  0
    8.0911  -16.7497   20.1102 C   0  0  2  0  0  0  0  0  0  0  0  0
    8.7427  -16.5120   18.8454 N   0  0  0  0  0  0  0  0  0  0  0  0
    8.7976  -16.0775   21.2381 C   0  0  0  0  0  0  0  0  0  0  0  0
   10.0122  -15.8049   21.0949 O   0  0  0  0  0  0  0  0  0  0  0  0
    6.9339  -12.0309   26.5739 C   0  0  0  0  0  0  0  0  0  0  0  0
    5.9720  -12.4806   25.0908 S   0  0  0  0  0  0  0  0  0  0  0  0
    7.0728  -13.3120   23.9171 C   0  0  0  0  0  0  0  0  0  0  0  0
    7.7132  -14.5126   24.5644 C   0  0  0  0  0  0  0  0  0  0  0  0
    8.6897  -15.2291   23.6421 C   0  0  2  0  0  0  0  0  0  0  0  0
    8.1436  -15.7449   22.4455 N   0  0  0  0  0  0  0  0  0  0  0  0
    9.5618  -16.0851   24.4285 C   0  0  0  0  0  0  0  0  0  0  0  0
    9.0603  -17.2195   24.7598 O   0  0  0  0  0  0  0  0  0  0  0  0
   10.8652  -15.7673   24.8346 N   0  0  0  0  0  0  0  0  0  0  0  0
   11.6408  -16.6635   25.6594 C   0  0  1  0  0  0  0  0  0  0  0  0
   10.8162  -16.9790   26.8773 C   0  0  0  0  0  0  0  0  0  0  0  0
   10.3151  -15.7979   27.6067 C   0  0  0  0  0  0  0  0  0  0  0  0
    8.9638  -15.5386   27.8320 C   0  0  0  0  0  0  0  0  0  0  0  0
    8.5796  -14.4126   28.5243 C   0  0  0  0  0  0  0  0  0  0  0  0
    9.5332  -13.5407   28.9951 C   0  0  0  0  0  0  0  0  0  0  0  0
   10.8948  -13.7700   28.7871 C   0  0  0  0  0  0  0  0  0  0  0  0
   11.2500  -14.8930   28.0981 C   0  0  0  0  0  0  0  0  0  0  0  0
   12.0232  -17.8969   24.9632 C   0  0  0  0  0  0  0  0  0  0  0  0
   12.7623  -18.8550   25.6406 O   0  0  0  0  0  0  0  0  0  0  0  0
   11.7383  -18.1828   23.7658 O   0  0  0  0  0  0  0  0  0  0  0  0
  2  4  1  0
  2  1  1  6
  3  2  1  0
  4  5  1  6
  6  4  1  0
  7  6  2  0
  9  8  1  0
 10  9  1  0
 10 11  1  0
 12 11  1  1
 12 13  1  0
 13  6  1  0
 14 16  1  0
 14 12  1  0
 15 14  2  0
 17 18  1  1
 17 16  1  0
 18 19  1  0
 19 24  2  0
 20 19  1  0
 20 21  2  0
 21 22  1  0
 22 23  2  0
 24 23  1  0
 25 17  1  0
 25 26  1  0
 27 25  2  0
M  END
$$$$
