VMF.pdb
     RDKit          3D

 27 27  0  0  1  0  0  0  0  0999 V2000
    8.7984  -12.5879   21.3445 C   0  0  0  0  0  0  0  0  0  0  0  0
    7.7239  -13.3747   20.6243 C   0  0  1  0  0  0  0  0  0  0  0  0
    7.3722  -12.6112   19.3643 C   0  0  0  0  0  0  0  0  0  0  0  0
    8.1943  -14.7423   20.2016 C   0  0  2  0  0  0  0  0  0  0  0  0
    7.1991  -15.2932   19.3145 N   0  0  0  0  0  0  0  0  0  0  0  0
    8.4565  -15.6320   21.3690 C   0  0  0  0  0  0  0  0  0  0  0  0
    7.4721  -16.1007   21.9866 O   0  0  0  0  0  0  0  0  0  0  0  0
   13.2325  -20.1527   21.8620 C   0  0  0  0  0  0  0  0  0  0  0  0
   13.3618  -19.3269   23.4832 S   0  0  0  0  0  0  0  0  0  0  0  0
   11.8124  -18.4477   23.8100 C   0  0  0  0  0  0  0  0  0  0  0  0
   11.5012  -17.5025   22.6785 C   0  0  0  0  0  0  0  0  0  0  0  0
   10.1789  -16.7719   22.8672 C   0  0  2  0  0  0  0  0  0  0  0  0
    9.7656  -15.9555   21.7908 N   0  0  0  0  0  0  0  0  0  0  0  0
   10.1128  -16.2267   24.2126 C   0  0  0  0  0  0  0  0  0  0  0  0
   10.8372  -15.1867   24.4170 O   0  0  0  0  0  0  0  0  0  0  0  0
    9.3401  -16.7408   25.2629 N   0  0  0  0  0  0  0  0  0  0  0  0
    9.3800  -16.1627   26.5855 C   0  0  1  0  0  0  0  0  0  0  0  0
    7.9688  -15.8007   26.9596 C   0  0  0  0  0  0  0  0  0  0  0  0
    7.5408  -14.4562   26.5268 C   0  0  0  0  0  0  0  0  0  0  0  0
    8.2220  -13.2825   26.8471 C   0  0  0  0  0  0  0  0  0  0  0  0
    7.7560  -12.0664   26.4015 C   0  0  0  0  0  0  0  0  0  0  0  0
    6.6139  -12.0100   25.6375 C   0  0  0  0  0  0  0  0  0  0  0  0
    5.9074  -13.1657   25.2985 C   0  0  0  0  0  0  0  0  0  0  0  0
    6.3897  -14.3589   25.7522 C   0  0  0  0  0  0  0  0  0  0  0  0
    9.9631  -17.0623   27.5870 C   0  0  0  0  0  0  0  0  0  0  0  0
   10.3536  -18.3371   27.2057 O   0  0  0  0  0  0  0  0  0  0  0  0
   10.1499  -16.7830   28.8050 O   0  0  0  0  0  0  0  0  0  0  0  0
  2  4  1  0
  2  1  1  6
  3  2  1  0
  4  5  1  6
  6  4  1  0
  7  6  2  0
  9  8  1  0
 10  9  1  0
 10 11  1  0
 12 11  1  6
 12 13  1  0
 13  6  1  0
 14 16  1  0
 14 12  1  0
 15 14  2  0
 17 18  1  1
 17 16  1  0
 18 19  1  0
 19 24  2  0
 20 19  1  0
 20 21  2  0
 21 22  1  0
 22 23  2  0
 24 23  1  0
 25 17  1  0
 25 26  1  0
 27 25  2  0
M  END
$$$$
