VMF.pdb
     RDKit          3D

 27 27  0  0  1  0  0  0  0  0999 V2000
    5.4444  -11.6146   26.4745 C   0  0  0  0  0  0  0  0  0  0  0  0
    6.4976  -12.5897   25.9923 C   0  0  1  0  0  0  0  0  0  0  0  0
    7.2539  -13.0774   27.2107 C   0  0  0  0  0  0  0  0  0  0  0  0
    5.9009  -13.8003   25.3225 C   0  0  2  0  0  0  0  0  0  0  0  0
    5.0221  -14.4380   26.2723 N   0  0  0  0  0  0  0  0  0  0  0  0
    6.9465  -14.7338   24.8142 C   0  0  0  0  0  0  0  0  0  0  0  0
    7.1764  -15.7762   25.4704 O   0  0  0  0  0  0  0  0  0  0  0  0
    7.4549  -12.4239   18.5092 C   0  0  0  0  0  0  0  0  0  0  0  0
    8.7170  -13.4748   19.3027 S   0  0  0  0  0  0  0  0  0  0  0  0
    8.1006  -13.9951   20.9243 C   0  0  0  0  0  0  0  0  0  0  0  0
    9.1576  -14.7818   21.6554 C   0  0  0  0  0  0  0  0  0  0  0  0
    8.7034  -15.2401   23.0344 C   0  0  2  0  0  0  0  0  0  0  0  0
    7.6739  -14.4779   23.6302 N   0  0  0  0  0  0  0  0  0  0  0  0
    9.8639  -15.5821   23.8393 C   0  0  0  0  0  0  0  0  0  0  0  0
   10.7696  -14.6746   23.9057 O   0  0  0  0  0  0  0  0  0  0  0  0
   10.0539  -16.7911   24.5226 N   0  0  0  0  0  0  0  0  0  0  0  0
   11.3483  -17.1764   25.0336 C   0  0  1  0  0  0  0  0  0  0  0  0
   11.2196  -17.3098   26.5264 C   0  0  0  0  0  0  0  0  0  0  0  0
   11.0356  -16.0348   27.2467 C   0  0  0  0  0  0  0  0  0  0  0  0
    9.8396  -15.6483   27.8504 C   0  0  0  0  0  0  0  0  0  0  0  0
    9.7518  -14.4407   28.5052 C   0  0  0  0  0  0  0  0  0  0  0  0
   10.8486  -13.6130   28.5634 C   0  0  0  0  0  0  0  0  0  0  0  0
   12.0612  -13.9692   27.9697 C   0  0  0  0  0  0  0  0  0  0  0  0
   12.1228  -15.1712   27.3268 C   0  0  0  0  0  0  0  0  0  0  0  0
   11.8478  -18.4248   24.4467 C   0  0  0  0  0  0  0  0  0  0  0  0
   13.1122  -18.8769   24.7931 O   0  0  0  0  0  0  0  0  0  0  0  0
   11.2204  -19.1536   23.6272 O   0  0  0  0  0  0  0  0  0  0  0  0
  2  4  1  0
  2  1  1  1
  3  2  1  0
  4  5  1  1
  6  4  1  0
  7  6  2  0
  9  8  1  0
 10  9  1  0
 10 11  1  0
 12 11  1  6
 12 13  1  0
 13  6  1  0
 14 16  1  0
 14 12  1  0
 15 14  2  0
 17 18  1  1
 17 16  1  0
 18 19  1  0
 19 24  2  0
 20 19  1  0
 20 21  2  0
 21 22  1  0
 22 23  2  0
 24 23  1  0
 25 17  1  0
 25 26  1  0
 27 25  2  0
M  END
$$$$
