VMF.pdb
     RDKit          3D

 27 27  0  0  1  0  0  0  0  0999 V2000
    3.2806  -19.0203   21.3662 C   0  0  0  0  0  0  0  0  0  0  0  0
    3.5339  -19.5313   22.7688 C   0  0  1  0  0  0  0  0  0  0  0  0
    2.9767  -20.9377   22.8452 C   0  0  0  0  0  0  0  0  0  0  0  0
    5.0021  -19.6137   23.0974 C   0  0  2  0  0  0  0  0  0  0  0  0
    5.1289  -20.2724   24.3745 N   0  0  0  0  0  0  0  0  0  0  0  0
    5.6552  -18.2733   23.0924 C   0  0  0  0  0  0  0  0  0  0  0  0
    5.8040  -17.6936   21.9916 O   0  0  0  0  0  0  0  0  0  0  0  0
    7.5550  -11.7945   27.2154 C   0  0  0  0  0  0  0  0  0  0  0  0
    6.9368  -13.5070   27.3267 S   0  0  0  0  0  0  0  0  0  0  0  0
    7.2679  -14.3451   25.7557 C   0  0  0  0  0  0  0  0  0  0  0  0
    6.6167  -15.7039   25.7428 C   0  0  0  0  0  0  0  0  0  0  0  0
    6.8320  -16.4487   24.4326 C   0  0  2  0  0  0  0  0  0  0  0  0
    6.1037  -17.6493   24.2780 N   0  0  0  0  0  0  0  0  0  0  0  0
    8.2472  -16.4519   24.1026 C   0  0  0  0  0  0  0  0  0  0  0  0
    8.9699  -17.2491   24.8029 O   0  0  0  0  0  0  0  0  0  0  0  0
    8.8537  -15.6723   23.1081 N   0  0  0  0  0  0  0  0  0  0  0  0
   10.1686  -15.9836   22.5990 C   0  0  1  0  0  0  0  0  0  0  0  0
   10.2331  -15.4776   21.1839 C   0  0  0  0  0  0  0  0  0  0  0  0
    9.2337  -14.4436   20.8518 C   0  0  0  0  0  0  0  0  0  0  0  0
    8.3272  -13.9148   21.7698 C   0  0  0  0  0  0  0  0  0  0  0  0
    7.4267  -12.9501   21.3786 C   0  0  0  0  0  0  0  0  0  0  0  0
    7.4220  -12.5068   20.0767 C   0  0  0  0  0  0  0  0  0  0  0  0
    8.3158  -13.0148   19.1319 C   0  0  0  0  0  0  0  0  0  0  0  0
    9.1985  -13.9702   19.5445 C   0  0  0  0  0  0  0  0  0  0  0  0
   11.2477  -15.4003   23.4036 C   0  0  0  0  0  0  0  0  0  0  0  0
   10.9280  -14.6872   24.5492 O   0  0  0  0  0  0  0  0  0  0  0  0
   12.4822  -15.4837   23.1475 O   0  0  0  0  0  0  0  0  0  0  0  0
  2  4  1  0
  2  1  1  6
  3  2  1  0
  4  5  1  1
  6  4  1  0
  7  6  2  0
  9  8  1  0
 10  9  1  0
 10 11  1  0
 12 11  1  1
 12 13  1  0
 13  6  1  0
 14 16  1  0
 14 12  1  0
 15 14  2  0
 17 18  1  6
 17 16  1  0
 18 19  1  0
 19 24  2  0
 20 19  1  0
 20 21  2  0
 21 22  1  0
 22 23  2  0
 24 23  1  0
 25 17  1  0
 25 26  1  0
 27 25  2  0
M  END
$$$$
