VMF.pdb
     RDKit          3D

 27 27  0  0  1  0  0  0  0  0999 V2000
   12.5373  -18.6489   21.5777 C   0  0  0  0  0  0  0  0  0  0  0  0
   12.6099  -17.5387   20.5508 C   0  0  1  0  0  0  0  0  0  0  0  0
   13.5986  -17.9702   19.4875 C   0  0  0  0  0  0  0  0  0  0  0  0
   11.2904  -17.3000   19.8636 C   0  0  2  0  0  0  0  0  0  0  0  0
   11.5260  -16.3961   18.7644 N   0  0  0  0  0  0  0  0  0  0  0  0
   10.2541  -16.7811   20.8017 C   0  0  0  0  0  0  0  0  0  0  0  0
   10.4505  -15.6670   21.3405 O   0  0  0  0  0  0  0  0  0  0  0  0
    4.0448  -19.4127   21.2567 C   0  0  0  0  0  0  0  0  0  0  0  0
    3.9031  -17.6620   21.7486 S   0  0  0  0  0  0  0  0  0  0  0  0
    5.5099  -17.1037   22.3705 C   0  0  0  0  0  0  0  0  0  0  0  0
    6.6102  -17.5439   21.4398 C   0  0  0  0  0  0  0  0  0  0  0  0
    7.9939  -17.1405   21.9301 C   0  0  2  0  0  0  0  0  0  0  0  0
    9.0745  -17.5016   21.0947 N   0  0  0  0  0  0  0  0  0  0  0  0
    8.1021  -17.4091   23.3541 C   0  0  0  0  0  0  0  0  0  0  0  0
    8.7945  -18.4449   23.6639 O   0  0  0  0  0  0  0  0  0  0  0  0
    7.5230  -16.6418   24.3742 N   0  0  0  0  0  0  0  0  0  0  0  0
    7.7180  -16.9649   25.7681 C   0  0  1  0  0  0  0  0  0  0  0  0
    7.1080  -15.8523   26.5760 C   0  0  0  0  0  0  0  0  0  0  0  0
    8.0748  -14.8679   27.1000 C   0  0  0  0  0  0  0  0  0  0  0  0
    7.8795  -13.4880   27.0584 C   0  0  0  0  0  0  0  0  0  0  0  0
    8.8318  -12.6368   27.5715 C   0  0  0  0  0  0  0  0  0  0  0  0
    9.9801  -13.1507   28.1272 C   0  0  0  0  0  0  0  0  0  0  0  0
   10.2075  -14.5272   28.1850 C   0  0  0  0  0  0  0  0  0  0  0  0
    9.2484  -15.3499   27.6697 C   0  0  0  0  0  0  0  0  0  0  0  0
    7.1314  -18.2557   26.1448 C   0  0  0  0  0  0  0  0  0  0  0  0
    6.1431  -18.8091   25.3447 O   0  0  0  0  0  0  0  0  0  0  0  0
    7.4459  -18.9365   27.1617 O   0  0  0  0  0  0  0  0  0  0  0  0
  2  4  1  0
  2  1  1  1
  3  2  1  0
  4  5  1  6
  6  4  1  0
  7  6  2  0
  9  8  1  0
 10  9  1  0
 10 11  1  0
 12 11  1  6
 12 13  1  0
 13  6  1  0
 14 16  1  0
 14 12  1  0
 15 14  2  0
 17 18  1  1
 17 16  1  0
 18 19  1  0
 19 24  2  0
 20 19  1  0
 20 21  2  0
 21 22  1  0
 22 23  2  0
 24 23  1  0
 25 17  1  0
 25 26  1  0
 27 25  2  0
M  END
$$$$
