VMF.pdb
     RDKit          3D

 27 27  0  0  1  0  0  0  0  0999 V2000
    7.7911  -12.5801   19.7798 C   0  0  0  0  0  0  0  0  0  0  0  0
    7.5081  -13.8136   18.9487 C   0  0  1  0  0  0  0  0  0  0  0  0
    7.8383  -13.4748   17.5097 C   0  0  0  0  0  0  0  0  0  0  0  0
    8.3704  -14.9852   19.3412 C   0  0  2  0  0  0  0  0  0  0  0  0
    8.0114  -16.0966   18.4946 N   0  0  0  0  0  0  0  0  0  0  0  0
    8.2393  -15.3196   20.7883 C   0  0  0  0  0  0  0  0  0  0  0  0
    8.7072  -14.5128   21.6251 O   0  0  0  0  0  0  0  0  0  0  0  0
    6.6833  -21.5045   23.2286 C   0  0  0  0  0  0  0  0  0  0  0  0
    5.6858  -20.3293   24.2036 S   0  0  0  0  0  0  0  0  0  0  0  0
    6.4716  -18.6993   24.1255 C   0  0  0  0  0  0  0  0  0  0  0  0
    6.6176  -18.2596   22.6917 C   0  0  0  0  0  0  0  0  0  0  0  0
    7.3363  -16.9245   22.5545 C   0  0  2  0  0  0  0  0  0  0  0  0
    7.6109  -16.5040   21.2340 N   0  0  0  0  0  0  0  0  0  0  0  0
    8.4001  -16.8419   23.5410 C   0  0  0  0  0  0  0  0  0  0  0  0
    9.3840  -17.6446   23.3522 O   0  0  0  0  0  0  0  0  0  0  0  0
    8.4233  -15.9769   24.6437 N   0  0  0  0  0  0  0  0  0  0  0  0
    9.5899  -15.8550   25.4858 C   0  0  1  0  0  0  0  0  0  0  0  0
    9.9014  -14.3888   25.6113 C   0  0  0  0  0  0  0  0  0  0  0  0
    8.8014  -13.5682   26.1544 C   0  0  0  0  0  0  0  0  0  0  0  0
    8.7205  -13.1583   27.4847 C   0  0  0  0  0  0  0  0  0  0  0  0
    7.6599  -12.3915   27.9110 C   0  0  0  0  0  0  0  0  0  0  0  0
    6.6766  -12.0289   27.0204 C   0  0  0  0  0  0  0  0  0  0  0  0
    6.7265  -12.4222   25.6815 C   0  0  0  0  0  0  0  0  0  0  0  0
    7.7881  -13.1818   25.2837 C   0  0  0  0  0  0  0  0  0  0  0  0
    9.4057  -16.4571   26.8109 C   0  0  0  0  0  0  0  0  0  0  0  0
    8.1797  -17.0188   27.1345 O   0  0  0  0  0  0  0  0  0  0  0  0
   10.2820  -16.5155   27.7193 O   0  0  0  0  0  0  0  0  0  0  0  0
  2  4  1  0
  2  1  1  1
  3  2  1  0
  4  5  1  6
  6  4  1  0
  7  6  2  0
  9  8  1  0
 10  9  1  0
 10 11  1  0
 12 11  1  6
 12 13  1  0
 13  6  1  0
 14 16  1  0
 14 12  1  0
 15 14  2  0
 17 18  1  1
 17 16  1  0
 18 19  1  0
 19 24  2  0
 20 19  1  0
 20 21  2  0
 21 22  1  0
 22 23  2  0
 24 23  1  0
 25 17  1  0
 25 26  1  0
 27 25  2  0
M  END
$$$$
