VMF.pdb
     RDKit          3D

 27 27  0  0  1  0  0  0  0  0999 V2000
    8.5521  -19.2326   20.6779 C   0  0  0  0  0  0  0  0  0  0  0  0
    9.3994  -18.5469   19.6270 C   0  0  1  0  0  0  0  0  0  0  0  0
    9.0055  -19.1225   18.2825 C   0  0  0  0  0  0  0  0  0  0  0  0
    9.1548  -17.0614   19.5663 C   0  0  2  0  0  0  0  0  0  0  0  0
    9.9070  -16.5386   18.4520 N   0  0  0  0  0  0  0  0  0  0  0  0
    9.5057  -16.3814   20.8460 C   0  0  0  0  0  0  0  0  0  0  0  0
   10.7188  -16.2287   21.1197 O   0  0  0  0  0  0  0  0  0  0  0  0
    6.7128  -12.3114   27.1298 C   0  0  0  0  0  0  0  0  0  0  0  0
    6.3440  -12.9963   25.4800 S   0  0  0  0  0  0  0  0  0  0  0  0
    7.7327  -14.0372   24.9618 C   0  0  0  0  0  0  0  0  0  0  0  0
    7.5109  -14.5414   23.5593 C   0  0  0  0  0  0  0  0  0  0  0  0
    8.6831  -15.3586   23.0341 C   0  0  2  0  0  0  0  0  0  0  0  0
    8.5213  -15.9119   21.7443 N   0  0  0  0  0  0  0  0  0  0  0  0
    9.1928  -16.2131   24.0932 C   0  0  0  0  0  0  0  0  0  0  0  0
    8.4752  -17.2447   24.3561 O   0  0  0  0  0  0  0  0  0  0  0  0
   10.3713  -15.9949   24.8200 N   0  0  0  0  0  0  0  0  0  0  0  0
   10.9989  -17.0508   25.5793 C   0  0  1  0  0  0  0  0  0  0  0  0
   12.0401  -16.4134   26.4580 C   0  0  0  0  0  0  0  0  0  0  0  0
   11.5057  -15.4928   27.4804 C   0  0  0  0  0  0  0  0  0  0  0  0
   11.1372  -14.1731   27.2221 C   0  0  0  0  0  0  0  0  0  0  0  0
   10.6449  -13.3798   28.2335 C   0  0  0  0  0  0  0  0  0  0  0  0
   10.5166  -13.8918   29.5034 C   0  0  0  0  0  0  0  0  0  0  0  0
   10.8763  -15.2088   29.7966 C   0  0  0  0  0  0  0  0  0  0  0  0
   11.3615  -15.9749   28.7769 C   0  0  0  0  0  0  0  0  0  0  0  0
   10.0460  -17.8208   26.3862 C   0  0  0  0  0  0  0  0  0  0  0  0
    8.7149  -17.4328   26.4148 O   0  0  0  0  0  0  0  0  0  0  0  0
   10.3266  -18.8363   27.0837 O   0  0  0  0  0  0  0  0  0  0  0  0
  2  4  1  0
  2  1  1  1
  3  2  1  0
  4  5  1  6
  6  4  1  0
  7  6  2  0
  9  8  1  0
 10  9  1  0
 10 11  1  0
 12 11  1  1
 12 13  1  0
 13  6  1  0
 14 16  1  0
 14 12  1  0
 15 14  2  0
 17 18  1  1
 17 16  1  0
 18 19  1  0
 19 24  2  0
 20 19  1  0
 20 21  2  0
 21 22  1  0
 22 23  2  0
 24 23  1  0
 25 17  1  0
 25 26  1  0
 27 25  2  0
M  END
$$$$
