VMF.pdb
     RDKit          3D

 27 27  0  0  1  0  0  0  0  0999 V2000
    9.2052  -20.3000   22.2634 C   0  0  0  0  0  0  0  0  0  0  0  0
    9.1840  -19.8449   20.8195 C   0  0  1  0  0  0  0  0  0  0  0  0
    8.6179  -20.9825   19.9951 C   0  0  0  0  0  0  0  0  0  0  0  0
    8.2926  -18.6495   20.6033 C   0  0  2  0  0  0  0  0  0  0  0  0
    8.2103  -18.4155   19.1823 N   0  0  0  0  0  0  0  0  0  0  0  0
    8.7761  -17.4473   21.3408 C   0  0  0  0  0  0  0  0  0  0  0  0
    9.9157  -17.0050   21.0656 O   0  0  0  0  0  0  0  0  0  0  0  0
    6.6794  -11.8313   26.6401 C   0  0  0  0  0  0  0  0  0  0  0  0
    6.2278  -13.4195   25.8651 S   0  0  0  0  0  0  0  0  0  0  0  0
    7.6093  -13.9736   24.8333 C   0  0  0  0  0  0  0  0  0  0  0  0
    7.2516  -15.2568   24.1290 C   0  0  0  0  0  0  0  0  0  0  0  0
    8.3430  -15.7328   23.1803 C   0  0  2  0  0  0  0  0  0  0  0  0
    7.9952  -16.8035   22.3267 N   0  0  0  0  0  0  0  0  0  0  0  0
    9.6091  -15.7988   23.8903 C   0  0  0  0  0  0  0  0  0  0  0  0
   10.5100  -14.9823   23.4781 O   0  0  0  0  0  0  0  0  0  0  0  0
    9.9020  -16.6616   24.9553 N   0  0  0  0  0  0  0  0  0  0  0  0
   11.2458  -16.8083   25.4632 C   0  0  1  0  0  0  0  0  0  0  0  0
   11.6935  -15.4555   25.9448 C   0  0  0  0  0  0  0  0  0  0  0  0
   10.9361  -14.9283   27.0966 C   0  0  0  0  0  0  0  0  0  0  0  0
   10.1111  -13.8058   27.0368 C   0  0  0  0  0  0  0  0  0  0  0  0
    9.4371  -13.3798   28.1588 C   0  0  0  0  0  0  0  0  0  0  0  0
    9.5788  -14.0647   29.3429 C   0  0  0  0  0  0  0  0  0  0  0  0
   10.3968  -15.1924   29.4378 C   0  0  0  0  0  0  0  0  0  0  0  0
   11.0541  -15.5946   28.3116 C   0  0  0  0  0  0  0  0  0  0  0  0
   11.3460  -17.7975   26.5420 C   0  0  0  0  0  0  0  0  0  0  0  0
   10.1936  -18.4184   26.9999 O   0  0  0  0  0  0  0  0  0  0  0  0
   12.4139  -18.1514   27.1170 O   0  0  0  0  0  0  0  0  0  0  0  0
  2  4  1  0
  2  1  1  1
  3  2  1  0
  4  5  1  6
  6  4  1  0
  7  6  2  0
  9  8  1  0
 10  9  1  0
 10 11  1  0
 12 11  1  1
 12 13  1  0
 13  6  1  0
 14 16  1  0
 14 12  1  0
 15 14  2  0
 17 18  1  1
 17 16  1  0
 18 19  1  0
 19 24  2  0
 20 19  1  0
 20 21  2  0
 21 22  1  0
 22 23  2  0
 24 23  1  0
 25 17  1  0
 25 26  1  0
 27 25  2  0
M  END
$$$$
