VMF.pdb
     RDKit          3D

 27 27  0  0  1  0  0  0  0  0999 V2000
    8.4914  -19.3165   21.4144 C   0  0  0  0  0  0  0  0  0  0  0  0
    9.1134  -18.7399   20.1602 C   0  0  1  0  0  0  0  0  0  0  0  0
    8.5923  -19.5433   18.9866 C   0  0  0  0  0  0  0  0  0  0  0  0
    8.7212  -17.3038   19.9282 C   0  0  2  0  0  0  0  0  0  0  0  0
    9.2366  -16.9115   18.6392 N   0  0  0  0  0  0  0  0  0  0  0  0
    9.2010  -16.4070   21.0185 C   0  0  0  0  0  0  0  0  0  0  0  0
   10.4120  -16.0851   21.0278 O   0  0  0  0  0  0  0  0  0  0  0  0
    7.0149  -11.9121   27.2644 C   0  0  0  0  0  0  0  0  0  0  0  0
    6.5419  -12.6361   25.6584 S   0  0  0  0  0  0  0  0  0  0  0  0
    7.8877  -13.7049   25.0866 C   0  0  0  0  0  0  0  0  0  0  0  0
    7.5227  -14.3434   23.7714 C   0  0  0  0  0  0  0  0  0  0  0  0
    8.6553  -15.1752   23.1854 C   0  0  2  0  0  0  0  0  0  0  0  0
    8.3395  -15.9184   22.0261 N   0  0  0  0  0  0  0  0  0  0  0  0
    9.3743  -15.8412   24.2582 C   0  0  0  0  0  0  0  0  0  0  0  0
    8.6370  -16.3356   25.1857 O   0  0  0  0  0  0  0  0  0  0  0  0
   10.7668  -15.9752   24.3453 N   0  0  0  0  0  0  0  0  0  0  0  0
   11.3923  -16.6847   25.4363 C   0  0  1  0  0  0  0  0  0  0  0  0
   10.3946  -16.7491   26.5602 C   0  0  0  0  0  0  0  0  0  0  0  0
   10.4784  -15.6352   27.5248 C   0  0  0  0  0  0  0  0  0  0  0  0
    9.9671  -14.3601   27.2867 C   0  0  0  0  0  0  0  0  0  0  0  0
   10.0857  -13.3758   28.2416 C   0  0  0  0  0  0  0  0  0  0  0  0
   10.7112  -13.6523   29.4347 C   0  0  0  0  0  0  0  0  0  0  0  0
   11.2345  -14.9182   29.7057 C   0  0  0  0  0  0  0  0  0  0  0  0
   11.1042  -15.8767   28.7432 C   0  0  0  0  0  0  0  0  0  0  0  0
   11.8357  -18.0327   25.0641 C   0  0  0  0  0  0  0  0  0  0  0  0
   12.5276  -18.7976   25.9912 O   0  0  0  0  0  0  0  0  0  0  0  0
   11.6454  -18.5853   23.9439 O   0  0  0  0  0  0  0  0  0  0  0  0
  2  4  1  0
  2  1  1  1
  3  2  1  0
  4  5  1  6
  6  4  1  0
  7  6  2  0
  9  8  1  0
 10  9  1  0
 10 11  1  0
 12 11  1  1
 12 13  1  0
 13  6  1  0
 14 16  1  0
 14 12  1  0
 15 14  2  0
 17 18  1  1
 17 16  1  0
 18 19  1  0
 19 24  2  0
 20 19  1  0
 20 21  2  0
 21 22  1  0
 22 23  2  0
 24 23  1  0
 25 17  1  0
 25 26  1  0
 27 25  2  0
M  END
$$$$
