VMF.pdb
     RDKit          3D

 27 27  0  0  1  0  0  0  0  0999 V2000
    8.3326  -18.9478   20.5267 C   0  0  0  0  0  0  0  0  0  0  0  0
    9.1584  -18.1389   19.5488 C   0  0  1  0  0  0  0  0  0  0  0  0
    8.7461  -18.5590   18.1531 C   0  0  0  0  0  0  0  0  0  0  0  0
    8.9037  -16.6583   19.6635 C   0  0  2  0  0  0  0  0  0  0  0  0
    9.6391  -16.0042   18.6090 N   0  0  0  0  0  0  0  0  0  0  0  0
    9.2657  -16.1285   21.0094 C   0  0  0  0  0  0  0  0  0  0  0  0
   10.4665  -16.1860   21.3627 O   0  0  0  0  0  0  0  0  0  0  0  0
    6.4454  -11.4469   25.8157 C   0  0  0  0  0  0  0  0  0  0  0  0
    6.0422  -13.2208   25.9497 S   0  0  0  0  0  0  0  0  0  0  0  0
    7.4424  -14.1817   25.3200 C   0  0  0  0  0  0  0  0  0  0  0  0
    7.2351  -14.5116   23.8644 C   0  0  0  0  0  0  0  0  0  0  0  0
    8.4523  -15.1703   23.2299 C   0  0  2  0  0  0  0  0  0  0  0  0
    8.3052  -15.5719   21.8834 N   0  0  0  0  0  0  0  0  0  0  0  0
    9.0423  -16.1083   24.1699 C   0  0  0  0  0  0  0  0  0  0  0  0
    8.4963  -17.2700   24.1982 O   0  0  0  0  0  0  0  0  0  0  0  0
   10.1269  -15.8402   25.0162 N   0  0  0  0  0  0  0  0  0  0  0  0
   10.8333  -16.8979   25.6999 C   0  0  1  0  0  0  0  0  0  0  0  0
   11.8806  -16.2517   26.5649 C   0  0  0  0  0  0  0  0  0  0  0  0
   11.3489  -15.4649   27.6947 C   0  0  0  0  0  0  0  0  0  0  0  0
   11.1810  -15.9700   28.9834 C   0  0  0  0  0  0  0  0  0  0  0  0
   10.6791  -15.1678   29.9829 C   0  0  0  0  0  0  0  0  0  0  0  0
   10.3421  -13.8630   29.7082 C   0  0  0  0  0  0  0  0  0  0  0  0
   10.4974  -13.3254   28.4289 C   0  0  0  0  0  0  0  0  0  0  0  0
   10.9969  -14.1408   27.4555 C   0  0  0  0  0  0  0  0  0  0  0  0
    9.9512  -17.7473   26.5078 C   0  0  0  0  0  0  0  0  0  0  0  0
    8.6125  -17.4072   26.6324 O   0  0  0  0  0  0  0  0  0  0  0  0
   10.3015  -18.7930   27.1245 O   0  0  0  0  0  0  0  0  0  0  0  0
  2  4  1  0
  2  1  1  1
  3  2  1  0
  4  5  1  6
  6  4  1  0
  7  6  2  0
  9  8  1  0
 10  9  1  0
 10 11  1  0
 12 11  1  1
 12 13  1  0
 13  6  1  0
 14 16  1  0
 14 12  1  0
 15 14  2  0
 17 18  1  1
 17 16  1  0
 18 19  1  0
 19 24  2  0
 20 19  1  0
 20 21  2  0
 21 22  1  0
 22 23  2  0
 24 23  1  0
 25 17  1  0
 25 26  1  0
 27 25  2  0
M  END
$$$$
