VMF.pdb
     RDKit          3D

 27 27  0  0  1  0  0  0  0  0999 V2000
    8.8166  -19.5183   20.5694 C   0  0  0  0  0  0  0  0  0  0  0  0
    9.5995  -18.7085   19.5576 C   0  0  1  0  0  0  0  0  0  0  0  0
    9.2374  -19.2309   18.1827 C   0  0  0  0  0  0  0  0  0  0  0  0
    9.2426  -17.2450   19.5880 C   0  0  2  0  0  0  0  0  0  0  0  0
    9.9484  -16.5993   18.5083 N   0  0  0  0  0  0  0  0  0  0  0  0
    9.5461  -16.6198   20.9071 C   0  0  0  0  0  0  0  0  0  0  0  0
   10.7484  -16.4843   21.2332 O   0  0  0  0  0  0  0  0  0  0  0  0
    6.5350  -12.4817   27.0303 C   0  0  0  0  0  0  0  0  0  0  0  0
    6.1730  -13.3255   25.4542 S   0  0  0  0  0  0  0  0  0  0  0  0
    7.6392  -14.2607   24.9484 C   0  0  0  0  0  0  0  0  0  0  0  0
    7.4192  -14.8812   23.5930 C   0  0  0  0  0  0  0  0  0  0  0  0
    8.6482  -15.6145   23.0736 C   0  0  2  0  0  0  0  0  0  0  0  0
    8.5295  -16.1830   21.7857 N   0  0  0  0  0  0  0  0  0  0  0  0
    9.2152  -16.4262   24.1372 C   0  0  0  0  0  0  0  0  0  0  0  0
    8.6151  -17.5403   24.3535 O   0  0  0  0  0  0  0  0  0  0  0  0
   10.3315  -16.0871   24.9140 N   0  0  0  0  0  0  0  0  0  0  0  0
   11.0128  -17.0659   25.7283 C   0  0  1  0  0  0  0  0  0  0  0  0
   12.0115  -16.3269   26.5764 C   0  0  0  0  0  0  0  0  0  0  0  0
   11.4209  -15.5024   27.6486 C   0  0  0  0  0  0  0  0  0  0  0  0
   11.2599  -15.9361   28.9639 C   0  0  0  0  0  0  0  0  0  0  0  0
   10.7003  -15.1026   29.9056 C   0  0  0  0  0  0  0  0  0  0  0  0
   10.2986  -13.8373   29.5464 C   0  0  0  0  0  0  0  0  0  0  0  0
   10.4452  -13.3712   28.2383 C   0  0  0  0  0  0  0  0  0  0  0  0
   11.0027  -14.2164   27.3235 C   0  0  0  0  0  0  0  0  0  0  0  0
   10.0997  -17.8461   26.5707 C   0  0  0  0  0  0  0  0  0  0  0  0
   10.5860  -18.9514   27.2525 O   0  0  0  0  0  0  0  0  0  0  0  0
    8.8713  -17.6046   26.7418 O   0  0  0  0  0  0  0  0  0  0  0  0
  2  4  1  0
  2  1  1  1
  3  2  1  0
  4  5  1  6
  6  4  1  0
  7  6  2  0
  9  8  1  0
 10  9  1  0
 10 11  1  0
 12 11  1  1
 12 13  1  0
 13  6  1  0
 14 16  1  0
 14 12  1  0
 15 14  2  0
 17 18  1  1
 17 16  1  0
 18 19  1  0
 19 24  2  0
 20 19  1  0
 20 21  2  0
 21 22  1  0
 22 23  2  0
 24 23  1  0
 25 17  1  0
 25 26  1  0
 27 25  2  0
M  END
$$$$
