VMF.pdb
     RDKit          3D

 27 27  0  0  1  0  0  0  0  0999 V2000
    8.2097  -12.6401   17.9709 C   0  0  0  0  0  0  0  0  0  0  0  0
    8.4955  -13.4747   19.2015 C   0  0  1  0  0  0  0  0  0  0  0  0
    7.2119  -13.5543   20.0018 C   0  0  0  0  0  0  0  0  0  0  0  0
    8.8986  -14.8861   18.8617 C   0  0  2  0  0  0  0  0  0  0  0  0
    7.9450  -15.3965   17.9073 N   0  0  0  0  0  0  0  0  0  0  0  0
    8.9944  -15.7503   20.0730 C   0  0  0  0  0  0  0  0  0  0  0  0
    7.9372  -16.2418   20.5323 O   0  0  0  0  0  0  0  0  0  0  0  0
   13.6790  -20.2909   19.3362 C   0  0  0  0  0  0  0  0  0  0  0  0
   13.4154  -19.3965   20.9039 S   0  0  0  0  0  0  0  0  0  0  0  0
   11.9210  -18.3851   20.7489 C   0  0  0  0  0  0  0  0  0  0  0  0
   11.7332  -17.5407   21.9827 C   0  0  0  0  0  0  0  0  0  0  0  0
   10.4714  -16.6904   21.9291 C   0  0  2  0  0  0  0  0  0  0  0  0
   10.2268  -16.0252   20.7070 N   0  0  0  0  0  0  0  0  0  0  0  0
   10.3411  -15.9361   23.1643 C   0  0  0  0  0  0  0  0  0  0  0  0
   10.8236  -14.7469   23.1319 O   0  0  0  0  0  0  0  0  0  0  0  0
    9.7460  -16.4023   24.3446 N   0  0  0  0  0  0  0  0  0  0  0  0
    9.3918  -15.5052   25.4193 C   0  0  1  0  0  0  0  0  0  0  0  0
    8.3308  -14.5758   24.8965 C   0  0  0  0  0  0  0  0  0  0  0  0
    7.7481  -13.6726   25.9079 C   0  0  0  0  0  0  0  0  0  0  0  0
    8.5044  -12.8983   26.7869 C   0  0  0  0  0  0  0  0  0  0  0  0
    7.8817  -12.0790   27.7011 C   0  0  0  0  0  0  0  0  0  0  0  0
    6.5083  -12.0249   27.7469 C   0  0  0  0  0  0  0  0  0  0  0  0
    5.7209  -12.7870   26.8815 C   0  0  0  0  0  0  0  0  0  0  0  0
    6.3618  -13.5911   25.9844 C   0  0  0  0  0  0  0  0  0  0  0  0
    8.9172  -16.2056   26.6177 C   0  0  0  0  0  0  0  0  0  0  0  0
    8.4683  -17.5128   26.5042 O   0  0  0  0  0  0  0  0  0  0  0  0
    8.8730  -15.7197   27.7832 O   0  0  0  0  0  0  0  0  0  0  0  0
  2  4  1  0
  2  1  1  6
  3  2  1  0
  4  5  1  6
  6  4  1  0
  7  6  2  0
  9  8  1  0
 10  9  1  0
 10 11  1  0
 12 11  1  6
 12 13  1  0
 13  6  1  0
 14 16  1  0
 14 12  1  0
 15 14  2  0
 17 18  1  6
 17 16  1  0
 18 19  1  0
 19 24  2  0
 20 19  1  0
 20 21  2  0
 21 22  1  0
 22 23  2  0
 24 23  1  0
 25 17  1  0
 25 26  1  0
 27 25  2  0
M  END
$$$$
