VMF.pdb
     RDKit          3D

 27 27  0  0  1  0  0  0  0  0999 V2000
    8.8921  -12.7231   21.4992 C   0  0  0  0  0  0  0  0  0  0  0  0
    7.8273  -13.4584   20.7129 C   0  0  1  0  0  0  0  0  0  0  0  0
    7.6275  -12.7088   19.4120 C   0  0  0  0  0  0  0  0  0  0  0  0
    8.2373  -14.8647   20.3601 C   0  0  2  0  0  0  0  0  0  0  0  0
    7.2369  -15.4027   19.4709 N   0  0  0  0  0  0  0  0  0  0  0  0
    8.4254  -15.7154   21.5701 C   0  0  0  0  0  0  0  0  0  0  0  0
    7.4081  -16.0473   22.2221 O   0  0  0  0  0  0  0  0  0  0  0  0
   11.3196  -21.2938   23.1869 C   0  0  0  0  0  0  0  0  0  0  0  0
   12.3031  -20.1095   24.1652 S   0  0  0  0  0  0  0  0  0  0  0  0
   11.3232  -18.6059   24.4090 C   0  0  0  0  0  0  0  0  0  0  0  0
   11.0094  -17.9676   23.0806 C   0  0  0  0  0  0  0  0  0  0  0  0
   10.0721  -16.7745   23.2063 C   0  0  2  0  0  0  0  0  0  0  0  0
    9.7009  -16.1506   21.9944 N   0  0  0  0  0  0  0  0  0  0  0  0
   10.5001  -15.9350   24.3126 C   0  0  0  0  0  0  0  0  0  0  0  0
   11.3643  -15.0342   24.0125 O   0  0  0  0  0  0  0  0  0  0  0  0
   10.0496  -16.0386   25.6358 N   0  0  0  0  0  0  0  0  0  0  0  0
   10.6346  -15.2550   26.6982 C   0  0  1  0  0  0  0  0  0  0  0  0
   10.2164  -13.8260   26.4841 C   0  0  0  0  0  0  0  0  0  0  0  0
    8.7578  -13.6008   26.4980 C   0  0  0  0  0  0  0  0  0  0  0  0
    7.9881  -13.5610   27.6599 C   0  0  0  0  0  0  0  0  0  0  0  0
    6.6309  -13.3439   27.5858 C   0  0  0  0  0  0  0  0  0  0  0  0
    6.0328  -13.1657   26.3603 C   0  0  0  0  0  0  0  0  0  0  0  0
    6.7738  -13.1996   25.1772 C   0  0  0  0  0  0  0  0  0  0  0  0
    8.1173  -13.4163   25.2773 C   0  0  0  0  0  0  0  0  0  0  0  0
   10.2367  -15.7128   28.0340 C   0  0  0  0  0  0  0  0  0  0  0  0
    9.4469  -16.8464   28.1534 O   0  0  0  0  0  0  0  0  0  0  0  0
   10.5508  -15.1573   29.1246 O   0  0  0  0  0  0  0  0  0  0  0  0
  2  4  1  0
  2  1  1  1
  3  2  1  0
  4  5  1  6
  6  4  1  0
  7  6  2  0
  9  8  1  0
 10  9  1  0
 10 11  1  0
 12 11  1  6
 12 13  1  0
 13  6  1  0
 14 16  1  0
 14 12  1  0
 15 14  2  0
 17 18  1  6
 17 16  1  0
 18 19  1  0
 19 24  2  0
 20 19  1  0
 20 21  2  0
 21 22  1  0
 22 23  2  0
 24 23  1  0
 25 17  1  0
 25 26  1  0
 27 25  2  0
M  END
$$$$
