YAK.pdb
     RDKit          3D

 27 27  0  0  1  0  0  0  0  0999 V2000
   29.3923  -18.6942   -3.5837 O   0  0  0  0  0  0  0  0  0  0  0  0
   28.9722  -19.2848   -4.7572 C   0  0  0  0  0  0  0  0  0  0  0  0
   28.5641  -18.4697   -5.7970 C   0  0  0  0  0  0  0  0  0  0  0  0
   28.1361  -19.0463   -6.9909 C   0  0  0  0  0  0  0  0  0  0  0  0
   28.1112  -20.4134   -7.1565 C   0  0  0  0  0  0  0  0  0  0  0  0
   27.6544  -21.0157   -8.4296 C   0  0  0  0  0  0  0  0  0  0  0  0
   26.2374  -20.5615   -8.6795 C   0  0  2  0  0  0  0  0  0  0  0  0
   25.4163  -21.0925   -7.6122 N   0  0  0  0  0  0  0  0  0  0  0  0
   25.6975  -20.9896   -9.9681 C   0  0  0  0  0  0  0  0  0  0  0  0
   25.5931  -22.2110  -10.2287 O   0  0  0  0  0  0  0  0  0  0  0  0
   28.5211  -21.1975   -6.1095 C   0  0  0  0  0  0  0  0  0  0  0  0
   28.9544  -20.6415   -4.9029 C   0  0  0  0  0  0  0  0  0  0  0  0
   23.6213  -21.5083  -12.1601 C   0  0  0  0  0  0  0  0  0  0  0  0
   24.7813  -20.5446  -12.2576 C   0  0  2  0  0  0  0  0  0  0  0  0
   25.2643  -20.0988  -10.9893 N   0  0  0  0  0  0  0  0  0  0  0  0
   24.4019  -19.3995  -13.1402 C   0  0  0  0  0  0  0  0  0  0  0  0
   23.7302  -18.4631  -12.6511 O   0  0  0  0  0  0  0  0  0  0  0  0
   24.7761  -19.3404  -14.5050 N   0  0  0  0  0  0  0  0  0  0  0  0
   24.4446  -18.2339  -15.3936 C   0  0  1  0  0  0  0  0  0  0  0  0
   25.4357  -18.0939  -16.4965 C   0  0  0  0  0  0  0  0  0  0  0  0
   26.8504  -17.9112  -16.1050 C   0  0  0  0  0  0  0  0  0  0  0  0
   27.8426  -17.6294  -17.1630 C   0  0  0  0  0  0  0  0  0  0  0  0
   29.2411  -17.3459  -16.6858 C   0  0  0  0  0  0  0  0  0  0  0  0
   30.0809  -16.9261  -17.8299 N   0  0  0  0  0  0  0  0  0  0  0  0
   23.0314  -18.2351  -15.7807 C   0  0  0  0  0  0  0  0  0  0  0  0
   22.4494  -19.3188  -16.0026 O   0  0  0  0  0  0  0  0  0  0  0  0
   22.2908  -17.0614  -15.9159 O   0  0  0  0  0  0  0  0  0  0  0  0
  2  1  1  0
  3  2  2  0
  4  3  1  0
  5  4  2  0
  5 11  1  0
  6  5  1  0
  7  9  1  0
  7  8  1  1
  7  6  1  0
  9 15  1  0
 10  9  2  0
 11 12  2  0
 12  2  1  0
 14 13  1  1
 15 14  1  0
 16 18  1  0
 16 14  1  0
 17 16  2  0
 19 18  1  0
 19 25  1  0
 19 20  1  6
 21 20  1  0
 22 23  1  0
 22 21  1  0
 24 23  1  0
 25 27  1  0
 26 25  2  0
M  END
$$$$
