YAK.pdb
     RDKit          3D

 27 27  0  0  1  0  0  0  0  0999 V2000
   27.4036  -19.7568   -6.4288 O   0  0  0  0  0  0  0  0  0  0  0  0
   27.2868  -19.8360   -7.8009 C   0  0  0  0  0  0  0  0  0  0  0  0
   28.4261  -20.0742   -8.5475 C   0  0  0  0  0  0  0  0  0  0  0  0
   28.3297  -20.1578   -9.9349 C   0  0  0  0  0  0  0  0  0  0  0  0
   27.1212  -20.0079  -10.5784 C   0  0  0  0  0  0  0  0  0  0  0  0
   27.0302  -20.0987  -12.0534 C   0  0  0  0  0  0  0  0  0  0  0  0
   26.2745  -21.3582  -12.3984 C   0  0  2  0  0  0  0  0  0  0  0  0
   27.0238  -22.4750  -11.8630 N   0  0  0  0  0  0  0  0  0  0  0  0
   26.0703  -21.5517  -13.8322 C   0  0  0  0  0  0  0  0  0  0  0  0
   27.0293  -21.9000  -14.5599 O   0  0  0  0  0  0  0  0  0  0  0  0
   26.0081  -19.7727   -9.8137 C   0  0  0  0  0  0  0  0  0  0  0  0
   26.0807  -19.6848   -8.4209 C   0  0  0  0  0  0  0  0  0  0  0  0
   23.7445  -23.5005  -13.9009 C   0  0  0  0  0  0  0  0  0  0  0  0
   24.0236  -22.4579  -14.9588 C   0  0  2  0  0  0  0  0  0  0  0  0
   24.8241  -21.3698  -14.4941 N   0  0  0  0  0  0  0  0  0  0  0  0
   22.7312  -21.9858  -15.5429 C   0  0  0  0  0  0  0  0  0  0  0  0
   21.9675  -22.8280  -16.0668 O   0  0  0  0  0  0  0  0  0  0  0  0
   22.3453  -20.6231  -15.5226 N   0  0  0  0  0  0  0  0  0  0  0  0
   21.0769  -20.1278  -16.0416 C   0  0  1  0  0  0  0  0  0  0  0  0
   21.2475  -18.8571  -16.7995 C   0  0  0  0  0  0  0  0  0  0  0  0
   20.0567  -18.3333  -17.5036 C   0  0  0  0  0  0  0  0  0  0  0  0
   19.6770  -16.9215  -17.2897 C   0  0  0  0  0  0  0  0  0  0  0  0
   18.4805  -16.4438  -18.0668 C   0  0  0  0  0  0  0  0  0  0  0  0
   18.1764  -15.0428  -17.6991 N   0  0  0  0  0  0  0  0  0  0  0  0
   20.2946  -21.1796  -16.6963 C   0  0  0  0  0  0  0  0  0  0  0  0
   20.8258  -21.8927  -17.5749 O   0  0  0  0  0  0  0  0  0  0  0  0
   18.9595  -21.4275  -16.3794 O   0  0  0  0  0  0  0  0  0  0  0  0
  2  1  1  0
  3  2  2  0
  4  3  1  0
  5  4  2  0
  5 11  1  0
  6  5  1  0
  7  9  1  0
  7  8  1  6
  7  6  1  0
  9 15  1  0
 10  9  2  0
 11 12  2  0
 12  2  1  0
 14 13  1  1
 15 14  1  0
 16 18  1  0
 16 14  1  0
 17 16  2  0
 19 18  1  0
 19 25  1  0
 19 20  1  6
 21 20  1  0
 22 23  1  0
 22 21  1  0
 24 23  1  0
 25 27  1  0
 26 25  2  0
M  END
$$$$
