YAK.pdb
     RDKit          3D

 27 27  0  0  1  0  0  0  0  0999 V2000
   18.7602  -11.2381    4.3396 O   0  0  0  0  0  0  0  0  0  0  0  0
   19.2944  -12.0877    5.2857 C   0  0  0  0  0  0  0  0  0  0  0  0
   18.6924  -13.3166    5.4842 C   0  0  0  0  0  0  0  0  0  0  0  0
   19.2164  -14.1895    6.4352 C   0  0  0  0  0  0  0  0  0  0  0  0
   20.3233  -13.8527    7.1825 C   0  0  0  0  0  0  0  0  0  0  0  0
   20.8719  -14.7881    8.1906 C   0  0  0  0  0  0  0  0  0  0  0  0
   19.8288  -14.9839    9.2630 C   0  0  2  0  0  0  0  0  0  0  0  0
   19.6869  -13.7266    9.9660 N   0  0  0  0  0  0  0  0  0  0  0  0
   20.1530  -16.0415   10.2177 C   0  0  0  0  0  0  0  0  0  0  0  0
   20.8999  -15.7965   11.1938 O   0  0  0  0  0  0  0  0  0  0  0  0
   20.9000  -12.6283    6.9651 C   0  0  0  0  0  0  0  0  0  0  0  0
   20.3919  -11.7365    6.0168 C   0  0  0  0  0  0  0  0  0  0  0  0
   18.9812  -19.4976   11.1668 C   0  0  0  0  0  0  0  0  0  0  0  0
   20.0081  -18.3928   11.0721 C   0  0  2  0  0  0  0  0  0  0  0  0
   19.6715  -17.3771   10.1256 N   0  0  0  0  0  0  0  0  0  0  0  0
   21.3513  -18.9867   10.7941 C   0  0  0  0  0  0  0  0  0  0  0  0
   21.9598  -18.6335    9.7588 O   0  0  0  0  0  0  0  0  0  0  0  0
   21.9542  -19.9313   11.6603 N   0  0  0  0  0  0  0  0  0  0  0  0
   23.3874  -20.0058   11.9138 C   0  0  1  0  0  0  0  0  0  0  0  0
   23.9613  -18.6713   12.2421 C   0  0  0  0  0  0  0  0  0  0  0  0
   25.3936  -18.6313   12.6095 C   0  0  0  0  0  0  0  0  0  0  0  0
   25.9925  -17.3287   12.9668 C   0  0  0  0  0  0  0  0  0  0  0  0
   27.4508  -17.3612   13.3355 C   0  0  0  0  0  0  0  0  0  0  0  0
   27.8858  -16.0122   13.7613 N   0  0  0  0  0  0  0  0  0  0  0  0
   23.7367  -21.1074   12.8146 C   0  0  0  0  0  0  0  0  0  0  0  0
   23.2698  -21.1333   13.9739 O   0  0  0  0  0  0  0  0  0  0  0  0
   24.5821  -22.1484   12.4323 O   0  0  0  0  0  0  0  0  0  0  0  0
  2  1  1  0
  3  2  2  0
  4  3  1  0
  5  4  2  0
  5 11  1  0
  6  5  1  0
  7  9  1  0
  7  8  1  1
  7  6  1  0
  9 15  1  0
 10  9  2  0
 11 12  2  0
 12  2  1  0
 14 13  1  6
 15 14  1  0
 16 18  1  0
 16 14  1  0
 17 16  2  0
 19 18  1  0
 19 25  1  0
 19 20  1  1
 21 20  1  0
 22 23  1  0
 22 21  1  0
 24 23  1  0
 25 27  1  0
 26 25  2  0
M  END
$$$$
