YAK.pdb
     RDKit          3D

 27 27  0  0  1  0  0  0  0  0999 V2000
   21.6937  -15.8654  -19.4212 O   0  0  0  0  0  0  0  0  0  0  0  0
   21.4708  -16.7603  -18.3956 C   0  0  0  0  0  0  0  0  0  0  0  0
   21.4508  -18.1110  -18.6911 C   0  0  0  0  0  0  0  0  0  0  0  0
   21.2273  -19.0315  -17.6695 C   0  0  0  0  0  0  0  0  0  0  0  0
   21.0255  -18.6229  -16.3697 C   0  0  0  0  0  0  0  0  0  0  0  0
   20.7888  -19.6098  -15.2917 C   0  0  0  0  0  0  0  0  0  0  0  0
   22.0208  -19.6564  -14.4219 C   0  0  2  0  0  0  0  0  0  0  0  0
   23.0600  -20.3249  -15.1759 N   0  0  0  0  0  0  0  0  0  0  0  0
   21.8212  -20.3471  -13.1499 C   0  0  0  0  0  0  0  0  0  0  0  0
   22.0841  -21.5686  -13.0527 O   0  0  0  0  0  0  0  0  0  0  0  0
   21.0505  -17.2780  -16.1053 C   0  0  0  0  0  0  0  0  0  0  0  0
   21.2729  -16.3366  -17.1137 C   0  0  0  0  0  0  0  0  0  0  0  0
   21.2272  -19.4606   -9.5234 C   0  0  0  0  0  0  0  0  0  0  0  0
   21.2470  -20.3949  -10.7112 C   0  0  2  0  0  0  0  0  0  0  0  0
   21.3344  -19.7220  -11.9683 N   0  0  0  0  0  0  0  0  0  0  0  0
   20.0604  -21.3016  -10.6488 C   0  0  0  0  0  0  0  0  0  0  0  0
   19.0681  -21.0398  -11.3656 O   0  0  0  0  0  0  0  0  0  0  0  0
   20.0231  -22.4415   -9.8089 N   0  0  0  0  0  0  0  0  0  0  0  0
   18.8203  -23.2217   -9.5472 C   0  0  1  0  0  0  0  0  0  0  0  0
   18.9562  -24.0525   -8.3186 C   0  0  0  0  0  0  0  0  0  0  0  0
   17.7716  -24.8374   -7.9078 C   0  0  0  0  0  0  0  0  0  0  0  0
   17.8758  -25.6927   -6.7075 C   0  0  0  0  0  0  0  0  0  0  0  0
   16.6882  -26.5739   -6.4303 C   0  0  0  0  0  0  0  0  0  0  0  0
   16.9774  -27.4473   -5.2710 N   0  0  0  0  0  0  0  0  0  0  0  0
   17.6002  -22.4186   -9.6618 C   0  0  0  0  0  0  0  0  0  0  0  0
   16.6784  -22.7942  -10.4181 O   0  0  0  0  0  0  0  0  0  0  0  0
   17.4151  -21.2319   -8.9533 O   0  0  0  0  0  0  0  0  0  0  0  0
  2  1  1  0
  3  2  2  0
  4  3  1  0
  5  4  2  0
  5 11  1  0
  6  5  1  0
  7  9  1  0
  7  8  1  6
  7  6  1  0
  9 15  1  0
 10  9  2  0
 11 12  2  0
 12  2  1  0
 14 13  1  1
 15 14  1  0
 16 18  1  0
 16 14  1  0
 17 16  2  0
 19 18  1  0
 19 25  1  0
 19 20  1  1
 21 20  1  0
 22 23  1  0
 22 21  1  0
 24 23  1  0
 25 27  1  0
 26 25  2  0
M  END
$$$$
