YAK.pdb
     RDKit          3D

 27 27  0  0  1  0  0  0  0  0999 V2000
   16.7500  -15.9937    2.8500 O   0  0  0  0  0  0  0  0  0  0  0  0
   17.5151  -15.1155    3.5888 C   0  0  0  0  0  0  0  0  0  0  0  0
   17.3834  -13.7604    3.3466 C   0  0  0  0  0  0  0  0  0  0  0  0
   18.1471  -12.8566    4.0820 C   0  0  0  0  0  0  0  0  0  0  0  0
   19.0318  -13.2860    5.0464 C   0  0  0  0  0  0  0  0  0  0  0  0
   19.8386  -12.3167    5.8221 C   0  0  0  0  0  0  0  0  0  0  0  0
   19.0946  -12.0038    7.0969 C   0  0  2  0  0  0  0  0  0  0  0  0
   19.3168  -10.6054    7.3975 N   0  0  0  0  0  0  0  0  0  0  0  0
   19.5068  -12.8185    8.2377 C   0  0  0  0  0  0  0  0  0  0  0  0
   20.4448  -12.4346    8.9749 O   0  0  0  0  0  0  0  0  0  0  0  0
   19.1423  -14.6347    5.2656 C   0  0  0  0  0  0  0  0  0  0  0  0
   18.3865  -15.5597    4.5403 C   0  0  0  0  0  0  0  0  0  0  0  0
   18.2516  -15.7510   10.2553 C   0  0  0  0  0  0  0  0  0  0  0  0
   19.3242  -14.8303    9.7204 C   0  0  2  0  0  0  0  0  0  0  0  0
   18.9072  -14.0588    8.5927 N   0  0  0  0  0  0  0  0  0  0  0  0
   20.5563  -15.6233    9.4249 C   0  0  0  0  0  0  0  0  0  0  0  0
   20.7273  -16.0532    8.2617 O   0  0  0  0  0  0  0  0  0  0  0  0
   21.5312  -15.9023   10.4138 N   0  0  0  0  0  0  0  0  0  0  0  0
   22.7465  -16.6677   10.1667 C   0  0  1  0  0  0  0  0  0  0  0  0
   23.7622  -16.4532   11.2346 C   0  0  0  0  0  0  0  0  0  0  0  0
   24.3851  -15.1134   11.3056 C   0  0  0  0  0  0  0  0  0  0  0  0
   25.3163  -14.8282   12.4167 C   0  0  0  0  0  0  0  0  0  0  0  0
   25.8342  -13.4173   12.4869 C   0  0  0  0  0  0  0  0  0  0  0  0
   26.7516  -13.2817   13.6404 N   0  0  0  0  0  0  0  0  0  0  0  0
   22.4638  -18.0587    9.8030 C   0  0  0  0  0  0  0  0  0  0  0  0
   21.5647  -18.6868   10.4028 O   0  0  0  0  0  0  0  0  0  0  0  0
   23.1643  -18.7279    8.8000 O   0  0  0  0  0  0  0  0  0  0  0  0
  2  1  1  0
  3  2  2  0
  4  3  1  0
  5  4  2  0
  5 11  1  0
  6  5  1  0
  7  9  1  0
  7  8  1  1
  7  6  1  0
  9 15  1  0
 10  9  2  0
 11 12  2  0
 12  2  1  0
 14 13  1  6
 15 14  1  0
 16 18  1  0
 16 14  1  0
 17 16  2  0
 19 18  1  0
 19 25  1  0
 19 20  1  1
 21 20  1  0
 22 23  1  0
 22 21  1  0
 24 23  1  0
 25 27  1  0
 26 25  2  0
M  END
$$$$
