YAK.pdb
     RDKit          3D

 27 27  0  0  1  0  0  0  0  0999 V2000
   14.3439  -15.0522  -16.3458 O   0  0  0  0  0  0  0  0  0  0  0  0
   14.8362  -13.7972  -16.0545 C   0  0  0  0  0  0  0  0  0  0  0  0
   16.0357  -13.4103  -16.6234 C   0  0  0  0  0  0  0  0  0  0  0  0
   16.5503  -12.1467  -16.3420 C   0  0  0  0  0  0  0  0  0  0  0  0
   15.8877  -11.2739  -15.5075 C   0  0  0  0  0  0  0  0  0  0  0  0
   16.4438   -9.9332  -15.2152 C   0  0  0  0  0  0  0  0  0  0  0  0
   17.6240  -10.1079  -14.2916 C   0  0  2  0  0  0  0  0  0  0  0  0
   17.1063  -10.4660  -12.9881 N   0  0  0  0  0  0  0  0  0  0  0  0
   18.4630   -8.9177  -14.1720 C   0  0  0  0  0  0  0  0  0  0  0  0
   18.0561   -7.9276  -13.5203 O   0  0  0  0  0  0  0  0  0  0  0  0
   14.7008  -11.6833  -14.9573 C   0  0  0  0  0  0  0  0  0  0  0  0
   14.1654  -12.9460  -15.2252 C   0  0  0  0  0  0  0  0  0  0  0  0
   21.8897   -7.7006  -15.3166 C   0  0  0  0  0  0  0  0  0  0  0  0
   20.5170   -7.5811  -14.6957 C   0  0  2  0  0  0  0  0  0  0  0  0
   19.7530   -8.7866  -14.7575 N   0  0  0  0  0  0  0  0  0  0  0  0
   19.7904   -6.4316  -15.3163 C   0  0  0  0  0  0  0  0  0  0  0  0
   19.1517   -6.6279  -16.3749 O   0  0  0  0  0  0  0  0  0  0  0  0
   19.8015   -5.1344  -14.7478 N   0  0  0  0  0  0  0  0  0  0  0  0
   19.1011   -3.9898  -15.3160 C   0  0  1  0  0  0  0  0  0  0  0  0
   17.7863   -3.7615  -14.6546 C   0  0  0  0  0  0  0  0  0  0  0  0
   16.9856   -2.6147  -15.1362 C   0  0  0  0  0  0  0  0  0  0  0  0
   15.6526   -2.3876  -14.5409 C   0  0  0  0  0  0  0  0  0  0  0  0
   14.9059   -1.1864  -15.0539 C   0  0  0  0  0  0  0  0  0  0  0  0
   13.5205   -1.2030  -14.5334 N   0  0  0  0  0  0  0  0  0  0  0  0
   19.9719   -2.8203  -15.4609 C   0  0  0  0  0  0  0  0  0  0  0  0
   20.9326   -2.6607  -14.6773 O   0  0  0  0  0  0  0  0  0  0  0  0
   19.7755   -1.8582  -16.4510 O   0  0  0  0  0  0  0  0  0  0  0  0
  2  1  1  0
  3  2  2  0
  4  3  1  0
  5  4  2  0
  5 11  1  0
  6  5  1  0
  7  9  1  0
  7  8  1  1
  7  6  1  0
  9 15  1  0
 10  9  2  0
 11 12  2  0
 12  2  1  0
 14 13  1  6
 15 14  1  0
 16 18  1  0
 16 14  1  0
 17 16  2  0
 19 18  1  0
 19 25  1  0
 19 20  1  1
 21 20  1  0
 22 23  1  0
 22 21  1  0
 24 23  1  0
 25 27  1  0
 26 25  2  0
M  END
$$$$
