YAK.pdb
     RDKit          3D

 27 27  0  0  1  0  0  0  0  0999 V2000
   17.5744  -24.0475  -16.2917 O   0  0  0  0  0  0  0  0  0  0  0  0
   18.6613  -23.3355  -15.8289 C   0  0  0  0  0  0  0  0  0  0  0  0
   19.6460  -24.0124  -15.1331 C   0  0  0  0  0  0  0  0  0  0  0  0
   20.7521  -23.3117  -14.6571 C   0  0  0  0  0  0  0  0  0  0  0  0
   20.8846  -21.9567  -14.8659 C   0  0  0  0  0  0  0  0  0  0  0  0
   22.0644  -21.2218  -14.3556 C   0  0  0  0  0  0  0  0  0  0  0  0
   21.8498  -20.9563  -12.8860 C   0  0  2  0  0  0  0  0  0  0  0  0
   20.7044  -20.0793  -12.7656 N   0  0  0  0  0  0  0  0  0  0  0  0
   23.0000  -20.3489  -12.2203 C   0  0  0  0  0  0  0  0  0  0  0  0
   23.2072  -19.1175  -12.3272 O   0  0  0  0  0  0  0  0  0  0  0  0
   19.8936  -21.3109  -15.5588 C   0  0  0  0  0  0  0  0  0  0  0  0
   18.7753  -21.9930  -16.0455 C   0  0  0  0  0  0  0  0  0  0  0  0
   25.4969  -20.8914   -9.5338 C   0  0  0  0  0  0  0  0  0  0  0  0
   25.1561  -20.4945  -10.9516 C   0  0  2  0  0  0  0  0  0  0  0  0
   23.9393  -21.0692  -11.4310 N   0  0  0  0  0  0  0  0  0  0  0  0
   26.3101  -20.8127  -11.8467 C   0  0  0  0  0  0  0  0  0  0  0  0
   27.1392  -21.6728  -11.4724 O   0  0  0  0  0  0  0  0  0  0  0  0
   26.4946  -20.1755  -13.0982 N   0  0  0  0  0  0  0  0  0  0  0  0
   27.0911  -20.8206  -14.2608 C   0  0  1  0  0  0  0  0  0  0  0  0
   26.4996  -22.1640  -14.5125 C   0  0  0  0  0  0  0  0  0  0  0  0
   27.0413  -22.9295  -15.6564 C   0  0  0  0  0  0  0  0  0  0  0  0
   26.4238  -24.2301  -15.9886 C   0  0  0  0  0  0  0  0  0  0  0  0
   27.0133  -24.9479  -17.1723 C   0  0  0  0  0  0  0  0  0  0  0  0
   26.3177  -26.2397  -17.3668 N   0  0  0  0  0  0  0  0  0  0  0  0
   27.1805  -19.9192  -15.4126 C   0  0  0  0  0  0  0  0  0  0  0  0
   28.1815  -19.9640  -16.1599 O   0  0  0  0  0  0  0  0  0  0  0  0
   26.1820  -18.9957  -15.7203 O   0  0  0  0  0  0  0  0  0  0  0  0
  2  1  1  0
  3  2  2  0
  4  3  1  0
  5  4  2  0
  5 11  1  0
  6  5  1  0
  7  9  1  0
  7  8  1  6
  7  6  1  0
  9 15  1  0
 10  9  2  0
 11 12  2  0
 12  2  1  0
 14 13  1  1
 15 14  1  0
 16 18  1  0
 16 14  1  0
 17 16  2  0
 19 18  1  0
 19 25  1  0
 19 20  1  6
 21 20  1  0
 22 23  1  0
 22 21  1  0
 24 23  1  0
 25 27  1  0
 26 25  2  0
M  END
$$$$
