YAK.pdb
     RDKit          3D

 27 27  0  0  1  0  0  0  0  0999 V2000
   28.5042  -19.4451   -5.4097 O   0  0  0  0  0  0  0  0  0  0  0  0
   28.0906  -19.6500   -6.7095 C   0  0  0  0  0  0  0  0  0  0  0  0
   28.8849  -20.4173   -7.5416 C   0  0  0  0  0  0  0  0  0  0  0  0
   28.4852  -20.6363   -8.8582 C   0  0  0  0  0  0  0  0  0  0  0  0
   27.3135  -20.1033   -9.3482 C   0  0  0  0  0  0  0  0  0  0  0  0
   26.8982  -20.3424  -10.7491 C   0  0  0  0  0  0  0  0  0  0  0  0
   25.7289  -21.2958  -10.7336 C   0  0  2  0  0  0  0  0  0  0  0  0
   26.2528  -22.6220  -10.4845 N   0  0  0  0  0  0  0  0  0  0  0  0
   24.9550  -21.3030  -11.9731 C   0  0  0  0  0  0  0  0  0  0  0  0
   25.4337  -21.8247  -13.0071 O   0  0  0  0  0  0  0  0  0  0  0  0
   26.5455  -19.3467   -8.5015 C   0  0  0  0  0  0  0  0  0  0  0  0
   26.9263  -19.1137   -7.1773 C   0  0  0  0  0  0  0  0  0  0  0  0
   21.5440  -20.1593  -13.2312 C   0  0  0  0  0  0  0  0  0  0  0  0
   22.9568  -20.6821  -13.3519 C   0  0  2  0  0  0  0  0  0  0  0  0
   23.6532  -20.7448  -12.1061 N   0  0  0  0  0  0  0  0  0  0  0  0
   23.7010  -19.8708  -14.3630 C   0  0  0  0  0  0  0  0  0  0  0  0
   24.0182  -18.6953  -14.0719 O   0  0  0  0  0  0  0  0  0  0  0  0
   24.0568  -20.3870  -15.6331 N   0  0  0  0  0  0  0  0  0  0  0  0
   24.8703  -19.6687  -16.6057 C   0  0  1  0  0  0  0  0  0  0  0  0
   26.2915  -20.1130  -16.5743 C   0  0  0  0  0  0  0  0  0  0  0  0
   26.5386  -21.5695  -16.6493 C   0  0  0  0  0  0  0  0  0  0  0  0
   27.9367  -22.0443  -16.7030 C   0  0  0  0  0  0  0  0  0  0  0  0
   28.1148  -23.5331  -16.8277 C   0  0  0  0  0  0  0  0  0  0  0  0
   29.5568  -23.8556  -16.9119 N   0  0  0  0  0  0  0  0  0  0  0  0
   24.2343  -19.6047  -17.9242 C   0  0  0  0  0  0  0  0  0  0  0  0
   23.1731  -20.2315  -18.1327 O   0  0  0  0  0  0  0  0  0  0  0  0
   24.7675  -18.8631  -18.9779 O   0  0  0  0  0  0  0  0  0  0  0  0
  2  1  1  0
  3  2  2  0
  4  3  1  0
  5  4  2  0
  5 11  1  0
  6  5  1  0
  7  9  1  0
  7  8  1  6
  7  6  1  0
  9 15  1  0
 10  9  2  0
 11 12  2  0
 12  2  1  0
 14 13  1  1
 15 14  1  0
 16 18  1  0
 16 14  1  0
 17 16  2  0
 19 18  1  0
 19 25  1  0
 19 20  1  6
 21 20  1  0
 22 23  1  0
 22 21  1  0
 24 23  1  0
 25 27  1  0
 26 25  2  0
M  END
$$$$
