YAK.pdb
     RDKit          3D

 27 27  0  0  1  0  0  0  0  0999 V2000
   27.7566  -18.8636   -4.9176 O   0  0  0  0  0  0  0  0  0  0  0  0
   27.4818  -19.3638   -6.1733 C   0  0  0  0  0  0  0  0  0  0  0  0
   26.3414  -20.1268   -6.3447 C   0  0  0  0  0  0  0  0  0  0  0  0
   26.0456  -20.6415   -7.6051 C   0  0  0  0  0  0  0  0  0  0  0  0
   26.8672  -20.4055   -8.6850 C   0  0  0  0  0  0  0  0  0  0  0  0
   26.5433  -20.9573  -10.0202 C   0  0  0  0  0  0  0  0  0  0  0  0
   25.8284  -19.8870  -10.8075 C   0  0  2  0  0  0  0  0  0  0  0  0
   24.4216  -19.9712  -10.4772 N   0  0  0  0  0  0  0  0  0  0  0  0
   25.9967  -20.0046  -12.2542 C   0  0  0  0  0  0  0  0  0  0  0  0
   25.1648  -20.6535  -12.9306 O   0  0  0  0  0  0  0  0  0  0  0  0
   27.9910  -19.6459   -8.4866 C   0  0  0  0  0  0  0  0  0  0  0  0
   28.3078  -19.1194   -7.2316 C   0  0  0  0  0  0  0  0  0  0  0  0
   28.2015  -18.5699  -14.9972 C   0  0  0  0  0  0  0  0  0  0  0  0
   27.1912  -19.5246  -14.4041 C   0  0  2  0  0  0  0  0  0  0  0  0
   27.0686  -19.4203  -12.9846 N   0  0  0  0  0  0  0  0  0  0  0  0
   27.5166  -20.9195  -14.8316 C   0  0  0  0  0  0  0  0  0  0  0  0
   28.4310  -21.5312  -14.2343 O   0  0  0  0  0  0  0  0  0  0  0  0
   26.8269  -21.5676  -15.8854 N   0  0  0  0  0  0  0  0  0  0  0  0
   27.1352  -22.9122  -16.3552 C   0  0  1  0  0  0  0  0  0  0  0  0
   25.9833  -23.8390  -16.1752 C   0  0  0  0  0  0  0  0  0  0  0  0
   26.1607  -25.2272  -16.6542 C   0  0  0  0  0  0  0  0  0  0  0  0
   25.0090  -26.1498  -16.5802 C   0  0  0  0  0  0  0  0  0  0  0  0
   25.2750  -27.5611  -17.0288 C   0  0  0  0  0  0  0  0  0  0  0  0
   24.0499  -28.3746  -16.8618 N   0  0  0  0  0  0  0  0  0  0  0  0
   27.7711  -22.9082  -17.6753 C   0  0  0  0  0  0  0  0  0  0  0  0
   27.3180  -22.1748  -18.5805 O   0  0  0  0  0  0  0  0  0  0  0  0
   28.8793  -23.6996  -17.9754 O   0  0  0  0  0  0  0  0  0  0  0  0
  2  1  1  0
  3  2  2  0
  4  3  1  0
  5  4  2  0
  5 11  1  0
  6  5  1  0
  7  9  1  0
  7  8  1  6
  7  6  1  0
  9 15  1  0
 10  9  2  0
 11 12  2  0
 12  2  1  0
 14 13  1  1
 15 14  1  0
 16 18  1  0
 16 14  1  0
 17 16  2  0
 19 18  1  0
 19 25  1  0
 19 20  1  6
 21 20  1  0
 22 23  1  0
 22 21  1  0
 24 23  1  0
 25 27  1  0
 26 25  2  0
M  END
$$$$
