YAK.pdb
     RDKit          3D

 27 27  0  0  1  0  0  0  0  0999 V2000
   28.2902  -13.7386  -16.9574 O   0  0  0  0  0  0  0  0  0  0  0  0
   27.6690  -14.8661  -16.4622 C   0  0  0  0  0  0  0  0  0  0  0  0
   27.2688  -15.8445  -17.3536 C   0  0  0  0  0  0  0  0  0  0  0  0
   26.6395  -16.9911  -16.8738 C   0  0  0  0  0  0  0  0  0  0  0  0
   26.4076  -17.1700  -15.5280 C   0  0  0  0  0  0  0  0  0  0  0  0
   25.7379  -18.3925  -15.0290 C   0  0  0  0  0  0  0  0  0  0  0  0
   26.7995  -19.3219  -14.4945 C   0  0  2  0  0  0  0  0  0  0  0  0
   27.5395  -19.8340  -15.6282 N   0  0  0  0  0  0  0  0  0  0  0  0
   26.2703  -20.4381  -13.7141 C   0  0  0  0  0  0  0  0  0  0  0  0
   25.7734  -21.4299  -14.2972 O   0  0  0  0  0  0  0  0  0  0  0  0
   26.8146  -16.1841  -14.6668 C   0  0  0  0  0  0  0  0  0  0  0  0
   27.4476  -15.0257  -15.1252 C   0  0  0  0  0  0  0  0  0  0  0  0
   25.4303  -21.0187  -10.0409 C   0  0  0  0  0  0  0  0  0  0  0  0
   25.2550  -21.1495  -11.5363 C   0  0  2  0  0  0  0  0  0  0  0  0
   26.2736  -20.4924  -12.2924 N   0  0  0  0  0  0  0  0  0  0  0  0
   23.8892  -20.6780  -11.9187 C   0  0  0  0  0  0  0  0  0  0  0  0
   23.7317  -19.4705  -12.2092 O   0  0  0  0  0  0  0  0  0  0  0  0
   22.7732  -21.5492  -11.9625 N   0  0  0  0  0  0  0  0  0  0  0  0
   21.4714  -21.1791  -12.5030 C   0  0  1  0  0  0  0  0  0  0  0  0
   21.5879  -20.5632  -13.8540 C   0  0  0  0  0  0  0  0  0  0  0  0
   21.9164  -21.4694  -14.9759 C   0  0  0  0  0  0  0  0  0  0  0  0
   22.0193  -20.8985  -16.3348 C   0  0  0  0  0  0  0  0  0  0  0  0
   22.2609  -21.8892  -17.4412 C   0  0  0  0  0  0  0  0  0  0  0  0
   22.3780  -21.1740  -18.7316 N   0  0  0  0  0  0  0  0  0  0  0  0
   20.4828  -22.2506  -12.3559 C   0  0  0  0  0  0  0  0  0  0  0  0
   20.8606  -23.4112  -12.0860 O   0  0  0  0  0  0  0  0  0  0  0  0
   19.1137  -22.0324  -12.5059 O   0  0  0  0  0  0  0  0  0  0  0  0
  2  1  1  0
  3  2  2  0
  4  3  1  0
  5  4  2  0
  5 11  1  0
  6  5  1  0
  7  9  1  0
  7  8  1  6
  7  6  1  0
  9 15  1  0
 10  9  2  0
 11 12  2  0
 12  2  1  0
 14 13  1  1
 15 14  1  0
 16 18  1  0
 16 14  1  0
 17 16  2  0
 19 18  1  0
 19 25  1  0
 19 20  1  6
 21 20  1  0
 22 23  1  0
 22 21  1  0
 24 23  1  0
 25 27  1  0
 26 25  2  0
M  END
$$$$
