YAK.pdb
     RDKit          3D

 27 27  0  0  1  0  0  0  0  0999 V2000
   28.9856  -19.5440   -5.7702 O   0  0  0  0  0  0  0  0  0  0  0  0
   28.4246  -19.6847   -7.0224 C   0  0  0  0  0  0  0  0  0  0  0  0
   27.1111  -19.2931   -7.2049 C   0  0  0  0  0  0  0  0  0  0  0  0
   26.5256  -19.4269   -8.4620 C   0  0  0  0  0  0  0  0  0  0  0  0
   27.2296  -19.9420   -9.5279 C   0  0  0  0  0  0  0  0  0  0  0  0
   26.5976  -20.0797  -10.8597 C   0  0  0  0  0  0  0  0  0  0  0  0
   25.7913  -21.3550  -10.8646 C   0  0  2  0  0  0  0  0  0  0  0  0
   26.6865  -22.4338  -11.2254 N   0  0  0  0  0  0  0  0  0  0  0  0
   24.6575  -21.3346  -11.7861 C   0  0  0  0  0  0  0  0  0  0  0  0
   24.8301  -21.6060  -12.9974 O   0  0  0  0  0  0  0  0  0  0  0  0
   28.5300  -20.3221   -9.3187 C   0  0  0  0  0  0  0  0  0  0  0  0
   29.1380  -20.1972   -8.0667 C   0  0  0  0  0  0  0  0  0  0  0  0
   20.8771  -20.9253  -11.6593 C   0  0  0  0  0  0  0  0  0  0  0  0
   22.2302  -21.0228  -12.3253 C   0  0  2  0  0  0  0  0  0  0  0  0
   23.3233  -21.0197  -11.4055 N   0  0  0  0  0  0  0  0  0  0  0  0
   22.3603  -19.9378  -13.3450 C   0  0  0  0  0  0  0  0  0  0  0  0
   22.6024  -18.7736  -12.9535 O   0  0  0  0  0  0  0  0  0  0  0  0
   22.2192  -20.1835  -14.7328 N   0  0  0  0  0  0  0  0  0  0  0  0
   22.3631  -19.1600  -15.7602 C   0  0  1  0  0  0  0  0  0  0  0  0
   23.4029  -19.5242  -16.7623 C   0  0  0  0  0  0  0  0  0  0  0  0
   23.6523  -18.5535  -17.8502 C   0  0  0  0  0  0  0  0  0  0  0  0
   24.6975  -18.8663  -18.8466 C   0  0  0  0  0  0  0  0  0  0  0  0
   24.9612  -17.7970  -19.8718 C   0  0  0  0  0  0  0  0  0  0  0  0
   26.0860  -18.2088  -20.7411 N   0  0  0  0  0  0  0  0  0  0  0  0
   21.0705  -18.7181  -16.2903 C   0  0  0  0  0  0  0  0  0  0  0  0
   21.0176  -17.7294  -17.0534 O   0  0  0  0  0  0  0  0  0  0  0  0
   19.8732  -19.3609  -15.9775 O   0  0  0  0  0  0  0  0  0  0  0  0
  2  1  1  0
  3  2  2  0
  4  3  1  0
  5  4  2  0
  5 11  1  0
  6  5  1  0
  7  9  1  0
  7  8  1  6
  7  6  1  0
  9 15  1  0
 10  9  2  0
 11 12  2  0
 12  2  1  0
 14 13  1  1
 15 14  1  0
 16 18  1  0
 16 14  1  0
 17 16  2  0
 19 18  1  0
 19 25  1  0
 19 20  1  6
 21 20  1  0
 22 23  1  0
 22 21  1  0
 24 23  1  0
 25 27  1  0
 26 25  2  0
M  END
$$$$
