YAK.pdb
     RDKit          3D

 27 27  0  0  1  0  0  0  0  0999 V2000
   27.3703  -16.4959  -22.8944 O   0  0  0  0  0  0  0  0  0  0  0  0
   26.6901  -15.7078  -21.9895 C   0  0  0  0  0  0  0  0  0  0  0  0
   27.0969  -14.3973  -21.8192 C   0  0  0  0  0  0  0  0  0  0  0  0
   26.4233  -13.5845  -20.9100 C   0  0  0  0  0  0  0  0  0  0  0  0
   25.3590  -14.0606  -20.1767 C   0  0  0  0  0  0  0  0  0  0  0  0
   24.6502  -13.1881  -19.2131 C   0  0  0  0  0  0  0  0  0  0  0  0
   25.5455  -12.9910  -18.0148 C   0  0  2  0  0  0  0  0  0  0  0  0
   25.6340  -14.2606  -17.3251 N   0  0  0  0  0  0  0  0  0  0  0  0
   25.0750  -11.9649  -17.0870 C   0  0  0  0  0  0  0  0  0  0  0  0
   24.1579  -12.2283  -16.2745 O   0  0  0  0  0  0  0  0  0  0  0  0
   24.9771  -15.3635  -20.3655 C   0  0  0  0  0  0  0  0  0  0  0  0
   25.6378  -16.1972  -21.2718 C   0  0  0  0  0  0  0  0  0  0  0  0
   26.0074   -8.4716  -15.9434 C   0  0  0  0  0  0  0  0  0  0  0  0
   25.0707   -9.6384  -16.1559 C   0  0  2  0  0  0  0  0  0  0  0  0
   25.5930  -10.6411  -17.0292 N   0  0  0  0  0  0  0  0  0  0  0  0
   23.7449   -9.1311  -16.6241 C   0  0  0  0  0  0  0  0  0  0  0  0
   23.5048   -9.1275  -17.8527 O   0  0  0  0  0  0  0  0  0  0  0  0
   22.7570   -8.6568  -15.7268 N   0  0  0  0  0  0  0  0  0  0  0  0
   21.4806   -8.0914  -16.1449 C   0  0  1  0  0  0  0  0  0  0  0  0
   20.3291   -8.8794  -15.6240 C   0  0  0  0  0  0  0  0  0  0  0  0
   18.9753   -8.3871  -15.9598 C   0  0  0  0  0  0  0  0  0  0  0  0
   17.8097   -9.0667  -15.3575 C   0  0  0  0  0  0  0  0  0  0  0  0
   16.4651   -8.6427  -15.8829 C   0  0  0  0  0  0  0  0  0  0  0  0
   15.3959   -9.3157  -15.1121 N   0  0  0  0  0  0  0  0  0  0  0  0
   21.4230   -6.6407  -15.9470 C   0  0  0  0  0  0  0  0  0  0  0  0
   22.1708   -6.0989  -15.1045 O   0  0  0  0  0  0  0  0  0  0  0  0
   20.5565   -5.8200  -16.6682 O   0  0  0  0  0  0  0  0  0  0  0  0
  2  1  1  0
  3  2  2  0
  4  3  1  0
  5  4  2  0
  5 11  1  0
  6  5  1  0
  7  9  1  0
  7  8  1  1
  7  6  1  0
  9 15  1  0
 10  9  2  0
 11 12  2  0
 12  2  1  0
 14 13  1  6
 15 14  1  0
 16 18  1  0
 16 14  1  0
 17 16  2  0
 19 18  1  0
 19 25  1  0
 19 20  1  1
 21 20  1  0
 22 23  1  0
 22 21  1  0
 24 23  1  0
 25 27  1  0
 26 25  2  0
M  END
$$$$
