YAK.pdb
     RDKit          3D

 27 27  0  0  1  0  0  0  0  0999 V2000
   25.3783  -23.8187  -15.6385 O   0  0  0  0  0  0  0  0  0  0  0  0
   26.3068  -24.6575  -16.2188 C   0  0  0  0  0  0  0  0  0  0  0  0
   27.2330  -24.1145  -17.0903 C   0  0  0  0  0  0  0  0  0  0  0  0
   28.1794  -24.9446  -17.6871 C   0  0  0  0  0  0  0  0  0  0  0  0
   28.2112  -26.2967  -17.4264 C   0  0  0  0  0  0  0  0  0  0  0  0
   29.2214  -27.1697  -18.0662 C   0  0  0  0  0  0  0  0  0  0  0  0
   28.8464  -27.3318  -19.5186 C   0  0  2  0  0  0  0  0  0  0  0  0
   27.6244  -28.1062  -19.5680 N   0  0  0  0  0  0  0  0  0  0  0  0
   29.8724  -27.9894  -20.3248 C   0  0  0  0  0  0  0  0  0  0  0  0
   29.8668  -29.2364  -20.4497 O   0  0  0  0  0  0  0  0  0  0  0  0
   27.2813  -26.8081  -16.5586 C   0  0  0  0  0  0  0  0  0  0  0  0
   26.3227  -25.9949  -15.9483 C   0  0  0  0  0  0  0  0  0  0  0  0
   32.5828  -27.0251  -22.7949 C   0  0  0  0  0  0  0  0  0  0  0  0
   31.8531  -27.9614  -21.8595 C   0  0  2  0  0  0  0  0  0  0  0  0
   30.9165  -27.3030  -21.0050 N   0  0  0  0  0  0  0  0  0  0  0  0
   32.8485  -28.7595  -21.0807 C   0  0  0  0  0  0  0  0  0  0  0  0
   33.1188  -28.4034  -19.9115 O   0  0  0  0  0  0  0  0  0  0  0  0
   33.4921  -29.8998  -21.6207 N   0  0  0  0  0  0  0  0  0  0  0  0
   34.3575  -30.7867  -20.8536 C   0  0  1  0  0  0  0  0  0  0  0  0
   33.6718  -31.3176  -19.6428 C   0  0  0  0  0  0  0  0  0  0  0  0
   34.4022  -32.3314  -18.8512 C   0  0  0  0  0  0  0  0  0  0  0  0
   33.7328  -32.9208  -17.6732 C   0  0  0  0  0  0  0  0  0  0  0  0
   34.5659  -33.8731  -16.8590 C   0  0  0  0  0  0  0  0  0  0  0  0
   33.8175  -34.2771  -15.6478 N   0  0  0  0  0  0  0  0  0  0  0  0
   35.0406  -31.7675  -21.7011 C   0  0  0  0  0  0  0  0  0  0  0  0
   34.4333  -32.2881  -22.6617 O   0  0  0  0  0  0  0  0  0  0  0  0
   36.3621  -32.1554  -21.4822 O   0  0  0  0  0  0  0  0  0  0  0  0
  2  1  1  0
  3  2  2  0
  4  3  1  0
  5  4  2  0
  5 11  1  0
  6  5  1  0
  7  9  1  0
  7  8  1  1
  7  6  1  0
  9 15  1  0
 10  9  2  0
 11 12  2  0
 12  2  1  0
 14 13  1  1
 15 14  1  0
 16 18  1  0
 16 14  1  0
 17 16  2  0
 19 18  1  0
 19 25  1  0
 19 20  1  1
 21 20  1  0
 22 23  1  0
 22 21  1  0
 24 23  1  0
 25 27  1  0
 26 25  2  0
M  END
$$$$
