YAK.pdb
     RDKit          3D

 27 27  0  0  1  0  0  0  0  0999 V2000
   28.1105  -13.3554  -17.0464 O   0  0  0  0  0  0  0  0  0  0  0  0
   27.5413  -14.5368  -16.6189 C   0  0  0  0  0  0  0  0  0  0  0  0
   27.4634  -14.7779  -15.2596 C   0  0  0  0  0  0  0  0  0  0  0  0
   26.8920  -15.9652  -14.8069 C   0  0  0  0  0  0  0  0  0  0  0  0
   26.4025  -16.9047  -15.6872 C   0  0  0  0  0  0  0  0  0  0  0  0
   25.7973  -18.1631  -15.1952 C   0  0  0  0  0  0  0  0  0  0  0  0
   26.8619  -18.9365  -14.4571 C   0  0  2  0  0  0  0  0  0  0  0  0
   27.7893  -19.4489  -15.4433 N   0  0  0  0  0  0  0  0  0  0  0  0
   26.3419  -20.0429  -13.6567 C   0  0  0  0  0  0  0  0  0  0  0  0
   26.3169  -21.2021  -14.1323 O   0  0  0  0  0  0  0  0  0  0  0  0
   26.4926  -16.6398  -17.0292 C   0  0  0  0  0  0  0  0  0  0  0  0
   27.0616  -15.4559  -17.5062 C   0  0  0  0  0  0  0  0  0  0  0  0
   25.4296  -20.8280  -10.0875 C   0  0  0  0  0  0  0  0  0  0  0  0
   25.3080  -20.9994  -11.5841 C   0  0  2  0  0  0  0  0  0  0  0  0
   25.8427  -19.9056  -12.3316 N   0  0  0  0  0  0  0  0  0  0  0  0
   23.8810  -21.2681  -11.9382 C   0  0  0  0  0  0  0  0  0  0  0  0
   23.2781  -22.1874  -11.3395 O   0  0  0  0  0  0  0  0  0  0  0  0
   23.1928  -20.5197  -12.9244 N   0  0  0  0  0  0  0  0  0  0  0  0
   21.8235  -20.7897  -13.3438 C   0  0  1  0  0  0  0  0  0  0  0  0
   21.6274  -22.2212  -13.7049 C   0  0  0  0  0  0  0  0  0  0  0  0
   20.2635  -22.6286  -14.1071 C   0  0  0  0  0  0  0  0  0  0  0  0
   20.0341  -24.0368  -14.4911 C   0  0  0  0  0  0  0  0  0  0  0  0
   18.6125  -24.3972  -14.8275 C   0  0  0  0  0  0  0  0  0  0  0  0
   18.5007  -25.8619  -15.0081 N   0  0  0  0  0  0  0  0  0  0  0  0
   20.8366  -20.2040  -12.4327 C   0  0  0  0  0  0  0  0  0  0  0  0
   19.6296  -20.1801  -12.7569 O   0  0  0  0  0  0  0  0  0  0  0  0
   21.1874  -19.6615  -11.1969 O   0  0  0  0  0  0  0  0  0  0  0  0
  2  1  1  0
  3  2  2  0
  4  3  1  0
  5  4  2  0
  5 11  1  0
  6  5  1  0
  7  9  1  0
  7  8  1  6
  7  6  1  0
  9 15  1  0
 10  9  2  0
 11 12  2  0
 12  2  1  0
 14 13  1  1
 15 14  1  0
 16 18  1  0
 16 14  1  0
 17 16  2  0
 19 18  1  0
 19 25  1  0
 19 20  1  1
 21 20  1  0
 22 23  1  0
 22 21  1  0
 24 23  1  0
 25 27  1  0
 26 25  2  0
M  END
$$$$
