RRN.pdb
     RDKit          3D

 31 30  0  0  1  0  0  0  0  0999 V2000
    8.3135  -15.6950   14.5313 N   0  0  0  0  0  0  0  0  0  0  0  0
    8.7460  -14.3257   14.6708 C   0  0  0  0  0  0  0  0  0  0  0  0
    8.4378  -13.5416   13.7039 N   0  0  0  0  0  0  0  0  0  0  0  0
    9.4666  -13.9157   15.8250 N   0  0  0  0  0  0  0  0  0  0  0  0
   10.0613  -14.9495   16.6875 C   0  0  0  0  0  0  0  0  0  0  0  0
    9.3349  -14.9716   17.9826 C   0  0  0  0  0  0  0  0  0  0  0  0
   10.0856  -14.5622   19.1901 C   0  0  0  0  0  0  0  0  0  0  0  0
   10.3797  -15.6355   20.1816 C   0  0  2  0  0  0  0  0  0  0  0  0
    9.7318  -16.8901   19.8497 N   0  0  0  0  0  0  0  0  0  0  0  0
   10.0044  -15.2752   21.5611 C   0  0  0  0  0  0  0  0  0  0  0  0
   10.7172  -14.4617   22.1941 O   0  0  0  0  0  0  0  0  0  0  0  0
    8.7693  -12.5602   13.7221 N   0  0  0  0  0  0  0  0  0  0  0  0
    6.4390  -10.8867   26.0519 C   0  0  0  0  0  0  0  0  0  0  0  0
    6.1044  -11.8928   27.0017 N   0  0  0  0  0  0  0  0  0  0  0  0
    5.6827  -11.5730   28.1566 N   0  0  0  0  0  0  0  0  0  0  0  0
    6.2257  -13.2874   26.7003 C   0  0  0  0  0  0  0  0  0  0  0  0
    6.6152  -13.7374   25.4033 C   0  0  0  0  0  0  0  0  0  0  0  0
    6.6405  -15.2525   25.2508 C   0  0  0  0  0  0  0  0  0  0  0  0
    7.0332  -15.5451   23.8466 C   0  0  1  0  0  0  0  0  0  0  0  0
    8.5300  -15.5019   23.6166 N   0  0  0  0  0  0  0  0  0  0  0  0
    8.8726  -15.7916   22.2406 C   0  0  0  0  0  0  0  0  0  0  0  0
    9.2386  -16.4270   24.5508 O   0  0  0  0  0  0  0  0  0  0  0  0
    9.3301  -17.6593   24.2954 N   0  0  0  0  0  0  0  0  0  0  0  0
    5.4650  -12.3106   28.8581 C   0  0  0  0  0  0  0  0  0  0  0  0
   10.6961  -16.8290   30.3777 O   0  0  0  0  0  0  0  0  0  0  0  0
   11.2760  -16.7480   29.0897 C   0  0  0  0  0  0  0  0  0  0  0  0
   12.3250  -17.3739   28.8586 C   0  0  2  0  0  0  0  0  0  0  0  0
   10.6599  -15.9355   28.0174 N   0  0  0  0  0  0  0  0  0  0  0  0
   10.3942  -16.7529   26.7659 C   0  0  0  0  0  0  0  0  0  0  0  0
    9.8155  -15.9075   25.7415 O   0  0  0  0  0  0  0  0  0  0  0  0
    9.5221  -17.9170   27.0645 O   0  0  0  0  0  0  0  0  0  0  0  0
  2  1  1  0
  2  3  2  0
  4  2  1  0
  5  4  1  0
  6  5  1  0
  7  8  1  0
  7  6  1  0
  8  9  1  6
  8 10  1  0
 10 20  1  0
 11 10  2  0
 13 12  1  0
 14 13  2  0
 15 13  1  0
 16 15  1  0
 17 16  1  0
 18 17  1  0
 19 18  1  6
 19 21  1  0
 20 19  1  0
 21 28  1  0
 21 22  2  0
 23 24  1  0
 24 25  2  0
 26 24  1  0
 27 26  1  1
 27 29  1  0
 28 27  1  0
 29 30  2  0
 29 31  1  0
M  END
$$$$
