RRN.pdb
     RDKit          3D

 31 30  0  0  1  0  0  0  0  0999 V2000
    7.7995  -12.7697   15.0887 N   0  0  0  0  0  0  0  0  0  0  0  0
    8.1321  -13.5244   16.2725 C   0  0  0  0  0  0  0  0  0  0  0  0
    8.7986  -12.8932   17.1680 N   0  0  0  0  0  0  0  0  0  0  0  0
    7.7261  -14.8807   16.3955 N   0  0  0  0  0  0  0  0  0  0  0  0
    7.9150  -15.5574   17.6888 C   0  0  0  0  0  0  0  0  0  0  0  0
    7.2435  -14.7637   18.7493 C   0  0  0  0  0  0  0  0  0  0  0  0
    7.2332  -15.3281   20.1170 C   0  0  0  0  0  0  0  0  0  0  0  0
    8.5558  -15.4451   20.7944 C   0  0  2  0  0  0  0  0  0  0  0  0
    9.3283  -16.5739   20.3117 N   0  0  0  0  0  0  0  0  0  0  0  0
    8.4535  -15.5517   22.2612 C   0  0  0  0  0  0  0  0  0  0  0  0
    7.7339  -14.7356   22.8831 O   0  0  0  0  0  0  0  0  0  0  0  0
    9.0843  -13.3901   18.0311 N   0  0  0  0  0  0  0  0  0  0  0  0
   12.1680  -17.7578   29.5435 C   0  0  0  0  0  0  0  0  0  0  0  0
   11.9289  -19.0689   29.0432 N   0  0  0  0  0  0  0  0  0  0  0  0
   12.7463  -20.0101   29.2875 N   0  0  0  0  0  0  0  0  0  0  0  0
   10.7737  -19.3785   28.2558 C   0  0  0  0  0  0  0  0  0  0  0  0
   10.7288  -19.0972   26.8575 C   0  0  0  0  0  0  0  0  0  0  0  0
    9.7934  -17.9557   26.4811 C   0  0  0  0  0  0  0  0  0  0  0  0
    9.8939  -17.7744   25.0084 C   0  0  2  0  0  0  0  0  0  0  0  0
    9.0214  -16.6557   24.4768 N   0  0  0  0  0  0  0  0  0  0  0  0
    9.1232  -16.5297   23.0386 C   0  0  0  0  0  0  0  0  0  0  0  0
    9.3442  -15.3630   25.1516 O   0  0  0  0  0  0  0  0  0  0  0  0
   10.4264  -14.7604   24.9112 N   0  0  0  0  0  0  0  0  0  0  0  0
   12.5727  -20.9657   28.9130 C   0  0  0  0  0  0  0  0  0  0  0  0
    5.4379  -12.2619   25.6367 O   0  0  0  0  0  0  0  0  0  0  0  0
    6.8387  -12.3727   25.8013 C   0  0  0  0  0  0  0  0  0  0  0  0
    7.5842  -12.0786   24.8508 C   0  0  1  0  0  0  0  0  0  0  0  0
    7.4304  -12.8303   27.0781 N   0  0  0  0  0  0  0  0  0  0  0  0
    8.7050  -13.6262   26.8613 C   0  0  0  0  0  0  0  0  0  0  0  0
    8.4171  -14.8089   26.0756 O   0  0  0  0  0  0  0  0  0  0  0  0
    9.3411  -13.9773   28.1562 O   0  0  0  0  0  0  0  0  0  0  0  0
  2  1  1  0
  2  3  2  0
  4  2  1  0
  5  4  1  0
  6  5  1  0
  7  8  1  0
  7  6  1  0
  8  9  1  6
  8 10  1  0
 10 20  1  0
 11 10  2  0
 13 12  1  0
 14 13  2  0
 15 13  1  0
 16 15  1  0
 17 16  1  0
 18 17  1  0
 19 18  1  6
 19 21  1  0
 20 19  1  0
 21 28  1  0
 21 22  2  0
 23 24  1  0
 24 25  2  0
 26 24  1  0
 27 26  1  1
 27 29  1  0
 28 27  1  0
 29 30  2  0
 29 31  1  0
M  END
$$$$
