RRN.pdb
     RDKit          3D

 31 30  0  0  1  0  0  0  0  0999 V2000
   16.4867  -12.5999   18.1155 N   0  0  0  0  0  0  0  0  0  0  0  0
   16.5369  -14.0414   18.0836 C   0  0  0  0  0  0  0  0  0  0  0  0
   17.5014  -14.5810   18.7341 N   0  0  0  0  0  0  0  0  0  0  0  0
   15.5574  -14.7769   17.3629 N   0  0  0  0  0  0  0  0  0  0  0  0
   14.3521  -14.0735   16.8953 C   0  0  0  0  0  0  0  0  0  0  0  0
   13.3359  -14.0888   17.9781 C   0  0  0  0  0  0  0  0  0  0  0  0
   12.4016  -15.2354   18.0173 C   0  0  0  0  0  0  0  0  0  0  0  0
   10.9483  -14.9046   18.0241 C   0  0  2  0  0  0  0  0  0  0  0  0
   10.7045  -13.4753   17.9826 N   0  0  0  0  0  0  0  0  0  0  0  0
   10.2281  -15.4602   19.1843 C   0  0  0  0  0  0  0  0  0  0  0  0
   10.0072  -14.7242   20.1743 O   0  0  0  0  0  0  0  0  0  0  0  0
   17.6127  -15.6108   18.7135 N   0  0  0  0  0  0  0  0  0  0  0  0
    3.3622  -20.2745   18.6062 C   0  0  0  0  0  0  0  0  0  0  0  0
    4.7301  -20.4960   18.9320 N   0  0  0  0  0  0  0  0  0  0  0  0
    5.5321  -20.9589   18.0623 N   0  0  0  0  0  0  0  0  0  0  0  0
    5.2530  -20.2099   20.2339 C   0  0  0  0  0  0  0  0  0  0  0  0
    6.6463  -20.3290   20.5190 C   0  0  0  0  0  0  0  0  0  0  0  0
    7.2873  -19.0497   21.0405 C   0  0  0  0  0  0  0  0  0  0  0  0
    8.1316  -18.5044   19.9444 C   0  0  2  0  0  0  0  0  0  0  0  0
    8.9977  -17.3375   20.3727 N   0  0  0  0  0  0  0  0  0  0  0  0
    9.7562  -16.7944   19.2662 C   0  0  0  0  0  0  0  0  0  0  0  0
    9.8982  -17.7285   21.4983 O   0  0  0  0  0  0  0  0  0  0  0  0
   10.3246  -18.9113   21.6046 N   0  0  0  0  0  0  0  0  0  0  0  0
    6.5236  -21.1519   18.3136 C   0  0  0  0  0  0  0  0  0  0  0  0
   12.6416  -17.8199   25.8061 O   0  0  0  0  0  0  0  0  0  0  0  0
   11.4946  -18.5866   25.4926 C   0  0  0  0  0  0  0  0  0  0  0  0
   11.2026  -19.5589   26.2104 C   0  0  1  0  0  0  0  0  0  0  0  0
   10.6398  -18.2544   24.3313 N   0  0  0  0  0  0  0  0  0  0  0  0
   11.1576  -17.0464   23.5711 C   0  0  0  0  0  0  0  0  0  0  0  0
   10.2766  -16.7520   22.4592 O   0  0  0  0  0  0  0  0  0  0  0  0
   12.5537  -17.2623   23.1142 O   0  0  0  0  0  0  0  0  0  0  0  0
  2  1  1  0
  2  3  2  0
  4  2  1  0
  5  4  1  0
  6  5  1  0
  7  8  1  0
  7  6  1  0
  8  9  1  1
  8 10  1  0
 10 20  1  0
 11 10  2  0
 13 12  1  0
 14 13  2  0
 15 13  1  0
 16 15  1  0
 17 16  1  0
 18 17  1  0
 19 18  1  6
 19 21  1  0
 20 19  1  0
 21 28  1  0
 21 22  2  0
 23 24  1  0
 24 25  2  0
 26 24  1  0
 27 26  1  6
 27 29  1  0
 28 27  1  0
 29 30  2  0
 29 31  1  0
M  END
$$$$
