RRN.pdb
     RDKit          3D

 31 30  0  0  1  0  0  0  0  0999 V2000
    8.1945  -15.7013   12.5179 N   0  0  0  0  0  0  0  0  0  0  0  0
    7.7411  -15.2796   13.8209 C   0  0  0  0  0  0  0  0  0  0  0  0
    7.5567  -14.0189   13.9669 N   0  0  0  0  0  0  0  0  0  0  0  0
    7.5257  -16.2366   14.8493 N   0  0  0  0  0  0  0  0  0  0  0  0
    8.6947  -16.8976   15.4515 C   0  0  0  0  0  0  0  0  0  0  0  0
    9.6902  -15.8627   15.8303 C   0  0  0  0  0  0  0  0  0  0  0  0
   10.1296  -15.8269   17.2427 C   0  0  0  0  0  0  0  0  0  0  0  0
    9.0666  -16.0110   18.2711 C   0  0  2  0  0  0  0  0  0  0  0  0
    7.8624  -15.2626   17.9644 N   0  0  0  0  0  0  0  0  0  0  0  0
    9.5007  -15.6457   19.6319 C   0  0  0  0  0  0  0  0  0  0  0  0
   10.7265  -15.5628   19.8791 O   0  0  0  0  0  0  0  0  0  0  0  0
    7.2383  -13.6563   14.8837 N   0  0  0  0  0  0  0  0  0  0  0  0
    5.9292  -13.4906   27.5524 C   0  0  0  0  0  0  0  0  0  0  0  0
    6.5903  -12.3663   26.9821 N   0  0  0  0  0  0  0  0  0  0  0  0
    6.2891  -11.1881   27.3493 N   0  0  0  0  0  0  0  0  0  0  0  0
    7.6084  -12.5131   25.9860 C   0  0  0  0  0  0  0  0  0  0  0  0
    7.3487  -13.1737   24.7480 C   0  0  0  0  0  0  0  0  0  0  0  0
    8.5293  -13.1810   23.7859 C   0  0  0  0  0  0  0  0  0  0  0  0
    8.0661  -13.8268   22.5288 C   0  0  2  0  0  0  0  0  0  0  0  0
    9.0185  -14.8825   22.0058 N   0  0  0  0  0  0  0  0  0  0  0  0
    8.6159  -15.3753   20.7059 C   0  0  0  0  0  0  0  0  0  0  0  0
    9.1591  -16.0032   22.9831 O   0  0  0  0  0  0  0  0  0  0  0  0
    8.2396  -16.8553   23.1269 N   0  0  0  0  0  0  0  0  0  0  0  0
    6.8529  -10.3766   27.0217 C   0  0  0  0  0  0  0  0  0  0  0  0
   13.0617  -19.2444   26.0375 O   0  0  0  0  0  0  0  0  0  0  0  0
   12.2346  -18.1247   26.2901 C   0  0  0  0  0  0  0  0  0  0  0  0
   11.7113  -18.0002   27.4109 C   0  0  1  0  0  0  0  0  0  0  0  0
   11.9820  -17.1034   25.2494 N   0  0  0  0  0  0  0  0  0  0  0  0
   10.5529  -17.1529   24.7390 C   0  0  0  0  0  0  0  0  0  0  0  0
   10.3457  -16.1066   23.7586 O   0  0  0  0  0  0  0  0  0  0  0  0
    9.5831  -17.0468   25.8583 O   0  0  0  0  0  0  0  0  0  0  0  0
  2  1  1  0
  2  3  2  0
  4  2  1  0
  5  4  1  0
  6  5  1  0
  7  8  1  0
  7  6  1  0
  8  9  1  6
  8 10  1  0
 10 20  1  0
 11 10  2  0
 13 12  1  0
 14 13  2  0
 15 13  1  0
 16 15  1  0
 17 16  1  0
 18 17  1  0
 19 18  1  6
 19 21  1  0
 20 19  1  0
 21 28  1  0
 21 22  2  0
 23 24  1  0
 24 25  2  0
 26 24  1  0
 27 26  1  1
 27 29  1  0
 28 27  1  0
 29 30  2  0
 29 31  1  0
M  END
$$$$
