RRN.pdb
     RDKit          3D

 31 30  0  0  1  0  0  0  0  0999 V2000
   14.9068  -14.3943   15.9485 N   0  0  0  0  0  0  0  0  0  0  0  0
   15.7780  -13.6569   16.8308 C   0  0  0  0  0  0  0  0  0  0  0  0
   16.2034  -12.5326   16.3839 N   0  0  0  0  0  0  0  0  0  0  0  0
   16.1174  -14.1823   18.1069 N   0  0  0  0  0  0  0  0  0  0  0  0
   15.6130  -15.5148   18.4761 C   0  0  0  0  0  0  0  0  0  0  0  0
   14.1955  -15.3914   18.9017 C   0  0  0  0  0  0  0  0  0  0  0  0
   13.9389  -14.9813   20.2999 C   0  0  0  0  0  0  0  0  0  0  0  0
   13.0113  -15.8459   21.0833 C   0  0  2  0  0  0  0  0  0  0  0  0
   12.7397  -17.1088   20.4234 N   0  0  0  0  0  0  0  0  0  0  0  0
   11.7217  -15.1976   21.3835 C   0  0  0  0  0  0  0  0  0  0  0  0
   11.0866  -14.6447   20.4553 O   0  0  0  0  0  0  0  0  0  0  0  0
   16.9204  -12.0124   16.9212 N   0  0  0  0  0  0  0  0  0  0  0  0
    8.9841  -13.4219   17.1474 C   0  0  0  0  0  0  0  0  0  0  0  0
    8.3357  -12.8078   18.2559 N   0  0  0  0  0  0  0  0  0  0  0  0
    8.6138  -11.6122   18.5827 N   0  0  0  0  0  0  0  0  0  0  0  0
    7.3562  -13.5006   19.0375 C   0  0  0  0  0  0  0  0  0  0  0  0
    7.7045  -14.6317   19.8348 C   0  0  0  0  0  0  0  0  0  0  0  0
    8.6729  -14.3208   20.9684 C   0  0  0  0  0  0  0  0  0  0  0  0
    8.9294  -15.5968   21.6880 C   0  0  2  0  0  0  0  0  0  0  0  0
    9.7401  -15.4227   22.9559 N   0  0  0  0  0  0  0  0  0  0  0  0
   11.1330  -15.1512   22.6721 C   0  0  0  0  0  0  0  0  0  0  0  0
    9.5974  -16.6134   23.8462 O   0  0  0  0  0  0  0  0  0  0  0  0
    8.4622  -16.9838   24.2541 N   0  0  0  0  0  0  0  0  0  0  0  0
    8.1601  -11.1763   19.4121 C   0  0  0  0  0  0  0  0  0  0  0  0
   12.5846  -21.5956   25.5175 O   0  0  0  0  0  0  0  0  0  0  0  0
   11.3889  -20.8608   25.3379 C   0  0  0  0  0  0  0  0  0  0  0  0
   10.3645  -21.2148   25.9469 C   0  0  2  0  0  0  0  0  0  0  0  0
   11.3354  -19.6839   24.4424 N   0  0  0  0  0  0  0  0  0  0  0  0
   10.7089  -18.4798   25.1226 C   0  0  0  0  0  0  0  0  0  0  0  0
   10.7582  -17.3349   24.2361 O   0  0  0  0  0  0  0  0  0  0  0  0
   11.3760  -18.1919   26.4174 O   0  0  0  0  0  0  0  0  0  0  0  0
  2  1  1  0
  2  3  2  0
  4  2  1  0
  5  4  1  0
  6  5  1  0
  7  8  1  0
  7  6  1  0
  8  9  1  6
  8 10  1  0
 10 20  1  0
 11 10  2  0
 13 12  1  0
 14 13  2  0
 15 13  1  0
 16 15  1  0
 17 16  1  0
 18 17  1  0
 19 18  1  6
 19 21  1  0
 20 19  1  0
 21 28  1  0
 21 22  2  0
 23 24  1  0
 24 25  2  0
 26 24  1  0
 27 26  1  1
 27 29  1  0
 28 27  1  0
 29 30  2  0
 29 31  1  0
M  END
$$$$
