RRN.pdb
     RDKit          3D

 31 30  0  0  1  0  0  0  0  0999 V2000
    5.0898  -22.7522   17.2145 N   0  0  0  0  0  0  0  0  0  0  0  0
    6.2323  -21.8874   17.0467 C   0  0  0  0  0  0  0  0  0  0  0  0
    7.3274  -22.4669   16.7157 N   0  0  0  0  0  0  0  0  0  0  0  0
    6.1059  -20.4860   17.2463 N   0  0  0  0  0  0  0  0  0  0  0  0
    7.2631  -19.7427   17.7705 C   0  0  0  0  0  0  0  0  0  0  0  0
    7.3500  -19.9600   19.2370 C   0  0  0  0  0  0  0  0  0  0  0  0
    8.4992  -19.3561   19.9468 C   0  0  0  0  0  0  0  0  0  0  0  0
    8.9769  -18.0409   19.4334 C   0  0  2  0  0  0  0  0  0  0  0  0
   10.0874  -18.1760   18.5100 N   0  0  0  0  0  0  0  0  0  0  0  0
    9.3783  -17.1076   20.5017 C   0  0  0  0  0  0  0  0  0  0  0  0
   10.5709  -17.0984   20.8868 O   0  0  0  0  0  0  0  0  0  0  0  0
    8.1891  -21.9010   16.6131 N   0  0  0  0  0  0  0  0  0  0  0  0
    5.4226  -13.1483   26.5486 C   0  0  0  0  0  0  0  0  0  0  0  0
    6.5602  -12.2974   26.4590 N   0  0  0  0  0  0  0  0  0  0  0  0
    7.1936  -11.9572   27.5064 N   0  0  0  0  0  0  0  0  0  0  0  0
    7.0330  -11.7969   25.2035 C   0  0  0  0  0  0  0  0  0  0  0  0
    6.9496  -12.5778   24.0120 C   0  0  0  0  0  0  0  0  0  0  0  0
    7.9486  -13.7256   23.9479 C   0  0  0  0  0  0  0  0  0  0  0  0
    7.7780  -14.3815   22.6241 C   0  0  1  0  0  0  0  0  0  0  0  0
    8.7980  -15.4683   22.3527 N   0  0  0  0  0  0  0  0  0  0  0  0
    8.4970  -16.1997   21.1406 C   0  0  0  0  0  0  0  0  0  0  0  0
    8.9142  -16.3922   23.5205 O   0  0  0  0  0  0  0  0  0  0  0  0
    7.9380  -17.1061   23.8802 N   0  0  0  0  0  0  0  0  0  0  0  0
    8.0435  -11.3604   27.4345 C   0  0  0  0  0  0  0  0  0  0  0  0
   13.1235  -19.5449   26.5662 O   0  0  0  0  0  0  0  0  0  0  0  0
   11.8019  -19.1589   26.2406 C   0  0  0  0  0  0  0  0  0  0  0  0
   10.8607  -19.5791   26.9358 C   0  0  2  0  0  0  0  0  0  0  0  0
   11.5203  -18.2682   25.0930 N   0  0  0  0  0  0  0  0  0  0  0  0
   10.3428  -17.3484   25.3625 C   0  0  0  0  0  0  0  0  0  0  0  0
   10.1424  -16.4643   24.2323 O   0  0  0  0  0  0  0  0  0  0  0  0
   10.5402  -16.5842   26.6201 O   0  0  0  0  0  0  0  0  0  0  0  0
  2  1  1  0
  2  3  2  0
  4  2  1  0
  5  4  1  0
  6  5  1  0
  7  8  1  0
  7  6  1  0
  8  9  1  6
  8 10  1  0
 10 20  1  0
 11 10  2  0
 13 12  1  0
 14 13  2  0
 15 13  1  0
 16 15  1  0
 17 16  1  0
 18 17  1  0
 19 18  1  6
 19 21  1  0
 20 19  1  0
 21 28  1  0
 21 22  2  0
 23 24  1  0
 24 25  2  0
 26 24  1  0
 27 26  1  1
 27 29  1  0
 28 27  1  0
 29 30  2  0
 29 31  1  0
M  END
$$$$
