RRN.pdb
     RDKit          3D

 31 30  0  0  1  0  0  0  0  0999 V2000
   11.2643  -24.4271   15.4254 N   0  0  0  0  0  0  0  0  0  0  0  0
    9.9126  -24.1579   15.8521 C   0  0  0  0  0  0  0  0  0  0  0  0
    9.3630  -25.0660   16.5717 N   0  0  0  0  0  0  0  0  0  0  0  0
    9.2693  -22.9483   15.4743 N   0  0  0  0  0  0  0  0  0  0  0  0
    9.8157  -21.6754   15.9718 C   0  0  0  0  0  0  0  0  0  0  0  0
   10.6945  -21.9520   17.1366 C   0  0  0  0  0  0  0  0  0  0  0  0
   11.3030  -20.7894   17.8202 C   0  0  0  0  0  0  0  0  0  0  0  0
   10.6791  -19.4627   17.5512 C   0  0  2  0  0  0  0  0  0  0  0  0
   11.2714  -18.7925   16.4093 N   0  0  0  0  0  0  0  0  0  0  0  0
   10.7373  -18.5453   18.7038 C   0  0  0  0  0  0  0  0  0  0  0  0
   11.8539  -18.1470   19.1102 O   0  0  0  0  0  0  0  0  0  0  0  0
    8.3811  -24.9437   16.8788 N   0  0  0  0  0  0  0  0  0  0  0  0
    5.9631  -12.7968   18.8708 C   0  0  0  0  0  0  0  0  0  0  0  0
    6.8484  -12.9361   19.9769 N   0  0  0  0  0  0  0  0  0  0  0  0
    7.4033  -11.9150   20.4898 N   0  0  0  0  0  0  0  0  0  0  0  0
    7.1460  -14.2138   20.5507 C   0  0  0  0  0  0  0  0  0  0  0  0
    8.0180  -14.3406   21.6733 C   0  0  0  0  0  0  0  0  0  0  0  0
    8.2703  -15.7785   22.1071 C   0  0  0  0  0  0  0  0  0  0  0  0
    8.2842  -16.6118   20.8754 C   0  0  1  0  0  0  0  0  0  0  0  0
    9.6428  -17.2046   20.5625 N   0  0  0  0  0  0  0  0  0  0  0  0
    9.5996  -18.0693   19.4028 C   0  0  0  0  0  0  0  0  0  0  0  0
   10.1941  -17.9264   21.7482 O   0  0  0  0  0  0  0  0  0  0  0  0
    9.9116  -19.1384   21.9565 N   0  0  0  0  0  0  0  0  0  0  0  0
    8.1527  -12.0284   21.2033 C   0  0  0  0  0  0  0  0  0  0  0  0
   15.1997  -19.0762   23.5299 O   0  0  0  0  0  0  0  0  0  0  0  0
   14.5062  -17.9078   23.9243 C   0  0  0  0  0  0  0  0  0  0  0  0
   14.8074  -17.3597   24.9987 C   0  0  1  0  0  0  0  0  0  0  0  0
   13.4336  -17.3287   23.0853 N   0  0  0  0  0  0  0  0  0  0  0  0
   12.0704  -17.9016   23.4295 C   0  0  0  0  0  0  0  0  0  0  0  0
   11.0470  -17.2346   22.6504 O   0  0  0  0  0  0  0  0  0  0  0  0
   11.7992  -17.7944   24.8854 O   0  0  0  0  0  0  0  0  0  0  0  0
  2  1  1  0
  2  3  2  0
  4  2  1  0
  5  4  1  0
  6  5  1  0
  7  8  1  0
  7  6  1  0
  8  9  1  6
  8 10  1  0
 10 20  1  0
 11 10  2  0
 13 12  1  0
 14 13  2  0
 15 13  1  0
 16 15  1  0
 17 16  1  0
 18 17  1  0
 19 18  1  6
 19 21  1  0
 20 19  1  0
 21 28  1  0
 21 22  2  0
 23 24  1  0
 24 25  2  0
 26 24  1  0
 27 26  1  1
 27 29  1  0
 28 27  1  0
 29 30  2  0
 29 31  1  0
M  END
$$$$
