RRN.pdb
     RDKit          3D

 31 30  0  0  1  0  0  0  0  0999 V2000
    8.2008  -12.7600   12.6253 N   0  0  0  0  0  0  0  0  0  0  0  0
    7.4294  -13.3599   13.6866 C   0  0  0  0  0  0  0  0  0  0  0  0
    6.1900  -13.0330   13.7294 N   0  0  0  0  0  0  0  0  0  0  0  0
    8.0462  -14.2519   14.6051 N   0  0  0  0  0  0  0  0  0  0  0  0
    8.6717  -13.6944   15.8152 C   0  0  0  0  0  0  0  0  0  0  0  0
    7.6057  -13.3262   16.7815 C   0  0  0  0  0  0  0  0  0  0  0  0
    7.9491  -13.3662   18.2201 C   0  0  0  0  0  0  0  0  0  0  0  0
    8.0953  -14.7193   18.8280 C   0  0  2  0  0  0  0  0  0  0  0  0
    6.8178  -15.3721   19.0424 N   0  0  0  0  0  0  0  0  0  0  0  0
    8.8266  -14.7087   20.1081 C   0  0  0  0  0  0  0  0  0  0  0  0
    9.9830  -14.2272   20.1456 O   0  0  0  0  0  0  0  0  0  0  0  0
    5.5915  -13.4137   14.4846 N   0  0  0  0  0  0  0  0  0  0  0  0
    9.7383  -16.6555   28.3446 C   0  0  0  0  0  0  0  0  0  0  0  0
    9.6064  -17.8534   27.5870 N   0  0  0  0  0  0  0  0  0  0  0  0
   10.4144  -18.8179   27.7620 N   0  0  0  0  0  0  0  0  0  0  0  0
    8.5723  -18.0204   26.6107 C   0  0  0  0  0  0  0  0  0  0  0  0
    8.0435  -16.9086   25.8890 C   0  0  0  0  0  0  0  0  0  0  0  0
    9.0128  -16.2998   24.8843 C   0  0  0  0  0  0  0  0  0  0  0  0
    8.2482  -16.0512   23.6332 C   0  0  2  0  0  0  0  0  0  0  0  0
    9.0983  -15.5056   22.5042 N   0  0  0  0  0  0  0  0  0  0  0  0
    8.3086  -15.2139   21.3270 C   0  0  0  0  0  0  0  0  0  0  0  0
   10.2165  -16.4413   22.1802 O   0  0  0  0  0  0  0  0  0  0  0  0
   10.1639  -17.1839   21.1615 N   0  0  0  0  0  0  0  0  0  0  0  0
   10.3130  -19.6937   27.2086 C   0  0  0  0  0  0  0  0  0  0  0  0
   14.1027  -16.4590   20.1300 O   0  0  0  0  0  0  0  0  0  0  0  0
   13.5726  -15.2036   20.5100 C   0  0  0  0  0  0  0  0  0  0  0  0
   13.7343  -14.2265   19.7585 C   0  0  2  0  0  0  0  0  0  0  0  0
   12.8324  -15.0326   21.7800 N   0  0  0  0  0  0  0  0  0  0  0  0
   12.7073  -16.3377   22.5455 C   0  0  0  0  0  0  0  0  0  0  0  0
   11.3519  -16.4920   23.0337 O   0  0  0  0  0  0  0  0  0  0  0  0
   13.6933  -16.4025   23.6537 O   0  0  0  0  0  0  0  0  0  0  0  0
  2  1  1  0
  2  3  2  0
  4  2  1  0
  5  4  1  0
  6  5  1  0
  7  8  1  0
  7  6  1  0
  8  9  1  1
  8 10  1  0
 10 20  1  0
 11 10  2  0
 13 12  1  0
 14 13  2  0
 15 13  1  0
 16 15  1  0
 17 16  1  0
 18 17  1  0
 19 18  1  1
 19 21  1  0
 20 19  1  0
 21 28  1  0
 21 22  2  0
 23 24  1  0
 24 25  2  0
 26 24  1  0
 27 26  1  1
 27 29  1  0
 28 27  1  0
 29 30  2  0
 29 31  1  0
M  END
$$$$
