RRN.pdb
     RDKit          3D

 31 30  0  0  1  0  0  0  0  0999 V2000
    8.3766  -11.9194   16.8069 N   0  0  0  0  0  0  0  0  0  0  0  0
    8.4570  -13.3587   16.7506 C   0  0  0  0  0  0  0  0  0  0  0  0
    8.3648  -13.8777   15.5815 N   0  0  0  0  0  0  0  0  0  0  0  0
    8.6278  -14.1143   17.9421 N   0  0  0  0  0  0  0  0  0  0  0  0
    7.4546  -14.7870   18.5230 C   0  0  0  0  0  0  0  0  0  0  0  0
    6.8323  -13.8868   19.5270 C   0  0  0  0  0  0  0  0  0  0  0  0
    6.6092  -14.4331   20.8839 C   0  0  0  0  0  0  0  0  0  0  0  0
    7.6665  -15.3400   21.4140 C   0  0  2  0  0  0  0  0  0  0  0  0
    7.8317  -16.5323   20.6045 N   0  0  0  0  0  0  0  0  0  0  0  0
    7.4314  -15.7597   22.8076 C   0  0  0  0  0  0  0  0  0  0  0  0
    7.1619  -14.8901   23.6689 O   0  0  0  0  0  0  0  0  0  0  0  0
    8.4346  -14.9061   15.4768 N   0  0  0  0  0  0  0  0  0  0  0  0
    7.0490  -22.2916   28.5102 C   0  0  0  0  0  0  0  0  0  0  0  0
    7.7724  -22.4963   27.3014 N   0  0  0  0  0  0  0  0  0  0  0  0
    8.7506  -23.3060   27.2660 N   0  0  0  0  0  0  0  0  0  0  0  0
    7.4329  -21.8097   26.0916 C   0  0  0  0  0  0  0  0  0  0  0  0
    6.3074  -20.9351   26.0230 C   0  0  0  0  0  0  0  0  0  0  0  0
    6.6614  -19.4561   26.1047 C   0  0  0  0  0  0  0  0  0  0  0  0
    6.8360  -18.9697   24.7102 C   0  0  1  0  0  0  0  0  0  0  0  0
    7.2902  -17.5268   24.6262 N   0  0  0  0  0  0  0  0  0  0  0  0
    7.4888  -17.1029   23.2568 C   0  0  0  0  0  0  0  0  0  0  0  0
    8.5249  -17.3098   25.4381 O   0  0  0  0  0  0  0  0  0  0  0  0
    9.6591  -17.6341   24.9900 N   0  0  0  0  0  0  0  0  0  0  0  0
    9.2693  -23.4631   26.3772 C   0  0  0  0  0  0  0  0  0  0  0  0
   11.5641  -15.7226   29.3767 O   0  0  0  0  0  0  0  0  0  0  0  0
   10.4048  -14.9126   29.3364 C   0  0  0  0  0  0  0  0  0  0  0  0
   10.3358  -13.9185   30.0797 C   0  0  2  0  0  0  0  0  0  0  0  0
    9.2778  -15.2254   28.4298 N   0  0  0  0  0  0  0  0  0  0  0  0
    9.5680  -16.4338   27.5577 C   0  0  0  0  0  0  0  0  0  0  0  0
    8.4155  -16.7304   26.7314 O   0  0  0  0  0  0  0  0  0  0  0  0
    9.9595  -17.6048   28.3824 O   0  0  0  0  0  0  0  0  0  0  0  0
  2  1  1  0
  2  3  2  0
  4  2  1  0
  5  4  1  0
  6  5  1  0
  7  8  1  0
  7  6  1  0
  8  9  1  6
  8 10  1  0
 10 20  1  0
 11 10  2  0
 13 12  1  0
 14 13  2  0
 15 13  1  0
 16 15  1  0
 17 16  1  0
 18 17  1  0
 19 18  1  6
 19 21  1  0
 20 19  1  0
 21 28  1  0
 21 22  2  0
 23 24  1  0
 24 25  2  0
 26 24  1  0
 27 26  1  1
 27 29  1  0
 28 27  1  0
 29 30  2  0
 29 31  1  0
M  END
$$$$
