RRN.pdb
     RDKit          3D

 31 30  0  0  1  0  0  0  0  0999 V2000
    6.8375  -13.7293   14.8608 N   0  0  0  0  0  0  0  0  0  0  0  0
    6.9438  -13.7708   16.2989 C   0  0  0  0  0  0  0  0  0  0  0  0
    6.7815  -12.6513   16.9033 N   0  0  0  0  0  0  0  0  0  0  0  0
    7.2133  -14.9982   16.9627 N   0  0  0  0  0  0  0  0  0  0  0  0
    8.2025  -15.0066   18.0525 C   0  0  0  0  0  0  0  0  0  0  0  0
    9.4562  -14.3744   17.5687 C   0  0  0  0  0  0  0  0  0  0  0  0
   10.6639  -15.2263   17.4989 C   0  0  0  0  0  0  0  0  0  0  0  0
   10.7734  -16.3040   18.5227 C   0  0  2  0  0  0  0  0  0  0  0  0
    9.5272  -17.0231   18.7066 N   0  0  0  0  0  0  0  0  0  0  0  0
   11.2207  -15.8153   19.8398 C   0  0  0  0  0  0  0  0  0  0  0  0
   12.2110  -15.0497   19.9018 O   0  0  0  0  0  0  0  0  0  0  0  0
    7.1095  -12.5512   17.8809 N   0  0  0  0  0  0  0  0  0  0  0  0
    7.9905  -19.8919   26.2648 C   0  0  0  0  0  0  0  0  0  0  0  0
    8.9462  -18.9127   26.6576 N   0  0  0  0  0  0  0  0  0  0  0  0
    9.1905  -18.7088   27.8874 N   0  0  0  0  0  0  0  0  0  0  0  0
    9.6630  -18.1283   25.6978 C   0  0  0  0  0  0  0  0  0  0  0  0
    9.7961  -16.7148   25.8421 C   0  0  0  0  0  0  0  0  0  0  0  0
   10.7571  -16.0747   24.8491 C   0  0  0  0  0  0  0  0  0  0  0  0
   10.2825  -16.4340   23.4862 C   0  0  2  0  0  0  0  0  0  0  0  0
   11.1565  -15.8839   22.3778 N   0  0  0  0  0  0  0  0  0  0  0  0
   10.6012  -16.1540   21.0689 C   0  0  0  0  0  0  0  0  0  0  0  0
   12.5495  -16.4114   22.4874 O   0  0  0  0  0  0  0  0  0  0  0  0
   12.7747  -17.6528   22.4663 N   0  0  0  0  0  0  0  0  0  0  0  0
    9.8125  -17.9254   28.1755 C   0  0  0  0  0  0  0  0  0  0  0  0
   14.9763  -13.7676   19.9368 O   0  0  0  0  0  0  0  0  0  0  0  0
   15.5565  -14.9221   20.5130 C   0  0  0  0  0  0  0  0  0  0  0  0
   15.7754  -15.9121   19.7935 C   0  0  1  0  0  0  0  0  0  0  0  0
   15.9059  -14.9732   21.9501 N   0  0  0  0  0  0  0  0  0  0  0  0
   15.0116  -15.9290   22.7192 C   0  0  0  0  0  0  0  0  0  0  0  0
   13.6318  -15.4991   22.6172 O   0  0  0  0  0  0  0  0  0  0  0  0
   15.4419  -16.0383   24.1361 O   0  0  0  0  0  0  0  0  0  0  0  0
  2  1  1  0
  2  3  2  0
  4  2  1  0
  5  4  1  0
  6  5  1  0
  7  8  1  0
  7  6  1  0
  8  9  1  1
  8 10  1  0
 10 20  1  0
 11 10  2  0
 13 12  1  0
 14 13  2  0
 15 13  1  0
 16 15  1  0
 17 16  1  0
 18 17  1  0
 19 18  1  1
 19 21  1  0
 20 19  1  0
 21 28  1  0
 21 22  2  0
 23 24  1  0
 24 25  2  0
 26 24  1  0
 27 26  1  1
 27 29  1  0
 28 27  1  0
 29 30  2  0
 29 31  1  0
M  END
$$$$
