RRN.pdb
     RDKit          3D

 31 30  0  0  1  0  0  0  0  0999 V2000
    8.7522  -14.6695   13.2076 N   0  0  0  0  0  0  0  0  0  0  0  0
    8.0632  -13.4192   13.4163 C   0  0  0  0  0  0  0  0  0  0  0  0
    8.0541  -12.6135   12.4186 N   0  0  0  0  0  0  0  0  0  0  0  0
    7.4476  -13.1400   14.6664 N   0  0  0  0  0  0  0  0  0  0  0  0
    7.2190  -14.2527   15.6023 C   0  0  0  0  0  0  0  0  0  0  0  0
    8.5106  -14.6214   16.2358 C   0  0  0  0  0  0  0  0  0  0  0  0
    8.6767  -14.3091   17.6724 C   0  0  0  0  0  0  0  0  0  0  0  0
    8.7139  -15.4732   18.6025 C   0  0  2  0  0  0  0  0  0  0  0  0
    7.4624  -16.2062   18.6242 N   0  0  0  0  0  0  0  0  0  0  0  0
    9.0538  -15.1030   19.9885 C   0  0  0  0  0  0  0  0  0  0  0  0
   10.0847  -14.4233   20.2027 O   0  0  0  0  0  0  0  0  0  0  0  0
    7.4823  -11.7510   12.4693 N   0  0  0  0  0  0  0  0  0  0  0  0
    9.8057  -18.9025   26.3385 C   0  0  0  0  0  0  0  0  0  0  0  0
    8.7690  -18.4215   27.1873 N   0  0  0  0  0  0  0  0  0  0  0  0
    8.5381  -18.9831   28.3031 N   0  0  0  0  0  0  0  0  0  0  0  0
    7.9551  -17.3003   26.8257 C   0  0  0  0  0  0  0  0  0  0  0  0
    7.5678  -17.0675   25.4721 C   0  0  0  0  0  0  0  0  0  0  0  0
    8.0935  -15.7624   24.8891 C   0  0  0  0  0  0  0  0  0  0  0  0
    7.6313  -15.6956   23.4771 C   0  0  1  0  0  0  0  0  0  0  0  0
    8.7380  -15.3731   22.4940 N   0  0  0  0  0  0  0  0  0  0  0  0
    8.2850  -15.4664   21.1227 C   0  0  0  0  0  0  0  0  0  0  0  0
    9.9267  -16.2471   22.7257 O   0  0  0  0  0  0  0  0  0  0  0  0
    9.8437  -17.4996   22.5966 N   0  0  0  0  0  0  0  0  0  0  0  0
    7.7853  -18.6231   28.9254 C   0  0  0  0  0  0  0  0  0  0  0  0
   13.7598  -13.6787   21.2533 O   0  0  0  0  0  0  0  0  0  0  0  0
   13.6332  -15.0524   21.5677 C   0  0  0  0  0  0  0  0  0  0  0  0
   13.5607  -15.8800   20.6428 C   0  0  1  0  0  0  0  0  0  0  0  0
   13.5854  -15.5201   22.9707 N   0  0  0  0  0  0  0  0  0  0  0  0
   12.3892  -16.4184   23.2304 C   0  0  0  0  0  0  0  0  0  0  0  0
   11.1648  -15.6556   23.0964 O   0  0  0  0  0  0  0  0  0  0  0  0
   12.4845  -17.0603   24.5658 O   0  0  0  0  0  0  0  0  0  0  0  0
  2  1  1  0
  2  3  2  0
  4  2  1  0
  5  4  1  0
  6  5  1  0
  7  8  1  0
  7  6  1  0
  8  9  1  1
  8 10  1  0
 10 20  1  0
 11 10  2  0
 13 12  1  0
 14 13  2  0
 15 13  1  0
 16 15  1  0
 17 16  1  0
 18 17  1  0
 19 18  1  1
 19 21  1  0
 20 19  1  0
 21 28  1  0
 21 22  2  0
 23 24  1  0
 24 25  2  0
 26 24  1  0
 27 26  1  1
 27 29  1  0
 28 27  1  0
 29 30  2  0
 29 31  1  0
M  END
$$$$
