RRN.pdb
     RDKit          3D

 31 30  0  0  1  0  0  0  0  0999 V2000
    7.6107  -15.7900   13.7199 N   0  0  0  0  0  0  0  0  0  0  0  0
    7.5540  -14.5023   14.3680 C   0  0  0  0  0  0  0  0  0  0  0  0
    7.2229  -13.5148   13.6197 N   0  0  0  0  0  0  0  0  0  0  0  0
    7.8547  -14.3824   15.7518 N   0  0  0  0  0  0  0  0  0  0  0  0
    7.6698  -13.0746   16.4013 C   0  0  0  0  0  0  0  0  0  0  0  0
    7.9877  -13.2061   17.8460 C   0  0  0  0  0  0  0  0  0  0  0  0
    9.4162  -13.1962   18.2313 C   0  0  0  0  0  0  0  0  0  0  0  0
   10.0136  -14.5135   18.5910 C   0  0  2  0  0  0  0  0  0  0  0  0
    9.0230  -15.5707   18.6634 N   0  0  0  0  0  0  0  0  0  0  0  0
   10.7550  -14.4904   19.8651 C   0  0  0  0  0  0  0  0  0  0  0  0
   11.7338  -13.7172   19.9870 O   0  0  0  0  0  0  0  0  0  0  0  0
    7.1358  -12.5703   14.0364 N   0  0  0  0  0  0  0  0  0  0  0  0
   11.7348  -20.9636   25.3313 C   0  0  0  0  0  0  0  0  0  0  0  0
   12.3698  -19.8708   25.9864 N   0  0  0  0  0  0  0  0  0  0  0  0
   13.4987  -20.0250   26.5481 N   0  0  0  0  0  0  0  0  0  0  0  0
   11.7728  -18.5703   26.0384 C   0  0  0  0  0  0  0  0  0  0  0  0
   10.9895  -18.0672   24.9568 C   0  0  0  0  0  0  0  0  0  0  0  0
   11.6710  -16.9681   24.1523 C   0  0  0  0  0  0  0  0  0  0  0  0
   10.7610  -16.6190   23.0290 C   0  0  1  0  0  0  0  0  0  0  0  0
   11.3485  -15.6053   22.0685 N   0  0  0  0  0  0  0  0  0  0  0  0
   10.4372  -15.2954   20.9878 C   0  0  0  0  0  0  0  0  0  0  0  0
   12.6651  -16.0734   21.5409 O   0  0  0  0  0  0  0  0  0  0  0  0
   12.7647  -17.1769   20.9372 N   0  0  0  0  0  0  0  0  0  0  0  0
   13.9424  -19.2341   27.0591 C   0  0  0  0  0  0  0  0  0  0  0  0
   14.5402  -13.8178   18.5307 O   0  0  0  0  0  0  0  0  0  0  0  0
   15.2729  -14.8828   19.1056 C   0  0  0  0  0  0  0  0  0  0  0  0
   15.4420  -15.9244   18.4483 C   0  0  1  0  0  0  0  0  0  0  0  0
   15.8390  -14.7805   20.4690 N   0  0  0  0  0  0  0  0  0  0  0  0
   15.1589  -15.7292   21.4399 C   0  0  0  0  0  0  0  0  0  0  0  0
   13.8174  -15.2617   21.7240 O   0  0  0  0  0  0  0  0  0  0  0  0
   15.9553  -15.8800   22.6840 O   0  0  0  0  0  0  0  0  0  0  0  0
  2  1  1  0
  2  3  2  0
  4  2  1  0
  5  4  1  0
  6  5  1  0
  7  8  1  0
  7  6  1  0
  8  9  1  1
  8 10  1  0
 10 20  1  0
 11 10  2  0
 13 12  1  0
 14 13  2  0
 15 13  1  0
 16 15  1  0
 17 16  1  0
 18 17  1  0
 19 18  1  1
 19 21  1  0
 20 19  1  0
 21 28  1  0
 21 22  2  0
 23 24  1  0
 24 25  2  0
 26 24  1  0
 27 26  1  1
 27 29  1  0
 28 27  1  0
 29 30  2  0
 29 31  1  0
M  END
$$$$
