PIC.pdb
     RDKit          3D

 22 22  0  0  1  0  0  0  0  0999 V2000
    8.4780  -14.8693   20.2524 N   0  0  0  0  0  0  0  0  0  0  0  0
    7.6345  -15.2931   19.1321 C   0  0  0  0  0  0  0  0  0  0  0  0
    7.0578  -16.5912   19.7115 C   0  0  0  0  0  0  0  0  0  0  0  0
    6.8965  -16.2937   21.1938 C   0  0  0  0  0  0  0  0  0  0  0  0
    7.5643  -14.9603   21.3530 C   0  0  1  0  0  0  0  0  0  0  0  0
    8.2656  -14.8451   22.6713 C   0  0  0  0  0  0  0  0  0  0  0  0
    9.4822  -15.1211   22.6955 O   0  0  0  0  0  0  0  0  0  0  0  0
    5.9356  -11.3938   26.1973 C   0  0  0  0  0  0  0  0  0  0  0  0
    6.9350  -12.2371   25.4094 C   0  0  0  0  0  0  0  0  0  0  0  0
    7.1251  -13.5872   26.0569 C   0  0  2  0  0  0  0  0  0  0  0  0
    7.7665  -13.4214   27.4336 C   0  0  0  0  0  0  0  0  0  0  0  0
    7.9563  -14.4745   25.1747 C   0  0  2  0  0  0  0  0  0  0  0  0
    7.5559  -14.4420   23.8085 N   0  0  0  0  0  0  0  0  0  0  0  0
    8.2769  -15.7874   25.7115 C   0  0  0  0  0  0  0  0  0  0  0  0
    7.4972  -16.7264   25.8977 O   0  0  0  0  0  0  0  0  0  0  0  0
    9.6547  -16.0297   26.0693 N   0  0  0  0  0  0  0  0  0  0  0  0
   10.1178  -17.3224   26.4941 C   0  0  1  0  0  0  0  0  0  0  0  0
   11.4338  -17.6853   25.8296 C   0  0  0  0  0  0  0  0  0  0  0  0
   11.2210  -17.6149   24.0323 S   0  0  0  0  0  0  0  0  0  0  0  0
   10.2489  -17.3699   27.9713 C   0  0  0  0  0  0  0  0  0  0  0  0
    9.9847  -16.2720   28.7715 O   0  0  0  0  0  0  0  0  0  0  0  0
   10.6120  -18.4428   28.5153 O   0  0  0  0  0  0  0  0  0  0  0  0
  1  2  1  0
  1  5  1  0
  3  2  1  0
  3  4  1  0
  4  5  1  0
  6 13  1  0
  5  6  1  1
  7  6  2  0
  8  9  1  0
  9 10  1  0
 10 12  1  0
 10 11  1  1
 12 13  1  6
 12 14  1  0
 14 16  1  0
 15 14  2  0
 16 17  1  0
 17 18  1  6
 17 20  1  0
 19 18  1  0
 20 22  2  0
 20 21  1  0
M  END
$$$$
