PIC.pdb
     RDKit          3D

 22 22  0  0  1  0  0  0  0  0999 V2000
    6.6823  -14.4346   20.9497 N   0  0  0  0  0  0  0  0  0  0  0  0
    6.3603  -13.9369   19.6100 C   0  0  0  0  0  0  0  0  0  0  0  0
    7.1107  -12.5991   19.6373 C   0  0  0  0  0  0  0  0  0  0  0  0
    8.3542  -12.8907   20.4622 C   0  0  0  0  0  0  0  0  0  0  0  0
    8.1064  -14.2752   20.9829 C   0  0  1  0  0  0  0  0  0  0  0  0
    8.6558  -14.4548   22.3645 C   0  0  0  0  0  0  0  0  0  0  0  0
    9.8970  -14.5087   22.4816 O   0  0  0  0  0  0  0  0  0  0  0  0
    6.0344  -11.6417   25.9431 C   0  0  0  0  0  0  0  0  0  0  0  0
    7.0832  -12.4397   25.1726 C   0  0  0  0  0  0  0  0  0  0  0  0
    7.1974  -13.8422   25.7187 C   0  0  2  0  0  0  0  0  0  0  0  0
    7.7150  -13.8035   27.1557 C   0  0  0  0  0  0  0  0  0  0  0  0
    8.0931  -14.6702   24.8419 C   0  0  2  0  0  0  0  0  0  0  0  0
    7.7854  -14.5545   23.4562 N   0  0  0  0  0  0  0  0  0  0  0  0
    8.3868  -16.0127   25.3172 C   0  0  0  0  0  0  0  0  0  0  0  0
    7.5833  -16.9342   25.4890 O   0  0  0  0  0  0  0  0  0  0  0  0
    9.7657  -16.3111   25.6248 N   0  0  0  0  0  0  0  0  0  0  0  0
   10.1987  -17.6325   25.9885 C   0  0  1  0  0  0  0  0  0  0  0  0
   11.4176  -18.0560   25.1885 C   0  0  0  0  0  0  0  0  0  0  0  0
   12.0050  -19.6501   25.8165 S   0  0  0  0  0  0  0  0  0  0  0  0
   10.4782  -17.7077   27.4439 C   0  0  0  0  0  0  0  0  0  0  0  0
   11.0571  -16.6605   28.1394 O   0  0  0  0  0  0  0  0  0  0  0  0
   10.1796  -18.7572   28.0669 O   0  0  0  0  0  0  0  0  0  0  0  0
  1  2  1  0
  1  5  1  0
  3  2  1  0
  3  4  1  0
  4  5  1  0
  6 13  1  0
  5  6  1  1
  7  6  2  0
  8  9  1  0
  9 10  1  0
 10 12  1  0
 10 11  1  1
 12 13  1  6
 12 14  1  0
 14 16  1  0
 15 14  2  0
 16 17  1  0
 17 18  1  6
 17 20  1  0
 19 18  1  0
 20 22  2  0
 20 21  1  0
M  END
$$$$
