PIC.pdb
     RDKit          3D

 22 22  0  0  1  0  0  0  0  0999 V2000
    6.8012  -14.6223   20.8623 N   0  0  0  0  0  0  0  0  0  0  0  0
    6.4988  -14.2221   19.4859 C   0  0  0  0  0  0  0  0  0  0  0  0
    7.1399  -12.8286   19.4686 C   0  0  0  0  0  0  0  0  0  0  0  0
    8.3660  -12.9757   20.3556 C   0  0  0  0  0  0  0  0  0  0  0  0
    8.2056  -14.3469   20.9417 C   0  0  1  0  0  0  0  0  0  0  0  0
    8.7077  -14.4098   22.3513 C   0  0  0  0  0  0  0  0  0  0  0  0
    9.9401  -14.3146   22.5220 O   0  0  0  0  0  0  0  0  0  0  0  0
    5.9131  -11.5956   25.6982 C   0  0  0  0  0  0  0  0  0  0  0  0
    6.9958  -12.4095   24.9939 C   0  0  0  0  0  0  0  0  0  0  0  0
    7.1316  -13.7761   25.6203 C   0  0  2  0  0  0  0  0  0  0  0  0
    7.6194  -13.6445   27.0621 C   0  0  0  0  0  0  0  0  0  0  0  0
    8.0634  -14.6299   24.8083 C   0  0  2  0  0  0  0  0  0  0  0  0
    7.8050  -14.5694   23.4092 N   0  0  0  0  0  0  0  0  0  0  0  0
    8.3485  -15.9509   25.3449 C   0  0  0  0  0  0  0  0  0  0  0  0
    7.5384  -16.8566   25.5636 O   0  0  0  0  0  0  0  0  0  0  0  0
    9.7265  -16.2461   25.6600 N   0  0  0  0  0  0  0  0  0  0  0  0
   10.1550  -17.5592   26.0576 C   0  0  1  0  0  0  0  0  0  0  0  0
   11.3793  -18.0025   25.2768 C   0  0  0  0  0  0  0  0  0  0  0  0
   12.6300  -16.6948   25.3574 S   0  0  0  0  0  0  0  0  0  0  0  0
   10.4233  -17.6008   27.5163 C   0  0  0  0  0  0  0  0  0  0  0  0
   10.7288  -18.7778   28.1773 O   0  0  0  0  0  0  0  0  0  0  0  0
   10.3718  -16.5319   28.1748 O   0  0  0  0  0  0  0  0  0  0  0  0
  1  2  1  0
  1  5  1  0
  3  2  1  0
  3  4  1  0
  4  5  1  0
  6 13  1  0
  5  6  1  1
  7  6  2  0
  8  9  1  0
  9 10  1  0
 10 12  1  0
 10 11  1  1
 12 13  1  6
 12 14  1  0
 14 16  1  0
 15 14  2  0
 16 17  1  0
 17 18  1  6
 17 20  1  0
 19 18  1  0
 20 22  2  0
 20 21  1  0
M  END
$$$$
