PIC.pdb
     RDKit          3D

 22 22  0  0  1  0  0  0  0  0999 V2000
    6.9643  -14.6815   20.8821 N   0  0  0  0  0  0  0  0  0  0  0  0
    6.7065  -14.3415   19.4806 C   0  0  0  0  0  0  0  0  0  0  0  0
    7.2801  -12.9191   19.4437 C   0  0  0  0  0  0  0  0  0  0  0  0
    8.4698  -12.9767   20.3888 C   0  0  0  0  0  0  0  0  0  0  0  0
    8.3487  -14.3346   21.0141 C   0  0  1  0  0  0  0  0  0  0  0  0
    8.7880  -14.3270   22.4459 C   0  0  0  0  0  0  0  0  0  0  0  0
   10.0074  -14.1814   22.6670 O   0  0  0  0  0  0  0  0  0  0  0  0
    5.9399  -11.4493   25.6813 C   0  0  0  0  0  0  0  0  0  0  0  0
    7.0137  -12.2978   25.0050 C   0  0  0  0  0  0  0  0  0  0  0  0
    7.1044  -13.6602   25.6485 C   0  0  2  0  0  0  0  0  0  0  0  0
    7.5460  -13.5226   27.1046 C   0  0  0  0  0  0  0  0  0  0  0  0
    8.0477  -14.5381   24.8764 C   0  0  2  0  0  0  0  0  0  0  0  0
    7.8441  -14.4794   23.4682 N   0  0  0  0  0  0  0  0  0  0  0  0
    8.2833  -15.8622   25.4294 C   0  0  0  0  0  0  0  0  0  0  0  0
    7.4491  -16.7554   25.6043 O   0  0  0  0  0  0  0  0  0  0  0  0
    9.6374  -16.1771   25.8197 N   0  0  0  0  0  0  0  0  0  0  0  0
   10.0146  -17.4843   26.2832 C   0  0  1  0  0  0  0  0  0  0  0  0
   11.3094  -17.9480   25.6401 C   0  0  0  0  0  0  0  0  0  0  0  0
   11.1894  -17.7139   23.8481 S   0  0  0  0  0  0  0  0  0  0  0  0
   10.1322  -17.4994   27.7623 C   0  0  0  0  0  0  0  0  0  0  0  0
   10.3265  -18.6695   28.4755 O   0  0  0  0  0  0  0  0  0  0  0  0
   10.0530  -16.4136   28.3896 O   0  0  0  0  0  0  0  0  0  0  0  0
  1  2  1  0
  1  5  1  0
  3  2  1  0
  3  4  1  0
  4  5  1  0
  6 13  1  0
  5  6  1  1
  7  6  2  0
  8  9  1  0
  9 10  1  0
 10 12  1  0
 10 11  1  1
 12 13  1  6
 12 14  1  0
 14 16  1  0
 15 14  2  0
 16 17  1  0
 17 18  1  6
 17 20  1  0
 19 18  1  0
 20 22  2  0
 20 21  1  0
M  END
$$$$
