PIC.pdb
     RDKit          3D

 22 22  0  0  1  0  0  0  0  0999 V2000
    6.7828  -14.5298   20.8240 N   0  0  0  0  0  0  0  0  0  0  0  0
    6.5134  -14.1295   19.4407 C   0  0  0  0  0  0  0  0  0  0  0  0
    7.1788  -12.7473   19.4310 C   0  0  0  0  0  0  0  0  0  0  0  0
    8.3851  -12.9123   20.3416 C   0  0  0  0  0  0  0  0  0  0  0  0
    8.1900  -14.2785   20.9290 C   0  0  1  0  0  0  0  0  0  0  0  0
    8.6642  -14.3450   22.3481 C   0  0  0  0  0  0  0  0  0  0  0  0
    9.8954  -14.2823   22.5409 O   0  0  0  0  0  0  0  0  0  0  0  0
    6.0082  -11.4652   25.8031 C   0  0  0  0  0  0  0  0  0  0  0  0
    7.0488  -12.3136   25.0765 C   0  0  0  0  0  0  0  0  0  0  0  0
    7.0624  -13.7232   25.6159 C   0  0  2  0  0  0  0  0  0  0  0  0
    7.4887  -13.7178   27.0830 C   0  0  0  0  0  0  0  0  0  0  0  0
    7.9724  -14.5872   24.7900 C   0  0  2  0  0  0  0  0  0  0  0  0
    7.7382  -14.4721   23.3901 N   0  0  0  0  0  0  0  0  0  0  0  0
    8.1971  -15.9349   25.2876 C   0  0  0  0  0  0  0  0  0  0  0  0
    7.3508  -16.8186   25.4523 O   0  0  0  0  0  0  0  0  0  0  0  0
    9.5547  -16.2886   25.6295 N   0  0  0  0  0  0  0  0  0  0  0  0
    9.9262  -17.6279   25.9959 C   0  0  1  0  0  0  0  0  0  0  0  0
   11.0032  -18.1754   25.0764 C   0  0  0  0  0  0  0  0  0  0  0  0
   12.3492  -16.9682   24.9678 S   0  0  0  0  0  0  0  0  0  0  0  0
   10.3734  -17.6768   27.4099 C   0  0  0  0  0  0  0  0  0  0  0  0
   10.6541  -18.8689   28.0545 O   0  0  0  0  0  0  0  0  0  0  0  0
   10.5019  -16.5999   28.0445 O   0  0  0  0  0  0  0  0  0  0  0  0
  1  2  1  0
  1  5  1  0
  3  2  1  0
  3  4  1  0
  4  5  1  0
  6 13  1  0
  5  6  1  1
  7  6  2  0
  8  9  1  0
  9 10  1  0
 10 12  1  0
 10 11  1  1
 12 13  1  6
 12 14  1  0
 14 16  1  0
 15 14  2  0
 16 17  1  0
 17 18  1  6
 17 20  1  0
 19 18  1  0
 20 22  2  0
 20 21  1  0
M  END
$$$$
