PIC.pdb
     RDKit          3D

 22 22  0  0  1  0  0  0  0  0999 V2000
    7.9120  -16.7985   20.8877 N   0  0  0  0  0  0  0  0  0  0  0  0
    7.7180  -18.1127   20.2700 C   0  0  0  0  0  0  0  0  0  0  0  0
    9.0035  -18.8130   20.7289 C   0  0  0  0  0  0  0  0  0  0  0  0
    9.2565  -18.2467   22.1171 C   0  0  0  0  0  0  0  0  0  0  0  0
    8.2321  -17.1578   22.2378 C   0  0  1  0  0  0  0  0  0  0  0  0
    8.7533  -15.9900   23.0173 C   0  0  0  0  0  0  0  0  0  0  0  0
    9.9202  -15.6193   22.7766 O   0  0  0  0  0  0  0  0  0  0  0  0
    6.0958  -11.5124   26.4282 C   0  0  0  0  0  0  0  0  0  0  0  0
    7.2914  -12.0817   25.6686 C   0  0  0  0  0  0  0  0  0  0  0  0
    6.9387  -13.4007   25.0249 C   0  0  2  0  0  0  0  0  0  0  0  0
    5.9995  -14.1918   25.9340 C   0  0  0  0  0  0  0  0  0  0  0  0
    8.1859  -14.1816   24.7225 C   0  0  2  0  0  0  0  0  0  0  0  0
    7.9390  -15.3640   23.9684 N   0  0  0  0  0  0  0  0  0  0  0  0
    9.1371  -14.3118   25.8147 C   0  0  0  0  0  0  0  0  0  0  0  0
    9.6338  -13.3998   26.4823 O   0  0  0  0  0  0  0  0  0  0  0  0
    9.5527  -15.6497   26.1647 N   0  0  0  0  0  0  0  0  0  0  0  0
   10.3882  -15.9170   27.3032 C   0  0  1  0  0  0  0  0  0  0  0  0
    9.6811  -15.5735   28.6021 C   0  0  0  0  0  0  0  0  0  0  0  0
    9.8888  -13.8046   28.9316 S   0  0  0  0  0  0  0  0  0  0  0  0
   10.8267  -17.3345   27.3071 C   0  0  0  0  0  0  0  0  0  0  0  0
   10.4488  -18.2268   26.3190 O   0  0  0  0  0  0  0  0  0  0  0  0
   11.5663  -17.7395   28.2387 O   0  0  0  0  0  0  0  0  0  0  0  0
  1  2  1  0
  1  5  1  0
  3  2  1  0
  3  4  1  0
  4  5  1  0
  6 13  1  0
  5  6  1  1
  7  6  2  0
  8  9  1  0
  9 10  1  0
 10 12  1  0
 10 11  1  1
 12 13  1  1
 12 14  1  0
 14 16  1  0
 15 14  2  0
 16 17  1  0
 17 18  1  1
 17 20  1  0
 19 18  1  0
 20 22  2  0
 20 21  1  0
M  END
$$$$
