PIC.pdb
     RDKit          3D

 22 22  0  0  1  0  0  0  0  0999 V2000
    6.7172  -14.4940   20.9879 N   0  0  0  0  0  0  0  0  0  0  0  0
    6.3580  -14.0382   19.6428 C   0  0  0  0  0  0  0  0  0  0  0  0
    7.0099  -12.6495   19.6512 C   0  0  0  0  0  0  0  0  0  0  0  0
    8.2724  -12.8398   20.4767 C   0  0  0  0  0  0  0  0  0  0  0  0
    8.1261  -14.2318   21.0156 C   0  0  1  0  0  0  0  0  0  0  0  0
    8.6892  -14.3533   22.3981 C   0  0  0  0  0  0  0  0  0  0  0  0
    9.9320  -14.3540   22.5091 O   0  0  0  0  0  0  0  0  0  0  0  0
    6.2127  -11.5582   26.1193 C   0  0  0  0  0  0  0  0  0  0  0  0
    7.2158  -12.3661   25.2998 C   0  0  0  0  0  0  0  0  0  0  0  0
    7.2751  -13.7950   25.7826 C   0  0  2  0  0  0  0  0  0  0  0  0
    7.7801  -13.8396   27.2238 C   0  0  0  0  0  0  0  0  0  0  0  0
    8.1492  -14.6141   24.8761 C   0  0  2  0  0  0  0  0  0  0  0  0
    7.8289  -14.4598   23.4972 N   0  0  0  0  0  0  0  0  0  0  0  0
    8.4279  -15.9720   25.3153 C   0  0  0  0  0  0  0  0  0  0  0  0
    7.6126  -16.8856   25.4735 O   0  0  0  0  0  0  0  0  0  0  0  0
    9.8054  -16.2981   25.6003 N   0  0  0  0  0  0  0  0  0  0  0  0
   10.2148  -17.6236   25.9764 C   0  0  1  0  0  0  0  0  0  0  0  0
   11.5100  -18.0191   25.2900 C   0  0  0  0  0  0  0  0  0  0  0  0
   12.0594  -19.6134   25.9509 S   0  0  0  0  0  0  0  0  0  0  0  0
   10.3524  -17.7285   27.4501 C   0  0  0  0  0  0  0  0  0  0  0  0
   10.1263  -18.9126   28.1301 O   0  0  0  0  0  0  0  0  0  0  0  0
   10.6854  -16.7084   28.1038 O   0  0  0  0  0  0  0  0  0  0  0  0
  1  2  1  0
  1  5  1  0
  3  2  1  0
  3  4  1  0
  4  5  1  0
  6 13  1  0
  5  6  1  1
  7  6  2  0
  8  9  1  0
  9 10  1  0
 10 12  1  0
 10 11  1  1
 12 13  1  6
 12 14  1  0
 14 16  1  0
 15 14  2  0
 16 17  1  0
 17 18  1  6
 17 20  1  0
 19 18  1  0
 20 22  2  0
 20 21  1  0
M  END
$$$$
