PIC.pdb
     RDKit          3D

 22 22  0  0  1  0  0  0  0  0999 V2000
    6.8958  -14.6085   20.9022 N   0  0  0  0  0  0  0  0  0  0  0  0
    6.5843  -14.2022   19.5296 C   0  0  0  0  0  0  0  0  0  0  0  0
    7.1588  -12.7798   19.5379 C   0  0  0  0  0  0  0  0  0  0  0  0
    8.3843  -12.8823   20.4320 C   0  0  0  0  0  0  0  0  0  0  0  0
    8.2850  -14.2684   20.9963 C   0  0  1  0  0  0  0  0  0  0  0  0
    8.7798  -14.3289   22.4086 C   0  0  0  0  0  0  0  0  0  0  0  0
   10.0063  -14.1874   22.5892 O   0  0  0  0  0  0  0  0  0  0  0  0
    5.9721  -11.5807   25.7780 C   0  0  0  0  0  0  0  0  0  0  0  0
    7.0336  -12.3972   25.0452 C   0  0  0  0  0  0  0  0  0  0  0  0
    7.1855  -13.7627   25.6702 C   0  0  2  0  0  0  0  0  0  0  0  0
    7.6705  -13.6268   27.1126 C   0  0  0  0  0  0  0  0  0  0  0  0
    8.1283  -14.6042   24.8581 C   0  0  2  0  0  0  0  0  0  0  0  0
    7.8771  -14.5370   23.4580 N   0  0  0  0  0  0  0  0  0  0  0  0
    8.4207  -15.9264   25.3882 C   0  0  0  0  0  0  0  0  0  0  0  0
    7.6140  -16.8336   25.6129 O   0  0  0  0  0  0  0  0  0  0  0  0
    9.8022  -16.2207   25.6878 N   0  0  0  0  0  0  0  0  0  0  0  0
   10.2186  -17.5001   26.1935 C   0  0  1  0  0  0  0  0  0  0  0  0
   11.5697  -17.9049   25.6316 C   0  0  0  0  0  0  0  0  0  0  0  0
   11.5654  -17.6296   23.8414 S   0  0  0  0  0  0  0  0  0  0  0  0
   10.2529  -17.4887   27.6769 C   0  0  0  0  0  0  0  0  0  0  0  0
   10.5263  -18.6253   28.4177 O   0  0  0  0  0  0  0  0  0  0  0  0
   10.0261  -16.4110   28.2820 O   0  0  0  0  0  0  0  0  0  0  0  0
  1  2  1  0
  1  5  1  0
  3  2  1  0
  3  4  1  0
  4  5  1  0
  6 13  1  0
  5  6  1  1
  7  6  2  0
  8  9  1  0
  9 10  1  0
 10 12  1  0
 10 11  1  1
 12 13  1  6
 12 14  1  0
 14 16  1  0
 15 14  2  0
 16 17  1  0
 17 18  1  6
 17 20  1  0
 19 18  1  0
 20 22  2  0
 20 21  1  0
M  END
$$$$
