PIC.pdb
     RDKit          3D

 22 22  0  0  1  0  0  0  0  0999 V2000
    6.9351  -14.9604   21.2687 N   0  0  0  0  0  0  0  0  0  0  0  0
    6.5942  -14.6191   19.8854 C   0  0  0  0  0  0  0  0  0  0  0  0
    7.2140  -13.2185   19.7980 C   0  0  0  0  0  0  0  0  0  0  0  0
    8.4628  -13.3135   20.6602 C   0  0  0  0  0  0  0  0  0  0  0  0
    8.3367  -14.6627   21.3031 C   0  0  1  0  0  0  0  0  0  0  0  0
    8.8730  -14.6630   22.7015 C   0  0  0  0  0  0  0  0  0  0  0  0
   10.1083  -14.5519   22.8380 O   0  0  0  0  0  0  0  0  0  0  0  0
    6.1670  -11.6656   25.8861 C   0  0  0  0  0  0  0  0  0  0  0  0
    7.2159  -12.5419   25.2061 C   0  0  0  0  0  0  0  0  0  0  0  0
    7.4025  -13.8367   25.9591 C   0  0  2  0  0  0  0  0  0  0  0  0
    7.9800  -13.5569   27.3456 C   0  0  0  0  0  0  0  0  0  0  0  0
    8.2877  -14.7679   25.1807 C   0  0  2  0  0  0  0  0  0  0  0  0
    7.9973  -14.7847   23.7867 N   0  0  0  0  0  0  0  0  0  0  0  0
    8.5452  -16.0621   25.7914 C   0  0  0  0  0  0  0  0  0  0  0  0
    7.7112  -16.9170   26.1045 O   0  0  0  0  0  0  0  0  0  0  0  0
    9.9235  -16.3939   26.0660 N   0  0  0  0  0  0  0  0  0  0  0  0
   10.3123  -17.6781   26.5812 C   0  0  1  0  0  0  0  0  0  0  0  0
   11.6658  -18.1049   26.0416 C   0  0  0  0  0  0  0  0  0  0  0  0
   11.6813  -17.8675   24.2460 S   0  0  0  0  0  0  0  0  0  0  0  0
   10.3235  -17.6632   28.0649 C   0  0  0  0  0  0  0  0  0  0  0  0
   10.5447  -18.8065   28.8130 O   0  0  0  0  0  0  0  0  0  0  0  0
   10.1257  -16.5763   28.6636 O   0  0  0  0  0  0  0  0  0  0  0  0
  1  2  1  0
  1  5  1  0
  3  2  1  0
  3  4  1  0
  4  5  1  0
  6 13  1  0
  5  6  1  1
  7  6  2  0
  8  9  1  0
  9 10  1  0
 10 12  1  0
 10 11  1  1
 12 13  1  6
 12 14  1  0
 14 16  1  0
 15 14  2  0
 16 17  1  0
 17 18  1  6
 17 20  1  0
 19 18  1  0
 20 22  2  0
 20 21  1  0
M  END
$$$$
