PIC.pdb
     RDKit          3D

 22 22  0  0  1  0  0  0  0  0999 V2000
    6.8317  -14.5766   20.7556 N   0  0  0  0  0  0  0  0  0  0  0  0
    6.5316  -14.1663   19.3816 C   0  0  0  0  0  0  0  0  0  0  0  0
    7.1446  -12.7600   19.3856 C   0  0  0  0  0  0  0  0  0  0  0  0
    8.3667  -12.8930   20.2804 C   0  0  0  0  0  0  0  0  0  0  0  0
    8.2296  -14.2741   20.8491 C   0  0  1  0  0  0  0  0  0  0  0  0
    8.7222  -14.3436   22.2617 C   0  0  0  0  0  0  0  0  0  0  0  0
    9.9565  -14.2936   22.4379 O   0  0  0  0  0  0  0  0  0  0  0  0
    5.9052  -11.5147   25.6655 C   0  0  0  0  0  0  0  0  0  0  0  0
    6.9617  -12.3274   24.9213 C   0  0  0  0  0  0  0  0  0  0  0  0
    7.1097  -13.7002   25.5312 C   0  0  2  0  0  0  0  0  0  0  0  0
    7.5837  -13.5811   26.9788 C   0  0  0  0  0  0  0  0  0  0  0  0
    8.0592  -14.5315   24.7164 C   0  0  2  0  0  0  0  0  0  0  0  0
    7.8091  -14.4596   23.3163 N   0  0  0  0  0  0  0  0  0  0  0  0
    8.3599  -15.8540   25.2407 C   0  0  0  0  0  0  0  0  0  0  0  0
    7.5573  -16.7626   25.4745 O   0  0  0  0  0  0  0  0  0  0  0  0
    9.7456  -16.1472   25.5221 N   0  0  0  0  0  0  0  0  0  0  0  0
   10.1737  -17.4362   25.9921 C   0  0  1  0  0  0  0  0  0  0  0  0
   11.4996  -17.8397   25.3720 C   0  0  0  0  0  0  0  0  0  0  0  0
   12.0162  -19.4265   26.0762 S   0  0  0  0  0  0  0  0  0  0  0  0
   10.2657  -17.4472   27.4730 C   0  0  0  0  0  0  0  0  0  0  0  0
   10.0320  -18.5896   28.2186 O   0  0  0  0  0  0  0  0  0  0  0  0
   10.5659  -16.3840   28.0715 O   0  0  0  0  0  0  0  0  0  0  0  0
  1  2  1  0
  1  5  1  0
  3  2  1  0
  3  4  1  0
  4  5  1  0
  6 13  1  0
  5  6  1  1
  7  6  2  0
  8  9  1  0
  9 10  1  0
 10 12  1  0
 10 11  1  1
 12 13  1  6
 12 14  1  0
 14 16  1  0
 15 14  2  0
 16 17  1  0
 17 18  1  6
 17 20  1  0
 19 18  1  0
 20 22  2  0
 20 21  1  0
M  END
$$$$
