PIC.pdb
     RDKit          3D

 22 22  0  0  1  0  0  0  0  0999 V2000
    6.8485  -14.5555   20.8566 N   0  0  0  0  0  0  0  0  0  0  0  0
    6.5018  -14.1130   19.5037 C   0  0  0  0  0  0  0  0  0  0  0  0
    7.1703  -12.7322   19.4975 C   0  0  0  0  0  0  0  0  0  0  0  0
    8.4262  -12.9269   20.3322 C   0  0  0  0  0  0  0  0  0  0  0  0
    8.2602  -14.3098   20.8883 C   0  0  1  0  0  0  0  0  0  0  0  0
    8.8147  -14.4201   22.2753 C   0  0  0  0  0  0  0  0  0  0  0  0
   10.0567  -14.4141   22.3945 O   0  0  0  0  0  0  0  0  0  0  0  0
    6.0870  -11.5629   25.6885 C   0  0  0  0  0  0  0  0  0  0  0  0
    7.1636  -12.3637   24.9603 C   0  0  0  0  0  0  0  0  0  0  0  0
    7.3451  -13.7202   25.5969 C   0  0  2  0  0  0  0  0  0  0  0  0
    7.8879  -13.5634   27.0164 C   0  0  0  0  0  0  0  0  0  0  0  0
    8.2569  -14.5701   24.7585 C   0  0  2  0  0  0  0  0  0  0  0  0
    7.9476  -14.5240   23.3692 N   0  0  0  0  0  0  0  0  0  0  0  0
    8.5763  -15.8834   25.2948 C   0  0  0  0  0  0  0  0  0  0  0  0
    7.7839  -16.7923   25.5602 O   0  0  0  0  0  0  0  0  0  0  0  0
    9.9695  -16.1659   25.5483 N   0  0  0  0  0  0  0  0  0  0  0  0
   10.4162  -17.4497   26.0154 C   0  0  1  0  0  0  0  0  0  0  0  0
   11.8158  -17.7641   25.5179 C   0  0  0  0  0  0  0  0  0  0  0  0
   12.3838  -19.2967   26.2983 S   0  0  0  0  0  0  0  0  0  0  0  0
   10.3627  -17.5133   27.4969 C   0  0  0  0  0  0  0  0  0  0  0  0
   10.0529  -18.6793   28.1750 O   0  0  0  0  0  0  0  0  0  0  0  0
   10.6068  -16.4738   28.1592 O   0  0  0  0  0  0  0  0  0  0  0  0
  1  2  1  0
  1  5  1  0
  3  2  1  0
  3  4  1  0
  4  5  1  0
  6 13  1  0
  5  6  1  1
  7  6  2  0
  8  9  1  0
  9 10  1  0
 10 12  1  0
 10 11  1  1
 12 13  1  6
 12 14  1  0
 14 16  1  0
 15 14  2  0
 16 17  1  0
 17 18  1  1
 17 20  1  0
 19 18  1  0
 20 22  2  0
 20 21  1  0
M  END
$$$$
