PIC.pdb
     RDKit          3D

 22 22  0  0  1  0  0  0  0  0999 V2000
    7.0744  -14.8506   20.8061 N   0  0  0  0  0  0  0  0  0  0  0  0
    6.8261  -14.5573   19.3924 C   0  0  0  0  0  0  0  0  0  0  0  0
    7.2546  -13.0849   19.3486 C   0  0  0  0  0  0  0  0  0  0  0  0
    8.4150  -13.0093   20.3281 C   0  0  0  0  0  0  0  0  0  0  0  0
    8.4123  -14.3639   20.9719 C   0  0  1  0  0  0  0  0  0  0  0  0
    8.8053  -14.2928   22.4153 C   0  0  0  0  0  0  0  0  0  0  0  0
   10.0119  -14.1003   22.6686 O   0  0  0  0  0  0  0  0  0  0  0  0
    5.8032  -11.4438   25.5809 C   0  0  0  0  0  0  0  0  0  0  0  0
    6.9005  -12.2740   24.9197 C   0  0  0  0  0  0  0  0  0  0  0  0
    7.0071  -13.6338   25.5663 C   0  0  2  0  0  0  0  0  0  0  0  0
    7.3954  -13.4849   27.0364 C   0  0  0  0  0  0  0  0  0  0  0  0
    7.9998  -14.4848   24.8267 C   0  0  2  0  0  0  0  0  0  0  0  0
    7.8345  -14.4402   23.4129 N   0  0  0  0  0  0  0  0  0  0  0  0
    8.2621  -15.7975   25.3943 C   0  0  0  0  0  0  0  0  0  0  0  0
    7.4377  -16.6870   25.6259 O   0  0  0  0  0  0  0  0  0  0  0  0
    9.6333  -16.1048   25.7270 N   0  0  0  0  0  0  0  0  0  0  0  0
   10.0227  -17.3820   26.2588 C   0  0  1  0  0  0  0  0  0  0  0  0
   11.3459  -17.8449   25.6755 C   0  0  0  0  0  0  0  0  0  0  0  0
   11.2701  -17.7072   23.8710 S   0  0  0  0  0  0  0  0  0  0  0  0
   10.0954  -17.3302   27.7399 C   0  0  0  0  0  0  0  0  0  0  0  0
   10.2885  -18.4641   28.5096 O   0  0  0  0  0  0  0  0  0  0  0  0
    9.9777  -16.2197   28.3159 O   0  0  0  0  0  0  0  0  0  0  0  0
  1  2  1  0
  1  5  1  0
  3  2  1  0
  3  4  1  0
  4  5  1  0
  6 13  1  0
  5  6  1  1
  7  6  2  0
  8  9  1  0
  9 10  1  0
 10 12  1  0
 10 11  1  1
 12 13  1  6
 12 14  1  0
 14 16  1  0
 15 14  2  0
 16 17  1  0
 17 18  1  6
 17 20  1  0
 19 18  1  0
 20 22  2  0
 20 21  1  0
M  END
$$$$
