PIC.pdb
     RDKit          3D

 22 22  0  0  1  0  0  0  0  0999 V2000
    8.4903  -14.9219   20.1656 N   0  0  0  0  0  0  0  0  0  0  0  0
    7.6483  -15.3040   19.0292 C   0  0  0  0  0  0  0  0  0  0  0  0
    6.9758  -16.5558   19.6073 C   0  0  0  0  0  0  0  0  0  0  0  0
    6.7986  -16.2314   21.0821 C   0  0  0  0  0  0  0  0  0  0  0  0
    7.5467  -14.9416   21.2443 C   0  0  1  0  0  0  0  0  0  0  0  0
    8.2223  -14.8561   22.5782 C   0  0  0  0  0  0  0  0  0  0  0  0
    9.4247  -15.1856   22.6301 O   0  0  0  0  0  0  0  0  0  0  0  0
    6.0298  -11.2776   26.0643 C   0  0  0  0  0  0  0  0  0  0  0  0
    6.9767  -12.1879   25.2863 C   0  0  0  0  0  0  0  0  0  0  0  0
    7.0720  -13.5455   25.9390 C   0  0  2  0  0  0  0  0  0  0  0  0
    7.6937  -13.4154   27.3285 C   0  0  0  0  0  0  0  0  0  0  0  0
    7.8666  -14.4831   25.0751 C   0  0  2  0  0  0  0  0  0  0  0  0
    7.5055  -14.4209   23.6990 N   0  0  0  0  0  0  0  0  0  0  0  0
    8.0861  -15.8155   25.6144 C   0  0  0  0  0  0  0  0  0  0  0  0
    7.2412  -16.7003   25.7803 O   0  0  0  0  0  0  0  0  0  0  0  0
    9.4363  -16.1508   26.0014 N   0  0  0  0  0  0  0  0  0  0  0  0
    9.7921  -17.4595   26.4774 C   0  0  1  0  0  0  0  0  0  0  0  0
   10.9802  -18.0214   25.7172 C   0  0  0  0  0  0  0  0  0  0  0  0
   10.6524  -17.8922   23.9405 S   0  0  0  0  0  0  0  0  0  0  0  0
   10.0734  -17.4261   27.9339 C   0  0  0  0  0  0  0  0  0  0  0  0
   10.4012  -18.5651   28.6487 O   0  0  0  0  0  0  0  0  0  0  0  0
   10.0122  -16.3272   28.5399 O   0  0  0  0  0  0  0  0  0  0  0  0
  1  2  1  0
  1  5  1  0
  3  2  1  0
  3  4  1  0
  4  5  1  0
  6 13  1  0
  5  6  1  1
  7  6  2  0
  8  9  1  0
  9 10  1  0
 10 12  1  0
 10 11  1  1
 12 13  1  6
 12 14  1  0
 14 16  1  0
 15 14  2  0
 16 17  1  0
 17 18  1  6
 17 20  1  0
 19 18  1  0
 20 22  2  0
 20 21  1  0
M  END
$$$$
