PIC.pdb
     RDKit          3D

 22 22  0  0  1  0  0  0  0  0999 V2000
    7.0306  -14.6175   20.8750 N   0  0  0  0  0  0  0  0  0  0  0  0
    6.7027  -14.1821   19.5152 C   0  0  0  0  0  0  0  0  0  0  0  0
    7.2141  -12.7368   19.5696 C   0  0  0  0  0  0  0  0  0  0  0  0
    8.4422  -12.8136   20.4628 C   0  0  0  0  0  0  0  0  0  0  0  0
    8.4034  -14.2198   20.9830 C   0  0  1  0  0  0  0  0  0  0  0  0
    8.8991  -14.3032   22.3938 C   0  0  0  0  0  0  0  0  0  0  0  0
   10.1324  -14.2319   22.5695 O   0  0  0  0  0  0  0  0  0  0  0  0
    6.3210  -11.4661   25.8961 C   0  0  0  0  0  0  0  0  0  0  0  0
    7.3474  -12.3167   25.1520 C   0  0  0  0  0  0  0  0  0  0  0  0
    7.3721  -13.7245   25.6959 C   0  0  2  0  0  0  0  0  0  0  0  0
    7.8517  -13.7164   27.1465 C   0  0  0  0  0  0  0  0  0  0  0  0
    8.2462  -14.5970   24.8407 C   0  0  2  0  0  0  0  0  0  0  0  0
    7.9899  -14.4546   23.4472 N   0  0  0  0  0  0  0  0  0  0  0  0
    8.4471  -15.9572   25.3138 C   0  0  0  0  0  0  0  0  0  0  0  0
    7.5894  -16.8365   25.4388 O   0  0  0  0  0  0  0  0  0  0  0  0
    9.7930  -16.3308   25.6801 N   0  0  0  0  0  0  0  0  0  0  0  0
   10.1339  -17.6706   26.0732 C   0  0  1  0  0  0  0  0  0  0  0  0
   11.3283  -18.1900   25.2930 C   0  0  0  0  0  0  0  0  0  0  0  0
   11.7817  -19.8220   25.9345 S   0  0  0  0  0  0  0  0  0  0  0  0
   10.3959  -17.7354   27.5323 C   0  0  0  0  0  0  0  0  0  0  0  0
   10.2112  -18.8953   28.2646 O   0  0  0  0  0  0  0  0  0  0  0  0
   10.7990  -16.7029   28.1241 O   0  0  0  0  0  0  0  0  0  0  0  0
  1  2  1  0
  1  5  1  0
  3  2  1  0
  3  4  1  0
  4  5  1  0
  6 13  1  0
  5  6  1  1
  7  6  2  0
  8  9  1  0
  9 10  1  0
 10 12  1  0
 10 11  1  1
 12 13  1  6
 12 14  1  0
 14 16  1  0
 15 14  2  0
 16 17  1  0
 17 18  1  6
 17 20  1  0
 19 18  1  0
 20 22  2  0
 20 21  1  0
M  END
$$$$
