PIC.pdb
     RDKit          3D

 22 22  0  0  1  0  0  0  0  0999 V2000
    6.9260  -14.7074   20.7183 N   0  0  0  0  0  0  0  0  0  0  0  0
    6.6369  -14.2736   19.3491 C   0  0  0  0  0  0  0  0  0  0  0  0
    7.1404  -12.8261   19.4184 C   0  0  0  0  0  0  0  0  0  0  0  0
    8.3415  -12.8976   20.3478 C   0  0  0  0  0  0  0  0  0  0  0  0
    8.2932  -14.3039   20.8670 C   0  0  1  0  0  0  0  0  0  0  0  0
    8.7471  -14.3849   22.2920 C   0  0  0  0  0  0  0  0  0  0  0  0
    9.9772  -14.3656   22.5001 O   0  0  0  0  0  0  0  0  0  0  0  0
    6.0144  -11.4725   25.6799 C   0  0  0  0  0  0  0  0  0  0  0  0
    7.0509  -12.3273   24.9550 C   0  0  0  0  0  0  0  0  0  0  0  0
    7.0981  -13.7198   25.5357 C   0  0  2  0  0  0  0  0  0  0  0  0
    7.5392  -13.6622   26.9974 C   0  0  0  0  0  0  0  0  0  0  0  0
    8.0167  -14.5899   24.7260 C   0  0  2  0  0  0  0  0  0  0  0  0
    7.8042  -14.4776   23.3224 N   0  0  0  0  0  0  0  0  0  0  0  0
    8.2277  -15.9373   25.2305 C   0  0  0  0  0  0  0  0  0  0  0  0
    7.3866  -16.8357   25.3294 O   0  0  0  0  0  0  0  0  0  0  0  0
    9.5633  -16.2715   25.6661 N   0  0  0  0  0  0  0  0  0  0  0  0
    9.9183  -17.5970   26.0936 C   0  0  1  0  0  0  0  0  0  0  0  0
   11.0373  -18.1722   25.2438 C   0  0  0  0  0  0  0  0  0  0  0  0
   12.4264  -17.0098   25.2406 S   0  0  0  0  0  0  0  0  0  0  0  0
   10.2992  -17.5980   27.5277 C   0  0  0  0  0  0  0  0  0  0  0  0
   10.6025  -18.7633   28.2100 O   0  0  0  0  0  0  0  0  0  0  0  0
   10.3482  -16.5045   28.1445 O   0  0  0  0  0  0  0  0  0  0  0  0
  1  2  1  0
  1  5  1  0
  3  2  1  0
  3  4  1  0
  4  5  1  0
  6 13  1  0
  5  6  1  1
  7  6  2  0
  8  9  1  0
  9 10  1  0
 10 12  1  0
 10 11  1  1
 12 13  1  6
 12 14  1  0
 14 16  1  0
 15 14  2  0
 16 17  1  0
 17 18  1  6
 17 20  1  0
 19 18  1  0
 20 22  2  0
 20 21  1  0
M  END
$$$$
