QIN.pdb
     RDKit          3D

 26 25  0  0  1  0  0  0  0  0999 V2000
   19.7067  -12.6915  -20.7933 N   0  0  0  0  0  0  0  0  0  0  0  0
   19.7695  -14.1190  -20.6826 C   0  0  0  0  0  0  0  0  0  0  0  0
   19.3382  -14.8010  -21.6144 O   0  0  0  0  0  0  0  0  0  0  0  0
   20.3375  -14.6892  -19.4711 C   0  0  0  0  0  0  0  0  0  0  0  0
   20.7082  -13.7451  -18.3759 C   0  0  0  0  0  0  0  0  0  0  0  0
   21.9015  -14.0885  -17.5585 C   0  0  2  0  0  0  0  0  0  0  0  0
   21.8554  -15.4652  -17.1108 N   0  0  0  0  0  0  0  0  0  0  0  0
   22.3674  -13.1213  -16.5640 C   0  0  0  0  0  0  0  0  0  0  0  0
   21.8847  -13.2182  -15.4067 O   0  0  0  0  0  0  0  0  0  0  0  0
   27.3880  -12.2685  -15.4719 C   0  0  0  0  0  0  0  0  0  0  0  0
   25.8615  -12.2636  -15.4304 C   0  0  0  0  0  0  0  0  0  0  0  0
   25.2749  -10.9810  -15.9521 C   0  0  2  0  0  0  0  0  0  0  0  0
   25.7494   -9.8886  -15.0322 C   0  0  0  0  0  0  0  0  0  0  0  0
   23.7933  -11.0608  -15.9876 C   0  0  2  0  0  0  0  0  0  0  0  0
   23.2906  -12.1250  -16.8291 N   0  0  0  0  0  0  0  0  0  0  0  0
   23.0241   -9.8329  -16.1894 C   0  0  0  0  0  0  0  0  0  0  0  0
   23.1595   -9.2861  -17.3635 O   0  0  0  0  0  0  0  0  0  0  0  0
   18.3917   -9.7901  -14.8464 N   0  0  0  0  0  0  0  0  0  0  0  0
   19.2033   -8.9617  -15.6582 C   0  0  0  0  0  0  0  0  0  0  0  0
   19.1575   -9.1806  -16.9024 O   0  0  0  0  0  0  0  0  0  0  0  0
   20.0818   -7.8866  -15.2013 C   0  0  0  0  0  0  0  0  0  0  0  0
   21.4855   -7.9398  -15.7395 C   0  0  2  0  0  0  0  0  0  0  0  0
   22.1668   -9.1695  -15.3112 N   0  0  0  0  0  0  0  0  0  0  0  0
   22.2757   -6.7466  -15.4039 C   0  0  0  0  0  0  0  0  0  0  0  0
   22.0957   -5.5967  -16.1491 O   0  0  0  0  0  0  0  0  0  0  0  0
   23.1038   -6.7342  -14.4697 O   0  0  0  0  0  0  0  0  0  0  0  0
  1  2  1  0
  2  4  1  0
  3  2  2  0
  4  5  1  0
  5  6  1  0
  6  7  1  1
  8  9  2  0
  8  6  1  0
 11 10  1  0
 11 12  1  0
 12 14  1  0
 12 13  1  1
 14 15  1  6
 15  8  1  0
 16 23  1  0
 16 14  1  0
 17 16  2  0
 18 19  1  0
 19 21  1  0
 20 19  2  0
 22 21  1  1
 22 23  1  0
 22 24  1  0
 24 25  1  0
 26 24  2  0
M  END
$$$$
