QIN.pdb
     RDKit          3D

 26 25  0  0  1  0  0  0  0  0999 V2000
   14.9809   -9.6438  -16.1504 N   0  0  0  0  0  0  0  0  0  0  0  0
   15.0432  -11.0485  -16.4284 C   0  0  0  0  0  0  0  0  0  0  0  0
   14.1695  -11.5465  -17.1412 O   0  0  0  0  0  0  0  0  0  0  0  0
   16.1356  -11.8149  -15.8500 C   0  0  0  0  0  0  0  0  0  0  0  0
   17.1102  -11.0805  -14.9903 C   0  0  0  0  0  0  0  0  0  0  0  0
   18.5181  -11.0156  -15.4631 C   0  0  2  0  0  0  0  0  0  0  0  0
   19.0706  -12.3404  -15.6572 N   0  0  0  0  0  0  0  0  0  0  0  0
   19.4192  -10.0458  -14.8394 C   0  0  0  0  0  0  0  0  0  0  0  0
   19.2947   -9.8688  -13.6005 O   0  0  0  0  0  0  0  0  0  0  0  0
   24.4988  -10.5681  -14.8253 C   0  0  0  0  0  0  0  0  0  0  0  0
   23.0853  -10.0598  -14.5501 C   0  0  0  0  0  0  0  0  0  0  0  0
   22.7653   -8.8047  -15.3141 C   0  0  2  0  0  0  0  0  0  0  0  0
   23.7519   -7.7636  -14.8586 C   0  0  0  0  0  0  0  0  0  0  0  0
   21.3660   -8.3807  -15.0592 C   0  0  2  0  0  0  0  0  0  0  0  0
   20.3789   -9.3274  -15.5309 N   0  0  0  0  0  0  0  0  0  0  0  0
   20.9711   -7.0115  -15.3901 C   0  0  0  0  0  0  0  0  0  0  0  0
   20.9211   -6.7465  -16.6641 O   0  0  0  0  0  0  0  0  0  0  0  0
   19.3575   -1.9366  -15.8212 N   0  0  0  0  0  0  0  0  0  0  0  0
   18.7912   -2.6653  -14.7477 C   0  0  0  0  0  0  0  0  0  0  0  0
   17.8797   -2.0813  -14.0949 O   0  0  0  0  0  0  0  0  0  0  0  0
   19.1551   -4.0161  -14.3244 C   0  0  0  0  0  0  0  0  0  0  0  0
   20.2750   -4.6476  -15.1054 C   0  0  2  0  0  0  0  0  0  0  0  0
   20.6372   -5.9556  -14.5417 N   0  0  0  0  0  0  0  0  0  0  0  0
   21.4517   -3.7756  -15.2307 C   0  0  0  0  0  0  0  0  0  0  0  0
   21.5511   -2.9442  -16.3303 O   0  0  0  0  0  0  0  0  0  0  0  0
   22.3650   -3.7587  -14.3797 O   0  0  0  0  0  0  0  0  0  0  0  0
  1  2  1  0
  2  4  1  0
  3  2  2  0
  4  5  1  0
  5  6  1  0
  6  7  1  1
  8  9  2  0
  8  6  1  0
 11 10  1  0
 11 12  1  0
 12 14  1  0
 12 13  1  1
 14 15  1  6
 15  8  1  0
 16 23  1  0
 16 14  1  0
 17 16  2  0
 18 19  1  0
 19 21  1  0
 20 19  2  0
 22 21  1  1
 22 23  1  0
 22 24  1  0
 24 25  1  0
 26 24  2  0
M  END
$$$$
