QIN.pdb
     RDKit          3D

 26 25  0  0  1  0  0  0  0  0999 V2000
   33.9643  -10.0170  -22.6258 N   0  0  0  0  0  0  0  0  0  0  0  0
   33.9773  -11.4499  -22.6010 C   0  0  0  0  0  0  0  0  0  0  0  0
   33.9539  -12.0572  -23.6734 O   0  0  0  0  0  0  0  0  0  0  0  0
   34.0140  -12.1137  -21.3073 C   0  0  0  0  0  0  0  0  0  0  0  0
   33.8295  -11.2642  -20.0939 C   0  0  0  0  0  0  0  0  0  0  0  0
   33.9413  -11.9352  -18.7721 C   0  0  2  0  0  0  0  0  0  0  0  0
   33.1836  -13.1692  -18.7415 N   0  0  0  0  0  0  0  0  0  0  0  0
   33.8519  -11.1146  -17.5637 C   0  0  0  0  0  0  0  0  0  0  0  0
   32.7214  -11.0242  -17.0200 O   0  0  0  0  0  0  0  0  0  0  0  0
   37.5760  -11.3044  -13.7320 C   0  0  0  0  0  0  0  0  0  0  0  0
   36.2749  -11.0570  -14.4922 C   0  0  0  0  0  0  0  0  0  0  0  0
   36.1910   -9.6642  -15.0529 C   0  0  2  0  0  0  0  0  0  0  0  0
   36.1639   -8.7296  -13.8737 C   0  0  0  0  0  0  0  0  0  0  0  0
   34.9801   -9.5136  -15.8979 C   0  0  2  0  0  0  0  0  0  0  0  0
   34.9258  -10.4453  -17.0034 N   0  0  0  0  0  0  0  0  0  0  0  0
   34.5813   -8.1736  -16.3289 C   0  0  0  0  0  0  0  0  0  0  0  0
   35.0001   -7.8298  -17.5130 O   0  0  0  0  0  0  0  0  0  0  0  0
   31.9573   -3.9756  -17.9944 N   0  0  0  0  0  0  0  0  0  0  0  0
   31.8193   -5.3569  -18.2720 C   0  0  0  0  0  0  0  0  0  0  0  0
   31.0838   -5.6588  -19.2548 O   0  0  0  0  0  0  0  0  0  0  0  0
   32.4394   -6.4587  -17.5386 C   0  0  0  0  0  0  0  0  0  0  0  0
   33.3102   -6.0442  -16.3842 C   0  0  2  0  0  0  0  0  0  0  0  0
   33.8166   -7.2180  -15.6594 N   0  0  0  0  0  0  0  0  0  0  0  0
   32.6472   -5.0994  -15.4740 C   0  0  0  0  0  0  0  0  0  0  0  0
   32.0110   -5.5915  -14.3501 O   0  0  0  0  0  0  0  0  0  0  0  0
   32.6379   -3.8680  -15.6794 O   0  0  0  0  0  0  0  0  0  0  0  0
  1  2  1  0
  2  4  1  0
  3  2  2  0
  4  5  1  0
  5  6  1  0
  6  7  1  1
  8  9  2  0
  8  6  1  0
 11 10  1  0
 11 12  1  0
 12 14  1  0
 12 13  1  1
 14 15  1  6
 15  8  1  0
 16 23  1  0
 16 14  1  0
 17 16  2  0
 18 19  1  0
 19 21  1  0
 20 19  2  0
 22 21  1  6
 22 23  1  0
 22 24  1  0
 24 25  1  0
 26 24  2  0
M  END
$$$$
