QIN.pdb
     RDKit          3D

 26 25  0  0  1  0  0  0  0  0999 V2000
   25.9786  -16.9229  -14.5651 N   0  0  0  0  0  0  0  0  0  0  0  0
   26.2394  -18.0087  -15.4634 C   0  0  0  0  0  0  0  0  0  0  0  0
   25.2830  -18.5680  -16.0037 O   0  0  0  0  0  0  0  0  0  0  0  0
   27.6230  -18.3966  -15.6880 C   0  0  0  0  0  0  0  0  0  0  0  0
   28.3418  -19.0606  -14.5608 C   0  0  0  0  0  0  0  0  0  0  0  0
   28.1277  -20.5213  -14.3856 C   0  0  2  0  0  0  0  0  0  0  0  0
   28.4447  -21.2495  -15.5969 N   0  0  0  0  0  0  0  0  0  0  0  0
   26.9267  -20.9704  -13.6804 C   0  0  0  0  0  0  0  0  0  0  0  0
   26.1456  -21.7269  -14.3122 O   0  0  0  0  0  0  0  0  0  0  0  0
   27.2665  -20.8230   -8.2110 C   0  0  0  0  0  0  0  0  0  0  0  0
   26.8198  -21.3665   -9.5663 C   0  0  0  0  0  0  0  0  0  0  0  0
   25.6440  -20.6165  -10.1287 C   0  0  2  0  0  0  0  0  0  0  0  0
   24.4463  -21.0268   -9.3151 C   0  0  0  0  0  0  0  0  0  0  0  0
   25.4622  -20.9333  -11.5673 C   0  0  2  0  0  0  0  0  0  0  0  0
   26.6133  -20.6093  -12.3817 N   0  0  0  0  0  0  0  0  0  0  0  0
   24.2251  -20.5216  -12.2308 C   0  0  0  0  0  0  0  0  0  0  0  0
   24.1538  -19.2547  -12.5235 O   0  0  0  0  0  0  0  0  0  0  0  0
   19.8354  -21.3088  -16.3488 N   0  0  0  0  0  0  0  0  0  0  0  0
   20.5835  -20.6682  -15.3319 C   0  0  0  0  0  0  0  0  0  0  0  0
   20.2125  -19.5020  -15.0153 O   0  0  0  0  0  0  0  0  0  0  0  0
   21.7337  -21.2200  -14.6183 C   0  0  0  0  0  0  0  0  0  0  0  0
   21.9655  -20.6480  -13.2465 C   0  0  2  0  0  0  0  0  0  0  0  0
   23.1186  -21.2878  -12.5979 N   0  0  0  0  0  0  0  0  0  0  0  0
   20.7718  -20.7046  -12.3906 C   0  0  0  0  0  0  0  0  0  0  0  0
   19.7943  -19.7399  -12.5454 O   0  0  0  0  0  0  0  0  0  0  0  0
   20.6087  -21.5927  -11.5285 O   0  0  0  0  0  0  0  0  0  0  0  0
  1  2  1  0
  2  4  1  0
  3  2  2  0
  4  5  1  0
  5  6  1  0
  6  7  1  6
  8  9  2  0
  8  6  1  0
 11 10  1  0
 11 12  1  0
 12 14  1  0
 12 13  1  1
 14 15  1  6
 15  8  1  0
 16 23  1  0
 16 14  1  0
 17 16  2  0
 18 19  1  0
 19 21  1  0
 20 19  2  0
 22 21  1  6
 22 23  1  0
 22 24  1  0
 24 25  1  0
 26 24  2  0
M  END
$$$$
