QIN.pdb
     RDKit          3D

 26 25  0  0  1  0  0  0  0  0999 V2000
   18.0685  -14.8654  -14.8582 N   0  0  0  0  0  0  0  0  0  0  0  0
   18.0598  -14.8695  -16.2914 C   0  0  0  0  0  0  0  0  0  0  0  0
   17.3557  -15.6972  -16.8732 O   0  0  0  0  0  0  0  0  0  0  0  0
   18.8876  -13.8957  -16.9856 C   0  0  0  0  0  0  0  0  0  0  0  0
   19.6677  -12.9366  -16.1491 C   0  0  0  0  0  0  0  0  0  0  0  0
   20.5478  -11.9739  -16.8622 C   0  0  2  0  0  0  0  0  0  0  0  0
   21.3116  -12.6296  -17.9037 N   0  0  0  0  0  0  0  0  0  0  0  0
   21.2838  -10.9853  -16.0731 C   0  0  0  0  0  0  0  0  0  0  0  0
   20.7115  -10.5363  -15.0472 O   0  0  0  0  0  0  0  0  0  0  0  0
   26.7172  -11.4096  -15.6893 C   0  0  0  0  0  0  0  0  0  0  0  0
   25.2458  -11.0993  -15.4233 C   0  0  0  0  0  0  0  0  0  0  0  0
   24.8352   -9.7541  -15.9554 C   0  0  2  0  0  0  0  0  0  0  0  0
   25.6591   -8.7331  -15.2182 C   0  0  0  0  0  0  0  0  0  0  0  0
   23.3816   -9.5337  -15.7522 C   0  0  2  0  0  0  0  0  0  0  0  0
   22.5497  -10.5279  -16.3947 N   0  0  0  0  0  0  0  0  0  0  0  0
   22.8353   -8.1917  -15.9539 C   0  0  0  0  0  0  0  0  0  0  0  0
   22.9139   -7.7439  -17.1742 O   0  0  0  0  0  0  0  0  0  0  0  0
   20.6064   -3.3620  -16.0394 N   0  0  0  0  0  0  0  0  0  0  0  0
   19.8309   -4.4949  -15.6937 C   0  0  0  0  0  0  0  0  0  0  0  0
   18.5798   -4.3216  -15.6433 O   0  0  0  0  0  0  0  0  0  0  0  0
   20.3324   -5.8341  -15.3918 C   0  0  0  0  0  0  0  0  0  0  0  0
   21.8283   -5.9814  -15.4497 C   0  0  2  0  0  0  0  0  0  0  0  0
   22.2407   -7.3289  -15.0328 N   0  0  0  0  0  0  0  0  0  0  0  0
   22.5382   -4.9452  -14.6861 C   0  0  0  0  0  0  0  0  0  0  0  0
   22.3890   -3.6228  -15.0589 O   0  0  0  0  0  0  0  0  0  0  0  0
   23.2713   -5.2165  -13.7127 O   0  0  0  0  0  0  0  0  0  0  0  0
  1  2  1  0
  2  4  1  0
  3  2  2  0
  4  5  1  0
  5  6  1  0
  6  7  1  1
  8  9  2  0
  8  6  1  0
 11 10  1  0
 11 12  1  0
 12 14  1  0
 12 13  1  1
 14 15  1  6
 15  8  1  0
 16 23  1  0
 16 14  1  0
 17 16  2  0
 18 19  1  0
 19 21  1  0
 20 19  2  0
 22 21  1  1
 22 23  1  0
 22 24  1  0
 24 25  1  0
 26 24  2  0
M  END
$$$$
