QIN.pdb
     RDKit          3D

 26 25  0  0  1  0  0  0  0  0999 V2000
   27.4659  -17.3593  -15.2963 N   0  0  0  0  0  0  0  0  0  0  0  0
   28.1623  -17.8411  -16.4527 C   0  0  0  0  0  0  0  0  0  0  0  0
   29.1371  -17.2059  -16.8596 O   0  0  0  0  0  0  0  0  0  0  0  0
   27.6780  -19.0562  -17.0888 C   0  0  0  0  0  0  0  0  0  0  0  0
   26.5725  -19.7937  -16.4090 C   0  0  0  0  0  0  0  0  0  0  0  0
   26.9574  -20.8062  -15.3909 C   0  0  2  0  0  0  0  0  0  0  0  0
   27.8050  -21.8324  -15.9621 N   0  0  0  0  0  0  0  0  0  0  0  0
   25.9333  -21.2847  -14.4614 C   0  0  0  0  0  0  0  0  0  0  0  0
   25.2996  -22.3181  -14.7962 O   0  0  0  0  0  0  0  0  0  0  0  0
   26.8249  -20.8275   -9.1418 C   0  0  0  0  0  0  0  0  0  0  0  0
   26.2967  -21.2978  -10.4953 C   0  0  0  0  0  0  0  0  0  0  0  0
   25.0182  -20.6092  -10.8858 C   0  0  2  0  0  0  0  0  0  0  0  0
   23.9803  -21.0334   -9.8821 C   0  0  0  0  0  0  0  0  0  0  0  0
   24.6261  -20.9809  -12.2682 C   0  0  2  0  0  0  0  0  0  0  0  0
   25.6324  -20.6680  -13.2596 N   0  0  0  0  0  0  0  0  0  0  0  0
   23.2937  -20.6137  -12.7478 C   0  0  0  0  0  0  0  0  0  0  0  0
   23.0816  -19.3333  -12.8548 O   0  0  0  0  0  0  0  0  0  0  0  0
   22.3557  -21.6271  -16.8117 N   0  0  0  0  0  0  0  0  0  0  0  0
   21.5168  -20.8254  -16.0007 C   0  0  0  0  0  0  0  0  0  0  0  0
   21.5592  -19.5798  -16.2123 O   0  0  0  0  0  0  0  0  0  0  0  0
   20.6138  -21.2941  -14.9513 C   0  0  0  0  0  0  0  0  0  0  0  0
   20.9608  -20.8350  -13.5615 C   0  0  2  0  0  0  0  0  0  0  0  0
   22.2248  -21.4336  -13.1100 N   0  0  0  0  0  0  0  0  0  0  0  0
   19.8816  -21.0707  -12.5918 C   0  0  0  0  0  0  0  0  0  0  0  0
   18.6596  -20.4572  -12.7924 O   0  0  0  0  0  0  0  0  0  0  0  0
   20.0288  -21.8052  -11.5931 O   0  0  0  0  0  0  0  0  0  0  0  0
  1  2  1  0
  2  4  1  0
  3  2  2  0
  4  5  1  0
  5  6  1  0
  6  7  1  6
  8  9  2  0
  8  6  1  0
 11 10  1  0
 11 12  1  0
 12 14  1  0
 12 13  1  1
 14 15  1  6
 15  8  1  0
 16 23  1  0
 16 14  1  0
 17 16  2  0
 18 19  1  0
 19 21  1  0
 20 19  2  0
 22 21  1  6
 22 23  1  0
 22 24  1  0
 24 25  1  0
 26 24  2  0
M  END
$$$$
