QIN.pdb
     RDKit          3D

 26 25  0  0  1  0  0  0  0  0999 V2000
   22.9699  -16.0879  -22.0329 N   0  0  0  0  0  0  0  0  0  0  0  0
   23.1840  -14.6797  -21.8744 C   0  0  0  0  0  0  0  0  0  0  0  0
   24.3396  -14.2523  -21.9122 O   0  0  0  0  0  0  0  0  0  0  0  0
   22.0229  -13.8271  -21.6733 C   0  0  0  0  0  0  0  0  0  0  0  0
   21.8717  -13.1761  -20.3386 C   0  0  0  0  0  0  0  0  0  0  0  0
   22.8457  -13.5584  -19.2826 C   0  0  2  0  0  0  0  0  0  0  0  0
   22.8013  -14.9812  -19.0145 N   0  0  0  0  0  0  0  0  0  0  0  0
   22.9668  -12.7017  -18.1024 C   0  0  0  0  0  0  0  0  0  0  0  0
   22.0803  -12.8226  -17.2185 O   0  0  0  0  0  0  0  0  0  0  0  0
   27.6118  -12.1834  -15.6097 C   0  0  0  0  0  0  0  0  0  0  0  0
   26.1154  -12.1508  -15.9124 C   0  0  0  0  0  0  0  0  0  0  0  0
   25.6573  -10.8079  -16.4104 C   0  0  2  0  0  0  0  0  0  0  0  0
   25.8661   -9.8382  -15.2786 C   0  0  0  0  0  0  0  0  0  0  0  0
   24.2339  -10.8633  -16.8273 C   0  0  2  0  0  0  0  0  0  0  0  0
   23.9848  -11.7829  -17.9161 N   0  0  0  0  0  0  0  0  0  0  0  0
   23.5078   -9.6097  -17.0309 C   0  0  0  0  0  0  0  0  0  0  0  0
   23.8775   -8.9236  -18.0741 O   0  0  0  0  0  0  0  0  0  0  0  0
   20.2625   -5.4317  -17.4718 N   0  0  0  0  0  0  0  0  0  0  0  0
   19.7862   -6.7580  -17.6078 C   0  0  0  0  0  0  0  0  0  0  0  0
   18.6132   -6.8870  -18.0610 O   0  0  0  0  0  0  0  0  0  0  0  0
   20.5131   -7.9823  -17.2780 C   0  0  0  0  0  0  0  0  0  0  0  0
   21.8792   -7.7710  -16.6846 C   0  0  2  0  0  0  0  0  0  0  0  0
   22.4782   -9.0488  -16.2749 N   0  0  0  0  0  0  0  0  0  0  0  0
   21.8827   -6.8009  -15.5803 C   0  0  0  0  0  0  0  0  0  0  0  0
   21.6211   -5.4727  -15.8590 O   0  0  0  0  0  0  0  0  0  0  0  0
   22.1134   -7.1332  -14.3993 O   0  0  0  0  0  0  0  0  0  0  0  0
  1  2  1  0
  2  4  1  0
  3  2  2  0
  4  5  1  0
  5  6  1  0
  6  7  1  1
  8  9  2  0
  8  6  1  0
 11 10  1  0
 11 12  1  0
 12 14  1  0
 12 13  1  1
 14 15  1  6
 15  8  1  0
 16 23  1  0
 16 14  1  0
 17 16  2  0
 18 19  1  0
 19 21  1  0
 20 19  2  0
 22 21  1  1
 22 23  1  0
 22 24  1  0
 24 25  1  0
 26 24  2  0
M  END
$$$$
