QIN.pdb
     RDKit          3D

 26 25  0  0  1  0  0  0  0  0999 V2000
   28.7913  -22.9013  -17.1921 N   0  0  0  0  0  0  0  0  0  0  0  0
   29.2738  -21.5583  -17.3259 C   0  0  0  0  0  0  0  0  0  0  0  0
   29.8080  -21.2279  -18.3864 O   0  0  0  0  0  0  0  0  0  0  0  0
   29.1100  -20.6546  -16.1981 C   0  0  0  0  0  0  0  0  0  0  0  0
   28.4117  -21.1839  -14.9896 C   0  0  0  0  0  0  0  0  0  0  0  0
   27.2646  -20.3949  -14.4683 C   0  0  2  0  0  0  0  0  0  0  0  0
   27.6611  -19.0404  -14.1424 N   0  0  0  0  0  0  0  0  0  0  0  0
   26.3589  -21.0305  -13.5106 C   0  0  0  0  0  0  0  0  0  0  0  0
   26.0006  -22.2093  -13.7628 O   0  0  0  0  0  0  0  0  0  0  0  0
   27.1133  -20.3469   -8.3861 C   0  0  0  0  0  0  0  0  0  0  0  0
   26.5289  -21.0392   -9.6155 C   0  0  0  0  0  0  0  0  0  0  0  0
   25.1940  -20.4739  -10.0150 C   0  0  2  0  0  0  0  0  0  0  0  0
   24.1840  -21.0436   -9.0558 C   0  0  0  0  0  0  0  0  0  0  0  0
   24.8753  -20.8305  -11.4201 C   0  0  2  0  0  0  0  0  0  0  0  0
   25.8851  -20.4108  -12.3674 N   0  0  0  0  0  0  0  0  0  0  0  0
   23.5343  -20.5508  -11.9335 C   0  0  0  0  0  0  0  0  0  0  0  0
   23.3881  -19.3770  -12.4782 O   0  0  0  0  0  0  0  0  0  0  0  0
   19.1597  -21.0789  -14.9054 N   0  0  0  0  0  0  0  0  0  0  0  0
   20.3847  -21.7609  -15.1013 C   0  0  0  0  0  0  0  0  0  0  0  0
   20.5467  -22.3060  -16.2302 O   0  0  0  0  0  0  0  0  0  0  0  0
   21.4713  -21.8947  -14.1329 C   0  0  0  0  0  0  0  0  0  0  0  0
   21.3028  -21.0912  -12.8724 C   0  0  2  0  0  0  0  0  0  0  0  0
   22.3967  -21.3582  -11.9281 N   0  0  0  0  0  0  0  0  0  0  0  0
   19.9907  -21.2842  -12.2385 C   0  0  0  0  0  0  0  0  0  0  0  0
   18.9187  -20.5339  -12.6833 O   0  0  0  0  0  0  0  0  0  0  0  0
   19.8094  -22.1016  -11.3125 O   0  0  0  0  0  0  0  0  0  0  0  0
  1  2  1  0
  2  4  1  0
  3  2  2  0
  4  5  1  0
  5  6  1  0
  6  7  1  1
  8  9  2  0
  8  6  1  0
 11 10  1  0
 11 12  1  0
 12 14  1  0
 12 13  1  1
 14 15  1  6
 15  8  1  0
 16 23  1  0
 16 14  1  0
 17 16  2  0
 18 19  1  0
 19 21  1  0
 20 19  2  0
 22 21  1  6
 22 23  1  0
 22 24  1  0
 24 25  1  0
 26 24  2  0
M  END
$$$$
