QIN.pdb
     RDKit          3D

 26 25  0  0  1  0  0  0  0  0999 V2000
   19.8657  -19.5082   -9.9902 N   0  0  0  0  0  0  0  0  0  0  0  0
   19.7169  -20.9241  -10.1551 C   0  0  0  0  0  0  0  0  0  0  0  0
   18.6108  -21.4275   -9.9489 O   0  0  0  0  0  0  0  0  0  0  0  0
   20.8837  -21.6950  -10.5547 C   0  0  0  0  0  0  0  0  0  0  0  0
   22.1843  -20.9695  -10.6563 C   0  0  0  0  0  0  0  0  0  0  0  0
   22.7259  -20.7347  -12.0207 C   0  0  2  0  0  0  0  0  0  0  0  0
   22.5406  -21.8946  -12.8683 N   0  0  0  0  0  0  0  0  0  0  0  0
   24.0196  -20.0631  -12.1515 C   0  0  0  0  0  0  0  0  0  0  0  0
   24.2559  -19.1230  -11.3503 O   0  0  0  0  0  0  0  0  0  0  0  0
   29.1530  -20.8685  -10.4520 C   0  0  0  0  0  0  0  0  0  0  0  0
   28.4847  -20.4055  -11.7446 C   0  0  0  0  0  0  0  0  0  0  0  0
   27.0243  -20.7604  -11.7974 C   0  0  2  0  0  0  0  0  0  0  0  0
   26.9439  -22.2586  -11.6808 C   0  0  0  0  0  0  0  0  0  0  0  0
   26.4149  -20.2769  -13.0614 C   0  0  2  0  0  0  0  0  0  0  0  0
   24.9739  -20.4022  -13.0946 N   0  0  0  0  0  0  0  0  0  0  0  0
   27.0014  -20.6960  -14.3344 C   0  0  0  0  0  0  0  0  0  0  0  0
   26.9269  -21.9727  -14.5800 O   0  0  0  0  0  0  0  0  0  0  0  0
   24.5317  -20.8412  -18.8205 N   0  0  0  0  0  0  0  0  0  0  0  0
   24.9975  -19.7600  -18.0342 C   0  0  0  0  0  0  0  0  0  0  0  0
   24.8742  -18.6077  -18.5391 O   0  0  0  0  0  0  0  0  0  0  0  0
   25.6020  -19.8461  -16.7063 C   0  0  0  0  0  0  0  0  0  0  0  0
   27.1032  -19.9422  -16.6955 C   0  0  2  0  0  0  0  0  0  0  0  0
   27.6213  -19.9281  -15.3204 N   0  0  0  0  0  0  0  0  0  0  0  0
   27.7512  -18.9132  -17.5213 C   0  0  0  0  0  0  0  0  0  0  0  0
   27.8182  -19.1008  -18.8889 O   0  0  0  0  0  0  0  0  0  0  0  0
   28.2435  -17.8756  -17.0319 O   0  0  0  0  0  0  0  0  0  0  0  0
  1  2  1  0
  2  4  1  0
  3  2  2  0
  4  5  1  0
  5  6  1  0
  6  7  1  1
  8  9  2  0
  8  6  1  0
 11 10  1  0
 11 12  1  0
 12 14  1  0
 12 13  1  6
 14 15  1  6
 15  8  1  0
 16 23  1  0
 16 14  1  0
 17 16  2  0
 18 19  1  0
 19 21  1  0
 20 19  2  0
 22 21  1  1
 22 23  1  0
 22 24  1  0
 24 25  1  0
 26 24  2  0
M  END
$$$$
