QIN.pdb
     RDKit          3D

 26 25  0  0  1  0  0  0  0  0999 V2000
   19.7452  -13.3623  -21.4483 N   0  0  0  0  0  0  0  0  0  0  0  0
   21.1483  -13.6506  -21.4959 C   0  0  0  0  0  0  0  0  0  0  0  0
   21.5278  -14.6199  -22.1561 O   0  0  0  0  0  0  0  0  0  0  0  0
   22.0527  -12.7834  -20.7574 C   0  0  0  0  0  0  0  0  0  0  0  0
   21.4468  -11.6661  -19.9747 C   0  0  0  0  0  0  0  0  0  0  0  0
   22.3755  -10.7841  -19.2201 C   0  0  2  0  0  0  0  0  0  0  0  0
   23.7058  -11.3531  -19.1537 N   0  0  0  0  0  0  0  0  0  0  0  0
   21.8974  -10.1623  -17.9846 C   0  0  0  0  0  0  0  0  0  0  0  0
   20.6906   -9.8094  -17.9556 O   0  0  0  0  0  0  0  0  0  0  0  0
   23.7542  -12.5565  -14.0200 C   0  0  0  0  0  0  0  0  0  0  0  0
   22.6279  -11.6459  -14.5041 C   0  0  0  0  0  0  0  0  0  0  0  0
   23.0009  -10.1901  -14.4512 C   0  0  2  0  0  0  0  0  0  0  0  0
   22.5566   -9.6836  -13.1055 C   0  0  0  0  0  0  0  0  0  0  0  0
   22.3514   -9.4442  -15.5579 C   0  0  2  0  0  0  0  0  0  0  0  0
   22.6911   -9.9455  -16.8718 N   0  0  0  0  0  0  0  0  0  0  0  0
   22.3809   -7.9817  -15.5372 C   0  0  0  0  0  0  0  0  0  0  0  0
   23.4790   -7.4476  -15.9895 O   0  0  0  0  0  0  0  0  0  0  0  0
   21.9453   -2.8260  -17.5021 N   0  0  0  0  0  0  0  0  0  0  0  0
   21.2444   -3.5900  -16.5381 C   0  0  0  0  0  0  0  0  0  0  0  0
   20.6101   -2.9373  -15.6609 O   0  0  0  0  0  0  0  0  0  0  0  0
   21.1834   -5.0482  -16.4594 C   0  0  0  0  0  0  0  0  0  0  0  0
   21.6663   -5.6361  -15.1617 C   0  0  2  0  0  0  0  0  0  0  0  0
   21.4049   -7.0813  -15.1094 N   0  0  0  0  0  0  0  0  0  0  0  0
   21.1197   -4.9513  -13.9815 C   0  0  0  0  0  0  0  0  0  0  0  0
   21.7686   -3.8293  -13.5018 O   0  0  0  0  0  0  0  0  0  0  0  0
   20.0901   -5.3465  -13.3964 O   0  0  0  0  0  0  0  0  0  0  0  0
  1  2  1  0
  2  4  1  0
  3  2  2  0
  4  5  1  0
  5  6  1  0
  6  7  1  1
  8  9  2  0
  8  6  1  0
 11 10  1  0
 11 12  1  0
 12 14  1  0
 12 13  1  1
 14 15  1  6
 15  8  1  0
 16 23  1  0
 16 14  1  0
 17 16  2  0
 18 19  1  0
 19 21  1  0
 20 19  2  0
 22 21  1  6
 22 23  1  0
 22 24  1  0
 24 25  1  0
 26 24  2  0
M  END
$$$$
