QIN.pdb
     RDKit          3D

 26 25  0  0  1  0  0  0  0  0999 V2000
   29.2080  -18.1145  -16.5841 N   0  0  0  0  0  0  0  0  0  0  0  0
   27.7876  -17.9294  -16.6309 C   0  0  0  0  0  0  0  0  0  0  0  0
   27.3040  -17.3275  -17.5918 O   0  0  0  0  0  0  0  0  0  0  0  0
   26.9897  -18.4602  -15.5368 C   0  0  0  0  0  0  0  0  0  0  0  0
   27.7114  -19.1828  -14.4481 C   0  0  0  0  0  0  0  0  0  0  0  0
   27.4767  -20.6462  -14.3330 C   0  0  2  0  0  0  0  0  0  0  0  0
   27.4449  -21.2790  -15.6355 N   0  0  0  0  0  0  0  0  0  0  0  0
   26.4695  -21.1184  -13.3821 C   0  0  0  0  0  0  0  0  0  0  0  0
   25.5444  -21.8352  -13.8425 O   0  0  0  0  0  0  0  0  0  0  0  0
   25.3701  -20.8491   -7.1927 C   0  0  0  0  0  0  0  0  0  0  0  0
   24.9318  -21.1514   -8.6239 C   0  0  0  0  0  0  0  0  0  0  0  0
   25.9351  -20.6885   -9.6438 C   0  0  2  0  0  0  0  0  0  0  0  0
   26.0982  -19.2063   -9.4411 C   0  0  0  0  0  0  0  0  0  0  0  0
   25.4679  -21.0044  -11.0167 C   0  0  2  0  0  0  0  0  0  0  0  0
   26.4829  -20.8191  -12.0310 N   0  0  0  0  0  0  0  0  0  0  0  0
   24.1821  -20.4703  -11.4661 C   0  0  0  0  0  0  0  0  0  0  0  0
   24.2326  -19.2739  -11.9777 O   0  0  0  0  0  0  0  0  0  0  0  0
   20.9480  -21.2808  -15.9083 N   0  0  0  0  0  0  0  0  0  0  0  0
   21.4163  -20.4671  -14.8486 C   0  0  0  0  0  0  0  0  0  0  0  0
   20.9589  -19.2895  -14.8037 O   0  0  0  0  0  0  0  0  0  0  0  0
   22.3693  -20.8534  -13.8099 C   0  0  0  0  0  0  0  0  0  0  0  0
   21.8905  -20.6480  -12.3988 C   0  0  2  0  0  0  0  0  0  0  0  0
   22.9171  -21.0573  -11.4301 N   0  0  0  0  0  0  0  0  0  0  0  0
   20.6054  -21.3074  -12.1259 C   0  0  0  0  0  0  0  0  0  0  0  0
   19.5106  -20.9816  -12.9039 O   0  0  0  0  0  0  0  0  0  0  0  0
   20.4668  -22.1513  -11.2164 O   0  0  0  0  0  0  0  0  0  0  0  0
  1  2  1  0
  2  4  1  0
  3  2  2  0
  4  5  1  0
  5  6  1  0
  6  7  1  6
  8  9  2  0
  8  6  1  0
 11 10  1  0
 11 12  1  0
 12 14  1  0
 12 13  1  6
 14 15  1  6
 15  8  1  0
 16 23  1  0
 16 14  1  0
 17 16  2  0
 18 19  1  0
 19 21  1  0
 20 19  2  0
 22 21  1  6
 22 23  1  0
 22 24  1  0
 24 25  1  0
 26 24  2  0
M  END
$$$$
