QIN.pdb
     RDKit          3D

 26 25  0  0  1  0  0  0  0  0999 V2000
   19.5296  -20.3180  -16.1790 N   0  0  0  0  0  0  0  0  0  0  0  0
   18.7873  -21.1327  -15.2627 C   0  0  0  0  0  0  0  0  0  0  0  0
   17.8098  -21.7530  -15.6858 O   0  0  0  0  0  0  0  0  0  0  0  0
   19.2263  -21.1816  -13.8769 C   0  0  0  0  0  0  0  0  0  0  0  0
   20.4961  -20.4762  -13.5333 C   0  0  0  0  0  0  0  0  0  0  0  0
   21.7668  -21.1197  -13.9590 C   0  0  2  0  0  0  0  0  0  0  0  0
   21.7164  -22.5560  -13.7790 N   0  0  0  0  0  0  0  0  0  0  0  0
   23.0303  -20.4847  -13.5824 C   0  0  0  0  0  0  0  0  0  0  0  0
   23.0502  -19.2274  -13.5590 O   0  0  0  0  0  0  0  0  0  0  0  0
   25.2581  -20.9320   -9.1182 C   0  0  0  0  0  0  0  0  0  0  0  0
   24.9087  -20.5483  -10.5544 C   0  0  0  0  0  0  0  0  0  0  0  0
   25.9279  -21.0378  -11.5458 C   0  0  2  0  0  0  0  0  0  0  0  0
   27.2276  -20.3686  -11.1886 C   0  0  0  0  0  0  0  0  0  0  0  0
   25.5074  -20.7112  -12.9313 C   0  0  2  0  0  0  0  0  0  0  0  0
   24.1803  -21.1841  -13.2604 N   0  0  0  0  0  0  0  0  0  0  0  0
   26.4372  -20.9681  -14.0311 C   0  0  0  0  0  0  0  0  0  0  0  0
   26.4488  -22.1957  -14.4655 O   0  0  0  0  0  0  0  0  0  0  0  0
   27.4422  -20.3234  -19.0819 N   0  0  0  0  0  0  0  0  0  0  0  0
   26.2575  -20.2842  -18.3079 C   0  0  0  0  0  0  0  0  0  0  0  0
   25.1690  -20.3096  -18.9502 O   0  0  0  0  0  0  0  0  0  0  0  0
   26.1714  -20.2177  -16.8504 C   0  0  0  0  0  0  0  0  0  0  0  0
   27.4947  -20.1894  -16.1355 C   0  0  2  0  0  0  0  0  0  0  0  0
   27.3051  -20.0907  -14.6816 N   0  0  0  0  0  0  0  0  0  0  0  0
   28.3929  -19.1360  -16.6299 C   0  0  0  0  0  0  0  0  0  0  0  0
   29.4761  -19.4954  -17.4093 O   0  0  0  0  0  0  0  0  0  0  0  0
   28.2127  -17.9281  -16.3711 O   0  0  0  0  0  0  0  0  0  0  0  0
  1  2  1  0
  2  4  1  0
  3  2  2  0
  4  5  1  0
  5  6  1  0
  6  7  1  1
  8  9  2  0
  8  6  1  0
 11 10  1  0
 11 12  1  0
 12 14  1  0
 12 13  1  1
 14 15  1  6
 15  8  1  0
 16 23  1  0
 16 14  1  0
 17 16  2  0
 18 19  1  0
 19 21  1  0
 20 19  2  0
 22 21  1  6
 22 23  1  0
 22 24  1  0
 24 25  1  0
 26 24  2  0
M  END
$$$$
