QIN.pdb
     RDKit          3D

 26 25  0  0  1  0  0  0  0  0999 V2000
   25.6246  -12.8815  -21.7859 N   0  0  0  0  0  0  0  0  0  0  0  0
   24.5432  -13.3313  -22.6120 C   0  0  0  0  0  0  0  0  0  0  0  0
   24.8101  -13.9059  -23.6693 O   0  0  0  0  0  0  0  0  0  0  0  0
   23.1837  -13.0819  -22.1591 C   0  0  0  0  0  0  0  0  0  0  0  0
   23.0125  -12.3237  -20.8847 C   0  0  0  0  0  0  0  0  0  0  0  0
   23.3402  -13.0361  -19.6218 C   0  0  2  0  0  0  0  0  0  0  0  0
   22.6668  -14.3163  -19.5486 N   0  0  0  0  0  0  0  0  0  0  0  0
   23.3665  -12.2695  -18.3754 C   0  0  0  0  0  0  0  0  0  0  0  0
   22.3212  -12.2848  -17.6762 O   0  0  0  0  0  0  0  0  0  0  0  0
   27.8016  -12.2921  -15.3360 C   0  0  0  0  0  0  0  0  0  0  0  0
   26.3565  -12.1673  -15.8135 C   0  0  0  0  0  0  0  0  0  0  0  0
   25.9951  -10.7582  -16.1943 C   0  0  2  0  0  0  0  0  0  0  0  0
   26.0992   -9.9358  -14.9383 C   0  0  0  0  0  0  0  0  0  0  0  0
   24.6278  -10.7071  -16.7695 C   0  0  2  0  0  0  0  0  0  0  0  0
   24.4599  -11.5421  -17.9391 N   0  0  0  0  0  0  0  0  0  0  0  0
   23.9924   -9.4042  -16.9670 C   0  0  0  0  0  0  0  0  0  0  0  0
   24.6383   -8.5912  -17.7530 O   0  0  0  0  0  0  0  0  0  0  0  0
   19.7653   -8.7681  -16.1348 N   0  0  0  0  0  0  0  0  0  0  0  0
   20.0506   -8.1828  -17.3919 C   0  0  0  0  0  0  0  0  0  0  0  0
   19.1333   -8.2467  -18.2594 O   0  0  0  0  0  0  0  0  0  0  0  0
   21.2924   -7.5173  -17.7808 C   0  0  0  0  0  0  0  0  0  0  0  0
   22.3772   -7.5354  -16.7389 C   0  0  2  0  0  0  0  0  0  0  0  0
   22.7978   -8.9117  -16.4412 N   0  0  0  0  0  0  0  0  0  0  0  0
   22.0095   -6.8122  -15.5131 C   0  0  0  0  0  0  0  0  0  0  0  0
   21.6632   -5.4774  -15.6052 O   0  0  0  0  0  0  0  0  0  0  0  0
   21.9986   -7.3601  -14.3914 O   0  0  0  0  0  0  0  0  0  0  0  0
  1  2  1  0
  2  4  1  0
  3  2  2  0
  4  5  1  0
  5  6  1  0
  6  7  1  1
  8  9  2  0
  8  6  1  0
 11 10  1  0
 11 12  1  0
 12 14  1  0
 12 13  1  1
 14 15  1  6
 15  8  1  0
 16 23  1  0
 16 14  1  0
 17 16  2  0
 18 19  1  0
 19 21  1  0
 20 19  2  0
 22 21  1  6
 22 23  1  0
 22 24  1  0
 24 25  1  0
 26 24  2  0
M  END
$$$$
