KNN.pdb
     RDKit          3D

 26 25  0  0  1  0  0  0  0  0999 V2000
   18.5895  -13.0009  -16.1450 N   0  0  0  0  0  0  0  0  0  0  0  0
   18.5479  -11.8462  -17.0192 C   0  0  1  0  0  0  0  0  0  0  0  0
   17.4412  -11.8944  -18.0222 C   0  0  0  0  0  0  0  0  0  0  0  0
   17.4645  -13.0971  -18.9196 C   0  0  0  0  0  0  0  0  0  0  0  0
   16.1664  -13.8423  -18.9895 C   0  0  0  0  0  0  0  0  0  0  0  0
   16.2687  -15.0437  -19.9242 C   0  0  0  0  0  0  0  0  0  0  0  0
   16.9885  -16.0803  -19.2064 N   0  0  0  0  0  0  0  0  0  0  0  0
   18.7270  -10.5616  -16.3329 C   0  0  0  0  0  0  0  0  0  0  0  0
   17.7380  -10.0320  -15.8014 O   0  0  0  0  0  0  0  0  0  0  0  0
   20.3874   -6.2009  -14.3001 N   0  0  0  0  0  0  0  0  0  0  0  0
   21.4040   -7.1976  -14.0767 C   0  0  0  0  0  0  0  0  0  0  0  0
   22.3252   -6.8513  -13.3066 O   0  0  0  0  0  0  0  0  0  0  0  0
   21.2961   -8.5186  -14.7487 C   0  0  0  0  0  0  0  0  0  0  0  0
   20.0800   -8.5963  -15.6457 C   0  0  2  0  0  0  0  0  0  0  0  0
   19.9713   -9.8828  -16.2408 N   0  0  0  0  0  0  0  0  0  0  0  0
   20.2159   -7.5015  -16.6529 C   0  0  0  0  0  0  0  0  0  0  0  0
   20.8235   -7.6546  -17.7231 O   0  0  0  0  0  0  0  0  0  0  0  0
   18.2646   -4.0697  -20.5497 N   0  0  0  0  0  0  0  0  0  0  0  0
   19.0864   -4.1122  -19.3953 C   0  0  0  0  0  0  0  0  0  0  0  0
   19.7819   -3.1126  -19.1459 O   0  0  0  0  0  0  0  0  0  0  0  0
   19.0705   -5.3332  -18.5600 C   0  0  0  0  0  0  0  0  0  0  0  0
   19.4662   -5.1177  -17.1457 C   0  0  2  0  0  0  0  0  0  0  0  0
   19.6104   -6.2620  -16.3283 N   0  0  0  0  0  0  0  0  0  0  0  0
   18.7446   -3.9749  -16.5123 C   0  0  0  0  0  0  0  0  0  0  0  0
   17.5654   -4.1737  -16.0364 O   0  0  0  0  0  0  0  0  0  0  0  0
   19.2006   -2.6955  -16.3760 O   0  0  0  0  0  0  0  0  0  0  0  0
  2  1  1  1
  3  2  1  0
  4  3  1  0
  4  5  1  0
  6  5  1  0
  7  6  1  0
  8  9  2  0
  8  2  1  0
 10 11  1  0
 11 12  2  0
 11 13  1  0
 14 13  1  1
 14 15  1  0
 15  8  1  0
 16 23  1  0
 16 14  1  0
 17 16  2  0
 19 18  1  0
 20 19  2  0
 21 19  1  0
 22 21  1  6
 22 23  1  0
 24 26  1  0
 24 22  1  0
 25 24  2  0
M  END
$$$$
