KNN.pdb
     RDKit          3D

 26 25  0  0  1  0  0  0  0  0999 V2000
   25.5320  -18.7551  -16.0625 N   0  0  0  0  0  0  0  0  0  0  0  0
   26.2812  -19.9812  -15.8769 C   0  0  1  0  0  0  0  0  0  0  0  0
   27.7499  -19.8256  -16.1045 C   0  0  0  0  0  0  0  0  0  0  0  0
   28.1128  -18.8811  -17.2129 C   0  0  0  0  0  0  0  0  0  0  0  0
   29.5860  -18.7397  -17.4480 C   0  0  0  0  0  0  0  0  0  0  0  0
   29.8740  -17.7384  -18.5624 C   0  0  0  0  0  0  0  0  0  0  0  0
   31.3110  -17.5325  -18.5874 N   0  0  0  0  0  0  0  0  0  0  0  0
   25.9014  -20.7471  -14.6842 C   0  0  0  0  0  0  0  0  0  0  0  0
   26.4781  -21.8241  -14.4645 O   0  0  0  0  0  0  0  0  0  0  0  0
   26.8978  -21.4897  -11.1628 N   0  0  0  0  0  0  0  0  0  0  0  0
   25.9770  -20.5065  -10.6504 C   0  0  0  0  0  0  0  0  0  0  0  0
   26.3555  -19.9139   -9.6173 O   0  0  0  0  0  0  0  0  0  0  0  0
   24.6899  -20.2702  -11.3544 C   0  0  0  0  0  0  0  0  0  0  0  0
   24.5765  -21.1007  -12.6142 C   0  0  2  0  0  0  0  0  0  0  0  0
   24.9063  -20.3282  -13.7612 N   0  0  0  0  0  0  0  0  0  0  0  0
   23.1815  -21.6335  -12.6559 C   0  0  0  0  0  0  0  0  0  0  0  0
   22.5635  -21.9593  -11.6312 O   0  0  0  0  0  0  0  0  0  0  0  0
   18.8648  -21.5707  -13.1367 N   0  0  0  0  0  0  0  0  0  0  0  0
   19.4896  -20.3073  -12.9840 C   0  0  0  0  0  0  0  0  0  0  0  0
   18.9094  -19.4579  -12.2862 O   0  0  0  0  0  0  0  0  0  0  0  0
   20.7855  -20.0728  -13.6583 C   0  0  0  0  0  0  0  0  0  0  0  0
   21.3340  -21.2555  -14.3679 C   0  0  2  0  0  0  0  0  0  0  0  0
   22.5854  -21.7514  -13.9362 N   0  0  0  0  0  0  0  0  0  0  0  0
   21.1643  -21.1701  -15.8485 C   0  0  0  0  0  0  0  0  0  0  0  0
   19.9769  -21.0503  -16.3303 O   0  0  0  0  0  0  0  0  0  0  0  0
   22.1539  -21.2095  -16.7878 O   0  0  0  0  0  0  0  0  0  0  0  0
  2  1  1  1
  3  2  1  0
  4  3  1  0
  4  5  1  0
  6  5  1  0
  7  6  1  0
  8  9  2  0
  8  2  1  0
 10 11  1  0
 11 12  2  0
 11 13  1  0
 14 13  1  1
 14 15  1  0
 15  8  1  0
 16 23  1  0
 16 14  1  0
 17 16  2  0
 19 18  1  0
 20 19  2  0
 21 19  1  0
 22 21  1  1
 22 23  1  0
 24 26  1  0
 24 22  1  0
 25 24  2  0
M  END
$$$$
