KNN.pdb
     RDKit          3D

 26 25  0  0  1  0  0  0  0  0999 V2000
   17.3825  -13.7524  -18.3983 N   0  0  0  0  0  0  0  0  0  0  0  0
   17.5308  -13.3874  -17.0041 C   0  0  1  0  0  0  0  0  0  0  0  0
   17.6389  -14.5616  -16.0861 C   0  0  0  0  0  0  0  0  0  0  0  0
   16.5102  -15.5446  -16.1950 C   0  0  0  0  0  0  0  0  0  0  0  0
   15.3933  -15.3145  -15.2229 C   0  0  0  0  0  0  0  0  0  0  0  0
   15.1978  -16.5213  -14.3103 C   0  0  0  0  0  0  0  0  0  0  0  0
   14.0854  -16.2124  -13.4299 N   0  0  0  0  0  0  0  0  0  0  0  0
   18.4885  -12.3021  -16.7619 C   0  0  0  0  0  0  0  0  0  0  0  0
   18.6157  -11.8730  -15.6041 O   0  0  0  0  0  0  0  0  0  0  0  0
   22.5195   -9.2111  -16.9920 N   0  0  0  0  0  0  0  0  0  0  0  0
   22.2686   -9.5619  -18.3671 C   0  0  0  0  0  0  0  0  0  0  0  0
   23.1034   -9.1227  -19.1867 O   0  0  0  0  0  0  0  0  0  0  0  0
   21.0823  -10.3893  -18.7081 C   0  0  0  0  0  0  0  0  0  0  0  0
   20.2468  -10.7059  -17.4868 C   0  0  2  0  0  0  0  0  0  0  0  0
   19.2824  -11.7087  -17.7793 N   0  0  0  0  0  0  0  0  0  0  0  0
   19.6295   -9.4207  -17.0411 C   0  0  0  0  0  0  0  0  0  0  0  0
   18.6035   -8.9597  -17.5636 O   0  0  0  0  0  0  0  0  0  0  0  0
   21.3964   -8.3284  -13.1575 N   0  0  0  0  0  0  0  0  0  0  0  0
   20.0326   -8.0273  -12.9136 C   0  0  0  0  0  0  0  0  0  0  0  0
   19.6231   -8.1161  -11.7434 O   0  0  0  0  0  0  0  0  0  0  0  0
   19.1810   -7.6283  -14.0559 C   0  0  0  0  0  0  0  0  0  0  0  0
   19.8956   -7.5318  -15.3533 C   0  0  2  0  0  0  0  0  0  0  0  0
   20.2760   -8.7411  -15.9787 N   0  0  0  0  0  0  0  0  0  0  0  0
   20.9359   -6.4614  -15.3609 C   0  0  0  0  0  0  0  0  0  0  0  0
   20.6325   -5.2990  -14.8990 O   0  0  0  0  0  0  0  0  0  0  0  0
   22.2168   -6.5703  -15.8200 O   0  0  0  0  0  0  0  0  0  0  0  0
  2  1  1  6
  3  2  1  0
  4  3  1  0
  4  5  1  0
  6  5  1  0
  7  6  1  0
  8  9  2  0
  8  2  1  0
 10 11  1  0
 11 12  2  0
 11 13  1  0
 14 13  1  6
 14 15  1  0
 15  8  1  0
 16 23  1  0
 16 14  1  0
 17 16  2  0
 19 18  1  0
 20 19  2  0
 21 19  1  0
 22 21  1  1
 22 23  1  0
 24 26  1  0
 24 22  1  0
 25 24  2  0
M  END
$$$$
