KNN.pdb
     RDKit          3D

 26 25  0  0  1  0  0  0  0  0999 V2000
   22.4844  -12.8704  -17.7967 N   0  0  0  0  0  0  0  0  0  0  0  0
   21.6902  -12.3509  -16.7020 C   0  0  1  0  0  0  0  0  0  0  0  0
   21.1009  -13.4141  -15.8328 C   0  0  0  0  0  0  0  0  0  0  0  0
   20.5304  -14.5847  -16.5789 C   0  0  0  0  0  0  0  0  0  0  0  0
   20.7130  -15.9043  -15.8928 C   0  0  0  0  0  0  0  0  0  0  0  0
   20.0637  -17.0340  -16.6863 C   0  0  0  0  0  0  0  0  0  0  0  0
   20.2526  -18.2535  -15.9213 N   0  0  0  0  0  0  0  0  0  0  0  0
   22.3018  -11.2198  -15.9950 C   0  0  0  0  0  0  0  0  0  0  0  0
   21.9751  -11.0132  -14.8153 O   0  0  0  0  0  0  0  0  0  0  0  0
   25.4594  -11.2695  -15.0856 N   0  0  0  0  0  0  0  0  0  0  0  0
   26.0803  -10.1374  -15.7259 C   0  0  0  0  0  0  0  0  0  0  0  0
   27.3247  -10.2002  -15.8225 O   0  0  0  0  0  0  0  0  0  0  0  0
   25.2359   -9.0146  -16.2101 C   0  0  0  0  0  0  0  0  0  0  0  0
   23.7750   -9.2245  -15.8769 C   0  0  2  0  0  0  0  0  0  0  0  0
   23.2500  -10.3409  -16.5834 N   0  0  0  0  0  0  0  0  0  0  0  0
   23.0701   -7.9485  -16.2032 C   0  0  0  0  0  0  0  0  0  0  0  0
   22.9181   -7.5524  -17.3686 O   0  0  0  0  0  0  0  0  0  0  0  0
   20.4905   -3.5867  -15.4581 N   0  0  0  0  0  0  0  0  0  0  0  0
   19.7092   -4.7293  -15.1519 C   0  0  0  0  0  0  0  0  0  0  0  0
   18.4821   -4.5728  -15.0303 O   0  0  0  0  0  0  0  0  0  0  0  0
   20.3924   -6.0323  -14.9952 C   0  0  0  0  0  0  0  0  0  0  0  0
   21.8693   -5.9742  -15.1320 C   0  0  2  0  0  0  0  0  0  0  0  0
   22.5742   -7.1993  -15.1073 N   0  0  0  0  0  0  0  0  0  0  0  0
   22.4807   -4.8764  -14.3263 C   0  0  0  0  0  0  0  0  0  0  0  0
   22.6432   -5.0523  -13.0618 O   0  0  0  0  0  0  0  0  0  0  0  0
   22.8998   -3.6614  -14.7863 O   0  0  0  0  0  0  0  0  0  0  0  0
  2  1  1  1
  3  2  1  0
  4  3  1  0
  4  5  1  0
  6  5  1  0
  7  6  1  0
  8  9  2  0
  8  2  1  0
 10 11  1  0
 11 12  2  0
 11 13  1  0
 14 13  1  6
 14 15  1  0
 15  8  1  0
 16 23  1  0
 16 14  1  0
 17 16  2  0
 19 18  1  0
 20 19  2  0
 21 19  1  0
 22 21  1  1
 22 23  1  0
 24 26  1  0
 24 22  1  0
 25 24  2  0
M  END
$$$$
