KNN.pdb
     RDKit          3D

 26 25  0  0  1  0  0  0  0  0999 V2000
   17.9745  -12.3109  -14.8483 N   0  0  0  0  0  0  0  0  0  0  0  0
   17.4945  -11.2370  -15.6940 C   0  0  1  0  0  0  0  0  0  0  0  0
   16.5846  -11.6967  -16.7868 C   0  0  0  0  0  0  0  0  0  0  0  0
   16.8363  -13.0986  -17.2597 C   0  0  0  0  0  0  0  0  0  0  0  0
   15.9734  -13.5290  -18.4067 C   0  0  0  0  0  0  0  0  0  0  0  0
   16.3043  -14.9529  -18.8431 C   0  0  0  0  0  0  0  0  0  0  0  0
   15.4094  -15.2803  -19.9385 N   0  0  0  0  0  0  0  0  0  0  0  0
   17.0560  -10.0421  -14.9636 C   0  0  0  0  0  0  0  0  0  0  0  0
   16.1381   -9.3586  -15.4446 O   0  0  0  0  0  0  0  0  0  0  0  0
   14.7864   -9.6168  -10.7218 N   0  0  0  0  0  0  0  0  0  0  0  0
   16.1071   -9.9306  -11.2058 C   0  0  0  0  0  0  0  0  0  0  0  0
   16.3518  -11.1503  -11.3245 O   0  0  0  0  0  0  0  0  0  0  0  0
   17.0539   -8.8292  -11.5196 C   0  0  0  0  0  0  0  0  0  0  0  0
   17.0890   -8.5218  -13.0008 C   0  0  2  0  0  0  0  0  0  0  0  0
   17.6232   -9.6174  -13.7326 N   0  0  0  0  0  0  0  0  0  0  0  0
   17.8893   -7.2710  -13.1633 C   0  0  0  0  0  0  0  0  0  0  0  0
   17.5025   -6.1739  -12.7334 O   0  0  0  0  0  0  0  0  0  0  0  0
   21.0891   -4.1724  -12.9624 N   0  0  0  0  0  0  0  0  0  0  0  0
   21.9575   -5.2711  -13.1831 C   0  0  0  0  0  0  0  0  0  0  0  0
   23.1292   -5.1696  -12.7810 O   0  0  0  0  0  0  0  0  0  0  0  0
   21.4249   -6.4661  -13.8740 C   0  0  0  0  0  0  0  0  0  0  0  0
   19.9975   -6.3650  -14.2686 C   0  0  2  0  0  0  0  0  0  0  0  0
   19.1288   -7.3942  -13.8392 N   0  0  0  0  0  0  0  0  0  0  0  0
   19.8201   -5.9388  -15.6881 C   0  0  0  0  0  0  0  0  0  0  0  0
   19.9187   -6.8234  -16.6178 O   0  0  0  0  0  0  0  0  0  0  0  0
   19.5605   -4.6756  -16.1354 O   0  0  0  0  0  0  0  0  0  0  0  0
  2  1  1  1
  3  2  1  0
  4  3  1  0
  4  5  1  0
  6  5  1  0
  7  6  1  0
  8  9  2  0
  8  2  1  0
 10 11  1  0
 11 12  2  0
 11 13  1  0
 14 13  1  1
 14 15  1  0
 15  8  1  0
 16 23  1  0
 16 14  1  0
 17 16  2  0
 19 18  1  0
 20 19  2  0
 21 19  1  0
 22 21  1  6
 22 23  1  0
 24 26  1  0
 24 22  1  0
 25 24  2  0
M  END
$$$$
