KNN.pdb
     RDKit          3D

 26 25  0  0  1  0  0  0  0  0999 V2000
   13.8005  -11.4927  -12.3688 N   0  0  0  0  0  0  0  0  0  0  0  0
   15.1353  -10.9405  -12.2577 C   0  0  1  0  0  0  0  0  0  0  0  0
   16.0450  -11.3448  -13.3722 C   0  0  0  0  0  0  0  0  0  0  0  0
   16.1372  -12.8259  -13.5963 C   0  0  0  0  0  0  0  0  0  0  0  0
   17.1018  -13.2306  -14.6691 C   0  0  0  0  0  0  0  0  0  0  0  0
   17.0024  -14.7236  -14.9669 C   0  0  0  0  0  0  0  0  0  0  0  0
   17.9550  -15.0101  -16.0245 N   0  0  0  0  0  0  0  0  0  0  0  0
   15.1734   -9.5202  -11.8908 C   0  0  0  0  0  0  0  0  0  0  0  0
   14.6250   -8.6999  -12.6440 O   0  0  0  0  0  0  0  0  0  0  0  0
   16.0889   -5.3218   -7.5752 N   0  0  0  0  0  0  0  0  0  0  0  0
   15.5933   -5.8051   -8.8392 C   0  0  0  0  0  0  0  0  0  0  0  0
   15.2612   -4.9166   -9.6528 O   0  0  0  0  0  0  0  0  0  0  0  0
   15.5125   -7.2686   -9.0840 C   0  0  0  0  0  0  0  0  0  0  0  0
   15.9583   -7.6307  -10.4839 C   0  0  2  0  0  0  0  0  0  0  0  0
   15.8053   -9.0245  -10.7192 N   0  0  0  0  0  0  0  0  0  0  0  0
   17.3736   -7.1724  -10.6184 C   0  0  0  0  0  0  0  0  0  0  0  0
   18.2717   -7.5546   -9.8533 O   0  0  0  0  0  0  0  0  0  0  0  0
   22.2067   -5.5248  -11.5358 N   0  0  0  0  0  0  0  0  0  0  0  0
   21.3039   -5.8627  -12.5754 C   0  0  0  0  0  0  0  0  0  0  0  0
   21.6192   -5.5509  -13.7366 O   0  0  0  0  0  0  0  0  0  0  0  0
   20.0480   -6.5608  -12.2226 C   0  0  0  0  0  0  0  0  0  0  0  0
   18.8838   -5.6650  -12.0093 C   0  0  2  0  0  0  0  0  0  0  0  0
   17.6503   -6.2689  -11.6747 N   0  0  0  0  0  0  0  0  0  0  0  0
   18.7994   -4.5762  -13.0269 C   0  0  0  0  0  0  0  0  0  0  0  0
   19.4417   -3.4808  -12.8172 O   0  0  0  0  0  0  0  0  0  0  0  0
   18.0930   -4.6024  -14.1947 O   0  0  0  0  0  0  0  0  0  0  0  0
  2  1  1  6
  3  2  1  0
  4  3  1  0
  4  5  1  0
  6  5  1  0
  7  6  1  0
  8  9  2  0
  8  2  1  0
 10 11  1  0
 11 12  2  0
 11 13  1  0
 14 13  1  1
 14 15  1  0
 15  8  1  0
 16 23  1  0
 16 14  1  0
 17 16  2  0
 19 18  1  0
 20 19  2  0
 21 19  1  0
 22 21  1  6
 22 23  1  0
 24 26  1  0
 24 22  1  0
 25 24  2  0
M  END
$$$$
