KNN.pdb
     RDKit          3D

 26 25  0  0  1  0  0  0  0  0999 V2000
   24.3900  -21.8076  -15.9173 N   0  0  0  0  0  0  0  0  0  0  0  0
   24.9596  -21.3773  -14.6566 C   0  0  1  0  0  0  0  0  0  0  0  0
   26.1452  -20.4807  -14.8103 C   0  0  0  0  0  0  0  0  0  0  0  0
   26.8925  -20.6504  -16.1007 C   0  0  0  0  0  0  0  0  0  0  0  0
   27.8660  -21.7896  -16.1068 C   0  0  0  0  0  0  0  0  0  0  0  0
   28.7480  -21.7558  -17.3512 C   0  0  0  0  0  0  0  0  0  0  0  0
   29.6558  -22.8852  -17.2592 N   0  0  0  0  0  0  0  0  0  0  0  0
   23.9698  -20.9552  -13.6588 C   0  0  0  0  0  0  0  0  0  0  0  0
   24.3729  -20.4025  -12.6229 O   0  0  0  0  0  0  0  0  0  0  0  0
   19.1132  -18.1655  -12.1151 N   0  0  0  0  0  0  0  0  0  0  0  0
   20.3579  -18.8493  -11.8699 C   0  0  0  0  0  0  0  0  0  0  0  0
   20.6673  -18.9709  -10.6652 O   0  0  0  0  0  0  0  0  0  0  0  0
   21.1605  -19.3455  -13.0179 C   0  0  0  0  0  0  0  0  0  0  0  0
   21.6509  -20.7591  -12.7929 C   0  0  2  0  0  0  0  0  0  0  0  0
   22.5698  -21.1436  -13.8073 N   0  0  0  0  0  0  0  0  0  0  0  0
   20.4408  -21.6335  -12.7454 C   0  0  0  0  0  0  0  0  0  0  0  0
   19.8706  -22.0355  -13.7708 O   0  0  0  0  0  0  0  0  0  0  0  0
   19.5688  -24.5286   -7.8536 N   0  0  0  0  0  0  0  0  0  0  0  0
   19.1667  -24.4183   -9.2086 C   0  0  0  0  0  0  0  0  0  0  0  0
   19.2717  -25.4286   -9.9251 O   0  0  0  0  0  0  0  0  0  0  0  0
   18.6496  -23.1181   -9.6896 C   0  0  0  0  0  0  0  0  0  0  0  0
   18.8946  -22.8517  -11.1291 C   0  0  2  0  0  0  0  0  0  0  0  0
   19.9656  -21.9901  -11.4588 N   0  0  0  0  0  0  0  0  0  0  0  0
   17.6351  -22.6166  -11.8949 C   0  0  0  0  0  0  0  0  0  0  0  0
   17.2633  -21.4050  -12.1196 O   0  0  0  0  0  0  0  0  0  0  0  0
   16.7968  -23.5678  -12.4006 O   0  0  0  0  0  0  0  0  0  0  0  0
  2  1  1  6
  3  2  1  0
  4  3  1  0
  4  5  1  0
  6  5  1  0
  7  6  1  0
  8  9  2  0
  8  2  1  0
 10 11  1  0
 11 12  2  0
 11 13  1  0
 14 13  1  6
 14 15  1  0
 15  8  1  0
 16 23  1  0
 16 14  1  0
 17 16  2  0
 19 18  1  0
 20 19  2  0
 21 19  1  0
 22 21  1  1
 22 23  1  0
 24 26  1  0
 24 22  1  0
 25 24  2  0
M  END
$$$$
