KNN.pdb
     RDKit          3D

 26 25  0  0  1  0  0  0  0  0999 V2000
   15.7567  -11.0622  -16.1854 N   0  0  0  0  0  0  0  0  0  0  0  0
   16.3526  -11.1408  -14.8672 C   0  0  1  0  0  0  0  0  0  0  0  0
   16.2602  -12.4979  -14.2484 C   0  0  0  0  0  0  0  0  0  0  0  0
   15.0652  -13.2986  -14.6765 C   0  0  0  0  0  0  0  0  0  0  0  0
   15.0139  -14.6848  -14.1096 C   0  0  0  0  0  0  0  0  0  0  0  0
   13.7206  -15.3937  -14.5000 C   0  0  0  0  0  0  0  0  0  0  0  0
   14.0827  -16.7334  -14.9266 N   0  0  0  0  0  0  0  0  0  0  0  0
   17.6573  -10.4787  -14.7530 C   0  0  0  0  0  0  0  0  0  0  0  0
   18.1663  -10.3651  -13.6266 O   0  0  0  0  0  0  0  0  0  0  0  0
   21.7953  -12.1907  -16.9112 N   0  0  0  0  0  0  0  0  0  0  0  0
   21.6204  -10.9030  -16.2882 C   0  0  0  0  0  0  0  0  0  0  0  0
   22.3752  -10.6768  -15.3183 O   0  0  0  0  0  0  0  0  0  0  0  0
   20.5961   -9.9654  -16.8174 C   0  0  0  0  0  0  0  0  0  0  0  0
   19.6941   -9.4403  -15.7219 C   0  0  2  0  0  0  0  0  0  0  0  0
   18.3763   -9.9556  -15.8607 N   0  0  0  0  0  0  0  0  0  0  0  0
   19.7443   -7.9494  -15.7989 C   0  0  0  0  0  0  0  0  0  0  0  0
   20.8026   -7.3131  -15.6832 O   0  0  0  0  0  0  0  0  0  0  0  0
   17.8872   -3.1421  -16.0900 N   0  0  0  0  0  0  0  0  0  0  0  0
   17.6682   -3.8292  -17.3106 C   0  0  0  0  0  0  0  0  0  0  0  0
   17.3200   -3.1567  -18.2962 O   0  0  0  0  0  0  0  0  0  0  0  0
   17.8645   -5.2954  -17.3422 C   0  0  0  0  0  0  0  0  0  0  0  0
   18.2625   -5.8922  -16.0427 C   0  0  2  0  0  0  0  0  0  0  0  0
   18.5121   -7.2832  -16.0142 N   0  0  0  0  0  0  0  0  0  0  0  0
   17.4592   -5.3702  -14.8979 C   0  0  0  0  0  0  0  0  0  0  0  0
   17.2856   -4.0994  -14.7911 O   0  0  0  0  0  0  0  0  0  0  0  0
   16.8684   -6.1061  -13.9117 O   0  0  0  0  0  0  0  0  0  0  0  0
  2  1  1  6
  3  2  1  0
  4  3  1  0
  4  5  1  0
  6  5  1  0
  7  6  1  0
  8  9  2  0
  8  2  1  0
 10 11  1  0
 11 12  2  0
 11 13  1  0
 14 13  1  6
 14 15  1  0
 15  8  1  0
 16 23  1  0
 16 14  1  0
 17 16  2  0
 19 18  1  0
 20 19  2  0
 21 19  1  0
 22 21  1  6
 22 23  1  0
 24 26  1  0
 24 22  1  0
 25 24  2  0
M  END
$$$$
