KNN.pdb
     RDKit          3D

 26 25  0  0  1  0  0  0  0  0999 V2000
   28.0710  -20.4832  -15.9899 N   0  0  0  0  0  0  0  0  0  0  0  0
   27.2186  -21.6534  -15.9349 C   0  0  1  0  0  0  0  0  0  0  0  0
   27.9004  -22.9114  -16.3662 C   0  0  0  0  0  0  0  0  0  0  0  0
   29.0596  -22.7051  -17.2969 C   0  0  0  0  0  0  0  0  0  0  0  0
   28.6799  -22.5880  -18.7417 C   0  0  0  0  0  0  0  0  0  0  0  0
   29.9138  -22.4414  -19.6270 C   0  0  0  0  0  0  0  0  0  0  0  0
   29.4415  -22.2772  -20.9900 N   0  0  0  0  0  0  0  0  0  0  0  0
   26.4105  -21.7559  -14.7143 C   0  0  0  0  0  0  0  0  0  0  0  0
   25.5114  -22.6107  -14.6703 O   0  0  0  0  0  0  0  0  0  0  0  0
   24.1237  -21.1911  -10.2134 N   0  0  0  0  0  0  0  0  0  0  0  0
   25.5052  -20.8372  -10.0053 C   0  0  0  0  0  0  0  0  0  0  0  0
   25.8373  -20.6784   -8.8111 O   0  0  0  0  0  0  0  0  0  0  0  0
   26.4087  -20.6899  -11.1758 C   0  0  0  0  0  0  0  0  0  0  0  0
   25.6871  -20.9491  -12.4803 C   0  0  2  0  0  0  0  0  0  0  0  0
   26.5954  -20.9297  -13.5738 N   0  0  0  0  0  0  0  0  0  0  0  0
   24.6186  -19.9116  -12.5960 C   0  0  0  0  0  0  0  0  0  0  0  0
   24.8737  -18.7133  -12.7889 O   0  0  0  0  0  0  0  0  0  0  0  0
   21.3536  -18.3187  -16.4006 N   0  0  0  0  0  0  0  0  0  0  0  0
   21.1541  -19.3316  -15.4289 C   0  0  0  0  0  0  0  0  0  0  0  0
   19.9903  -19.7221  -15.2339 O   0  0  0  0  0  0  0  0  0  0  0  0
   22.3321  -19.8620  -14.7078 C   0  0  0  0  0  0  0  0  0  0  0  0
   22.1549  -19.9775  -13.2385 C   0  0  2  0  0  0  0  0  0  0  0  0
   23.2805  -20.3626  -12.4751 N   0  0  0  0  0  0  0  0  0  0  0  0
   20.8760  -20.6493  -12.8627 C   0  0  0  0  0  0  0  0  0  0  0  0
   19.8485  -19.9214  -12.5963 O   0  0  0  0  0  0  0  0  0  0  0  0
   20.6586  -21.9930  -12.7596 O   0  0  0  0  0  0  0  0  0  0  0  0
  2  1  1  1
  3  2  1  0
  4  3  1  0
  4  5  1  0
  6  5  1  0
  7  6  1  0
  8  9  2  0
  8  2  1  0
 10 11  1  0
 11 12  2  0
 11 13  1  0
 14 13  1  1
 14 15  1  0
 15  8  1  0
 16 23  1  0
 16 14  1  0
 17 16  2  0
 19 18  1  0
 20 19  2  0
 21 19  1  0
 22 21  1  6
 22 23  1  0
 24 26  1  0
 24 22  1  0
 25 24  2  0
M  END
$$$$
