KNN.pdb
     RDKit          3D

 26 25  0  0  1  0  0  0  0  0999 V2000
   18.6519  -16.0472  -18.5866 N   0  0  0  0  0  0  0  0  0  0  0  0
   18.0757  -14.8800  -17.9504 C   0  0  1  0  0  0  0  0  0  0  0  0
   17.5469  -15.1459  -16.5783 C   0  0  0  0  0  0  0  0  0  0  0  0
   16.4975  -16.2166  -16.5108 C   0  0  0  0  0  0  0  0  0  0  0  0
   16.8978  -17.4266  -15.7228 C   0  0  0  0  0  0  0  0  0  0  0  0
   15.7666  -18.4487  -15.6669 C   0  0  0  0  0  0  0  0  0  0  0  0
   14.6575  -17.8174  -14.9746 N   0  0  0  0  0  0  0  0  0  0  0  0
   18.8721  -13.6563  -18.0976 C   0  0  0  0  0  0  0  0  0  0  0  0
   20.1072  -13.7396  -18.0043 O   0  0  0  0  0  0  0  0  0  0  0  0
   20.6789   -9.0315  -19.1496 N   0  0  0  0  0  0  0  0  0  0  0  0
   19.3187   -9.0254  -19.6256 C   0  0  0  0  0  0  0  0  0  0  0  0
   19.0111   -8.0461  -20.3383 O   0  0  0  0  0  0  0  0  0  0  0  0
   18.4067  -10.1382  -19.2538 C   0  0  0  0  0  0  0  0  0  0  0  0
   19.1227  -11.2136  -18.4661 C   0  0  2  0  0  0  0  0  0  0  0  0
   18.3111  -12.3741  -18.3405 N   0  0  0  0  0  0  0  0  0  0  0  0
   19.4842  -10.6138  -17.1467 C   0  0  0  0  0  0  0  0  0  0  0  0
   19.5433  -11.2848  -16.1053 O   0  0  0  0  0  0  0  0  0  0  0  0
   21.2313   -8.4113  -12.7182 N   0  0  0  0  0  0  0  0  0  0  0  0
   21.6190   -8.0834  -14.0419 C   0  0  0  0  0  0  0  0  0  0  0  0
   22.2856   -7.0474  -14.2073 O   0  0  0  0  0  0  0  0  0  0  0  0
   21.2116   -8.9847  -15.1422 C   0  0  0  0  0  0  0  0  0  0  0  0
   20.1788   -8.4231  -16.0486 C   0  0  2  0  0  0  0  0  0  0  0  0
   19.7619   -9.2241  -17.1361 N   0  0  0  0  0  0  0  0  0  0  0  0
   20.4181   -6.9867  -16.3762 C   0  0  0  0  0  0  0  0  0  0  0  0
   21.0846   -6.6959  -17.4381 O   0  0  0  0  0  0  0  0  0  0  0  0
   20.0030   -5.9042  -15.6554 O   0  0  0  0  0  0  0  0  0  0  0  0
  2  1  1  1
  3  2  1  0
  4  3  1  0
  4  5  1  0
  6  5  1  0
  7  6  1  0
  8  9  2  0
  8  2  1  0
 10 11  1  0
 11 12  2  0
 11 13  1  0
 14 13  1  6
 14 15  1  0
 15  8  1  0
 16 23  1  0
 16 14  1  0
 17 16  2  0
 19 18  1  0
 20 19  2  0
 21 19  1  0
 22 21  1  6
 22 23  1  0
 24 26  1  0
 24 22  1  0
 25 24  2  0
M  END
$$$$
