KNN.pdb
     RDKit          3D

 26 25  0  0  1  0  0  0  0  0999 V2000
   28.1912  -21.6509  -16.2455 N   0  0  0  0  0  0  0  0  0  0  0  0
   27.7132  -20.6001  -15.3701 C   0  0  1  0  0  0  0  0  0  0  0  0
   27.5451  -19.2818  -16.0535 C   0  0  0  0  0  0  0  0  0  0  0  0
   28.6759  -18.9027  -16.9645 C   0  0  0  0  0  0  0  0  0  0  0  0
   28.5966  -19.5066  -18.3336 C   0  0  0  0  0  0  0  0  0  0  0  0
   29.7185  -18.9918  -19.2303 C   0  0  0  0  0  0  0  0  0  0  0  0
   29.5611  -19.6381  -20.5209 N   0  0  0  0  0  0  0  0  0  0  0  0
   26.6119  -21.0026  -14.4878 C   0  0  0  0  0  0  0  0  0  0  0  0
   26.0060  -22.0561  -14.7410 O   0  0  0  0  0  0  0  0  0  0  0  0
   24.5893  -21.7389   -9.2313 N   0  0  0  0  0  0  0  0  0  0  0  0
   24.2343  -20.7511  -10.2188 C   0  0  0  0  0  0  0  0  0  0  0  0
   23.0271  -20.4285  -10.2352 O   0  0  0  0  0  0  0  0  0  0  0  0
   25.2831  -20.2022  -11.1170 C   0  0  0  0  0  0  0  0  0  0  0  0
   25.1021  -20.6689  -12.5449 C   0  0  2  0  0  0  0  0  0  0  0  0
   26.1939  -20.2538  -13.3554 N   0  0  0  0  0  0  0  0  0  0  0  0
   23.7924  -20.1250  -13.0142 C   0  0  0  0  0  0  0  0  0  0  0  0
   23.6806  -18.9906  -13.5029 O   0  0  0  0  0  0  0  0  0  0  0  0
   23.2005  -19.9773  -16.8039 N   0  0  0  0  0  0  0  0  0  0  0  0
   22.0510  -20.1117  -15.9852 C   0  0  0  0  0  0  0  0  0  0  0  0
   21.2376  -19.1718  -15.9749 O   0  0  0  0  0  0  0  0  0  0  0  0
   21.8857  -21.3520  -15.1957 C   0  0  0  0  0  0  0  0  0  0  0  0
   21.5756  -21.1327  -13.7608 C   0  0  2  0  0  0  0  0  0  0  0  0
   22.6664  -20.9743  -12.8757 N   0  0  0  0  0  0  0  0  0  0  0  0
   20.4822  -22.0195  -13.2646 C   0  0  0  0  0  0  0  0  0  0  0  0
   20.5873  -22.5350  -12.0900 O   0  0  0  0  0  0  0  0  0  0  0  0
   19.3440  -22.3657  -13.9339 O   0  0  0  0  0  0  0  0  0  0  0  0
  2  1  1  6
  3  2  1  0
  4  3  1  0
  4  5  1  0
  6  5  1  0
  7  6  1  0
  8  9  2  0
  8  2  1  0
 10 11  1  0
 11 12  2  0
 11 13  1  0
 14 13  1  1
 14 15  1  0
 15  8  1  0
 16 23  1  0
 16 14  1  0
 17 16  2  0
 19 18  1  0
 20 19  2  0
 21 19  1  0
 22 21  1  6
 22 23  1  0
 24 26  1  0
 24 22  1  0
 25 24  2  0
M  END
$$$$
