KNN.pdb
     RDKit          3D

 26 25  0  0  1  0  0  0  0  0999 V2000
   27.2366  -16.8974  -16.0284 N   0  0  0  0  0  0  0  0  0  0  0  0
   27.3165  -18.2710  -16.4819 C   0  0  1  0  0  0  0  0  0  0  0  0
   28.6026  -18.6012  -17.1676 C   0  0  0  0  0  0  0  0  0  0  0  0
   29.0686  -17.5675  -18.1508 C   0  0  0  0  0  0  0  0  0  0  0  0
   30.4789  -17.7530  -18.6219 C   0  0  0  0  0  0  0  0  0  0  0  0
   30.8787  -16.6629  -19.6115 C   0  0  0  0  0  0  0  0  0  0  0  0
   32.2815  -16.8677  -19.9252 N   0  0  0  0  0  0  0  0  0  0  0  0
   26.8471  -19.2589  -15.5035 C   0  0  0  0  0  0  0  0  0  0  0  0
   27.6502  -20.1112  -15.0916 O   0  0  0  0  0  0  0  0  0  0  0  0
   26.3997  -22.1134  -11.2924 N   0  0  0  0  0  0  0  0  0  0  0  0
   25.6440  -20.9382  -11.6457 C   0  0  0  0  0  0  0  0  0  0  0  0
   24.6408  -20.7195  -10.9333 O   0  0  0  0  0  0  0  0  0  0  0  0
   26.0879  -20.0966  -12.7871 C   0  0  0  0  0  0  0  0  0  0  0  0
   25.1411  -20.1982  -13.9631 C   0  0  2  0  0  0  0  0  0  0  0  0
   25.5205  -19.2996  -14.9974 N   0  0  0  0  0  0  0  0  0  0  0  0
   23.7690  -19.9301  -13.4370 C   0  0  0  0  0  0  0  0  0  0  0  0
   23.4773  -18.8798  -12.8455 O   0  0  0  0  0  0  0  0  0  0  0  0
   18.6685  -20.2807  -13.6198 N   0  0  0  0  0  0  0  0  0  0  0  0
   19.3132  -20.1410  -14.8747 C   0  0  0  0  0  0  0  0  0  0  0  0
   18.6136  -19.8149  -15.8490 O   0  0  0  0  0  0  0  0  0  0  0  0
   20.7696  -20.3894  -14.9534 C   0  0  0  0  0  0  0  0  0  0  0  0
   21.3924  -20.8147  -13.6749 C   0  0  2  0  0  0  0  0  0  0  0  0
   22.7999  -20.9426  -13.6471 N   0  0  0  0  0  0  0  0  0  0  0  0
   20.6435  -21.9204  -13.0080 C   0  0  0  0  0  0  0  0  0  0  0  0
   20.8784  -23.1334  -13.3683 O   0  0  0  0  0  0  0  0  0  0  0  0
   19.7013  -21.7942  -12.0284 O   0  0  0  0  0  0  0  0  0  0  0  0
  2  1  1  1
  3  2  1  0
  4  3  1  0
  4  5  1  0
  6  5  1  0
  7  6  1  0
  8  9  2  0
  8  2  1  0
 10 11  1  0
 11 12  2  0
 11 13  1  0
 14 13  1  1
 14 15  1  0
 15  8  1  0
 16 23  1  0
 16 14  1  0
 17 16  2  0
 19 18  1  0
 20 19  2  0
 21 19  1  0
 22 21  1  6
 22 23  1  0
 24 26  1  0
 24 22  1  0
 25 24  2  0
M  END
$$$$
