VVF.pdb
     RDKit          3D

 26 26  0  0  1  0  0  0  0  0999 V2000
    8.4938  -12.5566   21.2888 C   0  0  0  0  0  0  0  0  0  0  0  0
    7.7876  -13.0928   20.0662 C   0  0  1  0  0  0  0  0  0  0  0  0
    7.7302  -12.0319   19.0224 C   0  0  0  0  0  0  0  0  0  0  0  0
    8.4726  -14.3159   19.5522 C   0  0  2  0  0  0  0  0  0  0  0  0
    7.6421  -14.8218   18.4369 N   0  0  0  0  0  0  0  0  0  0  0  0
    8.4865  -15.3684   20.5794 C   0  0  0  0  0  0  0  0  0  0  0  0
    7.3947  -15.9635   20.8558 O   0  0  0  0  0  0  0  0  0  0  0  0
   10.6473  -19.1396   22.8072 C   0  0  0  0  0  0  0  0  0  0  0  0
   10.4992  -17.9976   21.8504 C   0  0  1  0  0  0  0  0  0  0  0  0
   10.1284  -18.5866   20.5022 C   0  0  0  0  0  0  0  0  0  0  0  0
    9.5001  -16.9427   22.2664 C   0  0  2  0  0  0  0  0  0  0  0  0
    9.6103  -15.8100   21.3162 N   0  0  0  0  0  0  0  0  0  0  0  0
    9.6992  -16.4388   23.6433 C   0  0  0  0  0  0  0  0  0  0  0  0
   10.6819  -15.6678   23.9260 O   0  0  0  0  0  0  0  0  0  0  0  0
    8.8627  -16.7376   24.7443 N   0  0  0  0  0  0  0  0  0  0  0  0
    9.1305  -16.2532   26.0974 C   0  0  1  0  0  0  0  0  0  0  0  0
    7.7639  -15.8812   26.6599 C   0  0  0  0  0  0  0  0  0  0  0  0
    7.3609  -14.5045   26.3614 C   0  0  0  0  0  0  0  0  0  0  0  0
    8.0238  -13.3883   26.8332 C   0  0  0  0  0  0  0  0  0  0  0  0
    7.6183  -12.0981   26.5324 C   0  0  0  0  0  0  0  0  0  0  0  0
    6.5175  -11.8860   25.7361 C   0  0  0  0  0  0  0  0  0  0  0  0
    5.8353  -12.9764   25.2503 C   0  0  0  0  0  0  0  0  0  0  0  0
    6.2455  -14.2569   25.5544 C   0  0  0  0  0  0  0  0  0  0  0  0
    9.8470  -17.2374   26.9062 C   0  0  0  0  0  0  0  0  0  0  0  0
    9.7828  -18.4676   26.6828 O   0  0  0  0  0  0  0  0  0  0  0  0
   10.6306  -16.8097   27.9621 O   0  0  0  0  0  0  0  0  0  0  0  0
  2  1  1  1
  2  3  1  0
  4  6  1  0
  4  2  1  0
  4  5  1  6
  6  7  2  0
  9  8  1  1
 10  9  1  0
 11  9  1  0
 11 12  1  6
 12  6  1  0
 13 14  2  0
 13 11  1  0
 15 13  1  0
 16 15  1  0
 16 17  1  1
 18 19  2  0
 18 17  1  0
 20 19  1  0
 21 20  2  0
 22 21  1  0
 22 23  2  0
 23 18  1  0
 24 16  1  0
 24 26  1  0
 25 24  2  0
M  END
$$$$
