VVF.pdb
     RDKit          3D

 26 26  0  0  1  0  0  0  0  0999 V2000
    8.7323  -13.0088   20.3907 C   0  0  0  0  0  0  0  0  0  0  0  0
    7.8278  -13.6241   19.3494 C   0  0  1  0  0  0  0  0  0  0  0  0
    8.1254  -13.0250   18.0187 C   0  0  0  0  0  0  0  0  0  0  0  0
    7.9879  -15.1083   19.3186 C   0  0  2  0  0  0  0  0  0  0  0  0
    7.0162  -15.6123   18.3229 N   0  0  0  0  0  0  0  0  0  0  0  0
    7.6082  -15.6941   20.6130 C   0  0  0  0  0  0  0  0  0  0  0  0
    6.5051  -15.3389   21.1418 O   0  0  0  0  0  0  0  0  0  0  0  0
    7.3446  -19.1718   24.0013 C   0  0  0  0  0  0  0  0  0  0  0  0
    7.7123  -18.5614   22.6846 C   0  0  1  0  0  0  0  0  0  0  0  0
    6.6307  -18.9475   21.6929 C   0  0  0  0  0  0  0  0  0  0  0  0
    7.9059  -17.0626   22.7084 C   0  0  2  0  0  0  0  0  0  0  0  0
    8.3510  -16.6387   21.3593 N   0  0  0  0  0  0  0  0  0  0  0  0
    8.8933  -16.6020   23.7095 C   0  0  0  0  0  0  0  0  0  0  0  0
   10.1497  -16.7508   23.5110 O   0  0  0  0  0  0  0  0  0  0  0  0
    8.5714  -15.9738   24.9354 N   0  0  0  0  0  0  0  0  0  0  0  0
    9.5860  -15.5468   25.8974 C   0  0  1  0  0  0  0  0  0  0  0  0
    9.5520  -14.0238   25.8555 C   0  0  0  0  0  0  0  0  0  0  0  0
    8.2576  -13.4546   26.2393 C   0  0  0  0  0  0  0  0  0  0  0  0
    7.1449  -13.4503   25.4210 C   0  0  0  0  0  0  0  0  0  0  0  0
    5.9333  -12.9045   25.8133 C   0  0  0  0  0  0  0  0  0  0  0  0
    5.8002  -12.3373   27.0588 C   0  0  0  0  0  0  0  0  0  0  0  0
    6.8894  -12.3255   27.8977 C   0  0  0  0  0  0  0  0  0  0  0  0
    8.0913  -12.8708   27.4996 C   0  0  0  0  0  0  0  0  0  0  0  0
    9.3532  -16.1000   27.2300 C   0  0  0  0  0  0  0  0  0  0  0  0
    8.3166  -16.7383   27.5223 O   0  0  0  0  0  0  0  0  0  0  0  0
   10.3048  -15.9205   28.2171 O   0  0  0  0  0  0  0  0  0  0  0  0
  2  1  1  1
  2  3  1  0
  4  6  1  0
  4  2  1  0
  4  5  1  6
  6  7  2  0
  9  8  1  1
 10  9  1  0
 11  9  1  0
 11 12  1  6
 12  6  1  0
 13 14  2  0
 13 11  1  0
 15 13  1  0
 16 15  1  0
 16 17  1  1
 18 19  2  0
 18 17  1  0
 20 19  1  0
 21 20  2  0
 22 21  1  0
 22 23  2  0
 23 18  1  0
 24 16  1  0
 24 26  1  0
 25 24  2  0
M  END
$$$$
