VVF.pdb
     RDKit          3D

 26 26  0  0  1  0  0  0  0  0999 V2000
    7.8626  -20.9052   20.0356 C   0  0  0  0  0  0  0  0  0  0  0  0
    8.2901  -19.6268   20.7167 C   0  0  1  0  0  0  0  0  0  0  0  0
    9.6262  -19.8232   21.3448 C   0  0  0  0  0  0  0  0  0  0  0  0
    8.3137  -18.4917   19.7469 C   0  0  2  0  0  0  0  0  0  0  0  0
    9.4033  -18.7836   18.7892 N   0  0  0  0  0  0  0  0  0  0  0  0
    8.6749  -17.2395   20.4284 C   0  0  0  0  0  0  0  0  0  0  0  0
    9.9082  -16.9824   20.6158 O   0  0  0  0  0  0  0  0  0  0  0  0
    7.7081  -12.6621   22.1324 C   0  0  0  0  0  0  0  0  0  0  0  0
    7.3820  -13.9149   21.3802 C   0  0  1  0  0  0  0  0  0  0  0  0
    7.4333  -13.5772   19.9019 C   0  0  0  0  0  0  0  0  0  0  0  0
    8.2733  -15.0954   21.6906 C   0  0  2  0  0  0  0  0  0  0  0  0
    7.7800  -16.2566   20.9120 N   0  0  0  0  0  0  0  0  0  0  0  0
    8.3109  -15.4567   23.1250 C   0  0  0  0  0  0  0  0  0  0  0  0
    7.3248  -16.0583   23.6779 O   0  0  0  0  0  0  0  0  0  0  0  0
    9.3913  -15.1921   23.9990 N   0  0  0  0  0  0  0  0  0  0  0  0
    9.3431  -15.4865   25.4301 C   0  0  1  0  0  0  0  0  0  0  0  0
    7.8800  -15.3113   25.8190 C   0  0  0  0  0  0  0  0  0  0  0  0
    7.5003  -13.9175   26.0637 C   0  0  0  0  0  0  0  0  0  0  0  0
    6.2117  -13.4366   25.9373 C   0  0  0  0  0  0  0  0  0  0  0  0
    5.8836  -12.1119   26.1767 C   0  0  0  0  0  0  0  0  0  0  0  0
    6.8549  -11.2156   26.5562 C   0  0  0  0  0  0  0  0  0  0  0  0
    8.1481  -11.6627   26.6911 C   0  0  0  0  0  0  0  0  0  0  0  0
    8.4660  -12.9825   26.4510 C   0  0  0  0  0  0  0  0  0  0  0  0
    9.8756  -16.8116   25.7412 C   0  0  0  0  0  0  0  0  0  0  0  0
   10.0656  -17.2022   26.9153 O   0  0  0  0  0  0  0  0  0  0  0  0
   10.1863  -17.6793   24.7103 O   0  0  0  0  0  0  0  0  0  0  0  0
  2  1  1  6
  2  3  1  0
  4  6  1  0
  4  2  1  0
  4  5  1  6
  6  7  2  0
  9  8  1  1
 10  9  1  0
 11  9  1  0
 11 12  1  6
 12  6  1  0
 13 14  2  0
 13 11  1  0
 15 13  1  0
 16 15  1  0
 16 17  1  6
 18 19  2  0
 18 17  1  0
 20 19  1  0
 21 20  2  0
 22 21  1  0
 22 23  2  0
 23 18  1  0
 24 16  1  0
 24 26  1  0
 25 24  2  0
M  END
$$$$
