VVF.pdb
     RDKit          3D

 26 26  0  0  1  0  0  0  0  0999 V2000
    8.3735  -12.7104   21.3316 C   0  0  0  0  0  0  0  0  0  0  0  0
    7.7225  -13.3158   20.1106 C   0  0  1  0  0  0  0  0  0  0  0  0
    7.5385  -12.2624   19.0739 C   0  0  0  0  0  0  0  0  0  0  0  0
    8.5363  -14.4516   19.5842 C   0  0  2  0  0  0  0  0  0  0  0  0
    7.7497  -15.0546   18.4855 N   0  0  0  0  0  0  0  0  0  0  0  0
    8.6932  -15.4922   20.6116 C   0  0  0  0  0  0  0  0  0  0  0  0
    7.7119  -16.2702   20.8447 O   0  0  0  0  0  0  0  0  0  0  0  0
   11.3433  -18.8545   22.9544 C   0  0  0  0  0  0  0  0  0  0  0  0
   11.0773  -17.7302   22.0022 C   0  0  1  0  0  0  0  0  0  0  0  0
   10.9060  -18.3403   20.6235 C   0  0  0  0  0  0  0  0  0  0  0  0
    9.8905  -16.8633   22.3547 C   0  0  2  0  0  0  0  0  0  0  0  0
    9.8471  -15.7362   21.3926 N   0  0  0  0  0  0  0  0  0  0  0  0
    9.9321  -16.3217   23.7311 C   0  0  0  0  0  0  0  0  0  0  0  0
   10.8115  -15.4549   24.0706 O   0  0  0  0  0  0  0  0  0  0  0  0
    9.0443  -16.6835   24.7712 N   0  0  0  0  0  0  0  0  0  0  0  0
    9.1848  -16.1905   26.1403 C   0  0  1  0  0  0  0  0  0  0  0  0
    7.7669  -15.8509   26.5839 C   0  0  0  0  0  0  0  0  0  0  0  0
    7.3804  -14.4654   26.3053 C   0  0  0  0  0  0  0  0  0  0  0  0
    6.2697  -14.1095   25.5653 C   0  0  0  0  0  0  0  0  0  0  0  0
    5.9298  -12.7890   25.3195 C   0  0  0  0  0  0  0  0  0  0  0  0
    6.7070  -11.7696   25.8171 C   0  0  0  0  0  0  0  0  0  0  0  0
    7.8200  -12.0905   26.5579 C   0  0  0  0  0  0  0  0  0  0  0  0
    8.1511  -13.4071   26.7978 C   0  0  0  0  0  0  0  0  0  0  0  0
    9.8538  -17.1556   27.0105 C   0  0  0  0  0  0  0  0  0  0  0  0
    9.8685  -18.3837   26.7679 O   0  0  0  0  0  0  0  0  0  0  0  0
   10.5003  -16.7113   28.1491 O   0  0  0  0  0  0  0  0  0  0  0  0
  2  1  1  1
  2  3  1  0
  4  6  1  0
  4  2  1  0
  4  5  1  6
  6  7  2  0
  9  8  1  1
 10  9  1  0
 11  9  1  0
 11 12  1  6
 12  6  1  0
 13 14  2  0
 13 11  1  0
 15 13  1  0
 16 15  1  0
 16 17  1  1
 18 19  2  0
 18 17  1  0
 20 19  1  0
 21 20  2  0
 22 21  1  0
 22 23  2  0
 23 18  1  0
 24 16  1  0
 24 26  1  0
 25 24  2  0
M  END
$$$$
