VVF.pdb
     RDKit          3D

 26 26  0  0  1  0  0  0  0  0999 V2000
    7.7632  -11.6727   25.3372 C   0  0  0  0  0  0  0  0  0  0  0  0
    6.7775  -12.4072   26.2148 C   0  0  1  0  0  0  0  0  0  0  0  0
    5.9230  -11.4209   26.9327 C   0  0  0  0  0  0  0  0  0  0  0  0
    5.9478  -13.3494   25.4065 C   0  0  2  0  0  0  0  0  0  0  0  0
    5.0767  -14.0655   26.3646 N   0  0  0  0  0  0  0  0  0  0  0  0
    6.7975  -14.3655   24.7675 C   0  0  0  0  0  0  0  0  0  0  0  0
    7.1682  -15.3702   25.4572 O   0  0  0  0  0  0  0  0  0  0  0  0
    6.8273  -15.5873   20.7841 C   0  0  0  0  0  0  0  0  0  0  0  0
    8.1628  -15.3591   21.4213 C   0  0  1  0  0  0  0  0  0  0  0  0
    8.6689  -14.0142   20.9342 C   0  0  0  0  0  0  0  0  0  0  0  0
    8.1669  -15.4172   22.9316 C   0  0  2  0  0  0  0  0  0  0  0  0
    7.2621  -14.3545   23.4315 N   0  0  0  0  0  0  0  0  0  0  0  0
    9.5058  -15.2343   23.5344 C   0  0  0  0  0  0  0  0  0  0  0  0
    9.8392  -14.1201   24.0704 O   0  0  0  0  0  0  0  0  0  0  0  0
   10.5140  -16.2253   23.5845 N   0  0  0  0  0  0  0  0  0  0  0  0
   11.3707  -16.4258   24.7519 C   0  0  1  0  0  0  0  0  0  0  0  0
   10.4194  -16.8210   25.8750 C   0  0  0  0  0  0  0  0  0  0  0  0
   10.2212  -15.7681   26.8744 C   0  0  0  0  0  0  0  0  0  0  0  0
   11.0800  -15.5378   27.9314 C   0  0  0  0  0  0  0  0  0  0  0  0
   10.8656  -14.5327   28.8606 C   0  0  0  0  0  0  0  0  0  0  0  0
    9.7648  -13.7154   28.7552 C   0  0  0  0  0  0  0  0  0  0  0  0
    8.8901  -13.9186   27.7140 C   0  0  0  0  0  0  0  0  0  0  0  0
    9.1109  -14.9211   26.7937 C   0  0  0  0  0  0  0  0  0  0  0  0
   12.4229  -17.4096   24.5042 C   0  0  0  0  0  0  0  0  0  0  0  0
   13.4664  -17.4672   25.1935 O   0  0  0  0  0  0  0  0  0  0  0  0
   12.2753  -18.3188   23.4729 O   0  0  0  0  0  0  0  0  0  0  0  0
  2  1  1  6
  2  3  1  0
  4  6  1  0
  4  2  1  0
  4  5  1  1
  6  7  2  0
  9  8  1  1
 10  9  1  0
 11  9  1  0
 11 12  1  1
 12  6  1  0
 13 14  2  0
 13 11  1  0
 15 13  1  0
 16 15  1  0
 16 17  1  1
 18 19  2  0
 18 17  1  0
 20 19  1  0
 21 20  2  0
 22 21  1  0
 22 23  2  0
 23 18  1  0
 24 16  1  0
 24 26  1  0
 25 24  2  0
M  END
$$$$
