VVF.pdb
     RDKit          3D

 26 26  0  0  1  0  0  0  0  0999 V2000
    6.8121  -19.1217   25.4123 C   0  0  0  0  0  0  0  0  0  0  0  0
    6.9853  -20.0532   24.2361 C   0  0  1  0  0  0  0  0  0  0  0  0
    6.2983  -21.3436   24.5210 C   0  0  0  0  0  0  0  0  0  0  0  0
    6.4609  -19.4299   22.9847 C   0  0  2  0  0  0  0  0  0  0  0  0
    6.5852  -20.4544   21.9243 N   0  0  0  0  0  0  0  0  0  0  0  0
    7.3077  -18.2979   22.5792 C   0  0  0  0  0  0  0  0  0  0  0  0
    8.4480  -18.5435   22.0673 O   0  0  0  0  0  0  0  0  0  0  0  0
    7.9751  -13.4195   21.6472 C   0  0  0  0  0  0  0  0  0  0  0  0
    7.1556  -14.6504   21.8819 C   0  0  1  0  0  0  0  0  0  0  0  0
    6.3463  -14.8978   20.6226 C   0  0  0  0  0  0  0  0  0  0  0  0
    7.9473  -15.8812   22.2594 C   0  0  2  0  0  0  0  0  0  0  0  0
    6.9884  -16.9247   22.6946 N   0  0  0  0  0  0  0  0  0  0  0  0
    8.9334  -15.6515   23.3384 C   0  0  0  0  0  0  0  0  0  0  0  0
   10.0443  -15.0609   23.0996 O   0  0  0  0  0  0  0  0  0  0  0  0
    8.7621  -16.0383   24.6883 N   0  0  0  0  0  0  0  0  0  0  0  0
    9.8216  -15.9160   25.6882 C   0  0  1  0  0  0  0  0  0  0  0  0
    9.9457  -14.4196   25.9491 C   0  0  0  0  0  0  0  0  0  0  0  0
    8.7079  -13.8033   26.4334 C   0  0  0  0  0  0  0  0  0  0  0  0
    8.6588  -12.5951   27.1009 C   0  0  0  0  0  0  0  0  0  0  0  0
    7.4713  -12.0373   27.5463 C   0  0  0  0  0  0  0  0  0  0  0  0
    6.2781  -12.6859   27.3316 C   0  0  0  0  0  0  0  0  0  0  0  0
    6.2925  -13.8911   26.6699 C   0  0  0  0  0  0  0  0  0  0  0  0
    7.4786  -14.4391   26.2300 C   0  0  0  0  0  0  0  0  0  0  0  0
    9.5407  -16.6974   26.8910 C   0  0  0  0  0  0  0  0  0  0  0  0
   10.2673  -16.6502   27.9094 O   0  0  0  0  0  0  0  0  0  0  0  0
    8.4337  -17.5253   26.9214 O   0  0  0  0  0  0  0  0  0  0  0  0
  2  1  1  1
  2  3  1  0
  4  6  1  0
  4  2  1  0
  4  5  1  6
  6  7  2  0
  9  8  1  6
 10  9  1  0
 11  9  1  0
 11 12  1  1
 12  6  1  0
 13 14  2  0
 13 11  1  0
 15 13  1  0
 16 15  1  0
 16 17  1  1
 18 19  2  0
 18 17  1  0
 20 19  1  0
 21 20  2  0
 22 21  1  0
 22 23  2  0
 23 18  1  0
 24 16  1  0
 24 26  1  0
 25 24  2  0
M  END
$$$$
