VVF.pdb
     RDKit          3D

 26 26  0  0  1  0  0  0  0  0999 V2000
    8.3500  -12.6944   21.3024 C   0  0  0  0  0  0  0  0  0  0  0  0
    7.6284  -13.2428   20.0943 C   0  0  1  0  0  0  0  0  0  0  0  0
    7.5736  -12.1985   19.0339 C   0  0  0  0  0  0  0  0  0  0  0  0
    8.2962  -14.4814   19.5950 C   0  0  2  0  0  0  0  0  0  0  0  0
    7.4379  -15.0106   18.5119 N   0  0  0  0  0  0  0  0  0  0  0  0
    8.3294  -15.5084   20.6471 C   0  0  0  0  0  0  0  0  0  0  0  0
    7.2450  -16.1032   20.9517 O   0  0  0  0  0  0  0  0  0  0  0  0
   10.5087  -19.2183   22.9538 C   0  0  0  0  0  0  0  0  0  0  0  0
   10.4053  -18.0682   22.0009 C   0  0  1  0  0  0  0  0  0  0  0  0
   10.1220  -18.6471   20.6273 C   0  0  0  0  0  0  0  0  0  0  0  0
    9.3715  -17.0281   22.3666 C   0  0  2  0  0  0  0  0  0  0  0  0
    9.4651  -15.9253   21.3802 N   0  0  0  0  0  0  0  0  0  0  0  0
    9.5359  -16.4730   23.7284 C   0  0  0  0  0  0  0  0  0  0  0  0
   10.5182  -15.7011   24.0099 O   0  0  0  0  0  0  0  0  0  0  0  0
    8.6646  -16.7208   24.8149 N   0  0  0  0  0  0  0  0  0  0  0  0
    8.9271  -16.2338   26.1681 C   0  0  1  0  0  0  0  0  0  0  0  0
    7.5695  -15.7847   26.6950 C   0  0  0  0  0  0  0  0  0  0  0  0
    7.2707  -14.3763   26.4234 C   0  0  0  0  0  0  0  0  0  0  0  0
    6.0917  -13.9346   25.8554 C   0  0  0  0  0  0  0  0  0  0  0  0
    5.8381  -12.5946   25.6114 C   0  0  0  0  0  0  0  0  0  0  0  0
    6.7755  -11.6421   25.9354 C   0  0  0  0  0  0  0  0  0  0  0  0
    7.9601  -12.0491   26.5024 C   0  0  0  0  0  0  0  0  0  0  0  0
    8.2044  -13.3846   26.7419 C   0  0  0  0  0  0  0  0  0  0  0  0
    9.5736  -17.2433   27.0042 C   0  0  0  0  0  0  0  0  0  0  0  0
   10.1691  -16.9561   28.0673 O   0  0  0  0  0  0  0  0  0  0  0  0
    9.5348  -18.5712   26.6205 O   0  0  0  0  0  0  0  0  0  0  0  0
  2  1  1  1
  2  3  1  0
  4  6  1  0
  4  2  1  0
  4  5  1  6
  6  7  2  0
  9  8  1  1
 10  9  1  0
 11  9  1  0
 11 12  1  6
 12  6  1  0
 13 14  2  0
 13 11  1  0
 15 13  1  0
 16 15  1  0
 16 17  1  1
 18 19  2  0
 18 17  1  0
 20 19  1  0
 21 20  2  0
 22 21  1  0
 22 23  2  0
 23 18  1  0
 24 16  1  0
 24 26  1  0
 25 24  2  0
M  END
$$$$
