VVF.pdb
     RDKit          3D

 26 26  0  0  1  0  0  0  0  0999 V2000
    8.2120  -12.7135   21.1467 C   0  0  0  0  0  0  0  0  0  0  0  0
    7.5918  -13.3055   19.9032 C   0  0  1  0  0  0  0  0  0  0  0  0
    7.4343  -12.2409   18.8736 C   0  0  0  0  0  0  0  0  0  0  0  0
    8.4183  -14.4360   19.3854 C   0  0  2  0  0  0  0  0  0  0  0  0
    7.6626  -15.0226   18.2565 N   0  0  0  0  0  0  0  0  0  0  0  0
    8.5435  -15.4906   20.4028 C   0  0  0  0  0  0  0  0  0  0  0  0
    7.5335  -16.2290   20.6416 O   0  0  0  0  0  0  0  0  0  0  0  0
   11.0853  -18.9411   22.7599 C   0  0  0  0  0  0  0  0  0  0  0  0
   10.8653  -17.8108   21.8029 C   0  0  1  0  0  0  0  0  0  0  0  0
   10.7007  -18.4173   20.4219 C   0  0  0  0  0  0  0  0  0  0  0  0
    9.6963  -16.9123   22.1353 C   0  0  2  0  0  0  0  0  0  0  0  0
    9.6952  -15.7887   21.1682 N   0  0  0  0  0  0  0  0  0  0  0  0
    9.7327  -16.3660   23.5100 C   0  0  0  0  0  0  0  0  0  0  0  0
   10.6478  -15.5445   23.8674 O   0  0  0  0  0  0  0  0  0  0  0  0
    8.8020  -16.6750   24.5295 N   0  0  0  0  0  0  0  0  0  0  0  0
    8.9357  -16.1840   25.8999 C   0  0  1  0  0  0  0  0  0  0  0  0
    7.5300  -15.7554   26.3035 C   0  0  0  0  0  0  0  0  0  0  0  0
    7.3374  -14.3029   26.3076 C   0  0  0  0  0  0  0  0  0  0  0  0
    8.3196  -13.3966   26.6563 C   0  0  0  0  0  0  0  0  0  0  0  0
    8.1068  -12.0275   26.6496 C   0  0  0  0  0  0  0  0  0  0  0  0
    6.8819  -11.5188   26.2869 C   0  0  0  0  0  0  0  0  0  0  0  0
    5.8825  -12.3947   25.9341 C   0  0  0  0  0  0  0  0  0  0  0  0
    6.1026  -13.7556   25.9435 C   0  0  0  0  0  0  0  0  0  0  0  0
    9.5204  -17.1835   26.7917 C   0  0  0  0  0  0  0  0  0  0  0  0
   10.1621  -16.8741   27.8212 O   0  0  0  0  0  0  0  0  0  0  0  0
    9.3676  -18.5268   26.5015 O   0  0  0  0  0  0  0  0  0  0  0  0
  2  1  1  1
  2  3  1  0
  4  6  1  0
  4  2  1  0
  4  5  1  6
  6  7  2  0
  9  8  1  1
 10  9  1  0
 11  9  1  0
 11 12  1  6
 12  6  1  0
 13 14  2  0
 13 11  1  0
 15 13  1  0
 16 15  1  0
 16 17  1  1
 18 19  2  0
 18 17  1  0
 20 19  1  0
 21 20  2  0
 22 21  1  0
 22 23  2  0
 23 18  1  0
 24 16  1  0
 24 26  1  0
 25 24  2  0
M  END
$$$$
