VVF.pdb
     RDKit          3D

 26 26  0  0  1  0  0  0  0  0999 V2000
    8.8095  -12.5615   21.5351 C   0  0  0  0  0  0  0  0  0  0  0  0
    7.7943  -13.3081   20.7025 C   0  0  1  0  0  0  0  0  0  0  0  0
    7.3114  -12.4270   19.6031 C   0  0  0  0  0  0  0  0  0  0  0  0
    8.3784  -14.5714   20.1617 C   0  0  2  0  0  0  0  0  0  0  0  0
    7.3285  -15.1910   19.3230 N   0  0  0  0  0  0  0  0  0  0  0  0
    8.6599  -15.5168   21.2524 C   0  0  0  0  0  0  0  0  0  0  0  0
    7.7249  -16.2866   21.6471 O   0  0  0  0  0  0  0  0  0  0  0  0
   12.2481  -18.5202   22.7657 C   0  0  0  0  0  0  0  0  0  0  0  0
   11.6161  -17.3687   22.0472 C   0  0  1  0  0  0  0  0  0  0  0  0
   11.5495  -17.7385   20.5772 C   0  0  0  0  0  0  0  0  0  0  0  0
   10.2521  -16.9680   22.5603 C   0  0  2  0  0  0  0  0  0  0  0  0
    9.8902  -15.6748   21.9323 N   0  0  0  0  0  0  0  0  0  0  0  0
   10.1836  -16.8261   24.0316 C   0  0  0  0  0  0  0  0  0  0  0  0
   10.4888  -17.8028   24.8016 O   0  0  0  0  0  0  0  0  0  0  0  0
    9.7948  -15.6501   24.7149 N   0  0  0  0  0  0  0  0  0  0  0  0
    9.4633  -15.6337   26.1386 C   0  0  1  0  0  0  0  0  0  0  0  0
    7.9407  -15.5920   26.1877 C   0  0  0  0  0  0  0  0  0  0  0  0
    7.3893  -14.2348   26.1618 C   0  0  0  0  0  0  0  0  0  0  0  0
    8.1614  -13.0902   26.1237 C   0  0  0  0  0  0  0  0  0  0  0  0
    7.6097  -11.8194   26.0991 C   0  0  0  0  0  0  0  0  0  0  0  0
    6.2444  -11.6568   26.1123 C   0  0  0  0  0  0  0  0  0  0  0  0
    5.4474  -12.7766   26.1502 C   0  0  0  0  0  0  0  0  0  0  0  0
    6.0045  -14.0374   26.1745 C   0  0  0  0  0  0  0  0  0  0  0  0
   10.0401  -16.7698   26.8546 C   0  0  0  0  0  0  0  0  0  0  0  0
   10.6116  -16.6480   27.9618 O   0  0  0  0  0  0  0  0  0  0  0  0
    9.9596  -18.0346   26.3015 O   0  0  0  0  0  0  0  0  0  0  0  0
  2  1  1  6
  2  3  1  0
  4  6  1  0
  4  2  1  0
  4  5  1  6
  6  7  2  0
  9  8  1  1
 10  9  1  0
 11  9  1  0
 11 12  1  6
 12  6  1  0
 13 14  2  0
 13 11  1  0
 15 13  1  0
 16 15  1  0
 16 17  1  6
 18 19  2  0
 18 17  1  0
 20 19  1  0
 21 20  2  0
 22 21  1  0
 22 23  2  0
 23 18  1  0
 24 16  1  0
 24 26  1  0
 25 24  2  0
M  END
$$$$
