VVF.pdb
     RDKit          3D

 26 26  0  0  1  0  0  0  0  0999 V2000
    7.5589  -18.4732   26.5629 C   0  0  0  0  0  0  0  0  0  0  0  0
    7.3489  -19.7150   25.7292 C   0  0  1  0  0  0  0  0  0  0  0  0
    6.8519  -20.8171   26.5990 C   0  0  0  0  0  0  0  0  0  0  0  0
    6.4007  -19.4463   24.6075 C   0  0  2  0  0  0  0  0  0  0  0  0
    6.2823  -20.7113   23.8490 N   0  0  0  0  0  0  0  0  0  0  0  0
    6.9651  -18.4512   23.6833 C   0  0  0  0  0  0  0  0  0  0  0  0
    7.8149  -18.8382   22.8170 O   0  0  0  0  0  0  0  0  0  0  0  0
    7.0565  -14.1401   21.2671 C   0  0  0  0  0  0  0  0  0  0  0  0
    6.4401  -15.2340   22.0827 C   0  0  1  0  0  0  0  0  0  0  0  0
    5.5338  -16.0264   21.1592 C   0  0  0  0  0  0  0  0  0  0  0  0
    7.4263  -16.1455   22.7759 C   0  0  2  0  0  0  0  0  0  0  0  0
    6.6597  -17.0705   23.6447 N   0  0  0  0  0  0  0  0  0  0  0  0
    8.4279  -15.4304   23.5974 C   0  0  0  0  0  0  0  0  0  0  0  0
    8.2683  -14.1971   23.9033 O   0  0  0  0  0  0  0  0  0  0  0  0
    9.6132  -16.0057   24.1124 N   0  0  0  0  0  0  0  0  0  0  0  0
   10.7439  -15.2058   24.5801 C   0  0  1  0  0  0  0  0  0  0  0  0
   10.1288  -14.1481   25.4886 C   0  0  0  0  0  0  0  0  0  0  0  0
    9.9406  -14.5981   26.8702 C   0  0  0  0  0  0  0  0  0  0  0  0
   10.7919  -14.2744   27.9085 C   0  0  0  0  0  0  0  0  0  0  0  0
   10.5864  -14.7152   29.2059 C   0  0  0  0  0  0  0  0  0  0  0  0
    9.5026  -15.5069   29.5048 C   0  0  0  0  0  0  0  0  0  0  0  0
    8.6358  -15.8472   28.4933 C   0  0  0  0  0  0  0  0  0  0  0  0
    8.8476  -15.4044   27.2051 C   0  0  0  0  0  0  0  0  0  0  0  0
   11.7635  -16.0202   25.2385 C   0  0  0  0  0  0  0  0  0  0  0  0
   11.6024  -17.2389   25.4751 O   0  0  0  0  0  0  0  0  0  0  0  0
   12.9577  -15.4371   25.6207 O   0  0  0  0  0  0  0  0  0  0  0  0
  2  1  1  1
  2  3  1  0
  4  6  1  0
  4  2  1  0
  4  5  1  6
  6  7  2  0
  9  8  1  6
 10  9  1  0
 11  9  1  0
 11 12  1  1
 12  6  1  0
 13 14  2  0
 13 11  1  0
 15 13  1  0
 16 15  1  0
 16 17  1  1
 18 19  2  0
 18 17  1  0
 20 19  1  0
 21 20  2  0
 22 21  1  0
 22 23  2  0
 23 18  1  0
 24 16  1  0
 24 26  1  0
 25 24  2  0
M  END
$$$$
