VVF.pdb
     RDKit          3D

 26 26  0  0  1  0  0  0  0  0999 V2000
    8.3418  -12.6833   21.2905 C   0  0  0  0  0  0  0  0  0  0  0  0
    7.6929  -13.1921   20.0252 C   0  0  1  0  0  0  0  0  0  0  0  0
    7.7173  -12.1207   18.9908 C   0  0  0  0  0  0  0  0  0  0  0  0
    8.3778  -14.4259   19.5373 C   0  0  2  0  0  0  0  0  0  0  0  0
    7.5925  -14.9093   18.3800 N   0  0  0  0  0  0  0  0  0  0  0  0
    8.3212  -15.4838   20.5574 C   0  0  0  0  0  0  0  0  0  0  0  0
    7.1986  -16.0336   20.8024 O   0  0  0  0  0  0  0  0  0  0  0  0
   10.2189  -19.2892   22.9828 C   0  0  0  0  0  0  0  0  0  0  0  0
   10.1891  -18.1668   21.9924 C   0  0  1  0  0  0  0  0  0  0  0  0
    9.8904  -18.7740   20.6343 C   0  0  0  0  0  0  0  0  0  0  0  0
    9.2094  -17.0609   22.3111 C   0  0  2  0  0  0  0  0  0  0  0  0
    9.4063  -15.9770   21.3190 N   0  0  0  0  0  0  0  0  0  0  0  0
    9.3593  -16.5020   23.6729 C   0  0  0  0  0  0  0  0  0  0  0  0
   10.3757  -15.7870   23.9824 O   0  0  0  0  0  0  0  0  0  0  0  0
    8.4374  -16.6855   24.7300 N   0  0  0  0  0  0  0  0  0  0  0  0
    8.7203  -16.2840   26.1069 C   0  0  1  0  0  0  0  0  0  0  0  0
    7.3761  -15.8409   26.6719 C   0  0  0  0  0  0  0  0  0  0  0  0
    7.0733  -14.4284   26.4275 C   0  0  0  0  0  0  0  0  0  0  0  0
    5.9562  -13.9868   25.7456 C   0  0  0  0  0  0  0  0  0  0  0  0
    5.6969  -12.6427   25.5311 C   0  0  0  0  0  0  0  0  0  0  0  0
    6.5651  -11.6861   26.0022 C   0  0  0  0  0  0  0  0  0  0  0  0
    7.6869  -12.0929   26.6853 C   0  0  0  0  0  0  0  0  0  0  0  0
    7.9374  -13.4323   26.8944 C   0  0  0  0  0  0  0  0  0  0  0  0
    9.3537  -17.3531   26.8764 C   0  0  0  0  0  0  0  0  0  0  0  0
    9.1166  -18.5645   26.6674 O   0  0  0  0  0  0  0  0  0  0  0  0
   10.2520  -17.0309   27.8771 O   0  0  0  0  0  0  0  0  0  0  0  0
  2  1  1  1
  2  3  1  0
  4  6  1  0
  4  2  1  0
  4  5  1  6
  6  7  2  0
  9  8  1  1
 10  9  1  0
 11  9  1  0
 11 12  1  6
 12  6  1  0
 13 14  2  0
 13 11  1  0
 15 13  1  0
 16 15  1  0
 16 17  1  1
 18 19  2  0
 18 17  1  0
 20 19  1  0
 21 20  2  0
 22 21  1  0
 22 23  2  0
 23 18  1  0
 24 16  1  0
 24 26  1  0
 25 24  2  0
M  END
$$$$
