VVF.pdb
     RDKit          3D

 26 26  0  0  1  0  0  0  0  0999 V2000
   11.7424  -18.6501   22.4297 C   0  0  0  0  0  0  0  0  0  0  0  0
   12.7563  -17.6160   22.0010 C   0  0  1  0  0  0  0  0  0  0  0  0
   13.9446  -18.2994   21.4185 C   0  0  0  0  0  0  0  0  0  0  0  0
   12.1560  -16.6575   21.0262 C   0  0  2  0  0  0  0  0  0  0  0  0
   13.2041  -15.6572   20.7252 N   0  0  0  0  0  0  0  0  0  0  0  0
   11.0396  -15.9263   21.6440 C   0  0  0  0  0  0  0  0  0  0  0  0
   11.3014  -15.0578   22.5382 O   0  0  0  0  0  0  0  0  0  0  0  0
    6.2089  -14.6857   22.0446 C   0  0  0  0  0  0  0  0  0  0  0  0
    7.4234  -15.1681   21.3141 C   0  0  1  0  0  0  0  0  0  0  0  0
    7.7497  -14.1337   20.2531 C   0  0  0  0  0  0  0  0  0  0  0  0
    8.6275  -15.4373   22.1870 C   0  0  2  0  0  0  0  0  0  0  0  0
    9.6653  -16.0812   21.3466 N   0  0  0  0  0  0  0  0  0  0  0  0
    8.3417  -16.3053   23.3507 C   0  0  0  0  0  0  0  0  0  0  0  0
    8.5333  -17.5701   23.2908 O   0  0  0  0  0  0  0  0  0  0  0  0
    7.8521  -15.8525   24.5983 N   0  0  0  0  0  0  0  0  0  0  0  0
    7.5201  -16.7594   25.6957 C   0  0  1  0  0  0  0  0  0  0  0  0
    7.0923  -15.8506   26.8418 C   0  0  0  0  0  0  0  0  0  0  0  0
    8.1189  -14.8835   27.2388 C   0  0  0  0  0  0  0  0  0  0  0  0
    8.0254  -13.5242   27.0122 C   0  0  0  0  0  0  0  0  0  0  0  0
    9.0136  -12.6341   27.4007 C   0  0  0  0  0  0  0  0  0  0  0  0
   10.1435  -13.0890   28.0387 C   0  0  0  0  0  0  0  0  0  0  0  0
   10.2673  -14.4371   28.2793 C   0  0  0  0  0  0  0  0  0  0  0  0
    9.2793  -15.3160   27.8894 C   0  0  0  0  0  0  0  0  0  0  0  0
    6.5038  -17.7390   25.3163 C   0  0  0  0  0  0  0  0  0  0  0  0
    5.6677  -17.5249   24.4094 O   0  0  0  0  0  0  0  0  0  0  0  0
    6.4506  -18.9539   25.9744 O   0  0  0  0  0  0  0  0  0  0  0  0
  2  1  1  6
  2  3  1  0
  4  6  1  0
  4  2  1  0
  4  5  1  1
  6  7  2  0
  9  8  1  1
 10  9  1  0
 11  9  1  0
 11 12  1  6
 12  6  1  0
 13 14  2  0
 13 11  1  0
 15 13  1  0
 16 15  1  0
 16 17  1  1
 18 19  2  0
 18 17  1  0
 20 19  1  0
 21 20  2  0
 22 21  1  0
 22 23  2  0
 23 18  1  0
 24 16  1  0
 24 26  1  0
 25 24  2  0
M  END
$$$$
