VVF.pdb
     RDKit          3D

 26 26  0  0  1  0  0  0  0  0999 V2000
    8.4229  -11.9716   19.1258 C   0  0  0  0  0  0  0  0  0  0  0  0
    8.3045  -13.0221   20.2046 C   0  0  1  0  0  0  0  0  0  0  0  0
    6.9411  -12.9672   20.8016 C   0  0  0  0  0  0  0  0  0  0  0  0
    8.5971  -14.3799   19.6567 C   0  0  2  0  0  0  0  0  0  0  0  0
    7.5022  -14.6936   18.7121 N   0  0  0  0  0  0  0  0  0  0  0  0
    8.5362  -15.3899   20.7239 C   0  0  0  0  0  0  0  0  0  0  0  0
    7.4114  -15.9232   20.9938 O   0  0  0  0  0  0  0  0  0  0  0  0
   11.8061  -17.6880   21.9790 C   0  0  0  0  0  0  0  0  0  0  0  0
   10.3658  -18.0747   22.1119 C   0  0  1  0  0  0  0  0  0  0  0  0
   10.2941  -19.1956   23.1320 C   0  0  0  0  0  0  0  0  0  0  0  0
    9.4349  -16.9460   22.4911 C   0  0  2  0  0  0  0  0  0  0  0  0
    9.6195  -15.8525   21.5072 N   0  0  0  0  0  0  0  0  0  0  0  0
    9.6623  -16.4138   23.8528 C   0  0  0  0  0  0  0  0  0  0  0  0
   10.6018  -15.5745   24.0827 O   0  0  0  0  0  0  0  0  0  0  0  0
    8.8998  -16.7560   24.9942 N   0  0  0  0  0  0  0  0  0  0  0  0
    9.2355  -16.2927   26.3395 C   0  0  1  0  0  0  0  0  0  0  0  0
    7.8974  -15.9502   26.9832 C   0  0  0  0  0  0  0  0  0  0  0  0
    7.4177  -14.6040   26.6602 C   0  0  0  0  0  0  0  0  0  0  0  0
    6.2402  -14.3471   25.9854 C   0  0  0  0  0  0  0  0  0  0  0  0
    5.8128  -13.0615   25.6951 C   0  0  0  0  0  0  0  0  0  0  0  0
    6.5667  -11.9777   26.0796 C   0  0  0  0  0  0  0  0  0  0  0  0
    7.7446  -12.1995   26.7532 C   0  0  0  0  0  0  0  0  0  0  0  0
    8.1626  -13.4819   27.0381 C   0  0  0  0  0  0  0  0  0  0  0  0
   10.0084  -17.2814   27.0888 C   0  0  0  0  0  0  0  0  0  0  0  0
   10.6424  -16.9927   28.1290 O   0  0  0  0  0  0  0  0  0  0  0  0
   10.0508  -18.5904   26.6452 O   0  0  0  0  0  0  0  0  0  0  0  0
  2  1  1  6
  2  3  1  0
  4  6  1  0
  4  2  1  0
  4  5  1  6
  6  7  2  0
  9  8  1  1
 10  9  1  0
 11  9  1  0
 11 12  1  6
 12  6  1  0
 13 14  2  0
 13 11  1  0
 15 13  1  0
 16 15  1  0
 16 17  1  1
 18 19  2  0
 18 17  1  0
 20 19  1  0
 21 20  2  0
 22 21  1  0
 22 23  2  0
 23 18  1  0
 24 16  1  0
 24 26  1  0
 25 24  2  0
M  END
$$$$
