VVF.pdb
     RDKit          3D

 26 26  0  0  1  0  0  0  0  0999 V2000
    6.4307  -18.6183   24.0114 C   0  0  0  0  0  0  0  0  0  0  0  0
    6.8879  -19.3812   22.7907 C   0  0  1  0  0  0  0  0  0  0  0  0
    6.2196  -20.7119   22.7594 C   0  0  0  0  0  0  0  0  0  0  0  0
    6.6043  -18.6078   21.5453 C   0  0  2  0  0  0  0  0  0  0  0  0
    7.0185  -19.4693   20.4158 N   0  0  0  0  0  0  0  0  0  0  0  0
    7.4435  -17.4015   21.4860 C   0  0  0  0  0  0  0  0  0  0  0  0
    8.6835  -17.5348   21.2273 O   0  0  0  0  0  0  0  0  0  0  0  0
    8.2015  -12.4940   21.2062 C   0  0  0  0  0  0  0  0  0  0  0  0
    7.3626  -13.7329   21.1524 C   0  0  1  0  0  0  0  0  0  0  0  0
    7.0208  -13.9808   19.6950 C   0  0  0  0  0  0  0  0  0  0  0  0
    7.9954  -14.9588   21.7695 C   0  0  2  0  0  0  0  0  0  0  0  0
    7.0156  -16.0683   21.6874 N   0  0  0  0  0  0  0  0  0  0  0  0
    8.4019  -14.7771   23.1806 C   0  0  0  0  0  0  0  0  0  0  0  0
    8.1282  -13.6959   23.8100 O   0  0  0  0  0  0  0  0  0  0  0  0
    9.1012  -15.7347   23.9520 N   0  0  0  0  0  0  0  0  0  0  0  0
    9.4291  -15.5301   25.3619 C   0  0  1  0  0  0  0  0  0  0  0  0
    8.0890  -15.5640   26.0867 C   0  0  0  0  0  0  0  0  0  0  0  0
    7.4907  -14.2402   26.2772 C   0  0  0  0  0  0  0  0  0  0  0  0
    6.1575  -13.9578   26.0526 C   0  0  0  0  0  0  0  0  0  0  0  0
    5.6208  -12.6946   26.2427 C   0  0  0  0  0  0  0  0  0  0  0  0
    6.4192  -11.6603   26.6709 C   0  0  0  0  0  0  0  0  0  0  0  0
    7.7514  -11.9084   26.9036 C   0  0  0  0  0  0  0  0  0  0  0  0
    8.2773  -13.1682   26.7119 C   0  0  0  0  0  0  0  0  0  0  0  0
   10.3862  -16.5176   25.8568 C   0  0  0  0  0  0  0  0  0  0  0  0
   10.8712  -16.4662   27.0099 O   0  0  0  0  0  0  0  0  0  0  0  0
   10.7813  -17.5550   25.0323 O   0  0  0  0  0  0  0  0  0  0  0  0
  2  1  1  1
  2  3  1  0
  4  6  1  0
  4  2  1  0
  4  5  1  6
  6  7  2  0
  9  8  1  6
 10  9  1  0
 11  9  1  0
 11 12  1  1
 12  6  1  0
 13 14  2  0
 13 11  1  0
 15 13  1  0
 16 15  1  0
 16 17  1  1
 18 19  2  0
 18 17  1  0
 20 19  1  0
 21 20  2  0
 22 21  1  0
 22 23  2  0
 23 18  1  0
 24 16  1  0
 24 26  1  0
 25 24  2  0
M  END
$$$$
