VVF.pdb
     RDKit          3D

 26 26  0  0  1  0  0  0  0  0999 V2000
    9.5201  -19.4473   20.5961 C   0  0  0  0  0  0  0  0  0  0  0  0
   10.5090  -19.1039   19.5075 C   0  0  1  0  0  0  0  0  0  0  0  0
   10.7609  -20.3088   18.6692 C   0  0  0  0  0  0  0  0  0  0  0  0
   10.0106  -17.9667   18.6782 C   0  0  2  0  0  0  0  0  0  0  0  0
   11.0703  -17.6774   17.6866 N   0  0  0  0  0  0  0  0  0  0  0  0
    9.8604  -16.7567   19.5005 C   0  0  0  0  0  0  0  0  0  0  0  0
   10.9108  -16.1783   19.9300 O   0  0  0  0  0  0  0  0  0  0  0  0
    7.0911  -13.0137   21.3274 C   0  0  0  0  0  0  0  0  0  0  0  0
    7.4542  -14.0862   20.3480 C   0  0  1  0  0  0  0  0  0  0  0  0
    7.7071  -13.4092   19.0138 C   0  0  0  0  0  0  0  0  0  0  0  0
    8.6355  -14.9405   20.7467 C   0  0  2  0  0  0  0  0  0  0  0  0
    8.6437  -16.1418   19.8780 N   0  0  0  0  0  0  0  0  0  0  0  0
    8.6140  -15.3689   22.1629 C   0  0  0  0  0  0  0  0  0  0  0  0
    7.7789  -16.2498   22.5711 O   0  0  0  0  0  0  0  0  0  0  0  0
    9.4758  -14.8772   23.1712 N   0  0  0  0  0  0  0  0  0  0  0  0
    9.2944  -15.1862   24.5885 C   0  0  1  0  0  0  0  0  0  0  0  0
   10.3933  -14.4100   25.3044 C   0  0  0  0  0  0  0  0  0  0  0  0
   10.3433  -14.5320   26.7636 C   0  0  0  0  0  0  0  0  0  0  0  0
   10.9622  -15.5421   27.4738 C   0  0  0  0  0  0  0  0  0  0  0  0
   10.8972  -15.6300   28.8550 C   0  0  0  0  0  0  0  0  0  0  0  0
   10.1976  -14.6914   29.5765 C   0  0  0  0  0  0  0  0  0  0  0  0
    9.5699  -13.6727   28.8992 C   0  0  0  0  0  0  0  0  0  0  0  0
    9.6397  -13.5927   27.5247 C   0  0  0  0  0  0  0  0  0  0  0  0
    7.9490  -14.8618   25.0583 C   0  0  0  0  0  0  0  0  0  0  0  0
    7.3396  -13.8303   24.6951 O   0  0  0  0  0  0  0  0  0  0  0  0
    7.3107  -15.7168   25.9378 O   0  0  0  0  0  0  0  0  0  0  0  0
  2  1  1  1
  2  3  1  0
  4  6  1  0
  4  2  1  0
  4  5  1  6
  6  7  2  0
  9  8  1  1
 10  9  1  0
 11  9  1  0
 11 12  1  6
 12  6  1  0
 13 14  2  0
 13 11  1  0
 15 13  1  0
 16 15  1  0
 16 17  1  1
 18 19  2  0
 18 17  1  0
 20 19  1  0
 21 20  2  0
 22 21  1  0
 22 23  2  0
 23 18  1  0
 24 16  1  0
 24 26  1  0
 25 24  2  0
M  END
$$$$
