FGC.pdb
     RDKit          3D

 22 22  0  0  1  0  0  0  0  0999 V2000
   24.6578  -21.2118  -10.4473 N   0  0  0  0  0  0  0  0  0  0  0  0
   25.6990  -20.7058  -11.3425 C   0  0  1  0  0  0  0  0  0  0  0  0
   27.0713  -21.0487  -10.8248 C   0  0  0  0  0  0  0  0  0  0  0  0
   27.2930  -20.5800   -9.4438 C   0  0  0  0  0  0  0  0  0  0  0  0
   27.6612  -21.5100   -8.5006 C   0  0  0  0  0  0  0  0  0  0  0  0
   27.8802  -21.1199   -7.1941 C   0  0  0  0  0  0  0  0  0  0  0  0
   27.7280  -19.7926   -6.8389 C   0  0  0  0  0  0  0  0  0  0  0  0
   27.3541  -18.8467   -7.7953 C   0  0  0  0  0  0  0  0  0  0  0  0
   27.1404  -19.2635   -9.0989 C   0  0  0  0  0  0  0  0  0  0  0  0
   25.5615  -21.3178  -12.6902 C   0  0  0  0  0  0  0  0  0  0  0  0
   26.4674  -21.2030  -13.5670 O   0  0  0  0  0  0  0  0  0  0  0  0
   24.3837  -22.0420  -12.9820 N   0  0  0  0  0  0  0  0  0  0  0  0
   24.1869  -22.7027  -14.2466 C   0  0  0  0  0  0  0  0  0  0  0  0
   22.7257  -23.0348  -14.3418 C   0  0  0  0  0  0  0  0  0  0  0  0
   22.2357  -23.6137  -15.3683 O   0  0  0  0  0  0  0  0  0  0  0  0
   21.8794  -22.7001  -13.2761 N   0  0  0  0  0  0  0  0  0  0  0  0
   20.4584  -22.9426  -13.3939 C   0  0  1  0  0  0  0  0  0  0  0  0
   19.8823  -23.1939  -11.9966 C   0  0  0  0  0  0  0  0  0  0  0  0
   20.5885  -21.9856  -10.8447 S   0  0  0  0  0  0  0  0  0  0  0  0
   19.8374  -21.7522  -14.0125 C   0  0  0  0  0  0  0  0  0  0  0  0
   20.6365  -20.6695  -14.3055 O   0  0  0  0  0  0  0  0  0  0  0  0
   18.6058  -21.6780  -14.2868 O   0  0  0  0  0  0  0  0  0  0  0  0
  2 10  1  0
  2  1  1  1
  3  4  1  0
  3  2  1  0
  4  9  2  0
  4  5  1  0
  5  6  2  0
  6  7  1  0
  8  7  2  0
  9  8  1  0
 10 11  2  0
 12 10  1  0
 12 13  1  0
 13 14  1  0
 14 16  1  0
 14 15  2  0
 16 17  1  0
 17 20  1  0
 17 18  1  1
 19 18  1  0
 20 21  1  0
 22 20  2  0
M  END
$$$$
