FGC.pdb
     RDKit          3D

 22 22  0  0  1  0  0  0  0  0999 V2000
   22.2914  -15.4389  -16.0887 N   0  0  0  0  0  0  0  0  0  0  0  0
   23.2594  -14.9018  -17.0458 C   0  0  1  0  0  0  0  0  0  0  0  0
   24.3169  -15.9223  -17.3762 C   0  0  0  0  0  0  0  0  0  0  0  0
   25.0247  -16.4171  -16.1803 C   0  0  0  0  0  0  0  0  0  0  0  0
   24.7398  -17.6900  -15.7455 C   0  0  0  0  0  0  0  0  0  0  0  0
   25.3766  -18.1980  -14.6304 C   0  0  0  0  0  0  0  0  0  0  0  0
   26.3002  -17.4230  -13.9541 C   0  0  0  0  0  0  0  0  0  0  0  0
   26.5908  -16.1303  -14.3941 C   0  0  0  0  0  0  0  0  0  0  0  0
   25.9385  -15.6440  -15.5151 C   0  0  0  0  0  0  0  0  0  0  0  0
   22.5788  -14.5334  -18.3149 C   0  0  0  0  0  0  0  0  0  0  0  0
   21.3486  -14.2364  -18.3466 O   0  0  0  0  0  0  0  0  0  0  0  0
   23.3397  -14.5197  -19.5056 N   0  0  0  0  0  0  0  0  0  0  0  0
   22.8926  -13.8326  -20.6898 C   0  0  0  0  0  0  0  0  0  0  0  0
   23.5964  -12.5065  -20.7159 C   0  0  0  0  0  0  0  0  0  0  0  0
   23.3173  -11.5833  -19.8800 O   0  0  0  0  0  0  0  0  0  0  0  0
   24.5845  -12.2778  -21.6829 N   0  0  0  0  0  0  0  0  0  0  0  0
   25.3395  -11.0446  -21.6498 C   0  0  1  0  0  0  0  0  0  0  0  0
   26.7739  -11.3305  -22.1060 C   0  0  0  0  0  0  0  0  0  0  0  0
   27.4332  -12.7131  -21.1369 S   0  0  0  0  0  0  0  0  0  0  0  0
   24.6826  -10.0777  -22.5548 C   0  0  0  0  0  0  0  0  0  0  0  0
   25.1497   -8.7826  -22.5862 O   0  0  0  0  0  0  0  0  0  0  0  0
   23.7107  -10.3812  -23.3037 O   0  0  0  0  0  0  0  0  0  0  0  0
  2 10  1  0
  2  1  1  1
  3  4  1  0
  3  2  1  0
  4  9  2  0
  4  5  1  0
  5  6  2  0
  6  7  1  0
  8  7  2  0
  9  8  1  0
 10 11  2  0
 12 10  1  0
 12 13  1  0
 13 14  1  0
 14 16  1  0
 14 15  2  0
 16 17  1  0
 17 20  1  0
 17 18  1  6
 19 18  1  0
 20 21  1  0
 22 20  2  0
M  END
$$$$
