FGC.pdb
     RDKit          3D

 22 22  0  0  1  0  0  0  0  0999 V2000
   28.9741  -21.5165  -13.7209 N   0  0  0  0  0  0  0  0  0  0  0  0
   27.9837  -21.2872  -12.6684 C   0  0  1  0  0  0  0  0  0  0  0  0
   28.5727  -20.4873  -11.5361 C   0  0  0  0  0  0  0  0  0  0  0  0
   29.6833  -21.1861  -10.8621 C   0  0  0  0  0  0  0  0  0  0  0  0
   30.9293  -21.1196  -11.4394 C   0  0  0  0  0  0  0  0  0  0  0  0
   32.0008  -21.7575  -10.8460 C   0  0  0  0  0  0  0  0  0  0  0  0
   31.8159  -22.4622   -9.6713 C   0  0  0  0  0  0  0  0  0  0  0  0
   30.5514  -22.5310   -9.0836 C   0  0  0  0  0  0  0  0  0  0  0  0
   29.4931  -21.8825   -9.6984 C   0  0  0  0  0  0  0  0  0  0  0  0
   26.8287  -20.5211  -13.2061 C   0  0  0  0  0  0  0  0  0  0  0  0
   26.9910  -19.5189  -13.9622 O   0  0  0  0  0  0  0  0  0  0  0  0
   25.5248  -20.9365  -12.8538 N   0  0  0  0  0  0  0  0  0  0  0  0
   24.3497  -20.2785  -13.3641 C   0  0  0  0  0  0  0  0  0  0  0  0
   23.1638  -20.9805  -12.7680 C   0  0  0  0  0  0  0  0  0  0  0  0
   23.0214  -22.2459  -12.8540 O   0  0  0  0  0  0  0  0  0  0  0  0
   22.1894  -20.2263  -12.1005 N   0  0  0  0  0  0  0  0  0  0  0  0
   21.0188  -20.8887  -11.5687 C   0  0  1  0  0  0  0  0  0  0  0  0
   20.2737  -19.9145  -10.6505 C   0  0  0  0  0  0  0  0  0  0  0  0
   20.1413  -18.3093  -11.4820 S   0  0  0  0  0  0  0  0  0  0  0  0
   20.1653  -21.2984  -12.7041 C   0  0  0  0  0  0  0  0  0  0  0  0
   19.1852  -22.2406  -12.4851 O   0  0  0  0  0  0  0  0  0  0  0  0
   20.2906  -20.8256  -13.8696 O   0  0  0  0  0  0  0  0  0  0  0  0
  2 10  1  0
  2  1  1  6
  3  4  1  0
  3  2  1  0
  4  9  2  0
  4  5  1  0
  5  6  2  0
  6  7  1  0
  8  7  2  0
  9  8  1  0
 10 11  2  0
 12 10  1  0
 12 13  1  0
 13 14  1  0
 14 16  1  0
 14 15  2  0
 16 17  1  0
 17 20  1  0
 17 18  1  1
 19 18  1  0
 20 21  1  0
 22 20  2  0
M  END
$$$$
