FGC.pdb
     RDKit          3D

 22 22  0  0  1  0  0  0  0  0999 V2000
   27.9483  -21.6099   -8.2496 N   0  0  0  0  0  0  0  0  0  0  0  0
   26.9752  -20.5464   -7.9979 C   0  0  1  0  0  0  0  0  0  0  0  0
   27.6455  -19.3235   -7.4285 C   0  0  0  0  0  0  0  0  0  0  0  0
   28.3823  -19.6057   -6.1821 C   0  0  0  0  0  0  0  0  0  0  0  0
   27.9475  -18.9996   -5.0272 C   0  0  0  0  0  0  0  0  0  0  0  0
   28.6045  -19.2325   -3.8350 C   0  0  0  0  0  0  0  0  0  0  0  0
   29.6993  -20.0761   -3.8075 C   0  0  0  0  0  0  0  0  0  0  0  0
   30.1423  -20.6925   -4.9793 C   0  0  0  0  0  0  0  0  0  0  0  0
   29.4661  -20.4425   -6.1621 C   0  0  0  0  0  0  0  0  0  0  0  0
   26.3112  -20.1452   -9.2659 C   0  0  0  0  0  0  0  0  0  0  0  0
   25.5023  -19.1725   -9.3128 O   0  0  0  0  0  0  0  0  0  0  0  0
   26.6021  -20.8792  -10.4378 N   0  0  0  0  0  0  0  0  0  0  0  0
   25.6977  -21.8697  -10.9628 C   0  0  0  0  0  0  0  0  0  0  0  0
   24.5974  -21.1267  -11.6642 C   0  0  0  0  0  0  0  0  0  0  0  0
   23.6648  -20.5432  -11.0172 O   0  0  0  0  0  0  0  0  0  0  0  0
   24.5955  -21.0734  -13.0645 N   0  0  0  0  0  0  0  0  0  0  0  0
   23.5136  -20.4000  -13.7486 C   0  0  1  0  0  0  0  0  0  0  0  0
   23.9225  -20.1613  -15.2057 C   0  0  0  0  0  0  0  0  0  0  0  0
   24.9232  -21.5627  -15.7714 S   0  0  0  0  0  0  0  0  0  0  0  0
   22.3141  -21.2607  -13.6732 C   0  0  0  0  0  0  0  0  0  0  0  0
   21.0742  -20.6753  -13.8013 O   0  0  0  0  0  0  0  0  0  0  0  0
   22.3697  -22.5110  -13.4966 O   0  0  0  0  0  0  0  0  0  0  0  0
  2 10  1  0
  2  1  1  6
  3  4  1  0
  3  2  1  0
  4  9  2  0
  4  5  1  0
  5  6  2  0
  6  7  1  0
  8  7  2  0
  9  8  1  0
 10 11  2  0
 12 10  1  0
 12 13  1  0
 13 14  1  0
 14 16  1  0
 14 15  2  0
 16 17  1  0
 17 20  1  0
 17 18  1  6
 19 18  1  0
 20 21  1  0
 22 20  2  0
M  END
$$$$
