FGC.pdb
     RDKit          3D

 22 22  0  0  1  0  0  0  0  0999 V2000
   24.3432  -19.5114  -17.4284 N   0  0  0  0  0  0  0  0  0  0  0  0
   23.1434  -19.1443  -16.6752 C   0  0  1  0  0  0  0  0  0  0  0  0
   21.8950  -19.5289  -17.4253 C   0  0  0  0  0  0  0  0  0  0  0  0
   21.7264  -18.7693  -18.6785 C   0  0  0  0  0  0  0  0  0  0  0  0
   21.2171  -17.4950  -18.5943 C   0  0  0  0  0  0  0  0  0  0  0  0
   21.0408  -16.7442  -19.7398 C   0  0  0  0  0  0  0  0  0  0  0  0
   21.3778  -17.2780  -20.9696 C   0  0  0  0  0  0  0  0  0  0  0  0
   21.8950  -18.5718  -21.0572 C   0  0  0  0  0  0  0  0  0  0  0  0
   22.0623  -19.3043  -19.8935 C   0  0  0  0  0  0  0  0  0  0  0  0
   23.1186  -19.8530  -15.3687 C   0  0  0  0  0  0  0  0  0  0  0  0
   23.9375  -20.7803  -15.1008 O   0  0  0  0  0  0  0  0  0  0  0  0
   22.1499  -19.4684  -14.4145 N   0  0  0  0  0  0  0  0  0  0  0  0
   22.1409  -20.0032  -13.0772 C   0  0  0  0  0  0  0  0  0  0  0  0
   21.0251  -21.0062  -13.0166 C   0  0  0  0  0  0  0  0  0  0  0  0
   20.7365  -21.6229  -11.9372 O   0  0  0  0  0  0  0  0  0  0  0  0
   20.2827  -21.2711  -14.1753 N   0  0  0  0  0  0  0  0  0  0  0  0
   19.2971  -22.3296  -14.1613 C   0  0  1  0  0  0  0  0  0  0  0  0
   17.9333  -21.7306  -13.8024 C   0  0  0  0  0  0  0  0  0  0  0  0
   17.6820  -20.2206  -14.7729 S   0  0  0  0  0  0  0  0  0  0  0  0
   19.2637  -22.9459  -15.5046 C   0  0  0  0  0  0  0  0  0  0  0  0
   20.0570  -22.4108  -16.4949 O   0  0  0  0  0  0  0  0  0  0  0  0
   18.5411  -23.9427  -15.7906 O   0  0  0  0  0  0  0  0  0  0  0  0
  2 10  1  0
  2  1  1  6
  3  4  1  0
  3  2  1  0
  4  9  2  0
  4  5  1  0
  5  6  2  0
  6  7  1  0
  8  7  2  0
  9  8  1  0
 10 11  2  0
 12 10  1  0
 12 13  1  0
 13 14  1  0
 14 16  1  0
 14 15  2  0
 16 17  1  0
 17 20  1  0
 17 18  1  6
 19 18  1  0
 20 21  1  0
 22 20  2  0
M  END
$$$$
