FGC.pdb
     RDKit          3D

 22 22  0  0  1  0  0  0  0  0999 V2000
   26.4393  -22.4354  -12.6090 N   0  0  0  0  0  0  0  0  0  0  0  0
   25.7589  -21.2315  -12.1303 C   0  0  1  0  0  0  0  0  0  0  0  0
   26.7485  -20.1421  -11.8094 C   0  0  0  0  0  0  0  0  0  0  0  0
   27.6486  -20.4995  -10.6967 C   0  0  0  0  0  0  0  0  0  0  0  0
   28.9491  -20.8256  -11.0013 C   0  0  0  0  0  0  0  0  0  0  0  0
   29.8299  -21.1673   -9.9940 C   0  0  0  0  0  0  0  0  0  0  0  0
   29.3996  -21.1801   -8.6804 C   0  0  0  0  0  0  0  0  0  0  0  0
   28.0795  -20.8493   -8.3692 C   0  0  0  0  0  0  0  0  0  0  0  0
   27.2157  -20.5102   -9.3976 C   0  0  0  0  0  0  0  0  0  0  0  0
   24.8395  -20.7095  -13.1752 C   0  0  0  0  0  0  0  0  0  0  0  0
   25.1502  -20.7281  -14.4023 O   0  0  0  0  0  0  0  0  0  0  0  0
   23.5921  -20.1834  -12.7702 N   0  0  0  0  0  0  0  0  0  0  0  0
   22.5918  -19.7719  -13.7212 C   0  0  0  0  0  0  0  0  0  0  0  0
   21.4747  -20.7718  -13.6386 C   0  0  0  0  0  0  0  0  0  0  0  0
   21.4295  -21.7907  -14.4059 O   0  0  0  0  0  0  0  0  0  0  0  0
   20.4566  -20.5804  -12.6949 N   0  0  0  0  0  0  0  0  0  0  0  0
   19.3731  -21.5352  -12.6149 C   0  0  1  0  0  0  0  0  0  0  0  0
   19.0320  -21.7736  -11.1404 C   0  0  0  0  0  0  0  0  0  0  0  0
   20.5389  -22.2665  -10.2619 S   0  0  0  0  0  0  0  0  0  0  0  0
   18.2120  -20.9765  -13.3396 C   0  0  0  0  0  0  0  0  0  0  0  0
   17.1618  -21.8130  -13.6457 O   0  0  0  0  0  0  0  0  0  0  0  0
   18.1347  -19.7656  -13.6934 O   0  0  0  0  0  0  0  0  0  0  0  0
  2 10  1  0
  2  1  1  6
  3  4  1  0
  3  2  1  0
  4  9  2  0
  4  5  1  0
  5  6  2  0
  6  7  1  0
  8  7  2  0
  9  8  1  0
 10 11  2  0
 12 10  1  0
 12 13  1  0
 13 14  1  0
 14 16  1  0
 14 15  2  0
 16 17  1  0
 17 20  1  0
 17 18  1  1
 19 18  1  0
 20 21  1  0
 22 20  2  0
M  END
$$$$
