FGC.pdb
     RDKit          3D

 22 22  0  0  1  0  0  0  0  0999 V2000
   25.2158  -20.7232   -7.7030 N   0  0  0  0  0  0  0  0  0  0  0  0
   26.2988  -20.2300   -8.5546 C   0  0  1  0  0  0  0  0  0  0  0  0
   27.6428  -20.6428   -8.0141 C   0  0  0  0  0  0  0  0  0  0  0  0
   27.9522  -20.0149   -6.7156 C   0  0  0  0  0  0  0  0  0  0  0  0
   28.5889  -20.7799   -5.7672 C   0  0  0  0  0  0  0  0  0  0  0  0
   28.8997  -20.2368   -4.5360 C   0  0  0  0  0  0  0  0  0  0  0  0
   28.5686  -18.9231   -4.2615 C   0  0  0  0  0  0  0  0  0  0  0  0
   27.9221  -18.1446   -5.2234 C   0  0  0  0  0  0  0  0  0  0  0  0
   27.6213  -18.7128   -6.4504 C   0  0  0  0  0  0  0  0  0  0  0  0
   26.1736  -20.7928   -9.9247 C   0  0  0  0  0  0  0  0  0  0  0  0
   25.8677  -22.0058  -10.1188 O   0  0  0  0  0  0  0  0  0  0  0  0
   26.4054  -19.9379  -11.0257 N   0  0  0  0  0  0  0  0  0  0  0  0
   26.2935  -20.3973  -12.3862 C   0  0  0  0  0  0  0  0  0  0  0  0
   24.9195  -20.0219  -12.8612 C   0  0  0  0  0  0  0  0  0  0  0  0
   24.5087  -18.8138  -12.8359 O   0  0  0  0  0  0  0  0  0  0  0  0
   24.0674  -21.0242  -13.3441 N   0  0  0  0  0  0  0  0  0  0  0  0
   22.8184  -20.6534  -13.9720 C   0  0  1  0  0  0  0  0  0  0  0  0
   22.5369  -21.6236  -15.1240 C   0  0  0  0  0  0  0  0  0  0  0  0
   22.6196  -23.3213  -14.4946 S   0  0  0  0  0  0  0  0  0  0  0  0
   21.7508  -20.7243  -12.9520 C   0  0  0  0  0  0  0  0  0  0  0  0
   20.5155  -20.1956  -13.2533 O   0  0  0  0  0  0  0  0  0  0  0  0
   21.9155  -21.2477  -11.8134 O   0  0  0  0  0  0  0  0  0  0  0  0
  2 10  1  0
  2  1  1  1
  3  4  1  0
  3  2  1  0
  4  9  2  0
  4  5  1  0
  5  6  2  0
  6  7  1  0
  8  7  2  0
  9  8  1  0
 10 11  2  0
 12 10  1  0
 12 13  1  0
 13 14  1  0
 14 16  1  0
 14 15  2  0
 16 17  1  0
 17 20  1  0
 17 18  1  6
 19 18  1  0
 20 21  1  0
 22 20  2  0
M  END
$$$$
