FGC.pdb
     RDKit          3D

 22 22  0  0  1  0  0  0  0  0999 V2000
   26.7474  -22.4982  -11.6269 N   0  0  0  0  0  0  0  0  0  0  0  0
   26.0537  -21.2138  -11.5232 C   0  0  1  0  0  0  0  0  0  0  0  0
   27.0048  -20.1159  -11.1242 C   0  0  0  0  0  0  0  0  0  0  0  0
   27.5074  -20.2704   -9.7460 C   0  0  0  0  0  0  0  0  0  0  0  0
   26.6344  -20.0265   -8.7123 C   0  0  0  0  0  0  0  0  0  0  0  0
   27.0580  -20.1577   -7.4044 C   0  0  0  0  0  0  0  0  0  0  0  0
   28.3613  -20.5346   -7.1391 C   0  0  0  0  0  0  0  0  0  0  0  0
   29.2493  -20.7827   -8.1874 C   0  0  0  0  0  0  0  0  0  0  0  0
   28.7998  -20.6441   -9.4903 C   0  0  0  0  0  0  0  0  0  0  0  0
   25.4620  -20.8407  -12.8348 C   0  0  0  0  0  0  0  0  0  0  0  0
   25.9877  -21.2037  -13.9277 O   0  0  0  0  0  0  0  0  0  0  0  0
   24.2834  -20.0611  -12.8424 N   0  0  0  0  0  0  0  0  0  0  0  0
   23.6118  -19.7041  -14.0655 C   0  0  0  0  0  0  0  0  0  0  0  0
   22.4671  -20.6618  -14.2294 C   0  0  0  0  0  0  0  0  0  0  0  0
   22.5879  -21.7422  -14.8981 O   0  0  0  0  0  0  0  0  0  0  0  0
   21.2353  -20.3609  -13.6327 N   0  0  0  0  0  0  0  0  0  0  0  0
   20.1348  -21.2897  -13.7668 C   0  0  1  0  0  0  0  0  0  0  0  0
   19.5431  -21.5590  -12.3795 C   0  0  0  0  0  0  0  0  0  0  0  0
   20.7670  -22.4496  -11.3824 S   0  0  0  0  0  0  0  0  0  0  0  0
   19.1255  -20.6825  -14.6602 C   0  0  0  0  0  0  0  0  0  0  0  0
   18.1913  -21.5028  -15.2524 O   0  0  0  0  0  0  0  0  0  0  0  0
   19.0770  -19.4441  -14.9084 O   0  0  0  0  0  0  0  0  0  0  0  0
  2 10  1  0
  2  1  1  6
  3  4  1  0
  3  2  1  0
  4  9  2  0
  4  5  1  0
  5  6  2  0
  6  7  1  0
  8  7  2  0
  9  8  1  0
 10 11  2  0
 12 10  1  0
 12 13  1  0
 13 14  1  0
 14 16  1  0
 14 15  2  0
 16 17  1  0
 17 20  1  0
 17 18  1  1
 19 18  1  0
 20 21  1  0
 22 20  2  0
M  END
$$$$
