FGC.pdb
     RDKit          3D

 22 22  0  0  1  0  0  0  0  0999 V2000
   18.4912  -14.4354    8.8306 N   0  0  0  0  0  0  0  0  0  0  0  0
   18.2649  -15.1909    7.5980 C   0  0  1  0  0  0  0  0  0  0  0  0
   19.4683  -15.1250    6.6944 C   0  0  0  0  0  0  0  0  0  0  0  0
   19.7765  -13.7509    6.2550 C   0  0  0  0  0  0  0  0  0  0  0  0
   18.9632  -13.1828    5.3033 C   0  0  0  0  0  0  0  0  0  0  0  0
   19.2110  -11.8986    4.8598 C   0  0  0  0  0  0  0  0  0  0  0  0
   20.2785  -11.1878    5.3757 C   0  0  0  0  0  0  0  0  0  0  0  0
   21.1056  -11.7631    6.3423 C   0  0  0  0  0  0  0  0  0  0  0  0
   20.8357  -13.0525    6.7704 C   0  0  0  0  0  0  0  0  0  0  0  0
   18.0154  -16.6227    7.9099 C   0  0  0  0  0  0  0  0  0  0  0  0
   18.6079  -17.2074    8.8637 O   0  0  0  0  0  0  0  0  0  0  0  0
   17.0908  -17.3328    7.1114 N   0  0  0  0  0  0  0  0  0  0  0  0
   16.7939  -18.7234    7.3403 C   0  0  0  0  0  0  0  0  0  0  0  0
   16.6856  -19.3736    5.9912 C   0  0  0  0  0  0  0  0  0  0  0  0
   16.6448  -18.6854    4.9171 O   0  0  0  0  0  0  0  0  0  0  0  0
   16.6280  -20.7714    5.9105 N   0  0  0  0  0  0  0  0  0  0  0  0
   16.4989  -21.4039    4.6163 C   0  0  1  0  0  0  0  0  0  0  0  0
   16.8609  -22.8865    4.7521 C   0  0  0  0  0  0  0  0  0  0  0  0
   18.6164  -23.0248    5.1817 S   0  0  0  0  0  0  0  0  0  0  0  0
   15.1013  -21.2433    4.1621 C   0  0  0  0  0  0  0  0  0  0  0  0
   14.8270  -21.3663    2.8182 O   0  0  0  0  0  0  0  0  0  0  0  0
   14.1423  -20.9980    4.9481 O   0  0  0  0  0  0  0  0  0  0  0  0
  2 10  1  0
  2  1  1  1
  3  4  1  0
  3  2  1  0
  4  9  2  0
  4  5  1  0
  5  6  2  0
  6  7  1  0
  8  7  2  0
  9  8  1  0
 10 11  2  0
 12 10  1  0
 12 13  1  0
 13 14  1  0
 14 16  1  0
 14 15  2  0
 16 17  1  0
 17 20  1  0
 17 18  1  1
 19 18  1  0
 20 21  1  0
 22 20  2  0
M  END
$$$$
