FGC.pdb
     RDKit          3D

 22 22  0  0  1  0  0  0  0  0999 V2000
   26.5931  -22.1529  -12.0495 N   0  0  0  0  0  0  0  0  0  0  0  0
   25.6857  -21.0659  -11.6800 C   0  0  1  0  0  0  0  0  0  0  0  0
   26.4507  -19.8710  -11.1739 C   0  0  0  0  0  0  0  0  0  0  0  0
   27.2095  -20.1601   -9.9424 C   0  0  0  0  0  0  0  0  0  0  0  0
   26.5640  -20.0055   -8.7384 C   0  0  0  0  0  0  0  0  0  0  0  0
   27.2323  -20.2640   -7.5578 C   0  0  0  0  0  0  0  0  0  0  0  0
   28.5507  -20.6781   -7.5913 C   0  0  0  0  0  0  0  0  0  0  0  0
   29.2079  -20.8356   -8.8129 C   0  0  0  0  0  0  0  0  0  0  0  0
   28.5156  -20.5699   -9.9828 C   0  0  0  0  0  0  0  0  0  0  0  0
   24.8988  -20.6273  -12.8624 C   0  0  0  0  0  0  0  0  0  0  0  0
   25.3727  -20.6877  -14.0348 O   0  0  0  0  0  0  0  0  0  0  0  0
   23.5914  -20.1337  -12.6535 N   0  0  0  0  0  0  0  0  0  0  0  0
   22.8325  -19.5115  -13.7077 C   0  0  0  0  0  0  0  0  0  0  0  0
   21.6222  -20.3698  -13.9382 C   0  0  0  0  0  0  0  0  0  0  0  0
   20.6633  -19.9882  -14.6891 O   0  0  0  0  0  0  0  0  0  0  0  0
   21.5446  -21.6214  -13.3125 N   0  0  0  0  0  0  0  0  0  0  0  0
   20.3492  -22.4206  -13.4677 C   0  0  1  0  0  0  0  0  0  0  0  0
   20.4990  -23.7003  -12.6387 C   0  0  0  0  0  0  0  0  0  0  0  0
   18.9088  -24.5697  -12.6090 S   0  0  0  0  0  0  0  0  0  0  0  0
   19.1969  -21.6221  -12.9987 C   0  0  0  0  0  0  0  0  0  0  0  0
   18.0292  -21.6594  -13.7278 O   0  0  0  0  0  0  0  0  0  0  0  0
   19.2298  -20.9046  -11.9587 O   0  0  0  0  0  0  0  0  0  0  0  0
  2 10  1  0
  2  1  1  6
  3  4  1  0
  3  2  1  0
  4  9  2  0
  4  5  1  0
  5  6  2  0
  6  7  1  0
  8  7  2  0
  9  8  1  0
 10 11  2  0
 12 10  1  0
 12 13  1  0
 13 14  1  0
 14 16  1  0
 14 15  2  0
 16 17  1  0
 17 20  1  0
 17 18  1  1
 19 18  1  0
 20 21  1  0
 22 20  2  0
M  END
$$$$
