DTN.pdb
     RDKit          3D

 24 23  0  0  1  0  0  0  0  0999 V2000
    9.7297  -17.2696   16.6453 N   0  0  0  0  0  0  0  0  0  0  0  0
    8.8658  -17.3971   17.8239 C   0  0  1  0  0  0  0  0  0  0  0  0
    8.9804  -18.8377   18.2409 C   0  0  0  0  0  0  0  0  0  0  0  0
    8.4929  -19.8230   17.2921 C   0  0  0  0  0  0  0  0  0  0  0  0
    9.2290  -20.4758   16.5312 O   0  0  0  0  0  0  0  0  0  0  0  0
    9.3406  -16.4688   18.8857 C   0  0  0  0  0  0  0  0  0  0  0  0
   10.5396  -16.2036   19.0220 O   0  0  0  0  0  0  0  0  0  0  0  0
    7.1096  -20.0598   17.2223 O   0  0  0  0  0  0  0  0  0  0  0  0
    7.4579  -13.1083   20.2692 C   0  0  0  0  0  0  0  0  0  0  0  0
    7.7345  -14.1427   21.3337 C   0  0  1  0  0  0  0  0  0  0  0  0
    6.5812  -14.9640   21.4616 O   0  0  0  0  0  0  0  0  0  0  0  0
    8.9064  -15.0308   20.8896 C   0  0  2  0  0  0  0  0  0  0  0  0
    8.4287  -15.8593   19.7745 N   0  0  0  0  0  0  0  0  0  0  0  0
    9.2716  -15.9375   22.0040 C   0  0  0  0  0  0  0  0  0  0  0  0
    8.7191  -17.1014   22.0234 O   0  0  0  0  0  0  0  0  0  0  0  0
   13.5198  -15.9145   22.6654 N   0  0  0  0  0  0  0  0  0  0  0  0
   12.6558  -16.9215   23.2120 C   0  0  0  0  0  0  0  0  0  0  0  0
   12.6057  -18.0436   22.6745 O   0  0  0  0  0  0  0  0  0  0  0  0
   11.8649  -16.5591   24.3995 C   0  0  0  0  0  0  0  0  0  0  0  0
   10.3999  -16.6011   24.0954 C   0  0  2  0  0  0  0  0  0  0  0  0
   10.1774  -15.6146   23.0327 N   0  0  0  0  0  0  0  0  0  0  0  0
    9.6178  -16.2466   25.2990 C   0  0  0  0  0  0  0  0  0  0  0  0
    8.7830  -15.1571   25.3557 O   0  0  0  0  0  0  0  0  0  0  0  0
    9.7043  -16.9610   26.3354 O   0  0  0  0  0  0  0  0  0  0  0  0
  2  1  1  6
  2  6  1  0
  3  2  1  0
  3  4  1  0
  4  8  1  0
  4  5  2  0
  6  7  2  0
 10  9  1  6
 10 12  1  0
 10 11  1  0
 12 14  1  0
 13  6  1  0
 12 13  1  6
 14 15  2  0
 16 17  1  0
 17 18  2  0
 19 17  1  0
 20 19  1  1
 20 22  1  0
 21 20  1  0
 21 14  1  0
 22 24  2  0
 22 23  1  0
M  END
$$$$
