DTN.pdb
     RDKit          3D

 24 23  0  0  1  0  0  0  0  0999 V2000
    7.5230  -17.6080   17.2947 N   0  0  0  0  0  0  0  0  0  0  0  0
    8.9120  -17.1993   17.0599 C   0  0  1  0  0  0  0  0  0  0  0  0
    8.8949  -16.4949   15.7310 C   0  0  0  0  0  0  0  0  0  0  0  0
    8.6414  -17.3241   14.5663 C   0  0  0  0  0  0  0  0  0  0  0  0
    7.8031  -18.2426   14.5389 O   0  0  0  0  0  0  0  0  0  0  0  0
    9.3548  -16.3025   18.1619 C   0  0  0  0  0  0  0  0  0  0  0  0
   10.4728  -15.7765   18.1559 O   0  0  0  0  0  0  0  0  0  0  0  0
    9.3816  -17.0822   13.3967 O   0  0  0  0  0  0  0  0  0  0  0  0
    6.9385  -13.7395   20.0791 C   0  0  0  0  0  0  0  0  0  0  0  0
    7.7004  -14.6117   21.0479 C   0  0  1  0  0  0  0  0  0  0  0  0
    6.8694  -15.7099   21.4008 O   0  0  0  0  0  0  0  0  0  0  0  0
    8.9557  -15.1653   20.3572 C   0  0  2  0  0  0  0  0  0  0  0  0
    8.5047  -16.0242   19.2540 N   0  0  0  0  0  0  0  0  0  0  0  0
    9.6982  -16.0148   21.3187 C   0  0  0  0  0  0  0  0  0  0  0  0
    9.6097  -17.2916   21.1692 O   0  0  0  0  0  0  0  0  0  0  0  0
   14.2715  -16.6646   24.9485 N   0  0  0  0  0  0  0  0  0  0  0  0
   13.2724  -17.2387   24.0931 C   0  0  0  0  0  0  0  0  0  0  0  0
   13.0413  -18.4607   24.1552 O   0  0  0  0  0  0  0  0  0  0  0  0
   12.5672  -16.3291   23.1753 C   0  0  0  0  0  0  0  0  0  0  0  0
   11.0845  -16.4891   23.3038 C   0  0  2  0  0  0  0  0  0  0  0  0
   10.4898  -15.5226   22.3741 N   0  0  0  0  0  0  0  0  0  0  0  0
   10.6576  -16.2004   24.6896 C   0  0  0  0  0  0  0  0  0  0  0  0
   10.0145  -15.0409   25.0490 O   0  0  0  0  0  0  0  0  0  0  0  0
   10.8835  -17.0410   25.6029 O   0  0  0  0  0  0  0  0  0  0  0  0
  2  1  1  1
  2  6  1  0
  3  2  1  0
  3  4  1  0
  4  8  1  0
  4  5  2  0
  6  7  2  0
 10  9  1  6
 10 12  1  0
 10 11  1  0
 12 14  1  0
 13  6  1  0
 12 13  1  6
 14 15  2  0
 16 17  1  0
 17 18  2  0
 19 17  1  0
 20 19  1  1
 20 22  1  0
 21 20  1  0
 21 14  1  0
 22 24  2  0
 22 23  1  0
M  END
$$$$
