DTN.pdb
     RDKit          3D

 24 23  0  0  1  0  0  0  0  0999 V2000
   10.7717  -18.1320   20.7135 N   0  0  0  0  0  0  0  0  0  0  0  0
   11.8927  -17.3991   21.3116 C   0  0  1  0  0  0  0  0  0  0  0  0
   12.5116  -16.6322   20.1752 C   0  0  0  0  0  0  0  0  0  0  0  0
   13.4504  -17.3621   19.3420 C   0  0  0  0  0  0  0  0  0  0  0  0
   13.6527  -18.5859   19.4345 O   0  0  0  0  0  0  0  0  0  0  0  0
   11.3792  -16.4985   22.3792 C   0  0  0  0  0  0  0  0  0  0  0  0
   12.0574  -15.5621   22.8148 O   0  0  0  0  0  0  0  0  0  0  0  0
   14.1778  -16.6529   18.3713 O   0  0  0  0  0  0  0  0  0  0  0  0
    7.5585  -15.1191   22.8205 C   0  0  0  0  0  0  0  0  0  0  0  0
    8.0765  -15.8948   24.0078 C   0  0  1  0  0  0  0  0  0  0  0  0
    7.6873  -17.2533   23.8515 O   0  0  0  0  0  0  0  0  0  0  0  0
    9.6113  -15.8366   24.0249 C   0  0  2  0  0  0  0  0  0  0  0  0
   10.0931  -16.6886   22.9294 N   0  0  0  0  0  0  0  0  0  0  0  0
   10.1001  -16.4163   25.2986 C   0  0  0  0  0  0  0  0  0  0  0  0
   10.8566  -17.4566   25.2219 O   0  0  0  0  0  0  0  0  0  0  0  0
    9.7668  -13.2029   28.6277 N   0  0  0  0  0  0  0  0  0  0  0  0
   10.7002  -14.2909   28.5617 C   0  0  0  0  0  0  0  0  0  0  0  0
   11.8799  -14.0670   28.2322 O   0  0  0  0  0  0  0  0  0  0  0  0
   10.1957  -15.6332   28.8944 C   0  0  0  0  0  0  0  0  0  0  0  0
   10.3851  -16.5723   27.7443 C   0  0  2  0  0  0  0  0  0  0  0  0
    9.7974  -15.9074   26.5762 N   0  0  0  0  0  0  0  0  0  0  0  0
    9.6939  -17.8520   28.0104 C   0  0  0  0  0  0  0  0  0  0  0  0
   10.1110  -18.7433   28.9688 O   0  0  0  0  0  0  0  0  0  0  0  0
    8.6721  -18.1636   27.3391 O   0  0  0  0  0  0  0  0  0  0  0  0
  2  1  1  6
  2  6  1  0
  3  2  1  0
  3  4  1  0
  4  8  1  0
  4  5  2  0
  6  7  2  0
 10  9  1  6
 10 12  1  0
 10 11  1  0
 12 14  1  0
 13  6  1  0
 12 13  1  6
 14 15  2  0
 16 17  1  0
 17 18  2  0
 19 17  1  0
 20 19  1  1
 20 22  1  0
 21 20  1  0
 21 14  1  0
 22 24  2  0
 22 23  1  0
M  END
$$$$
