DTN.pdb
     RDKit          3D

 24 23  0  0  1  0  0  0  0  0999 V2000
    9.5163  -17.4490   16.7004 N   0  0  0  0  0  0  0  0  0  0  0  0
    8.6748  -17.4927   17.9010 C   0  0  1  0  0  0  0  0  0  0  0  0
    8.7276  -18.9222   18.3659 C   0  0  0  0  0  0  0  0  0  0  0  0
    8.6253  -19.9387   17.3340 C   0  0  0  0  0  0  0  0  0  0  0  0
    7.9608  -19.8032   16.2913 O   0  0  0  0  0  0  0  0  0  0  0  0
    9.2194  -16.5538   18.9190 C   0  0  0  0  0  0  0  0  0  0  0  0
   10.4314  -16.3309   19.0082 O   0  0  0  0  0  0  0  0  0  0  0  0
    9.3140  -21.1500   17.5150 O   0  0  0  0  0  0  0  0  0  0  0  0
    7.4220  -13.1411   20.3691 C   0  0  0  0  0  0  0  0  0  0  0  0
    7.7674  -14.1691   21.4196 C   0  0  1  0  0  0  0  0  0  0  0  0
    6.6246  -14.9890   21.6276 O   0  0  0  0  0  0  0  0  0  0  0  0
    8.9076  -15.0607   20.9054 C   0  0  2  0  0  0  0  0  0  0  0  0
    8.3616  -15.8853   19.8191 N   0  0  0  0  0  0  0  0  0  0  0  0
    9.3346  -15.9709   21.9947 C   0  0  0  0  0  0  0  0  0  0  0  0
    8.7675  -17.1264   22.0549 O   0  0  0  0  0  0  0  0  0  0  0  0
   13.4795  -15.7974   22.3507 N   0  0  0  0  0  0  0  0  0  0  0  0
   12.8260  -16.8892   23.0142 C   0  0  0  0  0  0  0  0  0  0  0  0
   12.9131  -18.0363   22.5377 O   0  0  0  0  0  0  0  0  0  0  0  0
   12.0768  -16.5802   24.2431 C   0  0  0  0  0  0  0  0  0  0  0  0
   10.6018  -16.6528   23.9988 C   0  0  2  0  0  0  0  0  0  0  0  0
   10.3133  -15.6599   22.9581 N   0  0  0  0  0  0  0  0  0  0  0  0
    9.8622  -16.3301   25.2376 C   0  0  0  0  0  0  0  0  0  0  0  0
    9.9170  -17.1099   26.3673 O   0  0  0  0  0  0  0  0  0  0  0  0
    9.1394  -15.2971   25.2849 O   0  0  0  0  0  0  0  0  0  0  0  0
  2  1  1  6
  2  6  1  0
  3  2  1  0
  3  4  1  0
  4  8  1  0
  4  5  2  0
  6  7  2  0
 10  9  1  6
 10 12  1  0
 10 11  1  0
 12 14  1  0
 13  6  1  0
 12 13  1  6
 14 15  2  0
 16 17  1  0
 17 18  2  0
 19 17  1  0
 20 19  1  1
 20 22  1  0
 21 20  1  0
 21 14  1  0
 22 24  2  0
 22 23  1  0
M  END
$$$$
