DTN.pdb
     RDKit          3D

 24 23  0  0  1  0  0  0  0  0999 V2000
   10.3293  -18.0101   20.3864 N   0  0  0  0  0  0  0  0  0  0  0  0
   11.4796  -17.3256   20.9861 C   0  0  1  0  0  0  0  0  0  0  0  0
   12.1568  -16.6204   19.8431 C   0  0  0  0  0  0  0  0  0  0  0  0
   12.8389  -17.4654   18.8790 C   0  0  0  0  0  0  0  0  0  0  0  0
   12.2530  -18.2164   18.0792 O   0  0  0  0  0  0  0  0  0  0  0  0
   11.0002  -16.3736   22.0245 C   0  0  0  0  0  0  0  0  0  0  0  0
   11.6757  -15.3968   22.3655 O   0  0  0  0  0  0  0  0  0  0  0  0
   14.2432  -17.4397   18.8398 O   0  0  0  0  0  0  0  0  0  0  0  0
    7.2215  -15.0150   22.4679 C   0  0  0  0  0  0  0  0  0  0  0  0
    7.7558  -15.6851   23.7110 C   0  0  1  0  0  0  0  0  0  0  0  0
    7.3591  -17.0501   23.6819 O   0  0  0  0  0  0  0  0  0  0  0  0
    9.2908  -15.6335   23.6986 C   0  0  2  0  0  0  0  0  0  0  0  0
    9.7509  -16.5595   22.6550 N   0  0  0  0  0  0  0  0  0  0  0  0
    9.7989  -16.1289   25.0001 C   0  0  0  0  0  0  0  0  0  0  0  0
   10.5694  -17.1615   24.9788 O   0  0  0  0  0  0  0  0  0  0  0  0
    9.4834  -12.8245   28.0742 N   0  0  0  0  0  0  0  0  0  0  0  0
   10.3834  -13.9268   28.2593 C   0  0  0  0  0  0  0  0  0  0  0  0
   11.6097  -13.7423   28.1469 O   0  0  0  0  0  0  0  0  0  0  0  0
    9.7897  -15.2358   28.5772 C   0  0  0  0  0  0  0  0  0  0  0  0
   10.0082  -16.2046   27.4573 C   0  0  2  0  0  0  0  0  0  0  0  0
    9.5001  -15.5483   26.2477 N   0  0  0  0  0  0  0  0  0  0  0  0
    9.2665  -17.4577   27.7135 C   0  0  0  0  0  0  0  0  0  0  0  0
    9.6361  -18.3628   28.6785 O   0  0  0  0  0  0  0  0  0  0  0  0
    8.2440  -17.7322   27.0272 O   0  0  0  0  0  0  0  0  0  0  0  0
  2  1  1  6
  2  6  1  0
  3  2  1  0
  3  4  1  0
  4  8  1  0
  4  5  2  0
  6  7  2  0
 10  9  1  6
 10 12  1  0
 10 11  1  0
 12 14  1  0
 13  6  1  0
 12 13  1  6
 14 15  2  0
 16 17  1  0
 17 18  2  0
 19 17  1  0
 20 19  1  1
 20 22  1  0
 21 20  1  0
 21 14  1  0
 22 24  2  0
 22 23  1  0
M  END
$$$$
