DTN.pdb
     RDKit          3D

 24 23  0  0  1  0  0  0  0  0999 V2000
    8.4295  -17.1800   17.1543 N   0  0  0  0  0  0  0  0  0  0  0  0
    9.8473  -17.0942   17.5203 C   0  0  1  0  0  0  0  0  0  0  0  0
   10.5446  -16.6081   16.2794 C   0  0  0  0  0  0  0  0  0  0  0  0
   10.5701  -17.5257   15.1542 C   0  0  0  0  0  0  0  0  0  0  0  0
    9.8973  -18.5702   15.0966 O   0  0  0  0  0  0  0  0  0  0  0  0
   10.0063  -16.1475   18.6575 C   0  0  0  0  0  0  0  0  0  0  0  0
   11.1198  -15.7466   19.0124 O   0  0  0  0  0  0  0  0  0  0  0  0
   11.4005  -17.2243   14.0616 O   0  0  0  0  0  0  0  0  0  0  0  0
    7.3982  -13.1658   19.7525 C   0  0  0  0  0  0  0  0  0  0  0  0
    7.6933  -14.1677   20.8428 C   0  0  1  0  0  0  0  0  0  0  0  0
    6.6860  -15.1703   20.8056 O   0  0  0  0  0  0  0  0  0  0  0  0
    9.0464  -14.8397   20.5654 C   0  0  2  0  0  0  0  0  0  0  0  0
    8.8818  -15.6762   19.3691 N   0  0  0  0  0  0  0  0  0  0  0  0
    9.3813  -15.7325   21.7003 C   0  0  0  0  0  0  0  0  0  0  0  0
    8.9565  -16.9476   21.6409 O   0  0  0  0  0  0  0  0  0  0  0  0
   13.6947  -15.8996   22.8114 N   0  0  0  0  0  0  0  0  0  0  0  0
   12.5919  -16.7342   23.1942 C   0  0  0  0  0  0  0  0  0  0  0  0
   12.3960  -17.8057   22.5909 O   0  0  0  0  0  0  0  0  0  0  0  0
   11.7417  -16.2631   24.2998 C   0  0  0  0  0  0  0  0  0  0  0  0
   10.2956  -16.3137   23.9170 C   0  0  2  0  0  0  0  0  0  0  0  0
   10.1296  -15.3446   22.8284 N   0  0  0  0  0  0  0  0  0  0  0  0
    9.4484  -15.9427   25.0704 C   0  0  0  0  0  0  0  0  0  0  0  0
    9.3119  -16.7344   26.1848 O   0  0  0  0  0  0  0  0  0  0  0  0
    8.8100  -14.8546   25.0548 O   0  0  0  0  0  0  0  0  0  0  0  0
  2  1  1  6
  2  6  1  0
  3  2  1  0
  3  4  1  0
  4  8  1  0
  4  5  2  0
  6  7  2  0
 10  9  1  6
 10 12  1  0
 10 11  1  0
 12 14  1  0
 13  6  1  0
 12 13  1  6
 14 15  2  0
 16 17  1  0
 17 18  2  0
 19 17  1  0
 20 19  1  1
 20 22  1  0
 21 20  1  0
 21 14  1  0
 22 24  2  0
 22 23  1  0
M  END
$$$$
