DTN.pdb
     RDKit          3D

 24 23  0  0  1  0  0  0  0  0999 V2000
   10.1469  -15.7765   15.0931 N   0  0  0  0  0  0  0  0  0  0  0  0
    9.4134  -16.2801   16.2592 C   0  0  1  0  0  0  0  0  0  0  0  0
    9.8155  -17.7243   16.3825 C   0  0  0  0  0  0  0  0  0  0  0  0
    9.3677  -18.6098   15.3224 C   0  0  0  0  0  0  0  0  0  0  0  0
    8.8316  -18.2164   14.2712 O   0  0  0  0  0  0  0  0  0  0  0  0
    9.7951  -15.4894   17.4607 C   0  0  0  0  0  0  0  0  0  0  0  0
   10.9009  -14.9455   17.5506 O   0  0  0  0  0  0  0  0  0  0  0  0
    9.5462  -19.9940   15.4845 O   0  0  0  0  0  0  0  0  0  0  0  0
    7.7757  -12.6837   19.2702 C   0  0  0  0  0  0  0  0  0  0  0  0
    8.0605  -13.8160   20.2277 C   0  0  1  0  0  0  0  0  0  0  0  0
    6.9465  -14.6992   20.2109 O   0  0  0  0  0  0  0  0  0  0  0  0
    9.2940  -14.5939   19.7452 C   0  0  2  0  0  0  0  0  0  0  0  0
    8.8989  -15.3362   18.5406 N   0  0  0  0  0  0  0  0  0  0  0  0
    9.6748  -15.5823   20.7822 C   0  0  0  0  0  0  0  0  0  0  0  0
    9.1701  -16.7639   20.6852 O   0  0  0  0  0  0  0  0  0  0  0  0
   13.6710  -17.4451   21.8641 N   0  0  0  0  0  0  0  0  0  0  0  0
   13.2658  -16.1449   22.3162 C   0  0  0  0  0  0  0  0  0  0  0  0
   13.8033  -15.1322   21.8306 O   0  0  0  0  0  0  0  0  0  0  0  0
   12.2175  -16.0864   23.3481 C   0  0  0  0  0  0  0  0  0  0  0  0
   10.8794  -16.4196   22.7659 C   0  0  2  0  0  0  0  0  0  0  0  0
   10.5470  -15.3182   21.8557 N   0  0  0  0  0  0  0  0  0  0  0  0
    9.8672  -16.5247   23.8385 C   0  0  0  0  0  0  0  0  0  0  0  0
    9.8209  -17.5736   24.7243 O   0  0  0  0  0  0  0  0  0  0  0  0
    8.9941  -15.6230   23.9667 O   0  0  0  0  0  0  0  0  0  0  0  0
  2  1  1  6
  2  6  1  0
  3  2  1  0
  3  4  1  0
  4  8  1  0
  4  5  2  0
  6  7  2  0
 10  9  1  6
 10 12  1  0
 10 11  1  0
 12 14  1  0
 13  6  1  0
 12 13  1  6
 14 15  2  0
 16 17  1  0
 17 18  2  0
 19 17  1  0
 20 19  1  1
 20 22  1  0
 21 20  1  0
 21 14  1  0
 22 24  2  0
 22 23  1  0
M  END
$$$$
