DTN.pdb
     RDKit          3D

 24 23  0  0  1  0  0  0  0  0999 V2000
    8.5190  -17.5733   17.5447 N   0  0  0  0  0  0  0  0  0  0  0  0
    9.9462  -17.4391   17.8555 C   0  0  1  0  0  0  0  0  0  0  0  0
   10.5770  -16.9242   16.5908 C   0  0  0  0  0  0  0  0  0  0  0  0
   10.4681  -17.7799   15.4227 C   0  0  0  0  0  0  0  0  0  0  0  0
   10.6273  -19.0132   15.4500 O   0  0  0  0  0  0  0  0  0  0  0  0
   10.1165  -16.4918   18.9905 C   0  0  0  0  0  0  0  0  0  0  0  0
   11.2317  -16.0754   19.3216 O   0  0  0  0  0  0  0  0  0  0  0  0
   10.1655  -17.1891   14.1843 O   0  0  0  0  0  0  0  0  0  0  0  0
    7.5573  -13.5299   20.0791 C   0  0  0  0  0  0  0  0  0  0  0  0
    7.8448  -14.5018   21.1983 C   0  0  1  0  0  0  0  0  0  0  0  0
    6.8169  -15.4839   21.2051 O   0  0  0  0  0  0  0  0  0  0  0  0
    9.1805  -15.2104   20.9280 C   0  0  2  0  0  0  0  0  0  0  0  0
    9.0013  -16.0376   19.7273 N   0  0  0  0  0  0  0  0  0  0  0  0
    9.4820  -16.1164   22.0618 C   0  0  0  0  0  0  0  0  0  0  0  0
    9.4158  -17.3838   21.8386 O   0  0  0  0  0  0  0  0  0  0  0  0
   12.1477  -19.2562   24.7459 N   0  0  0  0  0  0  0  0  0  0  0  0
   12.3663  -17.8527   24.9499 C   0  0  0  0  0  0  0  0  0  0  0  0
   13.0522  -17.4736   25.9174 O   0  0  0  0  0  0  0  0  0  0  0  0
   11.7534  -16.9274   23.9827 C   0  0  0  0  0  0  0  0  0  0  0  0
   10.3127  -16.6911   24.3128 C   0  0  2  0  0  0  0  0  0  0  0  0
    9.8362  -15.6871   23.3553 N   0  0  0  0  0  0  0  0  0  0  0  0
   10.1815  -16.1865   25.6963 C   0  0  0  0  0  0  0  0  0  0  0  0
   10.8349  -15.0665   26.1501 O   0  0  0  0  0  0  0  0  0  0  0  0
    9.4424  -16.7951   26.5180 O   0  0  0  0  0  0  0  0  0  0  0  0
  2  1  1  6
  2  6  1  0
  3  2  1  0
  3  4  1  0
  4  8  1  0
  4  5  2  0
  6  7  2  0
 10  9  1  6
 10 12  1  0
 10 11  1  0
 12 14  1  0
 13  6  1  0
 12 13  1  6
 14 15  2  0
 16 17  1  0
 17 18  2  0
 19 17  1  0
 20 19  1  6
 20 22  1  0
 21 20  1  0
 21 14  1  0
 22 24  2  0
 22 23  1  0
M  END
$$$$
