DTN.pdb
     RDKit          3D

 24 23  0  0  1  0  0  0  0  0999 V2000
    7.6438  -17.2749   17.1096 N   0  0  0  0  0  0  0  0  0  0  0  0
    9.0831  -17.0035   17.0299 C   0  0  1  0  0  0  0  0  0  0  0  0
    9.2869  -16.3558   15.6877 C   0  0  0  0  0  0  0  0  0  0  0  0
    9.0781  -17.2022   14.5264 C   0  0  0  0  0  0  0  0  0  0  0  0
    7.9627  -17.4256   14.0234 O   0  0  0  0  0  0  0  0  0  0  0  0
    9.4781  -16.1057   18.1490 C   0  0  0  0  0  0  0  0  0  0  0  0
   10.5952  -15.5796   18.1907 O   0  0  0  0  0  0  0  0  0  0  0  0
   10.1958  -17.8087   13.9288 O   0  0  0  0  0  0  0  0  0  0  0  0
    7.2318  -13.3415   19.8828 C   0  0  0  0  0  0  0  0  0  0  0  0
    7.7535  -14.3200   20.9076 C   0  0  1  0  0  0  0  0  0  0  0  0
    6.7545  -15.3083   21.1232 O   0  0  0  0  0  0  0  0  0  0  0  0
    9.0049  -15.0186   20.3550 C   0  0  2  0  0  0  0  0  0  0  0  0
    8.5818  -15.8266   19.2034 N   0  0  0  0  0  0  0  0  0  0  0  0
    9.5348  -15.9420   21.3865 C   0  0  0  0  0  0  0  0  0  0  0  0
    9.1027  -17.1558   21.3703 O   0  0  0  0  0  0  0  0  0  0  0  0
   13.1694  -17.8550   21.8706 N   0  0  0  0  0  0  0  0  0  0  0  0
   13.1433  -16.5395   22.4433 C   0  0  0  0  0  0  0  0  0  0  0  0
   13.8047  -15.6272   21.9134 O   0  0  0  0  0  0  0  0  0  0  0  0
   12.3191  -16.3446   23.6474 C   0  0  0  0  0  0  0  0  0  0  0  0
   10.8749  -16.6018   23.3502 C   0  0  2  0  0  0  0  0  0  0  0  0
   10.4740  -15.5840   22.3728 N   0  0  0  0  0  0  0  0  0  0  0  0
   10.0692  -16.4769   24.5836 C   0  0  0  0  0  0  0  0  0  0  0  0
    9.1685  -15.4604   24.7901 O   0  0  0  0  0  0  0  0  0  0  0  0
   10.1970  -17.3296   25.5047 O   0  0  0  0  0  0  0  0  0  0  0  0
  2  1  1  1
  2  6  1  0
  3  2  1  0
  3  4  1  0
  4  8  1  0
  4  5  2  0
  6  7  2  0
 10  9  1  6
 10 12  1  0
 10 11  1  0
 12 14  1  0
 13  6  1  0
 12 13  1  6
 14 15  2  0
 16 17  1  0
 17 18  2  0
 19 17  1  0
 20 19  1  1
 20 22  1  0
 21 20  1  0
 21 14  1  0
 22 24  2  0
 22 23  1  0
M  END
$$$$
