DTN.pdb
     RDKit          3D

 24 23  0  0  1  0  0  0  0  0999 V2000
    9.2568  -17.2776   19.5726 N   0  0  0  0  0  0  0  0  0  0  0  0
   10.6157  -17.2918   20.1245 C   0  0  1  0  0  0  0  0  0  0  0  0
   11.4720  -16.6346   19.0770 C   0  0  0  0  0  0  0  0  0  0  0  0
   11.5461  -17.3067   17.7919 C   0  0  0  0  0  0  0  0  0  0  0  0
   10.5503  -17.6275   17.1193 O   0  0  0  0  0  0  0  0  0  0  0  0
   10.6332  -16.5431   21.4105 C   0  0  0  0  0  0  0  0  0  0  0  0
   11.6715  -16.0358   21.8477 O   0  0  0  0  0  0  0  0  0  0  0  0
   12.8130  -17.6170   17.2694 O   0  0  0  0  0  0  0  0  0  0  0  0
    7.9460  -13.9856   22.7438 C   0  0  0  0  0  0  0  0  0  0  0  0
    8.1378  -15.1007   23.7434 C   0  0  1  0  0  0  0  0  0  0  0  0
    7.1232  -16.0717   23.5218 O   0  0  0  0  0  0  0  0  0  0  0  0
    9.4997  -15.7702   23.5057 C   0  0  2  0  0  0  0  0  0  0  0  0
    9.4559  -16.3892   22.1741 N   0  0  0  0  0  0  0  0  0  0  0  0
    9.6841  -16.8517   24.5025 C   0  0  0  0  0  0  0  0  0  0  0  0
    9.5598  -18.0651   24.0869 O   0  0  0  0  0  0  0  0  0  0  0  0
   13.2785  -19.4200   27.6264 N   0  0  0  0  0  0  0  0  0  0  0  0
   12.0010  -19.5278   26.9818 C   0  0  0  0  0  0  0  0  0  0  0  0
   11.3234  -20.5614   27.1335 O   0  0  0  0  0  0  0  0  0  0  0  0
   11.5602  -18.3864   26.1633 C   0  0  0  0  0  0  0  0  0  0  0  0
   10.2834  -17.8134   26.6941 C   0  0  2  0  0  0  0  0  0  0  0  0
    9.9868  -16.6425   25.8617 N   0  0  0  0  0  0  0  0  0  0  0  0
   10.4520  -17.4116   28.1069 C   0  0  0  0  0  0  0  0  0  0  0  0
   10.4671  -16.1002   28.5158 O   0  0  0  0  0  0  0  0  0  0  0  0
   10.5915  -18.2945   28.9973 O   0  0  0  0  0  0  0  0  0  0  0  0
  2  1  1  6
  2  6  1  0
  3  2  1  0
  3  4  1  0
  4  8  1  0
  4  5  2  0
  6  7  2  0
 10  9  1  6
 10 12  1  0
 10 11  1  0
 12 14  1  0
 13  6  1  0
 12 13  1  6
 14 15  2  0
 16 17  1  0
 17 18  2  0
 19 17  1  0
 20 19  1  6
 20 22  1  0
 21 20  1  0
 21 14  1  0
 22 24  2  0
 22 23  1  0
M  END
$$$$
