DTN.pdb
     RDKit          3D

 24 23  0  0  1  0  0  0  0  0999 V2000
    9.1645  -16.5441   15.6994 N   0  0  0  0  0  0  0  0  0  0  0  0
    8.6551  -17.0143   16.9921 C   0  0  1  0  0  0  0  0  0  0  0  0
    9.1422  -18.4322   17.1140 C   0  0  0  0  0  0  0  0  0  0  0  0
    8.5740  -19.3902   16.1824 C   0  0  0  0  0  0  0  0  0  0  0  0
    8.7791  -20.6157   16.2375 O   0  0  0  0  0  0  0  0  0  0  0  0
    9.1872  -16.1457   18.0769 C   0  0  0  0  0  0  0  0  0  0  0  0
   10.3837  -15.8426   18.1325 O   0  0  0  0  0  0  0  0  0  0  0  0
    7.7421  -18.9141   15.1548 O   0  0  0  0  0  0  0  0  0  0  0  0
    7.3071  -12.9746   19.7048 C   0  0  0  0  0  0  0  0  0  0  0  0
    7.7213  -13.9890   20.7436 C   0  0  1  0  0  0  0  0  0  0  0  0
    6.6143  -14.8467   20.9892 O   0  0  0  0  0  0  0  0  0  0  0  0
    8.8734  -14.8423   20.1923 C   0  0  2  0  0  0  0  0  0  0  0  0
    8.3348  -15.6386   19.0815 N   0  0  0  0  0  0  0  0  0  0  0  0
    9.3231  -15.7817   21.2471 C   0  0  0  0  0  0  0  0  0  0  0  0
    8.7970  -16.9580   21.2536 O   0  0  0  0  0  0  0  0  0  0  0  0
   11.8782  -17.9452   21.5744 N   0  0  0  0  0  0  0  0  0  0  0  0
   12.6811  -17.3014   22.5745 C   0  0  0  0  0  0  0  0  0  0  0  0
   13.9138  -17.4771   22.5772 O   0  0  0  0  0  0  0  0  0  0  0  0
   11.9840  -16.4552   23.5568 C   0  0  0  0  0  0  0  0  0  0  0  0
   10.5086  -16.4528   23.3042 C   0  0  2  0  0  0  0  0  0  0  0  0
   10.2818  -15.4771   22.2325 N   0  0  0  0  0  0  0  0  0  0  0  0
    9.7813  -16.0524   24.5276 C   0  0  0  0  0  0  0  0  0  0  0  0
    8.8788  -16.8697   25.1636 O   0  0  0  0  0  0  0  0  0  0  0  0
    9.9802  -14.9123   25.0300 O   0  0  0  0  0  0  0  0  0  0  0  0
  2  1  1  6
  2  6  1  0
  3  2  1  0
  3  4  1  0
  4  8  1  0
  4  5  2  0
  6  7  2  0
 10  9  1  6
 10 12  1  0
 10 11  1  0
 12 14  1  0
 13  6  1  0
 12 13  1  6
 14 15  2  0
 16 17  1  0
 17 18  2  0
 19 17  1  0
 20 19  1  1
 20 22  1  0
 21 20  1  0
 21 14  1  0
 22 24  2  0
 22 23  1  0
M  END
$$$$
