DTN.pdb
     RDKit          3D

 24 23  0  0  1  0  0  0  0  0999 V2000
    9.6623  -18.1373   16.6922 N   0  0  0  0  0  0  0  0  0  0  0  0
    8.7815  -18.1268   17.8650 C   0  0  1  0  0  0  0  0  0  0  0  0
    8.8607  -19.5193   18.4282 C   0  0  0  0  0  0  0  0  0  0  0  0
    8.8943  -20.6031   17.4624 C   0  0  0  0  0  0  0  0  0  0  0  0
    8.2920  -20.5806   16.3744 O   0  0  0  0  0  0  0  0  0  0  0  0
    9.2626  -17.1044   18.8335 C   0  0  0  0  0  0  0  0  0  0  0  0
   10.4672  -16.8740   18.9833 O   0  0  0  0  0  0  0  0  0  0  0  0
    9.6489  -21.7488   17.7660 O   0  0  0  0  0  0  0  0  0  0  0  0
    8.0463  -13.4031   21.9088 C   0  0  0  0  0  0  0  0  0  0  0  0
    7.6170  -14.4596   20.9193 C   0  0  1  0  0  0  0  0  0  0  0  0
    7.1662  -13.8039   19.7411 O   0  0  0  0  0  0  0  0  0  0  0  0
    8.8256  -15.3317   20.5478 C   0  0  2  0  0  0  0  0  0  0  0  0
    8.3506  -16.3623   19.6148 N   0  0  0  0  0  0  0  0  0  0  0  0
    9.3174  -16.0162   21.7672 C   0  0  0  0  0  0  0  0  0  0  0  0
    8.5977  -16.9768   22.2360 O   0  0  0  0  0  0  0  0  0  0  0  0
   13.6956  -15.0313   22.1336 N   0  0  0  0  0  0  0  0  0  0  0  0
   13.1013  -16.2574   22.5841 C   0  0  0  0  0  0  0  0  0  0  0  0
   13.2442  -17.2926   21.9071 O   0  0  0  0  0  0  0  0  0  0  0  0
   12.3431  -16.2157   23.8453 C   0  0  0  0  0  0  0  0  0  0  0  0
   10.8933  -16.4981   23.6034 C   0  0  2  0  0  0  0  0  0  0  0  0
   10.5110  -15.6907   22.4398 N   0  0  0  0  0  0  0  0  0  0  0  0
   10.0931  -16.1104   24.7846 C   0  0  0  0  0  0  0  0  0  0  0  0
    9.0880  -15.1753   24.7342 O   0  0  0  0  0  0  0  0  0  0  0  0
   10.3250  -16.6475   25.9024 O   0  0  0  0  0  0  0  0  0  0  0  0
  2  1  1  6
  2  6  1  0
  3  2  1  0
  3  4  1  0
  4  8  1  0
  4  5  2  0
  6  7  2  0
 10  9  1  1
 10 12  1  0
 10 11  1  0
 12 14  1  0
 13  6  1  0
 12 13  1  6
 14 15  2  0
 16 17  1  0
 17 18  2  0
 19 17  1  0
 20 19  1  1
 20 22  1  0
 21 20  1  0
 21 14  1  0
 22 24  2  0
 22 23  1  0
M  END
$$$$
