DTN.pdb
     RDKit          3D

 24 23  0  0  1  0  0  0  0  0999 V2000
   12.2401  -14.1803   16.0025 N   0  0  0  0  0  0  0  0  0  0  0  0
   12.1544  -15.2527   16.9995 C   0  0  1  0  0  0  0  0  0  0  0  0
   13.5054  -15.9139   16.9822 C   0  0  0  0  0  0  0  0  0  0  0  0
   13.9434  -16.4495   15.7056 C   0  0  0  0  0  0  0  0  0  0  0  0
   14.8327  -17.3104   15.5838 O   0  0  0  0  0  0  0  0  0  0  0  0
   11.8371  -14.6651   18.3294 C   0  0  0  0  0  0  0  0  0  0  0  0
   12.6742  -14.0141   18.9635 O   0  0  0  0  0  0  0  0  0  0  0  0
   13.3325  -15.9731   14.5333 O   0  0  0  0  0  0  0  0  0  0  0  0
    8.4715  -12.7180   19.3123 C   0  0  0  0  0  0  0  0  0  0  0  0
    8.7336  -13.9109   20.1999 C   0  0  1  0  0  0  0  0  0  0  0  0
    8.0523  -15.0301   19.6481 O   0  0  0  0  0  0  0  0  0  0  0  0
   10.2377  -14.2223   20.2050 C   0  0  2  0  0  0  0  0  0  0  0  0
   10.5615  -14.8351   18.9097 N   0  0  0  0  0  0  0  0  0  0  0  0
   10.5179  -15.2227   21.2624 C   0  0  0  0  0  0  0  0  0  0  0  0
   10.3571  -16.4644   20.9580 O   0  0  0  0  0  0  0  0  0  0  0  0
   14.0942  -15.0705   22.5733 N   0  0  0  0  0  0  0  0  0  0  0  0
   13.4203  -16.1942   23.1586 C   0  0  0  0  0  0  0  0  0  0  0  0
   13.7305  -17.3471   22.8049 O   0  0  0  0  0  0  0  0  0  0  0  0
   12.3819  -15.9095   24.1624 C   0  0  0  0  0  0  0  0  0  0  0  0
   11.0171  -15.9912   23.5531 C   0  0  2  0  0  0  0  0  0  0  0  0
   10.9477  -14.9083   22.5660 N   0  0  0  0  0  0  0  0  0  0  0  0
    9.9817  -15.8078   24.5924 C   0  0  0  0  0  0  0  0  0  0  0  0
    9.8136  -16.6761   25.6436 O   0  0  0  0  0  0  0  0  0  0  0  0
    9.2031  -14.8168   24.5334 O   0  0  0  0  0  0  0  0  0  0  0  0
  2  1  1  6
  2  6  1  0
  3  2  1  0
  3  4  1  0
  4  8  1  0
  4  5  2  0
  6  7  2  0
 10  9  1  6
 10 12  1  0
 10 11  1  0
 12 14  1  0
 13  6  1  0
 12 13  1  6
 14 15  2  0
 16 17  1  0
 17 18  2  0
 19 17  1  0
 20 19  1  1
 20 22  1  0
 21 20  1  0
 21 14  1  0
 22 24  2  0
 22 23  1  0
M  END
$$$$
