DTN.pdb
     RDKit          3D

 24 23  0  0  1  0  0  0  0  0999 V2000
   10.7241  -15.4794   15.4987 N   0  0  0  0  0  0  0  0  0  0  0  0
   10.1742  -16.2429   16.6240 C   0  0  1  0  0  0  0  0  0  0  0  0
   10.9545  -17.5287   16.6450 C   0  0  0  0  0  0  0  0  0  0  0  0
   10.8795  -18.3466   15.4475 C   0  0  0  0  0  0  0  0  0  0  0  0
    9.8384  -18.8989   15.0498 O   0  0  0  0  0  0  0  0  0  0  0  0
   10.3477  -15.4636   17.8799 C   0  0  0  0  0  0  0  0  0  0  0  0
   11.3759  -14.8147   18.0997 O   0  0  0  0  0  0  0  0  0  0  0  0
   12.0464  -18.5306   14.6868 O   0  0  0  0  0  0  0  0  0  0  0  0
    7.6743  -13.1131   19.5456 C   0  0  0  0  0  0  0  0  0  0  0  0
    8.1334  -14.1621   20.5297 C   0  0  1  0  0  0  0  0  0  0  0  0
    7.2158  -15.2469   20.4789 O   0  0  0  0  0  0  0  0  0  0  0  0
    9.5151  -14.6854   20.1099 C   0  0  2  0  0  0  0  0  0  0  0  0
    9.3357  -15.4424   18.8638 N   0  0  0  0  0  0  0  0  0  0  0  0
   10.0077  -15.6256   21.1447 C   0  0  0  0  0  0  0  0  0  0  0  0
    9.6717  -16.8639   21.0252 O   0  0  0  0  0  0  0  0  0  0  0  0
   14.3735  -15.0964   22.1432 N   0  0  0  0  0  0  0  0  0  0  0  0
   13.5008  -16.1896   22.4633 C   0  0  0  0  0  0  0  0  0  0  0  0
   13.5408  -17.2272   21.7760 O   0  0  0  0  0  0  0  0  0  0  0  0
   12.5925  -16.0142   23.6084 C   0  0  0  0  0  0  0  0  0  0  0  0
   11.1768  -16.2950   23.2117 C   0  0  2  0  0  0  0  0  0  0  0  0
   10.8146  -15.2585   22.2388 N   0  0  0  0  0  0  0  0  0  0  0  0
   10.2912  -16.2240   24.3935 C   0  0  0  0  0  0  0  0  0  0  0  0
    9.2909  -15.2917   24.5248 O   0  0  0  0  0  0  0  0  0  0  0  0
   10.4414  -17.0454   25.3393 O   0  0  0  0  0  0  0  0  0  0  0  0
  2  1  1  6
  2  6  1  0
  3  2  1  0
  3  4  1  0
  4  8  1  0
  4  5  2  0
  6  7  2  0
 10  9  1  6
 10 12  1  0
 10 11  1  0
 12 14  1  0
 13  6  1  0
 12 13  1  6
 14 15  2  0
 16 17  1  0
 17 18  2  0
 19 17  1  0
 20 19  1  1
 20 22  1  0
 21 20  1  0
 21 14  1  0
 22 24  2  0
 22 23  1  0
M  END
$$$$
