DTN.pdb
     RDKit          3D

 24 23  0  0  1  0  0  0  0  0999 V2000
   10.2317  -18.3354   20.0756 N   0  0  0  0  0  0  0  0  0  0  0  0
   10.9808  -17.0844   19.9166 C   0  0  1  0  0  0  0  0  0  0  0  0
   10.8581  -16.7358   18.4585 C   0  0  0  0  0  0  0  0  0  0  0  0
   11.6121  -17.5630   17.5335 C   0  0  0  0  0  0  0  0  0  0  0  0
   12.5615  -18.2920   17.8715 O   0  0  0  0  0  0  0  0  0  0  0  0
   10.3858  -16.0390   20.7928 C   0  0  0  0  0  0  0  0  0  0  0  0
   10.7426  -14.8581   20.7220 O   0  0  0  0  0  0  0  0  0  0  0  0
   11.2555  -17.5456   16.1745 O   0  0  0  0  0  0  0  0  0  0  0  0
    6.6575  -15.2096   21.5397 C   0  0  0  0  0  0  0  0  0  0  0  0
    7.3615  -15.6033   22.8160 C   0  0  1  0  0  0  0  0  0  0  0  0
    7.1620  -16.9963   23.0186 O   0  0  0  0  0  0  0  0  0  0  0  0
    8.8695  -15.3539   22.6646 C   0  0  2  0  0  0  0  0  0  0  0  0
    9.3892  -16.3677   21.7370 N   0  0  0  0  0  0  0  0  0  0  0  0
    9.5254  -15.5622   23.9776 C   0  0  0  0  0  0  0  0  0  0  0  0
   10.3019  -16.5838   24.0942 O   0  0  0  0  0  0  0  0  0  0  0  0
    9.8495  -13.6752   29.7358 N   0  0  0  0  0  0  0  0  0  0  0  0
   10.4875  -14.2357   28.5791 C   0  0  0  0  0  0  0  0  0  0  0  0
   11.5064  -14.9373   28.7209 O   0  0  0  0  0  0  0  0  0  0  0  0
    9.8862  -13.9408   27.2682 C   0  0  0  0  0  0  0  0  0  0  0  0
    9.9640  -15.1337   26.3674 C   0  0  2  0  0  0  0  0  0  0  0  0
    9.3596  -14.7223   25.0957 N   0  0  0  0  0  0  0  0  0  0  0  0
    9.2132  -16.2653   26.9521 C   0  0  0  0  0  0  0  0  0  0  0  0
    7.8979  -16.5257   26.6530 O   0  0  0  0  0  0  0  0  0  0  0  0
    9.7836  -17.0416   27.7669 O   0  0  0  0  0  0  0  0  0  0  0  0
  2  1  1  6
  2  6  1  0
  3  2  1  0
  3  4  1  0
  4  8  1  0
  4  5  2  0
  6  7  2  0
 10  9  1  6
 10 12  1  0
 10 11  1  0
 12 14  1  0
 13  6  1  0
 12 13  1  6
 14 15  2  0
 16 17  1  0
 17 18  2  0
 19 17  1  0
 20 19  1  1
 20 22  1  0
 21 20  1  0
 21 14  1  0
 22 24  2  0
 22 23  1  0
M  END
$$$$
