DTN.pdb
     RDKit          3D

 24 23  0  0  1  0  0  0  0  0999 V2000
    9.8013  -17.3560   17.0767 N   0  0  0  0  0  0  0  0  0  0  0  0
   10.4319  -18.0259   18.2191 C   0  0  1  0  0  0  0  0  0  0  0  0
   11.5646  -18.8221   17.6312 C   0  0  0  0  0  0  0  0  0  0  0  0
   11.2025  -19.8265   16.6471 C   0  0  0  0  0  0  0  0  0  0  0  0
   10.0419  -20.0100   16.2391 O   0  0  0  0  0  0  0  0  0  0  0  0
   10.9117  -17.0026   19.1871 C   0  0  0  0  0  0  0  0  0  0  0  0
   11.5977  -16.0416   18.8231 O   0  0  0  0  0  0  0  0  0  0  0  0
   12.2159  -20.6440   16.1188 O   0  0  0  0  0  0  0  0  0  0  0  0
    8.7606  -15.2104   21.9421 C   0  0  0  0  0  0  0  0  0  0  0  0
    9.9458  -15.9090   22.5643 C   0  0  1  0  0  0  0  0  0  0  0  0
    9.5284  -17.2039   22.9771 O   0  0  0  0  0  0  0  0  0  0  0  0
   11.0502  -16.0768   21.5100 C   0  0  2  0  0  0  0  0  0  0  0  0
   10.5951  -17.1002   20.5594 N   0  0  0  0  0  0  0  0  0  0  0  0
   12.2742  -16.5863   22.1730 C   0  0  0  0  0  0  0  0  0  0  0  0
   12.5133  -17.8491   22.0812 O   0  0  0  0  0  0  0  0  0  0  0  0
   17.4736  -16.7946   23.1049 N   0  0  0  0  0  0  0  0  0  0  0  0
   16.7176  -15.9292   23.9645 C   0  0  0  0  0  0  0  0  0  0  0  0
   17.1455  -15.6725   25.1053 O   0  0  0  0  0  0  0  0  0  0  0  0
   15.4561  -15.3864   23.4342 C   0  0  0  0  0  0  0  0  0  0  0  0
   14.3828  -16.4297   23.4443 C   0  0  2  0  0  0  0  0  0  0  0  0
   13.1871  -15.7873   22.8880 N   0  0  0  0  0  0  0  0  0  0  0  0
   14.1264  -16.8856   24.8272 C   0  0  0  0  0  0  0  0  0  0  0  0
   13.0435  -16.4709   25.5638 O   0  0  0  0  0  0  0  0  0  0  0  0
   14.9245  -17.6917   25.3795 O   0  0  0  0  0  0  0  0  0  0  0  0
  2  1  1  6
  2  6  1  0
  3  2  1  0
  3  4  1  0
  4  8  1  0
  4  5  2  0
  6  7  2  0
 10  9  1  6
 10 12  1  0
 10 11  1  0
 12 14  1  0
 13  6  1  0
 12 13  1  6
 14 15  2  0
 16 17  1  0
 17 18  2  0
 19 17  1  0
 20 19  1  1
 20 22  1  0
 21 20  1  0
 21 14  1  0
 22 24  2  0
 22 23  1  0
M  END
$$$$
