SIN.pdb
     RDKit          3D

 23 22  0  0  1  0  0  0  0  0999 V2000
    6.8873  -17.1738   21.1161 O   0  0  0  0  0  0  0  0  0  0  0  0
    5.9408  -16.1835   21.0691 C   0  0  0  0  0  0  0  0  0  0  0  0
    6.6214  -14.8355   21.1225 C   0  0  2  0  0  0  0  0  0  0  0  0
    7.4423  -14.6863   19.9050 N   0  0  0  0  0  0  0  0  0  0  0  0
    7.4994  -14.6434   22.2747 C   0  0  0  0  0  0  0  0  0  0  0  0
    8.7532  -14.7100   22.1241 O   0  0  0  0  0  0  0  0  0  0  0  0
    5.7676  -11.3583   26.2802 C   0  0  0  0  0  0  0  0  0  0  0  0
    6.6000  -11.9986   25.2053 C   0  0  0  0  0  0  0  0  0  0  0  0
    7.1632  -13.2853   25.7374 C   0  0  2  0  0  0  0  0  0  0  0  0
    8.1838  -12.9614   26.8314 C   0  0  0  0  0  0  0  0  0  0  0  0
    7.8237  -14.1249   24.6560 C   0  0  2  0  0  0  0  0  0  0  0  0
    6.9297  -14.3787   23.5613 N   0  0  0  0  0  0  0  0  0  0  0  0
    8.2204  -15.4103   25.2668 C   0  0  0  0  0  0  0  0  0  0  0  0
    7.3575  -16.3290   25.3278 O   0  0  0  0  0  0  0  0  0  0  0  0
   10.0087  -19.5614   25.3779 N   0  0  0  0  0  0  0  0  0  0  0  0
    9.7222  -18.9221   24.1414 C   0  0  0  0  0  0  0  0  0  0  0  0
    9.4682  -19.6403   23.1421 O   0  0  0  0  0  0  0  0  0  0  0  0
    9.7361  -17.4467   24.0854 C   0  0  0  0  0  0  0  0  0  0  0  0
   10.1800  -16.8925   25.3871 C   0  0  2  0  0  0  0  0  0  0  0  0
    9.4973  -15.7005   25.7936 N   0  0  0  0  0  0  0  0  0  0  0  0
   11.6263  -16.5796   25.3303 C   0  0  0  0  0  0  0  0  0  0  0  0
   12.2036  -15.6476   24.4788 O   0  0  0  0  0  0  0  0  0  0  0  0
   12.4709  -17.1718   26.0917 O   0  0  0  0  0  0  0  0  0  0  0  0
  2  1  1  0
  3  2  1  0
  3  5  1  0
  3  4  1  6
  5 12  1  0
  5  6  2  0
  7  8  1  0
  8  9  1  0
  9 11  1  0
  9 10  1  1
 11 13  1  0
 11 12  1  6
 13 20  1  0
 13 14  2  0
 16 18  1  0
 16 15  1  0
 17 16  2  0
 19 18  1  6
 19 21  1  0
 20 19  1  0
 21 22  1  0
 23 21  2  0
M  END
$$$$
