SIN.pdb
     RDKit          3D

 23 22  0  0  1  0  0  0  0  0999 V2000
    5.8950  -17.6949   21.6064 O   0  0  0  0  0  0  0  0  0  0  0  0
    7.1355  -17.1184   21.5207 C   0  0  0  0  0  0  0  0  0  0  0  0
    7.0097  -15.6251   21.7140 C   0  0  2  0  0  0  0  0  0  0  0  0
    7.4292  -14.9625   20.4637 N   0  0  0  0  0  0  0  0  0  0  0  0
    7.8252  -15.0819   22.7981 C   0  0  0  0  0  0  0  0  0  0  0  0
    9.0339  -14.7803   22.5812 O   0  0  0  0  0  0  0  0  0  0  0  0
    5.8659  -11.8416   26.7122 C   0  0  0  0  0  0  0  0  0  0  0  0
    6.7753  -12.4369   25.6745 C   0  0  0  0  0  0  0  0  0  0  0  0
    7.3693  -13.7015   26.2258 C   0  0  2  0  0  0  0  0  0  0  0  0
    8.3269  -13.3405   27.3643 C   0  0  0  0  0  0  0  0  0  0  0  0
    8.1111  -14.5064   25.1711 C   0  0  2  0  0  0  0  0  0  0  0  0
    7.2450  -14.8945   24.0935 N   0  0  0  0  0  0  0  0  0  0  0  0
    8.6443  -15.7187   25.8260 C   0  0  0  0  0  0  0  0  0  0  0  0
    7.8198  -16.5432   26.3084 O   0  0  0  0  0  0  0  0  0  0  0  0
   12.5432  -17.0437   23.9085 N   0  0  0  0  0  0  0  0  0  0  0  0
   11.6223  -17.8697   24.6080 C   0  0  0  0  0  0  0  0  0  0  0  0
   10.8231  -18.5725   23.9399 O   0  0  0  0  0  0  0  0  0  0  0  0
   11.6447  -17.8653   26.0843 C   0  0  0  0  0  0  0  0  0  0  0  0
   10.4015  -17.2513   26.6099 C   0  0  2  0  0  0  0  0  0  0  0  0
   10.0132  -16.0358   25.9587 N   0  0  0  0  0  0  0  0  0  0  0  0
   10.5623  -16.9521   28.0513 C   0  0  0  0  0  0  0  0  0  0  0  0
   10.7140  -17.9065   29.0478 O   0  0  0  0  0  0  0  0  0  0  0  0
   10.5714  -15.7471   28.4890 O   0  0  0  0  0  0  0  0  0  0  0  0
  2  1  1  0
  3  2  1  0
  3  5  1  0
  3  4  1  6
  5 12  1  0
  5  6  2  0
  7  8  1  0
  8  9  1  0
  9 11  1  0
  9 10  1  1
 11 13  1  0
 11 12  1  6
 13 20  1  0
 13 14  2  0
 16 18  1  0
 16 15  1  0
 17 16  2  0
 19 18  1  6
 19 21  1  0
 20 19  1  0
 21 22  1  0
 23 21  2  0
M  END
$$$$
