SIN.pdb
     RDKit          3D

 23 22  0  0  1  0  0  0  0  0999 V2000
    6.4362  -17.1719   19.8176 O   0  0  0  0  0  0  0  0  0  0  0  0
    7.1053  -16.8036   20.9558 C   0  0  0  0  0  0  0  0  0  0  0  0
    7.1908  -15.2966   21.0225 C   0  0  2  0  0  0  0  0  0  0  0  0
    7.8416  -14.8176   19.7875 N   0  0  0  0  0  0  0  0  0  0  0  0
    7.9568  -14.7810   22.1552 C   0  0  0  0  0  0  0  0  0  0  0  0
    9.2033  -14.6031   22.0384 O   0  0  0  0  0  0  0  0  0  0  0  0
    7.2888  -11.8185   27.4787 C   0  0  0  0  0  0  0  0  0  0  0  0
    8.1237  -12.7418   26.6368 C   0  0  0  0  0  0  0  0  0  0  0  0
    7.2925  -13.2202   25.4809 C   0  0  2  0  0  0  0  0  0  0  0  0
    6.1072  -14.0219   26.0248 C   0  0  0  0  0  0  0  0  0  0  0  0
    8.0847  -14.0777   24.5074 C   0  0  2  0  0  0  0  0  0  0  0  0
    7.2863  -14.4802   23.3839 N   0  0  0  0  0  0  0  0  0  0  0  0
    8.5381  -15.2802   25.2364 C   0  0  0  0  0  0  0  0  0  0  0  0
    7.6743  -16.1459   25.5470 O   0  0  0  0  0  0  0  0  0  0  0  0
   11.1080  -18.2066   23.5447 N   0  0  0  0  0  0  0  0  0  0  0  0
   11.7058  -17.2344   24.3915 C   0  0  0  0  0  0  0  0  0  0  0  0
   12.3746  -16.3114   23.8625 O   0  0  0  0  0  0  0  0  0  0  0  0
   11.5159  -17.3516   25.8511 C   0  0  0  0  0  0  0  0  0  0  0  0
   10.1977  -16.7943   26.2387 C   0  0  2  0  0  0  0  0  0  0  0  0
    9.8708  -15.5450   25.6187 N   0  0  0  0  0  0  0  0  0  0  0  0
   10.1533  -16.5886   27.7046 C   0  0  0  0  0  0  0  0  0  0  0  0
   10.2068  -17.6032   28.6503 O   0  0  0  0  0  0  0  0  0  0  0  0
   10.0581  -15.4160   28.2145 O   0  0  0  0  0  0  0  0  0  0  0  0
  2  1  1  0
  3  2  1  0
  3  5  1  0
  3  4  1  6
  5 12  1  0
  5  6  2  0
  7  8  1  0
  8  9  1  0
  9 11  1  0
  9 10  1  1
 11 13  1  0
 11 12  1  6
 13 20  1  0
 13 14  2  0
 16 18  1  0
 16 15  1  0
 17 16  2  0
 19 18  1  6
 19 21  1  0
 20 19  1  0
 21 22  1  0
 23 21  2  0
M  END
$$$$
