SIN.pdb
     RDKit          3D

 23 22  0  0  1  0  0  0  0  0999 V2000
    8.4246  -17.8029   22.2795 O   0  0  0  0  0  0  0  0  0  0  0  0
    7.3333  -17.0449   21.9428 C   0  0  0  0  0  0  0  0  0  0  0  0
    7.7362  -15.5906   21.8670 C   0  0  2  0  0  0  0  0  0  0  0  0
    8.6210  -15.4188   20.6982 N   0  0  0  0  0  0  0  0  0  0  0  0
    8.4525  -15.0966   23.0410 C   0  0  0  0  0  0  0  0  0  0  0  0
    9.7134  -15.0051   23.0120 O   0  0  0  0  0  0  0  0  0  0  0  0
    5.9252  -11.6980   26.5356 C   0  0  0  0  0  0  0  0  0  0  0  0
    6.9745  -12.2735   25.6267 C   0  0  0  0  0  0  0  0  0  0  0  0
    7.5980  -13.4599   26.3046 C   0  0  2  0  0  0  0  0  0  0  0  0
    8.4494  -12.9662   27.4772 C   0  0  0  0  0  0  0  0  0  0  0  0
    8.4581  -14.2858   25.3619 C   0  0  2  0  0  0  0  0  0  0  0  0
    7.7177  -14.7186   24.2102 N   0  0  0  0  0  0  0  0  0  0  0  0
    8.9306  -15.4700   26.1084 C   0  0  0  0  0  0  0  0  0  0  0  0
    8.0776  -16.3353   26.4489 O   0  0  0  0  0  0  0  0  0  0  0  0
   11.2876  -18.0892   24.5093 N   0  0  0  0  0  0  0  0  0  0  0  0
   12.1200  -17.3813   25.4179 C   0  0  0  0  0  0  0  0  0  0  0  0
   13.0319  -16.6540   24.9504 O   0  0  0  0  0  0  0  0  0  0  0  0
   11.8777  -17.5313   26.8666 C   0  0  0  0  0  0  0  0  0  0  0  0
   10.5941  -16.8880   27.2369 C   0  0  2  0  0  0  0  0  0  0  0  0
   10.2705  -15.7177   26.4767 N   0  0  0  0  0  0  0  0  0  0  0  0
   10.6245  -16.4966   28.6648 C   0  0  0  0  0  0  0  0  0  0  0  0
   10.4887  -15.1975   29.1345 O   0  0  0  0  0  0  0  0  0  0  0  0
   10.7851  -17.3645   29.5947 O   0  0  0  0  0  0  0  0  0  0  0  0
  2  1  1  0
  3  2  1  0
  3  5  1  0
  3  4  1  6
  5 12  1  0
  5  6  2  0
  7  8  1  0
  8  9  1  0
  9 11  1  0
  9 10  1  1
 11 13  1  0
 11 12  1  6
 13 20  1  0
 13 14  2  0
 16 18  1  0
 16 15  1  0
 17 16  2  0
 19 18  1  6
 19 21  1  0
 20 19  1  0
 21 22  1  0
 23 21  2  0
M  END
$$$$
