SIN.pdb
     RDKit          3D

 23 22  0  0  1  0  0  0  0  0999 V2000
    5.6235  -16.8661   20.0446 O   0  0  0  0  0  0  0  0  0  0  0  0
    6.6584  -16.6256   20.9106 C   0  0  0  0  0  0  0  0  0  0  0  0
    6.7853  -15.1376   21.1404 C   0  0  2  0  0  0  0  0  0  0  0  0
    7.3724  -14.5334   19.9285 N   0  0  0  0  0  0  0  0  0  0  0  0
    7.6307  -14.7677   22.2736 C   0  0  0  0  0  0  0  0  0  0  0  0
    8.8838  -14.6935   22.1213 O   0  0  0  0  0  0  0  0  0  0  0  0
    5.7965  -11.7500   26.6230 C   0  0  0  0  0  0  0  0  0  0  0  0
    6.6126  -12.2564   25.4672 C   0  0  0  0  0  0  0  0  0  0  0  0
    7.1585  -13.6099   25.8220 C   0  0  2  0  0  0  0  0  0  0  0  0
    8.1041  -13.4622   27.0168 C   0  0  0  0  0  0  0  0  0  0  0  0
    7.8968  -14.2634   24.6650 C   0  0  2  0  0  0  0  0  0  0  0  0
    7.0297  -14.4906   23.5432 N   0  0  0  0  0  0  0  0  0  0  0  0
    8.4214  -15.5591   25.1433 C   0  0  0  0  0  0  0  0  0  0  0  0
    7.5996  -16.3965   25.6074 O   0  0  0  0  0  0  0  0  0  0  0  0
   11.8892  -16.4483   22.8698 N   0  0  0  0  0  0  0  0  0  0  0  0
   12.1115  -16.9616   24.1762 C   0  0  0  0  0  0  0  0  0  0  0  0
   13.1192  -16.5620   24.8118 O   0  0  0  0  0  0  0  0  0  0  0  0
   11.1519  -17.9391   24.7274 C   0  0  0  0  0  0  0  0  0  0  0  0
   10.1557  -17.2480   25.5809 C   0  0  2  0  0  0  0  0  0  0  0  0
    9.7795  -15.9433   25.1243 N   0  0  0  0  0  0  0  0  0  0  0  0
   10.6896  -17.1019   26.9544 C   0  0  0  0  0  0  0  0  0  0  0  0
   11.0288  -18.1569   27.7903 O   0  0  0  0  0  0  0  0  0  0  0  0
   10.8795  -15.9483   27.4808 O   0  0  0  0  0  0  0  0  0  0  0  0
  2  1  1  0
  3  2  1  0
  3  5  1  0
  3  4  1  6
  5 12  1  0
  5  6  2  0
  7  8  1  0
  8  9  1  0
  9 11  1  0
  9 10  1  1
 11 13  1  0
 11 12  1  6
 13 20  1  0
 13 14  2  0
 16 18  1  0
 16 15  1  0
 17 16  2  0
 19 18  1  6
 19 21  1  0
 20 19  1  0
 21 22  1  0
 23 21  2  0
M  END
$$$$
