SIN.pdb
     RDKit          3D

 23 22  0  0  1  0  0  0  0  0999 V2000
    7.2546  -16.9063   20.9818 O   0  0  0  0  0  0  0  0  0  0  0  0
    6.2830  -15.9439   20.8900 C   0  0  0  0  0  0  0  0  0  0  0  0
    6.9158  -14.5778   21.0184 C   0  0  2  0  0  0  0  0  0  0  0  0
    7.7788  -14.3583   19.8414 N   0  0  0  0  0  0  0  0  0  0  0  0
    7.7407  -14.3999   22.2115 C   0  0  0  0  0  0  0  0  0  0  0  0
    8.9985  -14.4938   22.1223 O   0  0  0  0  0  0  0  0  0  0  0  0
    5.8143  -11.3881   26.4452 C   0  0  0  0  0  0  0  0  0  0  0  0
    6.7401  -11.8865   25.3715 C   0  0  0  0  0  0  0  0  0  0  0  0
    7.2261  -13.2551   25.7545 C   0  0  2  0  0  0  0  0  0  0  0  0
    8.1569  -13.1271   26.9631 C   0  0  0  0  0  0  0  0  0  0  0  0
    7.9568  -13.9541   24.6195 C   0  0  2  0  0  0  0  0  0  0  0  0
    7.1148  -14.1183   23.4680 N   0  0  0  0  0  0  0  0  0  0  0  0
    8.3755  -15.2840   25.1084 C   0  0  0  0  0  0  0  0  0  0  0  0
    7.5568  -16.2385   25.0043 O   0  0  0  0  0  0  0  0  0  0  0  0
   10.8886  -19.5712   24.4566 N   0  0  0  0  0  0  0  0  0  0  0  0
   11.7610  -18.4775   24.7066 C   0  0  0  0  0  0  0  0  0  0  0  0
   12.9588  -18.7228   24.9969 O   0  0  0  0  0  0  0  0  0  0  0  0
   11.2232  -17.1055   24.6150 C   0  0  0  0  0  0  0  0  0  0  0  0
   10.1472  -16.9131   25.6169 C   0  0  2  0  0  0  0  0  0  0  0  0
    9.6279  -15.5798   25.6882 N   0  0  0  0  0  0  0  0  0  0  0  0
   10.6492  -17.2676   26.9642 C   0  0  0  0  0  0  0  0  0  0  0  0
   10.7463  -16.3862   28.0321 O   0  0  0  0  0  0  0  0  0  0  0  0
   11.0422  -18.4560   27.2420 O   0  0  0  0  0  0  0  0  0  0  0  0
  2  1  1  0
  3  2  1  0
  3  5  1  0
  3  4  1  6
  5 12  1  0
  5  6  2  0
  7  8  1  0
  8  9  1  0
  9 11  1  0
  9 10  1  1
 11 13  1  0
 11 12  1  6
 13 20  1  0
 13 14  2  0
 16 18  1  0
 16 15  1  0
 17 16  2  0
 19 18  1  6
 19 21  1  0
 20 19  1  0
 21 22  1  0
 23 21  2  0
M  END
$$$$
