SIN.pdb
     RDKit          3D

 23 22  0  0  1  0  0  0  0  0999 V2000
    8.3418  -17.9057   22.2136 O   0  0  0  0  0  0  0  0  0  0  0  0
    7.0929  -17.3416   22.2396 C   0  0  0  0  0  0  0  0  0  0  0  0
    7.2013  -15.8672   21.9273 C   0  0  2  0  0  0  0  0  0  0  0  0
    7.8470  -15.7227   20.6081 N   0  0  0  0  0  0  0  0  0  0  0  0
    7.9859  -15.0982   22.8909 C   0  0  0  0  0  0  0  0  0  0  0  0
    9.1744  -14.7701   22.6102 O   0  0  0  0  0  0  0  0  0  0  0  0
    5.6357  -11.4826   26.2576 C   0  0  0  0  0  0  0  0  0  0  0  0
    6.6010  -12.1151   25.2950 C   0  0  0  0  0  0  0  0  0  0  0  0
    7.3905  -13.1628   26.0264 C   0  0  2  0  0  0  0  0  0  0  0  0
    8.3085  -12.4715   27.0377 C   0  0  0  0  0  0  0  0  0  0  0  0
    8.2208  -14.0269   25.0912 C   0  0  2  0  0  0  0  0  0  0  0  0
    7.3985  -14.7222   24.1413 N   0  0  0  0  0  0  0  0  0  0  0  0
    8.9463  -15.0128   25.9185 C   0  0  0  0  0  0  0  0  0  0  0  0
    8.3021  -16.0029   26.3623 O   0  0  0  0  0  0  0  0  0  0  0  0
   12.1437  -17.2801   29.2508 N   0  0  0  0  0  0  0  0  0  0  0  0
   10.7541  -17.4353   28.9967 C   0  0  0  0  0  0  0  0  0  0  0  0
   10.1747  -18.4557   29.4464 O   0  0  0  0  0  0  0  0  0  0  0  0
   10.0545  -16.3943   28.2177 C   0  0  0  0  0  0  0  0  0  0  0  0
   10.8986  -15.9576   27.0795 C   0  0  2  0  0  0  0  0  0  0  0  0
   10.3145  -14.9397   26.2579 N   0  0  0  0  0  0  0  0  0  0  0  0
   11.1994  -17.1155   26.2068 C   0  0  0  0  0  0  0  0  0  0  0  0
   12.2978  -17.2091   25.3632 O   0  0  0  0  0  0  0  0  0  0  0  0
   10.4360  -18.1449   26.1718 O   0  0  0  0  0  0  0  0  0  0  0  0
  2  1  1  0
  3  2  1  0
  3  5  1  0
  3  4  1  6
  5 12  1  0
  5  6  2  0
  7  8  1  0
  8  9  1  0
  9 11  1  0
  9 10  1  1
 11 13  1  0
 11 12  1  6
 13 20  1  0
 13 14  2  0
 16 18  1  0
 16 15  1  0
 17 16  2  0
 19 18  1  1
 19 21  1  0
 20 19  1  0
 21 22  1  0
 23 21  2  0
M  END
$$$$
