SIN.pdb
     RDKit          3D

 23 22  0  0  1  0  0  0  0  0999 V2000
    7.3238  -17.5151   21.5283 O   0  0  0  0  0  0  0  0  0  0  0  0
    6.2590  -16.6558   21.4479 C   0  0  0  0  0  0  0  0  0  0  0  0
    6.7620  -15.2310   21.4529 C   0  0  2  0  0  0  0  0  0  0  0  0
    7.4991  -14.9991   20.1954 N   0  0  0  0  0  0  0  0  0  0  0  0
    7.6608  -14.9079   22.5590 C   0  0  0  0  0  0  0  0  0  0  0  0
    8.9109  -14.9053   22.3691 O   0  0  0  0  0  0  0  0  0  0  0  0
    5.9212  -11.5799   26.5933 C   0  0  0  0  0  0  0  0  0  0  0  0
    6.7770  -12.1728   25.5096 C   0  0  0  0  0  0  0  0  0  0  0  0
    7.3480  -13.4705   26.0054 C   0  0  2  0  0  0  0  0  0  0  0  0
    8.3543  -13.1723   27.1198 C   0  0  0  0  0  0  0  0  0  0  0  0
    8.0278  -14.2679   24.9041 C   0  0  2  0  0  0  0  0  0  0  0  0
    7.1150  -14.5948   23.8450 N   0  0  0  0  0  0  0  0  0  0  0  0
    8.5400  -15.5162   25.5061 C   0  0  0  0  0  0  0  0  0  0  0  0
    7.7007  -16.3683   25.9080 O   0  0  0  0  0  0  0  0  0  0  0  0
   10.6517  -18.2459   23.6419 N   0  0  0  0  0  0  0  0  0  0  0  0
   11.7321  -17.6774   24.3693 C   0  0  0  0  0  0  0  0  0  0  0  0
   12.7383  -17.2787   23.7307 O   0  0  0  0  0  0  0  0  0  0  0  0
   11.6254  -17.5809   25.8388 C   0  0  0  0  0  0  0  0  0  0  0  0
   10.2722  -17.1100   26.2206 C   0  0  2  0  0  0  0  0  0  0  0  0
    9.9040  -15.8393   25.6710 N   0  0  0  0  0  0  0  0  0  0  0  0
   10.1780  -17.0014   27.6945 C   0  0  0  0  0  0  0  0  0  0  0  0
   10.3793  -15.8344   28.4186 O   0  0  0  0  0  0  0  0  0  0  0  0
    9.8945  -18.0163   28.4248 O   0  0  0  0  0  0  0  0  0  0  0  0
  2  1  1  0
  3  2  1  0
  3  5  1  0
  3  4  1  6
  5 12  1  0
  5  6  2  0
  7  8  1  0
  8  9  1  0
  9 11  1  0
  9 10  1  1
 11 13  1  0
 11 12  1  6
 13 20  1  0
 13 14  2  0
 16 18  1  0
 16 15  1  0
 17 16  2  0
 19 18  1  1
 19 21  1  0
 20 19  1  0
 21 22  1  0
 23 21  2  0
M  END
$$$$
