SIN.pdb
     RDKit          3D

 23 22  0  0  1  0  0  0  0  0999 V2000
    5.4304  -17.0014   20.3794 O   0  0  0  0  0  0  0  0  0  0  0  0
    6.7077  -16.6832   20.7615 C   0  0  0  0  0  0  0  0  0  0  0  0
    6.8056  -15.1936   20.9949 C   0  0  2  0  0  0  0  0  0  0  0  0
    7.3856  -14.5758   19.7865 N   0  0  0  0  0  0  0  0  0  0  0  0
    7.6397  -14.8103   22.1320 C   0  0  0  0  0  0  0  0  0  0  0  0
    8.8889  -14.6879   21.9786 O   0  0  0  0  0  0  0  0  0  0  0  0
    5.5426  -11.8618   26.4068 C   0  0  0  0  0  0  0  0  0  0  0  0
    6.4425  -12.2858   25.2805 C   0  0  0  0  0  0  0  0  0  0  0  0
    7.0865  -13.5923   25.6468 C   0  0  2  0  0  0  0  0  0  0  0  0
    8.0077  -13.3678   26.8486 C   0  0  0  0  0  0  0  0  0  0  0  0
    7.8821  -14.1931   24.4994 C   0  0  2  0  0  0  0  0  0  0  0  0
    7.0320  -14.5745   23.4068 N   0  0  0  0  0  0  0  0  0  0  0  0
    8.5768  -15.3908   25.0150 C   0  0  0  0  0  0  0  0  0  0  0  0
    7.8855  -16.4177   25.2595 O   0  0  0  0  0  0  0  0  0  0  0  0
   12.2735  -19.1316   23.7661 N   0  0  0  0  0  0  0  0  0  0  0  0
   12.5296  -18.1438   24.7552 C   0  0  0  0  0  0  0  0  0  0  0  0
   13.2649  -18.4484   25.7277 O   0  0  0  0  0  0  0  0  0  0  0  0
   11.9220  -16.8074   24.5975 C   0  0  0  0  0  0  0  0  0  0  0  0
   10.5996  -16.7677   25.2672 C   0  0  2  0  0  0  0  0  0  0  0  0
    9.9637  -15.4841   25.2597 N   0  0  0  0  0  0  0  0  0  0  0  0
   10.7423  -17.1853   26.6808 C   0  0  0  0  0  0  0  0  0  0  0  0
   10.8255  -18.5011   27.1150 O   0  0  0  0  0  0  0  0  0  0  0  0
   10.7995  -16.3265   27.6311 O   0  0  0  0  0  0  0  0  0  0  0  0
  2  1  1  0
  3  2  1  0
  3  5  1  0
  3  4  1  6
  5 12  1  0
  5  6  2  0
  7  8  1  0
  8  9  1  0
  9 11  1  0
  9 10  1  1
 11 13  1  0
 11 12  1  6
 13 20  1  0
 13 14  2  0
 16 18  1  0
 16 15  1  0
 17 16  2  0
 19 18  1  1
 19 21  1  0
 20 19  1  0
 21 22  1  0
 23 21  2  0
M  END
$$$$
