SIN.pdb
     RDKit          3D

 23 22  0  0  1  0  0  0  0  0999 V2000
    6.4235  -17.4222   20.5909 O   0  0  0  0  0  0  0  0  0  0  0  0
    7.3828  -17.0738   21.5060 C   0  0  0  0  0  0  0  0  0  0  0  0
    7.3715  -15.5753   21.6993 C   0  0  2  0  0  0  0  0  0  0  0  0
    7.9381  -14.9510   20.4879 N   0  0  0  0  0  0  0  0  0  0  0  0
    8.1480  -15.1046   22.8444 C   0  0  0  0  0  0  0  0  0  0  0  0
    9.3997  -14.9618   22.7355 O   0  0  0  0  0  0  0  0  0  0  0  0
    5.8881  -11.6892   26.4971 C   0  0  0  0  0  0  0  0  0  0  0  0
    6.8197  -12.3322   25.5086 C   0  0  0  0  0  0  0  0  0  0  0  0
    7.4610  -13.5244   26.1592 C   0  0  2  0  0  0  0  0  0  0  0  0
    8.3609  -13.0392   27.2986 C   0  0  0  0  0  0  0  0  0  0  0  0
    8.2779  -14.3539   25.1818 C   0  0  2  0  0  0  0  0  0  0  0  0
    7.4817  -14.8075   24.0763 N   0  0  0  0  0  0  0  0  0  0  0  0
    8.8007  -15.5246   25.9161 C   0  0  0  0  0  0  0  0  0  0  0  0
    7.9699  -16.3561   26.3747 O   0  0  0  0  0  0  0  0  0  0  0  0
   11.4682  -18.5482   24.2295 N   0  0  0  0  0  0  0  0  0  0  0  0
   12.0170  -17.4938   25.0085 C   0  0  0  0  0  0  0  0  0  0  0  0
   12.6158  -16.5618   24.4153 O   0  0  0  0  0  0  0  0  0  0  0  0
   11.8604  -17.5399   26.4759 C   0  0  0  0  0  0  0  0  0  0  0  0
   10.5454  -16.9761   26.8650 C   0  0  2  0  0  0  0  0  0  0  0  0
   10.1663  -15.7941   26.1500 N   0  0  0  0  0  0  0  0  0  0  0  0
   10.5522  -16.6406   28.3074 C   0  0  0  0  0  0  0  0  0  0  0  0
   10.5469  -17.5701   29.3383 O   0  0  0  0  0  0  0  0  0  0  0  0
   10.5630  -15.4243   28.7128 O   0  0  0  0  0  0  0  0  0  0  0  0
  2  1  1  0
  3  2  1  0
  3  5  1  0
  3  4  1  6
  5 12  1  0
  5  6  2  0
  7  8  1  0
  8  9  1  0
  9 11  1  0
  9 10  1  1
 11 13  1  0
 11 12  1  6
 13 20  1  0
 13 14  2  0
 16 18  1  0
 16 15  1  0
 17 16  2  0
 19 18  1  6
 19 21  1  0
 20 19  1  0
 21 22  1  0
 23 21  2  0
M  END
$$$$
