SIN.pdb
     RDKit          3D

 23 22  0  0  1  0  0  0  0  0999 V2000
    7.8477  -19.5989   18.4699 O   0  0  0  0  0  0  0  0  0  0  0  0
    8.2660  -19.3574   17.1872 C   0  0  0  0  0  0  0  0  0  0  0  0
    8.2034  -17.8734   16.9097 C   0  0  2  0  0  0  0  0  0  0  0  0
    8.8251  -17.6248   15.5944 N   0  0  0  0  0  0  0  0  0  0  0  0
    8.8966  -17.0419   17.8914 C   0  0  0  0  0  0  0  0  0  0  0  0
   10.1583  -16.9612   17.8635 O   0  0  0  0  0  0  0  0  0  0  0  0
    6.5994  -12.4254   20.0875 C   0  0  0  0  0  0  0  0  0  0  0  0
    7.5929  -13.3464   19.4370 C   0  0  0  0  0  0  0  0  0  0  0  0
    7.9490  -14.4329   20.4109 C   0  0  2  0  0  0  0  0  0  0  0  0
    8.6437  -13.8022   21.6205 C   0  0  0  0  0  0  0  0  0  0  0  0
    8.8514  -15.4924   19.7995 C   0  0  2  0  0  0  0  0  0  0  0  0
    8.1386  -16.3254   18.8721 N   0  0  0  0  0  0  0  0  0  0  0  0
    9.3716  -16.3277   20.9015 C   0  0  0  0  0  0  0  0  0  0  0  0
    8.6530  -17.2793   21.3142 O   0  0  0  0  0  0  0  0  0  0  0  0
   12.8997  -20.0532   22.6949 N   0  0  0  0  0  0  0  0  0  0  0  0
   13.0209  -18.6517   22.8963 C   0  0  0  0  0  0  0  0  0  0  0  0
   13.6044  -18.2451   23.9324 O   0  0  0  0  0  0  0  0  0  0  0  0
   12.4573  -17.7377   21.8829 C   0  0  0  0  0  0  0  0  0  0  0  0
   11.1583  -17.1977   22.3514 C   0  0  2  0  0  0  0  0  0  0  0  0
   10.6185  -16.1490   21.5384 N   0  0  0  0  0  0  0  0  0  0  0  0
   11.3045  -16.6650   23.7254 C   0  0  0  0  0  0  0  0  0  0  0  0
   11.1668  -17.4143   24.8857 O   0  0  0  0  0  0  0  0  0  0  0  0
   11.5773  -15.4309   23.9405 O   0  0  0  0  0  0  0  0  0  0  0  0
  2  1  1  0
  3  2  1  0
  3  5  1  0
  3  4  1  6
  5 12  1  0
  5  6  2  0
  7  8  1  0
  8  9  1  0
  9 11  1  0
  9 10  1  1
 11 13  1  0
 11 12  1  6
 13 20  1  0
 13 14  2  0
 16 18  1  0
 16 15  1  0
 17 16  2  0
 19 18  1  6
 19 21  1  0
 20 19  1  0
 21 22  1  0
 23 21  2  0
M  END
$$$$
