SIN.pdb
     RDKit          3D

 23 22  0  0  1  0  0  0  0  0999 V2000
    7.5921  -17.6864   20.8868 O   0  0  0  0  0  0  0  0  0  0  0  0
    6.6443  -16.6999   20.8028 C   0  0  0  0  0  0  0  0  0  0  0  0
    7.3219  -15.3496   20.8227 C   0  0  2  0  0  0  0  0  0  0  0  0
    8.2688  -15.2934   19.6920 N   0  0  0  0  0  0  0  0  0  0  0  0
    8.0729  -15.0646   22.0436 C   0  0  0  0  0  0  0  0  0  0  0  0
    9.3211  -15.2647   22.0715 O   0  0  0  0  0  0  0  0  0  0  0  0
    7.3792  -11.9297   27.3063 C   0  0  0  0  0  0  0  0  0  0  0  0
    8.2192  -12.8407   26.4561 C   0  0  0  0  0  0  0  0  0  0  0  0
    7.3790  -13.3436   25.3172 C   0  0  2  0  0  0  0  0  0  0  0  0
    6.2100  -14.1517   25.8864 C   0  0  0  0  0  0  0  0  0  0  0  0
    8.1688  -14.2047   24.3448 C   0  0  2  0  0  0  0  0  0  0  0  0
    7.3866  -14.5589   23.1939 N   0  0  0  0  0  0  0  0  0  0  0  0
    8.5673  -15.4355   25.0584 C   0  0  0  0  0  0  0  0  0  0  0  0
    7.7141  -16.3583   25.1705 O   0  0  0  0  0  0  0  0  0  0  0  0
   12.6341  -16.9426   23.7186 N   0  0  0  0  0  0  0  0  0  0  0  0
   11.5906  -17.6339   24.3914 C   0  0  0  0  0  0  0  0  0  0  0  0
   10.8094  -18.3452   23.7111 O   0  0  0  0  0  0  0  0  0  0  0  0
   11.4702  -17.4860   25.8555 C   0  0  0  0  0  0  0  0  0  0  0  0
   10.1334  -16.9475   26.2041 C   0  0  2  0  0  0  0  0  0  0  0  0
    9.8360  -15.6685   25.6314 N   0  0  0  0  0  0  0  0  0  0  0  0
   10.0155  -16.8149   27.6743 C   0  0  0  0  0  0  0  0  0  0  0  0
    9.7412  -15.6308   28.3448 O   0  0  0  0  0  0  0  0  0  0  0  0
   10.1656  -17.8226   28.4526 O   0  0  0  0  0  0  0  0  0  0  0  0
  2  1  1  0
  3  2  1  0
  3  5  1  0
  3  4  1  6
  5 12  1  0
  5  6  2  0
  7  8  1  0
  8  9  1  0
  9 11  1  0
  9 10  1  1
 11 13  1  0
 11 12  1  6
 13 20  1  0
 13 14  2  0
 16 18  1  0
 16 15  1  0
 17 16  2  0
 19 18  1  1
 19 21  1  0
 20 19  1  0
 21 22  1  0
 23 21  2  0
M  END
$$$$
