SIN.pdb
     RDKit          3D

 23 22  0  0  1  0  0  0  0  0999 V2000
    7.0083  -17.9479   22.0163 O   0  0  0  0  0  0  0  0  0  0  0  0
    6.1048  -17.0371   21.5336 C   0  0  0  0  0  0  0  0  0  0  0  0
    6.8050  -15.7231   21.2766 C   0  0  2  0  0  0  0  0  0  0  0  0
    7.6941  -15.8958   20.1113 N   0  0  0  0  0  0  0  0  0  0  0  0
    7.6216  -15.2421   22.3891 C   0  0  0  0  0  0  0  0  0  0  0  0
    8.8796  -15.3584   22.3379 O   0  0  0  0  0  0  0  0  0  0  0  0
    7.2018  -11.5271   27.2702 C   0  0  0  0  0  0  0  0  0  0  0  0
    7.9936  -12.5463   26.5004 C   0  0  0  0  0  0  0  0  0  0  0  0
    7.0859  -13.2034   25.5003 C   0  0  2  0  0  0  0  0  0  0  0  0
    5.9732  -13.9377   26.2527 C   0  0  0  0  0  0  0  0  0  0  0  0
    7.8217  -14.1800   24.5973 C   0  0  2  0  0  0  0  0  0  0  0  0
    6.9874  -14.6414   23.5235 N   0  0  0  0  0  0  0  0  0  0  0  0
    8.2306  -15.3338   25.4246 C   0  0  0  0  0  0  0  0  0  0  0  0
    7.4513  -15.7108   26.3426 O   0  0  0  0  0  0  0  0  0  0  0  0
    7.1125  -19.3428   25.2435 N   0  0  0  0  0  0  0  0  0  0  0  0
    8.1555  -18.9994   26.1456 C   0  0  0  0  0  0  0  0  0  0  0  0
    7.9515  -19.1426   27.3773 O   0  0  0  0  0  0  0  0  0  0  0  0
    9.4288  -18.4907   25.5978 C   0  0  0  0  0  0  0  0  0  0  0  0
    9.7221  -17.1485   26.1554 C   0  0  2  0  0  0  0  0  0  0  0  0
    9.4326  -16.0579   25.2726 N   0  0  0  0  0  0  0  0  0  0  0  0
   11.1553  -17.0595   26.5172 C   0  0  0  0  0  0  0  0  0  0  0  0
   11.8078  -17.9182   27.3911 O   0  0  0  0  0  0  0  0  0  0  0  0
   11.9148  -16.1491   26.0292 O   0  0  0  0  0  0  0  0  0  0  0  0
  2  1  1  0
  3  2  1  0
  3  5  1  0
  3  4  1  6
  5 12  1  0
  5  6  2  0
  7  8  1  0
  8  9  1  0
  9 11  1  0
  9 10  1  1
 11 13  1  0
 11 12  1  6
 13 20  1  0
 13 14  2  0
 16 18  1  0
 16 15  1  0
 17 16  2  0
 19 18  1  6
 19 21  1  0
 20 19  1  0
 21 22  1  0
 23 21  2  0
M  END
$$$$
