SIN.pdb
     RDKit          3D

 23 22  0  0  1  0  0  0  0  0999 V2000
    8.4946  -18.3823   22.0094 O   0  0  0  0  0  0  0  0  0  0  0  0
    7.2658  -17.8245   21.7694 C   0  0  0  0  0  0  0  0  0  0  0  0
    7.4390  -16.3719   21.3913 C   0  0  2  0  0  0  0  0  0  0  0  0
    8.2096  -16.3126   20.1339 N   0  0  0  0  0  0  0  0  0  0  0  0
    8.1478  -15.5661   22.3832 C   0  0  0  0  0  0  0  0  0  0  0  0
    9.3792  -15.3240   22.2285 O   0  0  0  0  0  0  0  0  0  0  0  0
    6.9648  -11.7697   27.0911 C   0  0  0  0  0  0  0  0  0  0  0  0
    7.9718  -12.5448   26.2889 C   0  0  0  0  0  0  0  0  0  0  0  0
    7.2384  -13.5118   25.4040 C   0  0  2  0  0  0  0  0  0  0  0  0
    6.4694  -14.4999   26.2848 C   0  0  0  0  0  0  0  0  0  0  0  0
    8.1689  -14.2740   24.4747 C   0  0  2  0  0  0  0  0  0  0  0  0
    7.4386  -15.0573   23.5181 N   0  0  0  0  0  0  0  0  0  0  0  0
    8.9961  -15.1718   25.3069 C   0  0  0  0  0  0  0  0  0  0  0  0
    8.5992  -16.3578   25.4743 O   0  0  0  0  0  0  0  0  0  0  0  0
    8.8562  -16.8069   29.4880 N   0  0  0  0  0  0  0  0  0  0  0  0
    9.8900  -16.2102   28.7168 C   0  0  0  0  0  0  0  0  0  0  0  0
   10.4908  -15.2140   29.1918 O   0  0  0  0  0  0  0  0  0  0  0  0
   10.2115  -16.7850   27.3953 C   0  0  0  0  0  0  0  0  0  0  0  0
   10.9924  -15.8121   26.5939 C   0  0  2  0  0  0  0  0  0  0  0  0
   10.2063  -14.8106   25.9372 N   0  0  0  0  0  0  0  0  0  0  0  0
   11.7629  -16.5275   25.5510 C   0  0  0  0  0  0  0  0  0  0  0  0
   11.7674  -16.1991   24.2023 O   0  0  0  0  0  0  0  0  0  0  0  0
   12.5028  -17.5348   25.8366 O   0  0  0  0  0  0  0  0  0  0  0  0
  2  1  1  0
  3  2  1  0
  3  5  1  0
  3  4  1  6
  5 12  1  0
  5  6  2  0
  7  8  1  0
  8  9  1  0
  9 11  1  0
  9 10  1  1
 11 13  1  0
 11 12  1  6
 13 20  1  0
 13 14  2  0
 16 18  1  0
 16 15  1  0
 17 16  2  0
 19 18  1  6
 19 21  1  0
 20 19  1  0
 21 22  1  0
 23 21  2  0
M  END
$$$$
