SIN.pdb
     RDKit          3D

 23 22  0  0  1  0  0  0  0  0999 V2000
    6.8027  -17.6439   20.4031 O   0  0  0  0  0  0  0  0  0  0  0  0
    7.5603  -17.1306   21.4236 C   0  0  0  0  0  0  0  0  0  0  0  0
    7.4407  -15.6244   21.4292 C   0  0  2  0  0  0  0  0  0  0  0  0
    7.9857  -15.1150   20.1556 N   0  0  0  0  0  0  0  0  0  0  0  0
    8.1600  -14.9618   22.5151 C   0  0  0  0  0  0  0  0  0  0  0  0
    9.3950  -14.7198   22.3915 O   0  0  0  0  0  0  0  0  0  0  0  0
    7.1644  -11.2973   27.2998 C   0  0  0  0  0  0  0  0  0  0  0  0
    8.0752  -12.3032   26.6540 C   0  0  0  0  0  0  0  0  0  0  0  0
    7.3169  -13.0074   25.5653 C   0  0  2  0  0  0  0  0  0  0  0  0
    6.1700  -13.8002   26.1972 C   0  0  0  0  0  0  0  0  0  0  0  0
    8.1967  -13.9431   24.7523 C   0  0  2  0  0  0  0  0  0  0  0  0
    7.4570  -14.5912   23.7060 N   0  0  0  0  0  0  0  0  0  0  0  0
    8.7330  -14.9664   25.6732 C   0  0  0  0  0  0  0  0  0  0  0  0
    7.9140  -15.7396   26.2420 O   0  0  0  0  0  0  0  0  0  0  0  0
   11.3527  -17.5671   24.4355 N   0  0  0  0  0  0  0  0  0  0  0  0
   12.2304  -16.8102   25.2580 C   0  0  0  0  0  0  0  0  0  0  0  0
   13.2523  -16.3019   24.7322 O   0  0  0  0  0  0  0  0  0  0  0  0
   11.9043  -16.6553   26.6896 C   0  0  0  0  0  0  0  0  0  0  0  0
   10.4959  -16.2187   26.8460 C   0  0  2  0  0  0  0  0  0  0  0  0
   10.0994  -15.1541   25.9733 N   0  0  0  0  0  0  0  0  0  0  0  0
   10.2648  -15.7638   28.2362 C   0  0  0  0  0  0  0  0  0  0  0  0
   10.0310  -14.4481   28.6121 O   0  0  0  0  0  0  0  0  0  0  0  0
   10.2666  -16.5861   29.2199 O   0  0  0  0  0  0  0  0  0  0  0  0
  2  1  1  0
  3  2  1  0
  3  5  1  0
  3  4  1  6
  5 12  1  0
  5  6  2  0
  7  8  1  0
  8  9  1  0
  9 11  1  0
  9 10  1  1
 11 13  1  0
 11 12  1  6
 13 20  1  0
 13 14  2  0
 16 18  1  0
 16 15  1  0
 17 16  2  0
 19 18  1  1
 19 21  1  0
 20 19  1  0
 21 22  1  0
 23 21  2  0
M  END
$$$$
