WDK.pdb
     RDKit          3D

 32 33  0  0  1  0  0  0  0  0999 V2000
   17.2399  -11.1227  -18.6770 N   0  0  0  0  0  0  0  0  0  0  0  0
   17.8151  -10.8713  -17.3965 C   0  0  1  0  0  0  0  0  0  0  0  0
   19.1184  -11.5433  -17.1180 C   0  0  0  0  0  0  0  0  0  0  0  0
   19.0038  -12.9871  -17.2947 C   0  0  0  0  0  0  0  0  0  0  0  0
   19.6294  -13.7204  -18.2760 C   0  0  0  0  0  0  0  0  0  0  0  0
   19.3028  -14.9973  -18.0937 N   0  0  0  0  0  0  0  0  0  0  0  0
   18.4877  -15.1224  -17.0310 C   0  0  0  0  0  0  0  0  0  0  0  0
   17.8845  -16.2361  -16.4567 C   0  0  0  0  0  0  0  0  0  0  0  0
   17.0660  -16.1116  -15.3513 C   0  0  0  0  0  0  0  0  0  0  0  0
   16.8767  -14.8503  -14.8498 C   0  0  0  0  0  0  0  0  0  0  0  0
   17.4636  -13.7306  -15.4010 C   0  0  0  0  0  0  0  0  0  0  0  0
   18.2900  -13.8588  -16.5165 C   0  0  0  0  0  0  0  0  0  0  0  0
   17.9855   -9.4263  -17.1089 C   0  0  0  0  0  0  0  0  0  0  0  0
   18.3296   -8.6445  -18.0011 O   0  0  0  0  0  0  0  0  0  0  0  0
   17.7482   -8.9541  -15.7970 N   0  0  0  0  0  0  0  0  0  0  0  0
   17.8180   -7.5767  -15.4104 C   0  0  1  0  0  0  0  0  0  0  0  0
   16.8764   -7.1516  -14.3392 C   0  0  0  0  0  0  0  0  0  0  0  0
   16.9676   -5.7019  -14.0907 C   0  0  0  0  0  0  0  0  0  0  0  0
   17.6229   -5.2654  -13.1192 O   0  0  0  0  0  0  0  0  0  0  0  0
   19.2412   -7.2313  -15.0749 C   0  0  0  0  0  0  0  0  0  0  0  0
   19.9063   -7.9990  -14.3151 O   0  0  0  0  0  0  0  0  0  0  0  0
   16.3386   -4.7794  -14.9135 O   0  0  0  0  0  0  0  0  0  0  0  0
   19.8932   -6.0807  -15.5650 N   0  0  0  0  0  0  0  0  0  0  0  0
   21.2862   -5.8098  -15.3034 C   0  0  1  0  0  0  0  0  0  0  0  0
   21.9540   -5.1174  -16.4650 C   0  0  0  0  0  0  0  0  0  0  0  0
   23.4293   -4.9215  -16.2526 C   0  0  0  0  0  0  0  0  0  0  0  0
   24.0665   -4.4264  -17.5132 C   0  0  0  0  0  0  0  0  0  0  0  0
   25.5742   -4.4614  -17.4784 C   0  0  0  0  0  0  0  0  0  0  0  0
   26.1661   -3.8965  -18.6539 N   0  0  0  0  0  0  0  0  0  0  0  0
   21.4664   -5.0557  -14.0345 C   0  0  0  0  0  0  0  0  0  0  0  0
   22.2748   -5.3902  -13.1557 O   0  0  0  0  0  0  0  0  0  0  0  0
   20.7006   -3.9201  -13.8065 O   0  0  0  0  0  0  0  0  0  0  0  0
  2  1  1  6
  3  4  1  0
  3  2  1  0
  4  5  2  0
  5  6  1  0
  7  6  1  0
  8  7  2  0
  9  8  1  0
 10 11  1  0
 10  9  2  0
 11 12  2  0
 12  4  1  0
 12  7  1  0
 13  2  1  0
 13 14  2  0
 15 13  1  0
 16 15  1  0
 16 17  1  1
 18 19  2  0
 18 17  1  0
 20 16  1  0
 21 20  2  0
 22 18  1  0
 23 20  1  0
 24 25  1  6
 24 23  1  0
 25 26  1  0
 27 28  1  0
 27 26  1  0
 28 29  1  0
 30 32  1  0
 30 24  1  0
 31 30  2  0
M  END
$$$$
