WDK.pdb
     RDKit          3D

 32 33  0  0  1  0  0  0  0  0999 V2000
   25.8633  -18.6839  -10.6609 N   0  0  0  0  0  0  0  0  0  0  0  0
   26.5896  -19.8568  -11.0224 C   0  0  1  0  0  0  0  0  0  0  0  0
   26.3421  -21.0672  -10.1849 C   0  0  0  0  0  0  0  0  0  0  0  0
   26.3200  -20.7198   -8.7680 C   0  0  0  0  0  0  0  0  0  0  0  0
   25.1870  -20.5842   -7.9999 C   0  0  0  0  0  0  0  0  0  0  0  0
   25.5737  -20.2894   -6.7614 N   0  0  0  0  0  0  0  0  0  0  0  0
   26.9158  -20.2275   -6.6948 C   0  0  0  0  0  0  0  0  0  0  0  0
   27.7754  -19.9514   -5.6371 C   0  0  0  0  0  0  0  0  0  0  0  0
   29.1446  -19.9379   -5.8175 C   0  0  0  0  0  0  0  0  0  0  0  0
   29.6140  -20.2066   -7.0768 C   0  0  0  0  0  0  0  0  0  0  0  0
   28.7823  -20.4834   -8.1415 C   0  0  0  0  0  0  0  0  0  0  0  0
   27.4005  -20.4972   -7.9568 C   0  0  0  0  0  0  0  0  0  0  0  0
   26.3973  -20.2462  -12.4406 C   0  0  0  0  0  0  0  0  0  0  0  0
   25.3257  -20.0241  -13.0133 O   0  0  0  0  0  0  0  0  0  0  0  0
   27.4592  -20.8763  -13.1302 N   0  0  0  0  0  0  0  0  0  0  0  0
   27.4976  -21.0695  -14.5489 C   0  0  1  0  0  0  0  0  0  0  0  0
   28.8020  -21.5134  -15.1115 C   0  0  0  0  0  0  0  0  0  0  0  0
   28.7747  -21.5211  -16.5849 C   0  0  0  0  0  0  0  0  0  0  0  0
   27.7548  -21.1429  -17.2018 O   0  0  0  0  0  0  0  0  0  0  0  0
   26.3740  -21.9819  -14.9519 C   0  0  0  0  0  0  0  0  0  0  0  0
   26.3957  -23.1962  -14.5861 O   0  0  0  0  0  0  0  0  0  0  0  0
   29.8640  -21.9425  -17.3328 O   0  0  0  0  0  0  0  0  0  0  0  0
   25.2755  -21.5585  -15.7285 N   0  0  0  0  0  0  0  0  0  0  0  0
   24.1692  -22.4295  -16.0442 C   0  0  1  0  0  0  0  0  0  0  0  0
   22.9676  -22.1525  -15.1757 C   0  0  0  0  0  0  0  0  0  0  0  0
   21.7945  -23.0303  -15.5122 C   0  0  0  0  0  0  0  0  0  0  0  0
   20.6172  -22.6574  -14.6667 C   0  0  0  0  0  0  0  0  0  0  0  0
   19.3818  -23.4704  -14.9644 C   0  0  0  0  0  0  0  0  0  0  0  0
   18.2232  -22.9850  -14.2764 N   0  0  0  0  0  0  0  0  0  0  0  0
   23.8281  -22.3761  -17.4905 C   0  0  0  0  0  0  0  0  0  0  0  0
   23.7434  -21.3163  -18.1287 O   0  0  0  0  0  0  0  0  0  0  0  0
   23.5897  -23.5607  -18.1747 O   0  0  0  0  0  0  0  0  0  0  0  0
  2  1  1  1
  3  4  1  0
  3  2  1  0
  4  5  2  0
  5  6  1  0
  7  6  1  0
  8  7  2  0
  9  8  1  0
 10 11  1  0
 10  9  2  0
 11 12  2  0
 12  4  1  0
 12  7  1  0
 13  2  1  0
 13 14  2  0
 15 13  1  0
 16 15  1  0
 16 17  1  1
 18 19  2  0
 18 17  1  0
 20 16  1  0
 21 20  2  0
 22 18  1  0
 23 20  1  0
 24 25  1  1
 24 23  1  0
 25 26  1  0
 27 28  1  0
 27 26  1  0
 28 29  1  0
 30 32  1  0
 30 24  1  0
 31 30  2  0
M  END
$$$$
