WDK.pdb
     RDKit          3D

 32 33  0  0  1  0  0  0  0  0999 V2000
   26.6411  -22.1841  -13.5570 N   0  0  0  0  0  0  0  0  0  0  0  0
   25.7322  -21.4539  -12.7357 C   0  0  1  0  0  0  0  0  0  0  0  0
   26.2418  -20.1689  -12.1730 C   0  0  0  0  0  0  0  0  0  0  0  0
   27.3491  -20.4101  -11.2539 C   0  0  0  0  0  0  0  0  0  0  0  0
   28.6694  -20.5418  -11.6165 C   0  0  0  0  0  0  0  0  0  0  0  0
   29.3758  -20.7243  -10.5039 N   0  0  0  0  0  0  0  0  0  0  0  0
   28.5647  -20.7170   -9.4308 C   0  0  0  0  0  0  0  0  0  0  0  0
   28.8278  -20.8719   -8.0741 C   0  0  0  0  0  0  0  0  0  0  0  0
   27.8090  -20.8336   -7.1425 C   0  0  0  0  0  0  0  0  0  0  0  0
   26.5365  -20.6377   -7.6123 C   0  0  0  0  0  0  0  0  0  0  0  0
   26.2499  -20.4813   -8.9522 C   0  0  0  0  0  0  0  0  0  0  0  0
   27.2802  -20.5196   -9.8907 C   0  0  0  0  0  0  0  0  0  0  0  0
   24.4415  -21.1681  -13.4081 C   0  0  0  0  0  0  0  0  0  0  0  0
   24.4186  -20.6838  -14.5441 O   0  0  0  0  0  0  0  0  0  0  0  0
   23.2345  -21.4581  -12.7302 N   0  0  0  0  0  0  0  0  0  0  0  0
   21.9299  -21.2803  -13.2939 C   0  0  1  0  0  0  0  0  0  0  0  0
   20.8492  -22.1247  -12.7160 C   0  0  0  0  0  0  0  0  0  0  0  0
   20.5230  -23.2567  -13.6013 C   0  0  0  0  0  0  0  0  0  0  0  0
   19.3742  -23.3757  -14.0807 O   0  0  0  0  0  0  0  0  0  0  0  0
   21.5762  -19.8204  -13.2652 C   0  0  0  0  0  0  0  0  0  0  0  0
   22.3507  -19.0030  -12.6813 O   0  0  0  0  0  0  0  0  0  0  0  0
   21.4648  -24.2199  -13.9315 O   0  0  0  0  0  0  0  0  0  0  0  0
   20.4103  -19.2959  -13.8609 N   0  0  0  0  0  0  0  0  0  0  0  0
   20.2447  -17.8878  -14.1297 C   0  0  1  0  0  0  0  0  0  0  0  0
   21.3993  -17.3250  -14.9204 C   0  0  0  0  0  0  0  0  0  0  0  0
   20.9515  -16.5509  -16.1287 C   0  0  0  0  0  0  0  0  0  0  0  0
   21.6330  -17.0752  -17.3538 C   0  0  0  0  0  0  0  0  0  0  0  0
   22.0070  -15.9978  -18.3412 C   0  0  0  0  0  0  0  0  0  0  0  0
   22.7375  -16.5072  -19.4629 N   0  0  0  0  0  0  0  0  0  0  0  0
   18.9394  -17.6072  -14.7844 C   0  0  0  0  0  0  0  0  0  0  0  0
   18.3536  -18.4262  -15.5079 O   0  0  0  0  0  0  0  0  0  0  0  0
   18.3337  -16.3734  -14.5866 O   0  0  0  0  0  0  0  0  0  0  0  0
  2  1  1  6
  3  4  1  0
  3  2  1  0
  4  5  2  0
  5  6  1  0
  7  6  1  0
  8  7  2  0
  9  8  1  0
 10 11  1  0
 10  9  2  0
 11 12  2  0
 12  4  1  0
 12  7  1  0
 13  2  1  0
 13 14  2  0
 15 13  1  0
 16 15  1  0
 16 17  1  1
 18 19  2  0
 18 17  1  0
 20 16  1  0
 21 20  2  0
 22 18  1  0
 23 20  1  0
 24 25  1  6
 24 23  1  0
 25 26  1  0
 27 28  1  0
 27 26  1  0
 28 29  1  0
 30 32  1  0
 30 24  1  0
 31 30  2  0
M  END
$$$$
