WDK.pdb
     RDKit          3D

 32 33  0  0  1  0  0  0  0  0999 V2000
   26.3790  -22.5830  -12.4829 N   0  0  0  0  0  0  0  0  0  0  0  0
   25.5798  -21.6413  -11.7700 C   0  0  1  0  0  0  0  0  0  0  0  0
   26.2378  -20.3458  -11.4288 C   0  0  0  0  0  0  0  0  0  0  0  0
   27.4004  -20.5655  -10.5751 C   0  0  0  0  0  0  0  0  0  0  0  0
   28.6187  -21.0442  -10.9979 C   0  0  0  0  0  0  0  0  0  0  0  0
   29.4256  -21.0801   -9.9407 N   0  0  0  0  0  0  0  0  0  0  0  0
   28.7782  -20.6433   -8.8455 C   0  0  0  0  0  0  0  0  0  0  0  0
   29.1897  -20.5037   -7.5245 C   0  0  0  0  0  0  0  0  0  0  0  0
   28.3258  -20.0315   -6.5559 C   0  0  0  0  0  0  0  0  0  0  0  0
   27.0542  -19.7094   -6.9528 C   0  0  0  0  0  0  0  0  0  0  0  0
   26.6222  -19.8388   -8.2561 C   0  0  0  0  0  0  0  0  0  0  0  0
   27.4964  -20.3151   -9.2323 C   0  0  0  0  0  0  0  0  0  0  0  0
   24.3012  -21.3282  -12.4533 C   0  0  0  0  0  0  0  0  0  0  0  0
   24.2050  -21.4243  -13.6810 O   0  0  0  0  0  0  0  0  0  0  0  0
   23.1910  -20.9174  -11.6793 N   0  0  0  0  0  0  0  0  0  0  0  0
   21.8631  -20.7609  -12.1929 C   0  0  1  0  0  0  0  0  0  0  0  0
   20.7620  -20.8695  -11.1977 C   0  0  0  0  0  0  0  0  0  0  0  0
   20.2492  -22.2486  -11.1150 C   0  0  0  0  0  0  0  0  0  0  0  0
   20.1245  -22.9413  -12.1487 O   0  0  0  0  0  0  0  0  0  0  0  0
   21.7862  -19.4811  -12.9762 C   0  0  0  0  0  0  0  0  0  0  0  0
   21.6647  -18.3794  -12.3595 O   0  0  0  0  0  0  0  0  0  0  0  0
   19.8903  -22.8225   -9.9045 O   0  0  0  0  0  0  0  0  0  0  0  0
   21.8420  -19.4327  -14.3847 N   0  0  0  0  0  0  0  0  0  0  0  0
   21.6878  -18.2028  -15.1236 C   0  0  1  0  0  0  0  0  0  0  0  0
   22.1700  -18.3355  -16.5466 C   0  0  0  0  0  0  0  0  0  0  0  0
   22.0456  -17.0540  -17.3225 C   0  0  0  0  0  0  0  0  0  0  0  0
   22.5612  -17.2464  -18.7144 C   0  0  0  0  0  0  0  0  0  0  0  0
   22.6323  -15.9674  -19.5111 C   0  0  0  0  0  0  0  0  0  0  0  0
   23.0778  -16.1794  -20.8557 N   0  0  0  0  0  0  0  0  0  0  0  0
   20.2901  -17.6995  -15.0598 C   0  0  0  0  0  0  0  0  0  0  0  0
   19.2984  -18.4356  -15.1704 O   0  0  0  0  0  0  0  0  0  0  0  0
   20.0666  -16.3425  -14.8679 O   0  0  0  0  0  0  0  0  0  0  0  0
  2  1  1  6
  3  4  1  0
  3  2  1  0
  4  5  2  0
  5  6  1  0
  7  6  1  0
  8  7  2  0
  9  8  1  0
 10 11  1  0
 10  9  2  0
 11 12  2  0
 12  4  1  0
 12  7  1  0
 13  2  1  0
 13 14  2  0
 15 13  1  0
 16 15  1  0
 16 17  1  1
 18 19  2  0
 18 17  1  0
 20 16  1  0
 21 20  2  0
 22 18  1  0
 23 20  1  0
 24 25  1  6
 24 23  1  0
 25 26  1  0
 27 28  1  0
 27 26  1  0
 28 29  1  0
 30 32  1  0
 30 24  1  0
 31 30  2  0
M  END
$$$$
