WDK.pdb
     RDKit          3D

 32 33  0  0  1  0  0  0  0  0999 V2000
   26.4892  -22.8593  -12.5332 N   0  0  0  0  0  0  0  0  0  0  0  0
   25.7946  -21.8110  -11.8607 C   0  0  1  0  0  0  0  0  0  0  0  0
   26.5484  -20.5363  -11.6754 C   0  0  0  0  0  0  0  0  0  0  0  0
   27.6545  -20.7209  -10.7418 C   0  0  0  0  0  0  0  0  0  0  0  0
   28.9438  -21.0491  -11.0912 C   0  0  0  0  0  0  0  0  0  0  0  0
   29.6627  -21.1008   -9.9728 N   0  0  0  0  0  0  0  0  0  0  0  0
   28.8896  -20.8192   -8.9087 C   0  0  0  0  0  0  0  0  0  0  0  0
   29.1778  -20.7551   -7.5497 C   0  0  0  0  0  0  0  0  0  0  0  0
   28.1967  -20.4473   -6.6277 C   0  0  0  0  0  0  0  0  0  0  0  0
   26.9358  -20.2098   -7.1092 C   0  0  0  0  0  0  0  0  0  0  0  0
   26.6248  -20.2671   -8.4516 C   0  0  0  0  0  0  0  0  0  0  0  0
   27.6171  -20.5774   -9.3806 C   0  0  0  0  0  0  0  0  0  0  0  0
   24.4952  -21.4755  -12.4922 C   0  0  0  0  0  0  0  0  0  0  0  0
   24.3503  -21.5626  -13.7157 O   0  0  0  0  0  0  0  0  0  0  0  0
   23.4218  -21.0535  -11.6735 N   0  0  0  0  0  0  0  0  0  0  0  0
   22.0993  -20.7837  -12.1528 C   0  0  1  0  0  0  0  0  0  0  0  0
   21.0412  -20.6620  -11.1134 C   0  0  0  0  0  0  0  0  0  0  0  0
   19.7103  -20.4889  -11.7220 C   0  0  0  0  0  0  0  0  0  0  0  0
   18.9425  -19.5872  -11.3207 O   0  0  0  0  0  0  0  0  0  0  0  0
   22.1386  -19.5833  -13.0556 C   0  0  0  0  0  0  0  0  0  0  0  0
   22.4833  -18.4583  -12.5819 O   0  0  0  0  0  0  0  0  0  0  0  0
   19.2651  -21.3083  -12.7486 O   0  0  0  0  0  0  0  0  0  0  0  0
   21.8076  -19.6358  -14.4256 N   0  0  0  0  0  0  0  0  0  0  0  0
   21.8021  -18.4628  -15.2660 C   0  0  1  0  0  0  0  0  0  0  0  0
   22.4404  -18.7265  -16.6069 C   0  0  0  0  0  0  0  0  0  0  0  0
   22.5255  -17.4924  -17.4610 C   0  0  0  0  0  0  0  0  0  0  0  0
   23.1365  -17.8279  -18.7855 C   0  0  0  0  0  0  0  0  0  0  0  0
   23.3422  -16.6264  -19.6741 C   0  0  0  0  0  0  0  0  0  0  0  0
   23.9606  -16.9624  -20.9215 N   0  0  0  0  0  0  0  0  0  0  0  0
   20.4331  -17.9000  -15.4083 C   0  0  0  0  0  0  0  0  0  0  0  0
   20.2133  -16.7319  -15.7618 O   0  0  0  0  0  0  0  0  0  0  0  0
   19.3368  -18.7075  -15.1360 O   0  0  0  0  0  0  0  0  0  0  0  0
  2  1  1  6
  3  4  1  0
  3  2  1  0
  4  5  2  0
  5  6  1  0
  7  6  1  0
  8  7  2  0
  9  8  1  0
 10 11  1  0
 10  9  2  0
 11 12  2  0
 12  4  1  0
 12  7  1  0
 13  2  1  0
 13 14  2  0
 15 13  1  0
 16 15  1  0
 16 17  1  1
 18 19  2  0
 18 17  1  0
 20 16  1  0
 21 20  2  0
 22 18  1  0
 23 20  1  0
 24 25  1  6
 24 23  1  0
 25 26  1  0
 27 28  1  0
 27 26  1  0
 28 29  1  0
 30 32  1  0
 30 24  1  0
 31 30  2  0
M  END
$$$$
