WDK.pdb
     RDKit          3D

 32 33  0  0  1  0  0  0  0  0999 V2000
   14.8143  -14.4849    5.4662 N   0  0  0  0  0  0  0  0  0  0  0  0
   15.8912  -15.4131    5.3544 C   0  0  1  0  0  0  0  0  0  0  0  0
   17.1547  -15.0415    6.0567 C   0  0  0  0  0  0  0  0  0  0  0  0
   17.9103  -14.0651    5.2792 C   0  0  0  0  0  0  0  0  0  0  0  0
   17.9876  -12.7191    5.5521 C   0  0  0  0  0  0  0  0  0  0  0  0
   18.7863  -12.1693    4.6411 N   0  0  0  0  0  0  0  0  0  0  0  0
   19.2313  -13.1068    3.7852 C   0  0  0  0  0  0  0  0  0  0  0  0
   20.0708  -13.0230    2.6796 C   0  0  0  0  0  0  0  0  0  0  0  0
   20.3837  -14.1446    1.9369 C   0  0  0  0  0  0  0  0  0  0  0  0
   19.8334  -15.3346    2.3358 C   0  0  0  0  0  0  0  0  0  0  0  0
   18.9986  -15.4436    3.4282 C   0  0  0  0  0  0  0  0  0  0  0  0
   18.6847  -14.3102    4.1768 C   0  0  0  0  0  0  0  0  0  0  0  0
   15.5249  -16.7839    5.7863 C   0  0  0  0  0  0  0  0  0  0  0  0
   14.8545  -16.9625    6.8083 O   0  0  0  0  0  0  0  0  0  0  0  0
   15.9539  -17.8863    5.0111 N   0  0  0  0  0  0  0  0  0  0  0  0
   15.7126  -19.2560    5.3536 C   0  0  1  0  0  0  0  0  0  0  0  0
   15.5679  -20.1982    4.2107 C   0  0  0  0  0  0  0  0  0  0  0  0
   15.2498  -21.5597    4.6763 C   0  0  0  0  0  0  0  0  0  0  0  0
   14.3760  -21.7418    5.5522 O   0  0  0  0  0  0  0  0  0  0  0  0
   16.7628  -19.7122    6.3263 C   0  0  0  0  0  0  0  0  0  0  0  0
   17.9704  -19.3684    6.1463 O   0  0  0  0  0  0  0  0  0  0  0  0
   15.8986  -22.6751    4.1680 O   0  0  0  0  0  0  0  0  0  0  0  0
   16.4785  -20.5165    7.4495 N   0  0  0  0  0  0  0  0  0  0  0  0
   17.4949  -20.9158    8.3929 C   0  0  1  0  0  0  0  0  0  0  0  0
   17.1732  -20.4614    9.7946 C   0  0  0  0  0  0  0  0  0  0  0  0
   18.2792  -20.7588   10.7684 C   0  0  0  0  0  0  0  0  0  0  0  0
   17.9293  -20.2201   12.1203 C   0  0  0  0  0  0  0  0  0  0  0  0
   19.0267  -20.3969   13.1401 C   0  0  0  0  0  0  0  0  0  0  0  0
   18.6923  -19.8327   14.4134 N   0  0  0  0  0  0  0  0  0  0  0  0
   17.7502  -22.3795    8.3327 C   0  0  0  0  0  0  0  0  0  0  0  0
   18.5765  -22.9541    9.0571 O   0  0  0  0  0  0  0  0  0  0  0  0
   17.0381  -23.1549    7.4275 O   0  0  0  0  0  0  0  0  0  0  0  0
  2  1  1  1
  3  4  1  0
  3  2  1  0
  4  5  2  0
  5  6  1  0
  7  6  1  0
  8  7  2  0
  9  8  1  0
 10 11  1  0
 10  9  2  0
 11 12  2  0
 12  4  1  0
 12  7  1  0
 13  2  1  0
 13 14  2  0
 15 13  1  0
 16 15  1  0
 16 17  1  6
 18 19  2  0
 18 17  1  0
 20 16  1  0
 21 20  2  0
 22 18  1  0
 23 20  1  0
 24 25  1  1
 24 23  1  0
 25 26  1  0
 27 28  1  0
 27 26  1  0
 28 29  1  0
 30 32  1  0
 30 24  1  0
 31 30  2  0
M  END
$$$$
