WDK.pdb
     RDKit          3D

 32 33  0  0  1  0  0  0  0  0999 V2000
   24.6845  -19.3448  -11.3811 N   0  0  0  0  0  0  0  0  0  0  0  0
   25.8143  -20.1315  -11.7532 C   0  0  1  0  0  0  0  0  0  0  0  0
   26.0669  -21.3500  -10.9292 C   0  0  0  0  0  0  0  0  0  0  0  0
   26.2124  -21.0001   -9.5201 C   0  0  0  0  0  0  0  0  0  0  0  0
   25.1790  -20.8731   -8.6213 C   0  0  0  0  0  0  0  0  0  0  0  0
   25.7093  -20.5726   -7.4386 N   0  0  0  0  0  0  0  0  0  0  0  0
   27.0490  -20.4987   -7.5342 C   0  0  0  0  0  0  0  0  0  0  0  0
   28.0273  -20.2131   -6.5879 C   0  0  0  0  0  0  0  0  0  0  0  0
   29.3646  -20.1877   -6.9319 C   0  0  0  0  0  0  0  0  0  0  0  0
   29.6813  -20.4547   -8.2383 C   0  0  0  0  0  0  0  0  0  0  0  0
   28.7300  -20.7408   -9.1950 C   0  0  0  0  0  0  0  0  0  0  0  0
   27.3807  -20.7664   -8.8451 C   0  0  0  0  0  0  0  0  0  0  0  0
   25.7885  -20.5500  -13.1759 C   0  0  0  0  0  0  0  0  0  0  0  0
   24.7151  -20.7608  -13.7494 O   0  0  0  0  0  0  0  0  0  0  0  0
   27.0117  -20.7049  -13.8689 N   0  0  0  0  0  0  0  0  0  0  0  0
   27.1210  -20.8527  -15.2893 C   0  0  1  0  0  0  0  0  0  0  0  0
   28.4476  -20.5248  -15.8789 C   0  0  0  0  0  0  0  0  0  0  0  0
   28.4320  -20.6689  -17.3454 C   0  0  0  0  0  0  0  0  0  0  0  0
   27.3780  -20.4753  -17.9900 O   0  0  0  0  0  0  0  0  0  0  0  0
   26.6599  -22.2289  -15.6778 C   0  0  0  0  0  0  0  0  0  0  0  0
   27.1579  -23.2402  -15.0962 O   0  0  0  0  0  0  0  0  0  0  0  0
   29.5698  -21.0201  -18.0564 O   0  0  0  0  0  0  0  0  0  0  0  0
   25.6869  -22.4662  -16.6708 N   0  0  0  0  0  0  0  0  0  0  0  0
   24.8377  -23.6328  -16.6593 C   0  0  1  0  0  0  0  0  0  0  0  0
   24.0952  -23.7771  -15.3545 C   0  0  0  0  0  0  0  0  0  0  0  0
   22.6947  -23.2348  -15.4215 C   0  0  0  0  0  0  0  0  0  0  0  0
   21.9739  -23.5195  -14.1411 C   0  0  0  0  0  0  0  0  0  0  0  0
   20.5759  -22.9542  -14.0999 C   0  0  0  0  0  0  0  0  0  0  0  0
   19.9474  -23.1298  -12.8249 N   0  0  0  0  0  0  0  0  0  0  0  0
   23.9134  -23.6463  -17.8240 C   0  0  0  0  0  0  0  0  0  0  0  0
   23.3985  -24.6827  -18.2693 O   0  0  0  0  0  0  0  0  0  0  0  0
   23.6013  -22.4496  -18.4553 O   0  0  0  0  0  0  0  0  0  0  0  0
  2  1  1  1
  3  4  1  0
  3  2  1  0
  4  5  2  0
  5  6  1  0
  7  6  1  0
  8  7  2  0
  9  8  1  0
 10 11  1  0
 10  9  2  0
 11 12  2  0
 12  4  1  0
 12  7  1  0
 13  2  1  0
 13 14  2  0
 15 13  1  0
 16 15  1  0
 16 17  1  1
 18 19  2  0
 18 17  1  0
 20 16  1  0
 21 20  2  0
 22 18  1  0
 23 20  1  0
 24 25  1  1
 24 23  1  0
 25 26  1  0
 27 28  1  0
 27 26  1  0
 28 29  1  0
 30 32  1  0
 30 24  1  0
 31 30  2  0
M  END
$$$$
