WDK.pdb
     RDKit          3D

 32 33  0  0  1  0  0  0  0  0999 V2000
   28.1536  -20.3030  -19.7643 N   0  0  0  0  0  0  0  0  0  0  0  0
   27.8136  -20.9227  -18.5257 C   0  0  1  0  0  0  0  0  0  0  0  0
   28.9064  -21.0103  -17.5129 C   0  0  0  0  0  0  0  0  0  0  0  0
   29.9112  -21.9870  -17.9197 C   0  0  0  0  0  0  0  0  0  0  0  0
   31.0661  -21.6998  -18.6095 C   0  0  0  0  0  0  0  0  0  0  0  0
   31.7325  -22.8401  -18.7704 N   0  0  0  0  0  0  0  0  0  0  0  0
   31.0544  -23.8586  -18.2116 C   0  0  0  0  0  0  0  0  0  0  0  0
   31.3356  -25.2180  -18.1269 C   0  0  0  0  0  0  0  0  0  0  0  0
   30.4660  -26.0869  -17.4974 C   0  0  0  0  0  0  0  0  0  0  0  0
   29.3220  -25.5526  -16.9642 C   0  0  0  0  0  0  0  0  0  0  0  0
   29.0208  -24.2087  -17.0351 C   0  0  0  0  0  0  0  0  0  0  0  0
   29.9005  -23.3334  -17.6705 C   0  0  0  0  0  0  0  0  0  0  0  0
   26.6403  -20.2996  -17.8662 C   0  0  0  0  0  0  0  0  0  0  0  0
   26.6058  -19.0813  -17.6659 O   0  0  0  0  0  0  0  0  0  0  0  0
   25.5591  -21.1203  -17.4689 N   0  0  0  0  0  0  0  0  0  0  0  0
   24.3790  -20.6393  -16.8150 C   0  0  1  0  0  0  0  0  0  0  0  0
   23.1043  -20.8061  -17.5646 C   0  0  0  0  0  0  0  0  0  0  0  0
   21.9784  -20.1751  -16.8533 C   0  0  0  0  0  0  0  0  0  0  0  0
   22.0759  -19.0044  -16.4247 O   0  0  0  0  0  0  0  0  0  0  0  0
   24.3016  -21.2357  -15.4382 C   0  0  0  0  0  0  0  0  0  0  0  0
   23.8409  -22.4084  -15.2921 O   0  0  0  0  0  0  0  0  0  0  0  0
   20.7847  -20.8467  -16.6349 O   0  0  0  0  0  0  0  0  0  0  0  0
   24.7192  -20.5540  -14.2762 N   0  0  0  0  0  0  0  0  0  0  0  0
   24.4728  -21.0639  -12.9490 C   0  0  1  0  0  0  0  0  0  0  0  0
   25.2384  -20.2979  -11.8993 C   0  0  0  0  0  0  0  0  0  0  0  0
   24.9806  -20.8056  -10.5080 C   0  0  0  0  0  0  0  0  0  0  0  0
   25.7218  -19.9692   -9.5125 C   0  0  0  0  0  0  0  0  0  0  0  0
   25.5641  -20.4467   -8.0903 C   0  0  0  0  0  0  0  0  0  0  0  0
   26.2223  -19.5942   -7.1461 N   0  0  0  0  0  0  0  0  0  0  0  0
   23.0181  -21.1127  -12.6446 C   0  0  0  0  0  0  0  0  0  0  0  0
   22.4907  -22.0306  -11.9989 O   0  0  0  0  0  0  0  0  0  0  0  0
   22.1963  -20.0894  -13.0978 O   0  0  0  0  0  0  0  0  0  0  0  0
  2  1  1  6
  3  4  1  0
  3  2  1  0
  4  5  2  0
  5  6  1  0
  7  6  1  0
  8  7  2  0
  9  8  1  0
 10 11  1  0
 10  9  2  0
 11 12  2  0
 12  4  1  0
 12  7  1  0
 13  2  1  0
 13 14  2  0
 15 13  1  0
 16 15  1  0
 16 17  1  6
 18 19  2  0
 18 17  1  0
 20 16  1  0
 21 20  2  0
 22 18  1  0
 23 20  1  0
 24 25  1  1
 24 23  1  0
 25 26  1  0
 27 28  1  0
 27 26  1  0
 28 29  1  0
 30 32  1  0
 30 24  1  0
 31 30  2  0
M  END
$$$$
