WDK.pdb
     RDKit          3D

 32 33  0  0  1  0  0  0  0  0999 V2000
   23.6001  -20.6543  -11.7413 N   0  0  0  0  0  0  0  0  0  0  0  0
   24.9961  -20.4372  -11.9360 C   0  0  1  0  0  0  0  0  0  0  0  0
   25.9110  -21.4232  -11.2893 C   0  0  0  0  0  0  0  0  0  0  0  0
   26.2813  -20.9827   -9.9485 C   0  0  0  0  0  0  0  0  0  0  0  0
   25.3989  -20.6045   -8.9635 C   0  0  0  0  0  0  0  0  0  0  0  0
   26.1106  -20.2975   -7.8821 N   0  0  0  0  0  0  0  0  0  0  0  0
   27.4232  -20.4612   -8.1265 C   0  0  0  0  0  0  0  0  0  0  0  0
   28.5426  -20.2655   -7.3249 C   0  0  0  0  0  0  0  0  0  0  0  0
   29.8148  -20.4979   -7.8096 C   0  0  0  0  0  0  0  0  0  0  0  0
   29.9230  -20.9268   -9.1068 C   0  0  0  0  0  0  0  0  0  0  0  0
   28.8287  -21.1285   -9.9215 C   0  0  0  0  0  0  0  0  0  0  0  0
   27.5454  -20.8938   -9.4297 C   0  0  0  0  0  0  0  0  0  0  0  0
   25.3763  -20.3443  -13.3666 C   0  0  0  0  0  0  0  0  0  0  0  0
   24.6831  -20.8805  -14.2370 O   0  0  0  0  0  0  0  0  0  0  0  0
   26.5455  -19.6321  -13.7220 N   0  0  0  0  0  0  0  0  0  0  0  0
   26.9011  -19.2841  -15.0651 C   0  0  1  0  0  0  0  0  0  0  0  0
   27.5575  -17.9605  -15.2437 C   0  0  0  0  0  0  0  0  0  0  0  0
   27.8798  -17.7095  -16.6597 C   0  0  0  0  0  0  0  0  0  0  0  0
   27.0069  -17.8538  -17.5434 O   0  0  0  0  0  0  0  0  0  0  0  0
   27.7134  -20.3976  -15.6632 C   0  0  0  0  0  0  0  0  0  0  0  0
   28.4974  -21.0646  -14.9220 O   0  0  0  0  0  0  0  0  0  0  0  0
   29.1460  -17.3097  -17.0602 O   0  0  0  0  0  0  0  0  0  0  0  0
   27.6539  -20.7509  -17.0273 N   0  0  0  0  0  0  0  0  0  0  0  0
   27.9063  -22.0940  -17.4908 C   0  0  1  0  0  0  0  0  0  0  0  0
   27.1139  -23.1165  -16.7153 C   0  0  0  0  0  0  0  0  0  0  0  0
   27.2842  -24.5103  -17.2520 C   0  0  0  0  0  0  0  0  0  0  0  0
   26.4929  -25.4765  -16.4271 C   0  0  0  0  0  0  0  0  0  0  0  0
   25.2798  -26.0218  -17.1390 C   0  0  0  0  0  0  0  0  0  0  0  0
   25.1681  -27.4453  -17.0269 N   0  0  0  0  0  0  0  0  0  0  0  0
   27.6812  -22.2171  -18.9555 C   0  0  0  0  0  0  0  0  0  0  0  0
   26.7558  -21.6444  -19.5499 O   0  0  0  0  0  0  0  0  0  0  0  0
   28.5389  -23.0075  -19.7088 O   0  0  0  0  0  0  0  0  0  0  0  0
  2  1  1  6
  3  4  1  0
  3  2  1  0
  4  5  2  0
  5  6  1  0
  7  6  1  0
  8  7  2  0
  9  8  1  0
 10 11  1  0
 10  9  2  0
 11 12  2  0
 12  4  1  0
 12  7  1  0
 13  2  1  0
 13 14  2  0
 15 13  1  0
 16 15  1  0
 16 17  1  1
 18 19  2  0
 18 17  1  0
 20 16  1  0
 21 20  2  0
 22 18  1  0
 23 20  1  0
 24 25  1  1
 24 23  1  0
 25 26  1  0
 27 28  1  0
 27 26  1  0
 28 29  1  0
 30 32  1  0
 30 24  1  0
 31 30  2  0
M  END
$$$$
