WDK.pdb
     RDKit          3D

 32 33  0  0  1  0  0  0  0  0999 V2000
   17.8128   -8.0476  -10.4997 N   0  0  0  0  0  0  0  0  0  0  0  0
   16.4975   -7.6629  -10.1048 C   0  0  1  0  0  0  0  0  0  0  0  0
   15.8358   -8.5325   -9.0882 C   0  0  0  0  0  0  0  0  0  0  0  0
   15.2173   -9.6915   -9.7232 C   0  0  0  0  0  0  0  0  0  0  0  0
   15.8764  -10.6255  -10.4881 C   0  0  0  0  0  0  0  0  0  0  0  0
   14.9845  -11.5376  -10.8661 N   0  0  0  0  0  0  0  0  0  0  0  0
   13.7695  -11.2318  -10.3764 C   0  0  0  0  0  0  0  0  0  0  0  0
   12.5383  -11.8665  -10.5000 C   0  0  0  0  0  0  0  0  0  0  0  0
   11.4070  -11.3485   -9.9006 C   0  0  0  0  0  0  0  0  0  0  0  0
   11.5518  -10.1892   -9.1841 C   0  0  0  0  0  0  0  0  0  0  0  0
   12.7615   -9.5412   -9.0466 C   0  0  0  0  0  0  0  0  0  0  0  0
   13.9022  -10.0665   -9.6520 C   0  0  0  0  0  0  0  0  0  0  0  0
   16.4226   -6.2648   -9.6155 C   0  0  0  0  0  0  0  0  0  0  0  0
   17.1500   -5.8821   -8.6934 O   0  0  0  0  0  0  0  0  0  0  0  0
   15.5057   -5.3735  -10.2197 N   0  0  0  0  0  0  0  0  0  0  0  0
   15.3111   -4.0152   -9.8090 C   0  0  1  0  0  0  0  0  0  0  0  0
   15.0677   -3.0326  -10.8999 C   0  0  0  0  0  0  0  0  0  0  0  0
   16.2845   -2.8096  -11.7008 C   0  0  0  0  0  0  0  0  0  0  0  0
   17.3610   -2.4997  -11.1450 O   0  0  0  0  0  0  0  0  0  0  0  0
   14.2351   -3.9673   -8.7614 C   0  0  0  0  0  0  0  0  0  0  0  0
   13.2076   -4.7000   -8.8895 O   0  0  0  0  0  0  0  0  0  0  0  0
   16.2818   -2.9331  -13.0822 O   0  0  0  0  0  0  0  0  0  0  0  0
   14.3023   -3.1387   -7.6220 N   0  0  0  0  0  0  0  0  0  0  0  0
   13.2251   -3.0483   -6.6661 C   0  0  1  0  0  0  0  0  0  0  0  0
   13.6791   -2.4459   -5.3600 C   0  0  0  0  0  0  0  0  0  0  0  0
   12.5848   -2.4027   -4.3303 C   0  0  0  0  0  0  0  0  0  0  0  0
   13.0506   -1.6561   -3.1196 C   0  0  0  0  0  0  0  0  0  0  0  0
   12.0396   -1.6359   -2.0001 C   0  0  0  0  0  0  0  0  0  0  0  0
   12.5270   -0.9709   -0.8289 N   0  0  0  0  0  0  0  0  0  0  0  0
   12.0548   -2.3246   -7.2297 C   0  0  0  0  0  0  0  0  0  0  0  0
   12.1571   -1.2810   -7.8915 O   0  0  0  0  0  0  0  0  0  0  0  0
   10.7788   -2.8279   -7.0139 O   0  0  0  0  0  0  0  0  0  0  0  0
  2  1  1  1
  3  4  1  0
  3  2  1  0
  4  5  2  0
  5  6  1  0
  7  6  1  0
  8  7  2  0
  9  8  1  0
 10 11  1  0
 10  9  2  0
 11 12  2  0
 12  4  1  0
 12  7  1  0
 13  2  1  0
 13 14  2  0
 15 13  1  0
 16 15  1  0
 16 17  1  6
 18 19  2  0
 18 17  1  0
 20 16  1  0
 21 20  2  0
 22 18  1  0
 23 20  1  0
 24 25  1  1
 24 23  1  0
 25 26  1  0
 27 28  1  0
 27 26  1  0
 28 29  1  0
 30 32  1  0
 30 24  1  0
 31 30  2  0
M  END
$$$$
