WDK.pdb
     RDKit          3D

 32 33  0  0  1  0  0  0  0  0999 V2000
   28.6939  -21.0939  -12.4210 N   0  0  0  0  0  0  0  0  0  0  0  0
   27.4815  -21.2040  -11.6781 C   0  0  1  0  0  0  0  0  0  0  0  0
   27.2667  -20.1789  -10.6149 C   0  0  0  0  0  0  0  0  0  0  0  0
   28.3255  -20.2436   -9.6129 C   0  0  0  0  0  0  0  0  0  0  0  0
   29.6462  -20.5301   -9.8688 C   0  0  0  0  0  0  0  0  0  0  0  0
   30.3022  -20.4692   -8.7129 N   0  0  0  0  0  0  0  0  0  0  0  0
   29.4578  -20.1545   -7.7142 C   0  0  0  0  0  0  0  0  0  0  0  0
   29.6653  -19.9833   -6.3498 C   0  0  0  0  0  0  0  0  0  0  0  0
   28.6204  -19.6626   -5.5056 C   0  0  0  0  0  0  0  0  0  0  0  0
   27.3791  -19.5220   -6.0693 C   0  0  0  0  0  0  0  0  0  0  0  0
   27.1478  -19.6864   -7.4189 C   0  0  0  0  0  0  0  0  0  0  0  0
   28.2043  -20.0095   -8.2692 C   0  0  0  0  0  0  0  0  0  0  0  0
   26.2724  -21.2190  -12.5370 C   0  0  0  0  0  0  0  0  0  0  0  0
   26.1302  -20.3842  -13.4362 O   0  0  0  0  0  0  0  0  0  0  0  0
   25.2822  -22.2036  -12.3126 N   0  0  0  0  0  0  0  0  0  0  0  0
   24.1763  -22.4499  -13.1888 C   0  0  1  0  0  0  0  0  0  0  0  0
   23.6458  -23.8404  -13.1944 C   0  0  0  0  0  0  0  0  0  0  0  0
   22.6081  -24.0133  -14.2263 C   0  0  0  0  0  0  0  0  0  0  0  0
   22.3195  -23.0731  -14.9986 O   0  0  0  0  0  0  0  0  0  0  0  0
   23.0979  -21.4399  -12.9158 C   0  0  0  0  0  0  0  0  0  0  0  0
   22.8194  -21.1344  -11.7167 O   0  0  0  0  0  0  0  0  0  0  0  0
   21.9216  -25.2088  -14.3778 O   0  0  0  0  0  0  0  0  0  0  0  0
   22.3629  -20.7997  -13.9352 N   0  0  0  0  0  0  0  0  0  0  0  0
   21.3251  -19.8375  -13.6536 C   0  0  1  0  0  0  0  0  0  0  0  0
   21.1884  -18.8166  -14.7554 C   0  0  0  0  0  0  0  0  0  0  0  0
   20.1552  -17.7684  -14.4493 C   0  0  0  0  0  0  0  0  0  0  0  0
   20.0953  -16.7688  -15.5616 C   0  0  0  0  0  0  0  0  0  0  0  0
   19.1710  -15.6104  -15.2795 C   0  0  0  0  0  0  0  0  0  0  0  0
   19.1562  -14.6462  -16.3386 N   0  0  0  0  0  0  0  0  0  0  0  0
   20.0296  -20.5037  -13.3554 C   0  0  0  0  0  0  0  0  0  0  0  0
   19.6220  -21.5001  -13.9706 O   0  0  0  0  0  0  0  0  0  0  0  0
   19.2252  -19.9985  -12.3426 O   0  0  0  0  0  0  0  0  0  0  0  0
  2  1  1  6
  3  4  1  0
  3  2  1  0
  4  5  2  0
  5  6  1  0
  7  6  1  0
  8  7  2  0
  9  8  1  0
 10 11  1  0
 10  9  2  0
 11 12  2  0
 12  4  1  0
 12  7  1  0
 13  2  1  0
 13 14  2  0
 15 13  1  0
 16 15  1  0
 16 17  1  1
 18 19  2  0
 18 17  1  0
 20 16  1  0
 21 20  2  0
 22 18  1  0
 23 20  1  0
 24 25  1  6
 24 23  1  0
 25 26  1  0
 27 28  1  0
 27 26  1  0
 28 29  1  0
 30 32  1  0
 30 24  1  0
 31 30  2  0
M  END
$$$$
