WDK.pdb
     RDKit          3D

 32 33  0  0  1  0  0  0  0  0999 V2000
   28.2164  -21.4490  -14.7967 N   0  0  0  0  0  0  0  0  0  0  0  0
   27.1787  -21.2065  -13.8489 C   0  0  1  0  0  0  0  0  0  0  0  0
   27.3285  -19.9817  -13.0093 C   0  0  0  0  0  0  0  0  0  0  0  0
   27.9981  -20.2958  -11.7516 C   0  0  0  0  0  0  0  0  0  0  0  0
   29.3499  -20.5001  -11.5995 C   0  0  0  0  0  0  0  0  0  0  0  0
   29.5786  -20.7344  -10.3100 N   0  0  0  0  0  0  0  0  0  0  0  0
   28.4264  -20.6909   -9.6171 C   0  0  0  0  0  0  0  0  0  0  0  0
   28.1548  -20.8744   -8.2656 C   0  0  0  0  0  0  0  0  0  0  0  0
   26.8647  -20.7866   -7.7805 C   0  0  0  0  0  0  0  0  0  0  0  0
   25.8719  -20.5125   -8.6847 C   0  0  0  0  0  0  0  0  0  0  0  0
   26.1156  -20.3264  -10.0293 C   0  0  0  0  0  0  0  0  0  0  0  0
   27.4189  -20.4149  -10.5166 C   0  0  0  0  0  0  0  0  0  0  0  0
   25.8286  -21.1674  -14.4618 C   0  0  0  0  0  0  0  0  0  0  0  0
   25.6788  -20.7887  -15.6279 O   0  0  0  0  0  0  0  0  0  0  0  0
   24.7126  -21.5702  -13.6920 N   0  0  0  0  0  0  0  0  0  0  0  0
   23.3807  -21.6921  -14.2046 C   0  0  1  0  0  0  0  0  0  0  0  0
   22.6966  -22.9873  -13.9412 C   0  0  0  0  0  0  0  0  0  0  0  0
   21.3765  -23.0379  -14.5943 C   0  0  0  0  0  0  0  0  0  0  0  0
   20.3593  -23.3619  -13.9431 O   0  0  0  0  0  0  0  0  0  0  0  0
   22.5640  -20.5214  -13.7357 C   0  0  0  0  0  0  0  0  0  0  0  0
   22.4981  -20.2646  -12.4953 O   0  0  0  0  0  0  0  0  0  0  0  0
   21.2146  -22.7326  -15.9375 O   0  0  0  0  0  0  0  0  0  0  0  0
   21.8522  -19.6755  -14.6114 N   0  0  0  0  0  0  0  0  0  0  0  0
   21.0427  -18.5779  -14.1399 C   0  0  1  0  0  0  0  0  0  0  0  0
   20.8350  -17.5314  -15.2059 C   0  0  0  0  0  0  0  0  0  0  0  0
   19.9707  -16.3931  -14.7401 C   0  0  0  0  0  0  0  0  0  0  0  0
   19.7983  -15.3967  -15.8435 C   0  0  0  0  0  0  0  0  0  0  0  0
   18.8947  -14.2454  -15.4779 C   0  0  0  0  0  0  0  0  0  0  0  0
   18.6700  -13.3511  -16.5739 N   0  0  0  0  0  0  0  0  0  0  0  0
   19.7518  -19.0548  -13.5766 C   0  0  0  0  0  0  0  0  0  0  0  0
   19.1179  -20.0106  -14.0479 O   0  0  0  0  0  0  0  0  0  0  0  0
   19.2160  -18.4099  -12.4697 O   0  0  0  0  0  0  0  0  0  0  0  0
  2  1  1  6
  3  4  1  0
  3  2  1  0
  4  5  2  0
  5  6  1  0
  7  6  1  0
  8  7  2  0
  9  8  1  0
 10 11  1  0
 10  9  2  0
 11 12  2  0
 12  4  1  0
 12  7  1  0
 13  2  1  0
 13 14  2  0
 15 13  1  0
 16 15  1  0
 16 17  1  1
 18 19  2  0
 18 17  1  0
 20 16  1  0
 21 20  2  0
 22 18  1  0
 23 20  1  0
 24 25  1  6
 24 23  1  0
 25 26  1  0
 27 28  1  0
 27 26  1  0
 28 29  1  0
 30 32  1  0
 30 24  1  0
 31 30  2  0
M  END
$$$$
