WDK.pdb
     RDKit          3D

 32 33  0  0  1  0  0  0  0  0999 V2000
   26.0561  -21.9783  -12.2964 N   0  0  0  0  0  0  0  0  0  0  0  0
   25.3943  -21.0584  -11.4305 C   0  0  1  0  0  0  0  0  0  0  0  0
   26.2205  -19.9247  -10.9209 C   0  0  0  0  0  0  0  0  0  0  0  0
   27.4271  -20.4181  -10.2654 C   0  0  0  0  0  0  0  0  0  0  0  0
   28.4464  -21.1019  -10.8861 C   0  0  0  0  0  0  0  0  0  0  0  0
   29.3762  -21.3571   -9.9692 N   0  0  0  0  0  0  0  0  0  0  0  0
   28.9999  -20.8655   -8.7750 C   0  0  0  0  0  0  0  0  0  0  0  0
   29.6215  -20.8862   -7.5312 C   0  0  0  0  0  0  0  0  0  0  0  0
   29.0243  -20.3100   -6.4272 C   0  0  0  0  0  0  0  0  0  0  0  0
   27.8005  -19.7215   -6.6118 C   0  0  0  0  0  0  0  0  0  0  0  0
   27.1638  -19.6877   -7.8347 C   0  0  0  0  0  0  0  0  0  0  0  0
   27.7690  -20.2695   -8.9478 C   0  0  0  0  0  0  0  0  0  0  0  0
   24.1625  -20.4839  -12.0243 C   0  0  0  0  0  0  0  0  0  0  0  0
   23.9639  -19.2650  -12.0021 O   0  0  0  0  0  0  0  0  0  0  0  0
   23.2163  -21.3517  -12.6175 N   0  0  0  0  0  0  0  0  0  0  0  0
   22.0566  -20.9121  -13.3340 C   0  0  1  0  0  0  0  0  0  0  0  0
   22.2954  -19.9134  -14.4113 C   0  0  0  0  0  0  0  0  0  0  0  0
   21.0417  -19.5585  -15.0998 C   0  0  0  0  0  0  0  0  0  0  0  0
   20.3794  -18.5620  -14.7365 O   0  0  0  0  0  0  0  0  0  0  0  0
   21.3058  -22.1117  -13.8386 C   0  0  0  0  0  0  0  0  0  0  0  0
   21.9429  -23.0565  -14.3957 O   0  0  0  0  0  0  0  0  0  0  0  0
   20.5554  -20.3063  -16.1618 O   0  0  0  0  0  0  0  0  0  0  0  0
   19.9068  -22.2509  -13.7268 N   0  0  0  0  0  0  0  0  0  0  0  0
   19.2922  -23.1789  -12.8084 C   0  0  1  0  0  0  0  0  0  0  0  0
   19.8343  -23.0299  -11.4088 C   0  0  0  0  0  0  0  0  0  0  0  0
   19.1790  -23.9648  -10.4309 C   0  0  0  0  0  0  0  0  0  0  0  0
   19.7362  -23.7437   -9.0595 C   0  0  0  0  0  0  0  0  0  0  0  0
   19.1366  -24.6506   -8.0137 C   0  0  0  0  0  0  0  0  0  0  0  0
   19.5508  -24.3102   -6.6856 N   0  0  0  0  0  0  0  0  0  0  0  0
   17.8091  -23.0754  -12.8390 C   0  0  0  0  0  0  0  0  0  0  0  0
   17.1972  -22.0258  -12.5911 O   0  0  0  0  0  0  0  0  0  0  0  0
   17.0580  -24.1987  -13.1586 O   0  0  0  0  0  0  0  0  0  0  0  0
  2  1  1  6
  3  4  1  0
  3  2  1  0
  4  5  2  0
  5  6  1  0
  7  6  1  0
  8  7  2  0
  9  8  1  0
 10 11  1  0
 10  9  2  0
 11 12  2  0
 12  4  1  0
 12  7  1  0
 13  2  1  0
 13 14  2  0
 15 13  1  0
 16 15  1  0
 16 17  1  6
 18 19  2  0
 18 17  1  0
 20 16  1  0
 21 20  2  0
 22 18  1  0
 23 20  1  0
 24 25  1  1
 24 23  1  0
 25 26  1  0
 27 28  1  0
 27 26  1  0
 28 29  1  0
 30 32  1  0
 30 24  1  0
 31 30  2  0
M  END
$$$$
