WDK.pdb
     RDKit          3D

 32 33  0  0  1  0  0  0  0  0999 V2000
   22.6763  -14.0649  -17.7524 N   0  0  0  0  0  0  0  0  0  0  0  0
   22.7734  -12.6664  -17.4910 C   0  0  1  0  0  0  0  0  0  0  0  0
   23.3820  -11.8365  -18.5720 C   0  0  0  0  0  0  0  0  0  0  0  0
   24.8136  -11.6650  -18.3482 C   0  0  0  0  0  0  0  0  0  0  0  0
   25.7984  -11.9055  -19.2779 C   0  0  0  0  0  0  0  0  0  0  0  0
   26.9660  -11.6104  -18.7125 N   0  0  0  0  0  0  0  0  0  0  0  0
   26.7782  -11.1874  -17.4494 C   0  0  0  0  0  0  0  0  0  0  0  0
   27.6766  -10.7774  -16.4703 C   0  0  0  0  0  0  0  0  0  0  0  0
   27.2380  -10.3872  -15.2202 C   0  0  0  0  0  0  0  0  0  0  0  0
   25.8874  -10.4224  -14.9901 C   0  0  0  0  0  0  0  0  0  0  0  0
   24.9766  -10.8247  -15.9443 C   0  0  0  0  0  0  0  0  0  0  0  0
   25.4217  -11.2175  -17.2058 C   0  0  0  0  0  0  0  0  0  0  0  0
   21.4732  -12.0501  -17.1312 C   0  0  0  0  0  0  0  0  0  0  0  0
   20.4175  -12.6698  -17.2952 O   0  0  0  0  0  0  0  0  0  0  0  0
   21.4579  -10.7408  -16.5965 N   0  0  0  0  0  0  0  0  0  0  0  0
   20.2739  -10.0582  -16.1680 C   0  0  1  0  0  0  0  0  0  0  0  0
   19.4770  -10.7365  -15.1098 C   0  0  0  0  0  0  0  0  0  0  0  0
   18.2512   -9.9810  -14.7958 C   0  0  0  0  0  0  0  0  0  0  0  0
   17.7706  -10.0045  -13.6416 O   0  0  0  0  0  0  0  0  0  0  0  0
   20.6293   -8.6494  -15.7854 C   0  0  0  0  0  0  0  0  0  0  0  0
   21.4298   -8.4484  -14.8223 O   0  0  0  0  0  0  0  0  0  0  0  0
   17.5933   -9.2261  -15.7554 O   0  0  0  0  0  0  0  0  0  0  0  0
   20.1142   -7.5156  -16.4476 N   0  0  0  0  0  0  0  0  0  0  0  0
   20.5235   -6.1725  -16.1147 C   0  0  1  0  0  0  0  0  0  0  0  0
   20.2893   -5.2127  -17.2544 C   0  0  0  0  0  0  0  0  0  0  0  0
   21.0150   -5.6139  -18.5083 C   0  0  0  0  0  0  0  0  0  0  0  0
   20.6284   -4.7080  -19.6353 C   0  0  0  0  0  0  0  0  0  0  0  0
   21.3081   -5.0466  -20.9388 C   0  0  0  0  0  0  0  0  0  0  0  0
   20.7536   -4.3347  -22.0510 N   0  0  0  0  0  0  0  0  0  0  0  0
   19.8830   -5.7026  -14.8578 C   0  0  0  0  0  0  0  0  0  0  0  0
   18.9757   -6.3244  -14.2853 O   0  0  0  0  0  0  0  0  0  0  0  0
   20.3091   -4.5120  -14.2841 O   0  0  0  0  0  0  0  0  0  0  0  0
  2  1  1  6
  3  4  1  0
  3  2  1  0
  4  5  2  0
  5  6  1  0
  7  6  1  0
  8  7  2  0
  9  8  1  0
 10 11  1  0
 10  9  2  0
 11 12  2  0
 12  4  1  0
 12  7  1  0
 13  2  1  0
 13 14  2  0
 15 13  1  0
 16 15  1  0
 16 17  1  1
 18 19  2  0
 18 17  1  0
 20 16  1  0
 21 20  2  0
 22 18  1  0
 23 20  1  0
 24 25  1  6
 24 23  1  0
 25 26  1  0
 27 28  1  0
 27 26  1  0
 28 29  1  0
 30 32  1  0
 30 24  1  0
 31 30  2  0
M  END
$$$$
