ANE.pdb
     RDKit          3D

 23 22  0  0  1  0  0  0  0  0999 V2000
 4515.7148 4929.3267-3698.8623 C   0  0  0  0  0  0  0  0  0  0  0  0
 4515.3608 4929.2905-3700.3530 C   0  0  2  0  0  0  0  0  0  0  0  0
 4516.2603 4930.1885-3701.0347 N   0  0  0  0  0  0  0  0  0  0  0  0
 4513.9863 4929.7637-3700.4902 C   0  0  0  0  0  0  0  0  0  0  0  0
 4513.7085 4930.6011-3701.3989 O   0  0  0  0  0  0  0  0  0  0  0  0
 4512.5161 4925.6689-3696.7705 N   0  0  0  0  0  0  0  0  0  0  0  0
 4513.0850 4926.9683-3696.8545 C   0  0  0  0  0  0  0  0  0  0  0  0
 4513.2866 4927.5898-3695.7871 O   0  0  0  0  0  0  0  0  0  0  0  0
 4513.4116 4927.5215-3698.1689 C   0  0  0  0  0  0  0  0  0  0  0  0
 4513.0786 4928.9961-3698.2842 C   0  0  2  0  0  0  0  0  0  0  0  0
 4512.8872 4929.3643-3699.6743 N   0  0  0  0  0  0  0  0  0  0  0  0
 4514.1875 4929.8311-3697.7124 C   0  0  0  0  0  0  0  0  0  0  0  0
 4514.0532 4931.0737-3697.5557 O   0  0  0  0  0  0  0  0  0  0  0  0
 4515.4214 4929.2773-3697.3291 N   0  0  0  0  0  0  0  0  0  0  0  0
 4516.4526 4930.0195-3696.5679 C   0  0  1  0  0  0  0  0  0  0  0  0
 4516.8003 4929.2852-3695.3447 C   0  0  0  0  0  0  0  0  0  0  0  0
 4515.9468 4929.5342-3694.1675 C   0  0  0  0  0  0  0  0  0  0  0  0
 4514.8462 4928.6201-3693.8862 C   0  0  0  0  0  0  0  0  0  0  0  0
 4514.5278 4928.2104-3692.7324 O   0  0  0  0  0  0  0  0  0  0  0  0
 4517.4971 4930.3672-3697.5234 C   0  0  0  0  0  0  0  0  0  0  0  0
 4517.9829 4931.5059-3697.7358 O   0  0  0  0  0  0  0  0  0  0  0  0
 4514.0771 4928.1694-3694.9639 O   0  0  0  0  0  0  0  0  0  0  0  0
 4518.0815 4929.3535-3698.3330 O   0  0  0  0  0  0  0  0  0  0  0  0
  2  1  1  1
  2  3  1  0
  4 11  1  0
  4  2  1  0
  5  4  2  0
  7  6  1  0
  7  8  2  0
 10  9  1  6
  9  7  1  0
 10 12  1  0
 10 11  1  0
 12 14  1  0
 13 12  2  0
 14 15  1  0
 15 20  1  0
 15 16  1  1
 16 17  1  0
 18 17  1  0
 18 22  1  0
 19 18  2  0
 20 23  1  0
 21 20  2  0
M  END
$$$$
