ANE.pdb
     RDKit          3D

 23 22  0  0  1  0  0  0  0  0999 V2000
   17.1679  -12.5816  -17.2885 C   0  0  0  0  0  0  0  0  0  0  0  0
   17.6689  -11.9462  -15.9861 C   0  0  2  0  0  0  0  0  0  0  0  0
   16.7829  -12.3697  -14.9288 N   0  0  0  0  0  0  0  0  0  0  0  0
   17.5899  -10.4973  -16.1490 C   0  0  0  0  0  0  0  0  0  0  0  0
   18.3797   -9.9212  -16.9498 O   0  0  0  0  0  0  0  0  0  0  0  0
   13.7624   -5.7491  -15.8819 N   0  0  0  0  0  0  0  0  0  0  0  0
   15.0647   -6.2621  -15.6313 C   0  0  0  0  0  0  0  0  0  0  0  0
   16.0279   -5.4637  -15.6746 O   0  0  0  0  0  0  0  0  0  0  0  0
   15.2257   -7.6858  -15.3359 C   0  0  0  0  0  0  0  0  0  0  0  0
   16.5537   -8.2371  -15.8176 C   0  0  2  0  0  0  0  0  0  0  0  0
   16.6737   -9.6384  -15.4663 N   0  0  0  0  0  0  0  0  0  0  0  0
   17.6938   -7.4846  -15.1963 C   0  0  0  0  0  0  0  0  0  0  0  0
   18.1616   -7.8182  -14.0777 O   0  0  0  0  0  0  0  0  0  0  0  0
   18.2917   -6.3788  -15.8272 N   0  0  0  0  0  0  0  0  0  0  0  0
   19.4470   -5.6429  -15.2654 C   0  0  1  0  0  0  0  0  0  0  0  0
   20.6846   -6.4030  -15.4993 C   0  0  0  0  0  0  0  0  0  0  0  0
   21.9435   -5.7465  -15.0895 C   0  0  0  0  0  0  0  0  0  0  0  0
   22.2489   -5.6334  -13.6708 C   0  0  0  0  0  0  0  0  0  0  0  0
   22.7259   -4.5985  -13.1203 O   0  0  0  0  0  0  0  0  0  0  0  0
   19.3406   -4.2736  -15.7497 C   0  0  0  0  0  0  0  0  0  0  0  0
   19.4937   -3.2204  -15.0839 O   0  0  0  0  0  0  0  0  0  0  0  0
   21.9949   -6.7400  -12.8553 O   0  0  0  0  0  0  0  0  0  0  0  0
   19.0321   -4.0314  -17.1182 O   0  0  0  0  0  0  0  0  0  0  0  0
  2  1  1  6
  2  3  1  0
  4 11  1  0
  4  2  1  0
  5  4  2  0
  7  6  1  0
  7  8  2  0
 10  9  1  1
  9  7  1  0
 10 12  1  0
 10 11  1  0
 12 14  1  0
 13 12  2  0
 14 15  1  0
 15 20  1  0
 15 16  1  6
 16 17  1  0
 18 17  1  0
 18 22  1  0
 19 18  2  0
 20 23  1  0
 21 20  2  0
M  END
$$$$
