ANE.pdb
     RDKit          3D

 23 22  0  0  1  0  0  0  0  0999 V2000
   17.9677  -12.9023  -16.9049 C   0  0  0  0  0  0  0  0  0  0  0  0
   19.3473  -12.4692  -17.4150 C   0  0  2  0  0  0  0  0  0  0  0  0
   20.2404  -13.5912  -17.2540 N   0  0  0  0  0  0  0  0  0  0  0  0
   19.7921  -11.3573  -16.5794 C   0  0  0  0  0  0  0  0  0  0  0  0
   19.7084  -11.4565  -15.3224 O   0  0  0  0  0  0  0  0  0  0  0  0
   23.6469   -6.9957  -15.6398 N   0  0  0  0  0  0  0  0  0  0  0  0
   22.7407   -7.9814  -15.1614 C   0  0  0  0  0  0  0  0  0  0  0  0
   22.3879   -7.9209  -13.9618 O   0  0  0  0  0  0  0  0  0  0  0  0
   22.2617   -9.0152  -16.0790 C   0  0  0  0  0  0  0  0  0  0  0  0
   20.7483   -9.0782  -16.1513 C   0  0  2  0  0  0  0  0  0  0  0  0
   20.3314  -10.1252  -17.0632 N   0  0  0  0  0  0  0  0  0  0  0  0
   20.1881   -7.7707  -16.6295 C   0  0  0  0  0  0  0  0  0  0  0  0
   20.2606   -7.4346  -17.8392 O   0  0  0  0  0  0  0  0  0  0  0  0
   19.5593   -6.8633  -15.7579 N   0  0  0  0  0  0  0  0  0  0  0  0
   19.0118   -5.5581  -16.1922 C   0  0  1  0  0  0  0  0  0  0  0  0
   17.6379   -5.4011  -15.6902 C   0  0  0  0  0  0  0  0  0  0  0  0
   16.9778   -4.1115  -15.9815 C   0  0  0  0  0  0  0  0  0  0  0  0
   15.6192   -3.8932  -15.5069 C   0  0  0  0  0  0  0  0  0  0  0  0
   14.9390   -4.7445  -14.8632 O   0  0  0  0  0  0  0  0  0  0  0  0
   20.0174   -4.5574  -15.8630 C   0  0  0  0  0  0  0  0  0  0  0  0
   21.1038   -4.7441  -15.2623 O   0  0  0  0  0  0  0  0  0  0  0  0
   15.0221   -2.6579  -15.7740 O   0  0  0  0  0  0  0  0  0  0  0  0
   19.8089   -3.1991  -16.2346 O   0  0  0  0  0  0  0  0  0  0  0  0
  2  1  1  1
  2  3  1  0
  4 11  1  0
  4  2  1  0
  5  4  2  0
  7  6  1  0
  7  8  2  0
 10  9  1  6
  9  7  1  0
 10 12  1  0
 10 11  1  0
 12 14  1  0
 13 12  2  0
 14 15  1  0
 15 20  1  0
 15 16  1  1
 16 17  1  0
 18 17  1  0
 18 22  1  0
 19 18  2  0
 20 23  1  0
 21 20  2  0
M  END
$$$$
