ANE.pdb
     RDKit          3D

 23 22  0  0  1  0  0  0  0  0999 V2000
   20.6567  -12.2111  -18.9494 C   0  0  0  0  0  0  0  0  0  0  0  0
   21.8118  -11.2186  -18.7709 C   0  0  2  0  0  0  0  0  0  0  0  0
   22.9309  -11.9498  -18.2272 N   0  0  0  0  0  0  0  0  0  0  0  0
   21.3719  -10.2039  -17.8175 C   0  0  0  0  0  0  0  0  0  0  0  0
   20.4729   -9.3838  -18.1583 O   0  0  0  0  0  0  0  0  0  0  0  0
   20.2587   -7.3837  -13.6870 N   0  0  0  0  0  0  0  0  0  0  0  0
   20.9706   -8.5128  -13.1969 C   0  0  0  0  0  0  0  0  0  0  0  0
   21.0563   -8.6590  -11.9566 O   0  0  0  0  0  0  0  0  0  0  0  0
   21.5677   -9.4481  -14.1502 C   0  0  0  0  0  0  0  0  0  0  0  0
   21.3290   -9.0462  -15.5927 C   0  0  2  0  0  0  0  0  0  0  0  0
   21.8777  -10.0435  -16.4903 N   0  0  0  0  0  0  0  0  0  0  0  0
   21.9765   -7.7245  -15.8861 C   0  0  0  0  0  0  0  0  0  0  0  0
   23.2259   -7.6186  -15.9820 O   0  0  0  0  0  0  0  0  0  0  0  0
   21.2265   -6.5485  -16.0674 N   0  0  0  0  0  0  0  0  0  0  0  0
   21.8225   -5.2508  -16.4584 C   0  0  1  0  0  0  0  0  0  0  0  0
   21.1017   -4.6991  -17.6160 C   0  0  0  0  0  0  0  0  0  0  0  0
   21.5345   -3.3650  -18.0817 C   0  0  0  0  0  0  0  0  0  0  0  0
   20.8270   -2.7432  -19.1914 C   0  0  0  0  0  0  0  0  0  0  0  0
   19.9071   -1.8834  -19.0638 O   0  0  0  0  0  0  0  0  0  0  0  0
   21.9359   -4.4633  -15.2387 C   0  0  0  0  0  0  0  0  0  0  0  0
   22.9121   -3.7610  -14.8782 O   0  0  0  0  0  0  0  0  0  0  0  0
   21.1883   -3.1147  -20.4897 O   0  0  0  0  0  0  0  0  0  0  0  0
   20.8576   -4.4428  -14.3095 O   0  0  0  0  0  0  0  0  0  0  0  0
  2  1  1  1
  2  3  1  0
  4 11  1  0
  4  2  1  0
  5  4  2  0
  7  6  1  0
  7  8  2  0
 10  9  1  1
  9  7  1  0
 10 12  1  0
 10 11  1  0
 12 14  1  0
 13 12  2  0
 14 15  1  0
 15 20  1  0
 15 16  1  6
 16 17  1  0
 18 17  1  0
 18 22  1  0
 19 18  2  0
 20 23  1  0
 21 20  2  0
M  END
$$$$
