ANE.pdb
     RDKit          3D

 23 22  0  0  1  0  0  0  0  0999 V2000
   18.7794  -12.4625  -17.9914 C   0  0  0  0  0  0  0  0  0  0  0  0
   19.9574  -11.5421  -17.6504 C   0  0  2  0  0  0  0  0  0  0  0  0
   20.9323  -12.3324  -16.9379 N   0  0  0  0  0  0  0  0  0  0  0  0
   19.4473  -10.4838  -16.7834 C   0  0  0  0  0  0  0  0  0  0  0  0
   18.6140   -9.6537  -17.2455 O   0  0  0  0  0  0  0  0  0  0  0  0
   18.3384   -8.8113  -11.0228 N   0  0  0  0  0  0  0  0  0  0  0  0
   18.2271   -8.6739  -12.4337 C   0  0  0  0  0  0  0  0  0  0  0  0
   17.6808   -7.6402  -12.8810 O   0  0  0  0  0  0  0  0  0  0  0  0
   18.7493   -9.7333  -13.2968 C   0  0  0  0  0  0  0  0  0  0  0  0
   19.2436   -9.2106  -14.6317 C   0  0  2  0  0  0  0  0  0  0  0  0
   19.8124  -10.2895  -15.4151 N   0  0  0  0  0  0  0  0  0  0  0  0
   20.2922   -8.1562  -14.4297 C   0  0  0  0  0  0  0  0  0  0  0  0
   21.4828   -8.4639  -14.1663 O   0  0  0  0  0  0  0  0  0  0  0  0
   20.0001   -6.7836  -14.5242 N   0  0  0  0  0  0  0  0  0  0  0  0
   21.0257   -5.7205  -14.4242 C   0  0  1  0  0  0  0  0  0  0  0  0
   20.5984   -4.5407  -15.1919 C   0  0  0  0  0  0  0  0  0  0  0  0
   21.4591   -3.3441  -15.0867 C   0  0  0  0  0  0  0  0  0  0  0  0
   21.0971   -2.1487  -15.8341 C   0  0  0  0  0  0  0  0  0  0  0  0
   20.1158   -2.0700  -16.6294 O   0  0  0  0  0  0  0  0  0  0  0  0
   21.3424   -5.5829  -13.0094 C   0  0  0  0  0  0  0  0  0  0  0  0
   20.5593   -5.7325  -12.0396 O   0  0  0  0  0  0  0  0  0  0  0  0
   21.8816   -1.0048  -15.6612 O   0  0  0  0  0  0  0  0  0  0  0  0
   22.6668   -5.2435  -12.6127 O   0  0  0  0  0  0  0  0  0  0  0  0
  2  1  1  1
  2  3  1  0
  4 11  1  0
  4  2  1  0
  5  4  2  0
  7  6  1  0
  7  8  2  0
 10  9  1  1
  9  7  1  0
 10 12  1  0
 10 11  1  0
 12 14  1  0
 13 12  2  0
 14 15  1  0
 15 20  1  0
 15 16  1  1
 16 17  1  0
 18 17  1  0
 18 22  1  0
 19 18  2  0
 20 23  1  0
 21 20  2  0
M  END
$$$$
