ANE.pdb
     RDKit          3D

 23 22  0  0  1  0  0  0  0  0999 V2000
   18.0184  -10.4880  -16.4285 C   0  0  0  0  0  0  0  0  0  0  0  0
   19.5477  -10.4454  -16.3266 C   0  0  2  0  0  0  0  0  0  0  0  0
   19.9973  -11.7771  -16.0001 N   0  0  0  0  0  0  0  0  0  0  0  0
   19.8873   -9.5275  -15.2429 C   0  0  0  0  0  0  0  0  0  0  0  0
   19.8091   -9.9275  -14.0467 O   0  0  0  0  0  0  0  0  0  0  0  0
   22.3211   -5.9906  -12.2030 N   0  0  0  0  0  0  0  0  0  0  0  0
   21.9747   -5.4386  -13.4668 C   0  0  0  0  0  0  0  0  0  0  0  0
   21.9343   -4.1917  -13.5710 O   0  0  0  0  0  0  0  0  0  0  0  0
   21.6829   -6.3388  -14.5824 C   0  0  0  0  0  0  0  0  0  0  0  0
   20.5702   -7.3197  -14.2676 C   0  0  2  0  0  0  0  0  0  0  0  0
   20.3141   -8.1737  -15.4106 N   0  0  0  0  0  0  0  0  0  0  0  0
   19.3066   -6.5896  -13.9181 C   0  0  0  0  0  0  0  0  0  0  0  0
   18.5610   -6.1135  -14.8120 O   0  0  0  0  0  0  0  0  0  0  0  0
   18.8953   -6.4024  -12.5861 N   0  0  0  0  0  0  0  0  0  0  0  0
   17.6694   -5.6650  -12.2048 C   0  0  1  0  0  0  0  0  0  0  0  0
   17.3636   -5.9047  -10.7859 C   0  0  0  0  0  0  0  0  0  0  0  0
   16.2200   -5.1541  -10.2268 C   0  0  0  0  0  0  0  0  0  0  0  0
   15.9011   -5.3062   -8.8148 C   0  0  0  0  0  0  0  0  0  0  0  0
   16.5202   -6.0702   -8.0180 O   0  0  0  0  0  0  0  0  0  0  0  0
   17.8415   -4.3005  -12.6838 C   0  0  0  0  0  0  0  0  0  0  0  0
   16.9716   -3.5694  -13.2174 O   0  0  0  0  0  0  0  0  0  0  0  0
   14.8417   -4.5552   -8.2974 O   0  0  0  0  0  0  0  0  0  0  0  0
   19.1101   -3.6657  -12.5640 O   0  0  0  0  0  0  0  0  0  0  0  0
  2  1  1  1
  2  3  1  0
  4 11  1  0
  4  2  1  0
  5  4  2  0
  7  6  1  0
  7  8  2  0
 10  9  1  6
  9  7  1  0
 10 12  1  0
 10 11  1  0
 12 14  1  0
 13 12  2  0
 14 15  1  0
 15 20  1  0
 15 16  1  1
 16 17  1  0
 18 17  1  0
 18 22  1  0
 19 18  2  0
 20 23  1  0
 21 20  2  0
M  END
$$$$
