ANE.pdb
     RDKit          3D

 23 22  0  0  1  0  0  0  0  0999 V2000
   26.5683  -23.1729  -17.0077 C   0  0  0  0  0  0  0  0  0  0  0  0
   26.5307  -21.8218  -16.2838 C   0  0  2  0  0  0  0  0  0  0  0  0
   27.7437  -21.7112  -15.5099 N   0  0  0  0  0  0  0  0  0  0  0  0
   25.3737  -21.8361  -15.3931 C   0  0  0  0  0  0  0  0  0  0  0  0
   24.3267  -22.4474  -15.7494 O   0  0  0  0  0  0  0  0  0  0  0  0
   25.4742  -23.1655  -11.9707 N   0  0  0  0  0  0  0  0  0  0  0  0
   25.1496  -21.9994  -11.2245 C   0  0  0  0  0  0  0  0  0  0  0  0
   25.5250  -21.9431  -10.0316 O   0  0  0  0  0  0  0  0  0  0  0  0
   24.3989  -20.9240  -11.8725 C   0  0  0  0  0  0  0  0  0  0  0  0
   24.0909  -21.2194  -13.3276 C   0  0  2  0  0  0  0  0  0  0  0  0
   25.3092  -21.2033  -14.1130 N   0  0  0  0  0  0  0  0  0  0  0  0
   23.1442  -20.1969  -13.8845 C   0  0  0  0  0  0  0  0  0  0  0  0
   23.4911  -18.9962  -14.0243 O   0  0  0  0  0  0  0  0  0  0  0  0
   21.8336  -20.5259  -14.2752 N   0  0  0  0  0  0  0  0  0  0  0  0
   20.8982  -19.5597  -14.8946 C   0  0  1  0  0  0  0  0  0  0  0  0
   21.0008  -19.6351  -16.3602 C   0  0  0  0  0  0  0  0  0  0  0  0
   20.2005  -20.6883  -17.0192 C   0  0  0  0  0  0  0  0  0  0  0  0
   20.2545  -20.8099  -18.4687 C   0  0  0  0  0  0  0  0  0  0  0  0
   21.1286  -20.2625  -19.2021 O   0  0  0  0  0  0  0  0  0  0  0  0
   19.6074  -19.7633  -14.2517 C   0  0  0  0  0  0  0  0  0  0  0  0
   19.2716  -20.7210  -13.5129 O   0  0  0  0  0  0  0  0  0  0  0  0
   19.2785  -21.5879  -19.0980 O   0  0  0  0  0  0  0  0  0  0  0  0
   18.5676  -18.8093  -14.4396 O   0  0  0  0  0  0  0  0  0  0  0  0
  2  1  1  1
  2  3  1  0
  4 11  1  0
  4  2  1  0
  5  4  2  0
  7  6  1  0
  7  8  2  0
 10  9  1  1
  9  7  1  0
 10 12  1  0
 10 11  1  0
 12 14  1  0
 13 12  2  0
 14 15  1  0
 15 20  1  0
 15 16  1  6
 16 17  1  0
 18 17  1  0
 18 22  1  0
 19 18  2  0
 20 23  1  0
 21 20  2  0
M  END
$$$$
