ANE.pdb
     RDKit          3D

 23 22  0  0  1  0  0  0  0  0999 V2000
   20.7952  -13.3463  -16.5302 C   0  0  0  0  0  0  0  0  0  0  0  0
   20.5371  -11.9138  -17.0123 C   0  0  2  0  0  0  0  0  0  0  0  0
   20.9194  -11.8492  -18.4023 N   0  0  0  0  0  0  0  0  0  0  0  0
   21.3873  -11.0277  -16.2223 C   0  0  0  0  0  0  0  0  0  0  0  0
   21.2382  -10.9839  -14.9682 O   0  0  0  0  0  0  0  0  0  0  0  0
   25.9651  -10.7943  -14.5586 N   0  0  0  0  0  0  0  0  0  0  0  0
   25.1831  -10.7192  -15.7439 C   0  0  0  0  0  0  0  0  0  0  0  0
   24.9845  -11.7769  -16.3835 O   0  0  0  0  0  0  0  0  0  0  0  0
   24.6475   -9.4244  -16.1641 C   0  0  0  0  0  0  0  0  0  0  0  0
   23.1627   -9.2875  -15.8881 C   0  0  2  0  0  0  0  0  0  0  0  0
   22.4070  -10.1757  -16.7491 N   0  0  0  0  0  0  0  0  0  0  0  0
   22.7087   -7.8780  -16.1314 C   0  0  0  0  0  0  0  0  0  0  0  0
   22.2348   -7.5291  -17.2428 O   0  0  0  0  0  0  0  0  0  0  0  0
   22.7889   -6.8849  -15.1385 N   0  0  0  0  0  0  0  0  0  0  0  0
   22.1615   -5.5498  -15.2650 C   0  0  1  0  0  0  0  0  0  0  0  0
   20.7362   -5.6975  -15.5979 C   0  0  0  0  0  0  0  0  0  0  0  0
   19.9356   -4.4555  -15.6143 C   0  0  0  0  0  0  0  0  0  0  0  0
   18.4834   -4.5542  -15.6152 C   0  0  0  0  0  0  0  0  0  0  0  0
   17.7644   -4.5612  -14.5737 O   0  0  0  0  0  0  0  0  0  0  0  0
   22.5500   -4.7963  -14.0808 C   0  0  0  0  0  0  0  0  0  0  0  0
   22.9966   -5.2575  -13.0020 O   0  0  0  0  0  0  0  0  0  0  0  0
   17.8332   -4.6427  -16.8494 O   0  0  0  0  0  0  0  0  0  0  0  0
   22.4366   -3.3772  -14.0791 O   0  0  0  0  0  0  0  0  0  0  0  0
  2  1  1  1
  2  3  1  0
  4 11  1  0
  4  2  1  0
  5  4  2  0
  7  6  1  0
  7  8  2  0
 10  9  1  6
  9  7  1  0
 10 12  1  0
 10 11  1  0
 12 14  1  0
 13 12  2  0
 14 15  1  0
 15 20  1  0
 15 16  1  1
 16 17  1  0
 18 17  1  0
 18 22  1  0
 19 18  2  0
 20 23  1  0
 21 20  2  0
M  END
$$$$
