ANE.pdb
     RDKit          3D

 23 22  0  0  1  0  0  0  0  0999 V2000
   13.1380  -10.9233  -10.5033 C   0  0  0  0  0  0  0  0  0  0  0  0
   14.6062  -10.6349  -10.8385 C   0  0  2  0  0  0  0  0  0  0  0  0
   15.4160  -11.3085   -9.8521 N   0  0  0  0  0  0  0  0  0  0  0  0
   14.8010   -9.1912  -10.7383 C   0  0  0  0  0  0  0  0  0  0  0  0
   14.2438   -8.4322  -11.5811 O   0  0  0  0  0  0  0  0  0  0  0  0
   16.0460   -4.3750   -9.4118 N   0  0  0  0  0  0  0  0  0  0  0  0
   15.5034   -5.0779   -8.3012 C   0  0  0  0  0  0  0  0  0  0  0  0
   15.1416   -4.4113   -7.3052 O   0  0  0  0  0  0  0  0  0  0  0  0
   15.3904   -6.5350   -8.3655 C   0  0  0  0  0  0  0  0  0  0  0  0
   15.7316   -7.0888   -9.7353 C   0  0  2  0  0  0  0  0  0  0  0  0
   15.5886   -8.5313   -9.7446 N   0  0  0  0  0  0  0  0  0  0  0  0
   17.1431   -6.7415  -10.1081 C   0  0  0  0  0  0  0  0  0  0  0  0
   18.1113   -7.0835   -9.3821 O   0  0  0  0  0  0  0  0  0  0  0  0
   17.4523   -6.0230  -11.2771 N   0  0  0  0  0  0  0  0  0  0  0  0
   18.8333   -5.8203  -11.7710 C   0  0  1  0  0  0  0  0  0  0  0  0
   19.3022   -7.0352  -12.4553 C   0  0  0  0  0  0  0  0  0  0  0  0
   20.6760   -6.9921  -12.9979 C   0  0  0  0  0  0  0  0  0  0  0  0
   21.1871   -8.1525  -13.7127 C   0  0  0  0  0  0  0  0  0  0  0  0
   21.9016   -8.0947  -14.7557 O   0  0  0  0  0  0  0  0  0  0  0  0
   18.8366   -4.5480  -12.4797 C   0  0  0  0  0  0  0  0  0  0  0  0
   17.8601   -3.9872  -13.0345 O   0  0  0  0  0  0  0  0  0  0  0  0
   20.8738   -9.4201  -13.2139 O   0  0  0  0  0  0  0  0  0  0  0  0
   20.0467   -3.8067  -12.5926 O   0  0  0  0  0  0  0  0  0  0  0  0
  2  1  1  1
  2  3  1  0
  4 11  1  0
  4  2  1  0
  5  4  2  0
  7  6  1  0
  7  8  2  0
 10  9  1  1
  9  7  1  0
 10 12  1  0
 10 11  1  0
 12 14  1  0
 13 12  2  0
 14 15  1  0
 15 20  1  0
 15 16  1  6
 16 17  1  0
 18 17  1  0
 18 22  1  0
 19 18  2  0
 20 23  1  0
 21 20  2  0
M  END
$$$$
