ANE.pdb
     RDKit          3D

 23 22  0  0  1  0  0  0  0  0999 V2000
   23.4582  -35.1512  -10.6958 C   0  0  0  0  0  0  0  0  0  0  0  0
   23.2876  -35.6085   -9.2423 C   0  0  2  0  0  0  0  0  0  0  0  0
   22.0612  -35.0308   -8.7477 N   0  0  0  0  0  0  0  0  0  0  0  0
   24.4221  -35.0875   -8.4850 C   0  0  0  0  0  0  0  0  0  0  0  0
   25.5941  -35.4226   -8.8182 O   0  0  0  0  0  0  0  0  0  0  0  0
   26.6747  -32.3437   -9.0077 N   0  0  0  0  0  0  0  0  0  0  0  0
   25.7289  -31.7337   -8.1386 C   0  0  0  0  0  0  0  0  0  0  0  0
   25.0341  -30.7967   -8.5928 O   0  0  0  0  0  0  0  0  0  0  0  0
   25.6064  -32.2195   -6.7641 C   0  0  0  0  0  0  0  0  0  0  0  0
   25.5201  -33.7312   -6.6830 C   0  0  2  0  0  0  0  0  0  0  0  0
   24.3315  -34.2046   -7.3645 N   0  0  0  0  0  0  0  0  0  0  0  0
   25.4671  -34.1805   -5.2522 C   0  0  0  0  0  0  0  0  0  0  0  0
   24.3941  -34.1436   -4.5973 O   0  0  0  0  0  0  0  0  0  0  0  0
   26.6035  -34.6614   -4.5770 N   0  0  0  0  0  0  0  0  0  0  0  0
   26.5808  -35.1393   -3.1759 C   0  0  1  0  0  0  0  0  0  0  0  0
   27.8143  -35.8856   -2.8830 C   0  0  0  0  0  0  0  0  0  0  0  0
   28.0085  -37.1473   -3.6275 C   0  0  0  0  0  0  0  0  0  0  0  0
   29.2459  -37.8909   -3.4414 C   0  0  0  0  0  0  0  0  0  0  0  0
   30.3870  -37.3613   -3.3037 O   0  0  0  0  0  0  0  0  0  0  0  0
   26.2206  -33.9927   -2.3535 C   0  0  0  0  0  0  0  0  0  0  0  0
   26.1758  -32.7895   -2.7089 O   0  0  0  0  0  0  0  0  0  0  0  0
   29.1731  -39.2865   -3.4071 O   0  0  0  0  0  0  0  0  0  0  0  0
   25.8695  -34.1868   -0.9876 O   0  0  0  0  0  0  0  0  0  0  0  0
  2  1  1  6
  2  3  1  0
  4 11  1  0
  4  2  1  0
  5  4  2  0
  7  6  1  0
  7  8  2  0
 10  9  1  1
  9  7  1  0
 10 12  1  0
 10 11  1  0
 12 14  1  0
 13 12  2  0
 14 15  1  0
 15 20  1  0
 15 16  1  1
 16 17  1  0
 18 17  1  0
 18 22  1  0
 19 18  2  0
 20 23  1  0
 21 20  2  0
M  END
$$$$
