ANE.pdb
     RDKit          3D

 23 22  0  0  1  0  0  0  0  0999 V2000
   28.1672  -21.4994  -15.4691 C   0  0  0  0  0  0  0  0  0  0  0  0
   27.1125  -20.3953  -15.3293 C   0  0  2  0  0  0  0  0  0  0  0  0
   27.7704  -19.2351  -14.7784 N   0  0  0  0  0  0  0  0  0  0  0  0
   26.0963  -20.8780  -14.3985 C   0  0  0  0  0  0  0  0  0  0  0  0
   25.3966  -21.8822  -14.7133 O   0  0  0  0  0  0  0  0  0  0  0  0
   27.0692  -20.2686   -9.7219 N   0  0  0  0  0  0  0  0  0  0  0  0
   25.9790  -21.0354  -10.2173 C   0  0  0  0  0  0  0  0  0  0  0  0
   26.0188  -22.2774  -10.0659 O   0  0  0  0  0  0  0  0  0  0  0  0
   24.8669  -20.3507  -10.8765 C   0  0  0  0  0  0  0  0  0  0  0  0
   24.6928  -20.7745  -12.3221 C   0  0  2  0  0  0  0  0  0  0  0  0
   25.8067  -20.3042  -13.1218 N   0  0  0  0  0  0  0  0  0  0  0  0
   23.4216  -20.2118  -12.8872 C   0  0  0  0  0  0  0  0  0  0  0  0
   23.3256  -18.9947  -13.1889 O   0  0  0  0  0  0  0  0  0  0  0  0
   22.2837  -21.0090  -13.1066 N   0  0  0  0  0  0  0  0  0  0  0  0
   21.0360  -20.5016  -13.7211 C   0  0  1  0  0  0  0  0  0  0  0  0
   20.9084  -21.0192  -15.0923 C   0  0  0  0  0  0  0  0  0  0  0  0
   19.7094  -20.5935  -15.8438 C   0  0  0  0  0  0  0  0  0  0  0  0
   19.4819  -21.1392  -17.1739 C   0  0  0  0  0  0  0  0  0  0  0  0
   20.2277  -21.9936  -17.7357 O   0  0  0  0  0  0  0  0  0  0  0  0
   19.9714  -20.7453  -12.7576 C   0  0  0  0  0  0  0  0  0  0  0  0
   19.7181  -21.8224  -12.1647 O   0  0  0  0  0  0  0  0  0  0  0  0
   18.3610  -20.6957  -17.8816 O   0  0  0  0  0  0  0  0  0  0  0  0
   19.0848  -19.6892  -12.4039 O   0  0  0  0  0  0  0  0  0  0  0  0
  2  1  1  1
  2  3  1  0
  4 11  1  0
  4  2  1  0
  5  4  2  0
  7  6  1  0
  7  8  2  0
 10  9  1  1
  9  7  1  0
 10 12  1  0
 10 11  1  0
 12 14  1  0
 13 12  2  0
 14 15  1  0
 15 20  1  0
 15 16  1  6
 16 17  1  0
 18 17  1  0
 18 22  1  0
 19 18  2  0
 20 23  1  0
 21 20  2  0
M  END
$$$$
