WMN.pdb
     RDKit          3D

 31 32  0  0  1  0  0  0  0  0999 V2000
   24.3468  -19.6321  -11.2361 N   0  0  0  0  0  0  0  0  0  0  0  0
   25.7300  -19.9952  -11.3750 C   0  0  1  0  0  0  0  0  0  0  0  0
   26.0911  -21.1990  -10.5638 C   0  0  0  0  0  0  0  0  0  0  0  0
   26.1842  -20.8381   -9.1225 C   0  0  0  0  0  0  0  0  0  0  0  0
   25.1229  -20.6811   -8.2403 C   0  0  0  0  0  0  0  0  0  0  0  0
   25.6561  -20.3893   -7.0503 N   0  0  0  0  0  0  0  0  0  0  0  0
   26.9944  -20.3487   -7.1140 C   0  0  0  0  0  0  0  0  0  0  0  0
   27.9522  -20.0859   -6.1621 C   0  0  0  0  0  0  0  0  0  0  0  0
   29.3103  -20.0967   -6.4962 C   0  0  0  0  0  0  0  0  0  0  0  0
   29.6956  -20.3727   -7.7897 C   0  0  0  0  0  0  0  0  0  0  0  0
   28.7064  -20.6328   -8.7222 C   0  0  0  0  0  0  0  0  0  0  0  0
   27.3527  -20.6304   -8.4216 C   0  0  0  0  0  0  0  0  0  0  0  0
   26.0362  -20.1861  -12.8191 C   0  0  0  0  0  0  0  0  0  0  0  0
   25.1702  -20.6492  -13.6034 O   0  0  0  0  0  0  0  0  0  0  0  0
   28.3314  -17.8643  -19.1339 C   0  0  0  0  0  0  0  0  0  0  0  0
   27.8604  -18.0741  -17.4113 S   0  0  0  0  0  0  0  0  0  0  0  0
   29.2073  -18.8580  -16.4411 C   0  0  0  0  0  0  0  0  0  0  0  0
   28.8053  -18.9990  -15.0009 C   0  0  0  0  0  0  0  0  0  0  0  0
   27.5944  -19.8391  -14.7798 C   0  0  2  0  0  0  0  0  0  0  0  0
   27.3183  -19.8429  -13.3154 N   0  0  0  0  0  0  0  0  0  0  0  0
   27.6508  -21.2212  -15.2322 C   0  0  0  0  0  0  0  0  0  0  0  0
   28.2217  -22.0792  -14.4679 O   0  0  0  0  0  0  0  0  0  0  0  0
   26.2486  -26.1814  -15.4414 N   0  0  0  0  0  0  0  0  0  0  0  0
   25.5017  -25.1076  -15.9754 C   0  0  0  0  0  0  0  0  0  0  0  0
   24.5162  -25.3538  -16.7040 O   0  0  0  0  0  0  0  0  0  0  0  0
   25.8763  -23.7270  -15.6800 C   0  0  0  0  0  0  0  0  0  0  0  0
   26.9179  -23.1779  -16.6310 C   0  0  2  0  0  0  0  0  0  0  0  0
   27.1475  -21.7666  -16.4266 N   0  0  0  0  0  0  0  0  0  0  0  0
   26.4538  -23.3669  -18.0284 C   0  0  0  0  0  0  0  0  0  0  0  0
   26.9087  -24.2799  -18.7559 O   0  0  0  0  0  0  0  0  0  0  0  0
   25.4766  -22.4711  -18.4999 O   0  0  0  0  0  0  0  0  0  0  0  0
  2  3  1  0
  2  1  1  6
  2 13  1  0
  3  4  1  0
  4 12  1  0
  4  5  2  0
  5  6  1  0
  7  6  1  0
  7  8  2  0
  9  8  1  0
 10  9  2  0
 11 12  2  0
 11 10  1  0
 12  7  1  0
 13 14  2  0
 16 15  1  0
 16 17  1  0
 19 18  1  1
 18 17  1  0
 19 21  1  0
 20 13  1  0
 20 19  1  0
 21 22  2  0
 23 24  1  0
 24 25  2  0
 24 26  1  0
 27 26  1  1
 27 29  1  0
 28 27  1  0
 28 21  1  0
 29 30  2  0
 29 31  1  0
M  END
$$$$
