WMN.pdb
     RDKit          3D

 31 32  0  0  1  0  0  0  0  0999 V2000
   19.6083  -14.3540  -17.8087 N   0  0  0  0  0  0  0  0  0  0  0  0
   20.0441  -13.0393  -18.1906 C   0  0  1  0  0  0  0  0  0  0  0  0
   19.0426  -12.3287  -19.0449 C   0  0  0  0  0  0  0  0  0  0  0  0
   18.4400  -13.2742  -20.0242 C   0  0  0  0  0  0  0  0  0  0  0  0
   19.0891  -14.3177  -20.6715 C   0  0  0  0  0  0  0  0  0  0  0  0
   18.1727  -14.9237  -21.4321 N   0  0  0  0  0  0  0  0  0  0  0  0
   16.9752  -14.3334  -21.3136 C   0  0  0  0  0  0  0  0  0  0  0  0
   15.7583  -14.5976  -21.8985 C   0  0  0  0  0  0  0  0  0  0  0  0
   14.6414  -13.8078  -21.6072 C   0  0  0  0  0  0  0  0  0  0  0  0
   14.7577  -12.7546  -20.7268 C   0  0  0  0  0  0  0  0  0  0  0  0
   15.9961  -12.5168  -20.1562 C   0  0  0  0  0  0  0  0  0  0  0  0
   17.1210  -13.2820  -20.4241 C   0  0  0  0  0  0  0  0  0  0  0  0
   20.3760  -12.2653  -16.9632 C   0  0  0  0  0  0  0  0  0  0  0  0
   19.6528  -12.3454  -15.9385 O   0  0  0  0  0  0  0  0  0  0  0  0
   26.6213   -9.8348  -14.6929 C   0  0  0  0  0  0  0  0  0  0  0  0
   25.9764  -11.0028  -15.8983 S   0  0  0  0  0  0  0  0  0  0  0  0
   24.2806  -10.5448  -16.4314 C   0  0  0  0  0  0  0  0  0  0  0  0
   23.2758  -10.9399  -15.3874 C   0  0  0  0  0  0  0  0  0  0  0  0
   21.8632  -10.6247  -15.7428 C   0  0  2  0  0  0  0  0  0  0  0  0
   21.5194  -11.4284  -16.9497 N   0  0  0  0  0  0  0  0  0  0  0  0
   21.5408   -9.2329  -16.0204 C   0  0  0  0  0  0  0  0  0  0  0  0
   21.7943   -8.7816  -17.1944 O   0  0  0  0  0  0  0  0  0  0  0  0
   17.0917   -5.9993  -15.1663 N   0  0  0  0  0  0  0  0  0  0  0  0
   18.2891   -6.6792  -15.4826 C   0  0  0  0  0  0  0  0  0  0  0  0
   18.2630   -7.5960  -16.3320 O   0  0  0  0  0  0  0  0  0  0  0  0
   19.5418   -6.3156  -14.8254 C   0  0  0  0  0  0  0  0  0  0  0  0
   20.7610   -6.8981  -15.5073 C   0  0  2  0  0  0  0  0  0  0  0  0
   20.9683   -8.2836  -15.1552 N   0  0  0  0  0  0  0  0  0  0  0  0
   21.9657   -6.1367  -15.0914 C   0  0  0  0  0  0  0  0  0  0  0  0
   22.7080   -6.5337  -14.1633 O   0  0  0  0  0  0  0  0  0  0  0  0
   22.2367   -4.9454  -15.7892 O   0  0  0  0  0  0  0  0  0  0  0  0
  2  3  1  0
  2  1  1  1
  2 13  1  0
  3  4  1  0
  4 12  1  0
  4  5  2  0
  5  6  1  0
  7  6  1  0
  7  8  2  0
  9  8  1  0
 10  9  2  0
 11 12  2  0
 11 10  1  0
 12  7  1  0
 13 14  2  0
 16 15  1  0
 16 17  1  0
 19 18  1  6
 18 17  1  0
 19 21  1  0
 20 13  1  0
 20 19  1  0
 21 22  2  0
 23 24  1  0
 24 25  2  0
 24 26  1  0
 27 26  1  1
 27 29  1  0
 28 27  1  0
 28 21  1  0
 29 30  2  0
 29 31  1  0
M  END
$$$$
