WMN.pdb
     RDKit          3D

 31 32  0  0  1  0  0  0  0  0999 V2000
   26.5245  -22.7871  -12.2166 N   0  0  0  0  0  0  0  0  0  0  0  0
   25.8111  -21.6772  -11.6479 C   0  0  1  0  0  0  0  0  0  0  0  0
   26.6499  -20.4420  -11.5573 C   0  0  0  0  0  0  0  0  0  0  0  0
   27.7549  -20.6422  -10.5801 C   0  0  0  0  0  0  0  0  0  0  0  0
   29.0609  -21.0121  -10.8746 C   0  0  0  0  0  0  0  0  0  0  0  0
   29.7193  -21.0455   -9.7123 N   0  0  0  0  0  0  0  0  0  0  0  0
   28.9165  -20.7203   -8.6893 C   0  0  0  0  0  0  0  0  0  0  0  0
   29.1440  -20.6286   -7.3357 C   0  0  0  0  0  0  0  0  0  0  0  0
   28.1116  -20.2713   -6.4624 C   0  0  0  0  0  0  0  0  0  0  0  0
   26.8540  -20.0082   -6.9594 C   0  0  0  0  0  0  0  0  0  0  0  0
   26.6597  -20.1095   -8.3260 C   0  0  0  0  0  0  0  0  0  0  0  0
   27.6627  -20.4603   -9.2169 C   0  0  0  0  0  0  0  0  0  0  0  0
   24.5682  -21.4483  -12.4345 C   0  0  0  0  0  0  0  0  0  0  0  0
   24.5368  -21.6840  -13.6686 O   0  0  0  0  0  0  0  0  0  0  0  0
   19.6141  -23.1089   -9.1499 C   0  0  0  0  0  0  0  0  0  0  0  0
   18.6482  -22.3448  -10.4600 S   0  0  0  0  0  0  0  0  0  0  0  0
   19.7195  -21.7921  -11.8444 C   0  0  0  0  0  0  0  0  0  0  0  0
   21.1142  -21.5236  -11.3560 C   0  0  0  0  0  0  0  0  0  0  0  0
   22.0653  -21.0908  -12.4186 C   0  0  2  0  0  0  0  0  0  0  0  0
   23.4077  -20.9585  -11.7854 N   0  0  0  0  0  0  0  0  0  0  0  0
   21.7684  -19.8459  -13.1117 C   0  0  0  0  0  0  0  0  0  0  0  0
   21.7029  -18.7718  -12.4130 O   0  0  0  0  0  0  0  0  0  0  0  0
   24.0906  -17.7875  -16.1802 N   0  0  0  0  0  0  0  0  0  0  0  0
   23.0721  -18.6206  -16.6947 C   0  0  0  0  0  0  0  0  0  0  0  0
   23.3892  -19.6615  -17.3100 O   0  0  0  0  0  0  0  0  0  0  0  0
   21.6662  -18.2701  -16.5101 C   0  0  0  0  0  0  0  0  0  0  0  0
   21.2142  -18.3679  -15.0689 C   0  0  2  0  0  0  0  0  0  0  0  0
   21.5395  -19.6484  -14.4850 N   0  0  0  0  0  0  0  0  0  0  0  0
   19.7407  -18.1987  -15.0050 C   0  0  0  0  0  0  0  0  0  0  0  0
   19.2161  -17.1014  -14.7039 O   0  0  0  0  0  0  0  0  0  0  0  0
   18.9578  -19.3302  -15.2989 O   0  0  0  0  0  0  0  0  0  0  0  0
  2  3  1  0
  2  1  1  6
  2 13  1  0
  3  4  1  0
  4 12  1  0
  4  5  2  0
  5  6  1  0
  7  6  1  0
  7  8  2  0
  9  8  1  0
 10  9  2  0
 11 12  2  0
 11 10  1  0
 12  7  1  0
 13 14  2  0
 16 15  1  0
 16 17  1  0
 19 18  1  1
 18 17  1  0
 19 21  1  0
 20 13  1  0
 20 19  1  0
 21 22  2  0
 23 24  1  0
 24 25  2  0
 24 26  1  0
 27 26  1  6
 27 29  1  0
 28 27  1  0
 28 21  1  0
 29 30  2  0
 29 31  1  0
M  END
$$$$
