WMN.pdb
     RDKit          3D

 31 32  0  0  1  0  0  0  0  0999 V2000
   26.7580  -20.5652  -16.6415 N   0  0  0  0  0  0  0  0  0  0  0  0
   26.6417  -19.7168  -15.4878 C   0  0  1  0  0  0  0  0  0  0  0  0
   25.9154  -18.4429  -15.7836 C   0  0  0  0  0  0  0  0  0  0  0  0
   26.6714  -17.6412  -16.7845 C   0  0  0  0  0  0  0  0  0  0  0  0
   26.1288  -16.8569  -17.7943 C   0  0  0  0  0  0  0  0  0  0  0  0
   27.1577  -16.2939  -18.4346 N   0  0  0  0  0  0  0  0  0  0  0  0
   28.3277  -16.6687  -17.8985 C   0  0  0  0  0  0  0  0  0  0  0  0
   29.6283  -16.3573  -18.2213 C   0  0  0  0  0  0  0  0  0  0  0  0
   30.6923  -16.9014  -17.4948 C   0  0  0  0  0  0  0  0  0  0  0  0
   30.4390  -17.7576  -16.4458 C   0  0  0  0  0  0  0  0  0  0  0  0
   29.1192  -18.0495  -16.1479 C   0  0  0  0  0  0  0  0  0  0  0  0
   28.0434  -17.5255  -16.8484 C   0  0  0  0  0  0  0  0  0  0  0  0
   25.9940  -20.4833  -14.3884 C   0  0  0  0  0  0  0  0  0  0  0  0
   25.2661  -21.4763  -14.6402 O   0  0  0  0  0  0  0  0  0  0  0  0
   26.9470  -20.6142   -7.2016 C   0  0  0  0  0  0  0  0  0  0  0  0
   25.9286  -21.5237   -8.3715 S   0  0  0  0  0  0  0  0  0  0  0  0
   24.9959  -20.3868   -9.4702 C   0  0  0  0  0  0  0  0  0  0  0  0
   25.8187  -20.0245  -10.6733 C   0  0  0  0  0  0  0  0  0  0  0  0
   25.3337  -20.6180  -11.9515 C   0  0  2  0  0  0  0  0  0  0  0  0
   26.1993  -20.0887  -13.0430 N   0  0  0  0  0  0  0  0  0  0  0  0
   23.9464  -20.3721  -12.3160 C   0  0  0  0  0  0  0  0  0  0  0  0
   23.6406  -19.2078  -12.7600 O   0  0  0  0  0  0  0  0  0  0  0  0
   18.8523  -22.2879  -14.7719 N   0  0  0  0  0  0  0  0  0  0  0  0
   19.7072  -21.2703  -14.2923 C   0  0  0  0  0  0  0  0  0  0  0  0
   19.2705  -20.1030  -14.1958 O   0  0  0  0  0  0  0  0  0  0  0  0
   21.0840  -21.5784  -13.9140 C   0  0  0  0  0  0  0  0  0  0  0  0
   21.5094  -20.9091  -12.6248 C   0  0  2  0  0  0  0  0  0  0  0  0
   22.8594  -21.2620  -12.2514 N   0  0  0  0  0  0  0  0  0  0  0  0
   20.6058  -21.3390  -11.5282 C   0  0  0  0  0  0  0  0  0  0  0  0
   20.8738  -22.3240  -10.8017 O   0  0  0  0  0  0  0  0  0  0  0  0
   19.4312  -20.5874  -11.3413 O   0  0  0  0  0  0  0  0  0  0  0  0
  2  3  1  0
  2  1  1  6
  2 13  1  0
  3  4  1  0
  4 12  1  0
  4  5  2  0
  5  6  1  0
  7  6  1  0
  7  8  2  0
  9  8  1  0
 10  9  2  0
 11 12  2  0
 11 10  1  0
 12  7  1  0
 13 14  2  0
 16 15  1  0
 16 17  1  0
 19 18  1  1
 18 17  1  0
 19 21  1  0
 20 13  1  0
 20 19  1  0
 21 22  2  0
 23 24  1  0
 24 25  2  0
 24 26  1  0
 27 26  1  6
 27 29  1  0
 28 27  1  0
 28 21  1  0
 29 30  2  0
 29 31  1  0
M  END
$$$$
