WMN.pdb
     RDKit          3D

 31 32  0  0  1  0  0  0  0  0999 V2000
   28.3974  -21.7160  -16.1018 N   0  0  0  0  0  0  0  0  0  0  0  0
   27.2482  -20.9818  -15.6494 C   0  0  1  0  0  0  0  0  0  0  0  0
   26.1248  -21.0093  -16.6367 C   0  0  0  0  0  0  0  0  0  0  0  0
   26.2244  -19.8462  -17.5605 C   0  0  0  0  0  0  0  0  0  0  0  0
   27.2028  -19.6385  -18.5243 C   0  0  0  0  0  0  0  0  0  0  0  0
   26.8937  -18.4942  -19.1412 N   0  0  0  0  0  0  0  0  0  0  0  0
   25.7774  -17.9540  -18.6327 C   0  0  0  0  0  0  0  0  0  0  0  0
   25.0937  -16.7997  -18.9374 C   0  0  0  0  0  0  0  0  0  0  0  0
   23.9356  -16.4512  -18.2350 C   0  0  0  0  0  0  0  0  0  0  0  0
   23.4727  -17.2693  -17.2280 C   0  0  0  0  0  0  0  0  0  0  0  0
   24.1843  -18.4229  -16.9475 C   0  0  0  0  0  0  0  0  0  0  0  0
   25.3345  -18.7957  -17.6262 C   0  0  0  0  0  0  0  0  0  0  0  0
   26.8326  -21.5071  -14.3200 C   0  0  0  0  0  0  0  0  0  0  0  0
   26.4682  -22.7025  -14.1874 O   0  0  0  0  0  0  0  0  0  0  0  0
   26.6886  -20.2993   -6.5032 C   0  0  0  0  0  0  0  0  0  0  0  0
   27.4220  -20.0814   -8.1304 S   0  0  0  0  0  0  0  0  0  0  0  0
   26.3316  -20.7461   -9.4491 C   0  0  0  0  0  0  0  0  0  0  0  0
   26.9801  -20.5933  -10.7952 C   0  0  0  0  0  0  0  0  0  0  0  0
   26.1287  -21.0230  -11.9404 C   0  0  2  0  0  0  0  0  0  0  0  0
   26.8469  -20.6500  -13.1917 N   0  0  0  0  0  0  0  0  0  0  0  0
   24.7824  -20.4748  -12.0121 C   0  0  0  0  0  0  0  0  0  0  0  0
   24.5509  -19.5670  -12.8887 O   0  0  0  0  0  0  0  0  0  0  0  0
   20.1744  -20.7681  -14.1992 N   0  0  0  0  0  0  0  0  0  0  0  0
   20.5798  -21.6760  -13.1954 C   0  0  0  0  0  0  0  0  0  0  0  0
   19.7307  -22.4376  -12.6838 O   0  0  0  0  0  0  0  0  0  0  0  0
   21.9735  -21.7242  -12.7609 C   0  0  0  0  0  0  0  0  0  0  0  0
   22.2985  -20.7010  -11.6940 C   0  0  2  0  0  0  0  0  0  0  0  0
   23.6625  -20.8144  -11.2324 N   0  0  0  0  0  0  0  0  0  0  0  0
   21.4037  -20.9081  -10.5276 C   0  0  0  0  0  0  0  0  0  0  0  0
   21.7067  -21.6884   -9.5953 O   0  0  0  0  0  0  0  0  0  0  0  0
   20.1962  -20.1860  -10.5170 O   0  0  0  0  0  0  0  0  0  0  0  0
  2  3  1  0
  2  1  1  6
  2 13  1  0
  3  4  1  0
  4 12  1  0
  4  5  2  0
  5  6  1  0
  7  6  1  0
  7  8  2  0
  9  8  1  0
 10  9  2  0
 11 12  2  0
 11 10  1  0
 12  7  1  0
 13 14  2  0
 16 15  1  0
 16 17  1  0
 19 18  1  1
 18 17  1  0
 19 21  1  0
 20 13  1  0
 20 19  1  0
 21 22  2  0
 23 24  1  0
 24 25  2  0
 24 26  1  0
 27 26  1  6
 27 29  1  0
 28 27  1  0
 28 21  1  0
 29 30  2  0
 29 31  1  0
M  END
$$$$
