WMN.pdb
     RDKit          3D

 31 32  0  0  1  0  0  0  0  0999 V2000
   26.3253  -22.1581  -14.5184 N   0  0  0  0  0  0  0  0  0  0  0  0
   25.4682  -21.1322  -13.9920 C   0  0  1  0  0  0  0  0  0  0  0  0
   26.2313  -19.9421  -13.5034 C   0  0  0  0  0  0  0  0  0  0  0  0
   27.0715  -20.3159  -12.3327 C   0  0  0  0  0  0  0  0  0  0  0  0
   28.4538  -20.4506  -12.3177 C   0  0  0  0  0  0  0  0  0  0  0  0
   28.7928  -20.7654  -11.0641 N   0  0  0  0  0  0  0  0  0  0  0  0
   27.7133  -20.8416  -10.2732 C   0  0  0  0  0  0  0  0  0  0  0  0
   27.5719  -21.1372   -8.9370 C   0  0  0  0  0  0  0  0  0  0  0  0
   26.3061  -21.1606   -8.3427 C   0  0  0  0  0  0  0  0  0  0  0  0
   25.1885  -20.8857   -9.0997 C   0  0  0  0  0  0  0  0  0  0  0  0
   25.3664  -20.5921  -10.4405 C   0  0  0  0  0  0  0  0  0  0  0  0
   26.6076  -20.5601  -11.0580 C   0  0  0  0  0  0  0  0  0  0  0  0
   24.4656  -20.7622  -15.0283 C   0  0  0  0  0  0  0  0  0  0  0  0
   24.7891  -20.6992  -16.2411 O   0  0  0  0  0  0  0  0  0  0  0  0
   19.2091  -22.8767  -15.3552 C   0  0  0  0  0  0  0  0  0  0  0  0
   18.7410  -21.4952  -16.4067 S   0  0  0  0  0  0  0  0  0  0  0  0
   19.6059  -19.9542  -15.9097 C   0  0  0  0  0  0  0  0  0  0  0  0
   20.7688  -20.2691  -15.0129 C   0  0  0  0  0  0  0  0  0  0  0  0
   22.1028  -20.1229  -15.6613 C   0  0  2  0  0  0  0  0  0  0  0  0
   23.1320  -20.4771  -14.6435 N   0  0  0  0  0  0  0  0  0  0  0  0
   22.4385  -18.8162  -16.2071 C   0  0  0  0  0  0  0  0  0  0  0  0
   22.7128  -17.8739  -15.3806 O   0  0  0  0  0  0  0  0  0  0  0  0
   23.4231  -14.7504  -19.3636 N   0  0  0  0  0  0  0  0  0  0  0  0
   24.3358  -15.8166  -19.5265 C   0  0  0  0  0  0  0  0  0  0  0  0
   25.3479  -15.6484  -20.2405 O   0  0  0  0  0  0  0  0  0  0  0  0
   24.0995  -17.0993  -18.8690 C   0  0  0  0  0  0  0  0  0  0  0  0
   22.8642  -17.0996  -17.9944 C   0  0  2  0  0  0  0  0  0  0  0  0
   22.5104  -18.4301  -17.5574 N   0  0  0  0  0  0  0  0  0  0  0  0
   21.7187  -16.5528  -18.7642 C   0  0  0  0  0  0  0  0  0  0  0  0
   21.2655  -15.4054  -18.5452 O   0  0  0  0  0  0  0  0  0  0  0  0
   21.1634  -17.3844  -19.7540 O   0  0  0  0  0  0  0  0  0  0  0  0
  2  3  1  0
  2  1  1  6
  2 13  1  0
  3  4  1  0
  4 12  1  0
  4  5  2  0
  5  6  1  0
  7  6  1  0
  7  8  2  0
  9  8  1  0
 10  9  2  0
 11 12  2  0
 11 10  1  0
 12  7  1  0
 13 14  2  0
 16 15  1  0
 16 17  1  0
 19 18  1  1
 18 17  1  0
 19 21  1  0
 20 13  1  0
 20 19  1  0
 21 22  2  0
 23 24  1  0
 24 25  2  0
 24 26  1  0
 27 26  1  6
 27 29  1  0
 28 27  1  0
 28 21  1  0
 29 30  2  0
 29 31  1  0
M  END
$$$$
