WMN.pdb
     RDKit          3D

 31 32  0  0  1  0  0  0  0  0999 V2000
   27.5687  -21.4541  -14.4111 N   0  0  0  0  0  0  0  0  0  0  0  0
   27.3459  -20.4266  -13.4318 C   0  0  1  0  0  0  0  0  0  0  0  0
   26.7558  -19.1869  -14.0254 C   0  0  0  0  0  0  0  0  0  0  0  0
   27.7267  -18.5516  -14.9581 C   0  0  0  0  0  0  0  0  0  0  0  0
   29.0828  -18.8351  -15.0576 C   0  0  0  0  0  0  0  0  0  0  0  0
   29.5632  -18.0622  -16.0360 N   0  0  0  0  0  0  0  0  0  0  0  0
   28.5994  -17.2995  -16.5708 C   0  0  0  0  0  0  0  0  0  0  0  0
   28.6214  -16.3626  -17.5779 C   0  0  0  0  0  0  0  0  0  0  0  0
   27.4546  -15.6852  -17.9464 C   0  0  0  0  0  0  0  0  0  0  0  0
   26.2706  -15.9564  -17.2965 C   0  0  0  0  0  0  0  0  0  0  0  0
   26.2837  -16.9047  -16.2883 C   0  0  0  0  0  0  0  0  0  0  0  0
   27.4234  -17.5932  -15.9011 C   0  0  0  0  0  0  0  0  0  0  0  0
   26.4984  -20.9772  -12.3390 C   0  0  0  0  0  0  0  0  0  0  0  0
   25.8645  -22.0508  -12.4969 O   0  0  0  0  0  0  0  0  0  0  0  0
   28.8590  -19.9570   -5.8628 C   0  0  0  0  0  0  0  0  0  0  0  0
   27.2755  -19.5210   -6.5946 S   0  0  0  0  0  0  0  0  0  0  0  0
   26.9970  -20.4213   -8.1699 C   0  0  0  0  0  0  0  0  0  0  0  0
   25.7299  -19.9536   -8.8266 C   0  0  0  0  0  0  0  0  0  0  0  0
   25.3893  -20.6714  -10.0875 C   0  0  2  0  0  0  0  0  0  0  0  0
   26.4042  -20.2830  -11.1072 N   0  0  0  0  0  0  0  0  0  0  0  0
   24.0688  -20.4361  -10.6523 C   0  0  0  0  0  0  0  0  0  0  0  0
   23.8277  -19.2785  -11.1503 O   0  0  0  0  0  0  0  0  0  0  0  0
   19.2750  -20.6472  -12.6176 N   0  0  0  0  0  0  0  0  0  0  0  0
   19.8048  -21.9569  -12.6290 C   0  0  0  0  0  0  0  0  0  0  0  0
   19.1743  -22.8641  -13.2139 O   0  0  0  0  0  0  0  0  0  0  0  0
   21.0733  -22.2474  -11.9656 C   0  0  0  0  0  0  0  0  0  0  0  0
   21.7339  -21.0167  -11.3827 C   0  0  2  0  0  0  0  0  0  0  0  0
   22.9863  -21.3298  -10.7347 N   0  0  0  0  0  0  0  0  0  0  0  0
   20.8345  -20.4116  -10.3684 C   0  0  0  0  0  0  0  0  0  0  0  0
   19.7019  -19.9701  -10.6720 O   0  0  0  0  0  0  0  0  0  0  0  0
   21.3134  -20.3565   -9.0466 O   0  0  0  0  0  0  0  0  0  0  0  0
  2  3  1  0
  2  1  1  6
  2 13  1  0
  3  4  1  0
  4 12  1  0
  4  5  2  0
  5  6  1  0
  7  6  1  0
  7  8  2  0
  9  8  1  0
 10  9  2  0
 11 12  2  0
 11 10  1  0
 12  7  1  0
 13 14  2  0
 16 15  1  0
 16 17  1  0
 19 18  1  1
 18 17  1  0
 19 21  1  0
 20 13  1  0
 20 19  1  0
 21 22  2  0
 23 24  1  0
 24 25  2  0
 24 26  1  0
 27 26  1  1
 27 29  1  0
 28 27  1  0
 28 21  1  0
 29 30  2  0
 29 31  1  0
M  END
$$$$
