WMN.pdb
     RDKit          3D

 31 32  0  0  1  0  0  0  0  0999 V2000
   26.4191  -20.6718  -13.2878 N   0  0  0  0  0  0  0  0  0  0  0  0
   25.2693  -20.3857  -12.4751 C   0  0  1  0  0  0  0  0  0  0  0  0
   24.0010  -20.9083  -13.0717 C   0  0  0  0  0  0  0  0  0  0  0  0
   23.2263  -19.7958  -13.6870 C   0  0  0  0  0  0  0  0  0  0  0  0
   23.4284  -19.2467  -14.9467 C   0  0  0  0  0  0  0  0  0  0  0  0
   22.4976  -18.3010  -15.1043 N   0  0  0  0  0  0  0  0  0  0  0  0
   21.7105  -18.2086  -14.0233 C   0  0  0  0  0  0  0  0  0  0  0  0
   20.6443  -17.3902  -13.7300 C   0  0  0  0  0  0  0  0  0  0  0  0
   19.9868  -17.4903  -12.4997 C   0  0  0  0  0  0  0  0  0  0  0  0
   20.4084  -18.4160  -11.5707 C   0  0  0  0  0  0  0  0  0  0  0  0
   21.4839  -19.2235  -11.8981 C   0  0  0  0  0  0  0  0  0  0  0  0
   22.1553  -19.1488  -13.1090 C   0  0  0  0  0  0  0  0  0  0  0  0
   25.5010  -20.9211  -11.1056 C   0  0  0  0  0  0  0  0  0  0  0  0
   25.6052  -22.1580  -10.9089 O   0  0  0  0  0  0  0  0  0  0  0  0
   28.7078  -19.4004   -4.1208 C   0  0  0  0  0  0  0  0  0  0  0  0
   28.3686  -18.9854   -5.8372 S   0  0  0  0  0  0  0  0  0  0  0  0
   26.8767  -19.8594   -6.4536 C   0  0  0  0  0  0  0  0  0  0  0  0
   26.6365  -19.5348   -7.9002 C   0  0  0  0  0  0  0  0  0  0  0  0
   25.8042  -20.5361   -8.6252 C   0  0  2  0  0  0  0  0  0  0  0  0
   25.6043  -20.0268  -10.0113 N   0  0  0  0  0  0  0  0  0  0  0  0
   24.4971  -20.8464   -8.0654 C   0  0  0  0  0  0  0  0  0  0  0  0
   23.5573  -19.9877   -8.2257 O   0  0  0  0  0  0  0  0  0  0  0  0
   20.1589  -23.0561   -6.3946 N   0  0  0  0  0  0  0  0  0  0  0  0
   21.1923  -23.9533   -6.0437 C   0  0  0  0  0  0  0  0  0  0  0  0
   20.8978  -25.0374   -5.4953 O   0  0  0  0  0  0  0  0  0  0  0  0
   22.5874  -23.6185   -6.3180 C   0  0  0  0  0  0  0  0  0  0  0  0
   22.7655  -22.2184   -6.8647 C   0  0  2  0  0  0  0  0  0  0  0  0
   24.1061  -21.9944   -7.3537 N   0  0  0  0  0  0  0  0  0  0  0  0
   22.5034  -21.2337   -5.7850 C   0  0  0  0  0  0  0  0  0  0  0  0
   23.4279  -20.7699   -5.0779 O   0  0  0  0  0  0  0  0  0  0  0  0
   21.1655  -20.8440   -5.5916 O   0  0  0  0  0  0  0  0  0  0  0  0
  2  3  1  0
  2  1  1  6
  2 13  1  0
  3  4  1  0
  4 12  1  0
  4  5  2  0
  5  6  1  0
  7  6  1  0
  7  8  2  0
  9  8  1  0
 10  9  2  0
 11 12  2  0
 11 10  1  0
 12  7  1  0
 13 14  2  0
 16 15  1  0
 16 17  1  0
 19 18  1  1
 18 17  1  0
 19 21  1  0
 20 13  1  0
 20 19  1  0
 21 22  2  0
 23 24  1  0
 24 25  2  0
 24 26  1  0
 27 26  1  1
 27 29  1  0
 28 27  1  0
 28 21  1  0
 29 30  2  0
 29 31  1  0
M  END
$$$$
