WMN.pdb
     RDKit          3D

 31 32  0  0  1  0  0  0  0  0999 V2000
   26.8618  -22.1339  -17.3374 N   0  0  0  0  0  0  0  0  0  0  0  0
   25.8711  -21.2445  -16.7970 C   0  0  1  0  0  0  0  0  0  0  0  0
   24.6270  -21.1998  -17.6264 C   0  0  0  0  0  0  0  0  0  0  0  0
   24.7491  -20.1549  -18.6796 C   0  0  0  0  0  0  0  0  0  0  0  0
   25.3563  -20.2999  -19.9204 C   0  0  0  0  0  0  0  0  0  0  0  0
   25.2126  -19.1324  -20.5542 N   0  0  0  0  0  0  0  0  0  0  0  0
   24.5509  -18.2463  -19.7968 C   0  0  0  0  0  0  0  0  0  0  0  0
   24.1822  -16.9400  -20.0207 C   0  0  0  0  0  0  0  0  0  0  0  0
   23.4919  -16.2169  -19.0426 C   0  0  0  0  0  0  0  0  0  0  0  0
   23.1769  -16.8156  -17.8425 C   0  0  0  0  0  0  0  0  0  0  0  0
   23.5626  -18.1309  -17.6502 C   0  0  0  0  0  0  0  0  0  0  0  0
   24.2466  -18.8739  -18.6004 C   0  0  0  0  0  0  0  0  0  0  0  0
   25.5868  -21.6368  -15.3895 C   0  0  0  0  0  0  0  0  0  0  0  0
   25.2983  -22.8252  -15.0999 O   0  0  0  0  0  0  0  0  0  0  0  0
   24.8770  -21.3916   -8.0789 C   0  0  0  0  0  0  0  0  0  0  0  0
   25.7016  -21.2965   -9.6740 S   0  0  0  0  0  0  0  0  0  0  0  0
   25.0018  -19.9514  -10.7087 C   0  0  0  0  0  0  0  0  0  0  0  0
   25.6350  -19.9513  -12.0707 C   0  0  0  0  0  0  0  0  0  0  0  0
   25.0303  -20.9181  -13.0302 C   0  0  2  0  0  0  0  0  0  0  0  0
   25.6410  -20.6596  -14.3646 N   0  0  0  0  0  0  0  0  0  0  0  0
   23.5832  -20.8887  -13.1825 C   0  0  0  0  0  0  0  0  0  0  0  0
   23.0684  -19.9071  -13.8287 O   0  0  0  0  0  0  0  0  0  0  0  0
   18.5561  -23.1488  -14.4763 N   0  0  0  0  0  0  0  0  0  0  0  0
   19.1602  -23.1270  -13.1993 C   0  0  0  0  0  0  0  0  0  0  0  0
   18.4343  -23.0842  -12.1826 O   0  0  0  0  0  0  0  0  0  0  0  0
   20.6148  -23.1542  -13.0687 C   0  0  0  0  0  0  0  0  0  0  0  0
   21.2340  -21.7734  -13.0376 C   0  0  2  0  0  0  0  0  0  0  0  0
   22.6398  -21.8177  -12.7086 N   0  0  0  0  0  0  0  0  0  0  0  0
   20.5501  -20.9528  -12.0067 C   0  0  0  0  0  0  0  0  0  0  0  0
   21.1340  -20.5905  -10.9591 O   0  0  0  0  0  0  0  0  0  0  0  0
   19.2121  -20.5994  -12.2608 O   0  0  0  0  0  0  0  0  0  0  0  0
  2  3  1  0
  2  1  1  6
  2 13  1  0
  3  4  1  0
  4 12  1  0
  4  5  2  0
  5  6  1  0
  7  6  1  0
  7  8  2  0
  9  8  1  0
 10  9  2  0
 11 12  2  0
 11 10  1  0
 12  7  1  0
 13 14  2  0
 16 15  1  0
 16 17  1  0
 19 18  1  1
 18 17  1  0
 19 21  1  0
 20 13  1  0
 20 19  1  0
 21 22  2  0
 23 24  1  0
 24 25  2  0
 24 26  1  0
 27 26  1  1
 27 29  1  0
 28 27  1  0
 28 21  1  0
 29 30  2  0
 29 31  1  0
M  END
$$$$
