WMN.pdb
     RDKit          3D

 31 32  0  0  1  0  0  0  0  0999 V2000
   25.6156  -20.4345  -14.1054 N   0  0  0  0  0  0  0  0  0  0  0  0
   24.4389  -20.2862  -13.2945 C   0  0  1  0  0  0  0  0  0  0  0  0
   23.2244  -20.8839  -13.9312 C   0  0  0  0  0  0  0  0  0  0  0  0
   22.9039  -20.1692  -15.1972 C   0  0  0  0  0  0  0  0  0  0  0  0
   23.3731  -20.4856  -16.4657 C   0  0  0  0  0  0  0  0  0  0  0  0
   22.8148  -19.6114  -17.3079 N   0  0  0  0  0  0  0  0  0  0  0  0
   22.0163  -18.7527  -16.6586 C   0  0  0  0  0  0  0  0  0  0  0  0
   21.2529  -17.6958  -17.0978 C   0  0  0  0  0  0  0  0  0  0  0  0
   20.5021  -16.9358  -16.1951 C   0  0  0  0  0  0  0  0  0  0  0  0
   20.5252  -17.2458  -14.8531 C   0  0  0  0  0  0  0  0  0  0  0  0
   21.3036  -18.3152  -14.4453 C   0  0  0  0  0  0  0  0  0  0  0  0
   22.0576  -19.0878  -15.3155 C   0  0  0  0  0  0  0  0  0  0  0  0
   24.7035  -20.8664  -11.9494 C   0  0  0  0  0  0  0  0  0  0  0  0
   24.5491  -22.0957  -11.7387 O   0  0  0  0  0  0  0  0  0  0  0  0
   29.2837  -20.1992   -6.9291 C   0  0  0  0  0  0  0  0  0  0  0  0
   27.8470  -19.1544   -6.6506 S   0  0  0  0  0  0  0  0  0  0  0  0
   26.3182  -19.9327   -7.3038 C   0  0  0  0  0  0  0  0  0  0  0  0
   26.1318  -19.5906   -8.7543 C   0  0  0  0  0  0  0  0  0  0  0  0
   25.2724  -20.5481   -9.5065 C   0  0  2  0  0  0  0  0  0  0  0  0
   25.1334  -20.0236  -10.8944 N   0  0  0  0  0  0  0  0  0  0  0  0
   23.9378  -20.7986   -8.9827 C   0  0  0  0  0  0  0  0  0  0  0  0
   23.0383  -19.9058   -9.1825 O   0  0  0  0  0  0  0  0  0  0  0  0
   19.0169  -23.1259   -8.3216 N   0  0  0  0  0  0  0  0  0  0  0  0
   20.1775  -23.5996   -7.6698 C   0  0  0  0  0  0  0  0  0  0  0  0
   20.0599  -24.2218   -6.5920 O   0  0  0  0  0  0  0  0  0  0  0  0
   21.4982  -23.3651   -8.2479 C   0  0  0  0  0  0  0  0  0  0  0  0
   22.1267  -22.0678   -7.7864 C   0  0  2  0  0  0  0  0  0  0  0  0
   23.4803  -21.9202   -8.2685 N   0  0  0  0  0  0  0  0  0  0  0  0
   22.1658  -22.0430   -6.3026 C   0  0  0  0  0  0  0  0  0  0  0  0
   21.1216  -21.9406   -5.6177 O   0  0  0  0  0  0  0  0  0  0  0  0
   23.4329  -22.1398   -5.6987 O   0  0  0  0  0  0  0  0  0  0  0  0
  2  3  1  0
  2  1  1  6
  2 13  1  0
  3  4  1  0
  4 12  1  0
  4  5  2  0
  5  6  1  0
  7  6  1  0
  7  8  2  0
  9  8  1  0
 10  9  2  0
 11 12  2  0
 11 10  1  0
 12  7  1  0
 13 14  2  0
 16 15  1  0
 16 17  1  0
 19 18  1  1
 18 17  1  0
 19 21  1  0
 20 13  1  0
 20 19  1  0
 21 22  2  0
 23 24  1  0
 24 25  2  0
 24 26  1  0
 27 26  1  1
 27 29  1  0
 28 27  1  0
 28 21  1  0
 29 30  2  0
 29 31  1  0
M  END
$$$$
