WMN.pdb
     RDKit          3D

 31 32  0  0  1  0  0  0  0  0999 V2000
   15.8022  -16.2261    4.5782 N   0  0  0  0  0  0  0  0  0  0  0  0
   17.0323  -16.0837    5.3068 C   0  0  1  0  0  0  0  0  0  0  0  0
   16.9851  -14.9652    6.2990 C   0  0  0  0  0  0  0  0  0  0  0  0
   17.8338  -13.8328    5.8372 C   0  0  0  0  0  0  0  0  0  0  0  0
   17.5090  -12.9033    4.8575 C   0  0  0  0  0  0  0  0  0  0  0  0
   18.5362  -12.0519    4.7839 N   0  0  0  0  0  0  0  0  0  0  0  0
   19.5010  -12.3775    5.6557 C   0  0  0  0  0  0  0  0  0  0  0  0
   20.7233  -11.8084    5.9286 C   0  0  0  0  0  0  0  0  0  0  0  0
   21.5650  -12.3601    6.8999 C   0  0  0  0  0  0  0  0  0  0  0  0
   21.1691  -13.4839    7.5913 C   0  0  0  0  0  0  0  0  0  0  0  0
   19.9334  -14.0308    7.2920 C   0  0  0  0  0  0  0  0  0  0  0  0
   19.0767  -13.5067    6.3359 C   0  0  0  0  0  0  0  0  0  0  0  0
   17.3652  -17.3839    5.9507 C   0  0  0  0  0  0  0  0  0  0  0  0
   16.4672  -18.2294    6.1920 O   0  0  0  0  0  0  0  0  0  0  0  0
   20.0282  -22.8224    5.6369 C   0  0  0  0  0  0  0  0  0  0  0  0
   21.4264  -21.7245    5.9066 S   0  0  0  0  0  0  0  0  0  0  0  0
   21.0622  -20.4873    7.2129 C   0  0  0  0  0  0  0  0  0  0  0  0
   20.5093  -19.2292    6.6069 C   0  0  0  0  0  0  0  0  0  0  0  0
   19.0748  -18.9744    6.9203 C   0  0  2  0  0  0  0  0  0  0  0  0
   18.7090  -17.6715    6.2963 N   0  0  0  0  0  0  0  0  0  0  0  0
   18.6987  -18.9235    8.3253 C   0  0  0  0  0  0  0  0  0  0  0  0
   18.9627  -17.8509    8.9779 O   0  0  0  0  0  0  0  0  0  0  0  0
   16.2947  -21.6172   13.1761 N   0  0  0  0  0  0  0  0  0  0  0  0
   16.3191  -20.4541   12.3743 C   0  0  0  0  0  0  0  0  0  0  0  0
   16.1147  -19.3421   12.9074 O   0  0  0  0  0  0  0  0  0  0  0  0
   16.5799  -20.5499   10.9403 C   0  0  0  0  0  0  0  0  0  0  0  0
   17.8264  -19.8054   10.5125 C   0  0  2  0  0  0  0  0  0  0  0  0
   18.0624  -19.9160    9.0917 N   0  0  0  0  0  0  0  0  0  0  0  0
   19.0030  -20.3750   11.2159 C   0  0  0  0  0  0  0  0  0  0  0  0
   19.7450  -21.2274   10.6749 O   0  0  0  0  0  0  0  0  0  0  0  0
   19.2477  -19.9125   12.5220 O   0  0  0  0  0  0  0  0  0  0  0  0
  2  3  1  0
  2  1  1  1
  2 13  1  0
  3  4  1  0
  4 12  1  0
  4  5  2  0
  5  6  1  0
  7  6  1  0
  7  8  2  0
  9  8  1  0
 10  9  2  0
 11 12  2  0
 11 10  1  0
 12  7  1  0
 13 14  2  0
 16 15  1  0
 16 17  1  0
 19 18  1  1
 18 17  1  0
 19 21  1  0
 20 13  1  0
 20 19  1  0
 21 22  2  0
 23 24  1  0
 24 25  2  0
 24 26  1  0
 27 26  1  6
 27 29  1  0
 28 27  1  0
 28 21  1  0
 29 30  2  0
 29 31  1  0
M  END
$$$$
