WMN.pdb
     RDKit          3D

 31 32  0  0  1  0  0  0  0  0999 V2000
   17.3958  -27.2312   -8.0189 N   0  0  0  0  0  0  0  0  0  0  0  0
   17.8741  -26.2436   -7.0914 C   0  0  1  0  0  0  0  0  0  0  0  0
   17.4450  -24.8580   -7.4571 C   0  0  0  0  0  0  0  0  0  0  0  0
   17.9766  -24.4931   -8.7988 C   0  0  0  0  0  0  0  0  0  0  0  0
   19.1642  -24.9379   -9.3656 C   0  0  0  0  0  0  0  0  0  0  0  0
   19.2344  -24.3909  -10.5826 N   0  0  0  0  0  0  0  0  0  0  0  0
   18.1655  -23.6217  -10.8324 C   0  0  0  0  0  0  0  0  0  0  0  0
   17.8116  -22.8673  -11.9270 C   0  0  0  0  0  0  0  0  0  0  0  0
   16.6216  -22.1325  -11.9311 C   0  0  0  0  0  0  0  0  0  0  0  0
   15.7941  -22.1622  -10.8302 C   0  0  0  0  0  0  0  0  0  0  0  0
   16.1801  -22.9313   -9.7462 C   0  0  0  0  0  0  0  0  0  0  0  0
   17.3525  -23.6711   -9.7124 C   0  0  0  0  0  0  0  0  0  0  0  0
   17.4346  -26.6173   -5.7192 C   0  0  0  0  0  0  0  0  0  0  0  0
   16.2397  -26.9336   -5.4915 O   0  0  0  0  0  0  0  0  0  0  0  0
   18.8952  -29.6051    0.9267 C   0  0  0  0  0  0  0  0  0  0  0  0
   19.3058  -29.0674   -0.7393 S   0  0  0  0  0  0  0  0  0  0  0  0
   18.9252  -27.2878   -0.9798 C   0  0  0  0  0  0  0  0  0  0  0  0
   19.1647  -26.8864   -2.4071 C   0  0  0  0  0  0  0  0  0  0  0  0
   17.9386  -26.8645   -3.2539 C   0  0  2  0  0  0  0  0  0  0  0  0
   18.3731  -26.6158   -4.6575 N   0  0  0  0  0  0  0  0  0  0  0  0
   16.9145  -25.8864   -2.9183 C   0  0  0  0  0  0  0  0  0  0  0  0
   17.0489  -24.6962   -3.3780 O   0  0  0  0  0  0  0  0  0  0  0  0
   14.4511  -22.6273   -2.7199 N   0  0  0  0  0  0  0  0  0  0  0  0
   14.3742  -23.4178   -3.8884 C   0  0  0  0  0  0  0  0  0  0  0  0
   14.2796  -22.8542   -5.0001 O   0  0  0  0  0  0  0  0  0  0  0  0
   14.4047  -24.8754   -3.7985 C   0  0  0  0  0  0  0  0  0  0  0  0
   14.5120  -25.3804   -2.3758 C   0  0  2  0  0  0  0  0  0  0  0  0
   15.7588  -26.0700   -2.1384 N   0  0  0  0  0  0  0  0  0  0  0  0
   13.4057  -26.3339   -2.1095 C   0  0  0  0  0  0  0  0  0  0  0  0
   12.6055  -26.1660   -1.1602 O   0  0  0  0  0  0  0  0  0  0  0  0
   13.2965  -27.4381   -2.9747 O   0  0  0  0  0  0  0  0  0  0  0  0
  2  3  1  0
  2  1  1  6
  2 13  1  0
  3  4  1  0
  4 12  1  0
  4  5  2  0
  5  6  1  0
  7  6  1  0
  7  8  2  0
  9  8  1  0
 10  9  2  0
 11 12  2  0
 11 10  1  0
 12  7  1  0
 13 14  2  0
 16 15  1  0
 16 17  1  0
 19 18  1  1
 18 17  1  0
 19 21  1  0
 20 13  1  0
 20 19  1  0
 21 22  2  0
 23 24  1  0
 24 25  2  0
 24 26  1  0
 27 26  1  6
 27 29  1  0
 28 27  1  0
 28 21  1  0
 29 30  2  0
 29 31  1  0
M  END
$$$$
