WMN.pdb
     RDKit          3D

 31 32  0  0  1  0  0  0  0  0999 V2000
   26.2464  -22.4875  -14.3871 N   0  0  0  0  0  0  0  0  0  0  0  0
   26.1662  -21.5191  -13.3288 C   0  0  1  0  0  0  0  0  0  0  0  0
   26.6561  -20.1694  -13.7481 C   0  0  0  0  0  0  0  0  0  0  0  0
   28.0715  -19.9828  -13.3263 C   0  0  0  0  0  0  0  0  0  0  0  0
   29.0624  -19.3134  -14.0328 C   0  0  0  0  0  0  0  0  0  0  0  0
   30.1652  -19.3596  -13.2798 N   0  0  0  0  0  0  0  0  0  0  0  0
   29.9438  -20.0178  -12.1333 C   0  0  0  0  0  0  0  0  0  0  0  0
   30.7664  -20.3178  -11.0722 C   0  0  0  0  0  0  0  0  0  0  0  0
   30.2819  -21.0412   -9.9776 C   0  0  0  0  0  0  0  0  0  0  0  0
   28.9692  -21.4586   -9.9589 C   0  0  0  0  0  0  0  0  0  0  0  0
   28.1692  -21.1397  -11.0424 C   0  0  0  0  0  0  0  0  0  0  0  0
   28.6198  -20.4236  -12.1410 C   0  0  0  0  0  0  0  0  0  0  0  0
   24.7665  -21.4702  -12.8245 C   0  0  0  0  0  0  0  0  0  0  0  0
   23.8291  -21.9898  -13.4807 O   0  0  0  0  0  0  0  0  0  0  0  0
   19.8530  -21.9388   -7.6175 C   0  0  0  0  0  0  0  0  0  0  0  0
   21.4710  -21.8700   -8.3989 S   0  0  0  0  0  0  0  0  0  0  0  0
   21.8832  -20.1625   -8.9323 C   0  0  0  0  0  0  0  0  0  0  0  0
   23.1732  -20.1483   -9.7014 C   0  0  0  0  0  0  0  0  0  0  0  0
   23.1123  -20.8452  -11.0174 C   0  0  2  0  0  0  0  0  0  0  0  0
   24.4874  -20.8300  -11.5914 N   0  0  0  0  0  0  0  0  0  0  0  0
   22.2005  -20.3059  -12.0153 C   0  0  0  0  0  0  0  0  0  0  0  0
   22.6033  -19.3129  -12.7208 O   0  0  0  0  0  0  0  0  0  0  0  0
   20.0254  -19.4735  -16.6991 N   0  0  0  0  0  0  0  0  0  0  0  0
   19.7784  -20.6154  -15.9046 C   0  0  0  0  0  0  0  0  0  0  0  0
   18.8197  -21.3634  -16.1944 O   0  0  0  0  0  0  0  0  0  0  0  0
   20.6324  -20.9180  -14.7589 C   0  0  0  0  0  0  0  0  0  0  0  0
   20.1534  -20.2753  -13.4751 C   0  0  2  0  0  0  0  0  0  0  0  0
   20.8989  -20.7372  -12.3273 N   0  0  0  0  0  0  0  0  0  0  0  0
   18.7251  -20.6175  -13.2590 C   0  0  0  0  0  0  0  0  0  0  0  0
   18.3817  -21.6148  -12.5826 O   0  0  0  0  0  0  0  0  0  0  0  0
   17.7718  -19.7683  -13.8502 O   0  0  0  0  0  0  0  0  0  0  0  0
  2  3  1  0
  2  1  1  6
  2 13  1  0
  3  4  1  0
  4 12  1  0
  4  5  2  0
  5  6  1  0
  7  6  1  0
  7  8  2  0
  9  8  1  0
 10  9  2  0
 11 12  2  0
 11 10  1  0
 12  7  1  0
 13 14  2  0
 16 15  1  0
 16 17  1  0
 19 18  1  1
 18 17  1  0
 19 21  1  0
 20 13  1  0
 20 19  1  0
 21 22  2  0
 23 24  1  0
 24 25  2  0
 24 26  1  0
 27 26  1  6
 27 29  1  0
 28 27  1  0
 28 21  1  0
 29 30  2  0
 29 31  1  0
M  END
$$$$
