WMN.pdb
     RDKit          3D

 31 32  0  0  1  0  0  0  0  0999 V2000
   26.5372  -22.6153  -12.5167 N   0  0  0  0  0  0  0  0  0  0  0  0
   26.0985  -21.5455  -11.6638 C   0  0  1  0  0  0  0  0  0  0  0  0
   26.9851  -20.3437  -11.7489 C   0  0  0  0  0  0  0  0  0  0  0  0
   28.0867  -20.4466  -10.7530 C   0  0  0  0  0  0  0  0  0  0  0  0
   29.4042  -20.8020  -11.0126 C   0  0  0  0  0  0  0  0  0  0  0  0
   30.0535  -20.7374   -9.8466 N   0  0  0  0  0  0  0  0  0  0  0  0
   29.2342  -20.3629   -8.8540 C   0  0  0  0  0  0  0  0  0  0  0  0
   29.4481  -20.1714   -7.5085 C   0  0  0  0  0  0  0  0  0  0  0  0
   28.3998  -19.7813   -6.6690 C   0  0  0  0  0  0  0  0  0  0  0  0
   27.1400  -19.5861   -7.1912 C   0  0  0  0  0  0  0  0  0  0  0  0
   26.9597  -19.7872   -8.5487 C   0  0  0  0  0  0  0  0  0  0  0  0
   27.9787  -20.1729   -9.4065 C   0  0  0  0  0  0  0  0  0  0  0  0
   24.6840  -21.2167  -11.9908 C   0  0  0  0  0  0  0  0  0  0  0  0
   24.1788  -21.5717  -13.0855 O   0  0  0  0  0  0  0  0  0  0  0  0
   18.2599  -21.9692   -8.5675 C   0  0  0  0  0  0  0  0  0  0  0  0
   20.0355  -21.7833   -8.7823 S   0  0  0  0  0  0  0  0  0  0  0  0
   20.4509  -20.1627   -9.5379 C   0  0  0  0  0  0  0  0  0  0  0  0
   21.9326  -20.0472   -9.7545 C   0  0  0  0  0  0  0  0  0  0  0  0
   22.4158  -20.6433  -11.0321 C   0  0  2  0  0  0  0  0  0  0  0  0
   23.8983  -20.4947  -11.0584 N   0  0  0  0  0  0  0  0  0  0  0  0
   21.8845  -20.0892  -12.2686 C   0  0  0  0  0  0  0  0  0  0  0  0
   22.2505  -18.9052  -12.6007 O   0  0  0  0  0  0  0  0  0  0  0  0
   20.0412  -19.6629  -17.4953 N   0  0  0  0  0  0  0  0  0  0  0  0
   19.2844  -20.3208  -16.5001 C   0  0  0  0  0  0  0  0  0  0  0  0
   18.0376  -20.3315  -16.5904 O   0  0  0  0  0  0  0  0  0  0  0  0
   19.9502  -20.9802  -15.3796 C   0  0  0  0  0  0  0  0  0  0  0  0
   20.4440  -20.0101  -14.3280 C   0  0  2  0  0  0  0  0  0  0  0  0
   21.0005  -20.6907  -13.1820 N   0  0  0  0  0  0  0  0  0  0  0  0
   19.3083  -19.1780  -13.8572 C   0  0  0  0  0  0  0  0  0  0  0  0
   19.1802  -17.9810  -14.2047 O   0  0  0  0  0  0  0  0  0  0  0  0
   18.3797  -19.7968  -13.0003 O   0  0  0  0  0  0  0  0  0  0  0  0
  2  3  1  0
  2  1  1  6
  2 13  1  0
  3  4  1  0
  4 12  1  0
  4  5  2  0
  5  6  1  0
  7  6  1  0
  7  8  2  0
  9  8  1  0
 10  9  2  0
 11 12  2  0
 11 10  1  0
 12  7  1  0
 13 14  2  0
 16 15  1  0
 16 17  1  0
 19 18  1  1
 18 17  1  0
 19 21  1  0
 20 13  1  0
 20 19  1  0
 21 22  2  0
 23 24  1  0
 24 25  2  0
 24 26  1  0
 27 26  1  6
 27 29  1  0
 28 27  1  0
 28 21  1  0
 29 30  2  0
 29 31  1  0
M  END
$$$$
