WMN.pdb
     RDKit          3D

 31 32  0  0  1  0  0  0  0  0999 V2000
   21.7488  -12.9885  -15.9216 N   0  0  0  0  0  0  0  0  0  0  0  0
   21.7257  -11.9888  -16.9534 C   0  0  1  0  0  0  0  0  0  0  0  0
   20.3573  -11.7823  -17.5213 C   0  0  0  0  0  0  0  0  0  0  0  0
   19.6350  -13.0813  -17.6062 C   0  0  0  0  0  0  0  0  0  0  0  0
   20.2101  -14.3451  -17.6432 C   0  0  0  0  0  0  0  0  0  0  0  0
   19.2025  -15.2215  -17.6877 N   0  0  0  0  0  0  0  0  0  0  0  0
   18.0157  -14.5985  -17.6819 C   0  0  0  0  0  0  0  0  0  0  0  0
   16.7264  -15.0768  -17.7236 C   0  0  0  0  0  0  0  0  0  0  0  0
   15.6396  -14.1966  -17.7164 C   0  0  0  0  0  0  0  0  0  0  0  0
   15.8588  -12.8374  -17.6672 C   0  0  0  0  0  0  0  0  0  0  0  0
   17.1681  -12.3903  -17.6260 C   0  0  0  0  0  0  0  0  0  0  0  0
   18.2658  -13.2374  -17.6309 C   0  0  0  0  0  0  0  0  0  0  0  0
   22.3000  -10.7257  -16.4144 C   0  0  0  0  0  0  0  0  0  0  0  0
   21.9783  -10.3098  -15.2729 O   0  0  0  0  0  0  0  0  0  0  0  0
   26.9661  -10.9769  -14.3555 C   0  0  0  0  0  0  0  0  0  0  0  0
   25.6162  -10.2576  -15.3008 S   0  0  0  0  0  0  0  0  0  0  0  0
   26.2420   -9.1319  -16.6088 C   0  0  0  0  0  0  0  0  0  0  0  0
   25.0992   -8.4983  -17.3492 C   0  0  0  0  0  0  0  0  0  0  0  0
   23.7686   -8.6883  -16.7054 C   0  0  2  0  0  0  0  0  0  0  0  0
   23.2187   -9.9831  -17.1970 N   0  0  0  0  0  0  0  0  0  0  0  0
   22.7662   -7.6575  -16.9309 C   0  0  0  0  0  0  0  0  0  0  0  0
   22.1764   -7.6339  -18.0701 O   0  0  0  0  0  0  0  0  0  0  0  0
   18.2448   -4.3604  -15.5367 N   0  0  0  0  0  0  0  0  0  0  0  0
   19.6340   -4.1088  -15.4825 C   0  0  0  0  0  0  0  0  0  0  0  0
   20.0522   -2.9505  -15.6971 O   0  0  0  0  0  0  0  0  0  0  0  0
   20.5699   -5.1885  -15.1796 C   0  0  0  0  0  0  0  0  0  0  0  0
   21.3612   -5.6445  -16.3865 C   0  0  2  0  0  0  0  0  0  0  0  0
   22.3368   -6.6534  -16.0449 N   0  0  0  0  0  0  0  0  0  0  0  0
   22.0871   -4.4849  -16.9631 C   0  0  0  0  0  0  0  0  0  0  0  0
   21.5410   -3.7042  -17.7768 O   0  0  0  0  0  0  0  0  0  0  0  0
   23.4205   -4.3022  -16.5528 O   0  0  0  0  0  0  0  0  0  0  0  0
  2  3  1  0
  2  1  1  1
  2 13  1  0
  3  4  1  0
  4 12  1  0
  4  5  2  0
  5  6  1  0
  7  6  1  0
  7  8  2  0
  9  8  1  0
 10  9  2  0
 11 12  2  0
 11 10  1  0
 12  7  1  0
 13 14  2  0
 16 15  1  0
 16 17  1  0
 19 18  1  6
 18 17  1  0
 19 21  1  0
 20 13  1  0
 20 19  1  0
 21 22  2  0
 23 24  1  0
 24 25  2  0
 24 26  1  0
 27 26  1  1
 27 29  1  0
 28 27  1  0
 28 21  1  0
 29 30  2  0
 29 31  1  0
M  END
$$$$
