WMN.pdb
     RDKit          3D

 31 32  0  0  1  0  0  0  0  0999 V2000
   25.3404  -19.1157  -10.5621 N   0  0  0  0  0  0  0  0  0  0  0  0
   25.9816  -20.3701  -10.8446 C   0  0  1  0  0  0  0  0  0  0  0  0
   26.0589  -21.2581   -9.6434 C   0  0  0  0  0  0  0  0  0  0  0  0
   26.6946  -20.5333   -8.5090 C   0  0  0  0  0  0  0  0  0  0  0  0
   26.0638  -19.6671   -7.6252 C   0  0  0  0  0  0  0  0  0  0  0  0
   26.9939  -19.2685   -6.7526 N   0  0  0  0  0  0  0  0  0  0  0  0
   28.1833  -19.8249   -7.0217 C   0  0  0  0  0  0  0  0  0  0  0  0
   29.4116  -19.7075   -6.4133 C   0  0  0  0  0  0  0  0  0  0  0  0
   30.5205  -20.4019   -6.9075 C   0  0  0  0  0  0  0  0  0  0  0  0
   30.3847  -21.2117   -8.0137 C   0  0  0  0  0  0  0  0  0  0  0  0
   29.1352  -21.3072   -8.6012 C   0  0  0  0  0  0  0  0  0  0  0  0
   28.0173  -20.6325   -8.1344 C   0  0  0  0  0  0  0  0  0  0  0  0
   25.2757  -21.0285  -11.9778 C   0  0  0  0  0  0  0  0  0  0  0  0
   24.0642  -20.7856  -12.2077 O   0  0  0  0  0  0  0  0  0  0  0  0
   26.2809  -20.7906  -17.7462 C   0  0  0  0  0  0  0  0  0  0  0  0
   27.6004  -21.8448  -17.1293 S   0  0  0  0  0  0  0  0  0  0  0  0
   27.5301  -22.0030  -15.3018 C   0  0  0  0  0  0  0  0  0  0  0  0
   26.4820  -23.0008  -14.8997 C   0  0  0  0  0  0  0  0  0  0  0  0
   25.3761  -22.4335  -14.0774 C   0  0  2  0  0  0  0  0  0  0  0  0
   25.9766  -21.9399  -12.8061 N   0  0  0  0  0  0  0  0  0  0  0  0
   24.2732  -23.3214  -13.7409 C   0  0  0  0  0  0  0  0  0  0  0  0
   24.4909  -24.2482  -12.8808 O   0  0  0  0  0  0  0  0  0  0  0  0
   18.9751  -24.1348  -11.9228 N   0  0  0  0  0  0  0  0  0  0  0  0
   19.4543  -24.2165  -13.2494 C   0  0  0  0  0  0  0  0  0  0  0  0
   18.9112  -25.0129  -14.0453 O   0  0  0  0  0  0  0  0  0  0  0  0
   20.5703  -23.3812  -13.6855 C   0  0  0  0  0  0  0  0  0  0  0  0
   21.8897  -24.1221  -13.7171 C   0  0  2  0  0  0  0  0  0  0  0  0
   22.9585  -23.3029  -14.2397 N   0  0  0  0  0  0  0  0  0  0  0  0
   21.7607  -25.3153  -14.5909 C   0  0  0  0  0  0  0  0  0  0  0  0
   21.9284  -25.2452  -15.8306 O   0  0  0  0  0  0  0  0  0  0  0  0
   21.4407  -26.5322  -13.9614 O   0  0  0  0  0  0  0  0  0  0  0  0
  2  3  1  0
  2  1  1  1
  2 13  1  0
  3  4  1  0
  4 12  1  0
  4  5  2  0
  5  6  1  0
  7  6  1  0
  7  8  2  0
  9  8  1  0
 10  9  2  0
 11 12  2  0
 11 10  1  0
 12  7  1  0
 13 14  2  0
 16 15  1  0
 16 17  1  0
 19 18  1  1
 18 17  1  0
 19 21  1  0
 20 13  1  0
 20 19  1  0
 21 22  2  0
 23 24  1  0
 24 25  2  0
 24 26  1  0
 27 26  1  6
 27 29  1  0
 28 27  1  0
 28 21  1  0
 29 30  2  0
 29 31  1  0
M  END
$$$$
