CKP.pdb
     RDKit          3D

 23 23  0  0  1  0  0  0  0  0999 V2000
    6.9686  -15.4556   19.2566 N   0  0  0  0  0  0  0  0  0  0  0  0
    7.7841  -14.6935   20.1693 C   0  0  1  0  0  0  0  0  0  0  0  0
    7.8373  -13.2263   19.8084 C   0  0  0  0  0  0  0  0  0  0  0  0
    9.1455  -13.0051   18.5840 S   0  0  0  0  0  0  0  0  0  0  0  0
    7.2347  -14.8771   21.5491 C   0  0  0  0  0  0  0  0  0  0  0  0
    6.0569  -14.4888   21.8466 O   0  0  0  0  0  0  0  0  0  0  0  0
    7.9765  -15.4810   22.5850 N   0  0  0  0  0  0  0  0  0  0  0  0
    7.4433  -15.5718   23.9821 C   0  0  1  0  0  0  0  0  0  0  0  0
    7.3590  -17.0553   24.1961 C   0  0  0  0  0  0  0  0  0  0  0  0
    7.2630  -17.5869   25.5493 C   0  0  0  0  0  0  0  0  0  0  0  0
    7.2945  -19.1040   25.5203 C   0  0  0  0  0  0  0  0  0  0  0  0
    7.0899  -19.7213   26.8854 C   0  0  0  0  0  0  0  0  0  0  0  0
    7.0544  -21.1850   26.7212 N   0  0  0  0  0  0  0  0  0  0  0  0
    8.4029  -14.8536   24.8056 C   0  0  0  0  0  0  0  0  0  0  0  0
    9.6595  -14.8830   24.5935 O   0  0  0  0  0  0  0  0  0  0  0  0
    7.9987  -14.0678   25.8987 N   0  0  0  0  0  0  0  0  0  0  0  0
    6.6179  -13.7327   26.2930 C   0  0  0  0  0  0  0  0  0  0  0  0
    6.7489  -12.3106   26.7195 C   0  0  0  0  0  0  0  0  0  0  0  0
    8.1836  -12.1050   27.1009 C   0  0  0  0  0  0  0  0  0  0  0  0
    8.8209  -13.4695   26.9125 C   0  0  1  0  0  0  0  0  0  0  0  0
    8.6663  -14.2092   28.2143 C   0  0  0  0  0  0  0  0  0  0  0  0
    9.4722  -13.8852   29.2784 O   0  0  0  0  0  0  0  0  0  0  0  0
    7.8145  -15.1098   28.3298 O   0  0  0  0  0  0  0  0  0  0  0  0
  2  5  1  0
  2  1  1  6
  3  2  1  0
  4  3  1  0
  5  6  2  0
  7  8  1  0
  7  5  1  0
  9 10  1  0
  8  9  1  1
 10 11  1  0
 11 12  1  0
 13 12  1  0
 14 15  2  0
 14  8  1  0
 16 14  1  0
 17 16  1  0
 18 17  1  0
 18 19  1  0
 20 19  1  0
 20 16  1  0
 20 21  1  1
 21 22  1  0
 23 21  2  0
M  END
$$$$
