CKP.pdb
     RDKit          3D

 23 23  0  0  1  0  0  0  0  0999 V2000
    9.0568  -18.4434   16.7606 N   0  0  0  0  0  0  0  0  0  0  0  0
    8.9755  -18.9252   18.1170 C   0  0  1  0  0  0  0  0  0  0  0  0
   10.3101  -19.4065   18.6396 C   0  0  0  0  0  0  0  0  0  0  0  0
   11.5434  -19.1216   17.3521 S   0  0  0  0  0  0  0  0  0  0  0  0
    8.4423  -17.8195   18.9729 C   0  0  0  0  0  0  0  0  0  0  0  0
    8.4957  -16.6046   18.5889 O   0  0  0  0  0  0  0  0  0  0  0  0
    7.8586  -18.0535   20.2349 N   0  0  0  0  0  0  0  0  0  0  0  0
    7.2323  -16.9469   21.0272 C   0  0  1  0  0  0  0  0  0  0  0  0
    6.0649  -17.6365   21.6717 C   0  0  0  0  0  0  0  0  0  0  0  0
    4.9797  -18.1474   20.8447 C   0  0  0  0  0  0  0  0  0  0  0  0
    3.9538  -18.8597   21.7070 C   0  0  0  0  0  0  0  0  0  0  0  0
    2.8246  -19.4602   20.9004 C   0  0  0  0  0  0  0  0  0  0  0  0
    1.9264  -20.1654   21.8313 N   0  0  0  0  0  0  0  0  0  0  0  0
    8.2787  -16.4763   21.9209 C   0  0  0  0  0  0  0  0  0  0  0  0
    9.3589  -17.1211   22.1260 O   0  0  0  0  0  0  0  0  0  0  0  0
    8.1645  -15.2621   22.6200 N   0  0  0  0  0  0  0  0  0  0  0  0
    6.9827  -14.3832   22.6920 C   0  0  0  0  0  0  0  0  0  0  0  0
    7.5954  -13.0261   22.6251 C   0  0  0  0  0  0  0  0  0  0  0  0
    9.0099  -13.1676   23.0995 C   0  0  0  0  0  0  0  0  0  0  0  0
    9.1364  -14.6339   23.4700 C   0  0  1  0  0  0  0  0  0  0  0  0
    8.7265  -14.7586   24.9130 C   0  0  0  0  0  0  0  0  0  0  0  0
    7.4986  -15.2888   25.2259 O   0  0  0  0  0  0  0  0  0  0  0  0
    9.4928  -14.3848   25.8202 O   0  0  0  0  0  0  0  0  0  0  0  0
  2  5  1  0
  2  1  1  6
  3  2  1  0
  4  3  1  0
  5  6  2  0
  7  8  1  0
  7  5  1  0
  9 10  1  0
  8  9  1  1
 10 11  1  0
 11 12  1  0
 13 12  1  0
 14 15  2  0
 14  8  1  0
 16 14  1  0
 17 16  1  0
 18 17  1  0
 18 19  1  0
 20 19  1  0
 20 16  1  0
 20 21  1  1
 21 22  1  0
 23 21  2  0
M  END
$$$$
