CKP.pdb
     RDKit          3D

 23 23  0  0  1  0  0  0  0  0999 V2000
    6.9265  -14.5428   18.8913 N   0  0  0  0  0  0  0  0  0  0  0  0
    8.0177  -14.7393   19.8129 C   0  0  1  0  0  0  0  0  0  0  0  0
    9.0765  -13.6670   19.6911 C   0  0  0  0  0  0  0  0  0  0  0  0
    8.2377  -12.0724   19.5745 S   0  0  0  0  0  0  0  0  0  0  0  0
    7.4562  -14.7700   21.1997 C   0  0  0  0  0  0  0  0  0  0  0  0
    6.3983  -14.1228   21.4969 O   0  0  0  0  0  0  0  0  0  0  0  0
    8.0554  -15.5056   22.2428 N   0  0  0  0  0  0  0  0  0  0  0  0
    7.4367  -15.5820   23.6051 C   0  0  1  0  0  0  0  0  0  0  0  0
    7.3818  -17.0624   23.8486 C   0  0  0  0  0  0  0  0  0  0  0  0
    7.1143  -17.5658   25.1894 C   0  0  0  0  0  0  0  0  0  0  0  0
    7.1858  -19.0817   25.2045 C   0  0  0  0  0  0  0  0  0  0  0  0
    6.8855  -19.6698   26.5648 C   0  0  0  0  0  0  0  0  0  0  0  0
    6.7720  -21.1309   26.4129 N   0  0  0  0  0  0  0  0  0  0  0  0
    8.3206  -14.8172   24.4704 C   0  0  0  0  0  0  0  0  0  0  0  0
    9.5616  -14.6561   24.2278 O   0  0  0  0  0  0  0  0  0  0  0  0
    7.8543  -14.1955   25.6417 N   0  0  0  0  0  0  0  0  0  0  0  0
    6.5009  -14.2863   26.2202 C   0  0  0  0  0  0  0  0  0  0  0  0
    6.2676  -12.8927   26.6947 C   0  0  0  0  0  0  0  0  0  0  0  0
    7.6176  -12.2765   26.9039 C   0  0  0  0  0  0  0  0  0  0  0  0
    8.5937  -13.3905   26.5727 C   0  0  1  0  0  0  0  0  0  0  0  0
    8.8358  -14.1547   27.8467 C   0  0  0  0  0  0  0  0  0  0  0  0
    8.3086  -15.4147   27.9924 O   0  0  0  0  0  0  0  0  0  0  0  0
    9.5092  -13.6514   28.7650 O   0  0  0  0  0  0  0  0  0  0  0  0
  2  5  1  0
  2  1  1  6
  3  2  1  0
  4  3  1  0
  5  6  2  0
  7  8  1  0
  7  5  1  0
  9 10  1  0
  8  9  1  1
 10 11  1  0
 11 12  1  0
 13 12  1  0
 14 15  2  0
 14  8  1  0
 16 14  1  0
 17 16  1  0
 18 17  1  0
 18 19  1  0
 20 19  1  0
 20 16  1  0
 20 21  1  1
 21 22  1  0
 23 21  2  0
M  END
$$$$
