CKP.pdb
     RDKit          3D

 23 23  0  0  1  0  0  0  0  0999 V2000
    7.3600  -15.3937   18.9961 N   0  0  0  0  0  0  0  0  0  0  0  0
    7.9678  -14.5098   19.9595 C   0  0  1  0  0  0  0  0  0  0  0  0
    7.8006  -13.0528   19.5921 C   0  0  0  0  0  0  0  0  0  0  0  0
    8.9978  -12.6683   18.2965 S   0  0  0  0  0  0  0  0  0  0  0  0
    7.3582  -14.7891   21.2973 C   0  0  0  0  0  0  0  0  0  0  0  0
    6.1013  -14.6814   21.4843 O   0  0  0  0  0  0  0  0  0  0  0  0
    8.1269  -15.1818   22.4122 N   0  0  0  0  0  0  0  0  0  0  0  0
    7.5065  -15.3864   23.7604 C   0  0  1  0  0  0  0  0  0  0  0  0
    7.4840  -16.8828   23.8781 C   0  0  0  0  0  0  0  0  0  0  0  0
    6.4628  -17.6486   23.1755 C   0  0  0  0  0  0  0  0  0  0  0  0
    6.5883  -19.1230   23.5126 C   0  0  0  0  0  0  0  0  0  0  0  0
    5.6994  -19.9980   22.6578 C   0  0  0  0  0  0  0  0  0  0  0  0
    5.8883  -21.3946   23.0875 N   0  0  0  0  0  0  0  0  0  0  0  0
    8.3707  -14.6779   24.6911 C   0  0  0  0  0  0  0  0  0  0  0  0
    9.6254  -14.5446   24.5098 O   0  0  0  0  0  0  0  0  0  0  0  0
    7.8688  -14.0840   25.8620 N   0  0  0  0  0  0  0  0  0  0  0  0
    6.4906  -14.1625   26.3807 C   0  0  0  0  0  0  0  0  0  0  0  0
    6.2674  -12.7801   26.8911 C   0  0  0  0  0  0  0  0  0  0  0  0
    7.6202  -12.2018   27.1764 C   0  0  0  0  0  0  0  0  0  0  0  0
    8.5854  -13.3265   26.8491 C   0  0  1  0  0  0  0  0  0  0  0  0
    8.7572  -14.1368   28.1060 C   0  0  0  0  0  0  0  0  0  0  0  0
    8.1767  -15.3783   28.1971 O   0  0  0  0  0  0  0  0  0  0  0  0
    9.4206  -13.6880   29.0591 O   0  0  0  0  0  0  0  0  0  0  0  0
  2  5  1  0
  2  1  1  6
  3  2  1  0
  4  3  1  0
  5  6  2  0
  7  8  1  0
  7  5  1  0
  9 10  1  0
  8  9  1  1
 10 11  1  0
 11 12  1  0
 13 12  1  0
 14 15  2  0
 14  8  1  0
 16 14  1  0
 17 16  1  0
 18 17  1  0
 18 19  1  0
 20 19  1  0
 20 16  1  0
 20 21  1  1
 21 22  1  0
 23 21  2  0
M  END
$$$$
