CKP.pdb
     RDKit          3D

 23 23  0  0  1  0  0  0  0  0999 V2000
    7.3085  -15.8564   18.9783 N   0  0  0  0  0  0  0  0  0  0  0  0
    8.3196  -15.5491   19.9591 C   0  0  1  0  0  0  0  0  0  0  0  0
    9.0475  -14.2597   19.6532 C   0  0  0  0  0  0  0  0  0  0  0  0
    7.8110  -12.9576   19.4664 S   0  0  0  0  0  0  0  0  0  0  0  0
    7.6603  -15.4764   21.3005 C   0  0  0  0  0  0  0  0  0  0  0  0
    6.4309  -15.1569   21.4143 O   0  0  0  0  0  0  0  0  0  0  0  0
    8.3500  -15.7530   22.4988 N   0  0  0  0  0  0  0  0  0  0  0  0
    7.6636  -15.7006   23.8295 C   0  0  1  0  0  0  0  0  0  0  0  0
    7.6071  -17.1499   24.2171 C   0  0  0  0  0  0  0  0  0  0  0  0
    7.2176  -17.5221   25.5708 C   0  0  0  0  0  0  0  0  0  0  0  0
    7.3352  -19.0238   25.7562 C   0  0  0  0  0  0  0  0  0  0  0  0
    6.8706  -19.4849   27.1193 C   0  0  0  0  0  0  0  0  0  0  0  0
    7.0052  -20.9511   27.1730 N   0  0  0  0  0  0  0  0  0  0  0  0
    8.4969  -14.8425   24.6566 C   0  0  0  0  0  0  0  0  0  0  0  0
    9.7465  -14.6876   24.4582 O   0  0  0  0  0  0  0  0  0  0  0  0
    7.9682  -14.1168   25.7381 N   0  0  0  0  0  0  0  0  0  0  0  0
    6.5632  -14.0798   26.1844 C   0  0  0  0  0  0  0  0  0  0  0  0
    6.3876  -12.6461   26.5521 C   0  0  0  0  0  0  0  0  0  0  0  0
    7.7529  -12.1088   26.8577 C   0  0  0  0  0  0  0  0  0  0  0  0
    8.6727  -13.3043   26.6895 C   0  0  1  0  0  0  0  0  0  0  0  0
    8.7373  -13.9990   28.0232 C   0  0  0  0  0  0  0  0  0  0  0  0
    9.4902  -13.4554   29.0354 O   0  0  0  0  0  0  0  0  0  0  0  0
    8.1137  -15.0599   28.2118 O   0  0  0  0  0  0  0  0  0  0  0  0
  2  5  1  0
  2  1  1  6
  3  2  1  0
  4  3  1  0
  5  6  2  0
  7  8  1  0
  7  5  1  0
  9 10  1  0
  8  9  1  1
 10 11  1  0
 11 12  1  0
 13 12  1  0
 14 15  2  0
 14  8  1  0
 16 14  1  0
 17 16  1  0
 18 17  1  0
 18 19  1  0
 20 19  1  0
 20 16  1  0
 20 21  1  1
 21 22  1  0
 23 21  2  0
M  END
$$$$
