CKP.pdb
     RDKit          3D

 23 23  0  0  1  0  0  0  0  0999 V2000
    7.4745  -14.9019   18.8807 N   0  0  0  0  0  0  0  0  0  0  0  0
    8.1595  -14.1798   19.9239 C   0  0  1  0  0  0  0  0  0  0  0  0
    8.1121  -12.6829   19.7167 C   0  0  0  0  0  0  0  0  0  0  0  0
    9.3347  -12.2601   18.4574 S   0  0  0  0  0  0  0  0  0  0  0  0
    7.5365  -14.5504   21.2331 C   0  0  0  0  0  0  0  0  0  0  0  0
    6.3149  -14.2814   21.4813 O   0  0  0  0  0  0  0  0  0  0  0  0
    8.2536  -15.2089   22.2531 N   0  0  0  0  0  0  0  0  0  0  0  0
    7.6359  -15.4945   23.5878 C   0  0  1  0  0  0  0  0  0  0  0  0
    7.5246  -16.9916   23.5746 C   0  0  0  0  0  0  0  0  0  0  0  0
    6.2240  -17.6188   23.3805 C   0  0  0  0  0  0  0  0  0  0  0  0
    6.3459  -19.1269   23.4998 C   0  0  0  0  0  0  0  0  0  0  0  0
    5.0346  -19.8420   23.2645 C   0  0  0  0  0  0  0  0  0  0  0  0
    5.2489  -21.2779   23.5157 N   0  0  0  0  0  0  0  0  0  0  0  0
    8.5508  -14.9231   24.5632 C   0  0  0  0  0  0  0  0  0  0  0  0
    9.8140  -14.8914   24.3954 O   0  0  0  0  0  0  0  0  0  0  0  0
    8.0925  -14.3583   25.7660 N   0  0  0  0  0  0  0  0  0  0  0  0
    6.6967  -14.2679   26.2330 C   0  0  0  0  0  0  0  0  0  0  0  0
    6.6606  -12.9146   26.8564 C   0  0  0  0  0  0  0  0  0  0  0  0
    8.0709  -12.5754   27.2333 C   0  0  0  0  0  0  0  0  0  0  0  0
    8.8704  -13.8033   26.8378 C   0  0  1  0  0  0  0  0  0  0  0  0
    8.8638  -14.7314   28.0228 C   0  0  0  0  0  0  0  0  0  0  0  0
    8.1229  -15.8871   27.9751 O   0  0  0  0  0  0  0  0  0  0  0  0
    9.5244  -14.4569   29.0417 O   0  0  0  0  0  0  0  0  0  0  0  0
  2  5  1  0
  2  1  1  6
  3  2  1  0
  4  3  1  0
  5  6  2  0
  7  8  1  0
  7  5  1  0
  9 10  1  0
  8  9  1  1
 10 11  1  0
 11 12  1  0
 13 12  1  0
 14 15  2  0
 14  8  1  0
 16 14  1  0
 17 16  1  0
 18 17  1  0
 18 19  1  0
 20 19  1  0
 20 16  1  0
 20 21  1  1
 21 22  1  0
 23 21  2  0
M  END
$$$$
