CKP.pdb
     RDKit          3D

 23 23  0  0  1  0  0  0  0  0999 V2000
    6.9686  -15.3951   19.2615 N   0  0  0  0  0  0  0  0  0  0  0  0
    7.7610  -14.6090   20.1740 C   0  0  1  0  0  0  0  0  0  0  0  0
    7.8060  -13.1478   19.7882 C   0  0  0  0  0  0  0  0  0  0  0  0
    8.8834  -12.9891   18.3481 S   0  0  0  0  0  0  0  0  0  0  0  0
    7.1903  -14.7738   21.5475 C   0  0  0  0  0  0  0  0  0  0  0  0
    6.0188  -14.3558   21.8289 O   0  0  0  0  0  0  0  0  0  0  0  0
    7.9042  -15.3918   22.5946 N   0  0  0  0  0  0  0  0  0  0  0  0
    7.3583  -15.4511   23.9886 C   0  0  1  0  0  0  0  0  0  0  0  0
    7.0590  -16.9130   24.1526 C   0  0  0  0  0  0  0  0  0  0  0  0
    6.4288  -17.6492   23.0646 C   0  0  0  0  0  0  0  0  0  0  0  0
    6.3610  -19.1274   23.4017 C   0  0  0  0  0  0  0  0  0  0  0  0
    5.7542  -19.9552   22.2913 C   0  0  0  0  0  0  0  0  0  0  0  0
    5.8322  -21.3723   22.6867 N   0  0  0  0  0  0  0  0  0  0  0  0
    8.4089  -14.9076   24.8347 C   0  0  0  0  0  0  0  0  0  0  0  0
    9.6425  -14.9358   24.5148 O   0  0  0  0  0  0  0  0  0  0  0  0
    8.1252  -14.3050   26.0725 N   0  0  0  0  0  0  0  0  0  0  0  0
    6.8261  -14.2698   26.7693 C   0  0  0  0  0  0  0  0  0  0  0  0
    6.8070  -12.8886   27.3293 C   0  0  0  0  0  0  0  0  0  0  0  0
    8.2352  -12.4487   27.4413 C   0  0  0  0  0  0  0  0  0  0  0  0
    9.0354  -13.6484   26.9681 C   0  0  1  0  0  0  0  0  0  0  0  0
    9.2915  -14.5090   28.1761 C   0  0  0  0  0  0  0  0  0  0  0  0
    8.6753  -15.7322   28.2805 O   0  0  0  0  0  0  0  0  0  0  0  0
   10.0564  -14.1182   29.0773 O   0  0  0  0  0  0  0  0  0  0  0  0
  2  5  1  0
  2  1  1  6
  3  2  1  0
  4  3  1  0
  5  6  2  0
  7  8  1  0
  7  5  1  0
  9 10  1  0
  8  9  1  1
 10 11  1  0
 11 12  1  0
 13 12  1  0
 14 15  2  0
 14  8  1  0
 16 14  1  0
 17 16  1  0
 18 17  1  0
 18 19  1  0
 20 19  1  0
 20 16  1  0
 20 21  1  1
 21 22  1  0
 23 21  2  0
M  END
$$$$
