CKP.pdb
     RDKit          3D

 23 23  0  0  1  0  0  0  0  0999 V2000
    6.4272  -14.6838   20.0257 N   0  0  0  0  0  0  0  0  0  0  0  0
    7.6804  -14.8531   20.7181 C   0  0  1  0  0  0  0  0  0  0  0  0
    8.6608  -13.7421   20.4172 C   0  0  0  0  0  0  0  0  0  0  0  0
    9.4962  -14.1462   18.8685 S   0  0  0  0  0  0  0  0  0  0  0  0
    7.3962  -14.9218   22.1857 C   0  0  0  0  0  0  0  0  0  0  0  0
    6.6938  -14.0278   22.7635 O   0  0  0  0  0  0  0  0  0  0  0  0
    7.8813  -15.9635   23.0027 N   0  0  0  0  0  0  0  0  0  0  0  0
    7.6162  -15.9931   24.4769 C   0  0  1  0  0  0  0  0  0  0  0  0
    7.2662  -17.4342   24.7098 C   0  0  0  0  0  0  0  0  0  0  0  0
    7.3264  -17.9848   26.0575 C   0  0  0  0  0  0  0  0  0  0  0  0
    6.9765  -19.4614   26.0369 C   0  0  0  0  0  0  0  0  0  0  0  0
    6.9184  -20.0700   27.4198 C   0  0  0  0  0  0  0  0  0  0  0  0
    6.3445  -21.4214   27.2976 N   0  0  0  0  0  0  0  0  0  0  0  0
    8.8432  -15.5178   25.0962 C   0  0  0  0  0  0  0  0  0  0  0  0
    9.9802  -15.5821   24.5236 O   0  0  0  0  0  0  0  0  0  0  0  0
    8.8512  -14.9460   26.3802 N   0  0  0  0  0  0  0  0  0  0  0  0
    7.7054  -14.7973   27.2965 C   0  0  0  0  0  0  0  0  0  0  0  0
    7.9480  -13.4507   27.8875 C   0  0  0  0  0  0  0  0  0  0  0  0
    9.4163  -13.1803   27.7568 C   0  0  0  0  0  0  0  0  0  0  0  0
    9.9740  -14.4390   27.1178 C   0  0  1  0  0  0  0  0  0  0  0  0
   10.3302  -15.3789   28.2383 C   0  0  0  0  0  0  0  0  0  0  0  0
   11.4215  -15.1100   29.0281 O   0  0  0  0  0  0  0  0  0  0  0  0
    9.6426  -16.3946   28.4512 O   0  0  0  0  0  0  0  0  0  0  0  0
  2  5  1  0
  2  1  1  6
  3  2  1  0
  4  3  1  0
  5  6  2  0
  7  8  1  0
  7  5  1  0
  9 10  1  0
  8  9  1  1
 10 11  1  0
 11 12  1  0
 13 12  1  0
 14 15  2  0
 14  8  1  0
 16 14  1  0
 17 16  1  0
 18 17  1  0
 18 19  1  0
 20 19  1  0
 20 16  1  0
 20 21  1  1
 21 22  1  0
 23 21  2  0
M  END
$$$$
