CKP.pdb
     RDKit          3D

 23 23  0  0  1  0  0  0  0  0999 V2000
    7.1476  -15.5287   19.1325 N   0  0  0  0  0  0  0  0  0  0  0  0
    7.8272  -14.6443   20.0460 C   0  0  1  0  0  0  0  0  0  0  0  0
    7.7274  -13.1948   19.6280 C   0  0  0  0  0  0  0  0  0  0  0  0
    8.9177  -12.9194   18.2988 S   0  0  0  0  0  0  0  0  0  0  0  0
    7.2402  -14.8413   21.4084 C   0  0  0  0  0  0  0  0  0  0  0  0
    5.9998  -14.6411   21.6269 O   0  0  0  0  0  0  0  0  0  0  0  0
    8.0132  -15.2535   22.5132 N   0  0  0  0  0  0  0  0  0  0  0  0
    7.4255  -15.3570   23.8874 C   0  0  1  0  0  0  0  0  0  0  0  0
    7.3852  -16.8415   24.1068 C   0  0  0  0  0  0  0  0  0  0  0  0
    6.6150  -17.6859   23.2031 C   0  0  0  0  0  0  0  0  0  0  0  0
    6.7510  -19.1435   23.6034 C   0  0  0  0  0  0  0  0  0  0  0  0
    6.1173  -20.0874   22.6064 C   0  0  0  0  0  0  0  0  0  0  0  0
    6.3071  -21.4628   23.0992 N   0  0  0  0  0  0  0  0  0  0  0  0
    8.3237  -14.6010   24.7458 C   0  0  0  0  0  0  0  0  0  0  0  0
    9.5596  -14.4342   24.4824 O   0  0  0  0  0  0  0  0  0  0  0  0
    7.8777  -13.9951   25.9332 N   0  0  0  0  0  0  0  0  0  0  0  0
    6.5075  -14.0045   26.4781 C   0  0  0  0  0  0  0  0  0  0  0  0
    6.3705  -12.6184   27.0086 C   0  0  0  0  0  0  0  0  0  0  0  0
    7.7583  -12.1187   27.2736 C   0  0  0  0  0  0  0  0  0  0  0  0
    8.6537  -13.2904   26.9145 C   0  0  1  0  0  0  0  0  0  0  0  0
    8.8047  -14.1245   28.1583 C   0  0  0  0  0  0  0  0  0  0  0  0
    8.1610  -15.3347   28.2457 O   0  0  0  0  0  0  0  0  0  0  0  0
    9.5078  -13.7234   29.1043 O   0  0  0  0  0  0  0  0  0  0  0  0
  2  5  1  0
  2  1  1  6
  3  2  1  0
  4  3  1  0
  5  6  2  0
  7  8  1  0
  7  5  1  0
  9 10  1  0
  8  9  1  1
 10 11  1  0
 11 12  1  0
 13 12  1  0
 14 15  2  0
 14  8  1  0
 16 14  1  0
 17 16  1  0
 18 17  1  0
 18 19  1  0
 20 19  1  0
 20 16  1  0
 20 21  1  1
 21 22  1  0
 23 21  2  0
M  END
$$$$
