CKP.pdb
     RDKit          3D

 23 23  0  0  1  0  0  0  0  0999 V2000
    6.2001  -16.1017   19.6800 N   0  0  0  0  0  0  0  0  0  0  0  0
    7.3518  -15.6046   20.3909 C   0  0  1  0  0  0  0  0  0  0  0  0
    7.8435  -14.2845   19.8419 C   0  0  0  0  0  0  0  0  0  0  0  0
    9.3468  -13.8389   20.7371 S   0  0  0  0  0  0  0  0  0  0  0  0
    6.9853  -15.4707   21.8356 C   0  0  0  0  0  0  0  0  0  0  0  0
    5.9654  -14.7956   22.1969 O   0  0  0  0  0  0  0  0  0  0  0  0
    7.7352  -16.0743   22.8658 N   0  0  0  0  0  0  0  0  0  0  0  0
    7.3203  -15.9721   24.3017 C   0  0  1  0  0  0  0  0  0  0  0  0
    7.2618  -17.4125   24.7207 C   0  0  0  0  0  0  0  0  0  0  0  0
    7.1770  -17.7518   26.1351 C   0  0  0  0  0  0  0  0  0  0  0  0
    7.2124  -19.2583   26.3161 C   0  0  0  0  0  0  0  0  0  0  0  0
    6.9406  -19.6846   27.7411 C   0  0  0  0  0  0  0  0  0  0  0  0
    6.9096  -21.1572   27.7766 N   0  0  0  0  0  0  0  0  0  0  0  0
    8.3414  -15.1550   24.9380 C   0  0  0  0  0  0  0  0  0  0  0  0
    9.5351  -15.0689   24.4994 O   0  0  0  0  0  0  0  0  0  0  0  0
    8.0705  -14.3953   26.0892 N   0  0  0  0  0  0  0  0  0  0  0  0
    6.7908  -14.3050   26.8164 C   0  0  0  0  0  0  0  0  0  0  0  0
    6.7372  -12.8606   27.1804 C   0  0  0  0  0  0  0  0  0  0  0  0
    8.1512  -12.3638   27.1840 C   0  0  0  0  0  0  0  0  0  0  0  0
    8.9808  -13.5915   26.8554 C   0  0  1  0  0  0  0  0  0  0  0  0
    9.3014  -14.2668   28.1618 C   0  0  0  0  0  0  0  0  0  0  0  0
   10.2418  -13.7154   28.9976 O   0  0  0  0  0  0  0  0  0  0  0  0
    8.7201  -15.3188   28.4866 O   0  0  0  0  0  0  0  0  0  0  0  0
  2  5  1  0
  2  1  1  6
  3  2  1  0
  4  3  1  0
  5  6  2  0
  7  8  1  0
  7  5  1  0
  9 10  1  0
  8  9  1  1
 10 11  1  0
 11 12  1  0
 13 12  1  0
 14 15  2  0
 14  8  1  0
 16 14  1  0
 17 16  1  0
 18 17  1  0
 18 19  1  0
 20 19  1  0
 20 16  1  0
 20 21  1  1
 21 22  1  0
 23 21  2  0
M  END
$$$$
