CKP.pdb
     RDKit          3D

 23 23  0  0  1  0  0  0  0  0999 V2000
    7.3982  -14.8423   18.8020 N   0  0  0  0  0  0  0  0  0  0  0  0
    8.3998  -14.8656   19.8388 C   0  0  1  0  0  0  0  0  0  0  0  0
    9.3953  -13.7355   19.7051 C   0  0  0  0  0  0  0  0  0  0  0  0
    8.4665  -12.1927   19.5765 S   0  0  0  0  0  0  0  0  0  0  0  0
    7.7028  -14.7999   21.1613 C   0  0  0  0  0  0  0  0  0  0  0  0
    6.6313  -14.1240   21.3087 O   0  0  0  0  0  0  0  0  0  0  0  0
    8.1831  -15.4714   22.3043 N   0  0  0  0  0  0  0  0  0  0  0  0
    7.4296  -15.4545   23.5991 C   0  0  1  0  0  0  0  0  0  0  0  0
    7.1782  -16.9145   23.8416 C   0  0  0  0  0  0  0  0  0  0  0  0
    6.2068  -17.6274   23.0225 C   0  0  0  0  0  0  0  0  0  0  0  0
    6.2299  -19.1088   23.3515 C   0  0  0  0  0  0  0  0  0  0  0  0
    5.2652  -19.9121   22.5087 C   0  0  0  0  0  0  0  0  0  0  0  0
    5.3528  -21.3197   22.9351 N   0  0  0  0  0  0  0  0  0  0  0  0
    8.3081  -14.7842   24.5445 C   0  0  0  0  0  0  0  0  0  0  0  0
    9.5715  -14.7150   24.3899 O   0  0  0  0  0  0  0  0  0  0  0  0
    7.8115  -14.1583   25.7010 N   0  0  0  0  0  0  0  0  0  0  0  0
    6.4173  -14.1510   26.1813 C   0  0  0  0  0  0  0  0  0  0  0  0
    6.2656  -12.7565   26.6852 C   0  0  0  0  0  0  0  0  0  0  0  0
    7.6432  -12.2621   27.0079 C   0  0  0  0  0  0  0  0  0  0  0  0
    8.5459  -13.4446   26.7076 C   0  0  1  0  0  0  0  0  0  0  0  0
    8.6326  -14.2617   27.9687 C   0  0  0  0  0  0  0  0  0  0  0  0
    9.4213  -13.8267   29.0058 O   0  0  0  0  0  0  0  0  0  0  0  0
    7.9950  -15.3257   28.0752 O   0  0  0  0  0  0  0  0  0  0  0  0
  2  5  1  0
  2  1  1  6
  3  2  1  0
  4  3  1  0
  5  6  2  0
  7  8  1  0
  7  5  1  0
  9 10  1  0
  8  9  1  1
 10 11  1  0
 11 12  1  0
 13 12  1  0
 14 15  2  0
 14  8  1  0
 16 14  1  0
 17 16  1  0
 18 17  1  0
 18 19  1  0
 20 19  1  0
 20 16  1  0
 20 21  1  1
 21 22  1  0
 23 21  2  0
M  END
$$$$
