CKP.pdb
     RDKit          3D

 23 23  0  0  1  0  0  0  0  0999 V2000
    5.0492  -12.8962   26.4085 N   0  0  0  0  0  0  0  0  0  0  0  0
    6.2880  -12.6437   25.7155 C   0  0  1  0  0  0  0  0  0  0  0  0
    7.2993  -11.9288   26.5827 C   0  0  0  0  0  0  0  0  0  0  0  0
    6.7140  -10.2399   26.8370 S   0  0  0  0  0  0  0  0  0  0  0  0
    6.8328  -13.9548   25.2427 C   0  0  0  0  0  0  0  0  0  0  0  0
    6.8176  -14.9846   25.9948 O   0  0  0  0  0  0  0  0  0  0  0  0
    7.3862  -14.1251   23.9571 N   0  0  0  0  0  0  0  0  0  0  0  0
    7.9591  -15.4376   23.5168 C   0  0  1  0  0  0  0  0  0  0  0  0
    7.8256  -15.3597   22.0235 C   0  0  0  0  0  0  0  0  0  0  0  0
    8.3796  -16.4195   21.1913 C   0  0  0  0  0  0  0  0  0  0  0  0
    8.3606  -16.0043   19.7317 C   0  0  0  0  0  0  0  0  0  0  0  0
    8.9516  -17.0522   18.8158 C   0  0  0  0  0  0  0  0  0  0  0  0
    9.0028  -16.4894   17.4551 N   0  0  0  0  0  0  0  0  0  0  0  0
    9.3143  -15.4600   24.0441 C   0  0  0  0  0  0  0  0  0  0  0  0
   10.0029  -14.4044   24.2345 O   0  0  0  0  0  0  0  0  0  0  0  0
    9.9560  -16.6630   24.3858 N   0  0  0  0  0  0  0  0  0  0  0  0
    9.4738  -18.0333   24.1320 C   0  0  0  0  0  0  0  0  0  0  0  0
    9.8656  -18.7414   25.3837 C   0  0  0  0  0  0  0  0  0  0  0  0
   10.9998  -17.9654   25.9814 C   0  0  0  0  0  0  0  0  0  0  0  0
   11.2445  -16.8386   24.9945 C   0  0  1  0  0  0  0  0  0  0  0  0
   12.2350  -17.3491   23.9826 C   0  0  0  0  0  0  0  0  0  0  0  0
   13.5717  -17.3795   24.2975 O   0  0  0  0  0  0  0  0  0  0  0  0
   11.8491  -17.7424   22.8662 O   0  0  0  0  0  0  0  0  0  0  0  0
  2  5  1  0
  2  1  1  1
  3  2  1  0
  4  3  1  0
  5  6  2  0
  7  8  1  0
  7  5  1  0
  9 10  1  0
  8  9  1  6
 10 11  1  0
 11 12  1  0
 13 12  1  0
 14 15  2  0
 14  8  1  0
 16 14  1  0
 17 16  1  0
 18 17  1  0
 18 19  1  0
 20 19  1  0
 20 16  1  0
 20 21  1  6
 21 22  1  0
 23 21  2  0
M  END
$$$$
