CKP.pdb
     RDKit          3D

 23 23  0  0  1  0  0  0  0  0999 V2000
    7.5270  -15.9969   18.9719 N   0  0  0  0  0  0  0  0  0  0  0  0
    8.4112  -15.5447   20.0170 C   0  0  1  0  0  0  0  0  0  0  0  0
    9.1709  -14.2959   19.6304 C   0  0  0  0  0  0  0  0  0  0  0  0
    7.9680  -12.9744   19.3733 S   0  0  0  0  0  0  0  0  0  0  0  0
    7.5937  -15.3044   21.2472 C   0  0  0  0  0  0  0  0  0  0  0  0
    6.4678  -14.7087   21.1843 O   0  0  0  0  0  0  0  0  0  0  0  0
    8.0147  -15.7165   22.5282 N   0  0  0  0  0  0  0  0  0  0  0  0
    7.2054  -15.4196   23.7535 C   0  0  1  0  0  0  0  0  0  0  0  0
    6.8060  -16.7919   24.2129 C   0  0  0  0  0  0  0  0  0  0  0  0
    7.8323  -17.7633   24.5679 C   0  0  0  0  0  0  0  0  0  0  0  0
    7.1910  -19.0454   25.0661 C   0  0  0  0  0  0  0  0  0  0  0  0
    8.2059  -20.0994   25.4475 C   0  0  0  0  0  0  0  0  0  0  0  0
    7.4775  -21.2456   26.0189 N   0  0  0  0  0  0  0  0  0  0  0  0
    8.0972  -14.6784   24.6311 C   0  0  0  0  0  0  0  0  0  0  0  0
    9.3581  -14.6218   24.4529 O   0  0  0  0  0  0  0  0  0  0  0  0
    7.6172  -13.9647   25.7429 N   0  0  0  0  0  0  0  0  0  0  0  0
    6.2115  -13.8010   26.1574 C   0  0  0  0  0  0  0  0  0  0  0  0
    6.1803  -12.3810   26.6093 C   0  0  0  0  0  0  0  0  0  0  0  0
    7.5856  -12.0151   26.9798 C   0  0  0  0  0  0  0  0  0  0  0  0
    8.3761  -13.2918   26.7594 C   0  0  1  0  0  0  0  0  0  0  0  0
    8.3253  -14.0673   28.0485 C   0  0  0  0  0  0  0  0  0  0  0  0
    7.5941  -15.2283   28.1132 O   0  0  0  0  0  0  0  0  0  0  0  0
    8.9408  -13.6622   29.0520 O   0  0  0  0  0  0  0  0  0  0  0  0
  2  5  1  0
  2  1  1  6
  3  2  1  0
  4  3  1  0
  5  6  2  0
  7  8  1  0
  7  5  1  0
  9 10  1  0
  8  9  1  1
 10 11  1  0
 11 12  1  0
 13 12  1  0
 14 15  2  0
 14  8  1  0
 16 14  1  0
 17 16  1  0
 18 17  1  0
 18 19  1  0
 20 19  1  0
 20 16  1  0
 20 21  1  1
 21 22  1  0
 23 21  2  0
M  END
$$$$
