YER.pdb
     RDKit          3D

 33 33  0  0  1  0  0  0  0  0999 V2000
    7.7699  -12.0508   27.9830 O   0  0  0  0  0  0  0  0  0  0  0  0
    7.3003  -12.7324   26.8584 C   0  0  0  0  0  0  0  0  0  0  0  0
    7.7962  -13.9615   26.5531 C   0  0  0  0  0  0  0  0  0  0  0  0
    7.3521  -14.6543   25.4524 C   0  0  0  0  0  0  0  0  0  0  0  0
    6.3818  -14.0935   24.6371 C   0  0  0  0  0  0  0  0  0  0  0  0
    5.8634  -14.7958   23.4376 C   0  0  0  0  0  0  0  0  0  0  0  0
    6.6226  -16.0947   23.2207 C   0  0  2  0  0  0  0  0  0  0  0  0
    7.5652  -16.2836   24.3054 N   0  0  0  0  0  0  0  0  0  0  0  0
    7.3480  -16.0499   21.9032 C   0  0  0  0  0  0  0  0  0  0  0  0
    6.8848  -16.6711   20.9283 O   0  0  0  0  0  0  0  0  0  0  0  0
    5.9004  -12.8593   24.9651 C   0  0  0  0  0  0  0  0  0  0  0  0
    6.3348  -12.1497   26.0664 C   0  0  0  0  0  0  0  0  0  0  0  0
    8.5369  -15.3205   21.7567 N   0  0  0  0  0  0  0  0  0  0  0  0
    9.3310  -15.2869   20.5152 C   0  0  1  0  0  0  0  0  0  0  0  0
    9.0360  -14.0067   19.8183 C   0  0  0  0  0  0  0  0  0  0  0  0
    7.8131  -14.1235   18.9757 C   0  0  0  0  0  0  0  0  0  0  0  0
    8.1690  -13.8526   17.5552 C   0  0  0  0  0  0  0  0  0  0  0  0
    7.2789  -13.9299   16.6754 O   0  0  0  0  0  0  0  0  0  0  0  0
   10.7373  -15.4781   20.9243 C   0  0  0  0  0  0  0  0  0  0  0  0
   11.6804  -14.7164   20.5238 O   0  0  0  0  0  0  0  0  0  0  0  0
    9.4818  -13.5165   17.2142 O   0  0  0  0  0  0  0  0  0  0  0  0
   12.9992  -19.2768   28.1026 N   0  0  0  0  0  0  0  0  0  0  0  0
   11.7369  -18.8166   28.5607 C   0  0  0  0  0  0  0  0  0  0  0  0
   11.2313  -19.2942   29.6445 N   0  0  0  0  0  0  0  0  0  0  0  0
   11.0544  -17.8241   27.7948 N   0  0  0  0  0  0  0  0  0  0  0  0
   10.7708  -18.1772   26.3815 C   0  0  0  0  0  0  0  0  0  0  0  0
   11.4730  -17.2523   25.4653 C   0  0  0  0  0  0  0  0  0  0  0  0
   11.1104  -17.1233   24.0678 C   0  0  0  0  0  0  0  0  0  0  0  0
   11.7778  -16.2070   23.1200 C   0  0  2  0  0  0  0  0  0  0  0  0
   11.1088  -16.5325   21.7931 N   0  0  0  0  0  0  0  0  0  0  0  0
   13.1858  -16.6387   22.8682 C   0  0  0  0  0  0  0  0  0  0  0  0
   14.3166  -16.1755   23.4762 O   0  0  0  0  0  0  0  0  0  0  0  0
   13.3699  -17.5431   21.9812 O   0  0  0  0  0  0  0  0  0  0  0  0
  2  1  1  0
  3  2  2  0
  4  3  1  0
  5 11  1  0
  5  4  2  0
  6  5  1  0
  7  6  1  0
  7  8  1  1
  9  7  1  0
  9 13  1  0
 10  9  2  0
 11 12  2  0
 12  2  1  0
 14 15  1  1
 14 13  1  0
 16 17  1  0
 16 15  1  0
 17 21  1  0
 18 17  2  0
 19 14  1  0
 20 19  2  0
 23 24  2  0
 23 22  1  0
 25 23  1  0
 26 25  1  0
 26 27  1  0
 27 28  1  0
 29 28  1  1
 29 30  1  0
 30 19  1  0
 31 32  1  0
 31 29  1  0
 33 31  2  0
M  END
$$$$
