YER.pdb
     RDKit          3D

 33 33  0  0  1  0  0  0  0  0999 V2000
    7.1888  -11.9393   17.4598 O   0  0  0  0  0  0  0  0  0  0  0  0
    7.5977  -12.7994   18.4811 C   0  0  0  0  0  0  0  0  0  0  0  0
    8.9229  -12.9702   18.7352 C   0  0  0  0  0  0  0  0  0  0  0  0
    9.3529  -13.8104   19.7341 C   0  0  0  0  0  0  0  0  0  0  0  0
    8.4226  -14.4972   20.4978 C   0  0  0  0  0  0  0  0  0  0  0  0
    8.8285  -15.4155   21.5899 C   0  0  0  0  0  0  0  0  0  0  0  0
    9.6060  -16.5929   21.0242 C   0  0  2  0  0  0  0  0  0  0  0  0
    8.7360  -17.3705   20.1644 N   0  0  0  0  0  0  0  0  0  0  0  0
   10.1281  -17.4484   22.1465 C   0  0  0  0  0  0  0  0  0  0  0  0
    9.3296  -18.1198   22.8265 O   0  0  0  0  0  0  0  0  0  0  0  0
    7.0991  -14.3086   20.2230 C   0  0  0  0  0  0  0  0  0  0  0  0
    6.6496  -13.4689   19.2240 C   0  0  0  0  0  0  0  0  0  0  0  0
   11.4989  -17.5004   22.4386 N   0  0  0  0  0  0  0  0  0  0  0  0
   12.0520  -18.0734   23.6791 C   0  0  1  0  0  0  0  0  0  0  0  0
   13.5083  -18.2926   23.4719 C   0  0  0  0  0  0  0  0  0  0  0  0
   13.7535  -19.2603   22.3663 C   0  0  0  0  0  0  0  0  0  0  0  0
   15.2057  -19.2699   22.0366 C   0  0  0  0  0  0  0  0  0  0  0  0
   15.5606  -19.3292   20.8354 O   0  0  0  0  0  0  0  0  0  0  0  0
   11.6990  -17.1287   24.7583 C   0  0  0  0  0  0  0  0  0  0  0  0
   11.7333  -15.8619   24.6028 O   0  0  0  0  0  0  0  0  0  0  0  0
   16.1563  -19.2133   23.0593 O   0  0  0  0  0  0  0  0  0  0  0  0
    6.0502  -12.5174   25.1932 N   0  0  0  0  0  0  0  0  0  0  0  0
    6.1760  -12.4763   26.6065 C   0  0  0  0  0  0  0  0  0  0  0  0
    5.7354  -11.4602   27.2637 N   0  0  0  0  0  0  0  0  0  0  0  0
    6.7974  -13.5783   27.2676 N   0  0  0  0  0  0  0  0  0  0  0  0
    7.4882  -14.5553   26.3896 C   0  0  0  0  0  0  0  0  0  0  0  0
    8.6117  -15.1943   27.1087 C   0  0  0  0  0  0  0  0  0  0  0  0
    9.5246  -16.1132   26.4582 C   0  0  0  0  0  0  0  0  0  0  0  0
   10.7818  -16.5996   27.0635 C   0  0  2  0  0  0  0  0  0  0  0  0
   11.3006  -17.5932   26.0350 N   0  0  0  0  0  0  0  0  0  0  0  0
   10.4987  -17.4865   28.2320 C   0  0  0  0  0  0  0  0  0  0  0  0
   10.5321  -17.1516   29.5547 O   0  0  0  0  0  0  0  0  0  0  0  0
   10.1919  -18.7037   27.9809 O   0  0  0  0  0  0  0  0  0  0  0  0
  2  1  1  0
  3  2  2  0
  4  3  1  0
  5 11  1  0
  5  4  2  0
  6  5  1  0
  7  6  1  0
  7  8  1  6
  9  7  1  0
  9 13  1  0
 10  9  2  0
 11 12  2  0
 12  2  1  0
 14 15  1  6
 14 13  1  0
 16 17  1  0
 16 15  1  0
 17 21  1  0
 18 17  2  0
 19 14  1  0
 20 19  2  0
 23 24  2  0
 23 22  1  0
 25 23  1  0
 26 25  1  0
 26 27  1  0
 27 28  1  0
 29 28  1  6
 29 30  1  0
 30 19  1  0
 31 32  1  0
 31 29  1  0
 33 31  2  0
M  END
$$$$
