YER.pdb
     RDKit          3D

 33 33  0  0  1  0  0  0  0  0999 V2000
    6.9843  -11.7207   17.6839 O   0  0  0  0  0  0  0  0  0  0  0  0
    7.5368  -12.6312   18.5870 C   0  0  0  0  0  0  0  0  0  0  0  0
    8.8860  -12.7907   18.6508 C   0  0  0  0  0  0  0  0  0  0  0  0
    9.4563  -13.6797   19.5300 C   0  0  0  0  0  0  0  0  0  0  0  0
    8.6452  -14.4284   20.3679 C   0  0  0  0  0  0  0  0  0  0  0  0
    9.2050  -15.4013   21.3379 C   0  0  0  0  0  0  0  0  0  0  0  0
    9.4781  -16.7295   20.6510 C   0  0  2  0  0  0  0  0  0  0  0  0
    8.2198  -17.3293   20.2539 N   0  0  0  0  0  0  0  0  0  0  0  0
   10.2193  -17.6465   21.5859 C   0  0  0  0  0  0  0  0  0  0  0  0
    9.5774  -18.4225   22.3184 O   0  0  0  0  0  0  0  0  0  0  0  0
    7.2947  -14.2499   20.2846 C   0  0  0  0  0  0  0  0  0  0  0  0
    6.7052  -13.3618   19.4077 C   0  0  0  0  0  0  0  0  0  0  0  0
   11.6205  -17.6399   21.6454 N   0  0  0  0  0  0  0  0  0  0  0  0
   12.3946  -18.1207   22.8042 C   0  0  1  0  0  0  0  0  0  0  0  0
   13.8387  -18.0161   22.4646 C   0  0  0  0  0  0  0  0  0  0  0  0
   14.6913  -18.4650   23.6007 C   0  0  0  0  0  0  0  0  0  0  0  0
   16.1241  -18.2671   23.2461 C   0  0  0  0  0  0  0  0  0  0  0  0
   16.7189  -17.2402   23.6510 O   0  0  0  0  0  0  0  0  0  0  0  0
   11.9525  -17.3086   23.9561 C   0  0  0  0  0  0  0  0  0  0  0  0
   12.1962  -16.0590   24.0514 O   0  0  0  0  0  0  0  0  0  0  0  0
   16.7915  -19.2190   22.4708 O   0  0  0  0  0  0  0  0  0  0  0  0
    5.4968  -13.4296   25.4050 N   0  0  0  0  0  0  0  0  0  0  0  0
    6.5142  -12.9975   26.2956 C   0  0  0  0  0  0  0  0  0  0  0  0
    6.5993  -11.7549   26.6229 N   0  0  0  0  0  0  0  0  0  0  0  0
    7.4272  -13.9671   26.8092 N   0  0  0  0  0  0  0  0  0  0  0  0
    7.3195  -15.3295   26.2304 C   0  0  0  0  0  0  0  0  0  0  0  0
    8.3613  -16.2157   26.7938 C   0  0  0  0  0  0  0  0  0  0  0  0
    9.2789  -16.9619   25.9559 C   0  0  0  0  0  0  0  0  0  0  0  0
   10.7410  -17.0073   26.1644 C   0  0  2  0  0  0  0  0  0  0  0  0
   11.2271  -17.8894   25.0243 N   0  0  0  0  0  0  0  0  0  0  0  0
   11.0800  -17.8362   27.3603 C   0  0  0  0  0  0  0  0  0  0  0  0
   11.6028  -19.0969   27.3743 O   0  0  0  0  0  0  0  0  0  0  0  0
   10.8571  -17.3209   28.5107 O   0  0  0  0  0  0  0  0  0  0  0  0
  2  1  1  0
  3  2  2  0
  4  3  1  0
  5 11  1  0
  5  4  2  0
  6  5  1  0
  7  6  1  0
  7  8  1  1
  9  7  1  0
  9 13  1  0
 10  9  2  0
 11 12  2  0
 12  2  1  0
 14 15  1  6
 14 13  1  0
 16 17  1  0
 16 15  1  0
 17 21  1  0
 18 17  2  0
 19 14  1  0
 20 19  2  0
 23 24  2  0
 23 22  1  0
 25 23  1  0
 26 25  1  0
 26 27  1  0
 27 28  1  0
 29 28  1  6
 29 30  1  0
 30 19  1  0
 31 32  1  0
 31 29  1  0
 33 31  2  0
M  END
$$$$
