YER.pdb
     RDKit          3D

 33 33  0  0  1  0  0  0  0  0999 V2000
    7.0683  -12.0836   17.6265 O   0  0  0  0  0  0  0  0  0  0  0  0
    7.5420  -12.8826   18.6691 C   0  0  0  0  0  0  0  0  0  0  0  0
    8.8423  -13.2815   18.6821 C   0  0  0  0  0  0  0  0  0  0  0  0
    9.3347  -14.0680   19.6957 C   0  0  0  0  0  0  0  0  0  0  0  0
    8.4944  -14.4636   20.7243 C   0  0  0  0  0  0  0  0  0  0  0  0
    8.9712  -15.3104   21.8451 C   0  0  0  0  0  0  0  0  0  0  0  0
    9.4221  -16.6655   21.3243 C   0  0  2  0  0  0  0  0  0  0  0  0
    8.2749  -17.3832   20.8052 N   0  0  0  0  0  0  0  0  0  0  0  0
   10.0688  -17.4507   22.4331 C   0  0  0  0  0  0  0  0  0  0  0  0
    9.3694  -18.1986   23.1418 O   0  0  0  0  0  0  0  0  0  0  0  0
    7.1942  -14.0501   20.6882 C   0  0  0  0  0  0  0  0  0  0  0  0
    6.6830  -13.2601   19.6784 C   0  0  0  0  0  0  0  0  0  0  0  0
   11.4458  -17.3527   22.6807 N   0  0  0  0  0  0  0  0  0  0  0  0
   12.1343  -18.0576   23.7771 C   0  0  1  0  0  0  0  0  0  0  0  0
   13.5895  -18.0695   23.4705 C   0  0  0  0  0  0  0  0  0  0  0  0
   14.3591  -18.7551   24.5460 C   0  0  0  0  0  0  0  0  0  0  0  0
   15.8092  -18.7216   24.2083 C   0  0  0  0  0  0  0  0  0  0  0  0
   16.6257  -18.2904   25.0567 O   0  0  0  0  0  0  0  0  0  0  0  0
   11.7523  -17.3543   25.0185 C   0  0  0  0  0  0  0  0  0  0  0  0
   11.8207  -16.0851   25.1395 O   0  0  0  0  0  0  0  0  0  0  0  0
   16.2476  -19.1670   22.9584 O   0  0  0  0  0  0  0  0  0  0  0  0
    7.3393  -13.0290   24.5522 N   0  0  0  0  0  0  0  0  0  0  0  0
    6.9079  -12.9816   25.9037 C   0  0  0  0  0  0  0  0  0  0  0  0
    6.7816  -11.8476   26.5007 N   0  0  0  0  0  0  0  0  0  0  0  0
    6.6233  -14.2106   26.5717 N   0  0  0  0  0  0  0  0  0  0  0  0
    7.2709  -15.4207   26.0068 C   0  0  0  0  0  0  0  0  0  0  0  0
    8.4335  -15.8185   26.8303 C   0  0  0  0  0  0  0  0  0  0  0  0
    9.2322  -16.9895   26.5275 C   0  0  0  0  0  0  0  0  0  0  0  0
   10.4912  -17.3352   27.2194 C   0  0  2  0  0  0  0  0  0  0  0  0
   11.2859  -18.0678   26.1489 N   0  0  0  0  0  0  0  0  0  0  0  0
   10.2630  -18.4155   28.2260 C   0  0  0  0  0  0  0  0  0  0  0  0
   10.4605  -19.7561   28.0629 O   0  0  0  0  0  0  0  0  0  0  0  0
    9.8292  -18.0599   29.3767 O   0  0  0  0  0  0  0  0  0  0  0  0
  2  1  1  0
  3  2  2  0
  4  3  1  0
  5 11  1  0
  5  4  2  0
  6  5  1  0
  7  6  1  0
  7  8  1  1
  9  7  1  0
  9 13  1  0
 10  9  2  0
 11 12  2  0
 12  2  1  0
 14 15  1  6
 14 13  1  0
 16 17  1  0
 16 15  1  0
 17 21  1  0
 18 17  2  0
 19 14  1  0
 20 19  2  0
 23 24  2  0
 23 22  1  0
 25 23  1  0
 26 25  1  0
 26 27  1  0
 27 28  1  0
 29 28  1  6
 29 30  1  0
 30 19  1  0
 31 32  1  0
 31 29  1  0
 33 31  2  0
M  END
$$$$
