YER.pdb
     RDKit          3D

 33 33  0  0  1  0  0  0  0  0999 V2000
    6.0057  -14.6058   17.1687 O   0  0  0  0  0  0  0  0  0  0  0  0
    6.9873  -14.0748   18.0079 C   0  0  0  0  0  0  0  0  0  0  0  0
    6.6919  -13.7935   19.3054 C   0  0  0  0  0  0  0  0  0  0  0  0
    7.6387  -13.2704   20.1530 C   0  0  0  0  0  0  0  0  0  0  0  0
    8.9180  -13.0238   19.6807 C   0  0  0  0  0  0  0  0  0  0  0  0
    9.9807  -12.4622   20.5501 C   0  0  0  0  0  0  0  0  0  0  0  0
   11.2078  -13.3589   20.5255 C   0  0  2  0  0  0  0  0  0  0  0  0
   11.8015  -13.3193   19.2038 N   0  0  0  0  0  0  0  0  0  0  0  0
   10.8188  -14.7688   20.8789 C   0  0  0  0  0  0  0  0  0  0  0  0
   10.1161  -14.9755   21.8860 O   0  0  0  0  0  0  0  0  0  0  0  0
    9.1892  -13.3147   18.3750 C   0  0  0  0  0  0  0  0  0  0  0  0
    8.2508  -13.8404   17.5101 C   0  0  0  0  0  0  0  0  0  0  0  0
   11.2357  -15.8527   20.0925 N   0  0  0  0  0  0  0  0  0  0  0  0
   10.9038  -17.2579   20.3903 C   0  0  1  0  0  0  0  0  0  0  0  0
   11.0913  -18.0461   19.1433 C   0  0  0  0  0  0  0  0  0  0  0  0
   10.8714  -19.4990   19.3883 C   0  0  0  0  0  0  0  0  0  0  0  0
   11.0056  -20.2385   18.1028 C   0  0  0  0  0  0  0  0  0  0  0  0
   11.3483  -19.6148   17.0703 O   0  0  0  0  0  0  0  0  0  0  0  0
   11.7648  -17.6494   21.5248 C   0  0  0  0  0  0  0  0  0  0  0  0
   12.9110  -17.1265   21.7316 O   0  0  0  0  0  0  0  0  0  0  0  0
   10.7510  -21.6117   18.0550 O   0  0  0  0  0  0  0  0  0  0  0  0
    8.6715  -13.9443   27.5672 N   0  0  0  0  0  0  0  0  0  0  0  0
    9.6235  -14.6338   28.3629 C   0  0  0  0  0  0  0  0  0  0  0  0
    9.8117  -14.2867   29.5887 N   0  0  0  0  0  0  0  0  0  0  0  0
   10.3560  -15.7072   27.7721 N   0  0  0  0  0  0  0  0  0  0  0  0
   10.2176  -15.8544   26.3018 C   0  0  0  0  0  0  0  0  0  0  0  0
   10.9844  -17.0256   25.8239 C   0  0  0  0  0  0  0  0  0  0  0  0
   10.9997  -17.4247   24.4305 C   0  0  0  0  0  0  0  0  0  0  0  0
   11.8040  -18.5442   23.8982 C   0  0  2  0  0  0  0  0  0  0  0  0
   11.3509  -18.6388   22.4491 N   0  0  0  0  0  0  0  0  0  0  0  0
   11.3305  -19.8478   24.4539 C   0  0  0  0  0  0  0  0  0  0  0  0
   11.9013  -20.5786   25.4553 O   0  0  0  0  0  0  0  0  0  0  0  0
   10.2720  -20.3520   23.9401 O   0  0  0  0  0  0  0  0  0  0  0  0
  2  1  1  0
  3  2  2  0
  4  3  1  0
  5 11  1  0
  5  4  2  0
  6  5  1  0
  7  6  1  0
  7  8  1  6
  9  7  1  0
  9 13  1  0
 10  9  2  0
 11 12  2  0
 12  2  1  0
 14 15  1  6
 14 13  1  0
 16 17  1  0
 16 15  1  0
 17 21  1  0
 18 17  2  0
 19 14  1  0
 20 19  2  0
 23 24  2  0
 23 22  1  0
 25 23  1  0
 26 25  1  0
 26 27  1  0
 27 28  1  0
 29 28  1  1
 29 30  1  0
 30 19  1  0
 31 32  1  0
 31 29  1  0
 33 31  2  0
M  END
$$$$
