YER.pdb
     RDKit          3D

 33 33  0  0  1  0  0  0  0  0999 V2000
    8.3728  -14.2329   16.8523 O   0  0  0  0  0  0  0  0  0  0  0  0
    7.9418  -14.1987   18.1801 C   0  0  0  0  0  0  0  0  0  0  0  0
    7.3833  -15.3045   18.7415 C   0  0  0  0  0  0  0  0  0  0  0  0
    6.9505  -15.2985   20.0458 C   0  0  0  0  0  0  0  0  0  0  0  0
    7.0839  -14.1470   20.8053 C   0  0  0  0  0  0  0  0  0  0  0  0
    6.6366  -14.0831   22.2183 C   0  0  0  0  0  0  0  0  0  0  0  0
    7.8313  -14.1864   23.1524 C   0  0  2  0  0  0  0  0  0  0  0  0
    8.8578  -13.2595   22.7189 N   0  0  0  0  0  0  0  0  0  0  0  0
    8.3650  -15.5933   23.1472 C   0  0  0  0  0  0  0  0  0  0  0  0
    7.6291  -16.5282   23.5147 O   0  0  0  0  0  0  0  0  0  0  0  0
    7.6475  -13.0510   20.2189 C   0  0  0  0  0  0  0  0  0  0  0  0
    8.0876  -13.0394   18.9108 C   0  0  0  0  0  0  0  0  0  0  0  0
    9.6777  -15.8672   22.7361 N   0  0  0  0  0  0  0  0  0  0  0  0
   10.2837  -17.2107   22.7680 C   0  0  1  0  0  0  0  0  0  0  0  0
   11.0056  -17.4172   21.4843 C   0  0  0  0  0  0  0  0  0  0  0  0
   11.5567  -18.7983   21.3945 C   0  0  0  0  0  0  0  0  0  0  0  0
   12.2464  -18.9664   20.0854 C   0  0  0  0  0  0  0  0  0  0  0  0
   12.7362  -20.0823   19.7902 O   0  0  0  0  0  0  0  0  0  0  0  0
   11.1232  -17.2514   23.9827 C   0  0  0  0  0  0  0  0  0  0  0  0
   11.7991  -16.2463   24.3863 O   0  0  0  0  0  0  0  0  0  0  0  0
   12.3428  -17.8886   19.2012 O   0  0  0  0  0  0  0  0  0  0  0  0
   11.8610  -22.8415   29.9052 N   0  0  0  0  0  0  0  0  0  0  0  0
   12.1491  -21.7640   30.7832 C   0  0  0  0  0  0  0  0  0  0  0  0
   12.9744  -21.9295   31.7578 N   0  0  0  0  0  0  0  0  0  0  0  0
   11.5052  -20.5102   30.5574 N   0  0  0  0  0  0  0  0  0  0  0  0
   10.8367  -20.3523   29.2418 C   0  0  0  0  0  0  0  0  0  0  0  0
   11.6761  -19.5482   28.3271 C   0  0  0  0  0  0  0  0  0  0  0  0
   11.2692  -19.2433   26.9697 C   0  0  0  0  0  0  0  0  0  0  0  0
   12.0571  -18.4129   26.0354 C   0  0  2  0  0  0  0  0  0  0  0  0
   11.2178  -18.4265   24.7666 N   0  0  0  0  0  0  0  0  0  0  0  0
   13.2897  -19.1340   25.5961 C   0  0  0  0  0  0  0  0  0  0  0  0
   14.5185  -19.1134   26.1898 O   0  0  0  0  0  0  0  0  0  0  0  0
   13.2006  -19.8548   24.5420 O   0  0  0  0  0  0  0  0  0  0  0  0
  2  1  1  0
  3  2  2  0
  4  3  1  0
  5 11  1  0
  5  4  2  0
  6  5  1  0
  7  6  1  0
  7  8  1  6
  9  7  1  0
  9 13  1  0
 10  9  2  0
 11 12  2  0
 12  2  1  0
 14 15  1  6
 14 13  1  0
 16 17  1  0
 16 15  1  0
 17 21  1  0
 18 17  2  0
 19 14  1  0
 20 19  2  0
 23 24  2  0
 23 22  1  0
 25 23  1  0
 26 25  1  0
 26 27  1  0
 27 28  1  0
 29 28  1  1
 29 30  1  0
 30 19  1  0
 31 32  1  0
 31 29  1  0
 33 31  2  0
M  END
$$$$
