YER.pdb
     RDKit          3D

 33 33  0  0  1  0  0  0  0  0999 V2000
   11.1056  -13.8102   28.7120 O   0  0  0  0  0  0  0  0  0  0  0  0
   10.0755  -14.3912   27.9696 C   0  0  0  0  0  0  0  0  0  0  0  0
    9.8717  -14.0131   26.6791 C   0  0  0  0  0  0  0  0  0  0  0  0
    8.8654  -14.5684   25.9258 C   0  0  0  0  0  0  0  0  0  0  0  0
    8.0420  -15.5310   26.4878 C   0  0  0  0  0  0  0  0  0  0  0  0
    6.9416  -16.1661   25.7220 C   0  0  0  0  0  0  0  0  0  0  0  0
    6.8919  -17.6573   26.0131 C   0  0  2  0  0  0  0  0  0  0  0  0
    7.1041  -17.8743   27.4304 N   0  0  0  0  0  0  0  0  0  0  0  0
    7.9487  -18.3704   25.2138 C   0  0  0  0  0  0  0  0  0  0  0  0
    9.0690  -18.5686   25.7200 O   0  0  0  0  0  0  0  0  0  0  0  0
    8.2671  -15.8931   27.7843 C   0  0  0  0  0  0  0  0  0  0  0  0
    9.2728  -15.3460   28.5553 C   0  0  0  0  0  0  0  0  0  0  0  0
    7.6915  -18.8141   23.9084 N   0  0  0  0  0  0  0  0  0  0  0  0
    8.7023  -19.4501   23.0441 C   0  0  1  0  0  0  0  0  0  0  0  0
    7.9908  -20.3318   22.0809 C   0  0  0  0  0  0  0  0  0  0  0  0
    7.1388  -19.5364   21.1532 C   0  0  0  0  0  0  0  0  0  0  0  0
    6.4533  -20.4582   20.2056 C   0  0  0  0  0  0  0  0  0  0  0  0
    5.3863  -21.0154   20.5570 O   0  0  0  0  0  0  0  0  0  0  0  0
    9.4776  -18.3464   22.4420 C   0  0  0  0  0  0  0  0  0  0  0  0
    8.9242  -17.3551   21.8579 O   0  0  0  0  0  0  0  0  0  0  0  0
    6.9986  -20.6948   18.9409 O   0  0  0  0  0  0  0  0  0  0  0  0
    7.4182  -11.8901   20.8101 N   0  0  0  0  0  0  0  0  0  0  0  0
    7.5936  -13.2594   21.1404 C   0  0  0  0  0  0  0  0  0  0  0  0
    6.8665  -13.8001   22.0556 N   0  0  0  0  0  0  0  0  0  0  0  0
    8.5860  -14.0079   20.4387 N   0  0  0  0  0  0  0  0  0  0  0  0
    9.0860  -15.2251   21.1253 C   0  0  0  0  0  0  0  0  0  0  0  0
   10.4097  -14.9698   21.7340 C   0  0  0  0  0  0  0  0  0  0  0  0
   11.1593  -16.0043   22.4188 C   0  0  0  0  0  0  0  0  0  0  0  0
   11.6564  -17.2349   21.7694 C   0  0  2  0  0  0  0  0  0  0  0  0
   10.8927  -18.3384   22.4859 N   0  0  0  0  0  0  0  0  0  0  0  0
   13.0644  -17.5190   22.1803 C   0  0  0  0  0  0  0  0  0  0  0  0
   13.5008  -18.5020   23.0206 O   0  0  0  0  0  0  0  0  0  0  0  0
   13.9774  -16.7603   21.7011 O   0  0  0  0  0  0  0  0  0  0  0  0
  2  1  1  0
  3  2  2  0
  4  3  1  0
  5 11  1  0
  5  4  2  0
  6  5  1  0
  7  6  1  0
  7  8  1  1
  9  7  1  0
  9 13  1  0
 10  9  2  0
 11 12  2  0
 12  2  1  0
 14 15  1  6
 14 13  1  0
 16 17  1  0
 16 15  1  0
 17 21  1  0
 18 17  2  0
 19 14  1  0
 20 19  2  0
 23 24  2  0
 23 22  1  0
 25 23  1  0
 26 25  1  0
 26 27  1  0
 27 28  1  0
 29 28  1  1
 29 30  1  0
 30 19  1  0
 31 32  1  0
 31 29  1  0
 33 31  2  0
M  END
$$$$
