YER.pdb
     RDKit          3D

 33 33  0  0  1  0  0  0  0  0999 V2000
   10.2281  -15.1240   31.8023 O   0  0  0  0  0  0  0  0  0  0  0  0
   10.4386  -15.2537   30.4280 C   0  0  0  0  0  0  0  0  0  0  0  0
   10.4000  -16.4834   29.8481 C   0  0  0  0  0  0  0  0  0  0  0  0
   10.6036  -16.6397   28.4980 C   0  0  0  0  0  0  0  0  0  0  0  0
   10.8529  -15.5269   27.7106 C   0  0  0  0  0  0  0  0  0  0  0  0
   11.0781  -15.6351   26.2483 C   0  0  0  0  0  0  0  0  0  0  0  0
   12.3118  -16.4776   25.9680 C   0  0  2  0  0  0  0  0  0  0  0  0
   13.4224  -15.9729   26.7506 N   0  0  0  0  0  0  0  0  0  0  0  0
   12.6437  -16.4273   24.5012 C   0  0  0  0  0  0  0  0  0  0  0  0
   13.6564  -15.8085   24.1239 O   0  0  0  0  0  0  0  0  0  0  0  0
   10.8864  -14.3043   28.3164 C   0  0  0  0  0  0  0  0  0  0  0  0
   10.6841  -14.1290   29.6705 C   0  0  0  0  0  0  0  0  0  0  0  0
   11.8302  -17.0654   23.5535 N   0  0  0  0  0  0  0  0  0  0  0  0
   12.1611  -17.1610   22.1200 C   0  0  1  0  0  0  0  0  0  0  0  0
   13.4495  -17.8933   21.9960 C   0  0  0  0  0  0  0  0  0  0  0  0
   13.8360  -18.0616   20.5673 C   0  0  0  0  0  0  0  0  0  0  0  0
   15.3175  -17.9711   20.4465 C   0  0  0  0  0  0  0  0  0  0  0  0
   15.8990  -16.9228   20.8142 O   0  0  0  0  0  0  0  0  0  0  0  0
   10.9993  -17.8055   21.4747 C   0  0  0  0  0  0  0  0  0  0  0  0
   10.5699  -18.9566   21.8220 O   0  0  0  0  0  0  0  0  0  0  0  0
   16.0448  -19.0460   19.9286 O   0  0  0  0  0  0  0  0  0  0  0  0
    6.5905  -12.0335   17.8255 N   0  0  0  0  0  0  0  0  0  0  0  0
    7.4013  -13.0067   17.1850 C   0  0  0  0  0  0  0  0  0  0  0  0
    7.7697  -12.8359   15.9629 N   0  0  0  0  0  0  0  0  0  0  0  0
    7.7897  -14.1640   17.9250 N   0  0  0  0  0  0  0  0  0  0  0  0
    7.2270  -14.2773   19.2937 C   0  0  0  0  0  0  0  0  0  0  0  0
    7.8058  -15.4428   19.9970 C   0  0  0  0  0  0  0  0  0  0  0  0
    8.3211  -16.5972   19.2879 C   0  0  0  0  0  0  0  0  0  0  0  0
    8.9775  -17.7472   19.9437 C   0  0  2  0  0  0  0  0  0  0  0  0
   10.2984  -17.1653   20.4243 N   0  0  0  0  0  0  0  0  0  0  0  0
    9.4325  -18.7461   18.9301 C   0  0  0  0  0  0  0  0  0  0  0  0
    8.6809  -19.7055   18.3157 O   0  0  0  0  0  0  0  0  0  0  0  0
   10.6665  -18.7140   18.5912 O   0  0  0  0  0  0  0  0  0  0  0  0
  2  1  1  0
  3  2  2  0
  4  3  1  0
  5 11  1  0
  5  4  2  0
  6  5  1  0
  7  6  1  0
  7  8  1  1
  9  7  1  0
  9 13  1  0
 10  9  2  0
 11 12  2  0
 12  2  1  0
 14 15  1  1
 14 13  1  0
 16 17  1  0
 16 15  1  0
 17 21  1  0
 18 17  2  0
 19 14  1  0
 20 19  2  0
 23 24  2  0
 23 22  1  0
 25 23  1  0
 26 25  1  0
 26 27  1  0
 27 28  1  0
 29 28  1  6
 29 30  1  0
 30 19  1  0
 31 32  1  0
 31 29  1  0
 33 31  2  0
M  END
$$$$
