YER.pdb
     RDKit          3D

 33 33  0  0  1  0  0  0  0  0999 V2000
    7.7439  -11.2128   17.2415 O   0  0  0  0  0  0  0  0  0  0  0  0
    7.6551  -12.4677   17.8476 C   0  0  0  0  0  0  0  0  0  0  0  0
    7.3402  -13.5610   17.1023 C   0  0  0  0  0  0  0  0  0  0  0  0
    7.2461  -14.8076   17.6730 C   0  0  0  0  0  0  0  0  0  0  0  0
    7.4755  -14.9569   19.0315 C   0  0  0  0  0  0  0  0  0  0  0  0
    7.3899  -16.2779   19.7011 C   0  0  0  0  0  0  0  0  0  0  0  0
    7.5416  -16.1152   21.2048 C   0  0  2  0  0  0  0  0  0  0  0  0
    7.7604  -14.7161   21.5138 N   0  0  0  0  0  0  0  0  0  0  0  0
    8.6982  -16.9433   21.6953 C   0  0  0  0  0  0  0  0  0  0  0  0
    8.6014  -18.1848   21.7044 O   0  0  0  0  0  0  0  0  0  0  0  0
    7.7899  -13.8445   19.7572 C   0  0  0  0  0  0  0  0  0  0  0  0
    7.8887  -12.5853   19.2006 C   0  0  0  0  0  0  0  0  0  0  0  0
    9.8821  -16.3388   22.1426 N   0  0  0  0  0  0  0  0  0  0  0  0
   11.0107  -17.0820   22.7318 C   0  0  1  0  0  0  0  0  0  0  0  0
   12.2685  -16.3988   22.3282 C   0  0  0  0  0  0  0  0  0  0  0  0
   12.4950  -16.5143   20.8603 C   0  0  0  0  0  0  0  0  0  0  0  0
   13.7771  -15.8437   20.5082 C   0  0  0  0  0  0  0  0  0  0  0  0
   14.8388  -16.5109   20.5135 O   0  0  0  0  0  0  0  0  0  0  0  0
   10.7529  -17.1315   24.1853 C   0  0  0  0  0  0  0  0  0  0  0  0
   10.0839  -16.2323   24.7968 O   0  0  0  0  0  0  0  0  0  0  0  0
   13.7894  -14.4863   20.1766 O   0  0  0  0  0  0  0  0  0  0  0  0
    8.0339  -22.3206   27.6551 N   0  0  0  0  0  0  0  0  0  0  0  0
    6.9663  -21.7751   28.4152 C   0  0  0  0  0  0  0  0  0  0  0  0
    6.4789  -22.4348   29.4080 N   0  0  0  0  0  0  0  0  0  0  0  0
    6.4562  -20.4926   28.0510 N   0  0  0  0  0  0  0  0  0  0  0  0
    7.0689  -19.8677   26.8523 C   0  0  0  0  0  0  0  0  0  0  0  0
    8.4775  -19.5043   27.1201 C   0  0  0  0  0  0  0  0  0  0  0  0
    9.3001  -18.8208   26.1417 C   0  0  0  0  0  0  0  0  0  0  0  0
   10.6948  -18.3969   26.3831 C   0  0  2  0  0  0  0  0  0  0  0  0
   11.2445  -18.1959   24.9790 N   0  0  0  0  0  0  0  0  0  0  0  0
   11.5189  -19.5422   26.8746 C   0  0  0  0  0  0  0  0  0  0  0  0
   11.7300  -19.9162   28.1701 O   0  0  0  0  0  0  0  0  0  0  0  0
   12.1035  -20.2624   25.9924 O   0  0  0  0  0  0  0  0  0  0  0  0
  2  1  1  0
  3  2  2  0
  4  3  1  0
  5 11  1  0
  5  4  2  0
  6  5  1  0
  7  6  1  0
  7  8  1  6
  9  7  1  0
  9 13  1  0
 10  9  2  0
 11 12  2  0
 12  2  1  0
 14 15  1  1
 14 13  1  0
 16 17  1  0
 16 15  1  0
 17 21  1  0
 18 17  2  0
 19 14  1  0
 20 19  2  0
 23 24  2  0
 23 22  1  0
 25 23  1  0
 26 25  1  0
 26 27  1  0
 27 28  1  0
 29 28  1  6
 29 30  1  0
 30 19  1  0
 31 32  1  0
 31 29  1  0
 33 31  2  0
M  END
$$$$
