YER.pdb
     RDKit          3D

 33 33  0  0  1  0  0  0  0  0999 V2000
    5.3673  -12.0850   18.0903 O   0  0  0  0  0  0  0  0  0  0  0  0
    6.4654  -12.9471   18.0601 C   0  0  0  0  0  0  0  0  0  0  0  0
    7.2078  -13.0616   16.9262 C   0  0  0  0  0  0  0  0  0  0  0  0
    8.2934  -13.9023   16.8688 C   0  0  0  0  0  0  0  0  0  0  0  0
    8.6406  -14.6479   17.9842 C   0  0  0  0  0  0  0  0  0  0  0  0
    9.8030  -15.5697   17.9808 C   0  0  0  0  0  0  0  0  0  0  0  0
   11.0367  -14.8609   18.5158 C   0  0  2  0  0  0  0  0  0  0  0  0
   11.3724  -13.7582   17.6372 N   0  0  0  0  0  0  0  0  0  0  0  0
   12.1866  -15.8278   18.5998 C   0  0  0  0  0  0  0  0  0  0  0  0
   12.0092  -16.9460   19.1185 O   0  0  0  0  0  0  0  0  0  0  0  0
    7.8799  -14.5150   19.1095 C   0  0  0  0  0  0  0  0  0  0  0  0
    6.7867  -13.6757   19.1847 C   0  0  0  0  0  0  0  0  0  0  0  0
   13.4539  -15.4889   18.1038 N   0  0  0  0  0  0  0  0  0  0  0  0
   14.6587  -16.3162   18.2975 C   0  0  1  0  0  0  0  0  0  0  0  0
   15.6709  -15.8918   17.2941 C   0  0  0  0  0  0  0  0  0  0  0  0
   15.3797  -16.4789   15.9564 C   0  0  0  0  0  0  0  0  0  0  0  0
   16.4425  -16.0662   14.9983 C   0  0  0  0  0  0  0  0  0  0  0  0
   16.8689  -14.8874   15.0271 O   0  0  0  0  0  0  0  0  0  0  0  0
   15.0521  -16.1404   19.7103 C   0  0  0  0  0  0  0  0  0  0  0  0
   15.1095  -14.9950   20.2715 O   0  0  0  0  0  0  0  0  0  0  0  0
   16.9541  -16.9875   14.0805 O   0  0  0  0  0  0  0  0  0  0  0  0
   11.2887  -13.6957   21.1697 N   0  0  0  0  0  0  0  0  0  0  0  0
   10.4617  -14.3274   22.1351 C   0  0  0  0  0  0  0  0  0  0  0  0
    9.1824  -14.1924   22.0754 N   0  0  0  0  0  0  0  0  0  0  0  0
   11.0815  -15.1045   23.1595 N   0  0  0  0  0  0  0  0  0  0  0  0
   12.4115  -15.6731   22.8270 C   0  0  0  0  0  0  0  0  0  0  0  0
   12.2610  -16.9467   22.0900 C   0  0  0  0  0  0  0  0  0  0  0  0
   13.4008  -17.7394   21.6735 C   0  0  0  0  0  0  0  0  0  0  0  0
   14.8077  -17.3612   21.9205 C   0  0  2  0  0  0  0  0  0  0  0  0
   15.3892  -17.2526   20.5190 N   0  0  0  0  0  0  0  0  0  0  0  0
   15.5749  -18.5133   22.4830 C   0  0  0  0  0  0  0  0  0  0  0  0
   15.9181  -19.6709   21.8468 O   0  0  0  0  0  0  0  0  0  0  0  0
   15.9583  -18.4210   23.7009 O   0  0  0  0  0  0  0  0  0  0  0  0
  2  1  1  0
  3  2  2  0
  4  3  1  0
  5 11  1  0
  5  4  2  0
  6  5  1  0
  7  6  1  0
  7  8  1  6
  9  7  1  0
  9 13  1  0
 10  9  2  0
 11 12  2  0
 12  2  1  0
 14 15  1  6
 14 13  1  0
 16 17  1  0
 16 15  1  0
 17 21  1  0
 18 17  2  0
 19 14  1  0
 20 19  2  0
 23 24  2  0
 23 22  1  0
 25 23  1  0
 26 25  1  0
 26 27  1  0
 27 28  1  0
 29 28  1  6
 29 30  1  0
 30 19  1  0
 31 32  1  0
 31 29  1  0
 33 31  2  0
M  END
$$$$
