QIM.pdb
     RDKit          3D

 26 25  0  0  1  0  0  0  0  0999 V2000
   21.6800  -19.3713  -19.5154 N   0  0  0  0  0  0  0  0  0  0  0  0
   21.6847  -20.5365  -20.3467 C   0  0  0  0  0  0  0  0  0  0  0  0
   21.0582  -20.4648  -21.4278 O   0  0  0  0  0  0  0  0  0  0  0  0
   22.4174  -21.7664  -19.9082 C   0  0  0  0  0  0  0  0  0  0  0  0
   23.0672  -21.4895  -18.5697 C   0  0  0  0  0  0  0  0  0  0  0  0
   24.2015  -20.4996  -18.6993 C   0  0  2  0  0  0  0  0  0  0  0  0
   25.0973  -20.9141  -19.7564 N   0  0  0  0  0  0  0  0  0  0  0  0
   24.9840  -20.3881  -17.4433 C   0  0  0  0  0  0  0  0  0  0  0  0
   26.0433  -21.0917  -17.3328 O   0  0  0  0  0  0  0  0  0  0  0  0
   26.6224  -15.8925  -16.2508 C   0  0  0  0  0  0  0  0  0  0  0  0
   26.6914  -17.3844  -16.0905 C   0  0  0  0  0  0  0  0  0  0  0  0
   25.7520  -17.9609  -15.1161 C   0  0  2  0  0  0  0  0  0  0  0  0
   26.3504  -17.7273  -13.7205 C   0  0  0  0  0  0  0  0  0  0  0  0
   25.4302  -19.4109  -15.1986 C   0  0  2  0  0  0  0  0  0  0  0  0
   24.5757  -19.5335  -16.4010 N   0  0  0  0  0  0  0  0  0  0  0  0
   24.6313  -19.8759  -14.0235 C   0  0  0  0  0  0  0  0  0  0  0  0
   23.3516  -19.8509  -14.1135 O   0  0  0  0  0  0  0  0  0  0  0  0
   23.9653  -22.0462   -6.4102 C   0  0  0  0  0  0  0  0  0  0  0  0
   25.0666  -21.6045   -7.7715 S   0  0  0  0  0  0  0  0  0  0  0  0
   24.1475  -21.2374   -9.2724 C   0  0  0  0  0  0  0  0  0  0  0  0
   25.0792  -20.8811  -10.4265 C   0  0  0  0  0  0  0  0  0  0  0  0
   24.3022  -20.7287  -11.7164 C   0  0  2  0  0  0  0  0  0  0  0  0
   25.1809  -20.3460  -12.8152 N   0  0  0  0  0  0  0  0  0  0  0  0
   23.2332  -19.7328  -11.5931 C   0  0  0  0  0  0  0  0  0  0  0  0
   22.0715  -20.0804  -11.2501 O   0  0  0  0  0  0  0  0  0  0  0  0
   23.4424  -18.3859  -11.8425 O   0  0  0  0  0  0  0  0  0  0  0  0
  2  1  1  0
  3  2  2  0
  4  2  1  0
  5  4  1  0
  6  5  1  0
  6  7  1  6
  8  6  1  0
  9  8  2  0
 11 10  1  0
 12 14  1  0
 12 11  1  0
 12 13  1  1
 14 15  1  6
 15  8  1  0
 16 17  2  0
 16 14  1  0
 18 19  1  0
 20 19  1  0
 20 21  1  0
 22 21  1  1
 22 23  1  0
 23 16  1  0
 24 22  1  0
 25 24  2  0
 26 24  1  0
M  END
$$$$
