QIM.pdb
     RDKit          3D

 26 25  0  0  1  0  0  0  0  0999 V2000
   22.8064  -15.5167  -15.4945 N   0  0  0  0  0  0  0  0  0  0  0  0
   22.9890  -15.8244  -16.8803 C   0  0  0  0  0  0  0  0  0  0  0  0
   22.0240  -15.5964  -17.6442 O   0  0  0  0  0  0  0  0  0  0  0  0
   24.2901  -16.3921  -17.3563 C   0  0  0  0  0  0  0  0  0  0  0  0
   25.2003  -16.5802  -16.1619 C   0  0  0  0  0  0  0  0  0  0  0  0
   26.1884  -17.7004  -16.3899 C   0  0  2  0  0  0  0  0  0  0  0  0
   26.3351  -17.9455  -17.8077 N   0  0  0  0  0  0  0  0  0  0  0  0
   25.7523  -18.9624  -15.7422 C   0  0  0  0  0  0  0  0  0  0  0  0
   25.2689  -19.8812  -16.4850 O   0  0  0  0  0  0  0  0  0  0  0  0
   28.7800  -19.6032  -12.6575 C   0  0  0  0  0  0  0  0  0  0  0  0
   27.9156  -20.8031  -12.9208 C   0  0  0  0  0  0  0  0  0  0  0  0
   26.4830  -20.6263  -12.6364 C   0  0  2  0  0  0  0  0  0  0  0  0
   26.0221  -21.8665  -11.8555 C   0  0  0  0  0  0  0  0  0  0  0  0
   25.5379  -20.4706  -13.7745 C   0  0  2  0  0  0  0  0  0  0  0  0
   25.8658  -19.1472  -14.3508 N   0  0  0  0  0  0  0  0  0  0  0  0
   24.1143  -20.4285  -13.3196 C   0  0  0  0  0  0  0  0  0  0  0  0
   23.6794  -19.3430  -12.7916 O   0  0  0  0  0  0  0  0  0  0  0  0
   21.4350  -20.4024   -8.2856 C   0  0  0  0  0  0  0  0  0  0  0  0
   20.4076  -19.5517   -9.5030 S   0  0  0  0  0  0  0  0  0  0  0  0
   20.4252  -20.3978  -11.0891 C   0  0  0  0  0  0  0  0  0  0  0  0
   21.8434  -20.5389  -11.6329 C   0  0  0  0  0  0  0  0  0  0  0  0
   21.8519  -21.3599  -12.9043 C   0  0  2  0  0  0  0  0  0  0  0  0
   23.2049  -21.4982  -13.4296 N   0  0  0  0  0  0  0  0  0  0  0  0
   20.9978  -20.7689  -13.9392 C   0  0  0  0  0  0  0  0  0  0  0  0
   21.4919  -20.0265  -14.8294 O   0  0  0  0  0  0  0  0  0  0  0  0
   19.6312  -20.9928  -13.9894 O   0  0  0  0  0  0  0  0  0  0  0  0
  2  1  1  0
  3  2  2  0
  4  2  1  0
  5  4  1  0
  6  5  1  0
  6  7  1  6
  8  6  1  0
  9  8  2  0
 11 10  1  0
 12 14  1  0
 12 11  1  0
 12 13  1  6
 14 15  1  1
 15  8  1  0
 16 17  2  0
 16 14  1  0
 18 19  1  0
 20 19  1  0
 20 21  1  0
 22 21  1  1
 22 23  1  0
 23 16  1  0
 24 22  1  0
 25 24  2  0
 26 24  1  0
M  END
$$$$
