QIM.pdb
     RDKit          3D

 26 25  0  0  1  0  0  0  0  0999 V2000
   26.7266  -18.0083  -17.3355 N   0  0  0  0  0  0  0  0  0  0  0  0
   27.3929  -18.2741  -18.5740 C   0  0  0  0  0  0  0  0  0  0  0  0
   27.8142  -17.2853  -19.2154 O   0  0  0  0  0  0  0  0  0  0  0  0
   27.5592  -19.6849  -19.0473 C   0  0  0  0  0  0  0  0  0  0  0  0
   26.9447  -20.6133  -18.0222 C   0  0  0  0  0  0  0  0  0  0  0  0
   27.7884  -20.6925  -16.7711 C   0  0  2  0  0  0  0  0  0  0  0  0
   28.9665  -21.4928  -17.0224 N   0  0  0  0  0  0  0  0  0  0  0  0
   27.0445  -21.3016  -15.6406 C   0  0  0  0  0  0  0  0  0  0  0  0
   26.9942  -22.5753  -15.5734 O   0  0  0  0  0  0  0  0  0  0  0  0
   26.0908  -21.8552  -10.3179 C   0  0  0  0  0  0  0  0  0  0  0  0
   25.5545  -20.6471  -11.0315 C   0  0  0  0  0  0  0  0  0  0  0  0
   26.1665  -20.3599  -12.3382 C   0  0  2  0  0  0  0  0  0  0  0  0
   25.8444  -18.8959  -12.6747 C   0  0  0  0  0  0  0  0  0  0  0  0
   25.7515  -21.1640  -13.5188 C   0  0  2  0  0  0  0  0  0  0  0  0
   26.4113  -20.5041  -14.6678 N   0  0  0  0  0  0  0  0  0  0  0  0
   24.2750  -21.1049  -13.7468 C   0  0  0  0  0  0  0  0  0  0  0  0
   23.7671  -19.9938  -14.1388 O   0  0  0  0  0  0  0  0  0  0  0  0
   22.5288  -26.1806  -14.3064 C   0  0  0  0  0  0  0  0  0  0  0  0
   21.7280  -25.4847  -15.7677 S   0  0  0  0  0  0  0  0  0  0  0  0
   21.3711  -23.7355  -15.5557 C   0  0  0  0  0  0  0  0  0  0  0  0
   21.2999  -23.3533  -14.0806 C   0  0  0  0  0  0  0  0  0  0  0  0
   21.9692  -22.0176  -13.8390 C   0  0  2  0  0  0  0  0  0  0  0  0
   23.3913  -22.1861  -13.5649 N   0  0  0  0  0  0  0  0  0  0  0  0
   21.3521  -21.2938  -12.7231 C   0  0  0  0  0  0  0  0  0  0  0  0
   21.7620  -21.4662  -11.5440 O   0  0  0  0  0  0  0  0  0  0  0  0
   20.3078  -20.4014  -12.9053 O   0  0  0  0  0  0  0  0  0  0  0  0
  2  1  1  0
  3  2  2  0
  4  2  1  0
  5  4  1  0
  6  5  1  0
  6  7  1  6
  8  6  1  0
  9  8  2  0
 11 10  1  0
 12 14  1  0
 12 11  1  0
 12 13  1  6
 14 15  1  6
 15  8  1  0
 16 17  2  0
 16 14  1  0
 18 19  1  0
 20 19  1  0
 20 21  1  0
 22 21  1  1
 22 23  1  0
 23 16  1  0
 24 22  1  0
 25 24  2  0
 26 24  1  0
M  END
$$$$
