QIM.pdb
     RDKit          3D

 26 25  0  0  1  0  0  0  0  0999 V2000
   22.8219  -17.3102  -14.1734 N   0  0  0  0  0  0  0  0  0  0  0  0
   22.0822  -18.4839  -14.5253 C   0  0  0  0  0  0  0  0  0  0  0  0
   22.2240  -18.9156  -15.6915 O   0  0  0  0  0  0  0  0  0  0  0  0
   21.1896  -19.1371  -13.5161 C   0  0  0  0  0  0  0  0  0  0  0  0
   22.0535  -19.8086  -12.4706 C   0  0  0  0  0  0  0  0  0  0  0  0
   22.9816  -20.8272  -13.0906 C   0  0  2  0  0  0  0  0  0  0  0  0
   22.2254  -21.9805  -13.5259 N   0  0  0  0  0  0  0  0  0  0  0  0
   24.0186  -21.2851  -12.1328 C   0  0  0  0  0  0  0  0  0  0  0  0
   23.8263  -22.3909  -11.5249 O   0  0  0  0  0  0  0  0  0  0  0  0
   29.0879  -21.3523  -13.6387 C   0  0  0  0  0  0  0  0  0  0  0  0
   27.7502  -21.5907  -12.9982 C   0  0  0  0  0  0  0  0  0  0  0  0
   27.5026  -20.8468  -11.7533 C   0  0  2  0  0  0  0  0  0  0  0  0
   28.6408  -21.1994  -10.7835 C   0  0  0  0  0  0  0  0  0  0  0  0
   26.2328  -21.0828  -11.0152 C   0  0  2  0  0  0  0  0  0  0  0  0
   25.1820  -20.5273  -11.8974 N   0  0  0  0  0  0  0  0  0  0  0  0
   26.1868  -20.3311   -9.7237 C   0  0  0  0  0  0  0  0  0  0  0  0
   25.9049  -19.0799   -9.7614 O   0  0  0  0  0  0  0  0  0  0  0  0
   26.8676  -20.5283   -2.5312 C   0  0  0  0  0  0  0  0  0  0  0  0
   28.2120  -20.9601   -3.6569 S   0  0  0  0  0  0  0  0  0  0  0  0
   27.9930  -20.1985   -5.2706 C   0  0  0  0  0  0  0  0  0  0  0  0
   26.8472  -20.8440   -6.0436 C   0  0  0  0  0  0  0  0  0  0  0  0
   26.5137  -20.0390   -7.2811 C   0  0  2  0  0  0  0  0  0  0  0  0
   26.4289  -20.8968   -8.4570 N   0  0  0  0  0  0  0  0  0  0  0  0
   27.5050  -18.9876   -7.5297 C   0  0  0  0  0  0  0  0  0  0  0  0
   28.5487  -19.2358   -8.1907 O   0  0  0  0  0  0  0  0  0  0  0  0
   27.3470  -17.6937   -7.0596 O   0  0  0  0  0  0  0  0  0  0  0  0
  2  1  1  0
  3  2  2  0
  4  2  1  0
  5  4  1  0
  6  5  1  0
  6  7  1  1
  8  6  1  0
  9  8  2  0
 11 10  1  0
 12 14  1  0
 12 11  1  0
 12 13  1  1
 14 15  1  6
 15  8  1  0
 16 17  2  0
 16 14  1  0
 18 19  1  0
 20 19  1  0
 20 21  1  0
 22 21  1  1
 22 23  1  0
 23 16  1  0
 24 22  1  0
 25 24  2  0
 26 24  1  0
M  END
$$$$
