QIM.pdb
     RDKit          3D

 26 25  0  0  1  0  0  0  0  0999 V2000
   19.2292  -21.5197  -11.5587 N   0  0  0  0  0  0  0  0  0  0  0  0
   19.0867  -20.9552  -12.8662 C   0  0  0  0  0  0  0  0  0  0  0  0
   17.9437  -20.5649  -13.1943 O   0  0  0  0  0  0  0  0  0  0  0  0
   20.2749  -20.8534  -13.7716 C   0  0  0  0  0  0  0  0  0  0  0  0
   21.4933  -21.3552  -13.0271 C   0  0  0  0  0  0  0  0  0  0  0  0
   22.7284  -21.3157  -13.8966 C   0  0  2  0  0  0  0  0  0  0  0  0
   22.5976  -22.2649  -14.9799 N   0  0  0  0  0  0  0  0  0  0  0  0
   23.9546  -21.6501  -13.1305 C   0  0  0  0  0  0  0  0  0  0  0  0
   24.2159  -22.8827  -12.9261 O   0  0  0  0  0  0  0  0  0  0  0  0
   28.5348  -20.1234  -14.6983 C   0  0  0  0  0  0  0  0  0  0  0  0
   27.3913  -20.8172  -14.0148 C   0  0  0  0  0  0  0  0  0  0  0  0
   27.1436  -20.4092  -12.6231 C   0  0  2  0  0  0  0  0  0  0  0  0
   28.4182  -20.7273  -11.8266 C   0  0  0  0  0  0  0  0  0  0  0  0
   26.0164  -21.0342  -11.8804 C   0  0  2  0  0  0  0  0  0  0  0  0
   24.8084  -20.6427  -12.6412 N   0  0  0  0  0  0  0  0  0  0  0  0
   25.8815  -20.4825  -10.4974 C   0  0  0  0  0  0  0  0  0  0  0  0
   25.4048  -19.2990  -10.3617 O   0  0  0  0  0  0  0  0  0  0  0  0
   28.2844  -20.5455   -2.9308 C   0  0  0  0  0  0  0  0  0  0  0  0
   28.1060  -21.4631   -4.4758 S   0  0  0  0  0  0  0  0  0  0  0  0
   27.2779  -20.4827   -5.7348 C   0  0  0  0  0  0  0  0  0  0  0  0
   27.1124  -21.2642   -7.0343 C   0  0  0  0  0  0  0  0  0  0  0  0
   26.3684  -20.4421   -8.0644 C   0  0  2  0  0  0  0  0  0  0  0  0
   26.2388  -21.1696   -9.3213 N   0  0  0  0  0  0  0  0  0  0  0  0
   27.0341  -19.1614   -8.3224 C   0  0  0  0  0  0  0  0  0  0  0  0
   28.0353  -19.1031   -9.0854 O   0  0  0  0  0  0  0  0  0  0  0  0
   26.6042  -17.9742   -7.7515 O   0  0  0  0  0  0  0  0  0  0  0  0
  2  1  1  0
  3  2  2  0
  4  2  1  0
  5  4  1  0
  6  5  1  0
  6  7  1  6
  8  6  1  0
  9  8  2  0
 11 10  1  0
 12 14  1  0
 12 11  1  0
 12 13  1  1
 14 15  1  6
 15  8  1  0
 16 17  2  0
 16 14  1  0
 18 19  1  0
 20 19  1  0
 20 21  1  0
 22 21  1  1
 22 23  1  0
 23 16  1  0
 24 22  1  0
 25 24  2  0
 26 24  1  0
M  END
$$$$
