QIM.pdb
     RDKit          3D

 26 25  0  0  1  0  0  0  0  0999 V2000
   29.2655  -23.7496  -16.2429 N   0  0  0  0  0  0  0  0  0  0  0  0
   29.2742  -22.5900  -17.0819 C   0  0  0  0  0  0  0  0  0  0  0  0
   30.0161  -22.6241  -18.0894 O   0  0  0  0  0  0  0  0  0  0  0  0
   28.4205  -21.4093  -16.7367 C   0  0  0  0  0  0  0  0  0  0  0  0
   27.6266  -21.7358  -15.4903 C   0  0  0  0  0  0  0  0  0  0  0  0
   26.3386  -20.9478  -15.4322 C   0  0  2  0  0  0  0  0  0  0  0  0
   26.6308  -19.5370  -15.3061 N   0  0  0  0  0  0  0  0  0  0  0  0
   25.4943  -21.3529  -14.2810 C   0  0  0  0  0  0  0  0  0  0  0  0
   24.9498  -22.5070  -14.3141 O   0  0  0  0  0  0  0  0  0  0  0  0
   26.5670  -21.9331  -10.1215 C   0  0  0  0  0  0  0  0  0  0  0  0
   26.2655  -20.4919  -10.4187 C   0  0  0  0  0  0  0  0  0  0  0  0
   24.8985  -20.2141  -10.8862 C   0  0  2  0  0  0  0  0  0  0  0  0
   23.9465  -20.5767   -9.7362 C   0  0  0  0  0  0  0  0  0  0  0  0
   24.3925  -20.9246  -12.0912 C   0  0  2  0  0  0  0  0  0  0  0  0
   25.2960  -20.4948  -13.1821 N   0  0  0  0  0  0  0  0  0  0  0  0
   23.0064  -20.4971  -12.4536 C   0  0  0  0  0  0  0  0  0  0  0  0
   22.8384  -19.3080  -12.9053 O   0  0  0  0  0  0  0  0  0  0  0  0
   19.6670  -21.8364  -17.6221 C   0  0  0  0  0  0  0  0  0  0  0  0
   19.4955  -20.2204  -16.8346 S   0  0  0  0  0  0  0  0  0  0  0  0
   19.3766  -20.3659  -15.0466 C   0  0  0  0  0  0  0  0  0  0  0  0
   20.7319  -20.6755  -14.4187 C   0  0  0  0  0  0  0  0  0  0  0  0
   20.5988  -20.8719  -12.9239 C   0  0  2  0  0  0  0  0  0  0  0  0
   21.8608  -21.3080  -12.3384 N   0  0  0  0  0  0  0  0  0  0  0  0
   19.5580  -21.8507  -12.5943 C   0  0  0  0  0  0  0  0  0  0  0  0
   19.8108  -23.0850  -12.6158 O   0  0  0  0  0  0  0  0  0  0  0  0
   18.2696  -21.4750  -12.2494 O   0  0  0  0  0  0  0  0  0  0  0  0
  2  1  1  0
  3  2  2  0
  4  2  1  0
  5  4  1  0
  6  5  1  0
  6  7  1  1
  8  6  1  0
  9  8  2  0
 11 10  1  0
 12 14  1  0
 12 11  1  0
 12 13  1  1
 14 15  1  6
 15  8  1  0
 16 17  2  0
 16 14  1  0
 18 19  1  0
 20 19  1  0
 20 21  1  0
 22 21  1  6
 22 23  1  0
 23 16  1  0
 24 22  1  0
 25 24  2  0
 26 24  1  0
M  END
$$$$
