QIM.pdb
     RDKit          3D

 26 25  0  0  1  0  0  0  0  0999 V2000
   29.7728  -20.4183  -17.8017 N   0  0  0  0  0  0  0  0  0  0  0  0
   29.9303  -21.8154  -17.5336 C   0  0  0  0  0  0  0  0  0  0  0  0
   30.5782  -22.4843  -18.3698 O   0  0  0  0  0  0  0  0  0  0  0  0
   29.3322  -22.4129  -16.2977 C   0  0  0  0  0  0  0  0  0  0  0  0
   28.6746  -21.3093  -15.4978 C   0  0  0  0  0  0  0  0  0  0  0  0
   27.1725  -21.4697  -15.4641 C   0  0  2  0  0  0  0  0  0  0  0  0
   26.5975  -20.9755  -16.6956 N   0  0  0  0  0  0  0  0  0  0  0  0
   26.5624  -20.7258  -14.3342 C   0  0  0  0  0  0  0  0  0  0  0  0
   26.7969  -19.4742  -14.2447 O   0  0  0  0  0  0  0  0  0  0  0  0
   21.5361  -20.5772  -13.8319 C   0  0  0  0  0  0  0  0  0  0  0  0
   22.9930  -20.2415  -13.6872 C   0  0  0  0  0  0  0  0  0  0  0  0
   23.6553  -20.7955  -12.4960 C   0  0  2  0  0  0  0  0  0  0  0  0
   22.9666  -20.1783  -11.2693 C   0  0  0  0  0  0  0  0  0  0  0  0
   25.1150  -20.5723  -12.3157 C   0  0  2  0  0  0  0  0  0  0  0  0
   25.7482  -21.3750  -13.3861 N   0  0  0  0  0  0  0  0  0  0  0  0
   25.6047  -21.0963  -11.0040 C   0  0  0  0  0  0  0  0  0  0  0  0
   25.5029  -22.3554  -10.7792 O   0  0  0  0  0  0  0  0  0  0  0  0
   28.1071  -17.7436   -5.6689 C   0  0  0  0  0  0  0  0  0  0  0  0
   28.4761  -19.4900   -5.3947 S   0  0  0  0  0  0  0  0  0  0  0  0
   27.4475  -20.5513   -6.4183 C   0  0  0  0  0  0  0  0  0  0  0  0
   27.2499  -19.9639   -7.8122 C   0  0  0  0  0  0  0  0  0  0  0  0
   26.3779  -20.8676   -8.6570 C   0  0  2  0  0  0  0  0  0  0  0  0
   26.1768  -20.3069   -9.9878 N   0  0  0  0  0  0  0  0  0  0  0  0
   25.0702  -21.0981   -8.0353 C   0  0  0  0  0  0  0  0  0  0  0  0
   24.0962  -20.3420   -8.2948 O   0  0  0  0  0  0  0  0  0  0  0  0
   24.8441  -22.1387   -7.1485 O   0  0  0  0  0  0  0  0  0  0  0  0
  2  1  1  0
  3  2  2  0
  4  2  1  0
  5  4  1  0
  6  5  1  0
  6  7  1  6
  8  6  1  0
  9  8  2  0
 11 10  1  0
 12 14  1  0
 12 11  1  0
 12 13  1  1
 14 15  1  6
 15  8  1  0
 16 17  2  0
 16 14  1  0
 18 19  1  0
 20 19  1  0
 20 21  1  0
 22 21  1  1
 22 23  1  0
 23 16  1  0
 24 22  1  0
 25 24  2  0
 26 24  1  0
M  END
$$$$
