QIM.pdb
     RDKit          3D

 26 25  0  0  1  0  0  0  0  0999 V2000
   21.1048  -24.0988  -13.8666 N   0  0  0  0  0  0  0  0  0  0  0  0
   19.7253  -23.7186  -13.9009 C   0  0  0  0  0  0  0  0  0  0  0  0
   18.8821  -24.6248  -13.7154 O   0  0  0  0  0  0  0  0  0  0  0  0
   19.3478  -22.2913  -14.1503 C   0  0  0  0  0  0  0  0  0  0  0  0
   20.6142  -21.4734  -14.2836 C   0  0  0  0  0  0  0  0  0  0  0  0
   21.3176  -21.3217  -12.9549 C   0  0  2  0  0  0  0  0  0  0  0  0
   20.5276  -20.4916  -12.0725 N   0  0  0  0  0  0  0  0  0  0  0  0
   22.6558  -20.6983  -13.1060 C   0  0  0  0  0  0  0  0  0  0  0  0
   22.7177  -19.4265  -13.1962 O   0  0  0  0  0  0  0  0  0  0  0  0
   26.2688  -21.2680   -9.5768 C   0  0  0  0  0  0  0  0  0  0  0  0
   25.4411  -20.7932  -10.7368 C   0  0  0  0  0  0  0  0  0  0  0  0
   25.8928  -21.2421  -12.0630 C   0  0  2  0  0  0  0  0  0  0  0  0
   27.3316  -20.7348  -12.2446 C   0  0  0  0  0  0  0  0  0  0  0  0
   25.1369  -20.8033  -13.2667 C   0  0  2  0  0  0  0  0  0  0  0  0
   23.8260  -21.4806  -13.1490 N   0  0  0  0  0  0  0  0  0  0  0  0
   25.7785  -21.2711  -14.5334 C   0  0  0  0  0  0  0  0  0  0  0  0
   25.6579  -22.5081  -14.8520 O   0  0  0  0  0  0  0  0  0  0  0  0
   22.2240  -21.9977  -18.2365 C   0  0  0  0  0  0  0  0  0  0  0  0
   23.1383  -20.9052  -19.3463 S   0  0  0  0  0  0  0  0  0  0  0  0
   24.8426  -20.6978  -18.8130 C   0  0  0  0  0  0  0  0  0  0  0  0
   24.9483  -20.6200  -17.2932 C   0  0  0  0  0  0  0  0  0  0  0  0
   26.3963  -20.6442  -16.8537 C   0  0  2  0  0  0  0  0  0  0  0  0
   26.5099  -20.4499  -15.4131 N   0  0  0  0  0  0  0  0  0  0  0  0
   27.1892  -19.6170  -17.5362 C   0  0  0  0  0  0  0  0  0  0  0  0
   26.8980  -18.3972  -17.4131 O   0  0  0  0  0  0  0  0  0  0  0  0
   28.2774  -19.9297  -18.3352 O   0  0  0  0  0  0  0  0  0  0  0  0
  2  1  1  0
  3  2  2  0
  4  2  1  0
  5  4  1  0
  6  5  1  0
  6  7  1  1
  8  6  1  0
  9  8  2  0
 11 10  1  0
 12 14  1  0
 12 11  1  0
 12 13  1  6
 14 15  1  1
 15  8  1  0
 16 17  2  0
 16 14  1  0
 18 19  1  0
 20 19  1  0
 20 21  1  0
 22 21  1  6
 22 23  1  0
 23 16  1  0
 24 22  1  0
 25 24  2  0
 26 24  1  0
M  END
$$$$
