QIM.pdb
     RDKit          3D

 26 25  0  0  1  0  0  0  0  0999 V2000
   26.0906  -17.7640  -17.9000 N   0  0  0  0  0  0  0  0  0  0  0  0
   27.0900  -18.7720  -18.0836 C   0  0  0  0  0  0  0  0  0  0  0  0
   28.2631  -18.4726  -17.7664 O   0  0  0  0  0  0  0  0  0  0  0  0
   26.7099  -20.1121  -18.6330 C   0  0  0  0  0  0  0  0  0  0  0  0
   25.9754  -20.8836  -17.5579 C   0  0  0  0  0  0  0  0  0  0  0  0
   26.8468  -21.1074  -16.3440 C   0  0  2  0  0  0  0  0  0  0  0  0
   27.9494  -21.9793  -16.6843 N   0  0  0  0  0  0  0  0  0  0  0  0
   26.0907  -21.7275  -15.2277 C   0  0  0  0  0  0  0  0  0  0  0  0
   25.9703  -22.9983  -15.2185 O   0  0  0  0  0  0  0  0  0  0  0  0
   25.3448  -20.8178   -9.3676 C   0  0  0  0  0  0  0  0  0  0  0  0
   24.6940  -21.4010  -10.5892 C   0  0  0  0  0  0  0  0  0  0  0  0
   25.3374  -21.0681  -11.8697 C   0  0  2  0  0  0  0  0  0  0  0  0
   25.3063  -19.5382  -12.0054 C   0  0  0  0  0  0  0  0  0  0  0  0
   24.7605  -21.6139  -13.1275 C   0  0  2  0  0  0  0  0  0  0  0  0
   25.5209  -20.9433  -14.2061 N   0  0  0  0  0  0  0  0  0  0  0  0
   23.3205  -21.2463  -13.2899 C   0  0  0  0  0  0  0  0  0  0  0  0
   23.0403  -20.0622  -13.6971 O   0  0  0  0  0  0  0  0  0  0  0  0
   18.4694  -25.1999  -15.0881 C   0  0  0  0  0  0  0  0  0  0  0  0
   17.5192  -23.8550  -14.3469 S   0  0  0  0  0  0  0  0  0  0  0  0
   18.5676  -22.4534  -13.9364 C   0  0  0  0  0  0  0  0  0  0  0  0
   19.9997  -22.8914  -13.6460 C   0  0  0  0  0  0  0  0  0  0  0  0
   20.8807  -21.6937  -13.3634 C   0  0  2  0  0  0  0  0  0  0  0  0
   22.2381  -22.1088  -13.0302 N   0  0  0  0  0  0  0  0  0  0  0  0
   20.3511  -20.8752  -12.2682 C   0  0  0  0  0  0  0  0  0  0  0  0
   20.6862  -21.1076  -11.0759 O   0  0  0  0  0  0  0  0  0  0  0  0
   19.4729  -19.8255  -12.4850 O   0  0  0  0  0  0  0  0  0  0  0  0
  2  1  1  0
  3  2  2  0
  4  2  1  0
  5  4  1  0
  6  5  1  0
  6  7  1  6
  8  6  1  0
  9  8  2  0
 11 10  1  0
 12 14  1  0
 12 11  1  0
 12 13  1  6
 14 15  1  6
 15  8  1  0
 16 17  2  0
 16 14  1  0
 18 19  1  0
 20 19  1  0
 20 21  1  0
 22 21  1  1
 22 23  1  0
 23 16  1  0
 24 22  1  0
 25 24  2  0
 26 24  1  0
M  END
$$$$
