QIM.pdb
     RDKit          3D

 26 25  0  0  1  0  0  0  0  0999 V2000
   29.2921  -23.8837  -17.7970 N   0  0  0  0  0  0  0  0  0  0  0  0
   29.8435  -22.5727  -17.9572 C   0  0  0  0  0  0  0  0  0  0  0  0
   30.5926  -22.3886  -18.9428 O   0  0  0  0  0  0  0  0  0  0  0  0
   29.5156  -21.4965  -16.9691 C   0  0  0  0  0  0  0  0  0  0  0  0
   28.6206  -22.0812  -15.8979 C   0  0  0  0  0  0  0  0  0  0  0  0
   27.1689  -21.7412  -16.1433 C   0  0  2  0  0  0  0  0  0  0  0  0
   27.0131  -20.3083  -16.2629 N   0  0  0  0  0  0  0  0  0  0  0  0
   26.2965  -22.2136  -15.0396 C   0  0  0  0  0  0  0  0  0  0  0  0
   26.2678  -23.4657  -14.7926 O   0  0  0  0  0  0  0  0  0  0  0  0
   25.1840  -20.7871   -9.4791 C   0  0  0  0  0  0  0  0  0  0  0  0
   24.5214  -21.3945  -10.6826 C   0  0  0  0  0  0  0  0  0  0  0  0
   25.2357  -21.2159  -11.9564 C   0  0  2  0  0  0  0  0  0  0  0  0
   25.3039  -19.7052  -12.2269 C   0  0  0  0  0  0  0  0  0  0  0  0
   24.6781  -21.8389  -13.1868 C   0  0  2  0  0  0  0  0  0  0  0  0
   25.5214  -21.3130  -14.2838 N   0  0  0  0  0  0  0  0  0  0  0  0
   23.2711  -21.4054  -13.4468 C   0  0  0  0  0  0  0  0  0  0  0  0
   23.0774  -20.2251  -13.9114 O   0  0  0  0  0  0  0  0  0  0  0  0
   19.8504  -24.6513  -16.6934 C   0  0  0  0  0  0  0  0  0  0  0  0
   18.4984  -23.5101  -16.3317 S   0  0  0  0  0  0  0  0  0  0  0  0
   19.0114  -22.2181  -15.1917 C   0  0  0  0  0  0  0  0  0  0  0  0
   19.9124  -22.7683  -14.0906 C   0  0  0  0  0  0  0  0  0  0  0  0
   20.8064  -21.6808  -13.5348 C   0  0  2  0  0  0  0  0  0  0  0  0
   22.1316  -22.2015  -13.2210 N   0  0  0  0  0  0  0  0  0  0  0  0
   20.2367  -21.0717  -12.3289 C   0  0  0  0  0  0  0  0  0  0  0  0
   20.4682  -21.5648  -11.1926 O   0  0  0  0  0  0  0  0  0  0  0  0
   19.4310  -19.9453  -12.3772 O   0  0  0  0  0  0  0  0  0  0  0  0
  2  1  1  0
  3  2  2  0
  4  2  1  0
  5  4  1  0
  6  5  1  0
  6  7  1  1
  8  6  1  0
  9  8  2  0
 11 10  1  0
 12 14  1  0
 12 11  1  0
 12 13  1  6
 14 15  1  6
 15  8  1  0
 16 17  2  0
 16 14  1  0
 18 19  1  0
 20 19  1  0
 20 21  1  0
 22 21  1  1
 22 23  1  0
 23 16  1  0
 24 22  1  0
 25 24  2  0
 26 24  1  0
M  END
$$$$
