QIM.pdb
     RDKit          3D

 26 25  0  0  1  0  0  0  0  0999 V2000
   29.7139  -20.6083  -19.5420 N   0  0  0  0  0  0  0  0  0  0  0  0
   28.4350  -20.1740  -19.0682 C   0  0  0  0  0  0  0  0  0  0  0  0
   27.4531  -20.3784  -19.8170 O   0  0  0  0  0  0  0  0  0  0  0  0
   28.3177  -19.5089  -17.7318 C   0  0  0  0  0  0  0  0  0  0  0  0
   27.2014  -20.1757  -16.9574 C   0  0  0  0  0  0  0  0  0  0  0  0
   27.7422  -21.0712  -15.8671 C   0  0  2  0  0  0  0  0  0  0  0  0
   28.3981  -22.2189  -16.4538 N   0  0  0  0  0  0  0  0  0  0  0  0
   26.6668  -21.5588  -14.9682 C   0  0  0  0  0  0  0  0  0  0  0  0
   26.0014  -22.5856  -15.3321 O   0  0  0  0  0  0  0  0  0  0  0  0
   25.3958  -21.0229   -9.0080 C   0  0  0  0  0  0  0  0  0  0  0  0
   24.8748  -21.4078  -10.3633 C   0  0  0  0  0  0  0  0  0  0  0  0
   25.7709  -21.1150  -11.4928 C   0  0  2  0  0  0  0  0  0  0  0  0
   26.0141  -19.5980  -11.4937 C   0  0  0  0  0  0  0  0  0  0  0  0
   25.3333  -21.4717  -12.8690 C   0  0  2  0  0  0  0  0  0  0  0  0
   26.3841  -20.9129  -13.7492 N   0  0  0  0  0  0  0  0  0  0  0  0
   24.0393  -20.8174  -13.2334 C   0  0  0  0  0  0  0  0  0  0  0  0
   24.0425  -19.5545  -13.4601 O   0  0  0  0  0  0  0  0  0  0  0  0
   19.6652  -22.9283  -17.2697 C   0  0  0  0  0  0  0  0  0  0  0  0
   19.0140  -21.2842  -16.9036 S   0  0  0  0  0  0  0  0  0  0  0  0
   19.7378  -20.6057  -15.4042 C   0  0  0  0  0  0  0  0  0  0  0  0
   21.0158  -21.3425  -15.0163 C   0  0  0  0  0  0  0  0  0  0  0  0
   21.6145  -20.7530  -13.7574 C   0  0  2  0  0  0  0  0  0  0  0  0
   22.8063  -21.4876  -13.3503 N   0  0  0  0  0  0  0  0  0  0  0  0
   20.6553  -20.7503  -12.6485 C   0  0  0  0  0  0  0  0  0  0  0  0
   20.6776  -21.6641  -11.7811 O   0  0  0  0  0  0  0  0  0  0  0  0
   19.6950  -19.7622  -12.5014 O   0  0  0  0  0  0  0  0  0  0  0  0
  2  1  1  0
  3  2  2  0
  4  2  1  0
  5  4  1  0
  6  5  1  0
  6  7  1  6
  8  6  1  0
  9  8  2  0
 11 10  1  0
 12 14  1  0
 12 11  1  0
 12 13  1  6
 14 15  1  6
 15  8  1  0
 16 17  2  0
 16 14  1  0
 18 19  1  0
 20 19  1  0
 20 21  1  0
 22 21  1  6
 22 23  1  0
 23 16  1  0
 24 22  1  0
 25 24  2  0
 26 24  1  0
M  END
$$$$
