QIM.pdb
     RDKit          3D

 26 25  0  0  1  0  0  0  0  0999 V2000
   21.0827  -25.4960  -15.9926 N   0  0  0  0  0  0  0  0  0  0  0  0
   21.1764  -24.0691  -16.0535 C   0  0  0  0  0  0  0  0  0  0  0  0
   20.2029  -23.4171  -15.6133 O   0  0  0  0  0  0  0  0  0  0  0  0
   22.4001  -23.4226  -16.6249 C   0  0  0  0  0  0  0  0  0  0  0  0
   23.5348  -23.5785  -15.6357 C   0  0  0  0  0  0  0  0  0  0  0  0
   23.4555  -22.5462  -14.5351 C   0  0  2  0  0  0  0  0  0  0  0  0
   23.2574  -21.2325  -15.1067 N   0  0  0  0  0  0  0  0  0  0  0  0
   24.6925  -22.5156  -13.7159 C   0  0  0  0  0  0  0  0  0  0  0  0
   25.3163  -23.6139  -13.5313 O   0  0  0  0  0  0  0  0  0  0  0  0
   29.6471  -21.1796  -12.6865 C   0  0  0  0  0  0  0  0  0  0  0  0
   28.6264  -20.1309  -12.3480 C   0  0  0  0  0  0  0  0  0  0  0  0
   27.2905  -20.3364  -12.9291 C   0  0  2  0  0  0  0  0  0  0  0  0
   26.5522  -18.9915  -12.8486 C   0  0  0  0  0  0  0  0  0  0  0  0
   26.3884  -21.3488  -12.3176 C   0  0  2  0  0  0  0  0  0  0  0  0
   25.1692  -21.3144  -13.1564 N   0  0  0  0  0  0  0  0  0  0  0  0
   25.9925  -20.9786  -10.9242 C   0  0  0  0  0  0  0  0  0  0  0  0
   24.9648  -20.2268  -10.7666 O   0  0  0  0  0  0  0  0  0  0  0  0
   29.9290  -20.7364   -5.7425 C   0  0  0  0  0  0  0  0  0  0  0  0
   28.5231  -19.7440   -5.1949 S   0  0  0  0  0  0  0  0  0  0  0  0
   27.1010  -19.9615   -6.2730 C   0  0  0  0  0  0  0  0  0  0  0  0
   27.5061  -20.5424   -7.6240 C   0  0  0  0  0  0  0  0  0  0  0  0
   26.2853  -20.8522   -8.4632 C   0  0  2  0  0  0  0  0  0  0  0  0
   26.6660  -21.3976   -9.7607 N   0  0  0  0  0  0  0  0  0  0  0  0
   25.4531  -19.6634   -8.6725 C   0  0  0  0  0  0  0  0  0  0  0  0
   25.8330  -18.7447   -9.4469 O   0  0  0  0  0  0  0  0  0  0  0  0
   24.2309  -19.4936   -8.0419 O   0  0  0  0  0  0  0  0  0  0  0  0
  2  1  1  0
  3  2  2  0
  4  2  1  0
  5  4  1  0
  6  5  1  0
  6  7  1  6
  8  6  1  0
  9  8  2  0
 11 10  1  0
 12 14  1  0
 12 11  1  0
 12 13  1  1
 14 15  1  6
 15  8  1  0
 16 17  2  0
 16 14  1  0
 18 19  1  0
 20 19  1  0
 20 21  1  0
 22 21  1  6
 22 23  1  0
 23 16  1  0
 24 22  1  0
 25 24  2  0
 26 24  1  0
M  END
$$$$
