QIM.pdb
     RDKit          3D

 26 25  0  0  1  0  0  0  0  0999 V2000
   30.5944  -21.9935  -17.9789 N   0  0  0  0  0  0  0  0  0  0  0  0
   30.2707  -23.3801  -17.8333 C   0  0  0  0  0  0  0  0  0  0  0  0
   30.9004  -24.1884  -18.5521 O   0  0  0  0  0  0  0  0  0  0  0  0
   29.2204  -23.8052  -16.8545 C   0  0  0  0  0  0  0  0  0  0  0  0
   28.7998  -22.5986  -16.0436 C   0  0  0  0  0  0  0  0  0  0  0  0
   27.4164  -22.1281  -16.4282 C   0  0  2  0  0  0  0  0  0  0  0  0
   27.4590  -21.4804  -17.7206 N   0  0  0  0  0  0  0  0  0  0  0  0
   26.8665  -21.1643  -15.4427 C   0  0  0  0  0  0  0  0  0  0  0  0
   27.3891  -20.0011  -15.3864 O   0  0  0  0  0  0  0  0  0  0  0  0
   23.4901  -19.7377  -16.5038 C   0  0  0  0  0  0  0  0  0  0  0  0
   23.4950  -19.2962  -15.0681 C   0  0  0  0  0  0  0  0  0  0  0  0
   23.8349  -20.3378  -14.0863 C   0  0  2  0  0  0  0  0  0  0  0  0
   23.0382  -20.0307  -12.8092 C   0  0  0  0  0  0  0  0  0  0  0  0
   25.2538  -20.4968  -13.6689 C   0  0  2  0  0  0  0  0  0  0  0  0
   25.8004  -21.5163  -14.5926 N   0  0  0  0  0  0  0  0  0  0  0  0
   25.3727  -21.0327  -12.2782 C   0  0  0  0  0  0  0  0  0  0  0  0
   24.9080  -22.2045  -12.0393 O   0  0  0  0  0  0  0  0  0  0  0  0
   29.0516  -19.0141   -7.1581 C   0  0  0  0  0  0  0  0  0  0  0  0
   27.6262  -19.7309   -6.3122 S   0  0  0  0  0  0  0  0  0  0  0  0
   26.5386  -20.5868   -7.4597 C   0  0  0  0  0  0  0  0  0  0  0  0
   26.7592  -20.1192   -8.8948 C   0  0  0  0  0  0  0  0  0  0  0  0
   25.8803  -20.8938   -9.8530 C   0  0  2  0  0  0  0  0  0  0  0  0
   25.9634  -20.3443  -11.2010 N   0  0  0  0  0  0  0  0  0  0  0  0
   24.4778  -20.8945   -9.4252 C   0  0  0  0  0  0  0  0  0  0  0  0
   23.6794  -20.0163   -9.8484 O   0  0  0  0  0  0  0  0  0  0  0  0
   23.9698  -21.8425   -8.5514 O   0  0  0  0  0  0  0  0  0  0  0  0
  2  1  1  0
  3  2  2  0
  4  2  1  0
  5  4  1  0
  6  5  1  0
  6  7  1  6
  8  6  1  0
  9  8  2  0
 11 10  1  0
 12 14  1  0
 12 11  1  0
 12 13  1  1
 14 15  1  6
 15  8  1  0
 16 17  2  0
 16 14  1  0
 18 19  1  0
 20 19  1  0
 20 21  1  0
 22 21  1  1
 22 23  1  0
 23 16  1  0
 24 22  1  0
 25 24  2  0
 26 24  1  0
M  END
$$$$
