CDH.pdb
     RDKit          3D

 25 25  0  0  1  0  0  0  0  0999 V2000
   10.0727  -16.5454   14.7116 N   0  0  0  0  0  0  0  0  0  0  0  0
   10.2096  -15.3568   15.5198 C   0  0  1  0  0  0  0  0  0  0  0  0
    8.8063  -14.8882   15.9118 C   0  0  0  0  0  0  0  0  0  0  0  0
    8.9541  -13.3307   16.8031 S   0  0  0  0  0  0  0  0  0  0  0  0
   11.0499  -15.6545   16.6994 C   0  0  0  0  0  0  0  0  0  0  0  0
   10.9007  -16.7668   17.3087 O   0  0  0  0  0  0  0  0  0  0  0  0
   12.0343  -14.7541   17.2019 N   0  0  0  0  0  0  0  0  0  0  0  0
   12.8767  -15.1713   18.2768 C   0  0  1  0  0  0  0  0  0  0  0  0
   14.2229  -14.4520   18.0696 C   0  0  0  0  0  0  0  0  0  0  0  0
   14.9517  -15.2326   17.0344 C   0  0  0  0  0  0  0  0  0  0  0  0
   15.1576  -16.4569   17.1630 O   0  0  0  0  0  0  0  0  0  0  0  0
   12.3873  -14.8052   19.6091 C   0  0  0  0  0  0  0  0  0  0  0  0
   12.6229  -13.7109   20.1802 O   0  0  0  0  0  0  0  0  0  0  0  0
   15.4229  -14.6005   15.8893 O   0  0  0  0  0  0  0  0  0  0  0  0
   11.5811  -15.7610   20.3159 N   0  0  0  0  0  0  0  0  0  0  0  0
   11.2594  -15.5700   21.7297 C   0  0  1  0  0  0  0  0  0  0  0  0
    9.7811  -15.7318   21.9028 C   0  0  0  0  0  0  0  0  0  0  0  0
    8.9798  -14.6070   21.4110 C   0  0  0  0  0  0  0  0  0  0  0  0
    9.4916  -13.4632   20.8432 C   0  0  0  0  0  0  0  0  0  0  0  0
    8.4403  -12.6899   20.5359 N   0  0  0  0  0  0  0  0  0  0  0  0
    7.3130  -13.3158   20.8926 C   0  0  0  0  0  0  0  0  0  0  0  0
    7.6435  -14.4952   21.4309 N   0  0  0  0  0  0  0  0  0  0  0  0
   11.9776  -16.5812   22.5638 C   0  0  0  0  0  0  0  0  0  0  0  0
   12.6389  -17.5197   22.0495 O   0  0  0  0  0  0  0  0  0  0  0  0
   11.9444  -16.5249   23.9484 O   0  0  0  0  0  0  0  0  0  0  0  0
  2  5  1  0
  2  1  1  6
  3  2  1  0
  4  3  1  0
  5  6  2  0
  7  8  1  0
  7  5  1  0
  9 10  1  0
  8  9  1  6
 10 14  1  0
 11 10  2  0
 12 15  1  0
 12  8  1  0
 13 12  2  0
 16 15  1  0
 16 17  1  6
 18 17  1  0
 18 19  2  0
 20 19  1  0
 21 22  2  0
 21 20  1  0
 22 18  1  0
 23 16  1  0
 24 23  2  0
 25 23  1  0
M  END
$$$$
