CDH.pdb
     RDKit          3D

 25 25  0  0  1  0  0  0  0  0999 V2000
    7.1104  -15.7807   18.1944 N   0  0  0  0  0  0  0  0  0  0  0  0
    8.0407  -15.0406   19.0138 C   0  0  1  0  0  0  0  0  0  0  0  0
    7.2943  -13.8474   19.6151 C   0  0  0  0  0  0  0  0  0  0  0  0
    8.5071  -12.6842   20.2621 S   0  0  0  0  0  0  0  0  0  0  0  0
    8.6019  -15.9306   20.0525 C   0  0  0  0  0  0  0  0  0  0  0  0
    7.8171  -16.6843   20.7209 O   0  0  0  0  0  0  0  0  0  0  0  0
    9.9939  -15.9959   20.3534 N   0  0  0  0  0  0  0  0  0  0  0  0
   10.4309  -16.7787   21.4649 C   0  0  1  0  0  0  0  0  0  0  0  0
   11.6776  -17.5453   20.9847 C   0  0  0  0  0  0  0  0  0  0  0  0
   11.3719  -18.9885   21.1742 C   0  0  0  0  0  0  0  0  0  0  0  0
   11.0286  -19.4439   22.2845 O   0  0  0  0  0  0  0  0  0  0  0  0
   10.8255  -15.9971   22.6403 C   0  0  0  0  0  0  0  0  0  0  0  0
   11.7129  -15.1073   22.6407 O   0  0  0  0  0  0  0  0  0  0  0  0
   11.4658  -19.8667   20.1007 O   0  0  0  0  0  0  0  0  0  0  0  0
   10.1535  -16.2628   23.8817 N   0  0  0  0  0  0  0  0  0  0  0  0
   10.5913  -15.6240   25.1223 C   0  0  1  0  0  0  0  0  0  0  0  0
    9.4489  -15.6407   26.0898 C   0  0  0  0  0  0  0  0  0  0  0  0
    9.7601  -15.0964   27.4149 C   0  0  0  0  0  0  0  0  0  0  0  0
    9.8061  -13.7571   27.7261 C   0  0  0  0  0  0  0  0  0  0  0  0
   10.1264  -13.6811   29.0259 N   0  0  0  0  0  0  0  0  0  0  0  0
   10.2764  -14.9168   29.5161 C   0  0  0  0  0  0  0  0  0  0  0  0
   10.0512  -15.7883   28.5263 N   0  0  0  0  0  0  0  0  0  0  0  0
   11.7531  -16.3643   25.7022 C   0  0  0  0  0  0  0  0  0  0  0  0
   12.6759  -15.7749   26.3216 O   0  0  0  0  0  0  0  0  0  0  0  0
   11.8613  -17.7408   25.5805 O   0  0  0  0  0  0  0  0  0  0  0  0
  2  5  1  0
  2  1  1  1
  3  2  1  0
  4  3  1  0
  5  6  2  0
  7  8  1  0
  7  5  1  0
  9 10  1  0
  8  9  1  6
 10 14  1  0
 11 10  2  0
 12 15  1  0
 12  8  1  0
 13 12  2  0
 16 15  1  0
 16 17  1  1
 18 17  1  0
 18 19  2  0
 20 19  1  0
 21 22  2  0
 21 20  1  0
 22 18  1  0
 23 16  1  0
 24 23  2  0
 25 23  1  0
M  END
$$$$
