CDH.pdb
     RDKit          3D

 25 25  0  0  1  0  0  0  0  0999 V2000
    6.4829  -14.9117   20.1563 N   0  0  0  0  0  0  0  0  0  0  0  0
    7.8641  -14.6047   20.4443 C   0  0  1  0  0  0  0  0  0  0  0  0
    7.9458  -13.1304   20.8472 C   0  0  0  0  0  0  0  0  0  0  0  0
    6.9779  -12.8953   22.3472 S   0  0  0  0  0  0  0  0  0  0  0  0
    8.3593  -15.5037   21.5086 C   0  0  0  0  0  0  0  0  0  0  0  0
    7.5202  -16.1497   22.2222 O   0  0  0  0  0  0  0  0  0  0  0  0
    9.7448  -15.6933   21.7860 N   0  0  0  0  0  0  0  0  0  0  0  0
   10.1383  -16.7108   22.7075 C   0  0  1  0  0  0  0  0  0  0  0  0
   11.5493  -17.1549   22.2778 C   0  0  0  0  0  0  0  0  0  0  0  0
   11.8288  -18.4130   23.0202 C   0  0  0  0  0  0  0  0  0  0  0  0
   10.9210  -19.0493   23.5937 O   0  0  0  0  0  0  0  0  0  0  0  0
   10.2268  -16.2663   24.1014 C   0  0  0  0  0  0  0  0  0  0  0  0
   11.0212  -15.3878   24.5214 O   0  0  0  0  0  0  0  0  0  0  0  0
   13.1264  -18.9074   23.0884 O   0  0  0  0  0  0  0  0  0  0  0  0
    9.3454  -16.8744   25.0588 N   0  0  0  0  0  0  0  0  0  0  0  0
    9.4328  -16.5351   26.4786 C   0  0  1  0  0  0  0  0  0  0  0  0
    8.0689  -16.1409   26.9539 C   0  0  0  0  0  0  0  0  0  0  0  0
    7.6631  -14.7798   26.5909 C   0  0  0  0  0  0  0  0  0  0  0  0
    8.5070  -13.6949   26.5317 C   0  0  0  0  0  0  0  0  0  0  0  0
    7.7523  -12.6474   26.1700 N   0  0  0  0  0  0  0  0  0  0  0  0
    6.4872  -13.0506   26.0070 C   0  0  0  0  0  0  0  0  0  0  0  0
    6.4310  -14.3621   26.2655 N   0  0  0  0  0  0  0  0  0  0  0  0
    9.9182  -17.7119   27.2618 C   0  0  0  0  0  0  0  0  0  0  0  0
   10.1776  -18.8145   26.7145 O   0  0  0  0  0  0  0  0  0  0  0  0
   10.1043  -17.6353   28.6333 O   0  0  0  0  0  0  0  0  0  0  0  0
  2  5  1  0
  2  1  1  1
  3  2  1  0
  4  3  1  0
  5  6  2  0
  7  8  1  0
  7  5  1  0
  9 10  1  0
  8  9  1  6
 10 14  1  0
 11 10  2  0
 12 15  1  0
 12  8  1  0
 13 12  2  0
 16 15  1  0
 16 17  1  1
 18 17  1  0
 18 19  2  0
 20 19  1  0
 21 22  2  0
 21 20  1  0
 22 18  1  0
 23 16  1  0
 24 23  2  0
 25 23  1  0
M  END
$$$$
