CDH.pdb
     RDKit          3D

 25 25  0  0  1  0  0  0  0  0999 V2000
   10.2176  -15.8422   14.4901 N   0  0  0  0  0  0  0  0  0  0  0  0
    9.2025  -15.6304   15.4948 C   0  0  1  0  0  0  0  0  0  0  0  0
    7.8882  -16.2114   14.9679 C   0  0  0  0  0  0  0  0  0  0  0  0
    7.3949  -15.2748   13.5112 S   0  0  0  0  0  0  0  0  0  0  0  0
    9.6236  -16.2606   16.7643 C   0  0  0  0  0  0  0  0  0  0  0  0
    8.7967  -16.3241   17.7353 O   0  0  0  0  0  0  0  0  0  0  0  0
   10.9228  -16.8114   16.9672 N   0  0  0  0  0  0  0  0  0  0  0  0
   11.2301  -17.4301   18.2170 C   0  0  1  0  0  0  0  0  0  0  0  0
   12.6099  -18.0914   18.0393 C   0  0  0  0  0  0  0  0  0  0  0  0
   12.3962  -19.2532   17.1356 C   0  0  0  0  0  0  0  0  0  0  0  0
   11.5431  -20.1290   17.3869 O   0  0  0  0  0  0  0  0  0  0  0  0
   11.3344  -16.5004   19.3454 C   0  0  0  0  0  0  0  0  0  0  0  0
   12.2046  -15.5999   19.4502 O   0  0  0  0  0  0  0  0  0  0  0  0
   13.1558  -19.3842   15.9787 O   0  0  0  0  0  0  0  0  0  0  0  0
   10.3766  -16.6229   20.4088 N   0  0  0  0  0  0  0  0  0  0  0  0
   10.4939  -15.8114   21.6199 C   0  0  1  0  0  0  0  0  0  0  0  0
    9.1806  -15.1354   21.8634 C   0  0  0  0  0  0  0  0  0  0  0  0
    8.8488  -14.0774   20.9044 C   0  0  0  0  0  0  0  0  0  0  0  0
    9.6546  -13.6750   19.8645 C   0  0  0  0  0  0  0  0  0  0  0  0
    8.9965  -12.6914   19.2342 N   0  0  0  0  0  0  0  0  0  0  0  0
    7.8262  -12.4804   19.8471 C   0  0  0  0  0  0  0  0  0  0  0  0
    7.7341  -13.3323   20.8746 N   0  0  0  0  0  0  0  0  0  0  0  0
   10.8397  -16.6759   22.7891 C   0  0  0  0  0  0  0  0  0  0  0  0
   10.7913  -17.9314   22.7261 O   0  0  0  0  0  0  0  0  0  0  0  0
   11.2313  -16.1251   23.9993 O   0  0  0  0  0  0  0  0  0  0  0  0
  2  5  1  0
  2  1  1  6
  3  2  1  0
  4  3  1  0
  5  6  2  0
  7  8  1  0
  7  5  1  0
  9 10  1  0
  8  9  1  6
 10 14  1  0
 11 10  2  0
 12 15  1  0
 12  8  1  0
 13 12  2  0
 16 15  1  0
 16 17  1  1
 18 17  1  0
 18 19  2  0
 20 19  1  0
 21 22  2  0
 21 20  1  0
 22 18  1  0
 23 16  1  0
 24 23  2  0
 25 23  1  0
M  END
$$$$
