CDH.pdb
     RDKit          3D

 25 25  0  0  1  0  0  0  0  0999 V2000
    7.4785  -14.3721   17.9538 N   0  0  0  0  0  0  0  0  0  0  0  0
    8.8088  -14.3345   18.5136 C   0  0  1  0  0  0  0  0  0  0  0  0
    9.1270  -12.8823   18.8774 C   0  0  0  0  0  0  0  0  0  0  0  0
    8.0175  -12.3702   20.2000 S   0  0  0  0  0  0  0  0  0  0  0  0
    8.8781  -15.2329   19.6859 C   0  0  0  0  0  0  0  0  0  0  0  0
    7.7990  -15.5712   20.2790 O   0  0  0  0  0  0  0  0  0  0  0  0
   10.1030  -15.7517   20.1985 N   0  0  0  0  0  0  0  0  0  0  0  0
   10.0828  -16.5357   21.3919 C   0  0  1  0  0  0  0  0  0  0  0  0
   11.3686  -17.3836   21.3687 C   0  0  0  0  0  0  0  0  0  0  0  0
   11.3085  -18.2555   22.5722 C   0  0  0  0  0  0  0  0  0  0  0  0
   10.2660  -18.8661   22.8859 O   0  0  0  0  0  0  0  0  0  0  0  0
   10.0980  -15.7545   22.6320 C   0  0  0  0  0  0  0  0  0  0  0  0
   10.8175  -14.7433   22.8298 O   0  0  0  0  0  0  0  0  0  0  0  0
   12.4302  -18.4060   23.3795 O   0  0  0  0  0  0  0  0  0  0  0  0
    9.2311  -16.1695   23.6994 N   0  0  0  0  0  0  0  0  0  0  0  0
    8.9890  -15.2990   24.8494 C   0  0  1  0  0  0  0  0  0  0  0  0
    7.5846  -14.7873   24.7659 C   0  0  0  0  0  0  0  0  0  0  0  0
    7.2299  -13.8008   25.7906 C   0  0  0  0  0  0  0  0  0  0  0  0
    8.0763  -13.3491   26.7766 C   0  0  0  0  0  0  0  0  0  0  0  0
    7.3748  -12.4673   27.5033 N   0  0  0  0  0  0  0  0  0  0  0  0
    6.1394  -12.3648   27.0001 C   0  0  0  0  0  0  0  0  0  0  0  0
    6.0490  -13.1844   25.9465 N   0  0  0  0  0  0  0  0  0  0  0  0
    9.1724  -16.0615   26.1218 C   0  0  0  0  0  0  0  0  0  0  0  0
    8.9291  -17.2932   26.2006 O   0  0  0  0  0  0  0  0  0  0  0  0
    9.6219  -15.4376   27.2751 O   0  0  0  0  0  0  0  0  0  0  0  0
  2  5  1  0
  2  1  1  1
  3  2  1  0
  4  3  1  0
  5  6  2  0
  7  8  1  0
  7  5  1  0
  9 10  1  0
  8  9  1  1
 10 14  1  0
 11 10  2  0
 12 15  1  0
 12  8  1  0
 13 12  2  0
 16 15  1  0
 16 17  1  6
 18 17  1  0
 18 19  2  0
 20 19  1  0
 21 22  2  0
 21 20  1  0
 22 18  1  0
 23 16  1  0
 24 23  2  0
 25 23  1  0
M  END
$$$$
