CDH.pdb
     RDKit          3D

 25 25  0  0  1  0  0  0  0  0999 V2000
    8.3703  -15.5234   17.2116 N   0  0  0  0  0  0  0  0  0  0  0  0
    8.8097  -14.4779   18.1052 C   0  0  1  0  0  0  0  0  0  0  0  0
    7.6332  -13.5256   18.3323 C   0  0  0  0  0  0  0  0  0  0  0  0
    8.2035  -12.1456   19.3387 S   0  0  0  0  0  0  0  0  0  0  0  0
    9.2960  -15.0769   19.3666 C   0  0  0  0  0  0  0  0  0  0  0  0
    9.9363  -14.3494   20.1981 O   0  0  0  0  0  0  0  0  0  0  0  0
    9.0851  -16.4439   19.7119 N   0  0  0  0  0  0  0  0  0  0  0  0
    9.5843  -16.9332   20.9571 C   0  0  1  0  0  0  0  0  0  0  0  0
    8.9829  -18.3399   21.1362 C   0  0  0  0  0  0  0  0  0  0  0  0
    9.3385  -18.7672   22.5158 C   0  0  0  0  0  0  0  0  0  0  0  0
   10.3769  -19.4184   22.7514 O   0  0  0  0  0  0  0  0  0  0  0  0
   11.0424  -17.0720   21.0144 C   0  0  0  0  0  0  0  0  0  0  0  0
   11.7164  -17.8341   20.2768 O   0  0  0  0  0  0  0  0  0  0  0  0
    8.5063  -18.4430   23.5812 O   0  0  0  0  0  0  0  0  0  0  0  0
   11.7559  -16.2832   21.9797 N   0  0  0  0  0  0  0  0  0  0  0  0
   13.1986  -16.4430   22.1587 C   0  0  1  0  0  0  0  0  0  0  0  0
   13.8530  -15.1180   21.9192 C   0  0  0  0  0  0  0  0  0  0  0  0
   14.0603  -14.7832   20.5072 C   0  0  0  0  0  0  0  0  0  0  0  0
   13.6969  -15.5802   19.4464 C   0  0  0  0  0  0  0  0  0  0  0  0
   14.0606  -14.9222   18.3362 N   0  0  0  0  0  0  0  0  0  0  0  0
   14.6287  -13.7602   18.6783 C   0  0  0  0  0  0  0  0  0  0  0  0
   14.6290  -13.6735   20.0134 N   0  0  0  0  0  0  0  0  0  0  0  0
   13.4981  -16.9090   23.5469 C   0  0  0  0  0  0  0  0  0  0  0  0
   12.6018  -17.0068   24.4242 O   0  0  0  0  0  0  0  0  0  0  0  0
   14.7855  -17.2556   23.9265 O   0  0  0  0  0  0  0  0  0  0  0  0
  2  5  1  0
  2  1  1  6
  3  2  1  0
  4  3  1  0
  5  6  2  0
  7  8  1  0
  7  5  1  0
  9 10  1  0
  8  9  1  6
 10 14  1  0
 11 10  2  0
 12 15  1  0
 12  8  1  0
 13 12  2  0
 16 15  1  0
 16 17  1  1
 18 17  1  0
 18 19  2  0
 20 19  1  0
 21 22  2  0
 21 20  1  0
 22 18  1  0
 23 16  1  0
 24 23  2  0
 25 23  1  0
M  END
$$$$
