CDH.pdb
     RDKit          3D

 25 25  0  0  1  0  0  0  0  0999 V2000
    8.7667  -15.4882   15.8159 N   0  0  0  0  0  0  0  0  0  0  0  0
    9.5157  -14.5283   16.5918 C   0  0  1  0  0  0  0  0  0  0  0  0
    8.5291  -13.7657   17.4793 C   0  0  0  0  0  0  0  0  0  0  0  0
    7.3910  -12.8598   16.4179 S   0  0  0  0  0  0  0  0  0  0  0  0
   10.5511  -15.2295   17.3807 C   0  0  0  0  0  0  0  0  0  0  0  0
   10.3303  -16.4210   17.7835 O   0  0  0  0  0  0  0  0  0  0  0  0
   11.8036  -14.6396   17.7212 N   0  0  0  0  0  0  0  0  0  0  0  0
   12.6999  -15.3512   18.5753 C   0  0  1  0  0  0  0  0  0  0  0  0
   14.1190  -14.9153   18.1647 C   0  0  0  0  0  0  0  0  0  0  0  0
   14.4736  -15.7349   16.9754 C   0  0  0  0  0  0  0  0  0  0  0  0
   14.5092  -15.2426   15.8290 O   0  0  0  0  0  0  0  0  0  0  0  0
   12.5470  -15.0505   20.0017 C   0  0  0  0  0  0  0  0  0  0  0  0
   12.8944  -13.9719   20.5450 O   0  0  0  0  0  0  0  0  0  0  0  0
   14.7754  -17.0838   17.1243 O   0  0  0  0  0  0  0  0  0  0  0  0
   11.9589  -16.0560   20.8421 N   0  0  0  0  0  0  0  0  0  0  0  0
   11.7027  -15.7932   22.2577 C   0  0  1  0  0  0  0  0  0  0  0  0
   10.2556  -16.0609   22.5326 C   0  0  0  0  0  0  0  0  0  0  0  0
    9.3238  -15.1779   21.8248 C   0  0  0  0  0  0  0  0  0  0  0  0
    9.6922  -14.1759   20.9572 C   0  0  0  0  0  0  0  0  0  0  0  0
    8.5553  -13.6067   20.5313 N   0  0  0  0  0  0  0  0  0  0  0  0
    7.5134  -14.2209   21.1032 C   0  0  0  0  0  0  0  0  0  0  0  0
    7.9848  -15.1877   21.8990 N   0  0  0  0  0  0  0  0  0  0  0  0
   12.5500  -16.6824   23.1095 C   0  0  0  0  0  0  0  0  0  0  0  0
   13.2263  -17.6242   22.6216 O   0  0  0  0  0  0  0  0  0  0  0  0
   12.6259  -16.5034   24.4820 O   0  0  0  0  0  0  0  0  0  0  0  0
  2  5  1  0
  2  1  1  1
  3  2  1  0
  4  3  1  0
  5  6  2  0
  7  8  1  0
  7  5  1  0
  9 10  1  0
  8  9  1  6
 10 14  1  0
 11 10  2  0
 12 15  1  0
 12  8  1  0
 13 12  2  0
 16 15  1  0
 16 17  1  6
 18 17  1  0
 18 19  2  0
 20 19  1  0
 21 22  2  0
 21 20  1  0
 22 18  1  0
 23 16  1  0
 24 23  2  0
 25 23  1  0
M  END
$$$$
