CDH.pdb
     RDKit          3D

 25 25  0  0  1  0  0  0  0  0999 V2000
    7.0897  -14.0309   18.7017 N   0  0  0  0  0  0  0  0  0  0  0  0
    8.4512  -14.1183   19.1744 C   0  0  1  0  0  0  0  0  0  0  0  0
    8.8372  -12.7563   19.7562 C   0  0  0  0  0  0  0  0  0  0  0  0
    7.8058  -12.4396   21.1977 S   0  0  0  0  0  0  0  0  0  0  0  0
    8.5598  -15.2040   20.1723 C   0  0  0  0  0  0  0  0  0  0  0  0
    7.4993  -15.6597   20.7185 O   0  0  0  0  0  0  0  0  0  0  0  0
    9.8035  -15.7804   20.5640 N   0  0  0  0  0  0  0  0  0  0  0  0
    9.8123  -16.8202   21.5427 C   0  0  1  0  0  0  0  0  0  0  0  0
   11.0182  -17.7166   21.2040 C   0  0  0  0  0  0  0  0  0  0  0  0
   10.8835  -18.9276   22.0569 C   0  0  0  0  0  0  0  0  0  0  0  0
    9.7681  -19.4239   22.3164 O   0  0  0  0  0  0  0  0  0  0  0  0
    9.9886  -16.3549   22.9214 C   0  0  0  0  0  0  0  0  0  0  0  0
   10.8671  -15.5361   23.2915 O   0  0  0  0  0  0  0  0  0  0  0  0
   12.0160  -19.5351   22.5872 O   0  0  0  0  0  0  0  0  0  0  0  0
    9.0969  -16.8678   23.9239 N   0  0  0  0  0  0  0  0  0  0  0  0
    9.2345  -16.4684   25.3241 C   0  0  1  0  0  0  0  0  0  0  0  0
    7.8702  -16.1781   25.8677 C   0  0  0  0  0  0  0  0  0  0  0  0
    7.3619  -14.8371   25.5635 C   0  0  0  0  0  0  0  0  0  0  0  0
    8.0849  -13.8405   24.9500 C   0  0  0  0  0  0  0  0  0  0  0  0
    7.2685  -12.7806   24.8606 N   0  0  0  0  0  0  0  0  0  0  0  0
    6.0815  -13.0920   25.3933 C   0  0  0  0  0  0  0  0  0  0  0  0
    6.1376  -14.3567   25.8259 N   0  0  0  0  0  0  0  0  0  0  0  0
    9.8682  -17.5673   26.1145 C   0  0  0  0  0  0  0  0  0  0  0  0
   10.0807  -17.4615   27.3499 O   0  0  0  0  0  0  0  0  0  0  0  0
   10.2496  -18.7570   25.5139 O   0  0  0  0  0  0  0  0  0  0  0  0
  2  5  1  0
  2  1  1  1
  3  2  1  0
  4  3  1  0
  5  6  2  0
  7  8  1  0
  7  5  1  0
  9 10  1  0
  8  9  1  6
 10 14  1  0
 11 10  2  0
 12 15  1  0
 12  8  1  0
 13 12  2  0
 16 15  1  0
 16 17  1  1
 18 17  1  0
 18 19  2  0
 20 19  1  0
 21 22  2  0
 21 20  1  0
 22 18  1  0
 23 16  1  0
 24 23  2  0
 25 23  1  0
M  END
$$$$
