CDH.pdb
     RDKit          3D

 25 25  0  0  1  0  0  0  0  0999 V2000
    6.3946  -16.2764   20.6094 N   0  0  0  0  0  0  0  0  0  0  0  0
    7.6853  -15.6315   20.6620 C   0  0  1  0  0  0  0  0  0  0  0  0
    7.4558  -14.1311   20.8581 C   0  0  0  0  0  0  0  0  0  0  0  0
    6.7751  -13.8694   22.5045 S   0  0  0  0  0  0  0  0  0  0  0  0
    8.4893  -16.2218   21.7535 C   0  0  0  0  0  0  0  0  0  0  0  0
    7.9076  -16.9170   22.6531 O   0  0  0  0  0  0  0  0  0  0  0  0
    9.9013  -16.0561   21.8584 N   0  0  0  0  0  0  0  0  0  0  0  0
   10.5843  -16.5955   22.9906 C   0  0  1  0  0  0  0  0  0  0  0  0
   12.0862  -16.5326   22.6543 C   0  0  0  0  0  0  0  0  0  0  0  0
   12.2872  -17.4436   21.4959 C   0  0  0  0  0  0  0  0  0  0  0  0
   12.0277  -18.6622   21.5696 O   0  0  0  0  0  0  0  0  0  0  0  0
   10.3842  -15.8461   24.2342 C   0  0  0  0  0  0  0  0  0  0  0  0
   10.1887  -14.6063   24.2969 O   0  0  0  0  0  0  0  0  0  0  0  0
   12.7756  -16.9440   20.2940 O   0  0  0  0  0  0  0  0  0  0  0  0
   10.4124  -16.5755   25.4713 N   0  0  0  0  0  0  0  0  0  0  0  0
    9.6523  -16.1121   26.6317 C   0  0  1  0  0  0  0  0  0  0  0  0
    8.1956  -16.1552   26.2889 C   0  0  0  0  0  0  0  0  0  0  0  0
    7.5032  -14.8673   26.3935 C   0  0  0  0  0  0  0  0  0  0  0  0
    8.0821  -13.6930   26.8156 C   0  0  0  0  0  0  0  0  0  0  0  0
    7.1204  -12.7596   26.7723 N   0  0  0  0  0  0  0  0  0  0  0  0
    5.9833  -13.3177   26.3417 C   0  0  0  0  0  0  0  0  0  0  0  0
    6.2174  -14.6140   26.1082 N   0  0  0  0  0  0  0  0  0  0  0  0
    9.9188  -16.9936   27.8089 C   0  0  0  0  0  0  0  0  0  0  0  0
    9.6690  -16.6261   28.9858 O   0  0  0  0  0  0  0  0  0  0  0  0
   10.4553  -18.2619   27.6503 O   0  0  0  0  0  0  0  0  0  0  0  0
  2  5  1  0
  2  1  1  1
  3  2  1  0
  4  3  1  0
  5  6  2  0
  7  8  1  0
  7  5  1  0
  9 10  1  0
  8  9  1  6
 10 14  1  0
 11 10  2  0
 12 15  1  0
 12  8  1  0
 13 12  2  0
 16 15  1  0
 16 17  1  6
 18 17  1  0
 18 19  2  0
 20 19  1  0
 21 22  2  0
 21 20  1  0
 22 18  1  0
 23 16  1  0
 24 23  2  0
 25 23  1  0
M  END
$$$$
