CDH.pdb
     RDKit          3D

 25 25  0  0  1  0  0  0  0  0999 V2000
    8.6582  -14.5176   17.3434 N   0  0  0  0  0  0  0  0  0  0  0  0
    9.7469  -13.7159   17.8500 C   0  0  1  0  0  0  0  0  0  0  0  0
    9.2198  -12.8955   19.0296 C   0  0  0  0  0  0  0  0  0  0  0  0
    7.9567  -11.7666   18.4192 S   0  0  0  0  0  0  0  0  0  0  0  0
   10.8704  -14.5954   18.2378 C   0  0  0  0  0  0  0  0  0  0  0  0
   10.6222  -15.7578   18.7047 O   0  0  0  0  0  0  0  0  0  0  0  0
   12.2380  -14.2115   18.1164 N   0  0  0  0  0  0  0  0  0  0  0  0
   13.2509  -15.0601   18.6580 C   0  0  1  0  0  0  0  0  0  0  0  0
   14.5580  -14.6800   17.9373 C   0  0  0  0  0  0  0  0  0  0  0  0
   14.5724  -15.4609   16.6716 C   0  0  0  0  0  0  0  0  0  0  0  0
   14.3647  -16.6916   16.6601 O   0  0  0  0  0  0  0  0  0  0  0  0
   13.4804  -14.8903   20.0957 C   0  0  0  0  0  0  0  0  0  0  0  0
   13.9339  -13.8461   20.6277 O   0  0  0  0  0  0  0  0  0  0  0  0
   14.8218  -14.8221   15.4623 O   0  0  0  0  0  0  0  0  0  0  0  0
   13.1662  -15.9921   20.9619 N   0  0  0  0  0  0  0  0  0  0  0  0
   13.3713  -15.8915   22.4065 C   0  0  1  0  0  0  0  0  0  0  0  0
   12.4051  -16.8122   23.0850 C   0  0  0  0  0  0  0  0  0  0  0  0
   10.9987  -16.4132   22.9758 C   0  0  0  0  0  0  0  0  0  0  0  0
   10.5534  -15.2413   22.4094 C   0  0  0  0  0  0  0  0  0  0  0  0
    9.2165  -15.2556   22.5111 N   0  0  0  0  0  0  0  0  0  0  0  0
    8.8322  -16.3861   23.1146 C   0  0  0  0  0  0  0  0  0  0  0  0
    9.9275  -17.0990   23.4009 N   0  0  0  0  0  0  0  0  0  0  0  0
   14.7705  -16.2822   22.7578 C   0  0  0  0  0  0  0  0  0  0  0  0
   15.5874  -16.6840   21.8896 O   0  0  0  0  0  0  0  0  0  0  0  0
   15.2285  -16.2164   24.0645 O   0  0  0  0  0  0  0  0  0  0  0  0
  2  5  1  0
  2  1  1  1
  3  2  1  0
  4  3  1  0
  5  6  2  0
  7  8  1  0
  7  5  1  0
  9 10  1  0
  8  9  1  6
 10 14  1  0
 11 10  2  0
 12 15  1  0
 12  8  1  0
 13 12  2  0
 16 15  1  0
 16 17  1  1
 18 17  1  0
 18 19  2  0
 20 19  1  0
 21 22  2  0
 21 20  1  0
 22 18  1  0
 23 16  1  0
 24 23  2  0
 25 23  1  0
M  END
$$$$
