CDH.pdb
     RDKit          3D

 25 25  0  0  1  0  0  0  0  0999 V2000
    8.1101  -14.4986   17.0427 N   0  0  0  0  0  0  0  0  0  0  0  0
    9.1518  -13.7296   17.6816 C   0  0  1  0  0  0  0  0  0  0  0  0
    8.4973  -12.8301   18.7328 C   0  0  0  0  0  0  0  0  0  0  0  0
    7.7543  -13.8771   19.9954 S   0  0  0  0  0  0  0  0  0  0  0  0
   10.1511  -14.6451   18.2727 C   0  0  0  0  0  0  0  0  0  0  0  0
    9.8521  -15.8758   18.4361 O   0  0  0  0  0  0  0  0  0  0  0  0
   11.4518  -14.2232   18.6758 N   0  0  0  0  0  0  0  0  0  0  0  0
   12.3443  -15.1746   19.2567 C   0  0  1  0  0  0  0  0  0  0  0  0
   13.7646  -14.7204   18.8705 C   0  0  0  0  0  0  0  0  0  0  0  0
   14.6688  -15.8451   19.2308 C   0  0  0  0  0  0  0  0  0  0  0  0
   15.5844  -15.7057   20.0675 O   0  0  0  0  0  0  0  0  0  0  0  0
   12.2911  -15.2426   20.7199 C   0  0  0  0  0  0  0  0  0  0  0  0
   12.8313  -14.4122   21.4931 O   0  0  0  0  0  0  0  0  0  0  0  0
   14.5058  -17.0888   18.6314 O   0  0  0  0  0  0  0  0  0  0  0  0
   11.5718  -16.3330   21.3171 N   0  0  0  0  0  0  0  0  0  0  0  0
   11.4871  -16.4678   22.7709 C   0  0  1  0  0  0  0  0  0  0  0  0
   10.1373  -17.0161   23.1157 C   0  0  0  0  0  0  0  0  0  0  0  0
    9.0099  -16.1803   22.6922 C   0  0  0  0  0  0  0  0  0  0  0  0
    8.9139  -14.8234   22.8971 C   0  0  0  0  0  0  0  0  0  0  0  0
    7.7410  -14.4429   22.3702 N   0  0  0  0  0  0  0  0  0  0  0  0
    7.1220  -15.5109   21.8545 C   0  0  0  0  0  0  0  0  0  0  0  0
    7.9015  -16.5802   22.0517 N   0  0  0  0  0  0  0  0  0  0  0  0
   12.5490  -17.3957   23.2662 C   0  0  0  0  0  0  0  0  0  0  0  0
   12.7142  -17.6246   24.4921 O   0  0  0  0  0  0  0  0  0  0  0  0
   13.4010  -18.0470   22.3879 O   0  0  0  0  0  0  0  0  0  0  0  0
  2  5  1  0
  2  1  1  1
  3  2  1  0
  4  3  1  0
  5  6  2  0
  7  8  1  0
  7  5  1  0
  9 10  1  0
  8  9  1  1
 10 14  1  0
 11 10  2  0
 12 15  1  0
 12  8  1  0
 13 12  2  0
 16 15  1  0
 16 17  1  6
 18 17  1  0
 18 19  2  0
 20 19  1  0
 21 22  2  0
 21 20  1  0
 22 18  1  0
 23 16  1  0
 24 23  2  0
 25 23  1  0
M  END
$$$$
