CDH.pdb
     RDKit          3D

 25 25  0  0  1  0  0  0  0  0999 V2000
    7.3425  -15.5934   18.9249 N   0  0  0  0  0  0  0  0  0  0  0  0
    8.6276  -15.1019   19.3625 C   0  0  1  0  0  0  0  0  0  0  0  0
    8.4371  -13.6716   19.8729 C   0  0  0  0  0  0  0  0  0  0  0  0
    8.0613  -12.6106   18.4674 S   0  0  0  0  0  0  0  0  0  0  0  0
    9.1725  -15.9994   20.4035 C   0  0  0  0  0  0  0  0  0  0  0  0
    8.3688  -16.6092   21.1865 O   0  0  0  0  0  0  0  0  0  0  0  0
   10.5683  -16.2264   20.5837 N   0  0  0  0  0  0  0  0  0  0  0  0
   11.0022  -17.1260   21.6044 C   0  0  1  0  0  0  0  0  0  0  0  0
   12.4926  -17.3998   21.3283 C   0  0  0  0  0  0  0  0  0  0  0  0
   12.8842  -18.5060   22.2421 C   0  0  0  0  0  0  0  0  0  0  0  0
   13.7561  -18.3501   23.1215 O   0  0  0  0  0  0  0  0  0  0  0  0
   10.9018  -16.5932   22.9662 C   0  0  0  0  0  0  0  0  0  0  0  0
   11.4745  -15.5494   23.3683 O   0  0  0  0  0  0  0  0  0  0  0  0
   12.2757  -19.7508   22.1290 O   0  0  0  0  0  0  0  0  0  0  0  0
   10.0927  -17.3108   23.9115 N   0  0  0  0  0  0  0  0  0  0  0  0
    9.9128  -16.8120   25.2745 C   0  0  1  0  0  0  0  0  0  0  0  0
    8.4457  -16.6618   25.5317 C   0  0  0  0  0  0  0  0  0  0  0  0
    7.8529  -15.4316   24.9987 C   0  0  0  0  0  0  0  0  0  0  0  0
    8.5491  -14.4371   24.3516 C   0  0  0  0  0  0  0  0  0  0  0  0
    7.6517  -13.4942   24.0300 N   0  0  0  0  0  0  0  0  0  0  0  0
    6.4412  -13.8745   24.4541 C   0  0  0  0  0  0  0  0  0  0  0  0
    6.5635  -15.0661   25.0500 N   0  0  0  0  0  0  0  0  0  0  0  0
   10.5007  -17.7723   26.2575 C   0  0  0  0  0  0  0  0  0  0  0  0
   10.8982  -18.9157   25.9150 O   0  0  0  0  0  0  0  0  0  0  0  0
   10.6333  -17.4391   27.5964 O   0  0  0  0  0  0  0  0  0  0  0  0
  2  5  1  0
  2  1  1  1
  3  2  1  0
  4  3  1  0
  5  6  2  0
  7  8  1  0
  7  5  1  0
  9 10  1  0
  8  9  1  6
 10 14  1  0
 11 10  2  0
 12 15  1  0
 12  8  1  0
 13 12  2  0
 16 15  1  0
 16 17  1  1
 18 17  1  0
 18 19  2  0
 20 19  1  0
 21 22  2  0
 21 20  1  0
 22 18  1  0
 23 16  1  0
 24 23  2  0
 25 23  1  0
M  END
$$$$
