CDH.pdb
     RDKit          3D

 25 25  0  0  1  0  0  0  0  0999 V2000
    7.5482  -13.7225   18.0052 N   0  0  0  0  0  0  0  0  0  0  0  0
    8.7454  -13.8281   18.8055 C   0  0  1  0  0  0  0  0  0  0  0  0
    8.9168  -12.5155   19.5738 C   0  0  0  0  0  0  0  0  0  0  0  0
    7.6300  -12.4185   20.8297 S   0  0  0  0  0  0  0  0  0  0  0  0
    8.6363  -14.9943   19.7077 C   0  0  0  0  0  0  0  0  0  0  0  0
    7.5273  -15.6226   19.7863 O   0  0  0  0  0  0  0  0  0  0  0  0
    9.7189  -15.4648   20.5071 N   0  0  0  0  0  0  0  0  0  0  0  0
    9.5197  -16.5977   21.3533 C   0  0  1  0  0  0  0  0  0  0  0  0
   10.4137  -17.7171   20.7872 C   0  0  0  0  0  0  0  0  0  0  0  0
    9.9886  -18.9683   21.4699 C   0  0  0  0  0  0  0  0  0  0  0  0
    9.0578  -18.9757   22.3014 O   0  0  0  0  0  0  0  0  0  0  0  0
    9.9135  -16.3894   22.7497 C   0  0  0  0  0  0  0  0  0  0  0  0
   11.0172  -15.9137   23.1166 O   0  0  0  0  0  0  0  0  0  0  0  0
   10.6320  -20.1680   21.1882 O   0  0  0  0  0  0  0  0  0  0  0  0
    8.9753  -16.7527   23.7748 N   0  0  0  0  0  0  0  0  0  0  0  0
    9.2580  -16.4735   25.1822 C   0  0  1  0  0  0  0  0  0  0  0  0
    7.9737  -16.1031   25.8566 C   0  0  0  0  0  0  0  0  0  0  0  0
    7.4651  -14.7709   25.5167 C   0  0  0  0  0  0  0  0  0  0  0  0
    6.4174  -14.5218   24.6607 C   0  0  0  0  0  0  0  0  0  0  0  0
    6.2724  -13.1895   24.6172 N   0  0  0  0  0  0  0  0  0  0  0  0
    7.1871  -12.6202   25.4104 C   0  0  0  0  0  0  0  0  0  0  0  0
    7.9212  -13.5918   25.9644 N   0  0  0  0  0  0  0  0  0  0  0  0
    9.8425  -17.6812   25.8409 C   0  0  0  0  0  0  0  0  0  0  0  0
    9.9959  -18.7670   25.2243 O   0  0  0  0  0  0  0  0  0  0  0  0
   10.2428  -17.6533   27.1677 O   0  0  0  0  0  0  0  0  0  0  0  0
  2  5  1  0
  2  1  1  1
  3  2  1  0
  4  3  1  0
  5  6  2  0
  7  8  1  0
  7  5  1  0
  9 10  1  0
  8  9  1  6
 10 14  1  0
 11 10  2  0
 12 15  1  0
 12  8  1  0
 13 12  2  0
 16 15  1  0
 16 17  1  1
 18 17  1  0
 18 19  2  0
 20 19  1  0
 21 22  2  0
 21 20  1  0
 22 18  1  0
 23 16  1  0
 24 23  2  0
 25 23  1  0
M  END
$$$$
