GRH.pdb
     RDKit          3D

 26 26  0  0  1  0  0  0  0  0999 V2000
   27.3783  -20.9661  -17.4879 N   0  0  0  0  0  0  0  0  0  0  0  0
   27.6532  -20.4434  -16.1771 C   0  0  0  0  0  0  0  0  0  0  0  0
   26.7190  -21.0435  -15.1632 C   0  0  0  0  0  0  0  0  0  0  0  0
   25.7197  -21.6211  -15.5923 O   0  0  0  0  0  0  0  0  0  0  0  0
   30.8216  -21.2260   -8.5093 N   0  0  0  0  0  0  0  0  0  0  0  0
   30.5103  -21.8882   -9.7293 C   0  0  0  0  0  0  0  0  0  0  0  0
   31.3373  -22.7433  -10.2507 N   0  0  0  0  0  0  0  0  0  0  0  0
   29.2968  -21.6479  -10.4244 N   0  0  0  0  0  0  0  0  0  0  0  0
   28.4081  -20.5865  -10.0636 C   0  0  0  0  0  0  0  0  0  0  0  0
   26.9659  -21.0410  -10.3214 C   0  0  0  0  0  0  0  0  0  0  0  0
   26.9815  -21.9609  -11.4921 C   0  0  0  0  0  0  0  0  0  0  0  0
   26.2244  -21.4706  -12.7034 C   0  0  2  0  0  0  0  0  0  0  0  0
   26.9805  -20.9467  -13.7731 N   0  0  0  0  0  0  0  0  0  0  0  0
   24.9829  -20.7812  -12.3441 C   0  0  0  0  0  0  0  0  0  0  0  0
   25.1172  -19.6971  -11.6883 O   0  0  0  0  0  0  0  0  0  0  0  0
   31.1785  -23.1784  -11.1761 N   0  0  0  0  0  0  0  0  0  0  0  0
   23.6896  -21.2379  -12.6740 C   0  0  1  0  0  0  0  0  0  0  0  0
   22.5661  -20.3259  -12.9413 C   0  0  0  0  0  0  0  0  0  0  0  0
   22.4482  -20.0309  -14.3914 C   0  0  0  0  0  0  0  0  0  0  0  0
   21.3077  -19.1867  -14.7925 C   0  0  0  0  0  0  0  0  0  0  0  0
   20.8747  -17.9814  -14.3512 N   0  0  0  0  0  0  0  0  0  0  0  0
   19.8086  -17.5902  -15.0986 C   0  0  0  0  0  0  0  0  0  0  0  0
   19.5836  -18.5538  -16.0033 N   0  0  0  0  0  0  0  0  0  0  0  0
   20.4836  -19.5262  -15.8300 C   0  0  0  0  0  0  0  0  0  0  0  0
   21.3501  -21.1655  -12.5910 O   0  0  0  0  0  0  0  0  0  0  0  0
   21.4823  -22.5186  -12.4932 O   0  0  0  0  0  0  0  0  0  0  0  0
  2  1  1  0
  3  2  1  0
  3 13  1  0
  4  3  2  0
  5  6  1  0
  6  8  1  0
  7  6  2  0
  8  9  1  0
  9 10  1  0
 10 11  1  0
 12 11  1  1
 12 13  1  0
 14 12  1  0
 15 14  2  0
 16 14  1  0
 17 16  1  0
 17 18  1  1
 19 23  1  0
 19 18  1  0
 20 19  2  0
 21 20  1  0
 21 22  1  0
 22 23  2  0
 24 17  1  0
 25 24  1  0
 26 24  2  0
M  END
$$$$
