GRH.pdb
     RDKit          3D

 26 26  0  0  1  0  0  0  0  0999 V2000
   16.8806  -20.6682    0.3724 N   0  0  0  0  0  0  0  0  0  0  0  0
   16.2340  -20.0168    1.4790 C   0  0  0  0  0  0  0  0  0  0  0  0
   17.2519  -19.3822    2.3856 C   0  0  0  0  0  0  0  0  0  0  0  0
   18.4388  -19.5721    2.1181 O   0  0  0  0  0  0  0  0  0  0  0  0
   17.3430  -11.5469    5.8968 N   0  0  0  0  0  0  0  0  0  0  0  0
   18.3773  -12.1647    5.1402 C   0  0  0  0  0  0  0  0  0  0  0  0
   19.1762  -11.4539    4.4030 N   0  0  0  0  0  0  0  0  0  0  0  0
   18.5814  -13.5688    5.1560 N   0  0  0  0  0  0  0  0  0  0  0  0
   17.8105  -14.4427    5.9858 C   0  0  0  0  0  0  0  0  0  0  0  0
   18.2888  -15.8833    5.7643 C   0  0  0  0  0  0  0  0  0  0  0  0
   17.3339  -16.5407    4.8300 C   0  0  0  0  0  0  0  0  0  0  0  0
   17.6801  -17.9616    4.4536 C   0  0  2  0  0  0  0  0  0  0  0  0
   16.8585  -18.5991    3.5001 N   0  0  0  0  0  0  0  0  0  0  0  0
   18.1278  -18.7503    5.6039 C   0  0  0  0  0  0  0  0  0  0  0  0
   17.2374  -19.4640    6.1708 O   0  0  0  0  0  0  0  0  0  0  0  0
   19.8789  -11.8791    3.7735 N   0  0  0  0  0  0  0  0  0  0  0  0
   19.4478  -18.7618    6.1014 C   0  0  2  0  0  0  0  0  0  0  0  0
   19.8745  -19.6302    7.2101 C   0  0  0  0  0  0  0  0  0  0  0  0
   20.8711  -20.6314    6.7542 C   0  0  0  0  0  0  0  0  0  0  0  0
   20.3447  -21.7597    5.9642 C   0  0  0  0  0  0  0  0  0  0  0  0
   20.3761  -22.0273    4.6366 N   0  0  0  0  0  0  0  0  0  0  0  0
   19.8064  -23.2414    4.4134 C   0  0  0  0  0  0  0  0  0  0  0  0
   19.4241  -23.7250    5.6041 N   0  0  0  0  0  0  0  0  0  0  0  0
   19.7439  -22.8389    6.5519 C   0  0  0  0  0  0  0  0  0  0  0  0
   20.6317  -18.6795    8.1206 O   0  0  0  0  0  0  0  0  0  0  0  0
   21.1518  -19.1510    9.2891 O   0  0  0  0  0  0  0  0  0  0  0  0
  2  1  1  0
  3  2  1  0
  3 13  1  0
  4  3  2  0
  5  6  1  0
  6  8  1  0
  7  6  2  0
  8  9  1  0
  9 10  1  0
 10 11  1  0
 12 11  1  1
 12 13  1  0
 14 12  1  0
 15 14  2  0
 16 14  1  0
 17 16  1  0
 17 18  1  6
 19 23  1  0
 19 18  1  0
 20 19  2  0
 21 20  1  0
 21 22  1  0
 22 23  2  0
 24 17  1  0
 25 24  1  0
 26 24  2  0
M  END
$$$$
