GRH.pdb
     RDKit          3D

 26 26  0  0  1  0  0  0  0  0999 V2000
   26.0065  -21.9699  -14.6833 N   0  0  0  0  0  0  0  0  0  0  0  0
   25.1597  -21.4753  -13.6320 C   0  0  0  0  0  0  0  0  0  0  0  0
   23.7288  -21.4176  -14.0904 C   0  0  0  0  0  0  0  0  0  0  0  0
   23.5177  -21.5681  -15.2942 O   0  0  0  0  0  0  0  0  0  0  0  0
   17.1584  -24.2472   -9.5364 N   0  0  0  0  0  0  0  0  0  0  0  0
   18.5418  -24.1146   -9.8404 C   0  0  0  0  0  0  0  0  0  0  0  0
   19.4431  -24.6721   -9.0896 N   0  0  0  0  0  0  0  0  0  0  0  0
   18.9951  -23.3761  -10.9640 N   0  0  0  0  0  0  0  0  0  0  0  0
   18.1444  -22.4750  -11.6787 C   0  0  0  0  0  0  0  0  0  0  0  0
   18.9360  -21.8681  -12.8440 C   0  0  0  0  0  0  0  0  0  0  0  0
   20.3550  -21.7400  -12.4119 C   0  0  0  0  0  0  0  0  0  0  0  0
   21.2855  -21.1350  -13.4360 C   0  0  2  0  0  0  0  0  0  0  0  0
   22.6701  -21.1991  -13.1730 N   0  0  0  0  0  0  0  0  0  0  0  0
   20.7565  -19.8938  -14.0062 C   0  0  0  0  0  0  0  0  0  0  0  0
   20.8281  -18.8631  -13.2604 O   0  0  0  0  0  0  0  0  0  0  0  0
   20.4561  -24.5996   -9.2886 N   0  0  0  0  0  0  0  0  0  0  0  0
   20.1909  -19.7817  -15.2937 C   0  0  1  0  0  0  0  0  0  0  0  0
   19.8473  -18.4874  -15.9036 C   0  0  0  0  0  0  0  0  0  0  0  0
   20.5837  -18.2818  -17.1761 C   0  0  0  0  0  0  0  0  0  0  0  0
   22.0012  -17.8951  -17.0518 C   0  0  0  0  0  0  0  0  0  0  0  0
   22.8006  -17.7220  -15.9721 N   0  0  0  0  0  0  0  0  0  0  0  0
   24.0599  -17.4291  -16.3926 C   0  0  0  0  0  0  0  0  0  0  0  0
   24.0388  -17.4226  -17.7332 N   0  0  0  0  0  0  0  0  0  0  0  0
   22.7993  -17.7034  -18.1460 C   0  0  0  0  0  0  0  0  0  0  0  0
   18.3908  -18.6665  -16.2943 O   0  0  0  0  0  0  0  0  0  0  0  0
   17.7118  -17.6128  -16.8299 O   0  0  0  0  0  0  0  0  0  0  0  0
  2  1  1  0
  3  2  1  0
  3 13  1  0
  4  3  2  0
  5  6  1  0
  6  8  1  0
  7  6  2  0
  8  9  1  0
  9 10  1  0
 10 11  1  0
 12 11  1  1
 12 13  1  0
 14 12  1  0
 15 14  2  0
 16 14  1  0
 17 16  1  0
 17 18  1  1
 19 23  1  0
 19 18  1  0
 20 19  2  0
 21 20  1  0
 21 22  1  0
 22 23  2  0
 24 17  1  0
 25 24  1  0
 26 24  2  0
M  END
$$$$
