GRH.pdb
     RDKit          3D

 26 26  0  0  1  0  0  0  0  0999 V2000
   27.9590  -22.6002  -16.1687 N   0  0  0  0  0  0  0  0  0  0  0  0
   26.8041  -23.2764  -16.6939 C   0  0  0  0  0  0  0  0  0  0  0  0
   25.5980  -23.0018  -15.8391 C   0  0  0  0  0  0  0  0  0  0  0  0
   24.7246  -23.8692  -15.8040 O   0  0  0  0  0  0  0  0  0  0  0  0
   27.8542  -21.1126   -8.8707 N   0  0  0  0  0  0  0  0  0  0  0  0
   26.5055  -20.6697   -8.9638 C   0  0  0  0  0  0  0  0  0  0  0  0
   25.9583  -19.9991   -7.9954 N   0  0  0  0  0  0  0  0  0  0  0  0
   25.7057  -20.9368  -10.1050 N   0  0  0  0  0  0  0  0  0  0  0  0
   26.1214  -21.8398  -11.1338 C   0  0  0  0  0  0  0  0  0  0  0  0
   26.2726  -21.0583  -12.4451 C   0  0  0  0  0  0  0  0  0  0  0  0
   24.9073  -20.7133  -12.9287 C   0  0  0  0  0  0  0  0  0  0  0  0
   24.4708  -21.4312  -14.1837 C   0  0  2  0  0  0  0  0  0  0  0  0
   25.4746  -21.7945  -15.1061 N   0  0  0  0  0  0  0  0  0  0  0  0
   23.2119  -20.9061  -14.7176 C   0  0  0  0  0  0  0  0  0  0  0  0
   23.2708  -19.7486  -15.2470 O   0  0  0  0  0  0  0  0  0  0  0  0
   24.9704  -19.6919   -8.0195 N   0  0  0  0  0  0  0  0  0  0  0  0
   21.9788  -21.5902  -14.6787 C   0  0  2  0  0  0  0  0  0  0  0  0
   20.7648  -21.0837  -15.3382 C   0  0  0  0  0  0  0  0  0  0  0  0
   19.7497  -22.1561  -15.4899 C   0  0  0  0  0  0  0  0  0  0  0  0
   20.0239  -23.1693  -16.5256 C   0  0  0  0  0  0  0  0  0  0  0  0
   20.7262  -23.1135  -17.6825 N   0  0  0  0  0  0  0  0  0  0  0  0
   20.7400  -24.3465  -18.2551 C   0  0  0  0  0  0  0  0  0  0  0  0
   20.0470  -25.1651  -17.4505 N   0  0  0  0  0  0  0  0  0  0  0  0
   19.6080  -24.4661  -16.3996 C   0  0  0  0  0  0  0  0  0  0  0  0
   20.1943  -20.1175  -14.3148 O   0  0  0  0  0  0  0  0  0  0  0  0
   19.1388  -19.3280  -14.6622 O   0  0  0  0  0  0  0  0  0  0  0  0
  2  1  1  0
  3  2  1  0
  3 13  1  0
  4  3  2  0
  5  6  1  0
  6  8  1  0
  7  6  2  0
  8  9  1  0
  9 10  1  0
 10 11  1  0
 12 11  1  1
 12 13  1  0
 14 12  1  0
 15 14  2  0
 16 14  1  0
 17 16  1  0
 17 18  1  6
 19 23  1  0
 19 18  1  0
 20 19  2  0
 21 20  1  0
 21 22  1  0
 22 23  2  0
 24 17  1  0
 25 24  1  0
 26 24  2  0
M  END
$$$$
