GRH.pdb
     RDKit          3D

 26 26  0  0  1  0  0  0  0  0999 V2000
   26.0160  -23.1808  -15.8947 N   0  0  0  0  0  0  0  0  0  0  0  0
   25.7276  -21.8454  -15.4468 C   0  0  0  0  0  0  0  0  0  0  0  0
   24.3290  -21.7627  -14.9009 C   0  0  0  0  0  0  0  0  0  0  0  0
   23.5718  -22.7011  -15.1504 O   0  0  0  0  0  0  0  0  0  0  0  0
   24.0578  -20.3849   -9.2169 N   0  0  0  0  0  0  0  0  0  0  0  0
   22.8141  -20.7788   -8.6495 C   0  0  0  0  0  0  0  0  0  0  0  0
   22.7713  -21.6282   -7.6679 N   0  0  0  0  0  0  0  0  0  0  0  0
   21.5783  -20.2681   -9.1241 N   0  0  0  0  0  0  0  0  0  0  0  0
   21.5079  -19.1958  -10.0684 C   0  0  0  0  0  0  0  0  0  0  0  0
   21.3125  -19.7851  -11.4711 C   0  0  0  0  0  0  0  0  0  0  0  0
   22.6501  -19.8681  -12.1197 C   0  0  0  0  0  0  0  0  0  0  0  0
   22.6511  -20.4408  -13.5171 C   0  0  2  0  0  0  0  0  0  0  0  0
   23.9035  -20.6501  -14.1319 N   0  0  0  0  0  0  0  0  0  0  0  0
   21.5683  -19.9002  -14.3424 C   0  0  0  0  0  0  0  0  0  0  0  0
   21.7743  -18.7487  -14.8474 O   0  0  0  0  0  0  0  0  0  0  0  0
   21.8874  -22.0530   -7.3373 N   0  0  0  0  0  0  0  0  0  0  0  0
   20.3503  -20.5638  -14.5996 C   0  0  2  0  0  0  0  0  0  0  0  0
   19.3376  -20.0395  -15.5295 C   0  0  0  0  0  0  0  0  0  0  0  0
   19.4354  -20.6983  -16.8562 C   0  0  0  0  0  0  0  0  0  0  0  0
   20.3382  -20.0620  -17.8332 C   0  0  0  0  0  0  0  0  0  0  0  0
   21.1740  -19.0005  -17.7352 N   0  0  0  0  0  0  0  0  0  0  0  0
   21.8465  -18.8535  -18.9076 C   0  0  0  0  0  0  0  0  0  0  0  0
   21.4270  -19.8258  -19.7300 N   0  0  0  0  0  0  0  0  0  0  0  0
   20.5142  -20.5651  -19.0928 C   0  0  0  0  0  0  0  0  0  0  0  0
   18.0312  -20.5226  -14.9244 O   0  0  0  0  0  0  0  0  0  0  0  0
   16.9010  -19.7823  -15.1052 O   0  0  0  0  0  0  0  0  0  0  0  0
  2  1  1  0
  3  2  1  0
  3 13  1  0
  4  3  2  0
  5  6  1  0
  6  8  1  0
  7  6  2  0
  8  9  1  0
  9 10  1  0
 10 11  1  0
 12 11  1  1
 12 13  1  0
 14 12  1  0
 15 14  2  0
 16 14  1  0
 17 16  1  0
 17 18  1  1
 19 23  1  0
 19 18  1  0
 20 19  2  0
 21 20  1  0
 21 22  1  0
 22 23  2  0
 24 17  1  0
 25 24  1  0
 26 24  2  0
M  END
$$$$
