GRH.pdb
     RDKit          3D

 26 26  0  0  1  0  0  0  0  0999 V2000
   22.8061  -34.0016  -22.7636 N   0  0  0  0  0  0  0  0  0  0  0  0
   23.7483  -32.9245  -22.6249 C   0  0  0  0  0  0  0  0  0  0  0  0
   23.6988  -32.3561  -21.2337 C   0  0  0  0  0  0  0  0  0  0  0  0
   22.8317  -32.7953  -20.4777 O   0  0  0  0  0  0  0  0  0  0  0  0
   27.4419  -31.1797  -14.6321 N   0  0  0  0  0  0  0  0  0  0  0  0
   28.0407  -31.7919  -15.7681 C   0  0  0  0  0  0  0  0  0  0  0  0
   28.4959  -33.0068  -15.7051 N   0  0  0  0  0  0  0  0  0  0  0  0
   28.1667  -31.1119  -17.0071 N   0  0  0  0  0  0  0  0  0  0  0  0
   27.6228  -29.8060  -17.2195 C   0  0  0  0  0  0  0  0  0  0  0  0
   26.1484  -29.9442  -17.6196 C   0  0  0  0  0  0  0  0  0  0  0  0
   26.1006  -30.5639  -18.9726 C   0  0  0  0  0  0  0  0  0  0  0  0
   24.7157  -30.7438  -19.5473 C   0  0  2  0  0  0  0  0  0  0  0  0
   24.6131  -31.3573  -20.8136 N   0  0  0  0  0  0  0  0  0  0  0  0
   23.8441  -29.5993  -19.2715 C   0  0  0  0  0  0  0  0  0  0  0  0
   24.0917  -28.5384  -19.9322 O   0  0  0  0  0  0  0  0  0  0  0  0
   28.8912  -33.4965  -16.5266 N   0  0  0  0  0  0  0  0  0  0  0  0
   22.7806  -29.6081  -18.3446 C   0  0  2  0  0  0  0  0  0  0  0  0
   21.8181  -28.5016  -18.2249 C   0  0  0  0  0  0  0  0  0  0  0  0
   20.7045  -28.8560  -17.3096 C   0  0  0  0  0  0  0  0  0  0  0  0
   19.6684  -27.8248  -17.1164 C   0  0  0  0  0  0  0  0  0  0  0  0
   19.0881  -26.9530  -17.9755 N   0  0  0  0  0  0  0  0  0  0  0  0
   18.1287  -26.2503  -17.3166 C   0  0  0  0  0  0  0  0  0  0  0  0
   18.1152  -26.6893  -16.0498 N   0  0  0  0  0  0  0  0  0  0  0  0
   19.0417  -27.6427  -15.9143 C   0  0  0  0  0  0  0  0  0  0  0  0
   22.6159  -27.4272  -17.5070 O   0  0  0  0  0  0  0  0  0  0  0  0
   22.3310  -26.1158  -17.7466 O   0  0  0  0  0  0  0  0  0  0  0  0
  2  1  1  0
  3  2  1  0
  3 13  1  0
  4  3  2  0
  5  6  1  0
  6  8  1  0
  7  6  2  0
  8  9  1  0
  9 10  1  0
 10 11  1  0
 12 11  1  6
 12 13  1  0
 14 12  1  0
 15 14  2  0
 16 14  1  0
 17 16  1  0
 17 18  1  6
 19 23  1  0
 19 18  1  0
 20 19  2  0
 21 20  1  0
 21 22  1  0
 22 23  2  0
 24 17  1  0
 25 24  1  0
 26 24  2  0
M  END
$$$$
