GRH.pdb
     RDKit          3D

 26 26  0  0  1  0  0  0  0  0999 V2000
   21.6786  -17.8788  -19.4578 N   0  0  0  0  0  0  0  0  0  0  0  0
   22.0441  -17.3065  -18.1906 C   0  0  0  0  0  0  0  0  0  0  0  0
   22.0587  -18.3619  -17.1197 C   0  0  0  0  0  0  0  0  0  0  0  0
   21.1356  -19.1769  -17.1211 O   0  0  0  0  0  0  0  0  0  0  0  0
   28.1565  -21.7003  -15.8354 N   0  0  0  0  0  0  0  0  0  0  0  0
   28.4727  -20.3315  -16.0596 C   0  0  0  0  0  0  0  0  0  0  0  0
   29.0857  -19.9604  -17.1428 N   0  0  0  0  0  0  0  0  0  0  0  0
   28.1371  -19.3211  -15.1216 N   0  0  0  0  0  0  0  0  0  0  0  0
   26.9706  -19.4020  -14.2975 C   0  0  0  0  0  0  0  0  0  0  0  0
   25.7281  -19.3782  -15.1968 C   0  0  0  0  0  0  0  0  0  0  0  0
   24.5303  -19.3055  -14.3154 C   0  0  0  0  0  0  0  0  0  0  0  0
   23.2040  -19.2719  -15.0369 C   0  0  2  0  0  0  0  0  0  0  0  0
   23.0928  -18.4137  -16.1511 N   0  0  0  0  0  0  0  0  0  0  0  0
   22.0664  -19.3460  -14.1171 C   0  0  0  0  0  0  0  0  0  0  0  0
   21.9308  -18.3627  -13.3182 O   0  0  0  0  0  0  0  0  0  0  0  0
   29.3385  -18.9744  -17.3295 N   0  0  0  0  0  0  0  0  0  0  0  0
   21.1435  -20.4119  -14.0697 C   0  0  1  0  0  0  0  0  0  0  0  0
   19.9472  -20.3932  -13.2131 C   0  0  0  0  0  0  0  0  0  0  0  0
   18.7375  -20.0224  -13.9895 C   0  0  0  0  0  0  0  0  0  0  0  0
   18.6126  -18.6004  -14.3591 C   0  0  0  0  0  0  0  0  0  0  0  0
   18.4207  -17.4854  -13.6143 N   0  0  0  0  0  0  0  0  0  0  0  0
   18.4456  -16.3965  -14.4279 C   0  0  0  0  0  0  0  0  0  0  0  0
   18.6546  -16.8389  -15.6762 N   0  0  0  0  0  0  0  0  0  0  0  0
   18.7580  -18.1710  -15.6496 C   0  0  0  0  0  0  0  0  0  0  0  0
   19.7668  -21.8545  -12.8413 O   0  0  0  0  0  0  0  0  0  0  0  0
   18.7616  -22.2046  -11.9898 O   0  0  0  0  0  0  0  0  0  0  0  0
  2  1  1  0
  3  2  1  0
  3 13  1  0
  4  3  2  0
  5  6  1  0
  6  8  1  0
  7  6  2  0
  8  9  1  0
  9 10  1  0
 10 11  1  0
 12 11  1  1
 12 13  1  0
 14 12  1  0
 15 14  2  0
 16 14  1  0
 17 16  1  0
 17 18  1  1
 19 23  1  0
 19 18  1  0
 20 19  2  0
 21 20  1  0
 21 22  1  0
 22 23  2  0
 24 17  1  0
 25 24  1  0
 26 24  2  0
M  END
$$$$
