GRH.pdb
     RDKit          3D

 26 26  0  0  1  0  0  0  0  0999 V2000
   27.5774  -16.4134  -17.4294 N   0  0  0  0  0  0  0  0  0  0  0  0
   27.4924  -16.8983  -16.0787 C   0  0  0  0  0  0  0  0  0  0  0  0
   26.5419  -18.0603  -15.9942 C   0  0  0  0  0  0  0  0  0  0  0  0
   26.4387  -18.7757  -16.9912 O   0  0  0  0  0  0  0  0  0  0  0  0
   26.7590  -20.5825   -8.5522 N   0  0  0  0  0  0  0  0  0  0  0  0
   25.6007  -20.9101   -9.3104 C   0  0  0  0  0  0  0  0  0  0  0  0
   24.4585  -21.1101   -8.7253 N   0  0  0  0  0  0  0  0  0  0  0  0
   25.6393  -21.0320  -10.7236 N   0  0  0  0  0  0  0  0  0  0  0  0
   26.7304  -20.5334  -11.5029 C   0  0  0  0  0  0  0  0  0  0  0  0
   26.3984  -20.7140  -12.9896 C   0  0  0  0  0  0  0  0  0  0  0  0
   25.0621  -20.1046  -13.2342 C   0  0  0  0  0  0  0  0  0  0  0  0
   24.9157  -19.3886  -14.5558 C   0  0  2  0  0  0  0  0  0  0  0  0
   25.7976  -18.3184  -14.8154 N   0  0  0  0  0  0  0  0  0  0  0  0
   23.5145  -19.2287  -14.9516 C   0  0  0  0  0  0  0  0  0  0  0  0
   22.9135  -18.2111  -14.4754 O   0  0  0  0  0  0  0  0  0  0  0  0
   23.5913  -21.3141   -9.2518 N   0  0  0  0  0  0  0  0  0  0  0  0
   22.8176  -20.1114  -15.8033 C   0  0  2  0  0  0  0  0  0  0  0  0
   21.4406  -19.8604  -16.2574 C   0  0  0  0  0  0  0  0  0  0  0  0
   21.1013  -20.7025  -17.4318 C   0  0  0  0  0  0  0  0  0  0  0  0
   19.7823  -20.4615  -18.0454 C   0  0  0  0  0  0  0  0  0  0  0  0
   19.0211  -19.3455  -18.1453 N   0  0  0  0  0  0  0  0  0  0  0  0
   17.9080  -19.6292  -18.8724 C   0  0  0  0  0  0  0  0  0  0  0  0
   17.9822  -20.9211  -19.2233 N   0  0  0  0  0  0  0  0  0  0  0  0
   19.1116  -21.4375  -18.7299 C   0  0  0  0  0  0  0  0  0  0  0  0
   20.5977  -20.3919  -15.1114 O   0  0  0  0  0  0  0  0  0  0  0  0
   19.3827  -19.8264  -14.8619 O   0  0  0  0  0  0  0  0  0  0  0  0
  2  1  1  0
  3  2  1  0
  3 13  1  0
  4  3  2  0
  5  6  1  0
  6  8  1  0
  7  6  2  0
  8  9  1  0
  9 10  1  0
 10 11  1  0
 12 11  1  1
 12 13  1  0
 14 12  1  0
 15 14  2  0
 16 14  1  0
 17 16  1  0
 17 18  1  6
 19 23  1  0
 19 18  1  0
 20 19  2  0
 21 20  1  0
 21 22  1  0
 22 23  2  0
 24 17  1  0
 25 24  1  0
 26 24  2  0
M  END
$$$$
