GRH.pdb
     RDKit          3D

 26 26  0  0  1  0  0  0  0  0999 V2000
   25.7322  -25.1772  -16.4991 N   0  0  0  0  0  0  0  0  0  0  0  0
   26.1217  -23.7936  -16.5272 C   0  0  0  0  0  0  0  0  0  0  0  0
   25.2391  -22.9786  -15.6229 C   0  0  0  0  0  0  0  0  0  0  0  0
   24.1222  -23.4315  -15.3704 O   0  0  0  0  0  0  0  0  0  0  0  0
   26.2496  -20.1673   -8.9638 N   0  0  0  0  0  0  0  0  0  0  0  0
   24.8820  -20.5394   -8.8407 C   0  0  0  0  0  0  0  0  0  0  0  0
   24.2411  -20.3544   -7.7263 N   0  0  0  0  0  0  0  0  0  0  0  0
   24.1640  -21.1227   -9.9166 N   0  0  0  0  0  0  0  0  0  0  0  0
   24.2479  -20.6182  -11.2526 C   0  0  0  0  0  0  0  0  0  0  0  0
   25.6646  -20.8665  -11.7860 C   0  0  0  0  0  0  0  0  0  0  0  0
   25.7708  -20.2090  -13.1176 C   0  0  0  0  0  0  0  0  0  0  0  0
   24.9815  -20.8684  -14.2235 C   0  0  2  0  0  0  0  0  0  0  0  0
   25.6773  -21.7420  -15.0856 N   0  0  0  0  0  0  0  0  0  0  0  0
   23.9945  -19.9651  -14.8197 C   0  0  0  0  0  0  0  0  0  0  0  0
   24.4441  -18.8520  -15.2468 O   0  0  0  0  0  0  0  0  0  0  0  0
   23.2385  -20.5853   -7.6157 N   0  0  0  0  0  0  0  0  0  0  0  0
   22.6186  -20.2515  -14.9424 C   0  0  2  0  0  0  0  0  0  0  0  0
   21.6510  -19.2923  -15.4981 C   0  0  0  0  0  0  0  0  0  0  0  0
   21.2821  -19.6487  -16.8911 C   0  0  0  0  0  0  0  0  0  0  0  0
   20.3596  -18.7246  -17.5762 C   0  0  0  0  0  0  0  0  0  0  0  0
   20.1143  -17.4028  -17.4104 N   0  0  0  0  0  0  0  0  0  0  0  0
   19.2149  -16.9960  -18.3453 C   0  0  0  0  0  0  0  0  0  0  0  0
   18.9054  -18.0670  -19.0902 N   0  0  0  0  0  0  0  0  0  0  0  0
   19.5911  -19.1203  -18.6363 C   0  0  0  0  0  0  0  0  0  0  0  0
   20.4049  -19.5385  -14.6656 O   0  0  0  0  0  0  0  0  0  0  0  0
   20.3429  -20.6460  -13.8734 O   0  0  0  0  0  0  0  0  0  0  0  0
  2  1  1  0
  3  2  1  0
  3 13  1  0
  4  3  2  0
  5  6  1  0
  6  8  1  0
  7  6  2  0
  8  9  1  0
  9 10  1  0
 10 11  1  0
 12 11  1  6
 12 13  1  0
 14 12  1  0
 15 14  2  0
 16 14  1  0
 17 16  1  0
 17 18  1  6
 19 23  1  0
 19 18  1  0
 20 19  2  0
 21 20  1  0
 21 22  1  0
 22 23  2  0
 24 17  1  0
 25 24  1  0
 26 24  2  0
M  END
$$$$
