GRH.pdb
     RDKit          3D

 26 26  0  0  1  0  0  0  0  0999 V2000
   17.1118  -12.6128  -15.1960 N   0  0  0  0  0  0  0  0  0  0  0  0
   16.6278  -11.2695  -15.0281 C   0  0  0  0  0  0  0  0  0  0  0  0
   17.7729  -10.3193  -14.8120 C   0  0  0  0  0  0  0  0  0  0  0  0
   18.0771  -10.0614  -13.6470 O   0  0  0  0  0  0  0  0  0  0  0  0
   22.6756  -10.6488  -21.0497 N   0  0  0  0  0  0  0  0  0  0  0  0
   22.8297  -11.5636  -19.9711 C   0  0  0  0  0  0  0  0  0  0  0  0
   23.8451  -12.3722  -19.9259 N   0  0  0  0  0  0  0  0  0  0  0  0
   21.8926  -11.6339  -18.9079 N   0  0  0  0  0  0  0  0  0  0  0  0
   20.9436  -10.5932  -18.6572 C   0  0  0  0  0  0  0  0  0  0  0  0
   21.4050   -9.7880  -17.4358 C   0  0  0  0  0  0  0  0  0  0  0  0
   20.3784   -8.7441  -17.1652 C   0  0  0  0  0  0  0  0  0  0  0  0
   19.6117   -8.9174  -15.8756 C   0  0  2  0  0  0  0  0  0  0  0  0
   18.4706   -9.7465  -15.9053 N   0  0  0  0  0  0  0  0  0  0  0  0
   19.5325   -7.6759  -15.1024 C   0  0  0  0  0  0  0  0  0  0  0  0
   18.5848   -6.8839  -15.4156 O   0  0  0  0  0  0  0  0  0  0  0  0
   23.9942  -13.0358  -19.1460 N   0  0  0  0  0  0  0  0  0  0  0  0
   20.4194   -7.3215  -14.0642 C   0  0  2  0  0  0  0  0  0  0  0  0
   20.2463   -6.1107  -13.2462 C   0  0  0  0  0  0  0  0  0  0  0  0
   20.1155   -6.4499  -11.8070 C   0  0  0  0  0  0  0  0  0  0  0  0
   18.8081   -6.9821  -11.3805 C   0  0  0  0  0  0  0  0  0  0  0  0
   17.6816   -7.2763  -12.0728 N   0  0  0  0  0  0  0  0  0  0  0  0
   16.7643   -7.8116  -11.2240 C   0  0  0  0  0  0  0  0  0  0  0  0
   17.3251   -7.8495  -10.0067 N   0  0  0  0  0  0  0  0  0  0  0  0
   18.5623   -7.3508  -10.0866 C   0  0  0  0  0  0  0  0  0  0  0  0
   21.5851   -5.4073  -13.3842 O   0  0  0  0  0  0  0  0  0  0  0  0
   22.5516   -5.9654  -14.1668 O   0  0  0  0  0  0  0  0  0  0  0  0
  2  1  1  0
  3  2  1  0
  3 13  1  0
  4  3  2  0
  5  6  1  0
  6  8  1  0
  7  6  2  0
  8  9  1  0
  9 10  1  0
 10 11  1  0
 12 11  1  6
 12 13  1  0
 14 12  1  0
 15 14  2  0
 16 14  1  0
 17 16  1  0
 17 18  1  6
 19 23  1  0
 19 18  1  0
 20 19  2  0
 21 20  1  0
 21 22  1  0
 22 23  2  0
 24 17  1  0
 25 24  1  0
 26 24  2  0
M  END
$$$$
