GRH.pdb
     RDKit          3D

 26 26  0  0  1  0  0  0  0  0999 V2000
   26.5640  -25.7227  -16.5005 N   0  0  0  0  0  0  0  0  0  0  0  0
   26.7620  -24.2995  -16.4537 C   0  0  0  0  0  0  0  0  0  0  0  0
   26.0416  -23.7051  -15.2754 C   0  0  0  0  0  0  0  0  0  0  0  0
   25.0591  -24.3146  -14.8514 O   0  0  0  0  0  0  0  0  0  0  0  0
   30.7209  -20.3152  -10.1717 N   0  0  0  0  0  0  0  0  0  0  0  0
   30.2199  -21.4218  -10.9122 C   0  0  0  0  0  0  0  0  0  0  0  0
   31.0076  -22.3876  -11.2778 N   0  0  0  0  0  0  0  0  0  0  0  0
   28.8532  -21.5201  -11.2811 N   0  0  0  0  0  0  0  0  0  0  0  0
   27.8774  -20.5645  -10.8556 C   0  0  0  0  0  0  0  0  0  0  0  0
   26.5200  -20.9413  -11.4627 C   0  0  0  0  0  0  0  0  0  0  0  0
   26.6011  -20.7164  -12.9323 C   0  0  0  0  0  0  0  0  0  0  0  0
   25.7825  -21.6671  -13.7730 C   0  0  2  0  0  0  0  0  0  0  0  0
   26.4775  -22.4944  -14.6801 N   0  0  0  0  0  0  0  0  0  0  0  0
   24.5220  -21.0711  -14.2220 C   0  0  0  0  0  0  0  0  0  0  0  0
   24.5982  -20.3051  -15.2373 O   0  0  0  0  0  0  0  0  0  0  0  0
   30.6799  -23.1891  -11.8446 N   0  0  0  0  0  0  0  0  0  0  0  0
   23.2698  -21.2922  -13.6111 C   0  0  1  0  0  0  0  0  0  0  0  0
   22.0350  -20.6304  -14.0613 C   0  0  0  0  0  0  0  0  0  0  0  0
   21.2597  -21.5061  -14.9754 C   0  0  0  0  0  0  0  0  0  0  0  0
   19.9924  -20.9524  -15.4869 C   0  0  0  0  0  0  0  0  0  0  0  0
   19.6925  -20.2793  -16.6235 N   0  0  0  0  0  0  0  0  0  0  0  0
   18.3539  -20.0448  -16.6622 C   0  0  0  0  0  0  0  0  0  0  0  0
   17.8261  -20.5748  -15.5494 N   0  0  0  0  0  0  0  0  0  0  0  0
   18.8063  -21.1277  -14.8288 C   0  0  0  0  0  0  0  0  0  0  0  0
   21.2129  -20.5322  -12.7882 O   0  0  0  0  0  0  0  0  0  0  0  0
   20.0374  -19.8422  -12.8075 O   0  0  0  0  0  0  0  0  0  0  0  0
  2  1  1  0
  3  2  1  0
  3 13  1  0
  4  3  2  0
  5  6  1  0
  6  8  1  0
  7  6  2  0
  8  9  1  0
  9 10  1  0
 10 11  1  0
 12 11  1  6
 12 13  1  0
 14 12  1  0
 15 14  2  0
 16 14  1  0
 17 16  1  0
 17 18  1  6
 19 23  1  0
 19 18  1  0
 20 19  2  0
 21 20  1  0
 21 22  1  0
 22 23  2  0
 24 17  1  0
 25 24  1  0
 26 24  2  0
M  END
$$$$
