GRH.pdb
     RDKit          3D

 26 26  0  0  1  0  0  0  0  0999 V2000
   15.1865  -18.1788    2.7317 N   0  0  0  0  0  0  0  0  0  0  0  0
   15.2926  -17.0917    3.6665 C   0  0  0  0  0  0  0  0  0  0  0  0
   16.6706  -17.0442    4.2662 C   0  0  0  0  0  0  0  0  0  0  0  0
   17.4481  -17.9488    3.9604 O   0  0  0  0  0  0  0  0  0  0  0  0
   19.9598   -9.9252    7.8430 N   0  0  0  0  0  0  0  0  0  0  0  0
   20.6154  -10.8321    6.9646 C   0  0  0  0  0  0  0  0  0  0  0  0
   21.8601  -10.6573    6.6376 N   0  0  0  0  0  0  0  0  0  0  0  0
   19.9478  -11.9556    6.4120 N   0  0  0  0  0  0  0  0  0  0  0  0
   18.5253  -12.0990    6.4626 C   0  0  0  0  0  0  0  0  0  0  0  0
   18.1294  -13.3673    5.6959 C   0  0  0  0  0  0  0  0  0  0  0  0
   18.5522  -14.5407    6.5090 C   0  0  0  0  0  0  0  0  0  0  0  0
   18.2412  -15.8878    5.9014 C   0  0  2  0  0  0  0  0  0  0  0  0
   17.0551  -16.0009    5.1458 N   0  0  0  0  0  0  0  0  0  0  0  0
   18.5896  -16.9962    6.7935 C   0  0  0  0  0  0  0  0  0  0  0  0
   17.6730  -17.3780    7.5920 O   0  0  0  0  0  0  0  0  0  0  0  0
   22.3825  -11.3330    6.0532 N   0  0  0  0  0  0  0  0  0  0  0  0
   19.8435  -17.6422    6.8154 C   0  0  2  0  0  0  0  0  0  0  0  0
   20.1174  -18.8232    7.6494 C   0  0  0  0  0  0  0  0  0  0  0  0
   20.5831  -19.9660    6.8244 C   0  0  0  0  0  0  0  0  0  0  0  0
   19.5305  -20.8019    6.2181 C   0  0  0  0  0  0  0  0  0  0  0  0
   18.1822  -20.7951    6.3489 N   0  0  0  0  0  0  0  0  0  0  0  0
   17.6494  -21.7296    5.5176 C   0  0  0  0  0  0  0  0  0  0  0  0
   18.6691  -22.3133    4.8717 N   0  0  0  0  0  0  0  0  0  0  0  0
   19.8136  -21.7615    5.2855 C   0  0  0  0  0  0  0  0  0  0  0  0
   21.3186  -18.3924    8.4728 O   0  0  0  0  0  0  0  0  0  0  0  0
   21.8467  -17.1508    8.2788 O   0  0  0  0  0  0  0  0  0  0  0  0
  2  1  1  0
  3  2  1  0
  3 13  1  0
  4  3  2  0
  5  6  1  0
  6  8  1  0
  7  6  2  0
  8  9  1  0
  9 10  1  0
 10 11  1  0
 12 11  1  1
 12 13  1  0
 14 12  1  0
 15 14  2  0
 16 14  1  0
 17 16  1  0
 17 18  1  6
 19 23  1  0
 19 18  1  0
 20 19  2  0
 21 20  1  0
 21 22  1  0
 22 23  2  0
 24 17  1  0
 25 24  1  0
 26 24  2  0
M  END
$$$$
