GRH.pdb
     RDKit          3D

 26 26  0  0  1  0  0  0  0  0999 V2000
   26.3724  -24.6593  -16.1101 N   0  0  0  0  0  0  0  0  0  0  0  0
   26.4853  -23.2998  -15.6562 C   0  0  0  0  0  0  0  0  0  0  0  0
   25.3853  -22.9753  -14.6838 C   0  0  0  0  0  0  0  0  0  0  0  0
   24.3086  -23.5520  -14.8402 O   0  0  0  0  0  0  0  0  0  0  0  0
   29.5352  -21.9028   -9.4470 N   0  0  0  0  0  0  0  0  0  0  0  0
   29.1608  -20.9447  -10.4297 C   0  0  0  0  0  0  0  0  0  0  0  0
   30.0079  -20.5548  -11.3337 N   0  0  0  0  0  0  0  0  0  0  0  0
   27.8606  -20.3777  -10.4670 N   0  0  0  0  0  0  0  0  0  0  0  0
   26.7788  -20.8975   -9.6885 C   0  0  0  0  0  0  0  0  0  0  0  0
   25.8966  -21.7705  -10.5899 C   0  0  0  0  0  0  0  0  0  0  0  0
   25.1211  -20.8649  -11.4816 C   0  0  0  0  0  0  0  0  0  0  0  0
   24.6203  -21.4965  -12.7588 C   0  0  2  0  0  0  0  0  0  0  0  0
   25.5828  -22.0445  -13.6327 N   0  0  0  0  0  0  0  0  0  0  0  0
   23.5077  -20.7503  -13.3513 C   0  0  0  0  0  0  0  0  0  0  0  0
   23.7379  -19.5262  -13.6198 O   0  0  0  0  0  0  0  0  0  0  0  0
   29.7685  -19.8525  -12.0551 N   0  0  0  0  0  0  0  0  0  0  0  0
   22.2372  -21.2959  -13.6314 C   0  0  1  0  0  0  0  0  0  0  0  0
   21.1405  -20.5053  -14.2121 C   0  0  0  0  0  0  0  0  0  0  0  0
   20.6888  -21.0820  -15.5032 C   0  0  0  0  0  0  0  0  0  0  0  0
   19.5255  -20.4319  -16.1343 C   0  0  0  0  0  0  0  0  0  0  0  0
   19.3537  -19.1938  -16.6563 N   0  0  0  0  0  0  0  0  0  0  0  0
   18.1049  -19.1030  -17.1859 C   0  0  0  0  0  0  0  0  0  0  0  0
   17.5051  -20.2863  -16.9922 N   0  0  0  0  0  0  0  0  0  0  0  0
   18.3533  -21.1005  -16.3571 C   0  0  0  0  0  0  0  0  0  0  0  0
   19.9985  -20.7320  -13.2371 O   0  0  0  0  0  0  0  0  0  0  0  0
   18.9227  -19.8955  -13.2672 O   0  0  0  0  0  0  0  0  0  0  0  0
  2  1  1  0
  3  2  1  0
  3 13  1  0
  4  3  2  0
  5  6  1  0
  6  8  1  0
  7  6  2  0
  8  9  1  0
  9 10  1  0
 10 11  1  0
 12 11  1  1
 12 13  1  0
 14 12  1  0
 15 14  2  0
 16 14  1  0
 17 16  1  0
 17 18  1  1
 19 23  1  0
 19 18  1  0
 20 19  2  0
 21 20  1  0
 21 22  1  0
 22 23  2  0
 24 17  1  0
 25 24  1  0
 26 24  2  0
M  END
$$$$
