DYH.pdb
     RDKit          3D

 31 32  0  0  1  0  0  0  0  0999 V2000
   27.9937  -37.5473  -11.1606 N   0  0  0  0  0  0  0  0  0  0  0  0
   27.3743  -36.8762  -10.0425 C   0  0  1  0  0  0  0  0  0  0  0  0
   26.0538  -37.5186   -9.6485 C   0  0  0  0  0  0  0  0  0  0  0  0
   24.9828  -37.1189  -10.5737 C   0  0  0  0  0  0  0  0  0  0  0  0
   25.2399  -36.3764  -11.5403 O   0  0  0  0  0  0  0  0  0  0  0  0
   28.2281  -36.9580   -8.8113 C   0  0  0  0  0  0  0  0  0  0  0  0
   28.6551  -38.0303   -8.3279 O   0  0  0  0  0  0  0  0  0  0  0  0
   23.6854  -37.5497  -10.3970 O   0  0  0  0  0  0  0  0  0  0  0  0
   33.9665  -34.6718   -2.4766 O   0  0  0  0  0  0  0  0  0  0  0  0
   33.0512  -34.6431   -3.5452 C   0  0  0  0  0  0  0  0  0  0  0  0
   31.7933  -34.1505   -3.3521 C   0  0  0  0  0  0  0  0  0  0  0  0
   30.9204  -34.1399   -4.4364 C   0  0  0  0  0  0  0  0  0  0  0  0
   31.2748  -34.6016   -5.6780 C   0  0  0  0  0  0  0  0  0  0  0  0
   30.3002  -34.5605   -6.7684 C   0  0  0  0  0  0  0  0  0  0  0  0
   29.4933  -35.8371   -6.9314 C   0  0  2  0  0  0  0  0  0  0  0  0
   28.6250  -35.7686   -8.0846 N   0  0  0  0  0  0  0  0  0  0  0  0
   28.8248  -36.2601   -5.6945 C   0  0  0  0  0  0  0  0  0  0  0  0
   27.8149  -35.6264   -5.3071 O   0  0  0  0  0  0  0  0  0  0  0  0
   32.5462  -35.0935   -5.8537 C   0  0  0  0  0  0  0  0  0  0  0  0
   33.4123  -35.1075   -4.7900 C   0  0  0  0  0  0  0  0  0  0  0  0
   29.2314  -37.3503   -4.8786 N   0  0  0  0  0  0  0  0  0  0  0  0
   28.4626  -37.7168   -3.6754 C   0  0  1  0  0  0  0  0  0  0  0  0
   28.4218  -39.2170   -3.5236 C   0  0  0  0  0  0  0  0  0  0  0  0
   27.5623  -39.5774   -2.3667 C   0  0  0  0  0  0  0  0  0  0  0  0
   26.6704  -38.7840   -1.6784 C   0  0  0  0  0  0  0  0  0  0  0  0
   26.1298  -39.5308   -0.7000 N   0  0  0  0  0  0  0  0  0  0  0  0
   26.6467  -40.7664   -0.7438 C   0  0  0  0  0  0  0  0  0  0  0  0
   27.5152  -40.7998   -1.7515 N   0  0  0  0  0  0  0  0  0  0  0  0
   28.9723  -37.0284   -2.4895 C   0  0  0  0  0  0  0  0  0  0  0  0
   30.1764  -36.3090   -2.6500 O   0  0  0  0  0  0  0  0  0  0  0  0
   28.4697  -36.9984   -1.3502 O   0  0  0  0  0  0  0  0  0  0  0  0
  2  1  1  6
  3  2  1  0
  3  4  1  0
  4  5  2  0
  6  2  1  0
  6  7  2  0
  8  4  1  0
  9 10  1  0
 10 20  2  0
 10 11  1  0
 11 12  2  0
 12 13  1  0
 13 14  1  0
 15 14  1  1
 15 16  1  0
 16  6  1  0
 17 15  1  0
 18 17  2  0
 19 13  2  0
 20 19  1  0
 21 17  1  0
 22 21  1  0
 22 29  1  0
 22 23  1  1
 24 23  1  0
 24 25  2  0
 26 25  1  0
 27 26  1  0
 28 27  2  0
 28 24  1  0
 29 30  1  0
 31 29  2  0
M  END
$$$$
