DYH.pdb
     RDKit          3D

 31 32  0  0  1  0  0  0  0  0999 V2000
   25.4800  -24.9435  -17.6881 N   0  0  0  0  0  0  0  0  0  0  0  0
   25.5594  -25.0705  -16.2522 C   0  0  1  0  0  0  0  0  0  0  0  0
   24.9137  -23.8947  -15.5364 C   0  0  0  0  0  0  0  0  0  0  0  0
   25.6675  -22.6563  -15.7830 C   0  0  0  0  0  0  0  0  0  0  0  0
   26.7001  -22.6840  -16.4791 O   0  0  0  0  0  0  0  0  0  0  0  0
   24.8133  -26.2780  -15.7656 C   0  0  0  0  0  0  0  0  0  0  0  0
   24.7647  -26.6321  -14.5665 O   0  0  0  0  0  0  0  0  0  0  0  0
   25.2562  -21.4503  -15.2571 O   0  0  0  0  0  0  0  0  0  0  0  0
   19.9773  -23.7599  -12.9231 O   0  0  0  0  0  0  0  0  0  0  0  0
   20.4227  -24.7851  -13.7781 C   0  0  0  0  0  0  0  0  0  0  0  0
   20.5198  -26.0649  -13.3146 C   0  0  0  0  0  0  0  0  0  0  0  0
   20.9639  -27.0482  -14.1941 C   0  0  0  0  0  0  0  0  0  0  0  0
   21.3036  -26.7804  -15.4953 C   0  0  0  0  0  0  0  0  0  0  0  0
   21.7654  -27.8673  -16.3590 C   0  0  0  0  0  0  0  0  0  0  0  0
   23.2375  -28.2064  -16.2007 C   0  0  2  0  0  0  0  0  0  0  0  0
   24.0801  -27.1334  -16.6772 N   0  0  0  0  0  0  0  0  0  0  0  0
   23.5858  -29.5306  -16.7309 C   0  0  0  0  0  0  0  0  0  0  0  0
   23.8631  -29.6395  -17.9485 O   0  0  0  0  0  0  0  0  0  0  0  0
   21.1988  -25.4856  -15.9446 C   0  0  0  0  0  0  0  0  0  0  0  0
   20.7621  -24.5108  -15.0838 C   0  0  0  0  0  0  0  0  0  0  0  0
   23.6374  -30.7279  -15.9671 N   0  0  0  0  0  0  0  0  0  0  0  0
   23.9571  -32.0160  -16.6087 C   0  0  1  0  0  0  0  0  0  0  0  0
   24.8566  -32.8315  -15.7136 C   0  0  0  0  0  0  0  0  0  0  0  0
   26.2365  -32.2831  -15.7613 C   0  0  0  0  0  0  0  0  0  0  0  0
   26.7071  -31.2005  -16.4722 C   0  0  0  0  0  0  0  0  0  0  0  0
   28.0224  -31.0860  -16.2192 N   0  0  0  0  0  0  0  0  0  0  0  0
   28.4010  -32.0558  -15.3752 C   0  0  0  0  0  0  0  0  0  0  0  0
   27.3229  -32.7838  -15.0950 N   0  0  0  0  0  0  0  0  0  0  0  0
   22.7422  -32.7252  -17.0099 C   0  0  0  0  0  0  0  0  0  0  0  0
   22.9248  -33.9368  -17.7111 O   0  0  0  0  0  0  0  0  0  0  0  0
   21.5603  -32.3890  -16.8056 O   0  0  0  0  0  0  0  0  0  0  0  0
  2  1  1  6
  3  2  1  0
  3  4  1  0
  4  5  2  0
  6  2  1  0
  6  7  2  0
  8  4  1  0
  9 10  1  0
 10 20  2  0
 10 11  1  0
 11 12  2  0
 12 13  1  0
 13 14  1  0
 15 14  1  6
 15 16  1  0
 16  6  1  0
 17 15  1  0
 18 17  2  0
 19 13  2  0
 20 19  1  0
 21 17  1  0
 22 21  1  0
 22 29  1  0
 22 23  1  1
 24 23  1  0
 24 25  2  0
 26 25  1  0
 27 26  1  0
 28 27  2  0
 28 24  1  0
 29 30  1  0
 31 29  2  0
M  END
$$$$
