DYH.pdb
     RDKit          3D

 31 32  0  0  1  0  0  0  0  0999 V2000
   17.8472  -11.3868  -16.0051 N   0  0  0  0  0  0  0  0  0  0  0  0
   17.9075   -9.9823  -16.3336 C   0  0  1  0  0  0  0  0  0  0  0  0
   16.7574   -9.2002  -15.7194 C   0  0  0  0  0  0  0  0  0  0  0  0
   15.4706   -9.6376  -16.2813 C   0  0  0  0  0  0  0  0  0  0  0  0
   14.4588   -9.6857  -15.5563 O   0  0  0  0  0  0  0  0  0  0  0  0
   19.1486   -9.3425  -15.7842 C   0  0  0  0  0  0  0  0  0  0  0  0
   19.5044   -9.4232  -14.5873 O   0  0  0  0  0  0  0  0  0  0  0  0
   15.3534  -10.0005  -17.6059 O   0  0  0  0  0  0  0  0  0  0  0  0
   23.5151  -13.8400  -15.7587 O   0  0  0  0  0  0  0  0  0  0  0  0
   23.2558  -12.4768  -15.9929 C   0  0  0  0  0  0  0  0  0  0  0  0
   22.5019  -12.1011  -17.0665 C   0  0  0  0  0  0  0  0  0  0  0  0
   22.2692  -10.7424  -17.2603 C   0  0  0  0  0  0  0  0  0  0  0  0
   22.7648   -9.7783  -16.4206 C   0  0  0  0  0  0  0  0  0  0  0  0
   22.4797   -8.3691  -16.6919 C   0  0  0  0  0  0  0  0  0  0  0  0
   21.1802   -7.8683  -16.0853 C   0  0  2  0  0  0  0  0  0  0  0  0
   20.0398   -8.5710  -16.6275 N   0  0  0  0  0  0  0  0  0  0  0  0
   21.0573   -6.4053  -16.1094 C   0  0  0  0  0  0  0  0  0  0  0  0
   20.4183   -5.8686  -17.0448 O   0  0  0  0  0  0  0  0  0  0  0  0
   23.5215  -10.1756  -15.3441 C   0  0  0  0  0  0  0  0  0  0  0  0
   23.7554  -11.5128  -15.1464 C   0  0  0  0  0  0  0  0  0  0  0  0
   21.6121   -5.5236  -15.1427 N   0  0  0  0  0  0  0  0  0  0  0  0
   21.4840   -4.0630  -15.2960 C   0  0  1  0  0  0  0  0  0  0  0  0
   20.0436   -3.6929  -15.5482 C   0  0  0  0  0  0  0  0  0  0  0  0
   19.9281   -2.2201  -15.7055 C   0  0  0  0  0  0  0  0  0  0  0  0
   20.9190   -1.3056  -15.9895 C   0  0  0  0  0  0  0  0  0  0  0  0
   20.3528   -0.0868  -16.0228 N   0  0  0  0  0  0  0  0  0  0  0  0
   19.0413   -0.1964  -15.7704 C   0  0  0  0  0  0  0  0  0  0  0  0
   18.7790   -1.4867  -15.5772 N   0  0  0  0  0  0  0  0  0  0  0  0
   22.0729   -3.3562  -14.1586 C   0  0  0  0  0  0  0  0  0  0  0  0
   22.0438   -1.9458  -14.2122 O   0  0  0  0  0  0  0  0  0  0  0  0
   22.5981   -3.8502  -13.1428 O   0  0  0  0  0  0  0  0  0  0  0  0
  2  1  1  1
  3  2  1  0
  3  4  1  0
  4  5  2  0
  6  2  1  0
  6  7  2  0
  8  4  1  0
  9 10  1  0
 10 20  2  0
 10 11  1  0
 11 12  2  0
 12 13  1  0
 13 14  1  0
 15 14  1  6
 15 16  1  0
 16  6  1  0
 17 15  1  0
 18 17  2  0
 19 13  2  0
 20 19  1  0
 21 17  1  0
 22 21  1  0
 22 29  1  0
 22 23  1  1
 24 23  1  0
 24 25  2  0
 26 25  1  0
 27 26  1  0
 28 27  2  0
 28 24  1  0
 29 30  1  0
 31 29  2  0
M  END
$$$$
