DYH.pdb
     RDKit          3D

 31 32  0  0  1  0  0  0  0  0999 V2000
   22.6952  -34.2241   -4.3228 N   0  0  0  0  0  0  0  0  0  0  0  0
   23.7741  -34.1564   -3.3658 C   0  0  1  0  0  0  0  0  0  0  0  0
   23.8029  -35.3682   -2.4481 C   0  0  0  0  0  0  0  0  0  0  0  0
   22.6443  -35.3641   -1.5424 C   0  0  0  0  0  0  0  0  0  0  0  0
   22.2458  -36.4303   -1.0363 O   0  0  0  0  0  0  0  0  0  0  0  0
   25.1118  -34.1527   -4.0456 C   0  0  0  0  0  0  0  0  0  0  0  0
   25.2980  -33.7567   -5.2179 O   0  0  0  0  0  0  0  0  0  0  0  0
   21.9792  -34.1965   -1.2351 O   0  0  0  0  0  0  0  0  0  0  0  0
   25.5855  -31.8927   -9.4550 O   0  0  0  0  0  0  0  0  0  0  0  0
   26.1369  -32.1557   -8.1872 C   0  0  0  0  0  0  0  0  0  0  0  0
   27.3327  -32.8053   -8.0856 C   0  0  0  0  0  0  0  0  0  0  0  0
   27.8422  -33.0443   -6.8124 C   0  0  0  0  0  0  0  0  0  0  0  0
   27.1931  -32.6549   -5.6690 C   0  0  0  0  0  0  0  0  0  0  0  0
   27.7909  -32.9447   -4.3655 C   0  0  0  0  0  0  0  0  0  0  0  0
   27.6256  -34.3844   -3.9104 C   0  0  2  0  0  0  0  0  0  0  0  0
   26.3060  -34.6184   -3.3695 N   0  0  0  0  0  0  0  0  0  0  0  0
   28.7227  -34.8489   -3.0522 C   0  0  0  0  0  0  0  0  0  0  0  0
   28.7520  -34.4766   -1.8555 O   0  0  0  0  0  0  0  0  0  0  0  0
   25.9901  -32.0013   -5.7911 C   0  0  0  0  0  0  0  0  0  0  0  0
   25.4813  -31.7622   -7.0424 C   0  0  0  0  0  0  0  0  0  0  0  0
   29.7791  -35.7034   -3.4686 N   0  0  0  0  0  0  0  0  0  0  0  0
   30.7698  -36.2024   -2.4978 C   0  0  1  0  0  0  0  0  0  0  0  0
   30.6261  -35.4690   -1.1875 C   0  0  0  0  0  0  0  0  0  0  0  0
   31.6675  -35.9381   -0.2374 C   0  0  0  0  0  0  0  0  0  0  0  0
   32.9966  -36.2068   -0.4828 C   0  0  0  0  0  0  0  0  0  0  0  0
   33.5502  -36.6177    0.6713 N   0  0  0  0  0  0  0  0  0  0  0  0
   32.6209  -36.6191    1.6369 C   0  0  0  0  0  0  0  0  0  0  0  0
   31.4787  -36.2084    1.0916 N   0  0  0  0  0  0  0  0  0  0  0  0
   30.6915  -37.6566   -2.3592 C   0  0  0  0  0  0  0  0  0  0  0  0
   29.8511  -38.3301   -3.2719 O   0  0  0  0  0  0  0  0  0  0  0  0
   31.2805  -38.3764   -1.5306 O   0  0  0  0  0  0  0  0  0  0  0  0
  2  1  1  6
  3  2  1  0
  3  4  1  0
  4  5  2  0
  6  2  1  0
  6  7  2  0
  8  4  1  0
  9 10  1  0
 10 20  2  0
 10 11  1  0
 11 12  2  0
 12 13  1  0
 13 14  1  0
 15 14  1  1
 15 16  1  0
 16  6  1  0
 17 15  1  0
 18 17  2  0
 19 13  2  0
 20 19  1  0
 21 17  1  0
 22 21  1  0
 22 29  1  0
 22 23  1  1
 24 23  1  0
 24 25  2  0
 26 25  1  0
 27 26  1  0
 28 27  2  0
 28 24  1  0
 29 30  1  0
 31 29  2  0
M  END
$$$$
