DYH.pdb
     RDKit          3D

 31 32  0  0  1  0  0  0  0  0999 V2000
   24.6790  -14.0905  -18.9813 N   0  0  0  0  0  0  0  0  0  0  0  0
   24.6660  -12.9499  -19.8662 C   0  0  1  0  0  0  0  0  0  0  0  0
   23.2555  -12.5624  -20.2809 C   0  0  0  0  0  0  0  0  0  0  0  0
   22.6517  -13.6101  -21.1180 C   0  0  0  0  0  0  0  0  0  0  0  0
   23.3375  -14.5802  -21.4925 O   0  0  0  0  0  0  0  0  0  0  0  0
   25.2225  -11.7283  -19.1958 C   0  0  0  0  0  0  0  0  0  0  0  0
   24.6507  -11.1230  -18.2618 O   0  0  0  0  0  0  0  0  0  0  0  0
   21.3300  -13.5458  -21.5039 O   0  0  0  0  0  0  0  0  0  0  0  0
   28.0386  -15.1693  -15.0945 O   0  0  0  0  0  0  0  0  0  0  0  0
   28.1298  -14.0002  -15.8726 C   0  0  0  0  0  0  0  0  0  0  0  0
   27.9480  -12.7789  -15.2917 C   0  0  0  0  0  0  0  0  0  0  0  0
   28.0477  -11.6486  -16.0979 C   0  0  0  0  0  0  0  0  0  0  0  0
   28.3192  -11.7171  -17.4403 C   0  0  0  0  0  0  0  0  0  0  0  0
   28.4056  -10.4840  -18.2230 C   0  0  0  0  0  0  0  0  0  0  0  0
   27.0971  -10.0636  -18.8698 C   0  0  2  0  0  0  0  0  0  0  0  0
   26.4927  -11.1569  -19.5964 N   0  0  0  0  0  0  0  0  0  0  0  0
   27.2054   -8.8150  -19.6347 C   0  0  0  0  0  0  0  0  0  0  0  0
   27.6971   -8.8539  -20.7872 O   0  0  0  0  0  0  0  0  0  0  0  0
   28.4999  -12.9559  -18.0079 C   0  0  0  0  0  0  0  0  0  0  0  0
   28.4029  -14.0746  -17.2199 C   0  0  0  0  0  0  0  0  0  0  0  0
   26.7923   -7.5362  -19.1725 N   0  0  0  0  0  0  0  0  0  0  0  0
   26.8660   -6.3578  -20.0551 C   0  0  1  0  0  0  0  0  0  0  0  0
   26.1770   -6.6479  -21.3653 C   0  0  0  0  0  0  0  0  0  0  0  0
   26.3352   -5.4871  -22.2789 C   0  0  0  0  0  0  0  0  0  0  0  0
   27.4927   -4.9692  -22.8183 C   0  0  0  0  0  0  0  0  0  0  0  0
   27.1532   -3.9110  -23.5747 N   0  0  0  0  0  0  0  0  0  0  0  0
   25.8246   -3.7404  -23.5335 C   0  0  0  0  0  0  0  0  0  0  0  0
   25.3245   -4.6924  -22.7497 N   0  0  0  0  0  0  0  0  0  0  0  0
   26.3571   -5.1606  -19.3859 C   0  0  0  0  0  0  0  0  0  0  0  0
   26.7722   -3.9200  -19.9166 O   0  0  0  0  0  0  0  0  0  0  0  0
   25.5970   -5.1026  -18.4007 O   0  0  0  0  0  0  0  0  0  0  0  0
  2  1  1  1
  3  2  1  0
  3  4  1  0
  4  5  2  0
  6  2  1  0
  6  7  2  0
  8  4  1  0
  9 10  1  0
 10 20  2  0
 10 11  1  0
 11 12  2  0
 12 13  1  0
 13 14  1  0
 15 14  1  6
 15 16  1  0
 16  6  1  0
 17 15  1  0
 18 17  2  0
 19 13  2  0
 20 19  1  0
 21 17  1  0
 22 21  1  0
 22 29  1  0
 22 23  1  6
 24 23  1  0
 24 25  2  0
 26 25  1  0
 27 26  1  0
 28 27  2  0
 28 24  1  0
 29 30  1  0
 31 29  2  0
M  END
$$$$
