DYH.pdb
     RDKit          3D

 31 32  0  0  1  0  0  0  0  0999 V2000
   25.6573   -8.9028  -16.6079 N   0  0  0  0  0  0  0  0  0  0  0  0
   24.5067   -9.7737  -16.6536 C   0  0  1  0  0  0  0  0  0  0  0  0
   24.8149  -11.1593  -16.1087 C   0  0  0  0  0  0  0  0  0  0  0  0
   25.7221  -11.8845  -17.0108 C   0  0  0  0  0  0  0  0  0  0  0  0
   25.8931  -11.4823  -18.1772 O   0  0  0  0  0  0  0  0  0  0  0  0
   23.3922   -9.2571  -15.7919 C   0  0  0  0  0  0  0  0  0  0  0  0
   23.5309   -8.9331  -14.5913 O   0  0  0  0  0  0  0  0  0  0  0  0
   26.3967  -13.0120  -16.5940 O   0  0  0  0  0  0  0  0  0  0  0  0
   24.0869   -2.9125  -15.5884 O   0  0  0  0  0  0  0  0  0  0  0  0
   23.1868   -3.9872  -15.7124 C   0  0  0  0  0  0  0  0  0  0  0  0
   22.3060   -4.2580  -14.7060 C   0  0  0  0  0  0  0  0  0  0  0  0
   21.4328   -5.3296  -14.8704 C   0  0  0  0  0  0  0  0  0  0  0  0
   21.4258   -6.1144  -15.9948 C   0  0  0  0  0  0  0  0  0  0  0  0
   20.4795   -7.2258  -16.0932 C   0  0  0  0  0  0  0  0  0  0  0  0
   20.9877   -8.5309  -15.5051 C   0  0  2  0  0  0  0  0  0  0  0  0
   22.0483   -9.0941  -16.3092 N   0  0  0  0  0  0  0  0  0  0  0  0
   19.9118   -9.4741  -15.1757 C   0  0  0  0  0  0  0  0  0  0  0  0
   19.3672  -10.1169  -16.1041 O   0  0  0  0  0  0  0  0  0  0  0  0
   22.3198   -5.8261  -16.9983 C   0  0  0  0  0  0  0  0  0  0  0  0
   23.1837   -4.7718  -16.8437 C   0  0  0  0  0  0  0  0  0  0  0  0
   19.4217   -9.7285  -13.8662 N   0  0  0  0  0  0  0  0  0  0  0  0
   18.2544  -10.6040  -13.6570 C   0  0  1  0  0  0  0  0  0  0  0  0
   18.0777  -10.8895  -12.1864 C   0  0  0  0  0  0  0  0  0  0  0  0
   16.9427  -11.8286  -11.9943 C   0  0  0  0  0  0  0  0  0  0  0  0
   16.1326  -12.4047  -12.9486 C   0  0  0  0  0  0  0  0  0  0  0  0
   15.2327  -13.1732  -12.3108 N   0  0  0  0  0  0  0  0  0  0  0  0
   15.4433  -13.1043  -10.9891 C   0  0  0  0  0  0  0  0  0  0  0  0
   16.4779  -12.2909  -10.7921 N   0  0  0  0  0  0  0  0  0  0  0  0
   17.0560  -10.0507  -14.2876 C   0  0  0  0  0  0  0  0  0  0  0  0
   16.3055  -10.9340  -15.0937 O   0  0  0  0  0  0  0  0  0  0  0  0
   16.6142   -8.8894  -14.1980 O   0  0  0  0  0  0  0  0  0  0  0  0
  2  1  1  1
  3  2  1  0
  3  4  1  0
  4  5  2  0
  6  2  1  0
  6  7  2  0
  8  4  1  0
  9 10  1  0
 10 20  2  0
 10 11  1  0
 11 12  2  0
 12 13  1  0
 13 14  1  0
 15 14  1  6
 15 16  1  0
 16  6  1  0
 17 15  1  0
 18 17  2  0
 19 13  2  0
 20 19  1  0
 21 17  1  0
 22 21  1  0
 22 29  1  0
 22 23  1  1
 24 23  1  0
 24 25  2  0
 26 25  1  0
 27 26  1  0
 28 27  2  0
 28 24  1  0
 29 30  1  0
 31 29  2  0
M  END
$$$$
