DYH.pdb
     RDKit          3D

 31 32  0  0  1  0  0  0  0  0999 V2000
   33.2856  -33.7187  -17.3210 N   0  0  0  0  0  0  0  0  0  0  0  0
   32.5770  -32.5408  -16.8796 C   0  0  1  0  0  0  0  0  0  0  0  0
   32.8947  -31.3260  -17.7369 C   0  0  0  0  0  0  0  0  0  0  0  0
   34.2542  -30.8362  -17.4639 C   0  0  0  0  0  0  0  0  0  0  0  0
   35.0346  -31.5181  -16.7727 O   0  0  0  0  0  0  0  0  0  0  0  0
   31.0914  -32.7185  -16.9940 C   0  0  0  0  0  0  0  0  0  0  0  0
   30.5345  -33.3707  -17.9051 O   0  0  0  0  0  0  0  0  0  0  0  0
   34.6931  -29.6270  -17.9591 O   0  0  0  0  0  0  0  0  0  0  0  0
   22.5535  -33.2121  -14.6840 O   0  0  0  0  0  0  0  0  0  0  0  0
   23.9383  -32.9615  -14.6949 C   0  0  0  0  0  0  0  0  0  0  0  0
   24.4010  -31.7016  -14.9414 C   0  0  0  0  0  0  0  0  0  0  0  0
   25.7780  -31.4978  -14.9419 C   0  0  0  0  0  0  0  0  0  0  0  0
   26.6767  -32.5064  -14.7063 C   0  0  0  0  0  0  0  0  0  0  0  0
   28.1103  -32.2149  -14.7265 C   0  0  0  0  0  0  0  0  0  0  0  0
   28.7565  -32.3599  -16.0935 C   0  0  2  0  0  0  0  0  0  0  0  0
   30.1822  -32.1321  -16.0298 N   0  0  0  0  0  0  0  0  0  0  0  0
   28.0678  -31.5971  -17.1422 C   0  0  0  0  0  0  0  0  0  0  0  0
   28.4135  -30.4104  -17.3511 O   0  0  0  0  0  0  0  0  0  0  0  0
   26.1922  -33.7688  -14.4594 C   0  0  0  0  0  0  0  0  0  0  0  0
   24.8363  -33.9776  -14.4574 C   0  0  0  0  0  0  0  0  0  0  0  0
   27.0191  -32.0976  -17.9604 N   0  0  0  0  0  0  0  0  0  0  0  0
   26.4636  -31.2804  -19.0543 C   0  0  1  0  0  0  0  0  0  0  0  0
   26.7780  -31.9149  -20.3862 C   0  0  0  0  0  0  0  0  0  0  0  0
   28.1026  -31.4407  -20.8634 C   0  0  0  0  0  0  0  0  0  0  0  0
   28.9746  -30.5670  -20.2509 C   0  0  0  0  0  0  0  0  0  0  0  0
   30.0410  -30.4222  -21.0565 N   0  0  0  0  0  0  0  0  0  0  0  0
   29.8758  -31.1714  -22.1553 C   0  0  0  0  0  0  0  0  0  0  0  0
   28.7030  -31.7901  -22.0433 N   0  0  0  0  0  0  0  0  0  0  0  0
   25.0365  -31.0273  -18.8559 C   0  0  0  0  0  0  0  0  0  0  0  0
   24.6622  -29.6850  -18.6295 O   0  0  0  0  0  0  0  0  0  0  0  0
   24.1067  -31.8562  -18.8640 O   0  0  0  0  0  0  0  0  0  0  0  0
  2  1  1  6
  3  2  1  0
  3  4  1  0
  4  5  2  0
  6  2  1  0
  6  7  2  0
  8  4  1  0
  9 10  1  0
 10 20  2  0
 10 11  1  0
 11 12  2  0
 12 13  1  0
 13 14  1  0
 15 14  1  1
 15 16  1  0
 16  6  1  0
 17 15  1  0
 18 17  2  0
 19 13  2  0
 20 19  1  0
 21 17  1  0
 22 21  1  0
 22 29  1  0
 22 23  1  6
 24 23  1  0
 24 25  2  0
 26 25  1  0
 27 26  1  0
 28 27  2  0
 28 24  1  0
 29 30  1  0
 31 29  2  0
M  END
$$$$
