DYH.pdb
     RDKit          3D

 31 32  0  0  1  0  0  0  0  0999 V2000
   26.9299  -25.3688  -17.3212 N   0  0  0  0  0  0  0  0  0  0  0  0
   26.5344  -24.4252  -16.3026 C   0  0  1  0  0  0  0  0  0  0  0  0
   26.9654  -23.0062  -16.6376 C   0  0  0  0  0  0  0  0  0  0  0  0
   28.4262  -22.8680  -16.5396 C   0  0  0  0  0  0  0  0  0  0  0  0
   29.1300  -23.8634  -16.2831 O   0  0  0  0  0  0  0  0  0  0  0  0
   25.0415  -24.3556  -16.1683 C   0  0  0  0  0  0  0  0  0  0  0  0
   24.2587  -24.2285  -17.1362 O   0  0  0  0  0  0  0  0  0  0  0  0
   29.0449  -21.6505  -16.7262 O   0  0  0  0  0  0  0  0  0  0  0  0
   22.0219  -30.4610  -16.5017 O   0  0  0  0  0  0  0  0  0  0  0  0
   22.1235  -29.2205  -15.8449 C   0  0  0  0  0  0  0  0  0  0  0  0
   23.3055  -28.8460  -15.2748 C   0  0  0  0  0  0  0  0  0  0  0  0
   23.3622  -27.6106  -14.6360 C   0  0  0  0  0  0  0  0  0  0  0  0
   22.2852  -26.7653  -14.5597 C   0  0  0  0  0  0  0  0  0  0  0  0
   22.4216  -25.4832  -13.8682 C   0  0  0  0  0  0  0  0  0  0  0  0
   22.9562  -24.3593  -14.7389 C   0  0  2  0  0  0  0  0  0  0  0  0
   24.3930  -24.4351  -14.8747 N   0  0  0  0  0  0  0  0  0  0  0  0
   22.4542  -23.0362  -14.3476 C   0  0  0  0  0  0  0  0  0  0  0  0
   23.1920  -22.2887  -13.6633 O   0  0  0  0  0  0  0  0  0  0  0  0
   21.1032  -27.1591  -15.1403 C   0  0  0  0  0  0  0  0  0  0  0  0
   21.0392  -28.3754  -15.7715 C   0  0  0  0  0  0  0  0  0  0  0  0
   21.1752  -22.5161  -14.6844 N   0  0  0  0  0  0  0  0  0  0  0  0
   20.8051  -21.1362  -14.3212 C   0  0  1  0  0  0  0  0  0  0  0  0
   21.7790  -20.1604  -14.9332 C   0  0  0  0  0  0  0  0  0  0  0  0
   21.3494  -18.7711  -14.6293 C   0  0  0  0  0  0  0  0  0  0  0  0
   20.2303  -18.3475  -13.9459 C   0  0  0  0  0  0  0  0  0  0  0  0
   20.2475  -17.0034  -13.9270 N   0  0  0  0  0  0  0  0  0  0  0  0
   21.3352  -16.5614  -14.5731 C   0  0  0  0  0  0  0  0  0  0  0  0
   22.0059  -17.6283  -15.0006 N   0  0  0  0  0  0  0  0  0  0  0  0
   19.4108  -20.8534  -14.6617 C   0  0  0  0  0  0  0  0  0  0  0  0
   18.7007  -20.0257  -13.7651 O   0  0  0  0  0  0  0  0  0  0  0  0
   18.7713  -21.2548  -15.6525 O   0  0  0  0  0  0  0  0  0  0  0  0
  2  1  1  6
  3  2  1  0
  3  4  1  0
  4  5  2  0
  6  2  1  0
  6  7  2  0
  8  4  1  0
  9 10  1  0
 10 20  2  0
 10 11  1  0
 11 12  2  0
 12 13  1  0
 13 14  1  0
 15 14  1  1
 15 16  1  0
 16  6  1  0
 17 15  1  0
 18 17  2  0
 19 13  2  0
 20 19  1  0
 21 17  1  0
 22 21  1  0
 22 29  1  0
 22 23  1  6
 24 23  1  0
 24 25  2  0
 26 25  1  0
 27 26  1  0
 28 27  2  0
 28 24  1  0
 29 30  1  0
 31 29  2  0
M  END
$$$$
