DYH.pdb
     RDKit          3D

 31 32  0  0  1  0  0  0  0  0999 V2000
   23.3490  -12.6310  -18.7560 N   0  0  0  0  0  0  0  0  0  0  0  0
   22.3625  -12.3673  -17.7354 C   0  0  1  0  0  0  0  0  0  0  0  0
   22.1604  -13.5585  -16.8124 C   0  0  0  0  0  0  0  0  0  0  0  0
   21.5699  -14.6900  -17.5429 C   0  0  0  0  0  0  0  0  0  0  0  0
   21.1904  -14.5413  -18.7200 O   0  0  0  0  0  0  0  0  0  0  0  0
   22.7906  -11.2466  -16.8342 C   0  0  0  0  0  0  0  0  0  0  0  0
   22.3923  -11.1069  -15.6563 O   0  0  0  0  0  0  0  0  0  0  0  0
   21.4234  -15.9265  -16.9517 O   0  0  0  0  0  0  0  0  0  0  0  0
   29.1216  -12.8838  -15.8773 O   0  0  0  0  0  0  0  0  0  0  0  0
   28.2098  -11.8271  -16.0574 C   0  0  0  0  0  0  0  0  0  0  0  0
   27.7195  -11.1578  -14.9739 C   0  0  0  0  0  0  0  0  0  0  0  0
   26.8207  -10.1187  -15.1974 C   0  0  0  0  0  0  0  0  0  0  0  0
   26.4143   -9.7473  -16.4533 C   0  0  0  0  0  0  0  0  0  0  0  0
   25.4635   -8.6461  -16.6079 C   0  0  0  0  0  0  0  0  0  0  0  0
   24.0069   -9.0583  -16.4827 C   0  0  2  0  0  0  0  0  0  0  0  0
   23.7191  -10.2277  -17.2816 N   0  0  0  0  0  0  0  0  0  0  0  0
   23.0717   -7.9440  -16.6820 C   0  0  0  0  0  0  0  0  0  0  0  0
   22.9671   -7.4409  -17.8254 O   0  0  0  0  0  0  0  0  0  0  0  0
   26.9191  -10.4325  -17.5326 C   0  0  0  0  0  0  0  0  0  0  0  0
   27.8053  -11.4580  -17.3205 C   0  0  0  0  0  0  0  0  0  0  0  0
   22.2557   -7.3721  -15.6688 N   0  0  0  0  0  0  0  0  0  0  0  0
   21.1891   -6.4147  -16.0135 C   0  0  1  0  0  0  0  0  0  0  0  0
   20.2788   -7.0077  -17.0599 C   0  0  0  0  0  0  0  0  0  0  0  0
   19.2560   -6.0057  -17.4559 C   0  0  0  0  0  0  0  0  0  0  0  0
   19.0970   -4.7142  -17.0024 C   0  0  0  0  0  0  0  0  0  0  0  0
   18.0312   -4.1887  -17.6309 N   0  0  0  0  0  0  0  0  0  0  0  0
   17.5103   -5.0995  -18.4645 C   0  0  0  0  0  0  0  0  0  0  0  0
   18.2484   -6.2020  -18.3621 N   0  0  0  0  0  0  0  0  0  0  0  0
   20.4785   -5.9587  -14.8188 C   0  0  0  0  0  0  0  0  0  0  0  0
   19.4800   -4.9806  -15.0170 O   0  0  0  0  0  0  0  0  0  0  0  0
   20.6472   -6.3318  -13.6424 O   0  0  0  0  0  0  0  0  0  0  0  0
  2  1  1  6
  3  2  1  0
  3  4  1  0
  4  5  2  0
  6  2  1  0
  6  7  2  0
  8  4  1  0
  9 10  1  0
 10 20  2  0
 10 11  1  0
 11 12  2  0
 12 13  1  0
 13 14  1  0
 15 14  1  6
 15 16  1  0
 16  6  1  0
 17 15  1  0
 18 17  2  0
 19 13  2  0
 20 19  1  0
 21 17  1  0
 22 21  1  0
 22 29  1  0
 22 23  1  6
 24 23  1  0
 24 25  2  0
 26 25  1  0
 27 26  1  0
 28 27  2  0
 28 24  1  0
 29 30  1  0
 31 29  2  0
M  END
$$$$
