DYH.pdb
     RDKit          3D

 31 32  0  0  1  0  0  0  0  0999 V2000
   19.3471  -13.9737  -17.4494 N   0  0  0  0  0  0  0  0  0  0  0  0
   20.0293  -12.8585  -18.0621 C   0  0  1  0  0  0  0  0  0  0  0  0
   19.3888  -12.4482  -19.3785 C   0  0  0  0  0  0  0  0  0  0  0  0
   19.5458  -13.5069  -20.3871 C   0  0  0  0  0  0  0  0  0  0  0  0
   19.5667  -14.7022  -20.0371 O   0  0  0  0  0  0  0  0  0  0  0  0
   19.9623  -11.6326  -17.1994 C   0  0  0  0  0  0  0  0  0  0  0  0
   18.9229  -11.2400  -16.6238 O   0  0  0  0  0  0  0  0  0  0  0  0
   19.6723  -13.2074  -21.7266 O   0  0  0  0  0  0  0  0  0  0  0  0
   22.5454   -4.2017  -13.0320 O   0  0  0  0  0  0  0  0  0  0  0  0
   22.5016   -5.4636  -13.6534 C   0  0  0  0  0  0  0  0  0  0  0  0
   22.9801   -5.6154  -14.9224 C   0  0  0  0  0  0  0  0  0  0  0  0
   22.9182   -6.8809  -15.4988 C   0  0  0  0  0  0  0  0  0  0  0  0
   22.3995   -7.9688  -14.8448 C   0  0  0  0  0  0  0  0  0  0  0  0
   22.3658   -9.2672  -15.5183 C   0  0  0  0  0  0  0  0  0  0  0  0
   21.0505   -9.5749  -16.2130 C   0  0  2  0  0  0  0  0  0  0  0  0
   21.1285  -10.8035  -16.9700 N   0  0  0  0  0  0  0  0  0  0  0  0
   20.5132   -8.4338  -16.9647 C   0  0  0  0  0  0  0  0  0  0  0  0
   21.0795   -8.0920  -18.0296 O   0  0  0  0  0  0  0  0  0  0  0  0
   21.9228   -7.7970  -13.5671 C   0  0  0  0  0  0  0  0  0  0  0  0
   21.9801   -6.5527  -12.9922 C   0  0  0  0  0  0  0  0  0  0  0  0
   19.3810   -7.6646  -16.5824 N   0  0  0  0  0  0  0  0  0  0  0  0
   19.0159   -6.4440  -17.3239 C   0  0  1  0  0  0  0  0  0  0  0  0
   17.7041   -6.6461  -18.0405 C   0  0  0  0  0  0  0  0  0  0  0  0
   17.3812   -5.4355  -18.8389 C   0  0  0  0  0  0  0  0  0  0  0  0
   18.0751   -4.8951  -19.8997 C   0  0  0  0  0  0  0  0  0  0  0  0
   17.4175   -3.7928  -20.2991 N   0  0  0  0  0  0  0  0  0  0  0  0
   16.3340   -3.6159  -19.5305 C   0  0  0  0  0  0  0  0  0  0  0  0
   16.3076   -4.6082  -18.6443 N   0  0  0  0  0  0  0  0  0  0  0  0
   19.0241   -5.2702  -16.4509 C   0  0  0  0  0  0  0  0  0  0  0  0
   19.3067   -4.0316  -17.0667 O   0  0  0  0  0  0  0  0  0  0  0  0
   18.8095   -5.2303  -15.2246 O   0  0  0  0  0  0  0  0  0  0  0  0
  2  1  1  1
  3  2  1  0
  3  4  1  0
  4  5  2  0
  6  2  1  0
  6  7  2  0
  8  4  1  0
  9 10  1  0
 10 20  2  0
 10 11  1  0
 11 12  2  0
 12 13  1  0
 13 14  1  0
 15 14  1  6
 15 16  1  0
 16  6  1  0
 17 15  1  0
 18 17  2  0
 19 13  2  0
 20 19  1  0
 21 17  1  0
 22 21  1  0
 22 29  1  0
 22 23  1  1
 24 23  1  0
 24 25  2  0
 26 25  1  0
 27 26  1  0
 28 27  2  0
 28 24  1  0
 29 30  1  0
 31 29  2  0
M  END
$$$$
