DYH.pdb
     RDKit          3D

 31 32  0  0  1  0  0  0  0  0999 V2000
   23.7160  -13.2566  -17.2613 N   0  0  0  0  0  0  0  0  0  0  0  0
   23.3370  -11.9743  -17.8057 C   0  0  1  0  0  0  0  0  0  0  0  0
   22.0130  -12.0367  -18.5506 C   0  0  0  0  0  0  0  0  0  0  0  0
   22.0822  -13.0032  -19.6569 C   0  0  0  0  0  0  0  0  0  0  0  0
   23.0772  -13.0219  -20.4061 O   0  0  0  0  0  0  0  0  0  0  0  0
   23.1246  -10.9586  -16.7217 C   0  0  0  0  0  0  0  0  0  0  0  0
   22.6949  -11.2359  -15.5797 O   0  0  0  0  0  0  0  0  0  0  0  0
   21.0618  -13.9003  -19.8895 O   0  0  0  0  0  0  0  0  0  0  0  0
   29.0732  -11.1374  -16.9846 O   0  0  0  0  0  0  0  0  0  0  0  0
   27.9130  -10.5443  -16.4528 C   0  0  0  0  0  0  0  0  0  0  0  0
   27.3727   -9.4449  -17.0542 C   0  0  0  0  0  0  0  0  0  0  0  0
   26.2245   -8.8906  -16.4957 C   0  0  0  0  0  0  0  0  0  0  0  0
   25.6232   -9.4036  -15.3751 C   0  0  0  0  0  0  0  0  0  0  0  0
   24.4192   -8.7633  -14.8449 C   0  0  0  0  0  0  0  0  0  0  0  0
   23.3067   -8.5874  -15.8640 C   0  0  2  0  0  0  0  0  0  0  0  0
   23.4130   -9.5542  -16.9330 N   0  0  0  0  0  0  0  0  0  0  0  0
   23.1515   -7.1992  -16.3165 C   0  0  0  0  0  0  0  0  0  0  0  0
   23.9659   -6.7424  -17.1528 O   0  0  0  0  0  0  0  0  0  0  0  0
   26.1813  -10.5116  -14.7834 C   0  0  0  0  0  0  0  0  0  0  0  0
   27.3131  -11.0636  -15.3278 C   0  0  0  0  0  0  0  0  0  0  0  0
   22.1355   -6.3070  -15.8794 N   0  0  0  0  0  0  0  0  0  0  0  0
   21.5054   -5.3649  -16.8220 C   0  0  1  0  0  0  0  0  0  0  0  0
   20.8715   -6.1203  -17.9634 C   0  0  0  0  0  0  0  0  0  0  0  0
   20.2629   -5.1596  -18.9193 C   0  0  0  0  0  0  0  0  0  0  0  0
   19.1823   -4.3257  -18.7293 C   0  0  0  0  0  0  0  0  0  0  0  0
   18.9836   -3.6475  -19.8728 N   0  0  0  0  0  0  0  0  0  0  0  0
   19.8977   -4.0213  -20.7786 C   0  0  0  0  0  0  0  0  0  0  0  0
   20.6749   -4.9373  -20.2061 N   0  0  0  0  0  0  0  0  0  0  0  0
   20.5767   -4.4676  -16.1347 C   0  0  0  0  0  0  0  0  0  0  0  0
   20.1664   -4.8586  -14.8417 O   0  0  0  0  0  0  0  0  0  0  0  0
   20.1030   -3.3942  -16.5532 O   0  0  0  0  0  0  0  0  0  0  0  0
  2  1  1  1
  3  2  1  0
  3  4  1  0
  4  5  2  0
  6  2  1  0
  6  7  2  0
  8  4  1  0
  9 10  1  0
 10 20  2  0
 10 11  1  0
 11 12  2  0
 12 13  1  0
 13 14  1  0
 15 14  1  6
 15 16  1  0
 16  6  1  0
 17 15  1  0
 18 17  2  0
 19 13  2  0
 20 19  1  0
 21 17  1  0
 22 21  1  0
 22 29  1  0
 22 23  1  6
 24 23  1  0
 24 25  2  0
 26 25  1  0
 27 26  1  0
 28 27  2  0
 28 24  1  0
 29 30  1  0
 31 29  2  0
M  END
$$$$
