DYH.pdb
     RDKit          3D

 31 32  0  0  1  0  0  0  0  0999 V2000
   20.8335  -10.3055  -17.4365 N   0  0  0  0  0  0  0  0  0  0  0  0
   21.3854   -9.0460  -17.8764 C   0  0  1  0  0  0  0  0  0  0  0  0
   20.8582   -8.6351  -19.2420 C   0  0  0  0  0  0  0  0  0  0  0  0
   21.4882   -9.4319  -20.3056 C   0  0  0  0  0  0  0  0  0  0  0  0
   20.9607  -10.4957  -20.6820 O   0  0  0  0  0  0  0  0  0  0  0  0
   20.9969   -7.9253  -16.9574 C   0  0  0  0  0  0  0  0  0  0  0  0
   19.8870   -7.8444  -16.3854 O   0  0  0  0  0  0  0  0  0  0  0  0
   22.6621   -9.0273  -20.9042 O   0  0  0  0  0  0  0  0  0  0  0  0
   21.0330   -9.7852  -10.7765 O   0  0  0  0  0  0  0  0  0  0  0  0
   21.3787   -8.7875  -11.7068 C   0  0  0  0  0  0  0  0  0  0  0  0
   20.7038   -7.6014  -11.7165 C   0  0  0  0  0  0  0  0  0  0  0  0
   21.0787   -6.6420  -12.6528 C   0  0  0  0  0  0  0  0  0  0  0  0
   22.0906   -6.8433  -13.5560 C   0  0  0  0  0  0  0  0  0  0  0  0
   22.4250   -5.7877  -14.5122 C   0  0  0  0  0  0  0  0  0  0  0  0
   21.5505   -5.7719  -15.7541 C   0  0  2  0  0  0  0  0  0  0  0  0
   21.9073   -6.8365  -16.6640 N   0  0  0  0  0  0  0  0  0  0  0  0
   21.4584   -4.4466  -16.3794 C   0  0  0  0  0  0  0  0  0  0  0  0
   22.4876   -3.9490  -16.8937 O   0  0  0  0  0  0  0  0  0  0  0  0
   22.7595   -8.0438  -13.5309 C   0  0  0  0  0  0  0  0  0  0  0  0
   22.3958   -8.9945  -12.6113 C   0  0  0  0  0  0  0  0  0  0  0  0
   20.2773   -3.6598  -16.4545 N   0  0  0  0  0  0  0  0  0  0  0  0
   20.2887   -2.3489  -17.1286 C   0  0  1  0  0  0  0  0  0  0  0  0
   19.2269   -2.3075  -18.1991 C   0  0  0  0  0  0  0  0  0  0  0  0
   19.5630   -3.2788  -19.2718 C   0  0  0  0  0  0  0  0  0  0  0  0
   19.1831   -4.5984  -19.3865 C   0  0  0  0  0  0  0  0  0  0  0  0
   19.7345   -5.0861  -20.5114 N   0  0  0  0  0  0  0  0  0  0  0  0
   20.4489   -4.1243  -21.1120 C   0  0  0  0  0  0  0  0  0  0  0  0
   20.3484   -3.0277  -20.3650 N   0  0  0  0  0  0  0  0  0  0  0  0
   20.1810   -1.2547  -16.1635 C   0  0  0  0  0  0  0  0  0  0  0  0
   21.1128   -0.2029  -16.3000 O   0  0  0  0  0  0  0  0  0  0  0  0
   19.3620   -1.1371  -15.2324 O   0  0  0  0  0  0  0  0  0  0  0  0
  2  1  1  1
  3  2  1  0
  3  4  1  0
  4  5  2  0
  6  2  1  0
  6  7  2  0
  8  4  1  0
  9 10  1  0
 10 20  2  0
 10 11  1  0
 11 12  2  0
 12 13  1  0
 13 14  1  0
 15 14  1  1
 15 16  1  0
 16  6  1  0
 17 15  1  0
 18 17  2  0
 19 13  2  0
 20 19  1  0
 21 17  1  0
 22 21  1  0
 22 29  1  0
 22 23  1  6
 24 23  1  0
 24 25  2  0
 26 25  1  0
 27 26  1  0
 28 27  2  0
 28 24  1  0
 29 30  1  0
 31 29  2  0
M  END
$$$$
