DYH.pdb
     RDKit          3D

 31 32  0  0  1  0  0  0  0  0999 V2000
   23.2005   -9.9784  -18.0548 N   0  0  0  0  0  0  0  0  0  0  0  0
   21.7762  -10.0064  -18.2895 C   0  0  1  0  0  0  0  0  0  0  0  0
   21.2208  -11.4217  -18.2753 C   0  0  0  0  0  0  0  0  0  0  0  0
   21.7941  -12.2178  -19.3709 C   0  0  0  0  0  0  0  0  0  0  0  0
   23.0294  -12.3446  -19.4683 O   0  0  0  0  0  0  0  0  0  0  0  0
   21.0271   -9.2849  -17.2078 C   0  0  0  0  0  0  0  0  0  0  0  0
   19.7789   -9.2469  -17.1292 O   0  0  0  0  0  0  0  0  0  0  0  0
   20.9899  -12.8350  -20.3049 O   0  0  0  0  0  0  0  0  0  0  0  0
   18.7898   -5.5467   -9.5611 O   0  0  0  0  0  0  0  0  0  0  0  0
   19.4988   -6.1600  -10.6107 C   0  0  0  0  0  0  0  0  0  0  0  0
   20.5999   -5.5496  -11.1373 C   0  0  0  0  0  0  0  0  0  0  0  0
   21.2719   -6.1915  -12.1737 C   0  0  0  0  0  0  0  0  0  0  0  0
   20.8720   -7.4018  -12.6791 C   0  0  0  0  0  0  0  0  0  0  0  0
   21.6286   -8.0130  -13.7721 C   0  0  0  0  0  0  0  0  0  0  0  0
   21.0038   -7.8253  -15.1438 C   0  0  2  0  0  0  0  0  0  0  0  0
   21.7197   -8.5683  -16.1556 N   0  0  0  0  0  0  0  0  0  0  0  0
   20.7653   -6.4167  -15.4824 C   0  0  0  0  0  0  0  0  0  0  0  0
   21.7507   -5.6725  -15.6984 O   0  0  0  0  0  0  0  0  0  0  0  0
   19.7611   -8.0018  -12.1358 C   0  0  0  0  0  0  0  0  0  0  0  0
   19.0932   -7.3754  -11.1143 C   0  0  0  0  0  0  0  0  0  0  0  0
   19.4854   -5.8082  -15.5892 N   0  0  0  0  0  0  0  0  0  0  0  0
   19.3592   -4.3567  -15.8130 C   0  0  1  0  0  0  0  0  0  0  0  0
   18.7383   -4.0925  -17.1621 C   0  0  0  0  0  0  0  0  0  0  0  0
   18.6779   -2.6280  -17.4044 C   0  0  0  0  0  0  0  0  0  0  0  0
   19.7091   -1.7618  -17.6965 C   0  0  0  0  0  0  0  0  0  0  0  0
   19.1853   -0.5299  -17.8200 N   0  0  0  0  0  0  0  0  0  0  0  0
   17.8619   -0.5847  -17.6166 C   0  0  0  0  0  0  0  0  0  0  0  0
   17.5495   -1.8534  -17.3643 N   0  0  0  0  0  0  0  0  0  0  0  0
   18.6472   -3.7095  -14.7111 C   0  0  0  0  0  0  0  0  0  0  0  0
   18.9025   -2.3342  -14.5200 O   0  0  0  0  0  0  0  0  0  0  0  0
   17.8378   -4.2268  -13.9180 O   0  0  0  0  0  0  0  0  0  0  0  0
  2  1  1  1
  3  2  1  0
  3  4  1  0
  4  5  2  0
  6  2  1  0
  6  7  2  0
  8  4  1  0
  9 10  1  0
 10 20  2  0
 10 11  1  0
 11 12  2  0
 12 13  1  0
 13 14  1  0
 15 14  1  1
 15 16  1  0
 16  6  1  0
 17 15  1  0
 18 17  2  0
 19 13  2  0
 20 19  1  0
 21 17  1  0
 22 21  1  0
 22 29  1  0
 22 23  1  6
 24 23  1  0
 24 25  2  0
 26 25  1  0
 27 26  1  0
 28 27  2  0
 28 24  1  0
 29 30  1  0
 31 29  2  0
M  END
$$$$
