AVN.pdb
     RDKit          3D

 21 20  0  0  1  0  0  0  0  0999 V2000
   18.3562  -10.0391  -19.4282 C   0  0  0  0  0  0  0  0  0  0  0  0
   18.8711  -11.2034  -18.6132 C   0  0  2  0  0  0  0  0  0  0  0  0
   17.7318  -11.9895  -18.1826 N   0  0  0  0  0  0  0  0  0  0  0  0
   19.5779  -10.6130  -17.4275 C   0  0  0  0  0  0  0  0  0  0  0  0
   18.9118  -10.0661  -16.5269 O   0  0  0  0  0  0  0  0  0  0  0  0
   23.7311  -10.4424  -14.6928 C   0  0  0  0  0  0  0  0  0  0  0  0
   22.9192  -10.9652  -15.8253 C   0  0  1  0  0  0  0  0  0  0  0  0
   22.4550  -12.3793  -15.4913 C   0  0  0  0  0  0  0  0  0  0  0  0
   21.7038  -10.1586  -16.1497 C   0  0  2  0  0  0  0  0  0  0  0  0
   20.9835  -10.6516  -17.2875 N   0  0  0  0  0  0  0  0  0  0  0  0
   21.9640   -8.6956  -16.2293 C   0  0  0  0  0  0  0  0  0  0  0  0
   22.5327   -8.2080  -17.2389 O   0  0  0  0  0  0  0  0  0  0  0  0
   22.2272   -3.5679  -15.5301 N   0  0  0  0  0  0  0  0  0  0  0  0
   21.1295   -4.1728  -16.1950 C   0  0  0  0  0  0  0  0  0  0  0  0
   20.3640   -3.4374  -16.8643 O   0  0  0  0  0  0  0  0  0  0  0  0
   20.8771   -5.6078  -16.1175 C   0  0  0  0  0  0  0  0  0  0  0  0
   21.8830   -6.3824  -15.2967 C   0  0  2  0  0  0  0  0  0  0  0  0
   21.5994   -7.7822  -15.2021 N   0  0  0  0  0  0  0  0  0  0  0  0
   21.9319   -5.8204  -13.9296 C   0  0  0  0  0  0  0  0  0  0  0  0
   21.4249   -6.4647  -12.9868 O   0  0  0  0  0  0  0  0  0  0  0  0
   22.5232   -4.6034  -13.6708 O   0  0  0  0  0  0  0  0  0  0  0  0
  2  1  1  6
  2  4  1  0
  3  2  1  0
  4  5  2  0
  7  6  1  1
  7  8  1  0
  7  9  1  0
  9 11  1  0
 10  4  1  0
  9 10  1  6
 11 12  2  0
 11 18  1  0
 13 14  1  0
 14 15  2  0
 17 16  1  6
 16 14  1  0
 17 19  1  0
 18 17  1  0
 19 20  2  0
 19 21  1  0
M  END
$$$$
