AVN.pdb
     RDKit          3D

 21 20  0  0  1  0  0  0  0  0999 V2000
   17.3524  -11.5874  -11.5090 C   0  0  0  0  0  0  0  0  0  0  0  0
   16.0814  -11.2443  -10.7661 C   0  0  2  0  0  0  0  0  0  0  0  0
   15.0039  -12.0328  -11.3306 N   0  0  0  0  0  0  0  0  0  0  0  0
   15.8357   -9.7813  -10.9966 C   0  0  0  0  0  0  0  0  0  0  0  0
   15.3860   -9.4011  -12.0953 O   0  0  0  0  0  0  0  0  0  0  0  0
   13.6340   -7.4748   -8.9366 C   0  0  0  0  0  0  0  0  0  0  0  0
   14.9770   -6.8460   -9.0631 C   0  0  1  0  0  0  0  0  0  0  0  0
   15.7354   -7.0285   -7.7523 C   0  0  0  0  0  0  0  0  0  0  0  0
   15.8294   -7.4037  -10.1564 C   0  0  2  0  0  0  0  0  0  0  0  0
   16.0957   -8.8050  -10.0086 N   0  0  0  0  0  0  0  0  0  0  0  0
   17.0635   -6.6123  -10.4115 C   0  0  0  0  0  0  0  0  0  0  0  0
   18.0333   -6.6777   -9.6143 O   0  0  0  0  0  0  0  0  0  0  0  0
   21.8770   -5.2589  -12.4834 N   0  0  0  0  0  0  0  0  0  0  0  0
   20.5968   -5.0630  -13.0626 C   0  0  0  0  0  0  0  0  0  0  0  0
   20.4819   -4.2026  -13.9689 O   0  0  0  0  0  0  0  0  0  0  0  0
   19.4312   -5.8286  -12.6333 C   0  0  0  0  0  0  0  0  0  0  0  0
   18.4439   -5.0553  -11.7890 C   0  0  2  0  0  0  0  0  0  0  0  0
   17.2222   -5.7571  -11.5366 N   0  0  0  0  0  0  0  0  0  0  0  0
   18.1210   -3.7794  -12.4635 C   0  0  0  0  0  0  0  0  0  0  0  0
   17.1292   -3.7241  -13.2212 O   0  0  0  0  0  0  0  0  0  0  0  0
   18.8878   -2.6504  -12.2761 O   0  0  0  0  0  0  0  0  0  0  0  0
  2  1  1  6
  2  4  1  0
  3  2  1  0
  4  5  2  0
  7  6  1  1
  7  8  1  0
  7  9  1  0
  9 11  1  0
 10  4  1  0
  9 10  1  1
 11 12  2  0
 11 18  1  0
 13 14  1  0
 14 15  2  0
 17 16  1  6
 16 14  1  0
 17 19  1  0
 18 17  1  0
 19 20  2  0
 19 21  1  0
M  END
$$$$
