AVN.pdb
     RDKit          3D

 21 20  0  0  1  0  0  0  0  0999 V2000
   19.9920  -13.4567  -15.5655 C   0  0  0  0  0  0  0  0  0  0  0  0
   18.6169  -13.1547  -16.1160 C   0  0  2  0  0  0  0  0  0  0  0  0
   18.3530  -14.0809  -17.1995 N   0  0  0  0  0  0  0  0  0  0  0  0
   18.6655  -11.7457  -16.6320 C   0  0  0  0  0  0  0  0  0  0  0  0
   19.1900  -11.5164  -17.7392 O   0  0  0  0  0  0  0  0  0  0  0  0
   16.2695   -9.6114  -17.9985 C   0  0  0  0  0  0  0  0  0  0  0  0
   16.8166   -8.8274  -16.8579 C   0  0  1  0  0  0  0  0  0  0  0  0
   15.8362   -8.8991  -15.6915 C   0  0  0  0  0  0  0  0  0  0  0  0
   18.1451   -9.2936  -16.3571 C   0  0  2  0  0  0  0  0  0  0  0  0
   18.1351  -10.6550  -15.9067 N   0  0  0  0  0  0  0  0  0  0  0  0
   18.7662   -8.3704  -15.3691 C   0  0  0  0  0  0  0  0  0  0  0  0
   18.6241   -8.5738  -14.1366 O   0  0  0  0  0  0  0  0  0  0  0  0
   22.4603   -5.7260  -12.4767 N   0  0  0  0  0  0  0  0  0  0  0  0
   22.2660   -5.4438  -13.8534 C   0  0  0  0  0  0  0  0  0  0  0  0
   22.6491   -4.3314  -14.2900 O   0  0  0  0  0  0  0  0  0  0  0  0
   21.6404   -6.4043  -14.7562 C   0  0  0  0  0  0  0  0  0  0  0  0
   20.1290   -6.3684  -14.7676 C   0  0  2  0  0  0  0  0  0  0  0  0
   19.5358   -7.2339  -15.7411 N   0  0  0  0  0  0  0  0  0  0  0  0
   19.6769   -4.9854  -15.0321 C   0  0  0  0  0  0  0  0  0  0  0  0
   19.3968   -4.6486  -16.2022 O   0  0  0  0  0  0  0  0  0  0  0  0
   19.5570   -4.0596  -14.0191 O   0  0  0  0  0  0  0  0  0  0  0  0
  2  1  1  6
  2  4  1  0
  3  2  1  0
  4  5  2  0
  7  6  1  6
  7  8  1  0
  7  9  1  0
  9 11  1  0
 10  4  1  0
  9 10  1  1
 11 12  2  0
 11 18  1  0
 13 14  1  0
 14 15  2  0
 17 16  1  6
 16 14  1  0
 17 19  1  0
 18 17  1  0
 19 20  2  0
 19 21  1  0
M  END
$$$$
