AVN.pdb
     RDKit          3D

 21 20  0  0  1  0  0  0  0  0999 V2000
   18.1790  -14.1733  -17.9522 C   0  0  0  0  0  0  0  0  0  0  0  0
   19.0407  -13.0452  -18.4716 C   0  0  2  0  0  0  0  0  0  0  0  0
   20.1956  -13.6267  -19.1270 N   0  0  0  0  0  0  0  0  0  0  0  0
   19.4655  -12.2478  -17.2727 C   0  0  0  0  0  0  0  0  0  0  0  0
   18.6094  -11.8885  -16.4410 O   0  0  0  0  0  0  0  0  0  0  0  0
   23.6914  -11.0094  -16.5900 C   0  0  0  0  0  0  0  0  0  0  0  0
   22.6788  -11.3544  -15.5553 C   0  0  1  0  0  0  0  0  0  0  0  0
   22.9693  -10.5527  -14.2905 C   0  0  0  0  0  0  0  0  0  0  0  0
   21.2635  -11.0778  -15.9470 C   0  0  2  0  0  0  0  0  0  0  0  0
   20.8115  -11.8828  -17.0443 N   0  0  0  0  0  0  0  0  0  0  0  0
   20.9715   -9.6318  -16.1420 C   0  0  0  0  0  0  0  0  0  0  0  0
   21.3531   -9.0443  -17.1859 O   0  0  0  0  0  0  0  0  0  0  0  0
   19.1505   -4.7594  -15.7691 N   0  0  0  0  0  0  0  0  0  0  0  0
   18.1692   -5.7144  -15.3981 C   0  0  0  0  0  0  0  0  0  0  0  0
   16.9915   -5.3171  -15.2252 O   0  0  0  0  0  0  0  0  0  0  0  0
   18.4960   -7.1248  -15.2166 C   0  0  0  0  0  0  0  0  0  0  0  0
   19.9529   -7.4679  -15.4299 C   0  0  2  0  0  0  0  0  0  0  0  0
   20.2653   -8.8442  -15.1915 N   0  0  0  0  0  0  0  0  0  0  0  0
   20.7850   -6.6361  -14.5340 C   0  0  0  0  0  0  0  0  0  0  0  0
   21.2107   -7.1270  -13.4669 O   0  0  0  0  0  0  0  0  0  0  0  0
   21.1022   -5.3328  -14.8480 O   0  0  0  0  0  0  0  0  0  0  0  0
  2  1  1  1
  2  4  1  0
  3  2  1  0
  4  5  2  0
  7  6  1  6
  7  8  1  0
  7  9  1  0
  9 11  1  0
 10  4  1  0
  9 10  1  6
 11 12  2  0
 11 18  1  0
 13 14  1  0
 14 15  2  0
 17 16  1  1
 16 14  1  0
 17 19  1  0
 18 17  1  0
 19 20  2  0
 19 21  1  0
M  END
$$$$
