AVN.pdb
     RDKit          3D

 21 20  0  0  1  0  0  0  0  0999 V2000
   27.0806  -19.6781  -16.2896 C   0  0  0  0  0  0  0  0  0  0  0  0
   27.7062  -20.6112  -15.2781 C   0  0  2  0  0  0  0  0  0  0  0  0
   28.3029  -21.7193  -15.9975 N   0  0  0  0  0  0  0  0  0  0  0  0
   26.5894  -21.0976  -14.4005 C   0  0  0  0  0  0  0  0  0  0  0  0
   25.7178  -21.8498  -14.8782 O   0  0  0  0  0  0  0  0  0  0  0  0
   25.8952  -19.5338  -10.2921 C   0  0  0  0  0  0  0  0  0  0  0  0
   25.7346  -20.9501  -10.7204 C   0  0  1  0  0  0  0  0  0  0  0  0
   24.6036  -21.5855   -9.9180 C   0  0  0  0  0  0  0  0  0  0  0  0
   25.4162  -21.1344  -12.1686 C   0  0  2  0  0  0  0  0  0  0  0  0
   26.4833  -20.7343  -13.0390 N   0  0  0  0  0  0  0  0  0  0  0  0
   24.1057  -20.5539  -12.5686 C   0  0  0  0  0  0  0  0  0  0  0  0
   24.0494  -19.3994  -13.0630 O   0  0  0  0  0  0  0  0  0  0  0  0
   19.3295  -21.3989  -15.6683 N   0  0  0  0  0  0  0  0  0  0  0  0
   20.2790  -20.5309  -15.0702 C   0  0  0  0  0  0  0  0  0  0  0  0
   20.0360  -19.2997  -15.0659 O   0  0  0  0  0  0  0  0  0  0  0  0
   21.5110  -21.0321  -14.4703 C   0  0  0  0  0  0  0  0  0  0  0  0
   21.6542  -20.7491  -12.9922 C   0  0  2  0  0  0  0  0  0  0  0  0
   22.8706  -21.2435  -12.4224 N   0  0  0  0  0  0  0  0  0  0  0  0
   20.5165  -21.3558  -12.2679 C   0  0  0  0  0  0  0  0  0  0  0  0
   19.5475  -20.6372  -11.9428 O   0  0  0  0  0  0  0  0  0  0  0  0
   20.4996  -22.6944  -11.9432 O   0  0  0  0  0  0  0  0  0  0  0  0
  2  1  1  6
  2  4  1  0
  3  2  1  0
  4  5  2  0
  7  6  1  6
  7  8  1  0
  7  9  1  0
  9 11  1  0
 10  4  1  0
  9 10  1  6
 11 12  2  0
 11 18  1  0
 13 14  1  0
 14 15  2  0
 17 16  1  6
 16 14  1  0
 17 19  1  0
 18 17  1  0
 19 20  2  0
 19 21  1  0
M  END
$$$$
