AVN.pdb
     RDKit          3D

 21 20  0  0  1  0  0  0  0  0999 V2000
   17.9654  -11.2968  -18.5672 C   0  0  0  0  0  0  0  0  0  0  0  0
   18.9317  -12.2192  -17.8597 C   0  0  2  0  0  0  0  0  0  0  0  0
   18.1728  -13.3171  -17.2939 N   0  0  0  0  0  0  0  0  0  0  0  0
   19.5722  -11.4092  -16.7699 C   0  0  0  0  0  0  0  0  0  0  0  0
   18.8978  -11.0786  -15.7752 O   0  0  0  0  0  0  0  0  0  0  0  0
   23.7005   -9.9320  -14.4851 C   0  0  0  0  0  0  0  0  0  0  0  0
   22.9569  -10.7397  -15.4899 C   0  0  1  0  0  0  0  0  0  0  0  0
   22.8106  -12.1661  -14.9694 C   0  0  0  0  0  0  0  0  0  0  0  0
   21.5869  -10.2357  -15.8093 C   0  0  2  0  0  0  0  0  0  0  0  0
   20.9239  -11.0008  -16.8249 N   0  0  0  0  0  0  0  0  0  0  0  0
   21.5379   -8.7723  -16.0744 C   0  0  0  0  0  0  0  0  0  0  0  0
   21.9622   -8.3120  -17.1646 O   0  0  0  0  0  0  0  0  0  0  0  0
   19.3566   -3.8315  -16.9473 N   0  0  0  0  0  0  0  0  0  0  0  0
   19.4810   -4.4282  -15.6662 C   0  0  0  0  0  0  0  0  0  0  0  0
   19.5232   -3.6749  -14.6634 O   0  0  0  0  0  0  0  0  0  0  0  0
   19.5594   -5.8749  -15.4940 C   0  0  0  0  0  0  0  0  0  0  0  0
   20.9650   -6.4287  -15.4367 C   0  0  2  0  0  0  0  0  0  0  0  0
   21.0253   -7.8282  -15.1426 N   0  0  0  0  0  0  0  0  0  0  0  0
   21.7339   -5.6992  -14.4054 C   0  0  0  0  0  0  0  0  0  0  0  0
   21.8384   -6.1903  -13.2613 O   0  0  0  0  0  0  0  0  0  0  0  0
   22.3379   -4.4910  -14.6760 O   0  0  0  0  0  0  0  0  0  0  0  0
  2  1  1  1
  2  4  1  0
  3  2  1  0
  4  5  2  0
  7  6  1  1
  7  8  1  0
  7  9  1  0
  9 11  1  0
 10  4  1  0
  9 10  1  6
 11 12  2  0
 11 18  1  0
 13 14  1  0
 14 15  2  0
 17 16  1  1
 16 14  1  0
 17 19  1  0
 18 17  1  0
 19 20  2  0
 19 21  1  0
M  END
$$$$
