AVN.pdb
     RDKit          3D

 21 20  0  0  1  0  0  0  0  0999 V2000
   43.3421  -10.3786   -9.3747 C   0  0  0  0  0  0  0  0  0  0  0  0
   42.1280  -11.2781   -9.3303 C   0  0  2  0  0  0  0  0  0  0  0  0
   42.1336  -12.1002  -10.5242 N   0  0  0  0  0  0  0  0  0  0  0  0
   40.9293  -10.3743   -9.3227 C   0  0  0  0  0  0  0  0  0  0  0  0
   40.4050  -10.0428  -10.4039 O   0  0  0  0  0  0  0  0  0  0  0  0
   37.0233   -8.7666   -6.7363 C   0  0  0  0  0  0  0  0  0  0  0  0
   38.2712   -9.5609   -6.8996 C   0  0  1  0  0  0  0  0  0  0  0  0
   37.9025  -11.0265   -7.1067 C   0  0  0  0  0  0  0  0  0  0  0  0
   39.1312   -9.1475   -8.0495 C   0  0  2  0  0  0  0  0  0  0  0  0
   40.3632   -9.8774   -8.1271 N   0  0  0  0  0  0  0  0  0  0  0  0
   39.3330   -7.6762   -8.1432 C   0  0  0  0  0  0  0  0  0  0  0  0
   40.1768   -7.1050   -7.4070 O   0  0  0  0  0  0  0  0  0  0  0  0
   39.1499   -2.7031  -11.3395 N   0  0  0  0  0  0  0  0  0  0  0  0
   38.3423   -3.3158  -10.3469 C   0  0  0  0  0  0  0  0  0  0  0  0
   37.7749   -2.5771   -9.5059 O   0  0  0  0  0  0  0  0  0  0  0  0
   38.1611   -4.7623  -10.2853 C   0  0  0  0  0  0  0  0  0  0  0  0
   38.8048   -5.4289   -9.0907 C   0  0  2  0  0  0  0  0  0  0  0  0
   38.6080   -6.8458   -9.0416 N   0  0  0  0  0  0  0  0  0  0  0  0
   38.2595   -4.8364   -7.8503 C   0  0  0  0  0  0  0  0  0  0  0  0
   37.1178   -5.1684   -7.4665 O   0  0  0  0  0  0  0  0  0  0  0  0
   38.9804   -3.9272   -7.1078 O   0  0  0  0  0  0  0  0  0  0  0  0
  2  1  1  6
  2  4  1  0
  3  2  1  0
  4  5  2  0
  7  6  1  6
  7  8  1  0
  7  9  1  0
  9 11  1  0
 10  4  1  0
  9 10  1  1
 11 12  2  0
 11 18  1  0
 13 14  1  0
 14 15  2  0
 17 16  1  6
 16 14  1  0
 17 19  1  0
 18 17  1  0
 19 20  2  0
 19 21  1  0
M  END
$$$$
