AVN.pdb
     RDKit          3D

 21 20  0  0  1  0  0  0  0  0999 V2000
   20.0695  -10.5295  -19.9728 C   0  0  0  0  0  0  0  0  0  0  0  0
   20.6669  -11.4140  -18.9023 C   0  0  2  0  0  0  0  0  0  0  0  0
   19.9293  -12.6619  -18.8869 N   0  0  0  0  0  0  0  0  0  0  0  0
   20.4905  -10.6857  -17.6015 C   0  0  0  0  0  0  0  0  0  0  0  0
   19.3510  -10.5814  -17.1072 O   0  0  0  0  0  0  0  0  0  0  0  0
   21.9118  -11.5077  -14.2937 C   0  0  0  0  0  0  0  0  0  0  0  0
   22.2640  -10.0860  -14.5581 C   0  0  1  0  0  0  0  0  0  0  0  0
   23.7342  -10.0054  -14.9567 C   0  0  0  0  0  0  0  0  0  0  0  0
   21.4685   -9.4347  -15.6425 C   0  0  2  0  0  0  0  0  0  0  0  0
   21.5751  -10.1063  -16.9051 N   0  0  0  0  0  0  0  0  0  0  0  0
   21.7023   -7.9694  -15.7543 C   0  0  0  0  0  0  0  0  0  0  0  0
   22.6746   -7.5327  -16.4209 O   0  0  0  0  0  0  0  0  0  0  0  0
   21.3369   -2.7845  -15.6894 N   0  0  0  0  0  0  0  0  0  0  0  0
   20.0407   -3.3381  -15.5282 C   0  0  0  0  0  0  0  0  0  0  0  0
   19.0595   -2.5558  -15.5178 O   0  0  0  0  0  0  0  0  0  0  0  0
   19.8290   -4.7738  -15.3768 C   0  0  0  0  0  0  0  0  0  0  0  0
   21.0965   -5.5933  -15.2912 C   0  0  2  0  0  0  0  0  0  0  0  0
   20.8694   -6.9978  -15.1342 N   0  0  0  0  0  0  0  0  0  0  0  0
   21.9068   -5.1187  -14.1488 C   0  0  0  0  0  0  0  0  0  0  0  0
   22.5689   -4.0657  -14.2664 O   0  0  0  0  0  0  0  0  0  0  0  0
   21.9489   -5.8098  -12.9579 O   0  0  0  0  0  0  0  0  0  0  0  0
  2  1  1  6
  2  4  1  0
  3  2  1  0
  4  5  2  0
  7  6  1  6
  7  8  1  0
  7  9  1  0
  9 11  1  0
 10  4  1  0
  9 10  1  6
 11 12  2  0
 11 18  1  0
 13 14  1  0
 14 15  2  0
 17 16  1  1
 16 14  1  0
 17 19  1  0
 18 17  1  0
 19 20  2  0
 19 21  1  0
M  END
$$$$
