AVN.pdb
     RDKit          3D

 21 20  0  0  1  0  0  0  0  0999 V2000
   16.8313  -11.8667  -12.3734 C   0  0  0  0  0  0  0  0  0  0  0  0
   15.7474  -11.4487  -11.4060 C   0  0  2  0  0  0  0  0  0  0  0  0
   14.4752  -11.9007  -11.9336 N   0  0  0  0  0  0  0  0  0  0  0  0
   15.7862   -9.9492  -11.3459 C   0  0  0  0  0  0  0  0  0  0  0  0
   15.3967   -9.2863  -12.3271 O   0  0  0  0  0  0  0  0  0  0  0  0
   16.1073   -5.8320   -8.5969 C   0  0  0  0  0  0  0  0  0  0  0  0
   15.8571   -7.2840   -8.8072 C   0  0  1  0  0  0  0  0  0  0  0  0
   14.3557   -7.5437   -8.7363 C   0  0  0  0  0  0  0  0  0  0  0  0
   16.3444   -7.8210  -10.1138 C   0  0  2  0  0  0  0  0  0  0  0  0
   16.2510   -9.2487  -10.2100 N   0  0  0  0  0  0  0  0  0  0  0  0
   17.6861   -7.3094  -10.5044 C   0  0  0  0  0  0  0  0  0  0  0  0
   18.7024   -7.6220   -9.8339 O   0  0  0  0  0  0  0  0  0  0  0  0
   21.7359   -5.3290  -13.1281 N   0  0  0  0  0  0  0  0  0  0  0  0
   21.1532   -6.5576  -13.5329 C   0  0  0  0  0  0  0  0  0  0  0  0
   21.7943   -7.2826  -14.3317 O   0  0  0  0  0  0  0  0  0  0  0  0
   19.8461   -6.9877  -13.0475 C   0  0  0  0  0  0  0  0  0  0  0  0
   19.2129   -6.0618  -12.0339 C   0  0  2  0  0  0  0  0  0  0  0  0
   17.9004   -6.4604  -11.6249 N   0  0  0  0  0  0  0  0  0  0  0  0
   19.1333   -4.6989  -12.6026 C   0  0  0  0  0  0  0  0  0  0  0  0
   18.0824   -4.3366  -13.1730 O   0  0  0  0  0  0  0  0  0  0  0  0
   20.1902   -3.8194  -12.5183 O   0  0  0  0  0  0  0  0  0  0  0  0
  2  1  1  6
  2  4  1  0
  3  2  1  0
  4  5  2  0
  7  6  1  6
  7  8  1  0
  7  9  1  0
  9 11  1  0
 10  4  1  0
  9 10  1  1
 11 12  2  0
 11 18  1  0
 13 14  1  0
 14 15  2  0
 17 16  1  6
 16 14  1  0
 17 19  1  0
 18 17  1  0
 19 20  2  0
 19 21  1  0
M  END
$$$$
