AVN.pdb
     RDKit          3D

 21 20  0  0  1  0  0  0  0  0999 V2000
   28.9442   -8.5179  -18.1668 C   0  0  0  0  0  0  0  0  0  0  0  0
   28.7660   -9.8628  -17.4999 C   0  0  2  0  0  0  0  0  0  0  0  0
   29.5243  -10.8421  -18.2531 N   0  0  0  0  0  0  0  0  0  0  0  0
   27.2992  -10.1767  -17.5611 C   0  0  0  0  0  0  0  0  0  0  0  0
   26.8345  -10.7387  -18.5720 O   0  0  0  0  0  0  0  0  0  0  0  0
   25.2350  -11.5692  -14.3498 C   0  0  0  0  0  0  0  0  0  0  0  0
   24.7874  -11.5305  -15.7687 C   0  0  1  0  0  0  0  0  0  0  0  0
   23.2888  -11.8095  -15.8237 C   0  0  0  0  0  0  0  0  0  0  0  0
   25.0281  -10.2312  -16.4664 C   0  0  2  0  0  0  0  0  0  0  0  0
   26.4122   -9.8582  -16.5082 N   0  0  0  0  0  0  0  0  0  0  0  0
   24.1539   -9.1269  -15.9864 C   0  0  0  0  0  0  0  0  0  0  0  0
   24.4662   -8.4737  -14.9586 O   0  0  0  0  0  0  0  0  0  0  0  0
   21.8993   -6.4925  -19.7512 N   0  0  0  0  0  0  0  0  0  0  0  0
   22.1737   -6.3178  -18.3703 C   0  0  0  0  0  0  0  0  0  0  0  0
   23.1292   -5.5718  -18.0459 O   0  0  0  0  0  0  0  0  0  0  0  0
   21.3810   -6.9766  -17.3375 C   0  0  0  0  0  0  0  0  0  0  0  0
   22.1899   -7.6063  -16.2263 C   0  0  2  0  0  0  0  0  0  0  0  0
   22.9466   -8.7499  -16.6364 N   0  0  0  0  0  0  0  0  0  0  0  0
   21.2810   -8.0129  -15.1328 C   0  0  0  0  0  0  0  0  0  0  0  0
   20.9575   -9.2147  -15.0238 O   0  0  0  0  0  0  0  0  0  0  0  0
   20.7826   -7.0980  -14.2315 O   0  0  0  0  0  0  0  0  0  0  0  0
  2  1  1  6
  2  4  1  0
  3  2  1  0
  4  5  2  0
  7  6  1  1
  7  8  1  0
  7  9  1  0
  9 11  1  0
 10  4  1  0
  9 10  1  1
 11 12  2  0
 11 18  1  0
 13 14  1  0
 14 15  2  0
 17 16  1  6
 16 14  1  0
 17 19  1  0
 18 17  1  0
 19 20  2  0
 19 21  1  0
M  END
$$$$
