AVN.pdb
     RDKit          3D

 21 20  0  0  1  0  0  0  0  0999 V2000
   18.0575  -11.1147  -18.9917 C   0  0  0  0  0  0  0  0  0  0  0  0
   19.2417  -11.9243  -18.5149 C   0  0  2  0  0  0  0  0  0  0  0  0
   18.7645  -13.2406  -18.1393 N   0  0  0  0  0  0  0  0  0  0  0  0
   19.7933  -11.2061  -17.3174 C   0  0  0  0  0  0  0  0  0  0  0  0
   19.0294  -10.8987  -16.3817 O   0  0  0  0  0  0  0  0  0  0  0  0
   23.7650  -10.2663  -14.5270 C   0  0  0  0  0  0  0  0  0  0  0  0
   23.0534  -10.9199  -15.6590 C   0  0  1  0  0  0  0  0  0  0  0  0
   22.7537  -12.3683  -15.2862 C   0  0  0  0  0  0  0  0  0  0  0  0
   21.7593  -10.2774  -16.0402 C   0  0  2  0  0  0  0  0  0  0  0  0
   21.1587  -10.8598  -17.2049 N   0  0  0  0  0  0  0  0  0  0  0  0
   21.8315   -8.7931  -16.1174 C   0  0  0  0  0  0  0  0  0  0  0  0
   22.4006   -8.2369  -17.0907 O   0  0  0  0  0  0  0  0  0  0  0  0
   20.6161   -3.6332  -16.8825 N   0  0  0  0  0  0  0  0  0  0  0  0
   20.2663   -4.3464  -15.7070 C   0  0  0  0  0  0  0  0  0  0  0  0
   20.0356   -3.6902  -14.6625 O   0  0  0  0  0  0  0  0  0  0  0  0
   20.1710   -5.8023  -15.6884 C   0  0  0  0  0  0  0  0  0  0  0  0
   21.4143   -6.5102  -15.1999 C   0  0  2  0  0  0  0  0  0  0  0  0
   21.2805   -7.9334  -15.1276 N   0  0  0  0  0  0  0  0  0  0  0  0
   21.7668   -6.0034  -13.8561 C   0  0  0  0  0  0  0  0  0  0  0  0
   21.4115   -6.6500  -12.8478 O   0  0  0  0  0  0  0  0  0  0  0  0
   22.4778   -4.8352  -13.6895 O   0  0  0  0  0  0  0  0  0  0  0  0
  2  1  1  1
  2  4  1  0
  3  2  1  0
  4  5  2  0
  7  6  1  1
  7  8  1  0
  7  9  1  0
  9 11  1  0
 10  4  1  0
  9 10  1  6
 11 12  2  0
 11 18  1  0
 13 14  1  0
 14 15  2  0
 17 16  1  1
 16 14  1  0
 17 19  1  0
 18 17  1  0
 19 20  2  0
 19 21  1  0
M  END
$$$$
