AVN.pdb
     RDKit          3D

 21 20  0  0  1  0  0  0  0  0999 V2000
   24.1109  -18.5431  -18.8582 C   0  0  0  0  0  0  0  0  0  0  0  0
   25.4990  -18.4342  -18.2694 C   0  0  2  0  0  0  0  0  0  0  0  0
   26.4504  -18.8490  -19.2815 N   0  0  0  0  0  0  0  0  0  0  0  0
   25.5388  -19.3720  -17.0978 C   0  0  0  0  0  0  0  0  0  0  0  0
   25.3256  -20.5869  -17.2779 O   0  0  0  0  0  0  0  0  0  0  0  0
   27.1396  -20.2087  -12.4787 C   0  0  0  0  0  0  0  0  0  0  0  0
   26.9102  -19.2916  -13.6282 C   0  0  1  0  0  0  0  0  0  0  0  0
   28.2352  -19.0550  -14.3458 C   0  0  0  0  0  0  0  0  0  0  0  0
   25.9330  -19.7907  -14.6426 C   0  0  2  0  0  0  0  0  0  0  0  0
   25.8113  -18.9304  -15.7834 N   0  0  0  0  0  0  0  0  0  0  0  0
   24.6130  -20.1626  -14.0650 C   0  0  0  0  0  0  0  0  0  0  0  0
   23.7148  -19.2938  -13.9280 O   0  0  0  0  0  0  0  0  0  0  0  0
   23.7558  -25.1326  -14.4335 N   0  0  0  0  0  0  0  0  0  0  0  0
   22.8439  -24.0595  -14.2613 C   0  0  0  0  0  0  0  0  0  0  0  0
   22.0948  -23.7587  -15.2221 O   0  0  0  0  0  0  0  0  0  0  0  0
   22.7609  -23.3115  -13.0113 C   0  0  0  0  0  0  0  0  0  0  0  0
   22.9916  -21.8238  -13.1492 C   0  0  2  0  0  0  0  0  0  0  0  0
   24.2908  -21.4819  -13.6430 N   0  0  0  0  0  0  0  0  0  0  0  0
   22.8058  -21.1782  -11.8317 C   0  0  0  0  0  0  0  0  0  0  0  0
   23.8108  -20.8650  -11.1588 O   0  0  0  0  0  0  0  0  0  0  0  0
   21.5509  -20.9138  -11.3287 O   0  0  0  0  0  0  0  0  0  0  0  0
  2  1  1  6
  2  4  1  0
  3  2  1  0
  4  5  2  0
  7  6  1  1
  7  8  1  0
  7  9  1  0
  9 11  1  0
 10  4  1  0
  9 10  1  6
 11 12  2  0
 11 18  1  0
 13 14  1  0
 14 15  2  0
 17 16  1  1
 16 14  1  0
 17 19  1  0
 18 17  1  0
 19 20  2  0
 19 21  1  0
M  END
$$$$
