AVN.pdb
     RDKit          3D

 21 20  0  0  1  0  0  0  0  0999 V2000
   17.5916  -10.5984  -17.8187 C   0  0  0  0  0  0  0  0  0  0  0  0
   18.6415  -11.5496  -17.2915 C   0  0  2  0  0  0  0  0  0  0  0  0
   17.9625  -12.6540  -16.6428 N   0  0  0  0  0  0  0  0  0  0  0  0
   19.4538  -10.7760  -16.2937 C   0  0  0  0  0  0  0  0  0  0  0  0
   18.9414  -10.4546  -15.2038 O   0  0  0  0  0  0  0  0  0  0  0  0
   23.9290   -9.7117  -14.5372 C   0  0  0  0  0  0  0  0  0  0  0  0
   22.9861  -10.3985  -15.4615 C   0  0  1  0  0  0  0  0  0  0  0  0
   22.7616  -11.8252  -14.9708 C   0  0  0  0  0  0  0  0  0  0  0  0
   21.6455   -9.7500  -15.5848 C   0  0  2  0  0  0  0  0  0  0  0  0
   20.7911  -10.3921  -16.5409 N   0  0  0  0  0  0  0  0  0  0  0  0
   21.7128   -8.2762  -15.7790 C   0  0  0  0  0  0  0  0  0  0  0  0
   22.1545   -7.7992  -16.8550 O   0  0  0  0  0  0  0  0  0  0  0  0
   18.5025   -4.2560  -16.5887 N   0  0  0  0  0  0  0  0  0  0  0  0
   19.7475   -4.2528  -15.9086 C   0  0  0  0  0  0  0  0  0  0  0  0
   20.6008   -3.3940  -16.2388 O   0  0  0  0  0  0  0  0  0  0  0  0
   20.0507   -5.2114  -14.8511 C   0  0  0  0  0  0  0  0  0  0  0  0
   21.3729   -5.9274  -15.0079 C   0  0  2  0  0  0  0  0  0  0  0  0
   21.2963   -7.3404  -14.7926 N   0  0  0  0  0  0  0  0  0  0  0  0
   22.3500   -5.3599  -14.0537 C   0  0  0  0  0  0  0  0  0  0  0  0
   22.9950   -4.3396  -14.3757 O   0  0  0  0  0  0  0  0  0  0  0  0
   22.5657   -5.9296  -12.8181 O   0  0  0  0  0  0  0  0  0  0  0  0
  2  1  1  1
  2  4  1  0
  3  2  1  0
  4  5  2  0
  7  6  1  1
  7  8  1  0
  7  9  1  0
  9 11  1  0
 10  4  1  0
  9 10  1  6
 11 12  2  0
 11 18  1  0
 13 14  1  0
 14 15  2  0
 17 16  1  1
 16 14  1  0
 17 19  1  0
 18 17  1  0
 19 20  2  0
 19 21  1  0
M  END
$$$$
