AVN.pdb
     RDKit          3D

 21 20  0  0  1  0  0  0  0  0999 V2000
   22.6885  -13.0017  -20.5996 C   0  0  0  0  0  0  0  0  0  0  0  0
   23.7722  -13.4991  -19.6704 C   0  0  2  0  0  0  0  0  0  0  0  0
   23.5041  -14.8921  -19.3720 N   0  0  0  0  0  0  0  0  0  0  0  0
   23.6770  -12.6689  -18.4232 C   0  0  0  0  0  0  0  0  0  0  0  0
   22.7251  -12.8485  -17.6388 O   0  0  0  0  0  0  0  0  0  0  0  0
   25.9927   -9.6376  -15.2160 C   0  0  0  0  0  0  0  0  0  0  0  0
   25.9753  -10.5361  -16.4024 C   0  0  1  0  0  0  0  0  0  0  0  0
   26.6846  -11.8392  -16.0480 C   0  0  0  0  0  0  0  0  0  0  0  0
   24.6116  -10.8885  -16.9016 C   0  0  2  0  0  0  0  0  0  0  0  0
   24.6327  -11.6805  -18.0968 N   0  0  0  0  0  0  0  0  0  0  0  0
   23.6962   -9.7202  -17.0075 C   0  0  0  0  0  0  0  0  0  0  0  0
   23.8319   -8.8927  -17.9442 O   0  0  0  0  0  0  0  0  0  0  0  0
   18.7960   -7.2220  -17.4660 N   0  0  0  0  0  0  0  0  0  0  0  0
   19.3091   -7.7134  -16.2380 C   0  0  0  0  0  0  0  0  0  0  0  0
   18.9178   -7.1744  -15.1744 O   0  0  0  0  0  0  0  0  0  0  0  0
   20.2659   -8.8138  -16.1876 C   0  0  0  0  0  0  0  0  0  0  0  0
   21.7160   -8.3938  -16.2680 C   0  0  2  0  0  0  0  0  0  0  0  0
   22.6422   -9.4698  -16.0862 N   0  0  0  0  0  0  0  0  0  0  0  0
   21.9830   -7.3663  -15.2384 C   0  0  0  0  0  0  0  0  0  0  0  0
   22.4897   -7.7110  -14.1497 O   0  0  0  0  0  0  0  0  0  0  0  0
   21.6863   -6.0380  -15.4512 O   0  0  0  0  0  0  0  0  0  0  0  0
  2  1  1  6
  2  4  1  0
  3  2  1  0
  4  5  2  0
  7  6  1  1
  7  8  1  0
  7  9  1  0
  9 11  1  0
 10  4  1  0
  9 10  1  6
 11 12  2  0
 11 18  1  0
 13 14  1  0
 14 15  2  0
 17 16  1  1
 16 14  1  0
 17 19  1  0
 18 17  1  0
 19 20  2  0
 19 21  1  0
M  END
$$$$
