AWD.pdb
     RDKit          3D

 28 29  0  0  1  0  0  0  0  0999 V2000
   30.7842  -33.8084  -18.0181 C   0  0  0  0  0  0  0  0  0  0  0  0
   31.4043  -32.7703  -17.1049 C   0  0  2  0  0  0  0  0  0  0  0  0
   31.9480  -33.4467  -15.9592 N   0  0  0  0  0  0  0  0  0  0  0  0
   30.3842  -31.7586  -16.6817 C   0  0  0  0  0  0  0  0  0  0  0  0
   29.9247  -31.8406  -15.5015 O   0  0  0  0  0  0  0  0  0  0  0  0
   29.9858  -30.7668  -17.6137 N   0  0  0  0  0  0  0  0  0  0  0  0
   29.0132  -29.7588  -17.2554 C   0  0  1  0  0  0  0  0  0  0  0  0
   29.3310  -28.4644  -17.9182 C   0  0  0  0  0  0  0  0  0  0  0  0
   28.5242  -27.3379  -17.4666 C   0  0  0  0  0  0  0  0  0  0  0  0
   28.8654  -26.4662  -16.4520 C   0  0  0  0  0  0  0  0  0  0  0  0
   27.8612  -25.5753  -16.3499 N   0  0  0  0  0  0  0  0  0  0  0  0
   26.9050  -25.8638  -17.2680 C   0  0  0  0  0  0  0  0  0  0  0  0
   25.6902  -25.2672  -17.5733 C   0  0  0  0  0  0  0  0  0  0  0  0
   24.9040  -25.7952  -18.5877 C   0  0  0  0  0  0  0  0  0  0  0  0
   25.3284  -26.9110  -19.2917 C   0  0  0  0  0  0  0  0  0  0  0  0
   26.5160  -27.5193  -19.0149 C   0  0  0  0  0  0  0  0  0  0  0  0
   27.2922  -26.9724  -17.9911 C   0  0  0  0  0  0  0  0  0  0  0  0
   27.6658  -30.2878  -17.5772 C   0  0  0  0  0  0  0  0  0  0  0  0
   27.4900  -31.1374  -18.4798 O   0  0  0  0  0  0  0  0  0  0  0  0
   26.4913  -29.8565  -16.8745 N   0  0  0  0  0  0  0  0  0  0  0  0
   25.3203  -30.6786  -16.7608 C   0  0  1  0  0  0  0  0  0  0  0  0
   25.6138  -32.0285  -16.1423 C   0  0  0  0  0  0  0  0  0  0  0  0
   24.8066  -33.0190  -16.8763 C   0  0  0  0  0  0  0  0  0  0  0  0
   24.0437  -32.6379  -17.7882 O   0  0  0  0  0  0  0  0  0  0  0  0
   24.3344  -30.0017  -15.8837 C   0  0  0  0  0  0  0  0  0  0  0  0
   23.1718  -29.7425  -16.3273 O   0  0  0  0  0  0  0  0  0  0  0  0
   24.8953  -34.3540  -16.5561 O   0  0  0  0  0  0  0  0  0  0  0  0
   24.6635  -29.6491  -14.5902 O   0  0  0  0  0  0  0  0  0  0  0  0
  2  1  1  6
  3  2  1  0
  4  5  2  0
  4  2  1  0
  6  4  1  0
  7  6  1  0
  7  8  1  6
  9 17  1  0
  9  8  1  0
 10  9  2  0
 11 10  1  0
 11 12  1  0
 12 13  1  0
 12 17  2  0
 13 14  2  0
 14 15  1  0
 16 15  2  0
 17 16  1  0
 18 19  2  0
 18  7  1  0
 20 18  1  0
 21 22  1  1
 21 20  1  0
 23 24  2  0
 23 22  1  0
 25 21  1  0
 26 25  2  0
 27 23  1  0
 28 25  1  0
M  END
$$$$
