AWD.pdb
     RDKit          3D

 28 29  0  0  1  0  0  0  0  0999 V2000
   17.9782  -10.2859  -18.2291 C   0  0  0  0  0  0  0  0  0  0  0  0
   19.3208  -10.8657  -18.6255 C   0  0  2  0  0  0  0  0  0  0  0  0
   19.2230  -12.2990  -18.5790 N   0  0  0  0  0  0  0  0  0  0  0  0
   20.3997  -10.3835  -17.7053 C   0  0  0  0  0  0  0  0  0  0  0  0
   20.3022  -10.6780  -16.4746 O   0  0  0  0  0  0  0  0  0  0  0  0
   21.4684   -9.6277  -18.2509 N   0  0  0  0  0  0  0  0  0  0  0  0
   22.5029   -9.0829  -17.4004 C   0  0  1  0  0  0  0  0  0  0  0  0
   23.8501   -9.3639  -17.9678 C   0  0  0  0  0  0  0  0  0  0  0  0
   24.3890  -10.6750  -17.6293 C   0  0  0  0  0  0  0  0  0  0  0  0
   23.9392  -11.8785  -18.1340 C   0  0  0  0  0  0  0  0  0  0  0  0
   24.6961  -12.8420  -17.5761 N   0  0  0  0  0  0  0  0  0  0  0  0
   25.6031  -12.2777  -16.7397 C   0  0  0  0  0  0  0  0  0  0  0  0
   26.5969  -12.8167  -15.9355 C   0  0  0  0  0  0  0  0  0  0  0  0
   27.3900  -11.9738  -15.1697 C   0  0  0  0  0  0  0  0  0  0  0  0
   27.1915  -10.6026  -15.2072 C   0  0  0  0  0  0  0  0  0  0  0  0
   26.2235  -10.0436  -15.9866 C   0  0  0  0  0  0  0  0  0  0  0  0
   25.4368  -10.9088  -16.7496 C   0  0  0  0  0  0  0  0  0  0  0  0
   22.2197   -7.6411  -17.2012 C   0  0  0  0  0  0  0  0  0  0  0  0
   21.8965   -6.8955  -18.1536 O   0  0  0  0  0  0  0  0  0  0  0  0
   22.3004   -7.0212  -15.9094 N   0  0  0  0  0  0  0  0  0  0  0  0
   21.9250   -5.6533  -15.6903 C   0  0  1  0  0  0  0  0  0  0  0  0
   20.4577   -5.4008  -15.9630 C   0  0  0  0  0  0  0  0  0  0  0  0
   20.2072   -3.9790  -15.6684 C   0  0  0  0  0  0  0  0  0  0  0  0
   21.1372   -3.1535  -15.7807 O   0  0  0  0  0  0  0  0  0  0  0  0
   22.1717   -5.3030  -14.2705 C   0  0  0  0  0  0  0  0  0  0  0  0
   22.2069   -6.2219  -13.3931 O   0  0  0  0  0  0  0  0  0  0  0  0
   18.9557   -3.5672  -15.2721 O   0  0  0  0  0  0  0  0  0  0  0  0
   22.3640   -3.9902  -13.8892 O   0  0  0  0  0  0  0  0  0  0  0  0
  2  1  1  1
  3  2  1  0
  4  5  2  0
  4  2  1  0
  6  4  1  0
  7  6  1  0
  7  8  1  6
  9 17  1  0
  9  8  1  0
 10  9  2  0
 11 10  1  0
 11 12  1  0
 12 13  1  0
 12 17  2  0
 13 14  2  0
 14 15  1  0
 16 15  2  0
 17 16  1  0
 18 19  2  0
 18  7  1  0
 20 18  1  0
 21 22  1  1
 21 20  1  0
 23 24  2  0
 23 22  1  0
 25 21  1  0
 26 25  2  0
 27 23  1  0
 28 25  1  0
M  END
$$$$
