AWD.pdb
     RDKit          3D

 28 29  0  0  1  0  0  0  0  0999 V2000
   29.2023  -21.2625  -14.7880 C   0  0  0  0  0  0  0  0  0  0  0  0
   27.8570  -20.5655  -14.8103 C   0  0  2  0  0  0  0  0  0  0  0  0
   28.0709  -19.1673  -14.5552 N   0  0  0  0  0  0  0  0  0  0  0  0
   26.9386  -21.1517  -13.7827 C   0  0  0  0  0  0  0  0  0  0  0  0
   26.6407  -22.3809  -13.8886 O   0  0  0  0  0  0  0  0  0  0  0  0
   26.4513  -20.3106  -12.7502 N   0  0  0  0  0  0  0  0  0  0  0  0
   25.5575  -20.8219  -11.7352 C   0  0  1  0  0  0  0  0  0  0  0  0
   25.8583  -20.2067  -10.4136 C   0  0  0  0  0  0  0  0  0  0  0  0
   27.1212  -20.6294   -9.8215 C   0  0  0  0  0  0  0  0  0  0  0  0
   28.0500  -21.4540  -10.4241 C   0  0  0  0  0  0  0  0  0  0  0  0
   29.0668  -21.5969   -9.5533 N   0  0  0  0  0  0  0  0  0  0  0  0
   28.8014  -20.8882   -8.4272 C   0  0  0  0  0  0  0  0  0  0  0  0
   29.5094  -20.7044   -7.2483 C   0  0  0  0  0  0  0  0  0  0  0  0
   28.9757  -19.9058   -6.2467 C   0  0  0  0  0  0  0  0  0  0  0  0
   27.7438  -19.2954   -6.4217 C   0  0  0  0  0  0  0  0  0  0  0  0
   27.0246  -19.4572   -7.5678 C   0  0  0  0  0  0  0  0  0  0  0  0
   27.5792  -20.2641   -8.5633 C   0  0  0  0  0  0  0  0  0  0  0  0
   24.1660  -20.6061  -12.1997 C   0  0  0  0  0  0  0  0  0  0  0  0
   23.7538  -19.4746  -12.5422 O   0  0  0  0  0  0  0  0  0  0  0  0
   23.2163  -21.6788  -12.2821 N   0  0  0  0  0  0  0  0  0  0  0  0
   21.8904  -21.4914  -12.7988 C   0  0  1  0  0  0  0  0  0  0  0  0
   21.2435  -22.7904  -13.2288 C   0  0  0  0  0  0  0  0  0  0  0  0
   19.9299  -22.4446  -13.7999 C   0  0  0  0  0  0  0  0  0  0  0  0
   19.6134  -21.2444  -13.9346 O   0  0  0  0  0  0  0  0  0  0  0  0
   21.0337  -20.9072  -11.7385 C   0  0  0  0  0  0  0  0  0  0  0  0
   19.8891  -20.4436  -12.0392 O   0  0  0  0  0  0  0  0  0  0  0  0
   19.0603  -23.4403  -14.1810 O   0  0  0  0  0  0  0  0  0  0  0  0
   21.4639  -20.8604  -10.4276 O   0  0  0  0  0  0  0  0  0  0  0  0
  2  1  1  1
  3  2  1  0
  4  5  2  0
  4  2  1  0
  6  4  1  0
  7  6  1  0
  7  8  1  1
  9 17  1  0
  9  8  1  0
 10  9  2  0
 11 10  1  0
 11 12  1  0
 12 13  1  0
 12 17  2  0
 13 14  2  0
 14 15  1  0
 16 15  2  0
 17 16  1  0
 18 19  2  0
 18  7  1  0
 20 18  1  0
 21 22  1  1
 21 20  1  0
 23 24  2  0
 23 22  1  0
 25 21  1  0
 26 25  2  0
 27 23  1  0
 28 25  1  0
M  END
$$$$
