AWD.pdb
     RDKit          3D

 28 29  0  0  1  0  0  0  0  0999 V2000
   29.1953  -22.3202  -15.7033 C   0  0  0  0  0  0  0  0  0  0  0  0
   27.8924  -21.5498  -15.7720 C   0  0  2  0  0  0  0  0  0  0  0  0
   28.2018  -20.1474  -15.8289 N   0  0  0  0  0  0  0  0  0  0  0  0
   27.0349  -21.8500  -14.5812 C   0  0  0  0  0  0  0  0  0  0  0  0
   26.6804  -23.0546  -14.3966 O   0  0  0  0  0  0  0  0  0  0  0  0
   26.6649  -20.7813  -13.7256 N   0  0  0  0  0  0  0  0  0  0  0  0
   25.8588  -21.0171  -12.5487 C   0  0  1  0  0  0  0  0  0  0  0  0
   26.3269  -20.1737  -11.4150 C   0  0  0  0  0  0  0  0  0  0  0  0
   27.4371  -20.7378  -10.6579 C   0  0  0  0  0  0  0  0  0  0  0  0
   28.5043  -21.4272  -11.1978 C   0  0  0  0  0  0  0  0  0  0  0  0
   29.3028  -21.7749  -10.1712 N   0  0  0  0  0  0  0  0  0  0  0  0
   28.7676  -21.3245   -9.0087 C   0  0  0  0  0  0  0  0  0  0  0  0
   29.1855  -21.4152   -7.6888 C   0  0  0  0  0  0  0  0  0  0  0  0
   28.4141  -20.8453   -6.6858 C   0  0  0  0  0  0  0  0  0  0  0  0
   27.2339  -20.1897   -6.9994 C   0  0  0  0  0  0  0  0  0  0  0  0
   26.7970  -20.0845   -8.2859 C   0  0  0  0  0  0  0  0  0  0  0  0
   27.5878  -20.6643   -9.2801 C   0  0  0  0  0  0  0  0  0  0  0  0
   24.4384  -20.8017  -12.9160 C   0  0  0  0  0  0  0  0  0  0  0  0
   24.0769  -19.8176  -13.6003 O   0  0  0  0  0  0  0  0  0  0  0  0
   23.4016  -21.7063  -12.5085 N   0  0  0  0  0  0  0  0  0  0  0  0
   22.0368  -21.5454  -12.9229 C   0  0  1  0  0  0  0  0  0  0  0  0
   21.2642  -22.8468  -12.9022 C   0  0  0  0  0  0  0  0  0  0  0  0
   19.9141  -22.5499  -13.4124 C   0  0  0  0  0  0  0  0  0  0  0  0
   19.7466  -21.5845  -14.1862 O   0  0  0  0  0  0  0  0  0  0  0  0
   21.3523  -20.6165  -11.9912 C   0  0  0  0  0  0  0  0  0  0  0  0
   21.6166  -20.6639  -10.7488 O   0  0  0  0  0  0  0  0  0  0  0  0
   18.8474  -23.3332  -13.0362 O   0  0  0  0  0  0  0  0  0  0  0  0
   20.4308  -19.6999  -12.4564 O   0  0  0  0  0  0  0  0  0  0  0  0
  2  1  1  1
  3  2  1  0
  4  5  2  0
  4  2  1  0
  6  4  1  0
  7  6  1  0
  7  8  1  1
  9 17  1  0
  9  8  1  0
 10  9  2  0
 11 10  1  0
 11 12  1  0
 12 13  1  0
 12 17  2  0
 13 14  2  0
 14 15  1  0
 16 15  2  0
 17 16  1  0
 18 19  2  0
 18  7  1  0
 20 18  1  0
 21 22  1  1
 21 20  1  0
 23 24  2  0
 23 22  1  0
 25 21  1  0
 26 25  2  0
 27 23  1  0
 28 25  1  0
M  END
$$$$
