AWD.pdb
     RDKit          3D

 28 29  0  0  1  0  0  0  0  0999 V2000
   24.2370  -11.7825  -17.0687 C   0  0  0  0  0  0  0  0  0  0  0  0
   23.7475  -10.9314  -15.9146 C   0  0  2  0  0  0  0  0  0  0  0  0
   23.0991  -11.7929  -14.9641 N   0  0  0  0  0  0  0  0  0  0  0  0
   22.8005   -9.8764  -16.3976 C   0  0  0  0  0  0  0  0  0  0  0  0
   23.2319   -9.0397  -17.2489 O   0  0  0  0  0  0  0  0  0  0  0  0
   21.4789   -9.8649  -15.8836 N   0  0  0  0  0  0  0  0  0  0  0  0
   20.5003   -8.9189  -16.3715 C   0  0  1  0  0  0  0  0  0  0  0  0
   19.2564   -9.6206  -16.7909 C   0  0  0  0  0  0  0  0  0  0  0  0
   19.2447  -10.0540  -18.1823 C   0  0  0  0  0  0  0  0  0  0  0  0
   20.3611  -10.2207  -18.9769 C   0  0  0  0  0  0  0  0  0  0  0  0
   19.9234  -10.6290  -20.1828 N   0  0  0  0  0  0  0  0  0  0  0  0
   18.5700  -10.7219  -20.1655 C   0  0  0  0  0  0  0  0  0  0  0  0
   17.6446  -11.0900  -21.1314 C   0  0  0  0  0  0  0  0  0  0  0  0
   16.2924  -11.0905  -20.8191 C   0  0  0  0  0  0  0  0  0  0  0  0
   15.8681  -10.7258  -19.5510 C   0  0  0  0  0  0  0  0  0  0  0  0
   16.7526  -10.3591  -18.5815 C   0  0  0  0  0  0  0  0  0  0  0  0
   18.1084  -10.3656  -18.9158 C   0  0  0  0  0  0  0  0  0  0  0  0
   20.2910   -7.8938  -15.3207 C   0  0  0  0  0  0  0  0  0  0  0  0
   20.0638   -8.2076  -14.1302 O   0  0  0  0  0  0  0  0  0  0  0  0
   20.3366   -6.4886  -15.6088 N   0  0  0  0  0  0  0  0  0  0  0  0
   20.1322   -5.4913  -14.5970 C   0  0  1  0  0  0  0  0  0  0  0  0
   20.9869   -4.2606  -14.8109 C   0  0  0  0  0  0  0  0  0  0  0  0
   22.3397   -4.5914  -14.3295 C   0  0  0  0  0  0  0  0  0  0  0  0
   22.4833   -5.4604  -13.4446 O   0  0  0  0  0  0  0  0  0  0  0  0
   18.7165   -5.0504  -14.6281 C   0  0  0  0  0  0  0  0  0  0  0  0
   17.9438   -5.4806  -15.5409 O   0  0  0  0  0  0  0  0  0  0  0  0
   23.4352   -3.9449  -14.8538 O   0  0  0  0  0  0  0  0  0  0  0  0
   18.2267   -4.1777  -13.6772 O   0  0  0  0  0  0  0  0  0  0  0  0
  2  1  1  6
  3  2  1  0
  4  5  2  0
  4  2  1  0
  6  4  1  0
  7  6  1  0
  7  8  1  1
  9 17  1  0
  9  8  1  0
 10  9  2  0
 11 10  1  0
 11 12  1  0
 12 13  1  0
 12 17  2  0
 13 14  2  0
 14 15  1  0
 16 15  2  0
 17 16  1  0
 18 19  2  0
 18  7  1  0
 20 18  1  0
 21 22  1  6
 21 20  1  0
 23 24  2  0
 23 22  1  0
 25 21  1  0
 26 25  2  0
 27 23  1  0
 28 25  1  0
M  END
$$$$
