AWD.pdb
     RDKit          3D

 28 29  0  0  1  0  0  0  0  0999 V2000
   25.3283  -24.2720  -17.5775 C   0  0  0  0  0  0  0  0  0  0  0  0
   26.0871  -23.9546  -16.3050 C   0  0  2  0  0  0  0  0  0  0  0  0
   26.8202  -25.1275  -15.9142 N   0  0  0  0  0  0  0  0  0  0  0  0
   25.1468  -23.5369  -15.2166 C   0  0  0  0  0  0  0  0  0  0  0  0
   24.7376  -24.4306  -14.4137 O   0  0  0  0  0  0  0  0  0  0  0  0
   24.7636  -22.1738  -15.1379 N   0  0  0  0  0  0  0  0  0  0  0  0
   24.0421  -21.6701  -13.9905 C   0  0  1  0  0  0  0  0  0  0  0  0
   24.6410  -20.3936  -13.5137 C   0  0  0  0  0  0  0  0  0  0  0  0
   25.9241  -20.5409  -12.8384 C   0  0  0  0  0  0  0  0  0  0  0  0
   26.1091  -21.0874  -11.5843 C   0  0  0  0  0  0  0  0  0  0  0  0
   27.4304  -21.0407  -11.3302 N   0  0  0  0  0  0  0  0  0  0  0  0
   28.0748  -20.4824  -12.3855 C   0  0  0  0  0  0  0  0  0  0  0  0
   29.4134  -20.2081  -12.6263 C   0  0  0  0  0  0  0  0  0  0  0  0
   29.7862  -19.6176  -13.8255 C   0  0  0  0  0  0  0  0  0  0  0  0
   28.8286  -19.3034  -14.7770 C   0  0  0  0  0  0  0  0  0  0  0  0
   27.5065  -19.5600  -14.5694 C   0  0  0  0  0  0  0  0  0  0  0  0
   27.1523  -20.1548  -13.3567 C   0  0  0  0  0  0  0  0  0  0  0  0
   22.6100  -21.5649  -14.3603 C   0  0  0  0  0  0  0  0  0  0  0  0
   22.2495  -21.1850  -15.4975 O   0  0  0  0  0  0  0  0  0  0  0  0
   21.5601  -21.8913  -13.4381 N   0  0  0  0  0  0  0  0  0  0  0  0
   20.1720  -21.7840  -13.7870 C   0  0  1  0  0  0  0  0  0  0  0  0
   19.2709  -22.5340  -12.8297 C   0  0  0  0  0  0  0  0  0  0  0  0
   17.8966  -22.4019  -13.3448 C   0  0  0  0  0  0  0  0  0  0  0  0
   17.6918  -21.7598  -14.3958 O   0  0  0  0  0  0  0  0  0  0  0  0
   19.7680  -20.3578  -13.7401 C   0  0  0  0  0  0  0  0  0  0  0  0
   18.7025  -19.9865  -14.3252 O   0  0  0  0  0  0  0  0  0  0  0  0
   16.8485  -22.9834  -12.6695 O   0  0  0  0  0  0  0  0  0  0  0  0
   20.5351  -19.4272  -13.0683 O   0  0  0  0  0  0  0  0  0  0  0  0
  2  1  1  6
  3  2  1  0
  4  5  2  0
  4  2  1  0
  6  4  1  0
  7  6  1  0
  7  8  1  6
  9 17  1  0
  9  8  1  0
 10  9  2  0
 11 10  1  0
 11 12  1  0
 12 13  1  0
 12 17  2  0
 13 14  2  0
 14 15  1  0
 16 15  2  0
 17 16  1  0
 18 19  2  0
 18  7  1  0
 20 18  1  0
 21 22  1  1
 21 20  1  0
 23 24  2  0
 23 22  1  0
 25 21  1  0
 26 25  2  0
 27 23  1  0
 28 25  1  0
M  END
$$$$
