AWD.pdb
     RDKit          3D

 28 29  0  0  1  0  0  0  0  0999 V2000
   29.1110  -20.8193  -14.8172 C   0  0  0  0  0  0  0  0  0  0  0  0
   27.9252  -20.0627  -14.2539 C   0  0  2  0  0  0  0  0  0  0  0  0
   28.3403  -18.7135  -13.9831 N   0  0  0  0  0  0  0  0  0  0  0  0
   27.4228  -20.7177  -13.0042 C   0  0  0  0  0  0  0  0  0  0  0  0
   27.0013  -21.9117  -13.0910 O   0  0  0  0  0  0  0  0  0  0  0  0
   27.4430  -19.9768  -11.7952 N   0  0  0  0  0  0  0  0  0  0  0  0
   26.9107  -20.5356  -10.5725 C   0  0  1  0  0  0  0  0  0  0  0  0
   27.6889  -20.0598   -9.3962 C   0  0  0  0  0  0  0  0  0  0  0  0
   27.0949  -20.3834   -8.1053 C   0  0  0  0  0  0  0  0  0  0  0  0
   25.8572  -20.9656   -7.9185 C   0  0  0  0  0  0  0  0  0  0  0  0
   25.6850  -21.0964   -6.5896 N   0  0  0  0  0  0  0  0  0  0  0  0
   26.7755  -20.6142   -5.9422 C   0  0  0  0  0  0  0  0  0  0  0  0
   27.0973  -20.5155   -4.5963 C   0  0  0  0  0  0  0  0  0  0  0  0
   28.3144  -19.9637   -4.2221 C   0  0  0  0  0  0  0  0  0  0  0  0
   29.2034  -19.5141   -5.1857 C   0  0  0  0  0  0  0  0  0  0  0  0
   28.9158  -19.5971   -6.5151 C   0  0  0  0  0  0  0  0  0  0  0  0
   27.6863  -20.1556   -6.8705 C   0  0  0  0  0  0  0  0  0  0  0  0
   25.4651  -20.2111  -10.5123 C   0  0  0  0  0  0  0  0  0  0  0  0
   25.0595  -19.0377  -10.3509 O   0  0  0  0  0  0  0  0  0  0  0  0
   24.4528  -21.2209  -10.6348 N   0  0  0  0  0  0  0  0  0  0  0  0
   23.2002  -20.9756  -11.2912 C   0  0  1  0  0  0  0  0  0  0  0  0
   22.8167  -22.0841  -12.2478 C   0  0  0  0  0  0  0  0  0  0  0  0
   21.4687  -21.7663  -12.7510 C   0  0  0  0  0  0  0  0  0  0  0  0
   21.3377  -20.9581  -13.6935 O   0  0  0  0  0  0  0  0  0  0  0  0
   22.1265  -20.8876  -10.2720 C   0  0  0  0  0  0  0  0  0  0  0  0
   21.0233  -20.3297  -10.5674 O   0  0  0  0  0  0  0  0  0  0  0  0
   20.3639  -22.3580  -12.1834 O   0  0  0  0  0  0  0  0  0  0  0  0
   22.3100  -21.4043   -9.0051 O   0  0  0  0  0  0  0  0  0  0  0  0
  2  1  1  1
  3  2  1  0
  4  5  2  0
  4  2  1  0
  6  4  1  0
  7  6  1  0
  7  8  1  1
  9 17  1  0
  9  8  1  0
 10  9  2  0
 11 10  1  0
 11 12  1  0
 12 13  1  0
 12 17  2  0
 13 14  2  0
 14 15  1  0
 16 15  2  0
 17 16  1  0
 18 19  2  0
 18  7  1  0
 20 18  1  0
 21 22  1  6
 21 20  1  0
 23 24  2  0
 23 22  1  0
 25 21  1  0
 26 25  2  0
 27 23  1  0
 28 25  1  0
M  END
$$$$
