AWD.pdb
     RDKit          3D

 28 29  0  0  1  0  0  0  0  0999 V2000
   22.5213  -17.2296  -18.0281 C   0  0  0  0  0  0  0  0  0  0  0  0
   23.9018  -17.7249  -17.6479 C   0  0  2  0  0  0  0  0  0  0  0  0
   24.6771  -17.8627  -18.8504 N   0  0  0  0  0  0  0  0  0  0  0  0
   23.8156  -19.0346  -16.9264 C   0  0  0  0  0  0  0  0  0  0  0  0
   23.5825  -20.0747  -17.6153 O   0  0  0  0  0  0  0  0  0  0  0  0
   23.9976  -19.0472  -15.5200 N   0  0  0  0  0  0  0  0  0  0  0  0
   23.8804  -20.2758  -14.7668 C   0  0  1  0  0  0  0  0  0  0  0  0
   25.0678  -20.4686  -13.8902 C   0  0  0  0  0  0  0  0  0  0  0  0
   26.2966  -20.8033  -14.5988 C   0  0  0  0  0  0  0  0  0  0  0  0
   27.2839  -19.9063  -14.9542 C   0  0  0  0  0  0  0  0  0  0  0  0
   28.2414  -20.6111  -15.5858 N   0  0  0  0  0  0  0  0  0  0  0  0
   27.8825  -21.9186  -15.6358 C   0  0  0  0  0  0  0  0  0  0  0  0
   28.5031  -23.0399  -16.1671 C   0  0  0  0  0  0  0  0  0  0  0  0
   27.8830  -24.2774  -16.0673 C   0  0  0  0  0  0  0  0  0  0  0  0
   26.6520  -24.3935  -15.4413 C   0  0  0  0  0  0  0  0  0  0  0  0
   26.0174  -23.3108  -14.9102 C   0  0  0  0  0  0  0  0  0  0  0  0
   26.6582  -22.0751  -15.0208 C   0  0  0  0  0  0  0  0  0  0  0  0
   22.5896  -20.2444  -14.0378 C   0  0  0  0  0  0  0  0  0  0  0  0
   22.1054  -19.1756  -13.6012 O   0  0  0  0  0  0  0  0  0  0  0  0
   21.8254  -21.4340  -13.7921 N   0  0  0  0  0  0  0  0  0  0  0  0
   20.5033  -21.3948  -13.2348 C   0  0  1  0  0  0  0  0  0  0  0  0
   19.5467  -20.5632  -14.0620 C   0  0  0  0  0  0  0  0  0  0  0  0
   18.7478  -19.7644  -13.1160 C   0  0  0  0  0  0  0  0  0  0  0  0
   19.2360  -18.7283  -12.6190 O   0  0  0  0  0  0  0  0  0  0  0  0
   19.9551  -22.7720  -13.1868 C   0  0  0  0  0  0  0  0  0  0  0  0
   20.3091  -23.6207  -14.0642 O   0  0  0  0  0  0  0  0  0  0  0  0
   17.4726  -20.1607  -12.7845 O   0  0  0  0  0  0  0  0  0  0  0  0
   19.0644  -23.1445  -12.2001 O   0  0  0  0  0  0  0  0  0  0  0  0
  2  1  1  6
  3  2  1  0
  4  5  2  0
  4  2  1  0
  6  4  1  0
  7  6  1  0
  7  8  1  1
  9 17  1  0
  9  8  1  0
 10  9  2  0
 11 10  1  0
 11 12  1  0
 12 13  1  0
 12 17  2  0
 13 14  2  0
 14 15  1  0
 16 15  2  0
 17 16  1  0
 18 19  2  0
 18  7  1  0
 20 18  1  0
 21 22  1  6
 21 20  1  0
 23 24  2  0
 23 22  1  0
 25 21  1  0
 26 25  2  0
 27 23  1  0
 28 25  1  0
M  END
$$$$
