AWD.pdb
     RDKit          3D

 28 29  0  0  1  0  0  0  0  0999 V2000
   28.5149  -18.1818  -15.2340 C   0  0  0  0  0  0  0  0  0  0  0  0
   28.7794  -19.6738  -15.2368 C   0  0  2  0  0  0  0  0  0  0  0  0
   28.7863  -20.1265  -16.6010 N   0  0  0  0  0  0  0  0  0  0  0  0
   27.7331  -20.3997  -14.4486 C   0  0  0  0  0  0  0  0  0  0  0  0
   26.7259  -20.8494  -15.0765 O   0  0  0  0  0  0  0  0  0  0  0  0
   27.9184  -20.5475  -13.0504 N   0  0  0  0  0  0  0  0  0  0  0  0
   26.9562  -21.2662  -12.2454 C   0  0  1  0  0  0  0  0  0  0  0  0
   27.5573  -21.6687  -10.9445 C   0  0  0  0  0  0  0  0  0  0  0  0
   26.8810  -21.1296   -9.7715 C   0  0  0  0  0  0  0  0  0  0  0  0
   25.5269  -20.8790   -9.6744 C   0  0  0  0  0  0  0  0  0  0  0  0
   25.3088  -20.3914   -8.4386 N   0  0  0  0  0  0  0  0  0  0  0  0
   26.4834  -20.3297   -7.7624 C   0  0  0  0  0  0  0  0  0  0  0  0
   26.8040  -19.9096   -6.4796 C   0  0  0  0  0  0  0  0  0  0  0  0
   28.1232  -19.9617   -6.0519 C   0  0  0  0  0  0  0  0  0  0  0  0
   29.1146  -20.4301   -6.8996 C   0  0  0  0  0  0  0  0  0  0  0  0
   28.8311  -20.8491   -8.1649 C   0  0  0  0  0  0  0  0  0  0  0  0
   27.4979  -20.7890   -8.5758 C   0  0  0  0  0  0  0  0  0  0  0  0
   25.7452  -20.4204  -12.1157 C   0  0  0  0  0  0  0  0  0  0  0  0
   25.8214  -19.1884  -11.9062 O   0  0  0  0  0  0  0  0  0  0  0  0
   24.4217  -20.9650  -12.2223 N   0  0  0  0  0  0  0  0  0  0  0  0
   23.3719  -20.2951  -12.9359 C   0  0  1  0  0  0  0  0  0  0  0  0
   23.7029  -20.0852  -14.3978 C   0  0  0  0  0  0  0  0  0  0  0  0
   22.5110  -19.4859  -15.0236 C   0  0  0  0  0  0  0  0  0  0  0  0
   22.0716  -18.3984  -14.5957 O   0  0  0  0  0  0  0  0  0  0  0  0
   22.1423  -21.1225  -12.8811 C   0  0  0  0  0  0  0  0  0  0  0  0
   21.0147  -20.5902  -13.1277 O   0  0  0  0  0  0  0  0  0  0  0  0
   21.8887  -20.1234  -16.0720 O   0  0  0  0  0  0  0  0  0  0  0  0
   22.2067  -22.4649  -12.5653 O   0  0  0  0  0  0  0  0  0  0  0  0
  2  1  1  6
  3  2  1  0
  4  5  2  0
  4  2  1  0
  6  4  1  0
  7  6  1  0
  7  8  1  1
  9 17  1  0
  9  8  1  0
 10  9  2  0
 11 10  1  0
 11 12  1  0
 12 13  1  0
 12 17  2  0
 13 14  2  0
 14 15  1  0
 16 15  2  0
 17 16  1  0
 18 19  2  0
 18  7  1  0
 20 18  1  0
 21 22  1  6
 21 20  1  0
 23 24  2  0
 23 22  1  0
 25 21  1  0
 26 25  2  0
 27 23  1  0
 28 25  1  0
M  END
$$$$
