AWD.pdb
     RDKit          3D

 28 29  0  0  1  0  0  0  0  0999 V2000
   28.7589  -18.5896  -18.9624 C   0  0  0  0  0  0  0  0  0  0  0  0
   27.7596  -17.9310  -18.0330 C   0  0  2  0  0  0  0  0  0  0  0  0
   28.4487  -16.9249  -17.2721 N   0  0  0  0  0  0  0  0  0  0  0  0
   27.1361  -18.9427  -17.1214 C   0  0  0  0  0  0  0  0  0  0  0  0
   26.5912  -19.9593  -17.6511 O   0  0  0  0  0  0  0  0  0  0  0  0
   27.1852  -18.7161  -15.7224 N   0  0  0  0  0  0  0  0  0  0  0  0
   26.5673  -19.6404  -14.7981 C   0  0  1  0  0  0  0  0  0  0  0  0
   27.2739  -19.6229  -13.4881 C   0  0  0  0  0  0  0  0  0  0  0  0
   26.7212  -20.5287  -12.4890 C   0  0  0  0  0  0  0  0  0  0  0  0
   26.4190  -21.8595  -12.6969 C   0  0  0  0  0  0  0  0  0  0  0  0
   25.9363  -22.3355  -11.5338 N   0  0  0  0  0  0  0  0  0  0  0  0
   25.9277  -21.3441  -10.6076 C   0  0  0  0  0  0  0  0  0  0  0  0
   25.5340  -21.3090   -9.2777 C   0  0  0  0  0  0  0  0  0  0  0  0
   25.6421  -20.1244   -8.5629 C   0  0  0  0  0  0  0  0  0  0  0  0
   26.1398  -18.9835   -9.1724 C   0  0  0  0  0  0  0  0  0  0  0  0
   26.5341  -18.9865  -10.4768 C   0  0  0  0  0  0  0  0  0  0  0  0
   26.4176  -20.1882  -11.1782 C   0  0  0  0  0  0  0  0  0  0  0  0
   25.1253  -19.3060  -14.7116 C   0  0  0  0  0  0  0  0  0  0  0  0
   24.7326  -18.1461  -14.4511 O   0  0  0  0  0  0  0  0  0  0  0  0
   24.1021  -20.2902  -14.9205 N   0  0  0  0  0  0  0  0  0  0  0  0
   22.7054  -19.9818  -14.8012 C   0  0  1  0  0  0  0  0  0  0  0  0
   21.8804  -20.5709  -15.9251 C   0  0  0  0  0  0  0  0  0  0  0  0
   20.5147  -20.0380  -15.7768 C   0  0  0  0  0  0  0  0  0  0  0  0
   20.3087  -19.0767  -15.0073 O   0  0  0  0  0  0  0  0  0  0  0  0
   22.1880  -20.5532  -13.5341 C   0  0  0  0  0  0  0  0  0  0  0  0
   22.5313  -21.7268  -13.1872 O   0  0  0  0  0  0  0  0  0  0  0  0
   19.4755  -20.5987  -16.4831 O   0  0  0  0  0  0  0  0  0  0  0  0
   21.3375  -19.8260  -12.7258 O   0  0  0  0  0  0  0  0  0  0  0  0
  2  1  1  6
  3  2  1  0
  4  5  2  0
  4  2  1  0
  6  4  1  0
  7  6  1  0
  7  8  1  1
  9 17  1  0
  9  8  1  0
 10  9  2  0
 11 10  1  0
 11 12  1  0
 12 13  1  0
 12 17  2  0
 13 14  2  0
 14 15  1  0
 16 15  2  0
 17 16  1  0
 18 19  2  0
 18  7  1  0
 20 18  1  0
 21 22  1  6
 21 20  1  0
 23 24  2  0
 23 22  1  0
 25 21  1  0
 26 25  2  0
 27 23  1  0
 28 25  1  0
M  END
$$$$
