EEI.pdb
     RDKit          3D

 27 26  0  0  1  0  0  0  0  0999 V2000
    9.2677  -16.1902   19.1543 N   0  0  0  0  0  0  0  0  0  0  0  0
    7.9336  -16.0377   19.6549 C   0  0  1  0  0  0  0  0  0  0  0  0
    6.9527  -16.9689   19.0254 C   0  0  0  0  0  0  0  0  0  0  0  0
    7.5431  -18.2416   18.4924 C   0  0  0  0  0  0  0  0  0  0  0  0
    6.5807  -19.1439   17.8388 C   0  0  0  0  0  0  0  0  0  0  0  0
    5.7264  -18.7139   17.0476 O   0  0  0  0  0  0  0  0  0  0  0  0
    7.9164  -16.2979   21.1196 C   0  0  0  0  0  0  0  0  0  0  0  0
    6.8331  -16.2562   21.7310 O   0  0  0  0  0  0  0  0  0  0  0  0
    6.6292  -20.5065   18.1133 O   0  0  0  0  0  0  0  0  0  0  0  0
    9.1258  -16.5817   21.7603 N   0  0  0  0  0  0  0  0  0  0  0  0
    9.1225  -16.9136   23.1959 C   0  0  1  0  0  0  0  0  0  0  0  0
   10.1649  -17.9407   23.4525 C   0  0  0  0  0  0  0  0  0  0  0  0
   10.3579  -18.2158   24.9081 C   0  0  0  0  0  0  0  0  0  0  0  0
   11.4614  -19.2222   25.0922 C   0  0  0  0  0  0  0  0  0  0  0  0
   12.3842  -19.3540   24.2608 O   0  0  0  0  0  0  0  0  0  0  0  0
    9.2272  -15.6400   23.9185 C   0  0  0  0  0  0  0  0  0  0  0  0
   10.1103  -14.7681   23.5690 O   0  0  0  0  0  0  0  0  0  0  0  0
   11.4440  -20.0212   26.2198 O   0  0  0  0  0  0  0  0  0  0  0  0
    6.0675  -11.1059   26.2648 C   0  0  0  0  0  0  0  0  0  0  0  0
    7.3630  -11.8135   26.2268 C   0  0  0  0  0  0  0  0  0  0  0  0
    7.4340  -13.1481   25.6126 C   0  0  2  0  0  0  0  0  0  0  0  0
    6.1698  -13.9574   25.8736 C   0  0  0  0  0  0  0  0  0  0  0  0
    8.6714  -13.9523   25.7200 C   0  0  2  0  0  0  0  0  0  0  0  0
    8.4273  -15.2342   25.0053 N   0  0  0  0  0  0  0  0  0  0  0  0
    9.0214  -14.3210   27.0977 C   0  0  0  0  0  0  0  0  0  0  0  0
    8.8746  -15.6106   27.5817 O   0  0  0  0  0  0  0  0  0  0  0  0
    9.4809  -13.4947   27.9550 O   0  0  0  0  0  0  0  0  0  0  0  0
  2  1  1  6
  3  4  1  0
  3  2  1  0
  5  4  1  0
  5  6  2  0
  7  2  1  0
  7  8  2  0
  9  5  1  0
 10 11  1  0
 10  7  1  0
 11 12  1  6
 13 12  1  0
 14 13  1  0
 15 14  2  0
 16 11  1  0
 17 16  2  0
 18 14  1  0
 20 19  1  0
 21 20  1  0
 21 22  1  1
 23 24  1  6
 23 21  1  0
 24 16  1  0
 25 23  1  0
 26 25  1  0
 27 25  2  0
M  END
$$$$
