EEI.pdb
     RDKit          3D

 27 26  0  0  1  0  0  0  0  0999 V2000
   10.6191  -12.5916   19.7568 N   0  0  0  0  0  0  0  0  0  0  0  0
    9.3161  -13.1050   19.4532 C   0  0  1  0  0  0  0  0  0  0  0  0
    9.2067  -13.6724   18.0778 C   0  0  0  0  0  0  0  0  0  0  0  0
    7.8534  -14.2176   17.7259 C   0  0  0  0  0  0  0  0  0  0  0  0
    7.7904  -14.9357   16.4422 C   0  0  0  0  0  0  0  0  0  0  0  0
    8.7436  -14.9230   15.6472 O   0  0  0  0  0  0  0  0  0  0  0  0
    8.9708  -14.1903   20.4103 C   0  0  0  0  0  0  0  0  0  0  0  0
    7.8222  -14.6695   20.3962 O   0  0  0  0  0  0  0  0  0  0  0  0
    6.6392  -15.6432   16.1128 O   0  0  0  0  0  0  0  0  0  0  0  0
    9.9556  -14.6355   21.2966 N   0  0  0  0  0  0  0  0  0  0  0  0
    9.6555  -15.7541   22.2077 C   0  0  1  0  0  0  0  0  0  0  0  0
   10.5706  -16.8828   21.8981 C   0  0  0  0  0  0  0  0  0  0  0  0
   10.4337  -18.0173   22.8603 C   0  0  0  0  0  0  0  0  0  0  0  0
   11.3714  -19.1281   22.4716 C   0  0  0  0  0  0  0  0  0  0  0  0
   10.9596  -20.2094   22.0009 O   0  0  0  0  0  0  0  0  0  0  0  0
    9.6873  -15.2036   23.5683 C   0  0  0  0  0  0  0  0  0  0  0  0
   10.7210  -14.5515   23.9788 O   0  0  0  0  0  0  0  0  0  0  0  0
   12.7290  -18.9361   22.6448 O   0  0  0  0  0  0  0  0  0  0  0  0
    6.2390  -11.9254   25.5916 C   0  0  0  0  0  0  0  0  0  0  0  0
    7.4318  -12.7574   25.3355 C   0  0  0  0  0  0  0  0  0  0  0  0
    7.7087  -13.9044   26.2135 C   0  0  2  0  0  0  0  0  0  0  0  0
    7.6122  -13.5243   27.6858 C   0  0  0  0  0  0  0  0  0  0  0  0
    8.8413  -14.8103   25.9203 C   0  0  2  0  0  0  0  0  0  0  0  0
    8.6613  -15.3050   24.5288 N   0  0  0  0  0  0  0  0  0  0  0  0
    8.8788  -16.0072   26.7704 C   0  0  0  0  0  0  0  0  0  0  0  0
    9.5390  -16.0331   27.9880 O   0  0  0  0  0  0  0  0  0  0  0  0
    8.3170  -17.1107   26.4617 O   0  0  0  0  0  0  0  0  0  0  0  0
  2  1  1  1
  3  4  1  0
  3  2  1  0
  5  4  1  0
  5  6  2  0
  7  2  1  0
  7  8  2  0
  9  5  1  0
 10 11  1  0
 10  7  1  0
 11 12  1  1
 13 12  1  0
 14 13  1  0
 15 14  2  0
 16 11  1  0
 17 16  2  0
 18 14  1  0
 20 19  1  0
 21 20  1  0
 21 22  1  1
 23 24  1  6
 23 21  1  0
 24 16  1  0
 25 23  1  0
 26 25  1  0
 27 25  2  0
M  END
$$$$
