EEI.pdb
     RDKit          3D

 27 26  0  0  1  0  0  0  0  0999 V2000
    7.3117  -15.5105   18.7160 N   0  0  0  0  0  0  0  0  0  0  0  0
    8.3308  -16.0274   19.5807 C   0  0  1  0  0  0  0  0  0  0  0  0
    9.5627  -15.1865   19.6161 C   0  0  0  0  0  0  0  0  0  0  0  0
    9.3561  -13.7484   19.2397 C   0  0  0  0  0  0  0  0  0  0  0  0
   10.5779  -12.9269   19.2412 C   0  0  0  0  0  0  0  0  0  0  0  0
   11.6863  -13.4178   19.5081 O   0  0  0  0  0  0  0  0  0  0  0  0
    7.8107  -16.1122   20.9719 C   0  0  0  0  0  0  0  0  0  0  0  0
    6.8838  -15.3584   21.3206 O   0  0  0  0  0  0  0  0  0  0  0  0
   10.4889  -11.5726   18.9375 O   0  0  0  0  0  0  0  0  0  0  0  0
    8.3857  -17.0421   21.8428 N   0  0  0  0  0  0  0  0  0  0  0  0
    7.8182  -17.2162   23.1914 C   0  0  1  0  0  0  0  0  0  0  0  0
    7.8726  -18.6565   23.5517 C   0  0  0  0  0  0  0  0  0  0  0  0
    7.0056  -19.5030   22.6779 C   0  0  0  0  0  0  0  0  0  0  0  0
    5.6881  -19.7534   23.3604 C   0  0  0  0  0  0  0  0  0  0  0  0
    5.4817  -19.4198   24.5463 O   0  0  0  0  0  0  0  0  0  0  0  0
    8.5200  -16.2676   24.0647 C   0  0  0  0  0  0  0  0  0  0  0  0
    9.8014  -16.1456   23.9907 O   0  0  0  0  0  0  0  0  0  0  0  0
    4.6814  -20.3726   22.6441 O   0  0  0  0  0  0  0  0  0  0  0  0
    6.1266  -11.7047   25.9947 C   0  0  0  0  0  0  0  0  0  0  0  0
    7.0264  -12.7587   25.4849 C   0  0  0  0  0  0  0  0  0  0  0  0
    7.8779  -13.4950   26.4316 C   0  0  2  0  0  0  0  0  0  0  0  0
    8.5887  -12.5567   27.3988 C   0  0  0  0  0  0  0  0  0  0  0  0
    8.7394  -14.5995   25.9546 C   0  0  2  0  0  0  0  0  0  0  0  0
    7.9235  -15.4239   25.0228 N   0  0  0  0  0  0  0  0  0  0  0  0
    9.1780  -15.5114   27.0188 C   0  0  0  0  0  0  0  0  0  0  0  0
   10.3936  -15.3665   27.6670 O   0  0  0  0  0  0  0  0  0  0  0  0
    8.4871  -16.5032   27.4284 O   0  0  0  0  0  0  0  0  0  0  0  0
  2  1  1  6
  3  4  1  0
  3  2  1  0
  5  4  1  0
  5  6  2  0
  7  2  1  0
  7  8  2  0
  9  5  1  0
 10 11  1  0
 10  7  1  0
 11 12  1  1
 13 12  1  0
 14 13  1  0
 15 14  2  0
 16 11  1  0
 17 16  2  0
 18 14  1  0
 20 19  1  0
 21 20  1  0
 21 22  1  6
 23 24  1  6
 23 21  1  0
 24 16  1  0
 25 23  1  0
 26 25  1  0
 27 25  2  0
M  END
$$$$
