EEI.pdb
     RDKit          3D

 27 26  0  0  1  0  0  0  0  0999 V2000
   10.2251  -12.9690   19.2652 N   0  0  0  0  0  0  0  0  0  0  0  0
    8.8264  -13.1675   19.5050 C   0  0  1  0  0  0  0  0  0  0  0  0
    8.0749  -13.6197   18.2982 C   0  0  0  0  0  0  0  0  0  0  0  0
    8.7189  -14.7418   17.5375 C   0  0  0  0  0  0  0  0  0  0  0  0
    7.9494  -15.2259   16.3794 C   0  0  0  0  0  0  0  0  0  0  0  0
    7.4148  -16.3461   16.3814 O   0  0  0  0  0  0  0  0  0  0  0  0
    8.6413  -14.2027   20.5574 C   0  0  0  0  0  0  0  0  0  0  0  0
    7.4889  -14.4952   20.9253 O   0  0  0  0  0  0  0  0  0  0  0  0
    7.8185  -14.4114   15.2597 O   0  0  0  0  0  0  0  0  0  0  0  0
    9.7763  -14.8134   21.0982 N   0  0  0  0  0  0  0  0  0  0  0  0
    9.6138  -15.8854   22.0960 C   0  0  1  0  0  0  0  0  0  0  0  0
   10.6506  -16.9226   21.8578 C   0  0  0  0  0  0  0  0  0  0  0  0
   10.6661  -17.9768   22.9163 C   0  0  0  0  0  0  0  0  0  0  0  0
   11.6970  -19.0195   22.5786 C   0  0  0  0  0  0  0  0  0  0  0  0
   12.7501  -19.1488   23.2378 O   0  0  0  0  0  0  0  0  0  0  0  0
    9.5921  -15.2318   23.4103 C   0  0  0  0  0  0  0  0  0  0  0  0
   10.6677  -14.7074   23.8905 O   0  0  0  0  0  0  0  0  0  0  0  0
   11.4620  -19.8555   21.5034 O   0  0  0  0  0  0  0  0  0  0  0  0
    5.9811  -11.7530   26.8628 C   0  0  0  0  0  0  0  0  0  0  0  0
    7.1872  -12.6017   26.7881 C   0  0  0  0  0  0  0  0  0  0  0  0
    7.3394  -13.5351   25.6618 C   0  0  2  0  0  0  0  0  0  0  0  0
    6.0504  -14.2982   25.3831 C   0  0  0  0  0  0  0  0  0  0  0  0
    8.5496  -14.3794   25.5526 C   0  0  2  0  0  0  0  0  0  0  0  0
    8.4700  -15.0978   24.2522 N   0  0  0  0  0  0  0  0  0  0  0  0
    8.6401  -15.4222   26.5826 C   0  0  0  0  0  0  0  0  0  0  0  0
    8.3412  -16.7499   26.3238 O   0  0  0  0  0  0  0  0  0  0  0  0
    8.9936  -15.1959   27.7878 O   0  0  0  0  0  0  0  0  0  0  0  0
  2  1  1  6
  3  4  1  0
  3  2  1  0
  5  4  1  0
  5  6  2  0
  7  2  1  0
  7  8  2  0
  9  5  1  0
 10 11  1  0
 10  7  1  0
 11 12  1  1
 13 12  1  0
 14 13  1  0
 15 14  2  0
 16 11  1  0
 17 16  2  0
 18 14  1  0
 20 19  1  0
 21 20  1  0
 21 22  1  1
 23 24  1  6
 23 21  1  0
 24 16  1  0
 25 23  1  0
 26 25  1  0
 27 25  2  0
M  END
$$$$
