EEI.pdb
     RDKit          3D

 27 26  0  0  1  0  0  0  0  0999 V2000
    7.8594  -19.0595   20.4592 N   0  0  0  0  0  0  0  0  0  0  0  0
    8.8832  -18.6904   21.3915 C   0  0  1  0  0  0  0  0  0  0  0  0
    9.8545  -17.6984   20.8455 C   0  0  0  0  0  0  0  0  0  0  0  0
   11.1870  -18.2686   20.4558 C   0  0  0  0  0  0  0  0  0  0  0  0
   12.1385  -17.2928   19.8990 C   0  0  0  0  0  0  0  0  0  0  0  0
   11.7911  -16.4722   19.0349 O   0  0  0  0  0  0  0  0  0  0  0  0
    8.2635  -18.0859   22.6014 C   0  0  0  0  0  0  0  0  0  0  0  0
    7.3268  -17.2778   22.4645 O   0  0  0  0  0  0  0  0  0  0  0  0
   13.4541  -17.2901   20.3500 O   0  0  0  0  0  0  0  0  0  0  0  0
    8.7591  -18.4500   23.8566 N   0  0  0  0  0  0  0  0  0  0  0  0
    8.0686  -17.9797   25.0703 C   0  0  1  0  0  0  0  0  0  0  0  0
    8.1017  -19.0604   26.0894 C   0  0  0  0  0  0  0  0  0  0  0  0
    7.0922  -20.1303   25.8288 C   0  0  0  0  0  0  0  0  0  0  0  0
    7.2043  -21.2005   26.8807 C   0  0  0  0  0  0  0  0  0  0  0  0
    7.7232  -22.3117   26.6436 O   0  0  0  0  0  0  0  0  0  0  0  0
    8.6763  -16.6908   25.4229 C   0  0  0  0  0  0  0  0  0  0  0  0
    9.8914  -16.4320   25.0778 O   0  0  0  0  0  0  0  0  0  0  0  0
    6.7147  -20.9357   28.1457 O   0  0  0  0  0  0  0  0  0  0  0  0
    5.5533  -12.1997   26.4587 C   0  0  0  0  0  0  0  0  0  0  0  0
    6.6871  -12.9990   25.9525 C   0  0  0  0  0  0  0  0  0  0  0  0
    7.7570  -13.3951   26.8807 C   0  0  2  0  0  0  0  0  0  0  0  0
    8.3541  -12.1921   27.6001 C   0  0  0  0  0  0  0  0  0  0  0  0
    8.7732  -14.3874   26.4658 C   0  0  2  0  0  0  0  0  0  0  0  0
    8.0507  -15.6433   26.1278 N   0  0  0  0  0  0  0  0  0  0  0  0
    9.7225  -14.7437   27.5281 C   0  0  0  0  0  0  0  0  0  0  0  0
    9.6175  -15.9182   28.2549 O   0  0  0  0  0  0  0  0  0  0  0  0
   10.7091  -14.0095   27.8691 O   0  0  0  0  0  0  0  0  0  0  0  0
  2  1  1  6
  3  4  1  0
  3  2  1  0
  5  4  1  0
  5  6  2  0
  7  2  1  0
  7  8  2  0
  9  5  1  0
 10 11  1  0
 10  7  1  0
 11 12  1  1
 13 12  1  0
 14 13  1  0
 15 14  2  0
 16 11  1  0
 17 16  2  0
 18 14  1  0
 20 19  1  0
 21 20  1  0
 21 22  1  6
 23 24  1  1
 23 21  1  0
 24 16  1  0
 25 23  1  0
 26 25  1  0
 27 25  2  0
M  END
$$$$
