EEI.pdb
     RDKit          3D

 27 26  0  0  1  0  0  0  0  0999 V2000
   11.1856  -17.0835   20.2635 N   0  0  0  0  0  0  0  0  0  0  0  0
    9.8692  -16.5220   20.3375 C   0  0  1  0  0  0  0  0  0  0  0  0
    8.8931  -17.1724   19.4156 C   0  0  0  0  0  0  0  0  0  0  0  0
    9.4139  -18.3828   18.6970 C   0  0  0  0  0  0  0  0  0  0  0  0
    8.4810  -18.9729   17.7227 C   0  0  0  0  0  0  0  0  0  0  0  0
    7.3638  -18.4739   17.5138 O   0  0  0  0  0  0  0  0  0  0  0  0
    9.3400  -16.6685   21.7202 C   0  0  0  0  0  0  0  0  0  0  0  0
    8.1723  -16.3137   21.9641 O   0  0  0  0  0  0  0  0  0  0  0  0
    8.8588  -20.1131   17.0217 O   0  0  0  0  0  0  0  0  0  0  0  0
   10.1793  -17.2032   22.7017 N   0  0  0  0  0  0  0  0  0  0  0  0
    9.6305  -17.5051   24.0355 C   0  0  1  0  0  0  0  0  0  0  0  0
   10.1673  -18.8140   24.4893 C   0  0  0  0  0  0  0  0  0  0  0  0
    9.7909  -19.1346   25.8990 C   0  0  0  0  0  0  0  0  0  0  0  0
   10.4595  -20.4138   26.3241 C   0  0  0  0  0  0  0  0  0  0  0  0
    9.8804  -21.2591   27.0386 O   0  0  0  0  0  0  0  0  0  0  0  0
    9.9000  -16.3299   24.8730 C   0  0  0  0  0  0  0  0  0  0  0  0
   11.0657  -15.7791   24.8598 O   0  0  0  0  0  0  0  0  0  0  0  0
   11.7551  -20.6515   25.9058 O   0  0  0  0  0  0  0  0  0  0  0  0
    6.3703  -12.3190   25.5681 C   0  0  0  0  0  0  0  0  0  0  0  0
    7.6133  -13.1096   25.4662 C   0  0  0  0  0  0  0  0  0  0  0  0
    8.2286  -13.6406   26.6921 C   0  0  2  0  0  0  0  0  0  0  0  0
    8.4017  -12.5589   27.7509 C   0  0  0  0  0  0  0  0  0  0  0  0
    9.3843  -14.5607   26.6069 C   0  0  2  0  0  0  0  0  0  0  0  0
    8.9814  -15.6947   25.7322 N   0  0  0  0  0  0  0  0  0  0  0  0
    9.7613  -15.1600   27.8935 C   0  0  0  0  0  0  0  0  0  0  0  0
    9.2338  -16.3621   28.3359 O   0  0  0  0  0  0  0  0  0  0  0  0
   10.5928  -14.6295   28.7033 O   0  0  0  0  0  0  0  0  0  0  0  0
  2  1  1  1
  3  4  1  0
  3  2  1  0
  5  4  1  0
  5  6  2  0
  7  2  1  0
  7  8  2  0
  9  5  1  0
 10 11  1  0
 10  7  1  0
 11 12  1  1
 13 12  1  0
 14 13  1  0
 15 14  2  0
 16 11  1  0
 17 16  2  0
 18 14  1  0
 20 19  1  0
 21 20  1  0
 21 22  1  1
 23 24  1  6
 23 21  1  0
 24 16  1  0
 25 23  1  0
 26 25  1  0
 27 25  2  0
M  END
$$$$
