EEI.pdb
     RDKit          3D

 27 26  0  0  1  0  0  0  0  0999 V2000
    7.4523  -17.3274   18.7842 N   0  0  0  0  0  0  0  0  0  0  0  0
    8.4829  -16.6342   19.4990 C   0  0  1  0  0  0  0  0  0  0  0  0
    8.6340  -15.2077   19.0890 C   0  0  0  0  0  0  0  0  0  0  0  0
    8.0752  -14.8774   17.7358 C   0  0  0  0  0  0  0  0  0  0  0  0
    8.3100  -13.4939   17.2904 C   0  0  0  0  0  0  0  0  0  0  0  0
    8.9991  -12.7078   17.9596 O   0  0  0  0  0  0  0  0  0  0  0  0
    8.1778  -16.6481   20.9550 C   0  0  0  0  0  0  0  0  0  0  0  0
    7.0418  -16.3167   21.3404 O   0  0  0  0  0  0  0  0  0  0  0  0
    7.7481  -13.0582   16.0951 O   0  0  0  0  0  0  0  0  0  0  0  0
    9.1850  -17.0356   21.8432 N   0  0  0  0  0  0  0  0  0  0  0  0
    8.8522  -17.2558   23.2617 C   0  0  1  0  0  0  0  0  0  0  0  0
    9.5788  -18.4589   23.7430 C   0  0  0  0  0  0  0  0  0  0  0  0
    9.2555  -19.6836   22.9510 C   0  0  0  0  0  0  0  0  0  0  0  0
   10.1045  -20.8324   23.4240 C   0  0  0  0  0  0  0  0  0  0  0  0
   10.0162  -21.9729   22.9223 O   0  0  0  0  0  0  0  0  0  0  0  0
    9.1051  -15.9847   23.9514 C   0  0  0  0  0  0  0  0  0  0  0  0
   10.2559  -15.4120   23.8519 O   0  0  0  0  0  0  0  0  0  0  0  0
   11.0071  -20.6083   24.4463 O   0  0  0  0  0  0  0  0  0  0  0  0
    5.8516  -12.3161   27.3828 C   0  0  0  0  0  0  0  0  0  0  0  0
    6.3246  -13.4144   26.5165 C   0  0  0  0  0  0  0  0  0  0  0  0
    7.4373  -13.1670   25.5870 C   0  0  2  0  0  0  0  0  0  0  0  0
    6.9389  -12.7729   24.2022 C   0  0  0  0  0  0  0  0  0  0  0  0
    8.5938  -14.0892   25.5476 C   0  0  2  0  0  0  0  0  0  0  0  0
    8.1845  -15.2754   24.7483 N   0  0  0  0  0  0  0  0  0  0  0  0
    8.9839  -14.6078   26.8650 C   0  0  0  0  0  0  0  0  0  0  0  0
    8.7984  -15.9321   27.2267 O   0  0  0  0  0  0  0  0  0  0  0  0
    9.5162  -13.8911   27.7769 O   0  0  0  0  0  0  0  0  0  0  0  0
  2  1  1  6
  3  4  1  0
  3  2  1  0
  5  4  1  0
  5  6  2  0
  7  2  1  0
  7  8  2  0
  9  5  1  0
 10 11  1  0
 10  7  1  0
 11 12  1  1
 13 12  1  0
 14 13  1  0
 15 14  2  0
 16 11  1  0
 17 16  2  0
 18 14  1  0
 20 19  1  0
 21 20  1  0
 21 22  1  6
 23 24  1  6
 23 21  1  0
 24 16  1  0
 25 23  1  0
 26 25  1  0
 27 25  2  0
M  END
$$$$
