EEI.pdb
     RDKit          3D

 27 26  0  0  1  0  0  0  0  0999 V2000
    7.1135  -17.7873   19.2972 N   0  0  0  0  0  0  0  0  0  0  0  0
    8.0928  -18.0051   20.3204 C   0  0  1  0  0  0  0  0  0  0  0  0
    9.3855  -17.3058   20.0641 C   0  0  0  0  0  0  0  0  0  0  0  0
   10.2612  -17.9562   19.0331 C   0  0  0  0  0  0  0  0  0  0  0  0
   11.5031  -17.2269   18.7273 C   0  0  0  0  0  0  0  0  0  0  0  0
   11.6229  -16.5636   17.6850 O   0  0  0  0  0  0  0  0  0  0  0  0
    7.5721  -17.5125   21.6240 C   0  0  0  0  0  0  0  0  0  0  0  0
    6.7332  -16.5933   21.6345 O   0  0  0  0  0  0  0  0  0  0  0  0
   12.5644  -17.2821   19.6245 O   0  0  0  0  0  0  0  0  0  0  0  0
    8.0473  -18.1042   22.7978 N   0  0  0  0  0  0  0  0  0  0  0  0
    7.4299  -17.7485   24.0876 C   0  0  1  0  0  0  0  0  0  0  0  0
    7.3739  -18.9621   24.9427 C   0  0  0  0  0  0  0  0  0  0  0  0
    6.8479  -18.6793   26.3121 C   0  0  0  0  0  0  0  0  0  0  0  0
    6.8663  -19.9404   27.1329 C   0  0  0  0  0  0  0  0  0  0  0  0
    7.3418  -19.9733   28.2875 O   0  0  0  0  0  0  0  0  0  0  0  0
    8.1698  -16.5879   24.5980 C   0  0  0  0  0  0  0  0  0  0  0  0
    9.4444  -16.5045   24.4226 O   0  0  0  0  0  0  0  0  0  0  0  0
    6.3380  -21.0930   26.5829 O   0  0  0  0  0  0  0  0  0  0  0  0
    5.9658  -11.6872   27.0662 C   0  0  0  0  0  0  0  0  0  0  0  0
    6.5388  -13.0186   26.7841 C   0  0  0  0  0  0  0  0  0  0  0  0
    7.5807  -13.1478   25.7540 C   0  0  2  0  0  0  0  0  0  0  0  0
    7.0645  -12.7513   24.3764 C   0  0  0  0  0  0  0  0  0  0  0  0
    8.4557  -14.3407   25.7254 C   0  0  2  0  0  0  0  0  0  0  0  0
    7.6187  -15.4910   25.2899 N   0  0  0  0  0  0  0  0  0  0  0  0
    8.9957  -14.7117   27.0397 C   0  0  0  0  0  0  0  0  0  0  0  0
    9.9663  -13.9611   27.6828 O   0  0  0  0  0  0  0  0  0  0  0  0
    8.6239  -15.7449   27.6900 O   0  0  0  0  0  0  0  0  0  0  0  0
  2  1  1  6
  3  4  1  0
  3  2  1  0
  5  4  1  0
  5  6  2  0
  7  2  1  0
  7  8  2  0
  9  5  1  0
 10 11  1  0
 10  7  1  0
 11 12  1  1
 13 12  1  0
 14 13  1  0
 15 14  2  0
 16 11  1  0
 17 16  2  0
 18 14  1  0
 20 19  1  0
 21 20  1  0
 21 22  1  6
 23 24  1  1
 23 21  1  0
 24 16  1  0
 25 23  1  0
 26 25  1  0
 27 25  2  0
M  END
$$$$
