EEI.pdb
     RDKit          3D

 27 26  0  0  1  0  0  0  0  0999 V2000
    7.6683  -14.3395   18.9501 N   0  0  0  0  0  0  0  0  0  0  0  0
    8.4904  -15.1985   19.7499 C   0  0  1  0  0  0  0  0  0  0  0  0
    9.8819  -14.6912   19.9291 C   0  0  0  0  0  0  0  0  0  0  0  0
   10.7169  -14.6851   18.6820 C   0  0  0  0  0  0  0  0  0  0  0  0
   12.0769  -14.1470   18.8506 C   0  0  0  0  0  0  0  0  0  0  0  0
   12.5076  -13.8176   19.9672 O   0  0  0  0  0  0  0  0  0  0  0  0
    7.8926  -15.3436   21.1045 C   0  0  0  0  0  0  0  0  0  0  0  0
    7.1724  -14.4322   21.5511 O   0  0  0  0  0  0  0  0  0  0  0  0
   12.8965  -14.0046   17.7361 O   0  0  0  0  0  0  0  0  0  0  0  0
    8.1632  -16.5065   21.8312 N   0  0  0  0  0  0  0  0  0  0  0  0
    7.4817  -16.7292   23.1186 C   0  0  1  0  0  0  0  0  0  0  0  0
    7.3616  -18.1917   23.3503 C   0  0  0  0  0  0  0  0  0  0  0  0
    6.8204  -18.5190   24.7037 C   0  0  0  0  0  0  0  0  0  0  0  0
    6.7031  -20.0114   24.8559 C   0  0  0  0  0  0  0  0  0  0  0  0
    6.1362  -20.7227   23.9998 O   0  0  0  0  0  0  0  0  0  0  0  0
    8.2096  -15.9376   24.1180 C   0  0  0  0  0  0  0  0  0  0  0  0
    9.4730  -15.7216   23.9777 O   0  0  0  0  0  0  0  0  0  0  0  0
    7.2427  -20.6041   25.9818 O   0  0  0  0  0  0  0  0  0  0  0  0
    5.5672  -12.0211   26.8591 C   0  0  0  0  0  0  0  0  0  0  0  0
    6.6099  -12.7772   26.1368 C   0  0  0  0  0  0  0  0  0  0  0  0
    7.5564  -13.6036   26.9012 C   0  0  2  0  0  0  0  0  0  0  0  0
    8.2345  -12.8069   28.0088 C   0  0  0  0  0  0  0  0  0  0  0  0
    8.4788  -14.5226   26.1983 C   0  0  2  0  0  0  0  0  0  0  0  0
    7.6575  -15.3489   25.2730 N   0  0  0  0  0  0  0  0  0  0  0  0
    9.1610  -15.4724   27.0867 C   0  0  0  0  0  0  0  0  0  0  0  0
   10.3395  -15.1595   27.7441 O   0  0  0  0  0  0  0  0  0  0  0  0
    8.7333  -16.6515   27.3222 O   0  0  0  0  0  0  0  0  0  0  0  0
  2  1  1  6
  3  4  1  0
  3  2  1  0
  5  4  1  0
  5  6  2  0
  7  2  1  0
  7  8  2  0
  9  5  1  0
 10 11  1  0
 10  7  1  0
 11 12  1  1
 13 12  1  0
 14 13  1  0
 15 14  2  0
 16 11  1  0
 17 16  2  0
 18 14  1  0
 20 19  1  0
 21 20  1  0
 21 22  1  6
 23 24  1  6
 23 21  1  0
 24 16  1  0
 25 23  1  0
 26 25  1  0
 27 25  2  0
M  END
$$$$
