PTE.pdb
     RDKit          3D

 24 24  0  0  1  0  0  0  0  0999 V2000
    7.1835  -15.2674   19.7956 N   0  0  0  0  0  0  0  0  0  0  0  0
    6.5347  -14.8413   18.5622 C   0  0  0  0  0  0  0  0  0  0  0  0
    7.0856  -13.5008   18.2040 C   0  0  0  0  0  0  0  0  0  0  0  0
    7.7758  -13.0800   19.4923 C   0  0  0  0  0  0  0  0  0  0  0  0
    8.3102  -14.4086   19.9579 C   0  0  1  0  0  0  0  0  0  0  0  0
    8.8877  -14.4099   21.3087 C   0  0  0  0  0  0  0  0  0  0  0  0
   10.0436  -13.9359   21.4653 O   0  0  0  0  0  0  0  0  0  0  0  0
    6.8477  -13.5045   24.5550 C   0  0  0  0  0  0  0  0  0  0  0  0
    7.5941  -14.7873   24.7210 C   0  0  1  0  0  0  0  0  0  0  0  0
    6.6921  -15.8032   24.2917 O   0  0  0  0  0  0  0  0  0  0  0  0
    8.8327  -14.8530   23.8133 C   0  0  2  0  0  0  0  0  0  0  0  0
    8.2440  -14.9072   22.4635 N   0  0  0  0  0  0  0  0  0  0  0  0
    9.5193  -16.1289   24.1090 C   0  0  0  0  0  0  0  0  0  0  0  0
    9.0742  -17.1974   23.5610 O   0  0  0  0  0  0  0  0  0  0  0  0
   10.6229  -16.2820   24.9374 N   0  0  0  0  0  0  0  0  0  0  0  0
   11.2608  -17.5789   25.2060 C   0  0  1  0  0  0  0  0  0  0  0  0
   12.7269  -17.3570   24.9464 C   0  0  0  0  0  0  0  0  0  0  0  0
   13.6005  -18.5463   25.1151 C   0  0  0  0  0  0  0  0  0  0  0  0
   15.0372  -18.2980   24.9200 C   0  0  0  0  0  0  0  0  0  0  0  0
   15.4984  -17.1577   24.7149 O   0  0  0  0  0  0  0  0  0  0  0  0
   11.0662  -17.9921   26.5979 C   0  0  0  0  0  0  0  0  0  0  0  0
   10.6162  -17.2230   27.4707 O   0  0  0  0  0  0  0  0  0  0  0  0
   15.9467  -19.3760   24.9638 O   0  0  0  0  0  0  0  0  0  0  0  0
   11.3745  -19.2955   27.0498 O   0  0  0  0  0  0  0  0  0  0  0  0
  1  2  1  0
  3  2  1  0
  4  3  1  0
  4  5  1  0
  5  1  1  0
  6 12  1  0
  5  6  1  1
  7  6  2  0
  9  8  1  6
  9 11  1  0
 10  9  1  0
 11 12  1  6
 11 13  1  0
 13 15  1  0
 14 13  2  0
 15 16  1  0
 16 17  1  1
 16 21  1  0
 18 17  1  0
 19 23  1  0
 19 18  1  0
 20 19  2  0
 21 24  1  0
 22 21  2  0
M  END
$$$$
