PTE.pdb
     RDKit          3D

 24 24  0  0  1  0  0  0  0  0999 V2000
    6.7962  -14.8628   20.7186 N   0  0  0  0  0  0  0  0  0  0  0  0
    6.2508  -14.3562   19.4656 C   0  0  0  0  0  0  0  0  0  0  0  0
    7.0874  -13.1919   19.0491 C   0  0  0  0  0  0  0  0  0  0  0  0
    7.8645  -12.8812   20.3189 C   0  0  0  0  0  0  0  0  0  0  0  0
    8.0888  -14.2742   20.8450 C   0  0  1  0  0  0  0  0  0  0  0  0
    8.6615  -14.3460   22.1960 C   0  0  0  0  0  0  0  0  0  0  0  0
    9.8937  -14.1282   22.3355 O   0  0  0  0  0  0  0  0  0  0  0  0
    6.9874  -12.7313   25.3023 C   0  0  0  0  0  0  0  0  0  0  0  0
    7.3532  -14.1495   25.5941 C   0  0  1  0  0  0  0  0  0  0  0  0
    6.2044  -14.9131   25.2376 O   0  0  0  0  0  0  0  0  0  0  0  0
    8.5212  -14.6332   24.7200 C   0  0  2  0  0  0  0  0  0  0  0  0
    7.9330  -14.6446   23.3688 N   0  0  0  0  0  0  0  0  0  0  0  0
    8.8324  -16.0166   25.1395 C   0  0  0  0  0  0  0  0  0  0  0  0
    8.0292  -16.9509   24.7896 O   0  0  0  0  0  0  0  0  0  0  0  0
    9.9341  -16.4078   25.8884 N   0  0  0  0  0  0  0  0  0  0  0  0
   10.2130  -17.8048   26.2508 C   0  0  1  0  0  0  0  0  0  0  0  0
   11.6105  -18.0675   25.7569 C   0  0  0  0  0  0  0  0  0  0  0  0
   12.1568  -19.4172   26.0500 C   0  0  0  0  0  0  0  0  0  0  0  0
   13.5339  -19.6471   25.5870 C   0  0  0  0  0  0  0  0  0  0  0  0
   13.8391  -19.6731   24.3782 O   0  0  0  0  0  0  0  0  0  0  0  0
   10.1606  -18.0012   27.7016 C   0  0  0  0  0  0  0  0  0  0  0  0
   10.1969  -19.1311   28.2286 O   0  0  0  0  0  0  0  0  0  0  0  0
   14.5655  -19.8468   26.5290 O   0  0  0  0  0  0  0  0  0  0  0  0
   10.0661  -16.9205   28.6079 O   0  0  0  0  0  0  0  0  0  0  0  0
  1  2  1  0
  3  2  1  0
  4  3  1  0
  4  5  1  0
  5  1  1  0
  6 12  1  0
  5  6  1  1
  7  6  2  0
  9  8  1  6
  9 11  1  0
 10  9  1  0
 11 12  1  6
 11 13  1  0
 13 15  1  0
 14 13  2  0
 15 16  1  0
 16 17  1  1
 16 21  1  0
 18 17  1  0
 19 23  1  0
 19 18  1  0
 20 19  2  0
 21 24  1  0
 22 21  2  0
M  END
$$$$
