PTE.pdb
     RDKit          3D

 24 24  0  0  1  0  0  0  0  0999 V2000
    9.1503  -14.4682   19.0450 N   0  0  0  0  0  0  0  0  0  0  0  0
    8.8924  -13.5579   17.9366 C   0  0  0  0  0  0  0  0  0  0  0  0
    7.9449  -12.5123   18.4245 C   0  0  0  0  0  0  0  0  0  0  0  0
    7.4311  -13.1206   19.7202 C   0  0  0  0  0  0  0  0  0  0  0  0
    8.6817  -13.7990   20.2137 C   0  0  1  0  0  0  0  0  0  0  0  0
    8.4990  -14.6700   21.3826 C   0  0  0  0  0  0  0  0  0  0  0  0
    8.1065  -14.1501   22.4601 O   0  0  0  0  0  0  0  0  0  0  0  0
    7.5534  -18.6313   20.9928 C   0  0  0  0  0  0  0  0  0  0  0  0
    8.6210  -18.3358   21.9944 C   0  0  1  0  0  0  0  0  0  0  0  0
    9.8437  -18.3903   21.2649 O   0  0  0  0  0  0  0  0  0  0  0  0
    8.4891  -16.9181   22.5734 C   0  0  2  0  0  0  0  0  0  0  0  0
    8.7318  -16.0631   21.3980 N   0  0  0  0  0  0  0  0  0  0  0  0
    9.5859  -16.7453   23.5501 C   0  0  0  0  0  0  0  0  0  0  0  0
   10.7224  -16.3413   23.1195 O   0  0  0  0  0  0  0  0  0  0  0  0
    9.4994  -16.9811   24.9156 N   0  0  0  0  0  0  0  0  0  0  0  0
   10.6038  -16.7306   25.8528 C   0  0  1  0  0  0  0  0  0  0  0  0
   10.0532  -15.7534   26.8568 C   0  0  0  0  0  0  0  0  0  0  0  0
   10.9643  -15.3899   27.9720 C   0  0  0  0  0  0  0  0  0  0  0  0
   10.3882  -14.4859   28.9792 C   0  0  0  0  0  0  0  0  0  0  0  0
    9.2147  -14.0692   28.9127 O   0  0  0  0  0  0  0  0  0  0  0  0
   11.0128  -17.9593   26.5376 C   0  0  0  0  0  0  0  0  0  0  0  0
   10.2599  -18.9471   26.6527 O   0  0  0  0  0  0  0  0  0  0  0  0
   11.1744  -14.0622   30.0717 O   0  0  0  0  0  0  0  0  0  0  0  0
   12.2934  -18.1118   27.1162 O   0  0  0  0  0  0  0  0  0  0  0  0
  1  2  1  0
  3  2  1  0
  4  3  1  0
  4  5  1  0
  5  1  1  0
  6 12  1  0
  5  6  1  1
  7  6  2  0
  9  8  1  6
  9 11  1  0
 10  9  1  0
 11 12  1  6
 11 13  1  0
 13 15  1  0
 14 13  2  0
 15 16  1  0
 16 17  1  1
 16 21  1  0
 18 17  1  0
 19 23  1  0
 19 18  1  0
 20 19  2  0
 21 24  1  0
 22 21  2  0
M  END
$$$$
