PTE.pdb
     RDKit          3D

 24 24  0  0  1  0  0  0  0  0999 V2000
    8.5755  -15.4355   17.1774 N   0  0  0  0  0  0  0  0  0  0  0  0
    7.9669  -15.2222   15.8705 C   0  0  0  0  0  0  0  0  0  0  0  0
    8.0917  -13.7699   15.5478 C   0  0  0  0  0  0  0  0  0  0  0  0
    8.4593  -13.1695   16.8958 C   0  0  0  0  0  0  0  0  0  0  0  0
    9.3385  -14.2612   17.4462 C   0  0  1  0  0  0  0  0  0  0  0  0
    9.7296  -14.0974   18.8528 C   0  0  0  0  0  0  0  0  0  0  0  0
   10.7250  -13.3728   19.1162 O   0  0  0  0  0  0  0  0  0  0  0  0
    7.1762  -13.3806   21.5715 C   0  0  0  0  0  0  0  0  0  0  0  0
    8.0785  -14.4612   22.0698 C   0  0  1  0  0  0  0  0  0  0  0  0
    7.4256  -15.6807   21.7283 O   0  0  0  0  0  0  0  0  0  0  0  0
    9.4396  -14.4481   21.3559 C   0  0  2  0  0  0  0  0  0  0  0  0
    9.0719  -14.6956   19.9505 N   0  0  0  0  0  0  0  0  0  0  0  0
   10.2136  -15.5949   21.8777 C   0  0  0  0  0  0  0  0  0  0  0  0
   10.0167  -16.7470   21.3540 O   0  0  0  0  0  0  0  0  0  0  0  0
   11.1530  -15.5411   22.8986 N   0  0  0  0  0  0  0  0  0  0  0  0
   11.8715  -16.7207   23.4018 C   0  0  1  0  0  0  0  0  0  0  0  0
   13.3149  -16.2998   23.4758 C   0  0  0  0  0  0  0  0  0  0  0  0
   13.9764  -16.0273   22.1742 C   0  0  0  0  0  0  0  0  0  0  0  0
   15.4039  -15.6829   22.2598 C   0  0  0  0  0  0  0  0  0  0  0  0
   16.0116  -15.6092   23.3462 O   0  0  0  0  0  0  0  0  0  0  0  0
   11.4030  -17.1029   24.7361 C   0  0  0  0  0  0  0  0  0  0  0  0
   10.6061  -16.4046   25.3942 O   0  0  0  0  0  0  0  0  0  0  0  0
   16.1338  -15.4234   21.0803 O   0  0  0  0  0  0  0  0  0  0  0  0
   11.8216  -18.2940   25.3719 O   0  0  0  0  0  0  0  0  0  0  0  0
  1  2  1  0
  3  2  1  0
  4  3  1  0
  4  5  1  0
  5  1  1  0
  6 12  1  0
  5  6  1  1
  7  6  2  0
  9  8  1  6
  9 11  1  0
 10  9  1  0
 11 12  1  6
 11 13  1  0
 13 15  1  0
 14 13  2  0
 15 16  1  0
 16 17  1  1
 16 21  1  0
 18 17  1  0
 19 23  1  0
 19 18  1  0
 20 19  2  0
 21 24  1  0
 22 21  2  0
M  END
$$$$
