PTE.pdb
     RDKit          3D

 24 24  0  0  1  0  0  0  0  0999 V2000
    8.8691  -12.8112   19.4372 N   0  0  0  0  0  0  0  0  0  0  0  0
    7.8577  -11.9744   18.8041 C   0  0  0  0  0  0  0  0  0  0  0  0
    7.0841  -12.8377   17.8633 C   0  0  0  0  0  0  0  0  0  0  0  0
    7.9671  -14.0713   17.7561 C   0  0  0  0  0  0  0  0  0  0  0  0
    8.4826  -14.1572   19.1684 C   0  0  1  0  0  0  0  0  0  0  0  0
    9.5427  -15.1506   19.3861 C   0  0  0  0  0  0  0  0  0  0  0  0
    9.2423  -16.3712   19.3141 O   0  0  0  0  0  0  0  0  0  0  0  0
   12.5493  -15.6290   17.4660 C   0  0  0  0  0  0  0  0  0  0  0  0
   13.0150  -15.4644   18.8753 C   0  0  1  0  0  0  0  0  0  0  0  0
   13.2523  -14.0681   19.0303 O   0  0  0  0  0  0  0  0  0  0  0  0
   11.9318  -15.8662   19.8890 C   0  0  2  0  0  0  0  0  0  0  0  0
   10.8912  -14.8449   19.6747 N   0  0  0  0  0  0  0  0  0  0  0  0
   12.5183  -15.7045   21.2368 C   0  0  0  0  0  0  0  0  0  0  0  0
   12.6541  -14.5182   21.7000 O   0  0  0  0  0  0  0  0  0  0  0  0
   12.9417  -16.7352   22.0651 N   0  0  0  0  0  0  0  0  0  0  0  0
   13.4994  -16.5186   23.4079 C   0  0  1  0  0  0  0  0  0  0  0  0
   13.1414  -17.7563   24.1864 C   0  0  0  0  0  0  0  0  0  0  0  0
   13.5693  -17.7718   25.6086 C   0  0  0  0  0  0  0  0  0  0  0  0
   13.1942  -18.9794   26.3600 C   0  0  0  0  0  0  0  0  0  0  0  0
   13.8054  -19.3497   27.3820 O   0  0  0  0  0  0  0  0  0  0  0  0
   14.9561  -16.3709   23.3642 C   0  0  0  0  0  0  0  0  0  0  0  0
   15.6478  -16.8055   22.4216 O   0  0  0  0  0  0  0  0  0  0  0  0
   12.1038  -19.7634   25.9270 O   0  0  0  0  0  0  0  0  0  0  0  0
   15.6814  -15.7225   24.3897 O   0  0  0  0  0  0  0  0  0  0  0  0
  1  2  1  0
  3  2  1  0
  4  3  1  0
  4  5  1  0
  5  1  1  0
  6 12  1  0
  5  6  1  6
  7  6  2  0
  9  8  1  6
  9 11  1  0
 10  9  1  0
 11 12  1  1
 11 13  1  0
 13 15  1  0
 14 13  2  0
 15 16  1  0
 16 17  1  1
 16 21  1  0
 18 17  1  0
 19 23  1  0
 19 18  1  0
 20 19  2  0
 21 24  1  0
 22 21  2  0
M  END
$$$$
