PTE.pdb
     RDKit          3D

 24 24  0  0  1  0  0  0  0  0999 V2000
    7.4835  -15.1353   19.6810 N   0  0  0  0  0  0  0  0  0  0  0  0
    6.8871  -14.7083   18.4218 C   0  0  0  0  0  0  0  0  0  0  0  0
    7.4728  -13.3797   18.0743 C   0  0  0  0  0  0  0  0  0  0  0  0
    8.1225  -12.9603   19.3839 C   0  0  0  0  0  0  0  0  0  0  0  0
    8.6176  -14.2938   19.8781 C   0  0  1  0  0  0  0  0  0  0  0  0
    9.1456  -14.2940   21.2491 C   0  0  0  0  0  0  0  0  0  0  0  0
   10.2567  -13.7415   21.4620 O   0  0  0  0  0  0  0  0  0  0  0  0
    6.9171  -13.4177   24.2240 C   0  0  0  0  0  0  0  0  0  0  0  0
    7.6946  -14.6468   24.5630 C   0  0  1  0  0  0  0  0  0  0  0  0
    6.8596  -15.7355   24.1788 O   0  0  0  0  0  0  0  0  0  0  0  0
    8.9935  -14.7482   23.7477 C   0  0  2  0  0  0  0  0  0  0  0  0
    8.5003  -14.8723   22.3646 N   0  0  0  0  0  0  0  0  0  0  0  0
    9.6623  -16.0033   24.1526 C   0  0  0  0  0  0  0  0  0  0  0  0
    9.1775  -17.1113   23.7311 O   0  0  0  0  0  0  0  0  0  0  0  0
   10.7885  -16.0976   24.9592 N   0  0  0  0  0  0  0  0  0  0  0  0
   11.4082  -17.3751   25.3396 C   0  0  1  0  0  0  0  0  0  0  0  0
   12.8915  -17.1331   25.2545 C   0  0  0  0  0  0  0  0  0  0  0  0
   13.3967  -16.6718   23.9362 C   0  0  0  0  0  0  0  0  0  0  0  0
   14.8451  -16.4226   23.8753 C   0  0  0  0  0  0  0  0  0  0  0  0
   15.5956  -16.5886   24.8574 O   0  0  0  0  0  0  0  0  0  0  0  0
   11.0511  -17.7558   26.7083 C   0  0  0  0  0  0  0  0  0  0  0  0
   10.4375  -16.9918   27.4800 O   0  0  0  0  0  0  0  0  0  0  0  0
   15.4297  -15.9798   22.6697 O   0  0  0  0  0  0  0  0  0  0  0  0
   11.3769  -19.0198   27.2509 O   0  0  0  0  0  0  0  0  0  0  0  0
  1  2  1  0
  3  2  1  0
  4  3  1  0
  4  5  1  0
  5  1  1  0
  6 12  1  0
  5  6  1  1
  7  6  2  0
  9  8  1  6
  9 11  1  0
 10  9  1  0
 11 12  1  6
 11 13  1  0
 13 15  1  0
 14 13  2  0
 15 16  1  0
 16 17  1  1
 16 21  1  0
 18 17  1  0
 19 23  1  0
 19 18  1  0
 20 19  2  0
 21 24  1  0
 22 21  2  0
M  END
$$$$
