PTE.pdb
     RDKit          3D

 24 24  0  0  1  0  0  0  0  0999 V2000
    8.6469  -14.4362   16.2339 N   0  0  0  0  0  0  0  0  0  0  0  0
    8.1880  -15.1461   15.0468 C   0  0  0  0  0  0  0  0  0  0  0  0
    7.7674  -16.5132   15.4747 C   0  0  0  0  0  0  0  0  0  0  0  0
    8.3684  -16.6152   16.8680 C   0  0  0  0  0  0  0  0  0  0  0  0
    8.1830  -15.1992   17.3456 C   0  0  1  0  0  0  0  0  0  0  0  0
    8.8398  -14.8798   18.6204 C   0  0  0  0  0  0  0  0  0  0  0  0
   10.0787  -14.6553   18.6149 O   0  0  0  0  0  0  0  0  0  0  0  0
    7.2998  -12.5707   21.3860 C   0  0  0  0  0  0  0  0  0  0  0  0
    7.7752  -13.8544   21.9829 C   0  0  1  0  0  0  0  0  0  0  0  0
    6.6444  -14.7208   21.9564 O   0  0  0  0  0  0  0  0  0  0  0  0
    8.8797  -14.5074   21.1367 C   0  0  2  0  0  0  0  0  0  0  0  0
    8.1866  -14.8037   19.8704 N   0  0  0  0  0  0  0  0  0  0  0  0
    9.2507  -15.7711   21.8091 C   0  0  0  0  0  0  0  0  0  0  0  0
    8.6312  -16.8405   21.4732 O   0  0  0  0  0  0  0  0  0  0  0  0
   10.2266  -15.9125   22.7865 N   0  0  0  0  0  0  0  0  0  0  0  0
   10.5369  -17.1908   23.4428 C   0  0  1  0  0  0  0  0  0  0  0  0
   11.9744  -17.4720   23.0957 C   0  0  0  0  0  0  0  0  0  0  0  0
   12.9571  -16.4470   23.5314 C   0  0  0  0  0  0  0  0  0  0  0  0
   14.2545  -16.4926   22.8397 C   0  0  0  0  0  0  0  0  0  0  0  0
   15.1251  -17.3455   23.1037 O   0  0  0  0  0  0  0  0  0  0  0  0
   10.3936  -17.0933   24.8974 C   0  0  0  0  0  0  0  0  0  0  0  0
   10.0946  -16.0281   25.4735 O   0  0  0  0  0  0  0  0  0  0  0  0
   14.5462  -15.5459   21.8347 O   0  0  0  0  0  0  0  0  0  0  0  0
   10.5835  -18.2033   25.7519 O   0  0  0  0  0  0  0  0  0  0  0  0
  1  2  1  0
  3  2  1  0
  4  3  1  0
  4  5  1  0
  5  1  1  0
  6 12  1  0
  5  6  1  1
  7  6  2  0
  9  8  1  6
  9 11  1  0
 10  9  1  0
 11 12  1  6
 11 13  1  0
 13 15  1  0
 14 13  2  0
 15 16  1  0
 16 17  1  1
 16 21  1  0
 18 17  1  0
 19 23  1  0
 19 18  1  0
 20 19  2  0
 21 24  1  0
 22 21  2  0
M  END
$$$$
