PTE.pdb
     RDKit          3D

 24 24  0  0  1  0  0  0  0  0999 V2000
    9.3917  -14.1617   19.4825 N   0  0  0  0  0  0  0  0  0  0  0  0
    9.4655  -13.4206   18.2299 C   0  0  0  0  0  0  0  0  0  0  0  0
    8.2157  -12.6126   18.1110 C   0  0  0  0  0  0  0  0  0  0  0  0
    7.3225  -13.2409   19.1694 C   0  0  0  0  0  0  0  0  0  0  0  0
    8.3426  -13.5528   20.2323 C   0  0  1  0  0  0  0  0  0  0  0  0
    7.8472  -14.3613   21.3544 C   0  0  0  0  0  0  0  0  0  0  0  0
    6.6044  -14.5279   21.4684 O   0  0  0  0  0  0  0  0  0  0  0  0
    6.5365  -16.6060   21.6116 C   0  0  0  0  0  0  0  0  0  0  0  0
    7.5693  -17.0413   22.5986 C   0  0  1  0  0  0  0  0  0  0  0  0
    8.6281  -17.5863   21.8164 O   0  0  0  0  0  0  0  0  0  0  0  0
    8.1415  -15.8558   23.3920 C   0  0  2  0  0  0  0  0  0  0  0  0
    8.6620  -14.9755   22.3310 N   0  0  0  0  0  0  0  0  0  0  0  0
    9.2636  -16.3776   24.2016 C   0  0  0  0  0  0  0  0  0  0  0  0
   10.4082  -16.5029   23.6407 O   0  0  0  0  0  0  0  0  0  0  0  0
    9.1947  -16.7493   25.5375 N   0  0  0  0  0  0  0  0  0  0  0  0
   10.3734  -16.8653   26.4082 C   0  0  1  0  0  0  0  0  0  0  0  0
   10.0197  -16.0964   27.6531 C   0  0  0  0  0  0  0  0  0  0  0  0
   11.0590  -16.0699   28.7137 C   0  0  0  0  0  0  0  0  0  0  0  0
   10.7056  -15.2975   29.9147 C   0  0  0  0  0  0  0  0  0  0  0  0
    9.9461  -14.3091   29.8763 O   0  0  0  0  0  0  0  0  0  0  0  0
   10.6459  -18.2622   26.7553 C   0  0  0  0  0  0  0  0  0  0  0  0
    9.7749  -19.1527   26.6922 O   0  0  0  0  0  0  0  0  0  0  0  0
   11.2330  -15.6720   31.1688 O   0  0  0  0  0  0  0  0  0  0  0  0
   11.9193  -18.6996   27.1860 O   0  0  0  0  0  0  0  0  0  0  0  0
  1  2  1  0
  3  2  1  0
  4  3  1  0
  4  5  1  0
  5  1  1  0
  6 12  1  0
  5  6  1  1
  7  6  2  0
  9  8  1  6
  9 11  1  0
 10  9  1  0
 11 12  1  6
 11 13  1  0
 13 15  1  0
 14 13  2  0
 15 16  1  0
 16 17  1  1
 16 21  1  0
 18 17  1  0
 19 23  1  0
 19 18  1  0
 20 19  2  0
 21 24  1  0
 22 21  2  0
M  END
$$$$
