PTE.pdb
     RDKit          3D

 24 24  0  0  1  0  0  0  0  0999 V2000
    7.8062  -17.6266   18.7091 N   0  0  0  0  0  0  0  0  0  0  0  0
    6.9552  -17.8488   17.5472 C   0  0  0  0  0  0  0  0  0  0  0  0
    6.9256  -16.5794   16.7619 C   0  0  0  0  0  0  0  0  0  0  0  0
    7.4960  -15.5742   17.7505 C   0  0  0  0  0  0  0  0  0  0  0  0
    8.5292  -16.4280   18.4369 C   0  0  1  0  0  0  0  0  0  0  0  0
    9.1612  -15.8170   19.6140 C   0  0  0  0  0  0  0  0  0  0  0  0
   10.2854  -15.2681   19.4717 O   0  0  0  0  0  0  0  0  0  0  0  0
    7.2182  -13.6487   22.2824 C   0  0  0  0  0  0  0  0  0  0  0  0
    8.0330  -14.7221   22.9258 C   0  0  1  0  0  0  0  0  0  0  0  0
    7.1669  -15.8504   23.0089 O   0  0  0  0  0  0  0  0  0  0  0  0
    9.2380  -15.1251   22.0610 C   0  0  2  0  0  0  0  0  0  0  0  0
    8.6038  -15.7949   20.9117 N   0  0  0  0  0  0  0  0  0  0  0  0
   10.0212  -16.1080   22.8403 C   0  0  0  0  0  0  0  0  0  0  0  0
    9.6522  -17.3342   22.8140 O   0  0  0  0  0  0  0  0  0  0  0  0
   11.1411  -15.8241   23.6103 N   0  0  0  0  0  0  0  0  0  0  0  0
   11.9948  -16.8588   24.2115 C   0  0  1  0  0  0  0  0  0  0  0  0
   13.3939  -16.3092   24.1316 C   0  0  0  0  0  0  0  0  0  0  0  0
   14.4607  -17.1714   24.7013 C   0  0  0  0  0  0  0  0  0  0  0  0
   15.8162  -16.6023   24.6514 C   0  0  0  0  0  0  0  0  0  0  0  0
   16.7056  -16.9169   25.4669 O   0  0  0  0  0  0  0  0  0  0  0  0
   11.6403  -17.0963   25.6129 C   0  0  0  0  0  0  0  0  0  0  0  0
   10.9394  -16.3031   26.2726 O   0  0  0  0  0  0  0  0  0  0  0  0
   16.1455  -15.6640   23.6502 O   0  0  0  0  0  0  0  0  0  0  0  0
   12.0683  -18.2451   26.3167 O   0  0  0  0  0  0  0  0  0  0  0  0
  1  2  1  0
  3  2  1  0
  4  3  1  0
  4  5  1  0
  5  1  1  0
  6 12  1  0
  5  6  1  1
  7  6  2  0
  9  8  1  6
  9 11  1  0
 10  9  1  0
 11 12  1  6
 11 13  1  0
 13 15  1  0
 14 13  2  0
 15 16  1  0
 16 17  1  1
 16 21  1  0
 18 17  1  0
 19 23  1  0
 19 18  1  0
 20 19  2  0
 21 24  1  0
 22 21  2  0
M  END
$$$$
