PTE.pdb
     RDKit          3D

 24 24  0  0  1  0  0  0  0  0999 V2000
    4.2819  -18.5058   19.6335 N   0  0  0  0  0  0  0  0  0  0  0  0
    3.0557  -19.0713   20.1818 C   0  0  0  0  0  0  0  0  0  0  0  0
    2.9758  -18.6662   21.6165 C   0  0  0  0  0  0  0  0  0  0  0  0
    4.3889  -18.1769   21.8936 C   0  0  0  0  0  0  0  0  0  0  0  0
    4.7116  -17.5250   20.5751 C   0  0  1  0  0  0  0  0  0  0  0  0
    6.1082  -17.0980   20.4156 C   0  0  0  0  0  0  0  0  0  0  0  0
    6.8980  -17.8563   19.7940 O   0  0  0  0  0  0  0  0  0  0  0  0
    7.2090  -13.4354   19.7722 C   0  0  0  0  0  0  0  0  0  0  0  0
    8.0523  -14.0040   20.8657 C   0  0  1  0  0  0  0  0  0  0  0  0
    7.4119  -13.6094   22.0758 O   0  0  0  0  0  0  0  0  0  0  0  0
    8.0759  -15.5405   20.8332 C   0  0  2  0  0  0  0  0  0  0  0  0
    6.6463  -15.8893   20.9103 N   0  0  0  0  0  0  0  0  0  0  0  0
    8.7653  -15.9892   22.0621 C   0  0  0  0  0  0  0  0  0  0  0  0
    8.0721  -16.1239   23.1306 O   0  0  0  0  0  0  0  0  0  0  0  0
   10.1171  -16.2868   22.1701 N   0  0  0  0  0  0  0  0  0  0  0  0
   10.7597  -16.6918   23.4286 C   0  0  1  0  0  0  0  0  0  0  0  0
   11.0137  -18.1684   23.2828 C   0  0  0  0  0  0  0  0  0  0  0  0
   11.5968  -18.8444   24.4698 C   0  0  0  0  0  0  0  0  0  0  0  0
   11.9091  -20.2699   24.2854 C   0  0  0  0  0  0  0  0  0  0  0  0
   11.7505  -20.8552   23.1958 O   0  0  0  0  0  0  0  0  0  0  0  0
   12.0314  -15.9927   23.6285 C   0  0  0  0  0  0  0  0  0  0  0  0
   12.6158  -15.3847   22.7096 O   0  0  0  0  0  0  0  0  0  0  0  0
   12.4098  -21.0231   25.3685 O   0  0  0  0  0  0  0  0  0  0  0  0
   12.6861  -15.9575   24.8809 O   0  0  0  0  0  0  0  0  0  0  0  0
  1  2  1  0
  3  2  1  0
  4  3  1  0
  4  5  1  0
  5  1  1  0
  6 12  1  0
  5  6  1  1
  7  6  2  0
  9  8  1  6
  9 11  1  0
 10  9  1  0
 11 12  1  1
 11 13  1  0
 13 15  1  0
 14 13  2  0
 15 16  1  0
 16 17  1  6
 16 21  1  0
 18 17  1  0
 19 23  1  0
 19 18  1  0
 20 19  2  0
 21 24  1  0
 22 21  2  0
M  END
$$$$
