PTE.pdb
     RDKit          3D

 24 24  0  0  1  0  0  0  0  0999 V2000
    8.1430  -15.3582   17.5742 N   0  0  0  0  0  0  0  0  0  0  0  0
    7.4865  -15.0823   16.3027 C   0  0  0  0  0  0  0  0  0  0  0  0
    7.6654  -13.6293   16.0099 C   0  0  0  0  0  0  0  0  0  0  0  0
    8.1221  -13.0826   17.3536 C   0  0  0  0  0  0  0  0  0  0  0  0
    8.9724  -14.2281   17.8357 C   0  0  1  0  0  0  0  0  0  0  0  0
    9.4344  -14.1200   19.2261 C   0  0  0  0  0  0  0  0  0  0  0  0
   10.4586  -13.4274   19.4637 O   0  0  0  0  0  0  0  0  0  0  0  0
    7.1017  -13.3293   22.0918 C   0  0  0  0  0  0  0  0  0  0  0  0
    7.9383  -14.4958   22.5036 C   0  0  1  0  0  0  0  0  0  0  0  0
    7.1779  -15.6464   22.1460 O   0  0  0  0  0  0  0  0  0  0  0  0
    9.2631  -14.5555   21.7268 C   0  0  2  0  0  0  0  0  0  0  0  0
    8.8157  -14.7391   20.3347 N   0  0  0  0  0  0  0  0  0  0  0  0
    9.9791  -15.7661   22.1836 C   0  0  0  0  0  0  0  0  0  0  0  0
    9.5980  -16.9021   21.7313 O   0  0  0  0  0  0  0  0  0  0  0  0
   11.0468  -15.7895   23.0708 N   0  0  0  0  0  0  0  0  0  0  0  0
   11.6632  -17.0293   23.5645 C   0  0  1  0  0  0  0  0  0  0  0  0
   13.0862  -16.6594   23.8871 C   0  0  0  0  0  0  0  0  0  0  0  0
   13.8921  -16.1398   22.7528 C   0  0  0  0  0  0  0  0  0  0  0  0
   15.2886  -15.8117   23.0782 C   0  0  0  0  0  0  0  0  0  0  0  0
   16.0856  -15.3602   22.2320 O   0  0  0  0  0  0  0  0  0  0  0  0
   10.9955  -17.5127   24.7755 C   0  0  0  0  0  0  0  0  0  0  0  0
   10.1806  -16.8190   25.4162 O   0  0  0  0  0  0  0  0  0  0  0  0
   15.7660  -16.0059   24.3918 O   0  0  0  0  0  0  0  0  0  0  0  0
   11.2279  -18.8034   25.3031 O   0  0  0  0  0  0  0  0  0  0  0  0
  1  2  1  0
  3  2  1  0
  4  3  1  0
  4  5  1  0
  5  1  1  0
  6 12  1  0
  5  6  1  1
  7  6  2  0
  9  8  1  6
  9 11  1  0
 10  9  1  0
 11 12  1  6
 11 13  1  0
 13 15  1  0
 14 13  2  0
 15 16  1  0
 16 17  1  1
 16 21  1  0
 18 17  1  0
 19 23  1  0
 19 18  1  0
 20 19  2  0
 21 24  1  0
 22 21  2  0
M  END
$$$$
