PTE.pdb
     RDKit          3D

 24 24  0  0  1  0  0  0  0  0999 V2000
    7.9251  -15.4521   18.6758 N   0  0  0  0  0  0  0  0  0  0  0  0
    7.3489  -15.1809   17.3650 C   0  0  0  0  0  0  0  0  0  0  0  0
    7.6274  -13.7511   17.0381 C   0  0  0  0  0  0  0  0  0  0  0  0
    8.0495  -13.1875   18.3862 C   0  0  0  0  0  0  0  0  0  0  0  0
    8.8061  -14.3636   18.9448 C   0  0  1  0  0  0  0  0  0  0  0  0
    9.2053  -14.2365   20.3529 C   0  0  0  0  0  0  0  0  0  0  0  0
   10.0709  -13.3730   20.6535 O   0  0  0  0  0  0  0  0  0  0  0  0
    7.0282  -13.5528   23.1879 C   0  0  0  0  0  0  0  0  0  0  0  0
    7.7982  -14.7722   23.5756 C   0  0  1  0  0  0  0  0  0  0  0  0
    6.9848  -15.8713   23.1753 O   0  0  0  0  0  0  0  0  0  0  0  0
    9.1287  -14.8780   22.8136 C   0  0  2  0  0  0  0  0  0  0  0  0
    8.6912  -15.0155   21.4132 N   0  0  0  0  0  0  0  0  0  0  0  0
    9.7832  -16.1281   23.2561 C   0  0  0  0  0  0  0  0  0  0  0  0
    9.3761  -17.2347   22.7562 O   0  0  0  0  0  0  0  0  0  0  0  0
   10.8181  -16.2186   24.1772 N   0  0  0  0  0  0  0  0  0  0  0  0
   11.3615  -17.4953   24.6627 C   0  0  1  0  0  0  0  0  0  0  0  0
   12.8533  -17.2979   24.7022 C   0  0  0  0  0  0  0  0  0  0  0  0
   13.4856  -16.8905   23.4216 C   0  0  0  0  0  0  0  0  0  0  0  0
   14.9534  -16.7993   23.4516 C   0  0  0  0  0  0  0  0  0  0  0  0
   15.5545  -15.7198   23.6202 O   0  0  0  0  0  0  0  0  0  0  0  0
   10.8722  -17.8074   26.0078 C   0  0  0  0  0  0  0  0  0  0  0  0
   10.1908  -17.0059   26.6779 O   0  0  0  0  0  0  0  0  0  0  0  0
   15.7313  -17.9651   23.2870 O   0  0  0  0  0  0  0  0  0  0  0  0
   11.1379  -19.0429   26.6412 O   0  0  0  0  0  0  0  0  0  0  0  0
  1  2  1  0
  3  2  1  0
  4  3  1  0
  4  5  1  0
  5  1  1  0
  6 12  1  0
  5  6  1  1
  7  6  2  0
  9  8  1  6
  9 11  1  0
 10  9  1  0
 11 12  1  6
 11 13  1  0
 13 15  1  0
 14 13  2  0
 15 16  1  0
 16 17  1  1
 16 21  1  0
 18 17  1  0
 19 23  1  0
 19 18  1  0
 20 19  2  0
 21 24  1  0
 22 21  2  0
M  END
$$$$
