PTE.pdb
     RDKit          3D

 24 24  0  0  1  0  0  0  0  0999 V2000
    9.4285  -19.0957   18.2025 N   0  0  0  0  0  0  0  0  0  0  0  0
    8.8739  -19.5364   16.9290 C   0  0  0  0  0  0  0  0  0  0  0  0
    9.3836  -18.6126   15.8726 C   0  0  0  0  0  0  0  0  0  0  0  0
    9.9294  -17.4537   16.6924 C   0  0  0  0  0  0  0  0  0  0  0  0
   10.4885  -18.2000   17.8748 C   0  0  1  0  0  0  0  0  0  0  0  0
   10.9390  -17.3553   18.9893 C   0  0  0  0  0  0  0  0  0  0  0  0
   12.0268  -16.7333   18.8664 O   0  0  0  0  0  0  0  0  0  0  0  0
    8.7122  -17.0989   22.5887 C   0  0  0  0  0  0  0  0  0  0  0  0
    9.3282  -15.8970   21.9514 C   0  0  1  0  0  0  0  0  0  0  0  0
    9.6196  -15.0106   23.0281 O   0  0  0  0  0  0  0  0  0  0  0  0
   10.6565  -16.2332   21.2550 C   0  0  2  0  0  0  0  0  0  0  0  0
   10.2424  -17.1816   20.2058 N   0  0  0  0  0  0  0  0  0  0  0  0
   11.5029  -16.9280   22.2487 C   0  0  0  0  0  0  0  0  0  0  0  0
   11.2189  -18.1416   22.5435 O   0  0  0  0  0  0  0  0  0  0  0  0
   12.5985  -16.3814   22.9033 N   0  0  0  0  0  0  0  0  0  0  0  0
   13.5383  -17.1730   23.7103 C   0  0  1  0  0  0  0  0  0  0  0  0
   14.8473  -16.4344   23.6262 C   0  0  0  0  0  0  0  0  0  0  0  0
   15.9808  -17.0410   24.3700 C   0  0  0  0  0  0  0  0  0  0  0  0
   17.2456  -16.2934   24.2985 C   0  0  0  0  0  0  0  0  0  0  0  0
   18.2857  -16.6800   24.8675 O   0  0  0  0  0  0  0  0  0  0  0  0
   13.1081  -17.2509   25.1084 C   0  0  0  0  0  0  0  0  0  0  0  0
   12.3083  -16.4369   25.6119 O   0  0  0  0  0  0  0  0  0  0  0  0
   17.3079  -15.0911   23.5625 O   0  0  0  0  0  0  0  0  0  0  0  0
   13.5698  -18.2580   25.9864 O   0  0  0  0  0  0  0  0  0  0  0  0
  1  2  1  0
  3  2  1  0
  4  3  1  0
  4  5  1  0
  5  1  1  0
  6 12  1  0
  5  6  1  1
  7  6  2  0
  9  8  1  1
  9 11  1  0
 10  9  1  0
 11 12  1  6
 11 13  1  0
 13 15  1  0
 14 13  2  0
 15 16  1  0
 16 17  1  1
 16 21  1  0
 18 17  1  0
 19 23  1  0
 19 18  1  0
 20 19  2  0
 21 24  1  0
 22 21  2  0
M  END
$$$$
