PTE.pdb
     RDKit          3D

 24 24  0  0  1  0  0  0  0  0999 V2000
    8.0004  -15.8361   16.6843 N   0  0  0  0  0  0  0  0  0  0  0  0
    7.2506  -15.8181   15.4348 C   0  0  0  0  0  0  0  0  0  0  0  0
    7.2590  -14.4148   14.9253 C   0  0  0  0  0  0  0  0  0  0  0  0
    7.7273  -13.6318   16.1421 C   0  0  0  0  0  0  0  0  0  0  0  0
    8.7187  -14.6049   16.7234 C   0  0  1  0  0  0  0  0  0  0  0  0
    9.2411  -14.2462   18.0488 C   0  0  0  0  0  0  0  0  0  0  0  0
   10.2553  -13.5026   18.1105 O   0  0  0  0  0  0  0  0  0  0  0  0
    6.9991  -13.1971   20.9895 C   0  0  0  0  0  0  0  0  0  0  0  0
    7.9698  -14.2247   21.4711 C   0  0  1  0  0  0  0  0  0  0  0  0
    7.2937  -15.4713   21.3341 O   0  0  0  0  0  0  0  0  0  0  0  0
    9.2297  -14.2813   20.5926 C   0  0  2  0  0  0  0  0  0  0  0  0
    8.6919  -14.6738   19.2779 N   0  0  0  0  0  0  0  0  0  0  0  0
   10.0816  -15.3658   21.1263 C   0  0  0  0  0  0  0  0  0  0  0  0
    9.9356  -16.5435   20.6445 O   0  0  0  0  0  0  0  0  0  0  0  0
   11.0448  -15.2267   22.1166 N   0  0  0  0  0  0  0  0  0  0  0  0
   11.8456  -16.3468   22.6312 C   0  0  1  0  0  0  0  0  0  0  0  0
   13.2588  -15.8304   22.6786 C   0  0  0  0  0  0  0  0  0  0  0  0
   14.2734  -16.7719   23.2173 C   0  0  0  0  0  0  0  0  0  0  0  0
   15.6387  -16.2323   23.3095 C   0  0  0  0  0  0  0  0  0  0  0  0
   16.2096  -15.6851   22.3452 O   0  0  0  0  0  0  0  0  0  0  0  0
   11.4195  -16.7340   23.9782 C   0  0  0  0  0  0  0  0  0  0  0  0
   11.8841  -17.7287   24.5703 O   0  0  0  0  0  0  0  0  0  0  0  0
   16.3480  -16.3250   24.5259 O   0  0  0  0  0  0  0  0  0  0  0  0
   10.4500  -16.0043   24.7035 O   0  0  0  0  0  0  0  0  0  0  0  0
  1  2  1  0
  3  2  1  0
  4  3  1  0
  4  5  1  0
  5  1  1  0
  6 12  1  0
  5  6  1  1
  7  6  2  0
  9  8  1  6
  9 11  1  0
 10  9  1  0
 11 12  1  6
 11 13  1  0
 13 15  1  0
 14 13  2  0
 15 16  1  0
 16 17  1  1
 16 21  1  0
 18 17  1  0
 19 23  1  0
 19 18  1  0
 20 19  2  0
 21 24  1  0
 22 21  2  0
M  END
$$$$
