RHI.pdb
     RDKit          3D

 30 30  0  0  1  0  0  0  0  0999 V2000
    7.3981  -14.5920   14.2036 N   0  0  0  0  0  0  0  0  0  0  0  0
    7.9699  -14.0402   15.3757 C   0  0  0  0  0  0  0  0  0  0  0  0
    8.1861  -12.7612   15.4886 N   0  0  0  0  0  0  0  0  0  0  0  0
    8.3159  -14.8888   16.4495 N   0  0  0  0  0  0  0  0  0  0  0  0
    8.0131  -16.3022   16.4652 C   0  0  0  0  0  0  0  0  0  0  0  0
    8.6418  -16.9649   17.6747 C   0  0  0  0  0  0  0  0  0  0  0  0
    7.9994  -16.4869   18.9434 C   0  0  0  0  0  0  0  0  0  0  0  0
    8.9676  -16.3998   20.0865 C   0  0  2  0  0  0  0  0  0  0  0  0
    9.8959  -17.5067   20.0812 N   0  0  0  0  0  0  0  0  0  0  0  0
    8.1434  -16.4170   21.3427 C   0  0  0  0  0  0  0  0  0  0  0  0
    7.1578  -15.6766   21.4676 O   0  0  0  0  0  0  0  0  0  0  0  0
    8.6795  -12.3726   16.3207 N   0  0  0  0  0  0  0  0  0  0  0  0
    8.5194  -17.3013   22.3850 C   0  0  1  0  0  0  0  0  0  0  0  0
    7.7481  -17.3652   23.6562 C   0  0  0  0  0  0  0  0  0  0  0  0
    7.7680  -18.7781   24.1024 C   0  0  0  0  0  0  0  0  0  0  0  0
    6.9386  -19.7267   23.3538 C   0  0  0  0  0  0  0  0  0  0  0  0
    5.5845  -19.5628   23.0408 N   0  0  0  0  0  0  0  0  0  0  0  0
    5.1959  -20.6457   22.3512 C   0  0  0  0  0  0  0  0  0  0  0  0
    6.2311  -21.4904   22.2086 N   0  0  0  0  0  0  0  0  0  0  0  0
    7.2670  -20.9125   22.8213 C   0  0  0  0  0  0  0  0  0  0  0  0
    8.3384  -16.3573   24.5255 O   0  0  0  0  0  0  0  0  0  0  0  0
    9.6064  -16.1312   24.4890 C   0  0  0  0  0  0  0  0  0  0  0  0
    5.8039  -11.7636   25.9533 C   0  0  0  0  0  0  0  0  0  0  0  0
    6.9163  -12.7359   25.5282 C   0  0  2  0  0  0  0  0  0  0  0  0
    7.4707  -13.4520   26.7250 C   0  0  0  0  0  0  0  0  0  0  0  0
    8.1921  -12.4087   27.5574 C   0  0  2  0  0  0  0  0  0  0  0  0
    8.3458  -14.5744   26.3200 N   0  0  0  0  0  0  0  0  0  0  0  0
    7.6662  -15.5321   25.4648 C   0  0  0  0  0  0  0  0  0  0  0  0
    8.8986  -15.2822   27.4779 O   0  0  0  0  0  0  0  0  0  0  0  0
   10.0752  -14.9502   28.1449 O   0  0  0  0  0  0  0  0  0  0  0  0
  1  2  1  0
  2  3  2  0
  4  5  1  0
  4  2  1  0
  6  5  1  0
  7  6  1  0
  8  9  1  1
  8  7  1  0
 10  8  1  0
 10 11  2  0
 12 10  1  0
 13 12  1  0
 13 20  1  0
 13 14  1  1
 15 19  1  0
 15 14  1  0
 16 15  2  0
 17 16  1  0
 17 18  1  0
 18 19  2  0
 20 27  1  0
 21 20  2  0
 22 23  1  0
 23 24  1  0
 24 26  1  0
 24 25  1  1
 26 28  1  0
 26 27  1  6
 28 30  2  0
 28 29  1  0
M  END
$$$$
