RHI.pdb
     RDKit          3D

 30 30  0  0  1  0  0  0  0  0999 V2000
    7.8558  -14.3725   13.9175 N   0  0  0  0  0  0  0  0  0  0  0  0
    8.9990  -14.7750   14.6498 C   0  0  0  0  0  0  0  0  0  0  0  0
   10.0541  -15.2514   14.0539 N   0  0  0  0  0  0  0  0  0  0  0  0
    9.0025  -14.6604   16.0568 N   0  0  0  0  0  0  0  0  0  0  0  0
    7.8012  -14.7444   16.8566 C   0  0  0  0  0  0  0  0  0  0  0  0
    7.6459  -13.5020   17.7107 C   0  0  0  0  0  0  0  0  0  0  0  0
    7.2389  -13.8595   19.1097 C   0  0  0  0  0  0  0  0  0  0  0  0
    8.3550  -14.4794   19.8978 C   0  0  2  0  0  0  0  0  0  0  0  0
    8.9332  -15.6063   19.2030 N   0  0  0  0  0  0  0  0  0  0  0  0
    7.7573  -14.9230   21.2031 C   0  0  0  0  0  0  0  0  0  0  0  0
    6.9431  -14.2093   21.8056 O   0  0  0  0  0  0  0  0  0  0  0  0
   10.8978  -15.5295   14.5995 N   0  0  0  0  0  0  0  0  0  0  0  0
    8.1465  -16.1796   21.7317 C   0  0  1  0  0  0  0  0  0  0  0  0
    7.5960  -16.6757   23.0223 C   0  0  0  0  0  0  0  0  0  0  0  0
    7.8305  -18.1384   23.0575 C   0  0  0  0  0  0  0  0  0  0  0  0
    7.5232  -18.8342   24.3104 C   0  0  0  0  0  0  0  0  0  0  0  0
    7.0046  -18.2457   25.4694 N   0  0  0  0  0  0  0  0  0  0  0  0
    6.8669  -19.2145   26.3868 C   0  0  0  0  0  0  0  0  0  0  0  0
    7.2704  -20.3888   25.8731 N   0  0  0  0  0  0  0  0  0  0  0  0
    7.6602  -20.1308   24.6225 C   0  0  0  0  0  0  0  0  0  0  0  0
    8.2098  -15.8521   24.0543 O   0  0  0  0  0  0  0  0  0  0  0  0
    9.4715  -15.5943   24.0136 C   0  0  0  0  0  0  0  0  0  0  0  0
    5.9540  -11.4132   26.0971 C   0  0  0  0  0  0  0  0  0  0  0  0
    6.9200  -12.4786   25.5537 C   0  0  2  0  0  0  0  0  0  0  0  0
    7.4390  -13.3336   26.6726 C   0  0  0  0  0  0  0  0  0  0  0  0
    8.2018  -12.4106   27.6043 C   0  0  2  0  0  0  0  0  0  0  0  0
    8.2663  -14.4468   26.1570 N   0  0  0  0  0  0  0  0  0  0  0  0
    7.5681  -15.2503   25.1684 C   0  0  0  0  0  0  0  0  0  0  0  0
    8.7363  -15.3230   27.2333 O   0  0  0  0  0  0  0  0  0  0  0  0
    9.9871  -15.2593   27.8425 O   0  0  0  0  0  0  0  0  0  0  0  0
  1  2  1  0
  2  3  2  0
  4  5  1  0
  4  2  1  0
  6  5  1  0
  7  6  1  0
  8  9  1  6
  8  7  1  0
 10  8  1  0
 10 11  2  0
 12 10  1  0
 13 12  1  0
 13 20  1  0
 13 14  1  6
 15 19  1  0
 15 14  1  0
 16 15  2  0
 17 16  1  0
 17 18  1  0
 18 19  2  0
 20 27  1  0
 21 20  2  0
 22 23  1  0
 23 24  1  0
 24 26  1  0
 24 25  1  1
 26 28  1  0
 26 27  1  6
 28 30  2  0
 28 29  1  0
M  END
$$$$
