RHI.pdb
     RDKit          3D

 30 30  0  0  1  0  0  0  0  0999 V2000
    7.1250  -13.7195   15.1581 N   0  0  0  0  0  0  0  0  0  0  0  0
    8.3929  -14.1901   15.5777 C   0  0  0  0  0  0  0  0  0  0  0  0
    9.1853  -14.8252   14.7628 N   0  0  0  0  0  0  0  0  0  0  0  0
    8.8141  -13.9700   16.9070 N   0  0  0  0  0  0  0  0  0  0  0  0
    8.0216  -13.2446   17.8742 C   0  0  0  0  0  0  0  0  0  0  0  0
    7.0220  -14.1693   18.5398 C   0  0  0  0  0  0  0  0  0  0  0  0
    7.6290  -15.5156   18.8039 C   0  0  0  0  0  0  0  0  0  0  0  0
    8.7192  -15.4681   19.8338 C   0  0  2  0  0  0  0  0  0  0  0  0
    9.7452  -16.4492   19.5661 N   0  0  0  0  0  0  0  0  0  0  0  0
    8.0648  -15.7465   21.1574 C   0  0  0  0  0  0  0  0  0  0  0  0
    7.1154  -15.0571   21.5557 O   0  0  0  0  0  0  0  0  0  0  0  0
   10.1278  -15.1453   15.0727 N   0  0  0  0  0  0  0  0  0  0  0  0
    8.5590  -16.8182   21.9430 C   0  0  1  0  0  0  0  0  0  0  0  0
    7.9921  -17.1127   23.2872 C   0  0  0  0  0  0  0  0  0  0  0  0
    8.3565  -18.5117   23.6120 C   0  0  0  0  0  0  0  0  0  0  0  0
    7.3189  -19.5312   23.4325 C   0  0  0  0  0  0  0  0  0  0  0  0
    5.9896  -19.2926   23.0657 N   0  0  0  0  0  0  0  0  0  0  0  0
    5.3675  -20.4795   23.0090 C   0  0  0  0  0  0  0  0  0  0  0  0
    6.2304  -21.4613   23.3203 N   0  0  0  0  0  0  0  0  0  0  0  0
    7.3972  -20.8624   23.5707 C   0  0  0  0  0  0  0  0  0  0  0  0
    8.4762  -16.0518   24.1593 O   0  0  0  0  0  0  0  0  0  0  0  0
    9.6808  -15.6110   24.0376 C   0  0  0  0  0  0  0  0  0  0  0  0
    7.0447  -10.8619   27.0169 C   0  0  0  0  0  0  0  0  0  0  0  0
    7.9796  -12.0815   26.9698 C   0  0  2  0  0  0  0  0  0  0  0  0
    7.4115  -13.1418   26.0724 C   0  0  0  0  0  0  0  0  0  0  0  0
    6.0413  -13.4874   26.6248 C   0  0  2  0  0  0  0  0  0  0  0  0
    8.3129  -14.3124   25.9886 N   0  0  0  0  0  0  0  0  0  0  0  0
    7.7566  -15.3895   25.1881 C   0  0  0  0  0  0  0  0  0  0  0  0
    8.6550  -14.8352   27.3140 O   0  0  0  0  0  0  0  0  0  0  0  0
    9.6003  -14.2917   28.1805 O   0  0  0  0  0  0  0  0  0  0  0  0
  1  2  1  0
  2  3  2  0
  4  5  1  0
  4  2  1  0
  6  5  1  0
  7  6  1  0
  8  9  1  6
  8  7  1  0
 10  8  1  0
 10 11  2  0
 12 10  1  0
 13 12  1  0
 13 20  1  0
 13 14  1  6
 15 19  1  0
 15 14  1  0
 16 15  2  0
 17 16  1  0
 17 18  1  0
 18 19  2  0
 20 27  1  0
 21 20  2  0
 22 23  1  0
 23 24  1  0
 24 26  1  0
 24 25  1  6
 26 28  1  0
 26 27  1  1
 28 30  2  0
 28 29  1  0
M  END
$$$$
