RHI.pdb
     RDKit          3D

 30 30  0  0  1  0  0  0  0  0999 V2000
   11.8568  -13.7214   18.6942 N   0  0  0  0  0  0  0  0  0  0  0  0
   11.2202  -14.1552   19.8824 C   0  0  0  0  0  0  0  0  0  0  0  0
   11.6789  -15.1610   20.5703 N   0  0  0  0  0  0  0  0  0  0  0  0
   10.0624  -13.4878   20.3375 N   0  0  0  0  0  0  0  0  0  0  0  0
    9.0561  -12.9590   19.4444 C   0  0  0  0  0  0  0  0  0  0  0  0
    8.4382  -14.0736   18.6239 C   0  0  0  0  0  0  0  0  0  0  0  0
    7.2788  -14.6932   19.3468 C   0  0  0  0  0  0  0  0  0  0  0  0
    7.5255  -16.1262   19.7174 C   0  0  2  0  0  0  0  0  0  0  0  0
    6.8190  -17.0305   18.8400 N   0  0  0  0  0  0  0  0  0  0  0  0
    7.0424  -16.2879   21.1310 C   0  0  0  0  0  0  0  0  0  0  0  0
    5.9310  -15.8628   21.4765 O   0  0  0  0  0  0  0  0  0  0  0  0
   11.1911  -15.4879   21.4318 N   0  0  0  0  0  0  0  0  0  0  0  0
    7.8886  -16.9393   22.0635 C   0  0  2  0  0  0  0  0  0  0  0  0
    7.4550  -17.1661   23.4690 C   0  0  0  0  0  0  0  0  0  0  0  0
    7.7038  -18.5950   23.7720 C   0  0  0  0  0  0  0  0  0  0  0  0
    7.5558  -19.0174   25.1677 C   0  0  0  0  0  0  0  0  0  0  0  0
    7.0771  -18.2258   26.2178 N   0  0  0  0  0  0  0  0  0  0  0  0
    7.0962  -18.9759   27.3296 C   0  0  0  0  0  0  0  0  0  0  0  0
    7.5618  -20.2034   27.0429 N   0  0  0  0  0  0  0  0  0  0  0  0
    7.8306  -20.2007   25.7351 C   0  0  0  0  0  0  0  0  0  0  0  0
    8.1482  -16.1603   24.2616 O   0  0  0  0  0  0  0  0  0  0  0  0
    9.3866  -15.8913   24.0289 C   0  0  0  0  0  0  0  0  0  0  0  0
    5.6928  -11.7262   26.4583 C   0  0  0  0  0  0  0  0  0  0  0  0
    6.6729  -12.6640   25.7348 C   0  0  2  0  0  0  0  0  0  0  0  0
    7.5323  -13.3899   26.7282 C   0  0  0  0  0  0  0  0  0  0  0  0
    8.3322  -12.3309   27.4634 C   0  0  2  0  0  0  0  0  0  0  0  0
    8.3848  -14.3997   26.0624 N   0  0  0  0  0  0  0  0  0  0  0  0
    7.6124  -15.3809   25.3201 C   0  0  0  0  0  0  0  0  0  0  0  0
    9.2492  -15.1001   27.0161 O   0  0  0  0  0  0  0  0  0  0  0  0
   10.5274  -14.6996   27.3972 O   0  0  0  0  0  0  0  0  0  0  0  0
  1  2  1  0
  2  3  2  0
  4  5  1  0
  4  2  1  0
  6  5  1  0
  7  6  1  0
  8  9  1  6
  8  7  1  0
 10  8  1  0
 10 11  2  0
 12 10  1  0
 13 12  1  0
 13 20  1  0
 13 14  1  6
 15 19  1  0
 15 14  1  0
 16 15  2  0
 17 16  1  0
 17 18  1  0
 18 19  2  0
 20 27  1  0
 21 20  2  0
 22 23  1  0
 23 24  1  0
 24 26  1  0
 24 25  1  1
 26 28  1  0
 26 27  1  6
 28 30  2  0
 28 29  1  0
M  END
$$$$
