RHI.pdb
     RDKit          3D

 30 30  0  0  1  0  0  0  0  0999 V2000
    8.1974  -13.2148   14.6846 N   0  0  0  0  0  0  0  0  0  0  0  0
    8.7400  -14.3471   15.3393 C   0  0  0  0  0  0  0  0  0  0  0  0
    9.1649  -15.3799   14.6699 N   0  0  0  0  0  0  0  0  0  0  0  0
    8.8254  -14.3642   16.7484 N   0  0  0  0  0  0  0  0  0  0  0  0
    8.2829  -13.3158   17.5828 C   0  0  0  0  0  0  0  0  0  0  0  0
    7.1391  -13.8470   18.4236 C   0  0  0  0  0  0  0  0  0  0  0  0
    7.6432  -14.4199   19.7153 C   0  0  0  0  0  0  0  0  0  0  0  0
    7.4734  -15.9087   19.7946 C   0  0  2  0  0  0  0  0  0  0  0  0
    6.3236  -16.3526   19.0411 N   0  0  0  0  0  0  0  0  0  0  0  0
    7.3018  -16.2391   21.2503 C   0  0  0  0  0  0  0  0  0  0  0  0
    6.1864  -16.1879   21.7875 O   0  0  0  0  0  0  0  0  0  0  0  0
    9.5282  -16.2245   15.1614 N   0  0  0  0  0  0  0  0  0  0  0  0
    8.4473  -16.6117   21.9978 C   0  0  1  0  0  0  0  0  0  0  0  0
    8.3381  -17.0056   23.4288 C   0  0  0  0  0  0  0  0  0  0  0  0
    9.1582  -18.2273   23.6038 C   0  0  0  0  0  0  0  0  0  0  0  0
    9.3496  -18.7129   24.9734 C   0  0  0  0  0  0  0  0  0  0  0  0
    8.8067  -18.1411   26.1295 N   0  0  0  0  0  0  0  0  0  0  0  0
    9.2152  -18.8773   27.1737 C   0  0  0  0  0  0  0  0  0  0  0  0
    9.9896  -19.8875   26.7435 N   0  0  0  0  0  0  0  0  0  0  0  0
   10.0537  -19.7647   25.4156 C   0  0  0  0  0  0  0  0  0  0  0  0
    8.6952  -15.8181   24.1920 O   0  0  0  0  0  0  0  0  0  0  0  0
    9.7363  -15.1298   23.8717 C   0  0  0  0  0  0  0  0  0  0  0  0
    6.7062  -10.7042   26.6270 C   0  0  0  0  0  0  0  0  0  0  0  0
    7.8107  -11.7726   26.6730 C   0  0  2  0  0  0  0  0  0  0  0  0
    7.3369  -13.0429   26.0293 C   0  0  0  0  0  0  0  0  0  0  0  0
    6.1251  -13.5018   26.8184 C   0  0  2  0  0  0  0  0  0  0  0  0
    8.4150  -14.0556   25.9847 N   0  0  0  0  0  0  0  0  0  0  0  0
    8.0078  -15.2755   25.3092 C   0  0  0  0  0  0  0  0  0  0  0  0
    8.9015  -14.3957   27.3244 O   0  0  0  0  0  0  0  0  0  0  0  0
    9.8332  -13.6654   28.0580 O   0  0  0  0  0  0  0  0  0  0  0  0
  1  2  1  0
  2  3  2  0
  4  5  1  0
  4  2  1  0
  6  5  1  0
  7  6  1  0
  8  9  1  6
  8  7  1  0
 10  8  1  0
 10 11  2  0
 12 10  1  0
 13 12  1  0
 13 20  1  0
 13 14  1  6
 15 19  1  0
 15 14  1  0
 16 15  2  0
 17 16  1  0
 17 18  1  0
 18 19  2  0
 20 27  1  0
 21 20  2  0
 22 23  1  0
 23 24  1  0
 24 26  1  0
 24 25  1  6
 26 28  1  0
 26 27  1  1
 28 30  2  0
 28 29  1  0
M  END
$$$$
