RHI.pdb
     RDKit          3D

 30 30  0  0  1  0  0  0  0  0999 V2000
    5.5831  -24.4680   19.4260 N   0  0  0  0  0  0  0  0  0  0  0  0
    6.7151  -24.3339   18.5860 C   0  0  0  0  0  0  0  0  0  0  0  0
    6.9032  -25.1242   17.5685 N   0  0  0  0  0  0  0  0  0  0  0  0
    7.6650  -23.3237   18.8509 N   0  0  0  0  0  0  0  0  0  0  0  0
    7.5621  -22.4217   19.9759 C   0  0  0  0  0  0  0  0  0  0  0  0
    6.8627  -21.1412   19.5654 C   0  0  0  0  0  0  0  0  0  0  0  0
    7.7710  -19.9580   19.7260 C   0  0  0  0  0  0  0  0  0  0  0  0
    7.0708  -18.6527   19.4864 C   0  0  2  0  0  0  0  0  0  0  0  0
    6.9026  -18.3919   18.0755 N   0  0  0  0  0  0  0  0  0  0  0  0
    7.9277  -17.5901   20.1141 C   0  0  0  0  0  0  0  0  0  0  0  0
    8.7348  -16.9397   19.4353 O   0  0  0  0  0  0  0  0  0  0  0  0
    7.7173  -24.9921   16.9307 N   0  0  0  0  0  0  0  0  0  0  0  0
    7.7923  -17.3473   21.5043 C   0  0  1  0  0  0  0  0  0  0  0  0
    7.9778  -15.9830   22.0693 C   0  0  0  0  0  0  0  0  0  0  0  0
    7.0266  -15.0915   21.3650 C   0  0  0  0  0  0  0  0  0  0  0  0
    7.5318  -14.3657   20.1961 C   0  0  0  0  0  0  0  0  0  0  0  0
    8.8499  -14.3835   19.7264 N   0  0  0  0  0  0  0  0  0  0  0  0
    8.9027  -13.5952   18.6425 C   0  0  0  0  0  0  0  0  0  0  0  0
    7.6877  -13.0763   18.3972 N   0  0  0  0  0  0  0  0  0  0  0  0
    6.8819  -13.5566   19.3472 C   0  0  0  0  0  0  0  0  0  0  0  0
    7.8460  -16.1333   23.5116 O   0  0  0  0  0  0  0  0  0  0  0  0
    6.6832  -16.2903   24.0440 C   0  0  0  0  0  0  0  0  0  0  0  0
    8.9877  -20.2286   25.7573 C   0  0  0  0  0  0  0  0  0  0  0  0
    8.4270  -18.8335   25.4366 C   0  0  2  0  0  0  0  0  0  0  0  0
    9.1269  -17.7877   26.2545 C   0  0  0  0  0  0  0  0  0  0  0  0
    8.8559  -18.1232   27.7091 C   0  0  2  0  0  0  0  0  0  0  0  0
    8.6790  -16.4275   25.8819 N   0  0  0  0  0  0  0  0  0  0  0  0
    8.8891  -16.1362   24.4743 C   0  0  0  0  0  0  0  0  0  0  0  0
    9.3413  -15.3950   26.6833 O   0  0  0  0  0  0  0  0  0  0  0  0
    8.9731  -15.0064   27.9691 O   0  0  0  0  0  0  0  0  0  0  0  0
  1  2  1  0
  2  3  2  0
  4  5  1  0
  4  2  1  0
  6  5  1  0
  7  6  1  0
  8  9  1  6
  8  7  1  0
 10  8  1  0
 10 11  2  0
 12 10  1  0
 13 12  1  0
 13 20  1  0
 13 14  1  6
 15 19  1  0
 15 14  1  0
 16 15  2  0
 17 16  1  0
 17 18  1  0
 18 19  2  0
 20 27  1  0
 21 20  2  0
 22 23  1  0
 23 24  1  0
 24 26  1  0
 24 25  1  6
 26 28  1  0
 26 27  1  1
 28 30  2  0
 28 29  1  0
M  END
$$$$
