RHI.pdb
     RDKit          3D

 30 30  0  0  1  0  0  0  0  0999 V2000
    8.3703  -13.8444   16.5319 N   0  0  0  0  0  0  0  0  0  0  0  0
    8.7139  -13.1177   17.6977 C   0  0  0  0  0  0  0  0  0  0  0  0
    8.4942  -11.8376   17.7894 N   0  0  0  0  0  0  0  0  0  0  0  0
    9.3081  -13.7886   18.7885 N   0  0  0  0  0  0  0  0  0  0  0  0
    8.6786  -14.8986   19.4677 C   0  0  0  0  0  0  0  0  0  0  0  0
    7.2788  -14.5228   19.9113 C   0  0  0  0  0  0  0  0  0  0  0  0
    6.6510  -15.6309   20.7040 C   0  0  0  0  0  0  0  0  0  0  0  0
    7.5040  -16.8645   20.7525 C   0  0  2  0  0  0  0  0  0  0  0  0
    6.8442  -17.9905   20.1330 N   0  0  0  0  0  0  0  0  0  0  0  0
    7.7606  -17.1459   22.2059 C   0  0  0  0  0  0  0  0  0  0  0  0
    6.8227  -17.2610   23.0074 O   0  0  0  0  0  0  0  0  0  0  0  0
    8.8248  -11.2951   18.6160 N   0  0  0  0  0  0  0  0  0  0  0  0
    9.1034  -17.2772   22.6415 C   0  0  2  0  0  0  0  0  0  0  0  0
    9.4245  -17.6279   24.0518 C   0  0  0  0  0  0  0  0  0  0  0  0
   10.6398  -18.4749   24.0197 C   0  0  0  0  0  0  0  0  0  0  0  0
   10.4569  -19.8940   23.7018 C   0  0  0  0  0  0  0  0  0  0  0  0
    9.2313  -20.5357   23.4906 N   0  0  0  0  0  0  0  0  0  0  0  0
    9.4911  -21.8249   23.2270 C   0  0  0  0  0  0  0  0  0  0  0  0
   10.8174  -22.0380   23.2592 N   0  0  0  0  0  0  0  0  0  0  0  0
   11.3744  -20.8593   23.5471 C   0  0  0  0  0  0  0  0  0  0  0  0
    9.4829  -16.3617   24.7684 O   0  0  0  0  0  0  0  0  0  0  0  0
   10.2773  -15.4279   24.3720 C   0  0  0  0  0  0  0  0  0  0  0  0
    6.9921  -11.4702   26.8685 C   0  0  0  0  0  0  0  0  0  0  0  0
    8.0999  -12.4940   27.1652 C   0  0  2  0  0  0  0  0  0  0  0  0
    7.8888  -13.7418   26.3586 C   0  0  0  0  0  0  0  0  0  0  0  0
    6.4945  -14.2401   26.6897 C   0  0  2  0  0  0  0  0  0  0  0  0
    8.9416  -14.7439   26.6362 N   0  0  0  0  0  0  0  0  0  0  0  0
    8.7335  -15.9873   25.9143 C   0  0  0  0  0  0  0  0  0  0  0  0
    9.0516  -15.0396   28.0671 O   0  0  0  0  0  0  0  0  0  0  0  0
    9.6282  -14.2085   29.0245 O   0  0  0  0  0  0  0  0  0  0  0  0
  1  2  1  0
  2  3  2  0
  4  5  1  0
  4  2  1  0
  6  5  1  0
  7  6  1  0
  8  9  1  1
  8  7  1  0
 10  8  1  0
 10 11  2  0
 12 10  1  0
 13 12  1  0
 13 20  1  0
 13 14  1  6
 15 19  1  0
 15 14  1  0
 16 15  2  0
 17 16  1  0
 17 18  1  0
 18 19  2  0
 20 27  1  0
 21 20  2  0
 22 23  1  0
 23 24  1  0
 24 26  1  0
 24 25  1  6
 26 28  1  0
 26 27  1  1
 28 30  2  0
 28 29  1  0
M  END
$$$$
