RHI.pdb
     RDKit          3D

 30 30  0  0  1  0  0  0  0  0999 V2000
    9.7940  -14.5296   17.8546 N   0  0  0  0  0  0  0  0  0  0  0  0
    8.7733  -13.7276   17.2890 C   0  0  0  0  0  0  0  0  0  0  0  0
    8.7531  -13.4515   16.0166 N   0  0  0  0  0  0  0  0  0  0  0  0
    7.7518  -13.2122   18.1159 N   0  0  0  0  0  0  0  0  0  0  0  0
    7.7288  -13.4006   19.5490 C   0  0  0  0  0  0  0  0  0  0  0  0
    6.9124  -14.6259   19.9088 C   0  0  0  0  0  0  0  0  0  0  0  0
    7.7294  -15.8761   19.7672 C   0  0  0  0  0  0  0  0  0  0  0  0
    6.9708  -17.1116   20.1541 C   0  0  2  0  0  0  0  0  0  0  0  0
    5.7306  -17.2238   19.4217 N   0  0  0  0  0  0  0  0  0  0  0  0
    6.6976  -16.9978   21.6272 C   0  0  0  0  0  0  0  0  0  0  0  0
    5.6628  -16.4577   22.0429 O   0  0  0  0  0  0  0  0  0  0  0  0
    8.0570  -12.7817   15.6247 N   0  0  0  0  0  0  0  0  0  0  0  0
    7.6525  -17.5233   22.5337 C   0  0  2  0  0  0  0  0  0  0  0  0
    7.3542  -17.6346   23.9875 C   0  0  0  0  0  0  0  0  0  0  0  0
    7.7880  -18.9854   24.4148 C   0  0  0  0  0  0  0  0  0  0  0  0
    7.7771  -19.2666   25.8532 C   0  0  0  0  0  0  0  0  0  0  0  0
    7.3012  -18.4104   26.8526 N   0  0  0  0  0  0  0  0  0  0  0  0
    7.4668  -19.0324   28.0294 C   0  0  0  0  0  0  0  0  0  0  0  0
    8.0230  -20.2396   27.8320 N   0  0  0  0  0  0  0  0  0  0  0  0
    8.1990  -20.3545   26.5135 C   0  0  0  0  0  0  0  0  0  0  0  0
    7.9840  -16.4776   24.6079 O   0  0  0  0  0  0  0  0  0  0  0  0
    9.1151  -16.0423   24.1705 C   0  0  0  0  0  0  0  0  0  0  0  0
    5.3450  -12.1342   26.7148 C   0  0  0  0  0  0  0  0  0  0  0  0
    6.3696  -13.0133   25.9794 C   0  0  2  0  0  0  0  0  0  0  0  0
    7.3287  -13.6278   26.9566 C   0  0  0  0  0  0  0  0  0  0  0  0
    8.0835  -12.4805   27.6015 C   0  0  2  0  0  0  0  0  0  0  0  0
    8.2196  -14.6042   26.2913 N   0  0  0  0  0  0  0  0  0  0  0  0
    7.4901  -15.7099   25.6950 C   0  0  0  0  0  0  0  0  0  0  0  0
    9.2258  -15.1416   27.2109 O   0  0  0  0  0  0  0  0  0  0  0  0
   10.5439  -14.7041   27.3160 O   0  0  0  0  0  0  0  0  0  0  0  0
  1  2  1  0
  2  3  2  0
  4  5  1  0
  4  2  1  0
  6  5  1  0
  7  6  1  0
  8  9  1  6
  8  7  1  0
 10  8  1  0
 10 11  2  0
 12 10  1  0
 13 12  1  0
 13 20  1  0
 13 14  1  6
 15 19  1  0
 15 14  1  0
 16 15  2  0
 17 16  1  0
 17 18  1  0
 18 19  2  0
 20 27  1  0
 21 20  2  0
 22 23  1  0
 23 24  1  0
 24 26  1  0
 24 25  1  1
 26 28  1  0
 26 27  1  6
 28 30  2  0
 28 29  1  0
M  END
$$$$
