RHI.pdb
     RDKit          3D

 30 30  0  0  1  0  0  0  0  0999 V2000
   16.1780  -20.7464   20.9624 N   0  0  0  0  0  0  0  0  0  0  0  0
   16.0220  -20.8715   19.5606 C   0  0  0  0  0  0  0  0  0  0  0  0
   16.6871  -21.7601   18.8799 N   0  0  0  0  0  0  0  0  0  0  0  0
   15.1277  -20.0179   18.8789 N   0  0  0  0  0  0  0  0  0  0  0  0
   14.4965  -18.8777   19.5043 C   0  0  0  0  0  0  0  0  0  0  0  0
   13.7065  -19.3121   20.7227 C   0  0  0  0  0  0  0  0  0  0  0  0
   13.0970  -18.1302   21.4170 C   0  0  0  0  0  0  0  0  0  0  0  0
   11.9314  -17.5550   20.6675 C   0  0  2  0  0  0  0  0  0  0  0  0
   12.3433  -16.9727   19.4112 N   0  0  0  0  0  0  0  0  0  0  0  0
   11.3320  -16.5032   21.5576 C   0  0  0  0  0  0  0  0  0  0  0  0
   11.7929  -15.3534   21.5840 O   0  0  0  0  0  0  0  0  0  0  0  0
   16.6155  -21.8028   17.8407 N   0  0  0  0  0  0  0  0  0  0  0  0
   10.2243  -16.8563   22.3689 C   0  0  1  0  0  0  0  0  0  0  0  0
    9.5336  -15.8431   23.2122 C   0  0  0  0  0  0  0  0  0  0  0  0
    8.1119  -15.8311   22.7947 C   0  0  0  0  0  0  0  0  0  0  0  0
    7.7872  -15.1284   21.5501 C   0  0  0  0  0  0  0  0  0  0  0  0
    8.7009  -14.4783   20.7129 N   0  0  0  0  0  0  0  0  0  0  0  0
    8.0105  -13.9638   19.6844 C   0  0  0  0  0  0  0  0  0  0  0  0
    6.7054  -14.2519   19.8225 N   0  0  0  0  0  0  0  0  0  0  0  0
    6.5993  -14.9534   20.9536 C   0  0  0  0  0  0  0  0  0  0  0  0
    9.8468  -16.1979   24.5892 O   0  0  0  0  0  0  0  0  0  0  0  0
   10.4176  -17.3218   24.8558 C   0  0  0  0  0  0  0  0  0  0  0  0
    9.7621  -12.3350   28.5963 C   0  0  0  0  0  0  0  0  0  0  0  0
   10.1959  -13.4299   27.6081 C   0  0  2  0  0  0  0  0  0  0  0  0
    9.7647  -14.7803   28.1010 C   0  0  0  0  0  0  0  0  0  0  0  0
   10.5088  -15.0241   29.4006 C   0  0  2  0  0  0  0  0  0  0  0  0
   10.0164  -15.8269   27.0857 N   0  0  0  0  0  0  0  0  0  0  0  0
    9.5991  -15.4247   25.7536 C   0  0  0  0  0  0  0  0  0  0  0  0
    9.3573  -17.0901   27.4275 O   0  0  0  0  0  0  0  0  0  0  0  0
    9.9066  -18.1066   28.2052 O   0  0  0  0  0  0  0  0  0  0  0  0
  1  2  1  0
  2  3  2  0
  4  5  1  0
  4  2  1  0
  6  5  1  0
  7  6  1  0
  8  9  1  6
  8  7  1  0
 10  8  1  0
 10 11  2  0
 12 10  1  0
 13 12  1  0
 13 20  1  0
 13 14  1  6
 15 19  1  0
 15 14  1  0
 16 15  2  0
 17 16  1  0
 17 18  1  0
 18 19  2  0
 20 27  1  0
 21 20  2  0
 22 23  1  0
 23 24  1  0
 24 26  1  0
 24 25  1  6
 26 28  1  0
 26 27  1  6
 28 30  2  0
 28 29  1  0
M  END
$$$$
