RHI.pdb
     RDKit          3D

 30 30  0  0  1  0  0  0  0  0999 V2000
    7.3340  -12.4350   18.4649 N   0  0  0  0  0  0  0  0  0  0  0  0
    8.3109  -13.2031   19.1437 C   0  0  0  0  0  0  0  0  0  0  0  0
    9.5638  -12.8489   19.1581 N   0  0  0  0  0  0  0  0  0  0  0  0
    7.9259  -14.3797   19.8221 N   0  0  0  0  0  0  0  0  0  0  0  0
    6.5928  -14.5893   20.3405 C   0  0  0  0  0  0  0  0  0  0  0  0
    6.6540  -15.1648   21.7413 C   0  0  0  0  0  0  0  0  0  0  0  0
    7.7574  -16.1744   21.8594 C   0  0  0  0  0  0  0  0  0  0  0  0
    7.3083  -17.4511   22.5072 C   0  0  2  0  0  0  0  0  0  0  0  0
    5.9327  -17.3708   22.9410 N   0  0  0  0  0  0  0  0  0  0  0  0
    8.2143  -17.6704   23.6857 C   0  0  0  0  0  0  0  0  0  0  0  0
    7.7967  -18.2158   24.7170 O   0  0  0  0  0  0  0  0  0  0  0  0
   10.2818  -13.4386   19.6309 N   0  0  0  0  0  0  0  0  0  0  0  0
    9.5613  -17.2383   23.5916 C   0  0  2  0  0  0  0  0  0  0  0  0
   10.6059  -17.7690   24.5091 C   0  0  0  0  0  0  0  0  0  0  0  0
   11.8256  -17.9841   23.6957 C   0  0  0  0  0  0  0  0  0  0  0  0
   13.0014  -18.5235   24.3847 C   0  0  0  0  0  0  0  0  0  0  0  0
   14.2632  -17.9215   24.4471 N   0  0  0  0  0  0  0  0  0  0  0  0
   15.0594  -18.7269   25.1660 C   0  0  0  0  0  0  0  0  0  0  0  0
   14.3711  -19.8099   25.5646 N   0  0  0  0  0  0  0  0  0  0  0  0
   13.1357  -19.6616   25.0806 C   0  0  0  0  0  0  0  0  0  0  0  0
   10.6713  -16.8269   25.6175 O   0  0  0  0  0  0  0  0  0  0  0  0
   11.6479  -16.8788   26.4563 C   0  0  0  0  0  0  0  0  0  0  0  0
    6.9728  -12.6334   26.0815 C   0  0  0  0  0  0  0  0  0  0  0  0
    8.3157  -13.3586   25.8968 C   0  0  2  0  0  0  0  0  0  0  0  0
    8.7708  -13.9559   27.1962 C   0  0  0  0  0  0  0  0  0  0  0  0
    9.0529  -12.7945   28.1308 C   0  0  2  0  0  0  0  0  0  0  0  0
    9.9430  -14.8373   26.9995 N   0  0  0  0  0  0  0  0  0  0  0  0
    9.7514  -15.7885   25.9183 C   0  0  0  0  0  0  0  0  0  0  0  0
   10.2867  -15.5708   28.2205 O   0  0  0  0  0  0  0  0  0  0  0  0
   11.2354  -15.1788   29.1617 O   0  0  0  0  0  0  0  0  0  0  0  0
  1  2  1  0
  2  3  2  0
  4  5  1  0
  4  2  1  0
  6  5  1  0
  7  6  1  0
  8  9  1  1
  8  7  1  0
 10  8  1  0
 10 11  2  0
 12 10  1  0
 13 12  1  0
 13 20  1  0
 13 14  1  6
 15 19  1  0
 15 14  1  0
 16 15  2  0
 17 16  1  0
 17 18  1  0
 18 19  2  0
 20 27  1  0
 21 20  2  0
 22 23  1  0
 23 24  1  0
 24 26  1  0
 24 25  1  1
 26 28  1  0
 26 27  1  6
 28 30  2  0
 28 29  1  0
M  END
$$$$
