RHI.pdb
     RDKit          3D

 30 30  0  0  1  0  0  0  0  0999 V2000
   10.4360  -14.6876   16.2709 N   0  0  0  0  0  0  0  0  0  0  0  0
    9.3205  -14.5324   15.4126 C   0  0  0  0  0  0  0  0  0  0  0  0
    9.3228  -15.0129   14.2024 N   0  0  0  0  0  0  0  0  0  0  0  0
    8.1774  -13.8429   15.8716 N   0  0  0  0  0  0  0  0  0  0  0  0
    8.0811  -13.2724   17.1963 C   0  0  0  0  0  0  0  0  0  0  0  0
    7.0922  -14.0534   18.0385 C   0  0  0  0  0  0  0  0  0  0  0  0
    7.2675  -13.7456   19.4963 C   0  0  0  0  0  0  0  0  0  0  0  0
    6.7360  -14.8307   20.3860 C   0  0  2  0  0  0  0  0  0  0  0  0
    6.0434  -14.2864   21.5311 N   0  0  0  0  0  0  0  0  0  0  0  0
    7.9247  -15.6354   20.8301 C   0  0  0  0  0  0  0  0  0  0  0  0
    8.4695  -16.4422   20.0637 O   0  0  0  0  0  0  0  0  0  0  0  0
    8.4784  -14.9398   13.5954 N   0  0  0  0  0  0  0  0  0  0  0  0
    8.4105  -15.4509   22.1492 C   0  0  1  0  0  0  0  0  0  0  0  0
    9.8289  -15.7399   22.4947 C   0  0  0  0  0  0  0  0  0  0  0  0
   10.6611  -15.1817   21.4032 C   0  0  0  0  0  0  0  0  0  0  0  0
   12.1125  -15.3521   21.5158 C   0  0  0  0  0  0  0  0  0  0  0  0
   12.7830  -16.0084   22.5542 N   0  0  0  0  0  0  0  0  0  0  0  0
   14.0963  -15.9474   22.2885 C   0  0  0  0  0  0  0  0  0  0  0  0
   14.2975  -15.2869   21.1358 N   0  0  0  0  0  0  0  0  0  0  0  0
   13.0869  -14.9401   20.6923 C   0  0  0  0  0  0  0  0  0  0  0  0
   10.0187  -15.2225   23.8425 O   0  0  0  0  0  0  0  0  0  0  0  0
   11.1364  -15.4063   24.4565 C   0  0  0  0  0  0  0  0  0  0  0  0
    5.7555  -12.8215   26.8697 C   0  0  0  0  0  0  0  0  0  0  0  0
    6.7402  -13.8711   26.3290 C   0  0  2  0  0  0  0  0  0  0  0  0
    8.1536  -13.4672   26.6314 C   0  0  0  0  0  0  0  0  0  0  0  0
    8.3323  -12.0676   26.0738 C   0  0  1  0  0  0  0  0  0  0  0  0
    9.1198  -14.4393   26.0735 N   0  0  0  0  0  0  0  0  0  0  0  0
    9.0842  -14.4919   24.6222 C   0  0  0  0  0  0  0  0  0  0  0  0
    8.9046  -15.7890   26.6018 O   0  0  0  0  0  0  0  0  0  0  0  0
    9.2502  -16.2242   27.8789 O   0  0  0  0  0  0  0  0  0  0  0  0
  1  2  1  0
  2  3  2  0
  4  5  1  0
  4  2  1  0
  6  5  1  0
  7  6  1  0
  8  9  1  1
  8  7  1  0
 10  8  1  0
 10 11  2  0
 12 10  1  0
 13 12  1  0
 13 20  1  0
 13 14  1  6
 15 19  1  0
 15 14  1  0
 16 15  2  0
 17 16  1  0
 17 18  1  0
 18 19  2  0
 20 27  1  0
 21 20  2  0
 22 23  1  0
 23 24  1  0
 24 26  1  0
 24 25  1  1
 26 28  1  0
 26 27  1  6
 28 30  2  0
 28 29  1  0
M  END
$$$$
