EIF.pdb
     RDKit          3D

 29 29  0  0  1  0  0  0  0  0999 V2000
   21.6788  -12.2131  -16.5462 N   0  0  0  0  0  0  0  0  0  0  0  0
   22.0711  -11.1862  -17.5477 C   0  0  1  0  0  0  0  0  0  0  0  0
   21.9024  -11.7505  -18.9221 C   0  0  0  0  0  0  0  0  0  0  0  0
   22.7408  -12.9817  -19.1029 C   0  0  0  0  0  0  0  0  0  0  0  0
   21.8825  -14.1039  -19.6312 C   0  0  0  0  0  0  0  0  0  0  0  0
   21.5474  -14.9875  -18.8226 O   0  0  0  0  0  0  0  0  0  0  0  0
   21.3511   -9.9466  -17.2620 C   0  0  0  0  0  0  0  0  0  0  0  0
   21.5658   -8.9507  -18.0195 O   0  0  0  0  0  0  0  0  0  0  0  0
   21.4935  -14.1362  -20.9551 O   0  0  0  0  0  0  0  0  0  0  0  0
   16.9505  -10.6549  -16.3778 C   0  0  0  0  0  0  0  0  0  0  0  0
   17.5087   -9.3025  -16.8551 C   0  0  0  0  0  0  0  0  0  0  0  0
   18.2928   -8.7478  -15.7042 C   0  0  2  0  0  0  0  0  0  0  0  0
   17.5733   -7.4769  -15.2491 C   0  0  0  0  0  0  0  0  0  0  0  0
   19.7374   -8.4880  -15.9930 C   0  0  2  0  0  0  0  0  0  0  0  0
   20.4359   -9.7572  -16.2236 N   0  0  0  0  0  0  0  0  0  0  0  0
   20.4632   -7.6955  -14.9887 C   0  0  0  0  0  0  0  0  0  0  0  0
   20.4133   -8.0492  -13.7721 O   0  0  0  0  0  0  0  0  0  0  0  0
   21.2345   -6.5502  -15.2709 N   0  0  0  0  0  0  0  0  0  0  0  0
   21.8125   -5.7523  -14.2057 C   0  0  1  0  0  0  0  0  0  0  0  0
   23.2730   -6.1518  -14.0918 C   0  0  0  0  0  0  0  0  0  0  0  0
   24.0468   -5.9775  -15.3153 C   0  0  0  0  0  0  0  0  0  0  0  0
   24.6573   -4.7555  -15.5966 C   0  0  0  0  0  0  0  0  0  0  0  0
   25.3936   -4.6009  -16.7474 C   0  0  0  0  0  0  0  0  0  0  0  0
   25.5465   -5.6338  -17.6416 C   0  0  0  0  0  0  0  0  0  0  0  0
   24.9486   -6.8342  -17.3682 C   0  0  0  0  0  0  0  0  0  0  0  0
   24.1957   -7.0085  -16.2011 C   0  0  0  0  0  0  0  0  0  0  0  0
   21.7320   -4.3388  -14.5493 C   0  0  0  0  0  0  0  0  0  0  0  0
   21.2855   -3.9256  -15.6617 O   0  0  0  0  0  0  0  0  0  0  0  0
   22.1486   -3.3744  -13.6538 O   0  0  0  0  0  0  0  0  0  0  0  0
  2  1  1  1
  2  7  1  0
  2  3  1  0
  4  3  1  0
  4  5  1  0
  5  6  2  0
  7  8  2  0
  9  5  1  0
 10 11  1  0
 11 12  1  0
 12 14  1  0
 12 13  1  6
 14 15  1  1
 15  7  1  0
 16 14  1  0
 17 16  2  0
 18 16  1  0
 19 27  1  0
 19 18  1  0
 19 20  1  6
 21 20  1  0
 22 21  2  0
 23 22  1  0
 24 23  2  0
 24 25  1  0
 25 26  2  0
 26 21  1  0
 27 29  1  0
 28 27  2  0
M  END
$$$$
