EIF.pdb
     RDKit          3D

 29 29  0  0  1  0  0  0  0  0999 V2000
   27.1727  -21.9571  -15.3571 N   0  0  0  0  0  0  0  0  0  0  0  0
   27.4551  -20.5263  -15.0667 C   0  0  1  0  0  0  0  0  0  0  0  0
   27.1213  -19.7052  -16.2710 C   0  0  0  0  0  0  0  0  0  0  0  0
   27.2971  -20.5030  -17.5296 C   0  0  0  0  0  0  0  0  0  0  0  0
   28.7057  -20.3344  -18.0416 C   0  0  0  0  0  0  0  0  0  0  0  0
   29.5474  -21.1690  -17.6649 O   0  0  0  0  0  0  0  0  0  0  0  0
   26.7856  -20.1545  -13.8216 C   0  0  0  0  0  0  0  0  0  0  0  0
   26.7434  -18.9223  -13.5187 O   0  0  0  0  0  0  0  0  0  0  0  0
   29.0324  -19.2957  -18.8898 O   0  0  0  0  0  0  0  0  0  0  0  0
   21.8679  -21.2480  -13.2538 C   0  0  0  0  0  0  0  0  0  0  0  0
   23.2480  -20.5678  -13.2219 C   0  0  0  0  0  0  0  0  0  0  0  0
   23.9390  -21.0885  -11.9978 C   0  0  2  0  0  0  0  0  0  0  0  0
   23.0525  -20.7326  -10.8031 C   0  0  0  0  0  0  0  0  0  0  0  0
   25.3395  -20.5982  -11.8083 C   0  0  2  0  0  0  0  0  0  0  0  0
   26.1783  -21.0398  -12.9278 N   0  0  0  0  0  0  0  0  0  0  0  0
   25.9810  -20.9563  -10.5340 C   0  0  0  0  0  0  0  0  0  0  0  0
   26.0225  -22.1751  -10.1868 O   0  0  0  0  0  0  0  0  0  0  0  0
   26.5744  -20.0374   -9.6453 N   0  0  0  0  0  0  0  0  0  0  0  0
   27.0679  -20.4587   -8.3474 C   0  0  1  0  0  0  0  0  0  0  0  0
   27.9295  -19.3298   -7.8101 C   0  0  0  0  0  0  0  0  0  0  0  0
   28.3242  -19.4794   -6.4144 C   0  0  0  0  0  0  0  0  0  0  0  0
   27.7938  -18.6381   -5.4366 C   0  0  0  0  0  0  0  0  0  0  0  0
   28.1630  -18.7909   -4.1211 C   0  0  0  0  0  0  0  0  0  0  0  0
   29.0540  -19.7651   -3.7378 C   0  0  0  0  0  0  0  0  0  0  0  0
   29.5760  -20.5922   -4.6952 C   0  0  0  0  0  0  0  0  0  0  0  0
   29.2107  -20.4503   -6.0390 C   0  0  0  0  0  0  0  0  0  0  0  0
   25.9481  -20.6747   -7.4408 C   0  0  0  0  0  0  0  0  0  0  0  0
   26.0344  -21.3938   -6.4001 O   0  0  0  0  0  0  0  0  0  0  0  0
   24.7226  -20.0892   -7.6876 O   0  0  0  0  0  0  0  0  0  0  0  0
  2  1  1  6
  2  7  1  0
  2  3  1  0
  4  3  1  0
  4  5  1  0
  5  6  2  0
  7  8  2  0
  9  5  1  0
 10 11  1  0
 11 12  1  0
 12 14  1  0
 12 13  1  1
 14 15  1  6
 15  7  1  0
 16 14  1  0
 17 16  2  0
 18 16  1  0
 19 27  1  0
 19 18  1  0
 19 20  1  1
 21 20  1  0
 22 21  2  0
 23 22  1  0
 24 23  2  0
 24 25  1  0
 25 26  2  0
 26 21  1  0
 27 29  1  0
 28 27  2  0
M  END
$$$$
