EIF.pdb
     RDKit          3D

 29 29  0  0  1  0  0  0  0  0999 V2000
   26.3435  -17.4117  -17.7315 N   0  0  0  0  0  0  0  0  0  0  0  0
   27.1458  -17.9897  -16.6209 C   0  0  1  0  0  0  0  0  0  0  0  0
   28.3105  -17.0954  -16.3389 C   0  0  0  0  0  0  0  0  0  0  0  0
   29.5070  -17.5017  -17.1480 C   0  0  0  0  0  0  0  0  0  0  0  0
   29.3016  -17.1032  -18.5881 C   0  0  0  0  0  0  0  0  0  0  0  0
   29.2179  -15.8864  -18.8310 O   0  0  0  0  0  0  0  0  0  0  0  0
   26.2589  -18.2754  -15.4946 C   0  0  0  0  0  0  0  0  0  0  0  0
   25.7161  -17.2905  -14.9055 O   0  0  0  0  0  0  0  0  0  0  0  0
   29.2123  -18.0568  -19.5819 O   0  0  0  0  0  0  0  0  0  0  0  0
   21.6559  -19.9729  -15.6116 C   0  0  0  0  0  0  0  0  0  0  0  0
   22.9537  -19.2621  -15.1889 C   0  0  0  0  0  0  0  0  0  0  0  0
   23.7182  -20.2515  -14.3621 C   0  0  2  0  0  0  0  0  0  0  0  0
   22.8053  -20.6617  -13.2052 C   0  0  0  0  0  0  0  0  0  0  0  0
   25.0458  -19.7688  -13.8698 C   0  0  2  0  0  0  0  0  0  0  0  0
   25.9477  -19.5463  -15.0051 N   0  0  0  0  0  0  0  0  0  0  0  0
   25.7082  -20.6160  -12.8663 C   0  0  0  0  0  0  0  0  0  0  0  0
   26.3274  -21.6541  -13.2492 O   0  0  0  0  0  0  0  0  0  0  0  0
   25.7189  -20.3630  -11.4799 N   0  0  0  0  0  0  0  0  0  0  0  0
   26.1278  -21.3836  -10.5330 C   0  0  1  0  0  0  0  0  0  0  0  0
   27.5627  -21.0789  -10.1411 C   0  0  0  0  0  0  0  0  0  0  0  0
   27.7037  -20.2637   -8.9403 C   0  0  0  0  0  0  0  0  0  0  0  0
   28.1815  -20.8264   -7.7570 C   0  0  0  0  0  0  0  0  0  0  0  0
   28.3210  -20.0498   -6.6311 C   0  0  0  0  0  0  0  0  0  0  0  0
   27.9975  -18.7137   -6.6404 C   0  0  0  0  0  0  0  0  0  0  0  0
   27.5284  -18.1587   -7.8003 C   0  0  0  0  0  0  0  0  0  0  0  0
   27.3805  -18.9352   -8.9555 C   0  0  0  0  0  0  0  0  0  0  0  0
   25.2869  -21.3190   -9.3450 C   0  0  0  0  0  0  0  0  0  0  0  0
   25.4136  -22.1174   -8.3682 O   0  0  0  0  0  0  0  0  0  0  0  0
   24.2977  -20.3621   -9.2369 O   0  0  0  0  0  0  0  0  0  0  0  0
  2  1  1  6
  2  7  1  0
  2  3  1  0
  4  3  1  0
  4  5  1  0
  5  6  2  0
  7  8  2  0
  9  5  1  0
 10 11  1  0
 11 12  1  0
 12 14  1  0
 12 13  1  1
 14 15  1  6
 15  7  1  0
 16 14  1  0
 17 16  2  0
 18 16  1  0
 19 27  1  0
 19 18  1  0
 19 20  1  1
 21 20  1  0
 22 21  2  0
 23 22  1  0
 24 23  2  0
 24 25  1  0
 25 26  2  0
 26 21  1  0
 27 29  1  0
 28 27  2  0
M  END
$$$$
