EIF.pdb
     RDKit          3D

 29 29  0  0  1  0  0  0  0  0999 V2000
   27.7406  -19.6733  -17.0327 N   0  0  0  0  0  0  0  0  0  0  0  0
   26.8889  -20.8797  -17.2071 C   0  0  1  0  0  0  0  0  0  0  0  0
   27.6855  -21.9502  -17.8820 C   0  0  0  0  0  0  0  0  0  0  0  0
   28.9546  -21.3928  -18.4563 C   0  0  0  0  0  0  0  0  0  0  0  0
   29.3009  -22.1303  -19.7257 C   0  0  0  0  0  0  0  0  0  0  0  0
   28.8082  -21.6978  -20.7826 O   0  0  0  0  0  0  0  0  0  0  0  0
   26.2924  -21.2288  -15.9191 C   0  0  0  0  0  0  0  0  0  0  0  0
   25.5145  -22.2314  -15.8806 O   0  0  0  0  0  0  0  0  0  0  0  0
   30.1290  -23.2343  -19.7010 O   0  0  0  0  0  0  0  0  0  0  0  0
   28.8768  -20.6182  -11.1929 C   0  0  0  0  0  0  0  0  0  0  0  0
   28.0651  -21.2550  -12.3349 C   0  0  0  0  0  0  0  0  0  0  0  0
   26.7156  -20.6035  -12.2981 C   0  0  2  0  0  0  0  0  0  0  0  0
   26.0651  -21.0057  -10.9733 C   0  0  0  0  0  0  0  0  0  0  0  0
   25.8315  -20.9194  -13.4627 C   0  0  2  0  0  0  0  0  0  0  0  0
   26.5056  -20.5555  -14.7137 N   0  0  0  0  0  0  0  0  0  0  0  0
   24.4864  -20.3253  -13.4308 C   0  0  0  0  0  0  0  0  0  0  0  0
   24.3717  -19.0630  -13.3948 O   0  0  0  0  0  0  0  0  0  0  0  0
   23.2823  -21.0576  -13.4433 N   0  0  0  0  0  0  0  0  0  0  0  0
   22.0007  -20.3941  -13.5932 C   0  0  1  0  0  0  0  0  0  0  0  0
   21.9833  -19.7651  -14.9752 C   0  0  0  0  0  0  0  0  0  0  0  0
   20.6960  -19.2063  -15.3712 C   0  0  0  0  0  0  0  0  0  0  0  0
   19.8587  -19.9074  -16.2387 C   0  0  0  0  0  0  0  0  0  0  0  0
   18.6420  -19.3791  -16.6003 C   0  0  0  0  0  0  0  0  0  0  0  0
   18.2222  -18.1602  -16.1228 C   0  0  0  0  0  0  0  0  0  0  0  0
   19.0418  -17.4699  -15.2712 C   0  0  0  0  0  0  0  0  0  0  0  0
   20.2835  -17.9935  -14.8929 C   0  0  0  0  0  0  0  0  0  0  0  0
   20.9254  -21.3729  -13.5031 C   0  0  0  0  0  0  0  0  0  0  0  0
   21.0614  -22.5798  -13.8668 O   0  0  0  0  0  0  0  0  0  0  0  0
   19.6890  -21.0129  -13.0056 O   0  0  0  0  0  0  0  0  0  0  0  0
  2  1  1  1
  2  7  1  0
  2  3  1  0
  4  3  1  0
  4  5  1  0
  5  6  2  0
  7  8  2  0
  9  5  1  0
 10 11  1  0
 11 12  1  0
 12 14  1  0
 12 13  1  1
 14 15  1  6
 15  7  1  0
 16 14  1  0
 17 16  2  0
 18 16  1  0
 19 27  1  0
 19 18  1  0
 19 20  1  6
 21 20  1  0
 22 21  2  0
 23 22  1  0
 24 23  2  0
 24 25  1  0
 25 26  2  0
 26 21  1  0
 27 29  1  0
 28 27  2  0
M  END
$$$$
