EIF.pdb
     RDKit          3D

 29 29  0  0  1  0  0  0  0  0999 V2000
   23.1401  -11.9412  -18.6113 N   0  0  0  0  0  0  0  0  0  0  0  0
   22.1539  -10.8475  -18.8174 C   0  0  1  0  0  0  0  0  0  0  0  0
   20.8551  -11.2309  -18.1833 C   0  0  0  0  0  0  0  0  0  0  0  0
   21.0783  -11.8425  -16.8315 C   0  0  0  0  0  0  0  0  0  0  0  0
   19.7495  -12.1973  -16.2123 C   0  0  0  0  0  0  0  0  0  0  0  0
   19.2178  -11.3394  -15.4857 O   0  0  0  0  0  0  0  0  0  0  0  0
   22.7455   -9.5864  -18.3741 C   0  0  0  0  0  0  0  0  0  0  0  0
   23.7785   -9.6448  -17.6384 O   0  0  0  0  0  0  0  0  0  0  0  0
   19.1613  -13.4231  -16.4499 O   0  0  0  0  0  0  0  0  0  0  0  0
   24.4161   -4.3229  -20.4187 C   0  0  0  0  0  0  0  0  0  0  0  0
   24.0206   -4.9627  -19.0761 C   0  0  0  0  0  0  0  0  0  0  0  0
   23.3728   -6.2713  -19.4150 C   0  0  2  0  0  0  0  0  0  0  0  0
   22.2058   -5.9584  -20.3531 C   0  0  0  0  0  0  0  0  0  0  0  0
   22.9291   -7.0786  -18.2363 C   0  0  2  0  0  0  0  0  0  0  0  0
   22.2756   -8.3100  -18.6928 N   0  0  0  0  0  0  0  0  0  0  0  0
   22.0650   -6.3855  -17.2687 C   0  0  0  0  0  0  0  0  0  0  0  0
   20.8126   -6.3660  -17.4655 O   0  0  0  0  0  0  0  0  0  0  0  0
   22.5210   -5.7292  -16.1079 N   0  0  0  0  0  0  0  0  0  0  0  0
   21.5906   -5.1382  -15.1642 C   0  0  1  0  0  0  0  0  0  0  0  0
   21.8405   -5.7977  -13.8195 C   0  0  0  0  0  0  0  0  0  0  0  0
   21.3341   -7.1606  -13.7087 C   0  0  0  0  0  0  0  0  0  0  0  0
   22.1918   -8.2071  -13.3707 C   0  0  0  0  0  0  0  0  0  0  0  0
   21.7058   -9.4884  -13.2585 C   0  0  0  0  0  0  0  0  0  0  0  0
   20.3775   -9.7699  -13.4738 C   0  0  0  0  0  0  0  0  0  0  0  0
   19.5335   -8.7448  -13.8056 C   0  0  0  0  0  0  0  0  0  0  0  0
   20.0119   -7.4346  -13.9238 C   0  0  0  0  0  0  0  0  0  0  0  0
   21.8479   -3.7090  -15.0476 C   0  0  0  0  0  0  0  0  0  0  0  0
   22.8555   -3.1463  -15.5728 O   0  0  0  0  0  0  0  0  0  0  0  0
   20.9824   -2.8954  -14.3443 O   0  0  0  0  0  0  0  0  0  0  0  0
  2  1  1  1
  2  7  1  0
  2  3  1  0
  4  3  1  0
  4  5  1  0
  5  6  2  0
  7  8  2  0
  9  5  1  0
 10 11  1  0
 11 12  1  0
 12 14  1  0
 12 13  1  6
 14 15  1  6
 15  7  1  0
 16 14  1  0
 17 16  2  0
 18 16  1  0
 19 27  1  0
 19 18  1  0
 19 20  1  1
 21 20  1  0
 22 21  2  0
 23 22  1  0
 24 23  2  0
 24 25  1  0
 25 26  2  0
 26 21  1  0
 27 29  1  0
 28 27  2  0
M  END
$$$$
