EIF.pdb
     RDKit          3D

 29 29  0  0  1  0  0  0  0  0999 V2000
   18.1847  -12.5767  -21.1935 N   0  0  0  0  0  0  0  0  0  0  0  0
   17.6701  -11.7986  -20.0355 C   0  0  1  0  0  0  0  0  0  0  0  0
   17.1915  -12.7449  -18.9813 C   0  0  0  0  0  0  0  0  0  0  0  0
   16.6458  -11.9993  -17.7990 C   0  0  0  0  0  0  0  0  0  0  0  0
   16.2025  -12.9813  -16.7436 C   0  0  0  0  0  0  0  0  0  0  0  0
   16.5367  -12.7389  -15.5704 O   0  0  0  0  0  0  0  0  0  0  0  0
   18.6861  -10.8307  -19.6261 C   0  0  0  0  0  0  0  0  0  0  0  0
   19.8653  -11.2588  -19.4308 O   0  0  0  0  0  0  0  0  0  0  0  0
   15.4595  -14.0952  -17.0786 O   0  0  0  0  0  0  0  0  0  0  0  0
   20.5786   -5.3635  -20.9191 C   0  0  0  0  0  0  0  0  0  0  0  0
   20.6243   -6.3540  -19.7422 C   0  0  0  0  0  0  0  0  0  0  0  0
   19.6641   -7.4523  -20.0868 C   0  0  2  0  0  0  0  0  0  0  0  0
   18.3126   -6.7900  -20.3601 C   0  0  0  0  0  0  0  0  0  0  0  0
   19.5486   -8.5335  -19.0595 C   0  0  2  0  0  0  0  0  0  0  0  0
   18.4768   -9.4631  -19.4322 N   0  0  0  0  0  0  0  0  0  0  0  0
   19.3591   -8.0861  -17.6712 C   0  0  0  0  0  0  0  0  0  0  0  0
   18.2195   -7.6626  -17.3110 O   0  0  0  0  0  0  0  0  0  0  0  0
   20.3603   -8.0935  -16.6793 N   0  0  0  0  0  0  0  0  0  0  0  0
   20.0888   -7.6224  -15.3340 C   0  0  1  0  0  0  0  0  0  0  0  0
   20.3199   -8.7941  -14.3963 C   0  0  0  0  0  0  0  0  0  0  0  0
   21.5039   -9.5893  -14.6994 C   0  0  0  0  0  0  0  0  0  0  0  0
   22.7710   -9.1380  -14.3305 C   0  0  0  0  0  0  0  0  0  0  0  0
   23.8823   -9.8974  -14.6108 C   0  0  0  0  0  0  0  0  0  0  0  0
   23.7767  -11.1076  -15.2545 C   0  0  0  0  0  0  0  0  0  0  0  0
   22.5345  -11.5531  -15.6175 C   0  0  0  0  0  0  0  0  0  0  0  0
   21.3928  -10.7924  -15.3396 C   0  0  0  0  0  0  0  0  0  0  0  0
   21.0134   -6.5500  -14.9913 C   0  0  0  0  0  0  0  0  0  0  0  0
   21.9513   -6.1786  -15.7594 O   0  0  0  0  0  0  0  0  0  0  0  0
   20.8987   -5.8825  -13.7884 O   0  0  0  0  0  0  0  0  0  0  0  0
  2  1  1  6
  2  7  1  0
  2  3  1  0
  4  3  1  0
  4  5  1  0
  5  6  2  0
  7  8  2  0
  9  5  1  0
 10 11  1  0
 11 12  1  0
 12 14  1  0
 12 13  1  1
 14 15  1  6
 15  7  1  0
 16 14  1  0
 17 16  2  0
 18 16  1  0
 19 27  1  0
 19 18  1  0
 19 20  1  1
 21 20  1  0
 22 21  2  0
 23 22  1  0
 24 23  2  0
 24 25  1  0
 25 26  2  0
 26 21  1  0
 27 29  1  0
 28 27  2  0
M  END
$$$$
