EIF.pdb
     RDKit          3D

 29 29  0  0  1  0  0  0  0  0999 V2000
   22.5547  -19.7601  -13.8384 N   0  0  0  0  0  0  0  0  0  0  0  0
   22.3261  -19.7115  -12.3698 C   0  0  1  0  0  0  0  0  0  0  0  0
   20.9451  -20.2009  -12.0710 C   0  0  0  0  0  0  0  0  0  0  0  0
   19.9216  -19.4258  -12.8477 C   0  0  0  0  0  0  0  0  0  0  0  0
   18.5585  -19.6371  -12.2376 C   0  0  0  0  0  0  0  0  0  0  0  0
   18.2101  -18.8443  -11.3449 O   0  0  0  0  0  0  0  0  0  0  0  0
   23.4212  -20.4073  -11.6966 C   0  0  0  0  0  0  0  0  0  0  0  0
   23.1634  -21.5220  -11.1465 O   0  0  0  0  0  0  0  0  0  0  0  0
   17.7444  -20.6682  -12.6607 O   0  0  0  0  0  0  0  0  0  0  0  0
   27.7978  -21.4068  -14.2024 C   0  0  0  0  0  0  0  0  0  0  0  0
   26.5923  -21.5933  -13.2641 C   0  0  0  0  0  0  0  0  0  0  0  0
   26.9454  -20.8876  -11.9896 C   0  0  2  0  0  0  0  0  0  0  0  0
   28.1300  -21.6394  -11.3801 C   0  0  0  0  0  0  0  0  0  0  0  0
   25.8206  -20.7500  -11.0131 C   0  0  2  0  0  0  0  0  0  0  0  0
   24.7399  -19.9549  -11.6060 N   0  0  0  0  0  0  0  0  0  0  0  0
   26.1750  -20.2035   -9.6943 C   0  0  0  0  0  0  0  0  0  0  0  0
   26.1910  -18.9459   -9.5333 O   0  0  0  0  0  0  0  0  0  0  0  0
   26.5011  -20.9781   -8.5630 N   0  0  0  0  0  0  0  0  0  0  0  0
   27.4685  -20.5126   -7.5869 C   0  0  1  0  0  0  0  0  0  0  0  0
   26.7636  -19.4904   -6.7130 C   0  0  0  0  0  0  0  0  0  0  0  0
   27.5381  -19.0380   -5.5634 C   0  0  0  0  0  0  0  0  0  0  0  0
   28.3354  -17.8972   -5.6540 C   0  0  0  0  0  0  0  0  0  0  0  0
   29.0556  -17.4707   -4.5633 C   0  0  0  0  0  0  0  0  0  0  0  0
   29.0104  -18.1483   -3.3680 C   0  0  0  0  0  0  0  0  0  0  0  0
   28.2288  -19.2681   -3.2762 C   0  0  0  0  0  0  0  0  0  0  0  0
   27.4891  -19.7159   -4.3769 C   0  0  0  0  0  0  0  0  0  0  0  0
   27.9060  -21.6268   -6.7564 C   0  0  0  0  0  0  0  0  0  0  0  0
   28.9207  -21.5632   -5.9988 O   0  0  0  0  0  0  0  0  0  0  0  0
   27.2141  -22.8213   -6.7640 O   0  0  0  0  0  0  0  0  0  0  0  0
  2  1  1  6
  2  7  1  0
  2  3  1  0
  4  3  1  0
  4  5  1  0
  5  6  2  0
  7  8  2  0
  9  5  1  0
 10 11  1  0
 11 12  1  0
 12 14  1  0
 12 13  1  1
 14 15  1  6
 15  7  1  0
 16 14  1  0
 17 16  2  0
 18 16  1  0
 19 27  1  0
 19 18  1  0
 19 20  1  1
 21 20  1  0
 22 21  2  0
 23 22  1  0
 24 23  2  0
 24 25  1  0
 25 26  2  0
 26 21  1  0
 27 29  1  0
 28 27  2  0
M  END
$$$$
