EIF.pdb
     RDKit          3D

 29 29  0  0  1  0  0  0  0  0999 V2000
   18.5463  -14.7786  -18.5516 N   0  0  0  0  0  0  0  0  0  0  0  0
   17.6724  -14.0111  -17.6251 C   0  0  1  0  0  0  0  0  0  0  0  0
   17.8889  -14.4987  -16.2282 C   0  0  0  0  0  0  0  0  0  0  0  0
   17.3731  -15.8979  -16.0626 C   0  0  0  0  0  0  0  0  0  0  0  0
   15.9599  -15.8561  -15.5371 C   0  0  0  0  0  0  0  0  0  0  0  0
   15.4960  -14.7379  -15.2522 O   0  0  0  0  0  0  0  0  0  0  0  0
   17.8793  -12.5822  -17.8534 C   0  0  0  0  0  0  0  0  0  0  0  0
   19.0459  -12.1981  -18.1750 O   0  0  0  0  0  0  0  0  0  0  0  0
   15.2256  -17.0148  -15.3843 O   0  0  0  0  0  0  0  0  0  0  0  0
   14.1061  -10.1851  -19.9496 C   0  0  0  0  0  0  0  0  0  0  0  0
   15.6266   -9.9474  -19.9490 C   0  0  0  0  0  0  0  0  0  0  0  0
   15.9761   -9.4998  -18.5618 C   0  0  2  0  0  0  0  0  0  0  0  0
   16.1468   -7.9806  -18.6160 C   0  0  0  0  0  0  0  0  0  0  0  0
   17.1762  -10.1668  -17.9681 C   0  0  2  0  0  0  0  0  0  0  0  0
   16.8997  -11.5912  -17.7530 N   0  0  0  0  0  0  0  0  0  0  0  0
   17.6998   -9.5688  -16.7304 C   0  0  0  0  0  0  0  0  0  0  0  0
   17.0994   -9.7932  -15.6364 O   0  0  0  0  0  0  0  0  0  0  0  0
   18.8452   -8.7512  -16.6533 N   0  0  0  0  0  0  0  0  0  0  0  0
   19.2873   -8.1945  -15.3883 C   0  0  1  0  0  0  0  0  0  0  0  0
   20.7940   -8.3717  -15.3256 C   0  0  0  0  0  0  0  0  0  0  0  0
   21.4387   -7.6923  -14.2080 C   0  0  0  0  0  0  0  0  0  0  0  0
   21.9324   -6.3967  -14.3592 C   0  0  0  0  0  0  0  0  0  0  0  0
   22.5306   -5.7584  -13.2985 C   0  0  0  0  0  0  0  0  0  0  0  0
   22.6570   -6.3718  -12.0748 C   0  0  0  0  0  0  0  0  0  0  0  0
   22.1733   -7.6432  -11.9234 C   0  0  0  0  0  0  0  0  0  0  0  0
   21.5615   -8.3073  -12.9930 C   0  0  0  0  0  0  0  0  0  0  0  0
   18.9736   -6.7727  -15.3390 C   0  0  0  0  0  0  0  0  0  0  0  0
   18.9593   -6.0352  -16.3703 O   0  0  0  0  0  0  0  0  0  0  0  0
   18.6726   -6.1619  -14.1382 O   0  0  0  0  0  0  0  0  0  0  0  0
  2  1  1  6
  2  7  1  0
  2  3  1  0
  4  3  1  0
  4  5  1  0
  5  6  2  0
  7  8  2  0
  9  5  1  0
 10 11  1  0
 11 12  1  0
 12 14  1  0
 12 13  1  6
 14 15  1  1
 15  7  1  0
 16 14  1  0
 17 16  2  0
 18 16  1  0
 19 27  1  0
 19 18  1  0
 19 20  1  6
 21 20  1  0
 22 21  2  0
 23 22  1  0
 24 23  2  0
 24 25  1  0
 25 26  2  0
 26 21  1  0
 27 29  1  0
 28 27  2  0
M  END
$$$$
