EIF.pdb
     RDKit          3D

 29 29  0  0  1  0  0  0  0  0999 V2000
   28.6696  -21.0876  -14.8729 N   0  0  0  0  0  0  0  0  0  0  0  0
   28.0708  -20.1382  -13.8976 C   0  0  1  0  0  0  0  0  0  0  0  0
   27.4990  -18.9705  -14.6361 C   0  0  0  0  0  0  0  0  0  0  0  0
   28.5757  -18.2096  -15.3524 C   0  0  0  0  0  0  0  0  0  0  0  0
   28.5786  -18.5918  -16.8115 C   0  0  0  0  0  0  0  0  0  0  0  0
   27.5382  -18.3699  -17.4557 O   0  0  0  0  0  0  0  0  0  0  0  0
   27.1514  -20.8696  -13.0278 C   0  0  0  0  0  0  0  0  0  0  0  0
   26.5789  -21.8976  -13.5046 O   0  0  0  0  0  0  0  0  0  0  0  0
   29.6932  -19.1616  -17.3930 O   0  0  0  0  0  0  0  0  0  0  0  0
   27.0324  -20.4034   -7.5329 C   0  0  0  0  0  0  0  0  0  0  0  0
   26.9789  -21.1549   -8.8748 C   0  0  0  0  0  0  0  0  0  0  0  0
   25.7272  -20.6941   -9.5588 C   0  0  2  0  0  0  0  0  0  0  0  0
   24.5522  -21.2887   -8.7804 C   0  0  0  0  0  0  0  0  0  0  0  0
   25.6461  -21.0264  -11.0151 C   0  0  2  0  0  0  0  0  0  0  0  0
   26.8456  -20.5398  -11.7052 N   0  0  0  0  0  0  0  0  0  0  0  0
   24.4423  -20.5563  -11.7175 C   0  0  0  0  0  0  0  0  0  0  0  0
   24.2989  -19.3145  -11.9295 O   0  0  0  0  0  0  0  0  0  0  0  0
   23.4104  -21.3902  -12.1929 N   0  0  0  0  0  0  0  0  0  0  0  0
   22.2634  -20.8421  -12.8925 C   0  0  1  0  0  0  0  0  0  0  0  0
   22.4825  -21.0940  -14.3738 C   0  0  0  0  0  0  0  0  0  0  0  0
   21.3494  -20.7451  -15.2226 C   0  0  0  0  0  0  0  0  0  0  0  0
   20.4957  -21.7375  -15.7038 C   0  0  0  0  0  0  0  0  0  0  0  0
   19.4235  -21.4006  -16.4957 C   0  0  0  0  0  0  0  0  0  0  0  0
   19.1663  -20.0924  -16.8310 C   0  0  0  0  0  0  0  0  0  0  0  0
   20.0023  -19.1164  -16.3601 C   0  0  0  0  0  0  0  0  0  0  0  0
   21.0983  -19.4422  -15.5527 C   0  0  0  0  0  0  0  0  0  0  0  0
   21.0518  -21.5304  -12.4676 C   0  0  0  0  0  0  0  0  0  0  0  0
   21.0465  -22.7372  -12.0788 O   0  0  0  0  0  0  0  0  0  0  0  0
   19.8356  -20.8773  -12.4724 O   0  0  0  0  0  0  0  0  0  0  0  0
  2  1  1  6
  2  7  1  0
  2  3  1  0
  4  3  1  0
  4  5  1  0
  5  6  2  0
  7  8  2  0
  9  5  1  0
 10 11  1  0
 11 12  1  0
 12 14  1  0
 12 13  1  1
 14 15  1  6
 15  7  1  0
 16 14  1  0
 17 16  2  0
 18 16  1  0
 19 27  1  0
 19 18  1  0
 19 20  1  6
 21 20  1  0
 22 21  2  0
 23 22  1  0
 24 23  2  0
 24 25  1  0
 25 26  2  0
 26 21  1  0
 27 29  1  0
 28 27  2  0
M  END
$$$$
