EIF.pdb
     RDKit          3D

 29 29  0  0  1  0  0  0  0  0999 V2000
   23.7915  -17.8327  -15.9377 N   0  0  0  0  0  0  0  0  0  0  0  0
   24.8457  -17.6517  -14.9047 C   0  0  1  0  0  0  0  0  0  0  0  0
   24.8991  -16.2120  -14.5041 C   0  0  0  0  0  0  0  0  0  0  0  0
   26.0878  -15.5294  -15.1144 C   0  0  0  0  0  0  0  0  0  0  0  0
   25.8343  -15.2901  -16.5818 C   0  0  0  0  0  0  0  0  0  0  0  0
   26.6055  -15.8431  -17.3858 O   0  0  0  0  0  0  0  0  0  0  0  0
   24.6258  -18.6170  -13.8292 C   0  0  0  0  0  0  0  0  0  0  0  0
   23.4635  -18.6824  -13.3226 O   0  0  0  0  0  0  0  0  0  0  0  0
   24.7895  -14.4909  -16.9999 O   0  0  0  0  0  0  0  0  0  0  0  0
   24.7475  -23.5579  -14.4096 C   0  0  0  0  0  0  0  0  0  0  0  0
   24.3491  -22.1855  -13.8384 C   0  0  0  0  0  0  0  0  0  0  0  0
   25.3827  -21.8501  -12.8058 C   0  0  2  0  0  0  0  0  0  0  0  0
   25.2661  -22.9040  -11.7032 C   0  0  0  0  0  0  0  0  0  0  0  0
   25.2931  -20.4633  -12.2521 C   0  0  2  0  0  0  0  0  0  0  0  0
   25.5864  -19.4858  -13.3057 N   0  0  0  0  0  0  0  0  0  0  0  0
   26.1240  -20.1861  -11.0704 C   0  0  0  0  0  0  0  0  0  0  0  0
   27.3586  -19.9447  -11.2290 O   0  0  0  0  0  0  0  0  0  0  0  0
   25.6519  -20.1591   -9.7428 N   0  0  0  0  0  0  0  0  0  0  0  0
   26.5586  -20.3078   -8.6197 C   0  0  1  0  0  0  0  0  0  0  0  0
   26.5621  -18.9864   -7.8717 C   0  0  0  0  0  0  0  0  0  0  0  0
   27.3739  -18.9772   -6.6604 C   0  0  0  0  0  0  0  0  0  0  0  0
   28.6141  -18.3394   -6.6464 C   0  0  0  0  0  0  0  0  0  0  0  0
   29.3701  -18.3262   -5.4981 C   0  0  0  0  0  0  0  0  0  0  0  0
   28.9298  -18.9337   -4.3461 C   0  0  0  0  0  0  0  0  0  0  0  0
   27.7130  -19.5602   -4.3568 C   0  0  0  0  0  0  0  0  0  0  0  0
   26.9308  -19.5829   -5.5174 C   0  0  0  0  0  0  0  0  0  0  0  0
   26.0745  -21.3556   -7.7307 C   0  0  0  0  0  0  0  0  0  0  0  0
   24.8462  -21.6496   -7.6187 O   0  0  0  0  0  0  0  0  0  0  0  0
   26.9574  -22.0847   -6.9596 O   0  0  0  0  0  0  0  0  0  0  0  0
  2  1  1  6
  2  7  1  0
  2  3  1  0
  4  3  1  0
  4  5  1  0
  5  6  2  0
  7  8  2  0
  9  5  1  0
 10 11  1  0
 11 12  1  0
 12 14  1  0
 12 13  1  1
 14 15  1  6
 15  7  1  0
 16 14  1  0
 17 16  2  0
 18 16  1  0
 19 27  1  0
 19 18  1  0
 19 20  1  1
 21 20  1  0
 22 21  2  0
 23 22  1  0
 24 23  2  0
 24 25  1  0
 25 26  2  0
 26 21  1  0
 27 29  1  0
 28 27  2  0
M  END
$$$$
