EIF.pdb
     RDKit          3D

 29 29  0  0  1  0  0  0  0  0999 V2000
   25.5443  -17.9815  -16.2062 N   0  0  0  0  0  0  0  0  0  0  0  0
   26.5642  -18.1002  -15.1306 C   0  0  1  0  0  0  0  0  0  0  0  0
   27.1232  -16.7458  -14.8318 C   0  0  0  0  0  0  0  0  0  0  0  0
   26.9672  -15.8295  -16.0097 C   0  0  0  0  0  0  0  0  0  0  0  0
   26.5859  -14.4512  -15.5302 C   0  0  0  0  0  0  0  0  0  0  0  0
   25.5705  -13.9389  -16.0334 O   0  0  0  0  0  0  0  0  0  0  0  0
   25.9815  -18.8252  -14.0030 C   0  0  0  0  0  0  0  0  0  0  0  0
   24.8420  -18.4518  -13.5860 O   0  0  0  0  0  0  0  0  0  0  0  0
   27.3392  -13.7992  -14.5750 O   0  0  0  0  0  0  0  0  0  0  0  0
   24.5356  -23.6153  -14.2611 C   0  0  0  0  0  0  0  0  0  0  0  0
   24.6762  -22.1189  -13.9306 C   0  0  0  0  0  0  0  0  0  0  0  0
   25.5856  -22.0404  -12.7415 C   0  0  2  0  0  0  0  0  0  0  0  0
   24.9418  -22.8777  -11.6350 C   0  0  0  0  0  0  0  0  0  0  0  0
   25.8918  -20.6531  -12.2731 C   0  0  2  0  0  0  0  0  0  0  0  0
   26.5680  -19.9049  -13.3384 N   0  0  0  0  0  0  0  0  0  0  0  0
   26.6634  -20.5496  -11.0251 C   0  0  0  0  0  0  0  0  0  0  0  0
   27.8542  -20.9844  -10.9998 O   0  0  0  0  0  0  0  0  0  0  0  0
   26.1820  -19.9885   -9.8253 N   0  0  0  0  0  0  0  0  0  0  0  0
   26.7464  -20.3616   -8.5416 C   0  0  1  0  0  0  0  0  0  0  0  0
   27.3609  -19.1085   -7.9436 C   0  0  0  0  0  0  0  0  0  0  0  0
   27.9004  -19.2793   -6.5997 C   0  0  0  0  0  0  0  0  0  0  0  0
   27.3454  -18.5881   -5.5230 C   0  0  0  0  0  0  0  0  0  0  0  0
   27.8527  -18.7612   -4.2569 C   0  0  0  0  0  0  0  0  0  0  0  0
   28.9080  -19.6099   -4.0202 C   0  0  0  0  0  0  0  0  0  0  0  0
   29.4546  -20.2896   -5.0749 C   0  0  0  0  0  0  0  0  0  0  0  0
   28.9501  -20.1250   -6.3702 C   0  0  0  0  0  0  0  0  0  0  0  0
   25.6906  -20.8406   -7.6594 C   0  0  0  0  0  0  0  0  0  0  0  0
   24.4589  -20.6583   -7.8985 O   0  0  0  0  0  0  0  0  0  0  0  0
   26.0006  -21.5278   -6.5030 O   0  0  0  0  0  0  0  0  0  0  0  0
  2  1  1  6
  2  7  1  0
  2  3  1  0
  4  3  1  0
  4  5  1  0
  5  6  2  0
  7  8  2  0
  9  5  1  0
 10 11  1  0
 11 12  1  0
 12 14  1  0
 12 13  1  1
 14 15  1  6
 15  7  1  0
 16 14  1  0
 17 16  2  0
 18 16  1  0
 19 27  1  0
 19 18  1  0
 19 20  1  1
 21 20  1  0
 22 21  2  0
 23 22  1  0
 24 23  2  0
 24 25  1  0
 25 26  2  0
 26 21  1  0
 27 29  1  0
 28 27  2  0
M  END
$$$$
