EIF.pdb
     RDKit          3D

 29 29  0  0  1  0  0  0  0  0999 V2000
   26.9770  -10.7184  -22.2194 N   0  0  0  0  0  0  0  0  0  0  0  0
   27.1512  -11.0513  -20.7806 C   0  0  1  0  0  0  0  0  0  0  0  0
   26.0711  -10.3869  -19.9882 C   0  0  0  0  0  0  0  0  0  0  0  0
   24.7190  -10.8982  -20.3904 C   0  0  0  0  0  0  0  0  0  0  0  0
   23.6680  -10.3196  -19.4764 C   0  0  0  0  0  0  0  0  0  0  0  0
   23.3132   -9.1476  -19.6942 O   0  0  0  0  0  0  0  0  0  0  0  0
   27.2607  -12.5022  -20.6400 C   0  0  0  0  0  0  0  0  0  0  0  0
   26.6079  -13.2255  -21.4539 O   0  0  0  0  0  0  0  0  0  0  0  0
   23.1324  -11.0684  -18.4481 O   0  0  0  0  0  0  0  0  0  0  0  0
   31.6732  -15.2707  -18.5527 C   0  0  0  0  0  0  0  0  0  0  0  0
   30.5653  -14.7629  -19.4923 C   0  0  0  0  0  0  0  0  0  0  0  0
   29.2679  -15.0615  -18.8034 C   0  0  2  0  0  0  0  0  0  0  0  0
   29.2536  -16.5641  -18.5170 C   0  0  0  0  0  0  0  0  0  0  0  0
   28.0447  -14.6327  -19.5502 C   0  0  2  0  0  0  0  0  0  0  0  0
   28.0290  -13.1721  -19.6848 N   0  0  0  0  0  0  0  0  0  0  0  0
   26.7602  -15.0963  -19.0037 C   0  0  0  0  0  0  0  0  0  0  0  0
   26.2718  -14.5053  -17.9938 O   0  0  0  0  0  0  0  0  0  0  0  0
   26.0029  -16.1651  -19.5236 N   0  0  0  0  0  0  0  0  0  0  0  0
   24.7430  -16.5570  -18.9198 C   0  0  1  0  0  0  0  0  0  0  0  0
   23.6761  -15.6285  -19.4723 C   0  0  0  0  0  0  0  0  0  0  0  0
   22.3116  -15.9822  -19.0991 C   0  0  0  0  0  0  0  0  0  0  0  0
   21.5621  -16.8451  -19.8985 C   0  0  0  0  0  0  0  0  0  0  0  0
   20.2796  -17.1821  -19.5356 C   0  0  0  0  0  0  0  0  0  0  0  0
   19.7074  -16.6841  -18.3891 C   0  0  0  0  0  0  0  0  0  0  0  0
   20.4406  -15.8372  -17.6026 C   0  0  0  0  0  0  0  0  0  0  0  0
   21.7478  -15.4840  -17.9574 C   0  0  0  0  0  0  0  0  0  0  0  0
   24.4214  -17.9273  -19.2958 C   0  0  0  0  0  0  0  0  0  0  0  0
   23.5535  -18.6222  -18.6863 O   0  0  0  0  0  0  0  0  0  0  0  0
   25.0653  -18.5335  -20.3558 O   0  0  0  0  0  0  0  0  0  0  0  0
  2  1  1  6
  2  7  1  0
  2  3  1  0
  4  3  1  0
  4  5  1  0
  5  6  2  0
  7  8  2  0
  9  5  1  0
 10 11  1  0
 11 12  1  0
 12 14  1  0
 12 13  1  6
 14 15  1  1
 15  7  1  0
 16 14  1  0
 17 16  2  0
 18 16  1  0
 19 27  1  0
 19 18  1  0
 19 20  1  6
 21 20  1  0
 22 21  2  0
 23 22  1  0
 24 23  2  0
 24 25  1  0
 25 26  2  0
 26 21  1  0
 27 29  1  0
 28 27  2  0
M  END
$$$$
