EIF.pdb
     RDKit          3D

 29 29  0  0  1  0  0  0  0  0999 V2000
   27.8656  -18.4755  -17.0754 N   0  0  0  0  0  0  0  0  0  0  0  0
   27.4962  -19.5750  -16.1448 C   0  0  1  0  0  0  0  0  0  0  0  0
   28.7118  -20.0087  -15.3896 C   0  0  0  0  0  0  0  0  0  0  0  0
   29.6630  -20.7484  -16.2836 C   0  0  0  0  0  0  0  0  0  0  0  0
   29.1557  -22.1506  -16.5107 C   0  0  0  0  0  0  0  0  0  0  0  0
   28.2589  -22.5568  -15.7507 O   0  0  0  0  0  0  0  0  0  0  0  0
   26.3501  -19.1516  -15.3423 C   0  0  0  0  0  0  0  0  0  0  0  0
   26.1981  -17.9075  -15.1398 O   0  0  0  0  0  0  0  0  0  0  0  0
   29.6724  -22.9368  -17.5206 O   0  0  0  0  0  0  0  0  0  0  0  0
   20.8657  -18.4380  -15.4841 C   0  0  0  0  0  0  0  0  0  0  0  0
   21.8430  -18.7397  -14.3342 C   0  0  0  0  0  0  0  0  0  0  0  0
   23.1034  -19.2318  -14.9793 C   0  0  2  0  0  0  0  0  0  0  0  0
   22.7308  -20.4751  -15.7889 C   0  0  0  0  0  0  0  0  0  0  0  0
   24.2287  -19.5089  -14.0334 C   0  0  2  0  0  0  0  0  0  0  0  0
   25.3950  -19.9991  -14.7758 N   0  0  0  0  0  0  0  0  0  0  0  0
   23.9260  -20.4231  -12.9215 C   0  0  0  0  0  0  0  0  0  0  0  0
   23.6778  -21.6403  -13.1756 O   0  0  0  0  0  0  0  0  0  0  0  0
   23.8931  -20.0537  -11.5619 N   0  0  0  0  0  0  0  0  0  0  0  0
   23.5445  -21.0133  -10.5308 C   0  0  1  0  0  0  0  0  0  0  0  0
   24.2418  -20.5713   -9.2564 C   0  0  0  0  0  0  0  0  0  0  0  0
   25.6981  -20.5719   -9.3302 C   0  0  0  0  0  0  0  0  0  0  0  0
   26.4355  -19.5464   -8.7388 C   0  0  0  0  0  0  0  0  0  0  0  0
   27.8088  -19.5582   -8.8038 C   0  0  0  0  0  0  0  0  0  0  0  0
   28.4848  -20.5687   -9.4457 C   0  0  0  0  0  0  0  0  0  0  0  0
   27.7638  -21.5764  -10.0269 C   0  0  0  0  0  0  0  0  0  0  0  0
   26.3652  -21.5797   -9.9698 C   0  0  0  0  0  0  0  0  0  0  0  0
   22.1041  -21.0012  -10.3128 C   0  0  0  0  0  0  0  0  0  0  0  0
   21.3672  -20.0222  -10.6387 O   0  0  0  0  0  0  0  0  0  0  0  0
   21.4737  -22.0821   -9.7299 O   0  0  0  0  0  0  0  0  0  0  0  0
  2  1  1  6
  2  7  1  0
  2  3  1  0
  4  3  1  0
  4  5  1  0
  5  6  2  0
  7  8  2  0
  9  5  1  0
 10 11  1  0
 11 12  1  0
 12 14  1  0
 12 13  1  1
 14 15  1  6
 15  7  1  0
 16 14  1  0
 17 16  2  0
 18 16  1  0
 19 27  1  0
 19 18  1  0
 19 20  1  1
 21 20  1  0
 22 21  2  0
 23 22  1  0
 24 23  2  0
 24 25  1  0
 25 26  2  0
 26 21  1  0
 27 29  1  0
 28 27  2  0
M  END
$$$$
