EIF.pdb
     RDKit          3D

 29 29  0  0  1  0  0  0  0  0999 V2000
   19.5705  -13.2717  -19.6224 N   0  0  0  0  0  0  0  0  0  0  0  0
   18.3712  -12.6758  -18.9759 C   0  0  1  0  0  0  0  0  0  0  0  0
   18.0533  -13.4401  -17.7307 C   0  0  0  0  0  0  0  0  0  0  0  0
   17.7055  -14.8645  -18.0498 C   0  0  0  0  0  0  0  0  0  0  0  0
   17.3292  -15.5886  -16.7813 C   0  0  0  0  0  0  0  0  0  0  0  0
   17.2382  -14.9050  -15.7463 O   0  0  0  0  0  0  0  0  0  0  0  0
   18.5829  -11.2380  -18.8189 C   0  0  0  0  0  0  0  0  0  0  0  0
   19.7456  -10.7834  -19.0501 O   0  0  0  0  0  0  0  0  0  0  0  0
   17.0991  -16.9495  -16.7833 O   0  0  0  0  0  0  0  0  0  0  0  0
   15.0761   -7.5772  -20.4541 C   0  0  0  0  0  0  0  0  0  0  0  0
   16.4795   -8.1670  -20.2283 C   0  0  0  0  0  0  0  0  0  0  0  0
   16.7388   -8.0685  -18.7551 C   0  0  2  0  0  0  0  0  0  0  0  0
   16.9178   -6.5835  -18.4349 C   0  0  0  0  0  0  0  0  0  0  0  0
   17.8952   -8.8800  -18.2633 C   0  0  2  0  0  0  0  0  0  0  0  0
   17.6119  -10.3087  -18.4379 N   0  0  0  0  0  0  0  0  0  0  0  0
   18.3213   -8.6224  -16.8793 C   0  0  0  0  0  0  0  0  0  0  0  0
   17.5925   -9.0296  -15.9250 O   0  0  0  0  0  0  0  0  0  0  0  0
   19.5042   -7.9495  -16.5132 N   0  0  0  0  0  0  0  0  0  0  0  0
   19.8396   -7.7232  -15.1198 C   0  0  1  0  0  0  0  0  0  0  0  0
   21.3435   -7.8884  -14.9907 C   0  0  0  0  0  0  0  0  0  0  0  0
   21.8711   -7.6204  -13.6580 C   0  0  0  0  0  0  0  0  0  0  0  0
   22.0020   -8.6529  -12.7296 C   0  0  0  0  0  0  0  0  0  0  0  0
   22.5092   -8.3950  -11.4781 C   0  0  0  0  0  0  0  0  0  0  0  0
   22.8966   -7.1279  -11.1116 C   0  0  0  0  0  0  0  0  0  0  0  0
   22.7694   -6.1126  -12.0206 C   0  0  0  0  0  0  0  0  0  0  0  0
   22.2550   -6.3581  -13.2991 C   0  0  0  0  0  0  0  0  0  0  0  0
   19.4765   -6.3645  -14.7397 C   0  0  0  0  0  0  0  0  0  0  0  0
   19.5037   -5.3921  -15.5529 O   0  0  0  0  0  0  0  0  0  0  0  0
   19.0794   -6.0796  -13.4487 O   0  0  0  0  0  0  0  0  0  0  0  0
  2  1  1  1
  2  7  1  0
  2  3  1  0
  4  3  1  0
  4  5  1  0
  5  6  2  0
  7  8  2  0
  9  5  1  0
 10 11  1  0
 11 12  1  0
 12 14  1  0
 12 13  1  6
 14 15  1  1
 15  7  1  0
 16 14  1  0
 17 16  2  0
 18 16  1  0
 19 27  1  0
 19 18  1  0
 19 20  1  6
 21 20  1  0
 22 21  2  0
 23 22  1  0
 24 23  2  0
 24 25  1  0
 25 26  2  0
 26 21  1  0
 27 29  1  0
 28 27  2  0
M  END
$$$$
