EIF.pdb
     RDKit          3D

 29 29  0  0  1  0  0  0  0  0999 V2000
   23.5182   -9.7337  -21.6087 N   0  0  0  0  0  0  0  0  0  0  0  0
   22.7488   -8.4672  -21.4844 C   0  0  1  0  0  0  0  0  0  0  0  0
   21.2868   -8.7704  -21.5647 C   0  0  0  0  0  0  0  0  0  0  0  0
   20.9103   -9.2351  -22.9408 C   0  0  0  0  0  0  0  0  0  0  0  0
   19.4108   -9.3669  -23.0365 C   0  0  0  0  0  0  0  0  0  0  0  0
   18.7415   -8.8970  -22.0995 O   0  0  0  0  0  0  0  0  0  0  0  0
   23.1994   -7.7545  -20.2903 C   0  0  0  0  0  0  0  0  0  0  0  0
   23.8495   -8.4117  -19.4201 O   0  0  0  0  0  0  0  0  0  0  0  0
   18.8210   -9.9839  -24.1213 O   0  0  0  0  0  0  0  0  0  0  0  0
   25.1959   -2.6920  -20.2557 C   0  0  0  0  0  0  0  0  0  0  0  0
   25.0318   -4.2000  -19.9962 C   0  0  0  0  0  0  0  0  0  0  0  0
   23.8489   -4.3379  -19.0858 C   0  0  2  0  0  0  0  0  0  0  0  0
   24.1820   -3.5684  -17.8064 C   0  0  0  0  0  0  0  0  0  0  0  0
   23.4427   -5.7469  -18.7897 C   0  0  2  0  0  0  0  0  0  0  0  0
   22.9813   -6.4017  -20.0186 N   0  0  0  0  0  0  0  0  0  0  0  0
   22.4401   -5.9190  -17.7273 C   0  0  0  0  0  0  0  0  0  0  0  0
   21.2445   -5.5571  -17.9447 O   0  0  0  0  0  0  0  0  0  0  0  0
   22.6999   -6.4716  -16.4571 N   0  0  0  0  0  0  0  0  0  0  0  0
   21.6429   -6.6288  -15.4755 C   0  0  1  0  0  0  0  0  0  0  0  0
   21.8600   -7.9701  -14.7976 C   0  0  0  0  0  0  0  0  0  0  0  0
   20.8905   -8.2872  -13.7556 C   0  0  0  0  0  0  0  0  0  0  0  0
   21.1476   -7.9520  -12.4264 C   0  0  0  0  0  0  0  0  0  0  0  0
   20.2248   -8.2452  -11.4503 C   0  0  0  0  0  0  0  0  0  0  0  0
   19.0379   -8.8691  -11.7536 C   0  0  0  0  0  0  0  0  0  0  0  0
   18.7829   -9.1990  -13.0573 C   0  0  0  0  0  0  0  0  0  0  0  0
   19.7115   -8.9076  -14.0633 C   0  0  0  0  0  0  0  0  0  0  0  0
   21.7358   -5.5715  -14.4775 C   0  0  0  0  0  0  0  0  0  0  0  0
   22.8424   -5.1304  -14.0436 O   0  0  0  0  0  0  0  0  0  0  0  0
   20.5941   -4.9972  -13.9557 O   0  0  0  0  0  0  0  0  0  0  0  0
  2  1  1  1
  2  7  1  0
  2  3  1  0
  4  3  1  0
  4  5  1  0
  5  6  2  0
  7  8  2  0
  9  5  1  0
 10 11  1  0
 11 12  1  0
 12 14  1  0
 12 13  1  1
 14 15  1  6
 15  7  1  0
 16 14  1  0
 17 16  2  0
 18 16  1  0
 19 27  1  0
 19 18  1  0
 19 20  1  1
 21 20  1  0
 22 21  2  0
 23 22  1  0
 24 23  2  0
 24 25  1  0
 25 26  2  0
 26 21  1  0
 27 29  1  0
 28 27  2  0
M  END
$$$$
