EIF.pdb
     RDKit          3D

 29 29  0  0  1  0  0  0  0  0999 V2000
   26.5422  -22.9744  -16.2800 N   0  0  0  0  0  0  0  0  0  0  0  0
   26.1181  -21.6264  -15.8169 C   0  0  1  0  0  0  0  0  0  0  0  0
   25.4117  -20.9235  -16.9317 C   0  0  0  0  0  0  0  0  0  0  0  0
   26.3610  -20.5972  -18.0469 C   0  0  0  0  0  0  0  0  0  0  0  0
   27.2634  -19.4641  -17.6264 C   0  0  0  0  0  0  0  0  0  0  0  0
   26.7427  -18.3407  -17.5099 O   0  0  0  0  0  0  0  0  0  0  0  0
   25.3766  -21.7671  -14.5650 C   0  0  0  0  0  0  0  0  0  0  0  0
   24.6533  -22.8004  -14.4198 O   0  0  0  0  0  0  0  0  0  0  0  0
   28.6053  -19.6785  -17.3850 O   0  0  0  0  0  0  0  0  0  0  0  0
   27.3285  -20.8582   -9.6792 C   0  0  0  0  0  0  0  0  0  0  0  0
   26.5785  -21.5038  -10.8578 C   0  0  0  0  0  0  0  0  0  0  0  0
   25.3592  -20.6619  -11.0849 C   0  0  2  0  0  0  0  0  0  0  0  0
   24.5126  -20.7560   -9.8143 C   0  0  0  0  0  0  0  0  0  0  0  0
   24.5655  -21.0179  -12.3018 C   0  0  2  0  0  0  0  0  0  0  0  0
   25.3948  -20.8615  -13.5016 N   0  0  0  0  0  0  0  0  0  0  0  0
   23.2955  -20.2968  -12.4769 C   0  0  0  0  0  0  0  0  0  0  0  0
   23.3002  -19.0290  -12.4606 O   0  0  0  0  0  0  0  0  0  0  0  0
   22.0418  -20.9102  -12.6722 N   0  0  0  0  0  0  0  0  0  0  0  0
   20.8336  -20.1203  -12.8201 C   0  0  1  0  0  0  0  0  0  0  0  0
   20.9103  -19.4376  -14.1743 C   0  0  0  0  0  0  0  0  0  0  0  0
   20.8983  -20.3474  -15.3138 C   0  0  0  0  0  0  0  0  0  0  0  0
   19.6930  -20.7127  -15.9129 C   0  0  0  0  0  0  0  0  0  0  0  0
   19.6896  -21.5632  -16.9931 C   0  0  0  0  0  0  0  0  0  0  0  0
   20.8596  -22.0709  -17.5062 C   0  0  0  0  0  0  0  0  0  0  0  0
   22.0440  -21.7140  -16.9204 C   0  0  0  0  0  0  0  0  0  0  0  0
   22.0652  -20.8490  -15.8201 C   0  0  0  0  0  0  0  0  0  0  0  0
   19.6676  -20.9933  -12.7935 C   0  0  0  0  0  0  0  0  0  0  0  0
   19.7551  -22.2582  -12.7929 O   0  0  0  0  0  0  0  0  0  0  0  0
   18.3938  -20.4618  -12.7668 O   0  0  0  0  0  0  0  0  0  0  0  0
  2  1  1  6
  2  7  1  0
  2  3  1  0
  4  3  1  0
  4  5  1  0
  5  6  2  0
  7  8  2  0
  9  5  1  0
 10 11  1  0
 11 12  1  0
 12 14  1  0
 12 13  1  1
 14 15  1  6
 15  7  1  0
 16 14  1  0
 17 16  2  0
 18 16  1  0
 19 27  1  0
 19 18  1  0
 19 20  1  6
 21 20  1  0
 22 21  2  0
 23 22  1  0
 24 23  2  0
 24 25  1  0
 25 26  2  0
 26 21  1  0
 27 29  1  0
 28 27  2  0
M  END
$$$$
