EIF.pdb
     RDKit          3D

 29 29  0  0  1  0  0  0  0  0999 V2000
   21.8894  -19.5847  -18.3269 N   0  0  0  0  0  0  0  0  0  0  0  0
   22.1693  -19.7564  -16.8766 C   0  0  1  0  0  0  0  0  0  0  0  0
   21.3891  -18.7427  -16.1022 C   0  0  0  0  0  0  0  0  0  0  0  0
   21.9203  -17.3600  -16.3413 C   0  0  0  0  0  0  0  0  0  0  0  0
   21.2400  -16.3894  -15.4085 C   0  0  0  0  0  0  0  0  0  0  0  0
   20.5942  -15.4632  -15.9299 O   0  0  0  0  0  0  0  0  0  0  0  0
   21.9538  -21.1562  -16.5149 C   0  0  0  0  0  0  0  0  0  0  0  0
   21.0903  -21.8110  -17.1763 O   0  0  0  0  0  0  0  0  0  0  0  0
   21.3381  -16.5346  -14.0395 O   0  0  0  0  0  0  0  0  0  0  0  0
   24.7854  -26.1775  -15.4809 C   0  0  0  0  0  0  0  0  0  0  0  0
   23.4288  -25.5365  -15.1387 C   0  0  0  0  0  0  0  0  0  0  0  0
   23.5930  -24.0657  -15.3765 C   0  0  2  0  0  0  0  0  0  0  0  0
   24.7262  -23.5929  -14.4641 C   0  0  0  0  0  0  0  0  0  0  0  0
   22.3528  -23.2531  -15.1786 C   0  0  2  0  0  0  0  0  0  0  0  0
   22.6210  -21.8473  -15.5006 N   0  0  0  0  0  0  0  0  0  0  0  0
   21.7241  -23.3489  -13.8523 C   0  0  0  0  0  0  0  0  0  0  0  0
   22.3816  -22.9835  -12.8316 O   0  0  0  0  0  0  0  0  0  0  0  0
   20.4171  -23.8187  -13.6130 N   0  0  0  0  0  0  0  0  0  0  0  0
   19.8785  -23.8893  -12.2675 C   0  0  1  0  0  0  0  0  0  0  0  0
   18.8178  -22.8086  -12.1547 C   0  0  0  0  0  0  0  0  0  0  0  0
   19.3422  -21.4509  -12.0652 C   0  0  0  0  0  0  0  0  0  0  0  0
   19.3851  -20.7901  -10.8378 C   0  0  0  0  0  0  0  0  0  0  0  0
   19.8898  -19.5136  -10.7589 C   0  0  0  0  0  0  0  0  0  0  0  0
   20.3602  -18.8614  -11.8739 C   0  0  0  0  0  0  0  0  0  0  0  0
   20.3195  -19.5075  -13.0798 C   0  0  0  0  0  0  0  0  0  0  0  0
   19.8090  -20.8072  -13.1776 C   0  0  0  0  0  0  0  0  0  0  0  0
   19.2569  -25.1893  -12.0530 C   0  0  0  0  0  0  0  0  0  0  0  0
   18.7793  -25.5473  -10.9344 O   0  0  0  0  0  0  0  0  0  0  0  0
   19.1626  -26.1007  -13.0855 O   0  0  0  0  0  0  0  0  0  0  0  0
  2  1  1  6
  2  7  1  0
  2  3  1  0
  4  3  1  0
  4  5  1  0
  5  6  2  0
  7  8  2  0
  9  5  1  0
 10 11  1  0
 11 12  1  0
 12 14  1  0
 12 13  1  1
 14 15  1  1
 15  7  1  0
 16 14  1  0
 17 16  2  0
 18 16  1  0
 19 27  1  0
 19 18  1  0
 19 20  1  6
 21 20  1  0
 22 21  2  0
 23 22  1  0
 24 23  2  0
 24 25  1  0
 25 26  2  0
 26 21  1  0
 27 29  1  0
 28 27  2  0
M  END
$$$$
