PYC.pdb
     RDKit          3D

 26 27  0  0  1  0  0  0  0  0999 V2000
    7.0898  -15.2743   20.2755 N   0  0  0  0  0  0  0  0  0  0  0  0
    6.4392  -14.8513   19.0449 C   0  0  0  0  0  0  0  0  0  0  0  0
    6.7710  -13.4066   18.8408 C   0  0  0  0  0  0  0  0  0  0  0  0
    7.6586  -13.0692   20.0468 C   0  0  0  0  0  0  0  0  0  0  0  0
    8.2483  -14.4372   20.3221 C   0  0  1  0  0  0  0  0  0  0  0  0
    8.9574  -14.4931   21.6215 C   0  0  0  0  0  0  0  0  0  0  0  0
   10.1912  -14.3056   21.7097 O   0  0  0  0  0  0  0  0  0  0  0  0
   10.5856  -14.9179   30.1792 O   0  0  0  0  0  0  0  0  0  0  0  0
    9.9053  -14.8150   28.9571 C   0  0  0  0  0  0  0  0  0  0  0  0
    9.9252  -13.6244   28.2610 C   0  0  0  0  0  0  0  0  0  0  0  0
    9.2524  -13.5254   27.0541 C   0  0  0  0  0  0  0  0  0  0  0  0
    8.5633  -14.5792   26.5261 C   0  0  0  0  0  0  0  0  0  0  0  0
    7.8324  -14.4831   25.2221 C   0  0  0  0  0  0  0  0  0  0  0  0
    8.7266  -14.9550   24.1121 C   0  0  2  0  0  0  0  0  0  0  0  0
    8.2136  -14.7672   22.7971 N   0  0  0  0  0  0  0  0  0  0  0  0
    9.2206  -16.3571   24.3187 C   0  0  0  0  0  0  0  0  0  0  0  0
    8.4818  -17.3633   24.3493 O   0  0  0  0  0  0  0  0  0  0  0  0
    8.5589  -15.7615   27.2436 C   0  0  0  0  0  0  0  0  0  0  0  0
    9.2165  -15.8881   28.4415 C   0  0  0  0  0  0  0  0  0  0  0  0
   10.6251  -16.6058   24.4969 N   0  0  0  0  0  0  0  0  0  0  0  0
   11.1703  -17.9337   24.6556 C   0  0  1  0  0  0  0  0  0  0  0  0
   12.4284  -18.0380   23.8094 C   0  0  0  0  0  0  0  0  0  0  0  0
   11.9883  -17.7364   22.0760 S   0  0  0  0  0  0  0  0  0  0  0  0
   11.5741  -18.1936   26.0574 C   0  0  0  0  0  0  0  0  0  0  0  0
   11.3783  -17.1866   26.9909 O   0  0  0  0  0  0  0  0  0  0  0  0
   12.0806  -19.2726   26.4366 O   0  0  0  0  0  0  0  0  0  0  0  0
  1  2  1  0
  3  2  1  0
  4  5  1  0
  4  3  1  0
  5  1  1  0
  5  6  1  1
  7  6  2  0
  8  9  1  0
  9 19  2  0
 10  9  1  0
 10 11  2  0
 11 12  1  0
 12 18  2  0
 12 13  1  0
 14 13  1  1
 14 16  1  0
 14 15  1  0
 15  6  1  0
 16 17  2  0
 19 18  1  0
 20 21  1  0
 20 16  1  0
 21 22  1  6
 23 22  1  0
 24 25  1  0
 24 21  1  0
 26 24  2  0
M  END
$$$$
