PYC.pdb
     RDKit          3D

 26 27  0  0  1  0  0  0  0  0999 V2000
    7.7660  -15.7404   18.7722 N   0  0  0  0  0  0  0  0  0  0  0  0
    7.4837  -15.4758   17.3697 C   0  0  0  0  0  0  0  0  0  0  0  0
    7.6877  -14.0107   17.1442 C   0  0  0  0  0  0  0  0  0  0  0  0
    8.1106  -13.4913   18.5253 C   0  0  0  0  0  0  0  0  0  0  0  0
    8.7444  -14.7466   19.0885 C   0  0  1  0  0  0  0  0  0  0  0  0
    9.0169  -14.6366   20.5404 C   0  0  0  0  0  0  0  0  0  0  0  0
   10.1131  -14.2211   20.9776 O   0  0  0  0  0  0  0  0  0  0  0  0
    7.3978  -12.7276   28.8433 O   0  0  0  0  0  0  0  0  0  0  0  0
    7.2244  -13.0953   27.5011 C   0  0  0  0  0  0  0  0  0  0  0  0
    7.5905  -12.2207   26.4993 C   0  0  0  0  0  0  0  0  0  0  0  0
    7.4181  -12.5863   25.1742 C   0  0  0  0  0  0  0  0  0  0  0  0
    6.8922  -13.7967   24.8245 C   0  0  0  0  0  0  0  0  0  0  0  0
    6.7014  -14.2022   23.3951 C   0  0  0  0  0  0  0  0  0  0  0  0
    7.9847  -14.7701   22.8613 C   0  0  2  0  0  0  0  0  0  0  0  0
    8.0043  -15.0136   21.4584 N   0  0  0  0  0  0  0  0  0  0  0  0
    8.4602  -15.9637   23.6372 C   0  0  0  0  0  0  0  0  0  0  0  0
    7.9320  -17.0937   23.5787 O   0  0  0  0  0  0  0  0  0  0  0  0
    6.5332  -14.6552   25.8477 C   0  0  0  0  0  0  0  0  0  0  0  0
    6.6927  -14.3195   27.1688 C   0  0  0  0  0  0  0  0  0  0  0  0
    9.5918  -15.8462   24.5157 N   0  0  0  0  0  0  0  0  0  0  0  0
   10.1629  -16.9759   25.2111 C   0  0  1  0  0  0  0  0  0  0  0  0
   11.6376  -16.6954   25.4480 C   0  0  0  0  0  0  0  0  0  0  0  0
   12.4501  -16.4676   23.8426 S   0  0  0  0  0  0  0  0  0  0  0  0
    9.5434  -17.1661   26.5436 C   0  0  0  0  0  0  0  0  0  0  0  0
    9.9258  -18.2709   27.2899 O   0  0  0  0  0  0  0  0  0  0  0  0
    8.6963  -16.3815   27.0246 O   0  0  0  0  0  0  0  0  0  0  0  0
  1  2  1  0
  3  2  1  0
  4  5  1  0
  4  3  1  0
  5  1  1  0
  5  6  1  1
  7  6  2  0
  8  9  1  0
  9 19  2  0
 10  9  1  0
 10 11  2  0
 11 12  1  0
 12 18  2  0
 12 13  1  0
 14 13  1  1
 14 16  1  0
 14 15  1  0
 15  6  1  0
 16 17  2  0
 19 18  1  0
 20 21  1  0
 20 16  1  0
 21 22  1  1
 23 22  1  0
 24 25  1  0
 24 21  1  0
 26 24  2  0
M  END
$$$$
