PYC.pdb
     RDKit          3D

 26 27  0  0  1  0  0  0  0  0999 V2000
    7.7909  -15.5541   18.5317 N   0  0  0  0  0  0  0  0  0  0  0  0
    7.5290  -15.2398   17.1356 C   0  0  0  0  0  0  0  0  0  0  0  0
    7.8101  -13.7821   16.9481 C   0  0  0  0  0  0  0  0  0  0  0  0
    8.2532  -13.3205   18.3433 C   0  0  0  0  0  0  0  0  0  0  0  0
    8.8183  -14.6211   18.8764 C   0  0  1  0  0  0  0  0  0  0  0  0
    9.0897  -14.5621   20.3315 C   0  0  0  0  0  0  0  0  0  0  0  0
   10.1886  -14.1707   20.7836 O   0  0  0  0  0  0  0  0  0  0  0  0
    7.4905  -12.7684   28.6441 O   0  0  0  0  0  0  0  0  0  0  0  0
    7.3073  -13.1470   27.3063 C   0  0  0  0  0  0  0  0  0  0  0  0
    7.6373  -12.2686   26.2952 C   0  0  0  0  0  0  0  0  0  0  0  0
    7.4554  -12.6451   24.9745 C   0  0  0  0  0  0  0  0  0  0  0  0
    6.9548  -13.8700   24.6380 C   0  0  0  0  0  0  0  0  0  0  0  0
    6.7540  -14.2873   23.2134 C   0  0  0  0  0  0  0  0  0  0  0  0
    8.0569  -14.7725   22.6464 C   0  0  2  0  0  0  0  0  0  0  0  0
    8.0727  -14.9615   21.2352 N   0  0  0  0  0  0  0  0  0  0  0  0
    8.5971  -15.9705   23.3716 C   0  0  0  0  0  0  0  0  0  0  0  0
    8.1469  -17.1283   23.2450 O   0  0  0  0  0  0  0  0  0  0  0  0
    6.6319  -14.7319   25.6702 C   0  0  0  0  0  0  0  0  0  0  0  0
    6.8016  -14.3857   26.9873 C   0  0  0  0  0  0  0  0  0  0  0  0
    9.7021  -15.8239   24.2791 N   0  0  0  0  0  0  0  0  0  0  0  0
   10.2988  -16.9418   24.9719 C   0  0  1  0  0  0  0  0  0  0  0  0
   11.7838  -16.6640   25.1373 C   0  0  0  0  0  0  0  0  0  0  0  0
   12.5221  -16.4581   23.4936 S   0  0  0  0  0  0  0  0  0  0  0  0
    9.7384  -17.1013   26.3344 C   0  0  0  0  0  0  0  0  0  0  0  0
   10.1479  -18.1932   27.0853 O   0  0  0  0  0  0  0  0  0  0  0  0
    8.9179  -16.3019   26.8364 O   0  0  0  0  0  0  0  0  0  0  0  0
  1  2  1  0
  3  2  1  0
  4  5  1  0
  4  3  1  0
  5  1  1  0
  5  6  1  1
  7  6  2  0
  8  9  1  0
  9 19  2  0
 10  9  1  0
 10 11  2  0
 11 12  1  0
 12 18  2  0
 12 13  1  0
 14 13  1  1
 14 16  1  0
 14 15  1  0
 15  6  1  0
 16 17  2  0
 19 18  1  0
 20 21  1  0
 20 16  1  0
 21 22  1  1
 23 22  1  0
 24 25  1  0
 24 21  1  0
 26 24  2  0
M  END
$$$$
