PYC.pdb
     RDKit          3D

 26 27  0  0  1  0  0  0  0  0999 V2000
    7.7744  -15.4382   18.7752 N   0  0  0  0  0  0  0  0  0  0  0  0
    7.5250  -15.0982   17.3828 C   0  0  0  0  0  0  0  0  0  0  0  0
    7.7499  -13.6260   17.2379 C   0  0  0  0  0  0  0  0  0  0  0  0
    8.1488  -13.1838   18.6525 C   0  0  0  0  0  0  0  0  0  0  0  0
    8.7567  -14.4740   19.1629 C   0  0  1  0  0  0  0  0  0  0  0  0
    8.9993  -14.4424   20.6240 C   0  0  0  0  0  0  0  0  0  0  0  0
   10.1165  -14.1450   21.1022 O   0  0  0  0  0  0  0  0  0  0  0  0
    7.5339  -12.8639   29.0033 O   0  0  0  0  0  0  0  0  0  0  0  0
    7.3192  -13.1665   27.6509 C   0  0  0  0  0  0  0  0  0  0  0  0
    7.6679  -12.2497   26.6810 C   0  0  0  0  0  0  0  0  0  0  0  0
    7.4548  -12.5510   25.3457 C   0  0  0  0  0  0  0  0  0  0  0  0
    6.9052  -13.7381   24.9549 C   0  0  0  0  0  0  0  0  0  0  0  0
    6.6703  -14.0741   23.5141 C   0  0  0  0  0  0  0  0  0  0  0  0
    7.9277  -14.6423   22.9221 C   0  0  2  0  0  0  0  0  0  0  0  0
    7.9326  -14.7587   21.5029 N   0  0  0  0  0  0  0  0  0  0  0  0
    8.3572  -15.9193   23.5838 C   0  0  0  0  0  0  0  0  0  0  0  0
    7.7774  -17.0151   23.4355 O   0  0  0  0  0  0  0  0  0  0  0  0
    6.5645  -14.6398   25.9466 C   0  0  0  0  0  0  0  0  0  0  0  0
    6.7642  -14.3681   27.2770 C   0  0  0  0  0  0  0  0  0  0  0  0
    9.5031  -15.9295   24.4515 N   0  0  0  0  0  0  0  0  0  0  0  0
   10.0126  -17.1361   25.0603 C   0  0  1  0  0  0  0  0  0  0  0  0
   11.5247  -17.1459   24.9087 C   0  0  0  0  0  0  0  0  0  0  0  0
   11.9310  -17.1047   23.1416 S   0  0  0  0  0  0  0  0  0  0  0  0
    9.7274  -17.1761   26.5138 C   0  0  0  0  0  0  0  0  0  0  0  0
   10.1463  -18.2868   27.2312 O   0  0  0  0  0  0  0  0  0  0  0  0
    9.1298  -16.2604   27.1210 O   0  0  0  0  0  0  0  0  0  0  0  0
  1  2  1  0
  3  2  1  0
  4  5  1  0
  4  3  1  0
  5  1  1  0
  5  6  1  1
  7  6  2  0
  8  9  1  0
  9 19  2  0
 10  9  1  0
 10 11  2  0
 11 12  1  0
 12 18  2  0
 12 13  1  0
 14 13  1  1
 14 16  1  0
 14 15  1  0
 15  6  1  0
 16 17  2  0
 19 18  1  0
 20 21  1  0
 20 16  1  0
 21 22  1  1
 23 22  1  0
 24 25  1  0
 24 21  1  0
 26 24  2  0
M  END
$$$$
