PYC.pdb
     RDKit          3D

 26 27  0  0  1  0  0  0  0  0999 V2000
    5.7850  -20.8096   23.2409 N   0  0  0  0  0  0  0  0  0  0  0  0
    5.0593  -21.9912   22.8005 C   0  0  0  0  0  0  0  0  0  0  0  0
    3.9080  -21.5209   21.9685 C   0  0  0  0  0  0  0  0  0  0  0  0
    4.0594  -19.9935   21.9782 C   0  0  0  0  0  0  0  0  0  0  0  0
    5.5578  -19.8855   22.1735 C   0  0  1  0  0  0  0  0  0  0  0  0
    5.9850  -18.5042   22.4960 C   0  0  0  0  0  0  0  0  0  0  0  0
    5.9346  -17.5826   21.6514 O   0  0  0  0  0  0  0  0  0  0  0  0
    8.0979  -11.2491   26.7452 O   0  0  0  0  0  0  0  0  0  0  0  0
    7.7427  -12.5809   26.4865 C   0  0  0  0  0  0  0  0  0  0  0  0
    6.4201  -12.9064   26.2688 C   0  0  0  0  0  0  0  0  0  0  0  0
    6.0719  -14.2227   26.0134 C   0  0  0  0  0  0  0  0  0  0  0  0
    7.0053  -15.2182   25.9698 C   0  0  0  0  0  0  0  0  0  0  0  0
    6.6398  -16.6446   25.6945 C   0  0  0  0  0  0  0  0  0  0  0  0
    6.9847  -16.9835   24.2731 C   0  0  2  0  0  0  0  0  0  0  0  0
    6.4643  -18.2218   23.8002 N   0  0  0  0  0  0  0  0  0  0  0  0
    8.4514  -16.8523   23.9828 C   0  0  0  0  0  0  0  0  0  0  0  0
    9.3209  -17.6500   24.3911 O   0  0  0  0  0  0  0  0  0  0  0  0
    8.3240  -14.8656   26.1913 C   0  0  0  0  0  0  0  0  0  0  0  0
    8.6977  -13.5699   26.4466 C   0  0  0  0  0  0  0  0  0  0  0  0
    8.9320  -15.7548   23.1886 N   0  0  0  0  0  0  0  0  0  0  0  0
   10.2254  -15.7617   22.5461 C   0  0  1  0  0  0  0  0  0  0  0  0
   10.3387  -14.5134   21.6866 C   0  0  0  0  0  0  0  0  0  0  0  0
    9.1759  -14.6549   20.3020 S   0  0  0  0  0  0  0  0  0  0  0  0
   11.3265  -15.7017   23.5360 C   0  0  0  0  0  0  0  0  0  0  0  0
   12.6298  -15.6751   23.0622 O   0  0  0  0  0  0  0  0  0  0  0  0
   11.1369  -15.6740   24.7720 O   0  0  0  0  0  0  0  0  0  0  0  0
  1  2  1  0
  3  2  1  0
  4  5  1  0
  4  3  1  0
  5  1  1  0
  5  6  1  1
  7  6  2  0
  8  9  1  0
  9 19  2  0
 10  9  1  0
 10 11  2  0
 11 12  1  0
 12 18  2  0
 12 13  1  0
 14 13  1  1
 14 16  1  0
 14 15  1  0
 15  6  1  0
 16 17  2  0
 19 18  1  0
 20 21  1  0
 20 16  1  0
 21 22  1  6
 23 22  1  0
 24 25  1  0
 24 21  1  0
 26 24  2  0
M  END
$$$$
