PYC.pdb
     RDKit          3D

 26 27  0  0  1  0  0  0  0  0999 V2000
    7.6444  -15.4343   18.5325 N   0  0  0  0  0  0  0  0  0  0  0  0
    7.3681  -15.1635   17.1300 C   0  0  0  0  0  0  0  0  0  0  0  0
    7.6038  -13.7031   16.9048 C   0  0  0  0  0  0  0  0  0  0  0  0
    8.0376  -13.1932   18.2860 C   0  0  0  0  0  0  0  0  0  0  0  0
    8.6441  -14.4621   18.8491 C   0  0  1  0  0  0  0  0  0  0  0  0
    8.9187  -14.3582   20.3011 C   0  0  0  0  0  0  0  0  0  0  0  0
    9.9408  -13.7864   20.7412 O   0  0  0  0  0  0  0  0  0  0  0  0
    7.3998  -12.8602   28.6543 O   0  0  0  0  0  0  0  0  0  0  0  0
    7.2192  -13.2245   27.3122 C   0  0  0  0  0  0  0  0  0  0  0  0
    6.7627  -14.4886   27.0018 C   0  0  0  0  0  0  0  0  0  0  0  0
    6.5851  -14.8461   25.6752 C   0  0  0  0  0  0  0  0  0  0  0  0
    6.8501  -13.9785   24.6548 C   0  0  0  0  0  0  0  0  0  0  0  0
    6.6617  -14.3545   23.2171 C   0  0  0  0  0  0  0  0  0  0  0  0
    7.9816  -14.7646   22.6306 C   0  0  2  0  0  0  0  0  0  0  0  0
    7.9947  -14.9240   21.2157 N   0  0  0  0  0  0  0  0  0  0  0  0
    8.5851  -15.9494   23.3270 C   0  0  0  0  0  0  0  0  0  0  0  0
    8.2028  -17.1270   23.1654 O   0  0  0  0  0  0  0  0  0  0  0  0
    7.3066  -12.7175   24.9927 C   0  0  0  0  0  0  0  0  0  0  0  0
    7.4917  -12.3362   26.2980 C   0  0  0  0  0  0  0  0  0  0  0  0
    9.6742  -15.7651   24.2467 N   0  0  0  0  0  0  0  0  0  0  0  0
   10.3594  -16.8683   24.8787 C   0  0  1  0  0  0  0  0  0  0  0  0
   11.6939  -16.3645   25.4032 C   0  0  0  0  0  0  0  0  0  0  0  0
   12.9091  -16.4334   24.0586 S   0  0  0  0  0  0  0  0  0  0  0  0
    9.6059  -17.3812   26.0470 C   0  0  0  0  0  0  0  0  0  0  0  0
    8.9815  -16.4614   26.8764 O   0  0  0  0  0  0  0  0  0  0  0  0
    9.5070  -18.5980   26.3190 O   0  0  0  0  0  0  0  0  0  0  0  0
  1  2  1  0
  3  2  1  0
  4  5  1  0
  4  3  1  0
  5  1  1  0
  5  6  1  1
  7  6  2  0
  8  9  1  0
  9 19  2  0
 10  9  1  0
 10 11  2  0
 11 12  1  0
 12 18  2  0
 12 13  1  0
 14 13  1  1
 14 16  1  0
 14 15  1  0
 15  6  1  0
 16 17  2  0
 19 18  1  0
 20 21  1  0
 20 16  1  0
 21 22  1  1
 23 22  1  0
 24 25  1  0
 24 21  1  0
 26 24  2  0
M  END
$$$$
