PYC.pdb
     RDKit          3D

 26 27  0  0  1  0  0  0  0  0999 V2000
    7.8164  -15.4314   18.5943 N   0  0  0  0  0  0  0  0  0  0  0  0
    7.6480  -15.1301   17.1810 C   0  0  0  0  0  0  0  0  0  0  0  0
    8.0361  -13.6987   16.9826 C   0  0  0  0  0  0  0  0  0  0  0  0
    8.4377  -13.2381   18.3906 C   0  0  0  0  0  0  0  0  0  0  0  0
    8.8856  -14.5617   18.9756 C   0  0  1  0  0  0  0  0  0  0  0  0
    9.0857  -14.4899   20.4417 C   0  0  0  0  0  0  0  0  0  0  0  0
   10.1754  -14.1348   20.9434 O   0  0  0  0  0  0  0  0  0  0  0  0
    7.3483  -12.6724   28.6974 O   0  0  0  0  0  0  0  0  0  0  0  0
    7.1784  -13.0449   27.3561 C   0  0  0  0  0  0  0  0  0  0  0  0
    6.6739  -14.2919   27.0509 C   0  0  0  0  0  0  0  0  0  0  0  0
    6.5070  -14.6575   25.7251 C   0  0  0  0  0  0  0  0  0  0  0  0
    6.8292  -13.8146   24.7005 C   0  0  0  0  0  0  0  0  0  0  0  0
    6.6528  -14.1996   23.2637 C   0  0  0  0  0  0  0  0  0  0  0  0
    7.9606  -14.6915   22.7140 C   0  0  2  0  0  0  0  0  0  0  0  0
    8.0094  -14.8343   21.2980 N   0  0  0  0  0  0  0  0  0  0  0  0
    8.4593  -15.9229   23.4123 C   0  0  0  0  0  0  0  0  0  0  0  0
    7.9634  -17.0598   23.2682 O   0  0  0  0  0  0  0  0  0  0  0  0
    7.3330  -12.5704   25.0332 C   0  0  0  0  0  0  0  0  0  0  0  0
    7.5088  -12.1816   26.3376 C   0  0  0  0  0  0  0  0  0  0  0  0
    9.5761  -15.8365   24.3130 N   0  0  0  0  0  0  0  0  0  0  0  0
   10.1542  -16.9935   24.9555 C   0  0  1  0  0  0  0  0  0  0  0  0
   11.6664  -16.8432   24.9398 C   0  0  0  0  0  0  0  0  0  0  0  0
   12.2237  -16.7636   23.2158 S   0  0  0  0  0  0  0  0  0  0  0  0
    9.7478  -17.0879   26.3773 C   0  0  0  0  0  0  0  0  0  0  0  0
   10.2036  -18.1694   27.1165 O   0  0  0  0  0  0  0  0  0  0  0  0
    9.0169  -16.2426   26.9393 O   0  0  0  0  0  0  0  0  0  0  0  0
  1  2  1  0
  3  2  1  0
  4  5  1  0
  4  3  1  0
  5  1  1  0
  5  6  1  1
  7  6  2  0
  8  9  1  0
  9 19  2  0
 10  9  1  0
 10 11  2  0
 11 12  1  0
 12 18  2  0
 12 13  1  0
 14 13  1  1
 14 16  1  0
 14 15  1  0
 15  6  1  0
 16 17  2  0
 19 18  1  0
 20 21  1  0
 20 16  1  0
 21 22  1  1
 23 22  1  0
 24 25  1  0
 24 21  1  0
 26 24  2  0
M  END
$$$$
