PYC.pdb
     RDKit          3D

 26 27  0  0  1  0  0  0  0  0999 V2000
    7.2708  -14.9425   20.2359 N   0  0  0  0  0  0  0  0  0  0  0  0
    6.6657  -14.4039   19.0274 C   0  0  0  0  0  0  0  0  0  0  0  0
    7.0727  -12.9674   18.9290 C   0  0  0  0  0  0  0  0  0  0  0  0
    7.9527  -12.7587   20.1691 C   0  0  0  0  0  0  0  0  0  0  0  0
    8.4683  -14.1705   20.3584 C   0  0  1  0  0  0  0  0  0  0  0  0
    9.1489  -14.3510   21.6617 C   0  0  0  0  0  0  0  0  0  0  0  0
   10.3945  -14.3031   21.7691 O   0  0  0  0  0  0  0  0  0  0  0  0
   10.5051  -14.8099   30.2667 O   0  0  0  0  0  0  0  0  0  0  0  0
    9.8587  -14.7114   29.0260 C   0  0  0  0  0  0  0  0  0  0  0  0
    9.2290  -15.8168   28.4929 C   0  0  0  0  0  0  0  0  0  0  0  0
    8.5911  -15.7169   27.2672 C   0  0  0  0  0  0  0  0  0  0  0  0
    8.5655  -14.5475   26.5629 C   0  0  0  0  0  0  0  0  0  0  0  0
    7.8789  -14.4284   25.2369 C   0  0  0  0  0  0  0  0  0  0  0  0
    8.8339  -14.8111   24.1434 C   0  0  2  0  0  0  0  0  0  0  0  0
    8.3633  -14.5846   22.8187 N   0  0  0  0  0  0  0  0  0  0  0  0
    9.3800  -16.1996   24.3072 C   0  0  0  0  0  0  0  0  0  0  0  0
    8.6940  -17.2385   24.2115 O   0  0  0  0  0  0  0  0  0  0  0  0
    9.2041  -13.4543   27.1192 C   0  0  0  0  0  0  0  0  0  0  0  0
    9.8437  -13.5243   28.3314 C   0  0  0  0  0  0  0  0  0  0  0  0
   10.7752  -16.3945   24.5927 N   0  0  0  0  0  0  0  0  0  0  0  0
   11.3800  -17.7030   24.6821 C   0  0  1  0  0  0  0  0  0  0  0  0
   12.6493  -17.7008   23.8464 C   0  0  0  0  0  0  0  0  0  0  0  0
   13.6705  -16.2877   24.3460 S   0  0  0  0  0  0  0  0  0  0  0  0
   11.7822  -18.0242   26.0715 C   0  0  0  0  0  0  0  0  0  0  0  0
   12.3080  -19.2825   26.3249 O   0  0  0  0  0  0  0  0  0  0  0  0
   11.6706  -17.2185   27.0217 O   0  0  0  0  0  0  0  0  0  0  0  0
  1  2  1  0
  3  2  1  0
  4  5  1  0
  4  3  1  0
  5  1  1  0
  5  6  1  1
  7  6  2  0
  8  9  1  0
  9 19  2  0
 10  9  1  0
 10 11  2  0
 11 12  1  0
 12 18  2  0
 12 13  1  0
 14 13  1  1
 14 16  1  0
 14 15  1  0
 15  6  1  0
 16 17  2  0
 19 18  1  0
 20 21  1  0
 20 16  1  0
 21 22  1  6
 23 22  1  0
 24 25  1  0
 24 21  1  0
 26 24  2  0
M  END
$$$$
