PYC.pdb
     RDKit          3D

 26 27  0  0  1  0  0  0  0  0999 V2000
    7.9386  -17.2480   19.5116 N   0  0  0  0  0  0  0  0  0  0  0  0
    7.7494  -17.4518   18.0836 C   0  0  0  0  0  0  0  0  0  0  0  0
    8.1658  -16.1900   17.3957 C   0  0  0  0  0  0  0  0  0  0  0  0
    8.6051  -15.2803   18.5514 C   0  0  0  0  0  0  0  0  0  0  0  0
    9.0344  -16.3303   19.5554 C   0  0  1  0  0  0  0  0  0  0  0  0
    9.2647  -15.7594   20.9028 C   0  0  0  0  0  0  0  0  0  0  0  0
   10.2670  -15.0562   21.1602 O   0  0  0  0  0  0  0  0  0  0  0  0
    7.5453  -11.7513   28.3436 O   0  0  0  0  0  0  0  0  0  0  0  0
    7.3953  -12.5346   27.1900 C   0  0  0  0  0  0  0  0  0  0  0  0
    7.6283  -11.9776   25.9497 C   0  0  0  0  0  0  0  0  0  0  0  0
    7.4795  -12.7534   24.8117 C   0  0  0  0  0  0  0  0  0  0  0  0
    7.1058  -14.0649   24.8790 C   0  0  0  0  0  0  0  0  0  0  0  0
    6.9419  -14.9128   23.6550 C   0  0  0  0  0  0  0  0  0  0  0  0
    8.2822  -15.4366   23.2267 C   0  0  2  0  0  0  0  0  0  0  0  0
    8.3203  -16.0192   21.9280 N   0  0  0  0  0  0  0  0  0  0  0  0
    8.9128  -16.3313   24.2537 C   0  0  0  0  0  0  0  0  0  0  0  0
    8.6113  -17.5319   24.4173 O   0  0  0  0  0  0  0  0  0  0  0  0
    6.8783  -14.5992   26.1341 C   0  0  0  0  0  0  0  0  0  0  0  0
    7.0181  -13.8543   27.2783 C   0  0  0  0  0  0  0  0  0  0  0  0
    9.9328  -15.8172   25.1262 N   0  0  0  0  0  0  0  0  0  0  0  0
   10.6396  -16.6446   26.0759 C   0  0  1  0  0  0  0  0  0  0  0  0
   11.7135  -15.7989   26.7401 C   0  0  0  0  0  0  0  0  0  0  0  0
   12.8568  -15.2054   25.4635 S   0  0  0  0  0  0  0  0  0  0  0  0
    9.7437  -17.1240   27.1545 C   0  0  0  0  0  0  0  0  0  0  0  0
   10.2893  -17.9190   28.1515 O   0  0  0  0  0  0  0  0  0  0  0  0
    8.5252  -16.8470   27.2078 O   0  0  0  0  0  0  0  0  0  0  0  0
  1  2  1  0
  3  2  1  0
  4  5  1  0
  4  3  1  0
  5  1  1  0
  5  6  1  1
  7  6  2  0
  8  9  1  0
  9 19  2  0
 10  9  1  0
 10 11  2  0
 11 12  1  0
 12 18  2  0
 12 13  1  0
 14 13  1  1
 14 16  1  0
 14 15  1  0
 15  6  1  0
 16 17  2  0
 19 18  1  0
 20 21  1  0
 20 16  1  0
 21 22  1  1
 23 22  1  0
 24 25  1  0
 24 21  1  0
 26 24  2  0
M  END
$$$$
