DAL.pdb
     RDKit          3D

 22 21  0  0  1  0  0  0  0  0999 V2000
   16.8822  -14.0330  -18.5004 N   0  0  0  0  0  0  0  0  0  0  0  0
   16.5813  -13.1026  -17.4123 C   0  0  1  0  0  0  0  0  0  0  0  0
   16.8307  -13.7667  -16.0656 C   0  0  0  0  0  0  0  0  0  0  0  0
   15.8328  -14.8118  -15.7658 C   0  0  0  0  0  0  0  0  0  0  0  0
   14.6939  -14.7253  -16.2528 O   0  0  0  0  0  0  0  0  0  0  0  0
   17.4064  -11.8844  -17.5694 C   0  0  0  0  0  0  0  0  0  0  0  0
   18.6679  -12.0278  -17.5460 O   0  0  0  0  0  0  0  0  0  0  0  0
   16.1712  -15.8653  -14.9505 O   0  0  0  0  0  0  0  0  0  0  0  0
   17.0786   -8.2254  -18.3035 C   0  0  0  0  0  0  0  0  0  0  0  0
   17.8088   -9.4755  -17.8626 C   0  0  2  0  0  0  0  0  0  0  0  0
   16.8991  -10.5807  -17.7419 N   0  0  0  0  0  0  0  0  0  0  0  0
   18.6742   -9.2786  -16.6912 C   0  0  0  0  0  0  0  0  0  0  0  0
   18.2340   -9.6040  -15.5365 O   0  0  0  0  0  0  0  0  0  0  0  0
   22.0268   -9.6411  -12.9210 C   0  0  0  0  0  0  0  0  0  0  0  0
   22.7014   -9.4192  -14.2382 C   0  0  1  0  0  0  0  0  0  0  0  0
   23.7832  -10.5046  -14.3324 C   0  0  0  0  0  0  0  0  0  0  0  0
   21.7754   -9.5886  -15.4092 C   0  0  0  0  0  0  0  0  0  0  0  0
   20.8007   -8.4536  -15.5906 C   0  0  2  0  0  0  0  0  0  0  0  0
   19.9813   -8.7480  -16.7347 N   0  0  0  0  0  0  0  0  0  0  0  0
   21.3987   -7.1173  -15.5689 C   0  0  0  0  0  0  0  0  0  0  0  0
   21.6940   -6.4015  -14.4439 O   0  0  0  0  0  0  0  0  0  0  0  0
   21.6673   -6.5762  -16.6829 O   0  0  0  0  0  0  0  0  0  0  0  0
  2  1  1  6
  3  4  1  0
  3  2  1  0
  4  5  2  0
  6  2  1  0
  6 11  1  0
  7  6  2  0
  8  4  1  0
 10 12  1  0
 10  9  1  1
 11 10  1  0
 12 19  1  0
 12 13  2  0
 15 14  1  1
 15 16  1  0
 17 15  1  0
 18 17  1  6
 19 18  1  0
 20 18  1  0
 21 20  1  0
 22 20  2  0
M  END
$$$$
