DAL.pdb
     RDKit          3D

 22 21  0  0  1  0  0  0  0  0999 V2000
   18.8129   -8.7191  -19.5110 N   0  0  0  0  0  0  0  0  0  0  0  0
   18.8259   -9.1908  -18.1263 C   0  0  1  0  0  0  0  0  0  0  0  0
   20.2175   -9.6774  -17.7473 C   0  0  0  0  0  0  0  0  0  0  0  0
   20.6149  -10.8779  -18.5081 C   0  0  0  0  0  0  0  0  0  0  0  0
   19.8785  -11.8775  -18.4986 O   0  0  0  0  0  0  0  0  0  0  0  0
   18.3796   -8.0979  -17.2340 C   0  0  0  0  0  0  0  0  0  0  0  0
   18.6432   -6.9086  -17.5922 O   0  0  0  0  0  0  0  0  0  0  0  0
   21.7939  -10.8793  -19.2145 O   0  0  0  0  0  0  0  0  0  0  0  0
   16.1449   -7.4044  -14.3596 C   0  0  0  0  0  0  0  0  0  0  0  0
   17.3680   -7.1350  -15.2092 C   0  0  2  0  0  0  0  0  0  0  0  0
   17.6865   -8.2773  -16.0199 N   0  0  0  0  0  0  0  0  0  0  0  0
   18.5092   -6.5948  -14.4569 C   0  0  0  0  0  0  0  0  0  0  0  0
   18.3082   -5.6411  -13.6304 O   0  0  0  0  0  0  0  0  0  0  0  0
   22.5757  -10.0432  -13.5334 C   0  0  0  0  0  0  0  0  0  0  0  0
   21.5191   -8.9866  -13.4511 C   0  0  1  0  0  0  0  0  0  0  0  0
   21.0843   -8.9558  -11.9790 C   0  0  0  0  0  0  0  0  0  0  0  0
   22.0260   -7.6187  -13.8107 C   0  0  0  0  0  0  0  0  0  0  0  0
   20.9608   -6.5527  -13.8231 C   0  0  2  0  0  0  0  0  0  0  0  0
   19.8397   -7.0511  -14.5726 N   0  0  0  0  0  0  0  0  0  0  0  0
   21.4287   -5.2173  -14.1992 C   0  0  0  0  0  0  0  0  0  0  0  0
   20.9606   -4.4827  -15.2512 O   0  0  0  0  0  0  0  0  0  0  0  0
   22.3423   -4.6949  -13.4932 O   0  0  0  0  0  0  0  0  0  0  0  0
  2  1  1  6
  3  4  1  0
  3  2  1  0
  4  5  2  0
  6  2  1  0
  6 11  1  0
  7  6  2  0
  8  4  1  0
 10 12  1  0
 10  9  1  1
 11 10  1  0
 12 19  1  0
 12 13  2  0
 15 14  1  1
 15 16  1  0
 17 15  1  0
 18 17  1  6
 19 18  1  0
 20 18  1  0
 21 20  1  0
 22 20  2  0
M  END
$$$$
