DAL.pdb
     RDKit          3D

 22 21  0  0  1  0  0  0  0  0999 V2000
   24.0890  -18.6908  -14.5429 N   0  0  0  0  0  0  0  0  0  0  0  0
   23.7188  -19.9432  -13.8836 C   0  0  1  0  0  0  0  0  0  0  0  0
   22.8031  -20.7624  -14.7820 C   0  0  0  0  0  0  0  0  0  0  0  0
   21.5508  -20.0495  -15.1005 C   0  0  0  0  0  0  0  0  0  0  0  0
   21.3567  -19.6450  -16.2583 O   0  0  0  0  0  0  0  0  0  0  0  0
   24.9459  -20.6959  -13.5410 C   0  0  0  0  0  0  0  0  0  0  0  0
   24.8075  -21.9095  -13.1941 O   0  0  0  0  0  0  0  0  0  0  0  0
   20.6162  -19.8376  -14.1154 O   0  0  0  0  0  0  0  0  0  0  0  0
   28.6712  -20.3136  -13.4134 C   0  0  0  0  0  0  0  0  0  0  0  0
   27.3445  -20.9494  -13.0585 C   0  0  2  0  0  0  0  0  0  0  0  0
   26.2526  -20.1685  -13.5700 N   0  0  0  0  0  0  0  0  0  0  0  0
   27.2151  -21.3060  -11.6386 C   0  0  0  0  0  0  0  0  0  0  0  0
   27.6097  -22.4587  -11.2530 O   0  0  0  0  0  0  0  0  0  0  0  0
   28.1436  -21.0010   -6.4116 C   0  0  0  0  0  0  0  0  0  0  0  0
   27.1437  -20.0231   -6.9439 C   0  0  1  0  0  0  0  0  0  0  0  0
   27.4602  -18.6927   -6.2459 C   0  0  0  0  0  0  0  0  0  0  0  0
   27.2642  -19.8063   -8.4257 C   0  0  0  0  0  0  0  0  0  0  0  0
   26.5101  -20.8120   -9.2569 C   0  0  2  0  0  0  0  0  0  0  0  0
   26.6795  -20.4632  -10.6413 N   0  0  0  0  0  0  0  0  0  0  0  0
   25.1304  -21.0541   -8.8308 C   0  0  0  0  0  0  0  0  0  0  0  0
   24.7493  -21.9014   -7.8297 O   0  0  0  0  0  0  0  0  0  0  0  0
   24.2104  -20.4278   -9.4367 O   0  0  0  0  0  0  0  0  0  0  0  0
  2  1  1  6
  3  4  1  0
  3  2  1  0
  4  5  2  0
  6  2  1  0
  6 11  1  0
  7  6  2  0
  8  4  1  0
 10 12  1  0
 10  9  1  1
 11 10  1  0
 12 19  1  0
 12 13  2  0
 15 14  1  1
 15 16  1  0
 17 15  1  0
 18 17  1  1
 19 18  1  0
 20 18  1  0
 21 20  1  0
 22 20  2  0
M  END
$$$$
