DAL.pdb
     RDKit          3D

 22 21  0  0  1  0  0  0  0  0999 V2000
   21.7559  -12.9558  -19.8506 N   0  0  0  0  0  0  0  0  0  0  0  0
   20.9510  -11.7351  -19.8030 C   0  0  1  0  0  0  0  0  0  0  0  0
   19.7770  -11.8389  -20.7662 C   0  0  0  0  0  0  0  0  0  0  0  0
   20.2147  -12.0767  -22.1554 C   0  0  0  0  0  0  0  0  0  0  0  0
   19.4399  -11.8208  -23.0913 O   0  0  0  0  0  0  0  0  0  0  0  0
   20.4872  -11.5100  -18.4159 C   0  0  0  0  0  0  0  0  0  0  0  0
   19.6873  -10.5438  -18.2184 O   0  0  0  0  0  0  0  0  0  0  0  0
   21.4700  -12.5807  -22.3990 O   0  0  0  0  0  0  0  0  0  0  0  0
   20.2685  -13.1609  -15.1168 C   0  0  0  0  0  0  0  0  0  0  0  0
   20.3801  -11.9337  -15.9953 C   0  0  2  0  0  0  0  0  0  0  0  0
   20.8659  -12.2845  -17.3009 N   0  0  0  0  0  0  0  0  0  0  0  0
   21.0969  -10.8146  -15.3679 C   0  0  0  0  0  0  0  0  0  0  0  0
   20.7457  -10.4336  -14.1997 O   0  0  0  0  0  0  0  0  0  0  0  0
   26.3591  -10.3220  -16.0814 C   0  0  0  0  0  0  0  0  0  0  0  0
   24.9379  -10.3078  -15.6131 C   0  0  1  0  0  0  0  0  0  0  0  0
   25.0020  -10.5689  -14.1015 C   0  0  0  0  0  0  0  0  0  0  0  0
   24.2623   -8.9824  -15.8236 C   0  0  0  0  0  0  0  0  0  0  0  0
   22.8165   -8.9556  -15.3994 C   0  0  2  0  0  0  0  0  0  0  0  0
   22.1657  -10.1084  -15.9601 N   0  0  0  0  0  0  0  0  0  0  0  0
   22.1341   -7.6782  -15.6139 C   0  0  0  0  0  0  0  0  0  0  0  0
   22.2234   -6.5871  -14.7972 O   0  0  0  0  0  0  0  0  0  0  0  0
   21.3997   -7.5702  -16.6410 O   0  0  0  0  0  0  0  0  0  0  0  0
  2  1  1  1
  3  4  1  0
  3  2  1  0
  4  5  2  0
  6  2  1  0
  6 11  1  0
  7  6  2  0
  8  4  1  0
 10 12  1  0
 10  9  1  1
 11 10  1  0
 12 19  1  0
 12 13  2  0
 15 14  1  1
 15 16  1  0
 17 15  1  0
 18 17  1  6
 19 18  1  0
 20 18  1  0
 21 20  1  0
 22 20  2  0
M  END
$$$$
