DAL.pdb
     RDKit          3D

 22 21  0  0  1  0  0  0  0  0999 V2000
   16.2291   -8.0559  -17.1783 N   0  0  0  0  0  0  0  0  0  0  0  0
   16.8181   -9.0578  -16.2897 C   0  0  1  0  0  0  0  0  0  0  0  0
   18.0607   -9.6634  -16.9268 C   0  0  0  0  0  0  0  0  0  0  0  0
   17.7352  -10.5030  -18.0961 C   0  0  0  0  0  0  0  0  0  0  0  0
   16.5490  -10.6434  -18.4349 O   0  0  0  0  0  0  0  0  0  0  0  0
   17.1359   -8.4296  -14.9882 C   0  0  0  0  0  0  0  0  0  0  0  0
   17.0639   -7.1637  -14.9190 O   0  0  0  0  0  0  0  0  0  0  0  0
   18.7443  -11.1222  -18.7942 O   0  0  0  0  0  0  0  0  0  0  0  0
   17.5914   -9.2609  -11.4002 C   0  0  0  0  0  0  0  0  0  0  0  0
   17.8122   -8.3977  -12.6235 C   0  0  2  0  0  0  0  0  0  0  0  0
   17.5118   -9.1283  -13.8233 N   0  0  0  0  0  0  0  0  0  0  0  0
   19.1141   -7.7159  -12.6449 C   0  0  0  0  0  0  0  0  0  0  0  0
   19.4771   -7.0457  -11.6191 O   0  0  0  0  0  0  0  0  0  0  0  0
   23.0202  -10.2897  -15.1897 C   0  0  0  0  0  0  0  0  0  0  0  0
   22.2456   -9.4465  -14.2262 C   0  0  1  0  0  0  0  0  0  0  0  0
   22.9848   -9.5715  -12.8864 C   0  0  0  0  0  0  0  0  0  0  0  0
   22.2207   -7.9927  -14.6050 C   0  0  0  0  0  0  0  0  0  0  0  0
   21.3283   -7.1464  -13.7340 C   0  0  2  0  0  0  0  0  0  0  0  0
   20.0187   -7.7394  -13.7279 N   0  0  0  0  0  0  0  0  0  0  0  0
   21.3705   -5.7107  -14.0184 C   0  0  0  0  0  0  0  0  0  0  0  0
   22.3541   -4.8534  -13.6150 O   0  0  0  0  0  0  0  0  0  0  0  0
   20.4189   -5.2182  -14.6950 O   0  0  0  0  0  0  0  0  0  0  0  0
  2  1  1  6
  3  4  1  0
  3  2  1  0
  4  5  2  0
  6  2  1  0
  6 11  1  0
  7  6  2  0
  8  4  1  0
 10 12  1  0
 10  9  1  1
 11 10  1  0
 12 19  1  0
 12 13  2  0
 15 14  1  6
 15 16  1  0
 17 15  1  0
 18 17  1  6
 19 18  1  0
 20 18  1  0
 21 20  1  0
 22 20  2  0
M  END
$$$$
