DAL.pdb
     RDKit          3D

 22 21  0  0  1  0  0  0  0  0999 V2000
   13.8730  -10.0622  -12.1061 N   0  0  0  0  0  0  0  0  0  0  0  0
   14.9581  -10.0433  -11.1250 C   0  0  1  0  0  0  0  0  0  0  0  0
   15.9590  -11.1506  -11.4233 C   0  0  0  0  0  0  0  0  0  0  0  0
   15.3556  -12.4928  -11.3115 C   0  0  0  0  0  0  0  0  0  0  0  0
   15.4287  -13.2763  -12.2719 O   0  0  0  0  0  0  0  0  0  0  0  0
   15.6090   -8.7145  -11.1426 C   0  0  0  0  0  0  0  0  0  0  0  0
   16.0152   -8.2792  -12.2641 O   0  0  0  0  0  0  0  0  0  0  0  0
   14.7176  -12.8600  -10.1508 O   0  0  0  0  0  0  0  0  0  0  0  0
   16.2049   -5.7361   -8.9794 C   0  0  0  0  0  0  0  0  0  0  0  0
   16.4955   -6.6432  -10.1555 C   0  0  2  0  0  0  0  0  0  0  0  0
   15.8119   -7.8984  -10.0114 N   0  0  0  0  0  0  0  0  0  0  0  0
   17.9252   -6.7702  -10.4714 C   0  0  0  0  0  0  0  0  0  0  0  0
   18.5860   -7.7393   -9.9644 O   0  0  0  0  0  0  0  0  0  0  0  0
   22.1273   -8.4032  -12.6709 C   0  0  0  0  0  0  0  0  0  0  0  0
   21.1248   -7.6607  -13.4974 C   0  0  1  0  0  0  0  0  0  0  0  0
   20.7701   -8.6036  -14.6560 C   0  0  0  0  0  0  0  0  0  0  0  0
   19.8585   -7.3527  -12.7496 C   0  0  0  0  0  0  0  0  0  0  0  0
   19.9526   -6.1443  -11.8540 C   0  0  2  0  0  0  0  0  0  0  0  0
   18.6471   -5.8916  -11.3073 N   0  0  0  0  0  0  0  0  0  0  0  0
   20.6236   -4.9866  -12.4483 C   0  0  0  0  0  0  0  0  0  0  0  0
   21.9331   -4.6484  -12.2589 O   0  0  0  0  0  0  0  0  0  0  0  0
   19.9375   -4.2336  -13.2022 O   0  0  0  0  0  0  0  0  0  0  0  0
  2  1  1  6
  3  4  1  0
  3  2  1  0
  4  5  2  0
  6  2  1  0
  6 11  1  0
  7  6  2  0
  8  4  1  0
 10 12  1  0
 10  9  1  1
 11 10  1  0
 12 19  1  0
 12 13  2  0
 15 14  1  1
 15 16  1  0
 17 15  1  0
 18 17  1  6
 19 18  1  0
 20 18  1  0
 21 20  1  0
 22 20  2  0
M  END
$$$$
