DAL.pdb
     RDKit          3D

 22 21  0  0  1  0  0  0  0  0999 V2000
   26.2498  -20.6334  -15.0724 N   0  0  0  0  0  0  0  0  0  0  0  0
   26.2895  -20.0120  -13.7485 C   0  0  1  0  0  0  0  0  0  0  0  0
   24.8771  -19.7957  -13.2242 C   0  0  0  0  0  0  0  0  0  0  0  0
   24.1044  -18.8655  -14.0702 C   0  0  0  0  0  0  0  0  0  0  0  0
   24.6948  -17.9516  -14.6685 O   0  0  0  0  0  0  0  0  0  0  0  0
   27.0759  -20.8667  -12.8316 C   0  0  0  0  0  0  0  0  0  0  0  0
   26.7550  -22.0931  -12.7589 O   0  0  0  0  0  0  0  0  0  0  0  0
   22.7432  -19.0169  -14.1846 O   0  0  0  0  0  0  0  0  0  0  0  0
   30.2722  -20.9804  -10.9941 C   0  0  0  0  0  0  0  0  0  0  0  0
   28.8135  -21.3485  -11.1586 C   0  0  2  0  0  0  0  0  0  0  0  0
   28.1505  -20.4231  -12.0347 N   0  0  0  0  0  0  0  0  0  0  0  0
   28.1111  -21.5831   -9.8891 C   0  0  0  0  0  0  0  0  0  0  0  0
   28.3867  -22.6337   -9.2158 O   0  0  0  0  0  0  0  0  0  0  0  0
   28.3458  -18.4950   -5.9894 C   0  0  0  0  0  0  0  0  0  0  0  0
   28.0601  -19.7585   -6.7387 C   0  0  1  0  0  0  0  0  0  0  0  0
   28.3482  -20.8960   -5.7487 C   0  0  0  0  0  0  0  0  0  0  0  0
   26.6256  -19.8750   -7.1699 C   0  0  0  0  0  0  0  0  0  0  0  0
   26.3677  -20.9897   -8.1508 C   0  0  2  0  0  0  0  0  0  0  0  0
   27.1350  -20.7259   -9.3376 N   0  0  0  0  0  0  0  0  0  0  0  0
   24.9546  -21.3048   -8.3691 C   0  0  0  0  0  0  0  0  0  0  0  0
   24.3148  -21.2734   -9.5753 O   0  0  0  0  0  0  0  0  0  0  0  0
   24.2641  -21.6355   -7.3593 O   0  0  0  0  0  0  0  0  0  0  0  0
  2  1  1  6
  3  4  1  0
  3  2  1  0
  4  5  2  0
  6  2  1  0
  6 11  1  0
  7  6  2  0
  8  4  1  0
 10 12  1  0
 10  9  1  1
 11 10  1  0
 12 19  1  0
 12 13  2  0
 15 14  1  1
 15 16  1  0
 17 15  1  0
 18 17  1  1
 19 18  1  0
 20 18  1  0
 21 20  1  0
 22 20  2  0
M  END
$$$$
