DAL.pdb
     RDKit          3D

 22 21  0  0  1  0  0  0  0  0999 V2000
   20.6147  -12.9555  -20.1613 N   0  0  0  0  0  0  0  0  0  0  0  0
   21.0910  -13.1709  -18.7949 C   0  0  1  0  0  0  0  0  0  0  0  0
   22.5654  -13.5486  -18.8031 C   0  0  0  0  0  0  0  0  0  0  0  0
   22.8015  -14.8610  -19.4356 C   0  0  0  0  0  0  0  0  0  0  0  0
   22.2335  -15.8676  -18.9821 O   0  0  0  0  0  0  0  0  0  0  0  0
   20.8564  -11.9467  -17.9974 C   0  0  0  0  0  0  0  0  0  0  0  0
   21.1490  -10.8349  -18.5366 O   0  0  0  0  0  0  0  0  0  0  0  0
   23.6475  -14.9566  -20.5146 O   0  0  0  0  0  0  0  0  0  0  0  0
   19.3067  -10.8105  -14.7902 C   0  0  0  0  0  0  0  0  0  0  0  0
   20.2052  -10.6680  -15.9997 C   0  0  2  0  0  0  0  0  0  0  0  0
   20.3350  -11.9220  -16.6882 N   0  0  0  0  0  0  0  0  0  0  0  0
   21.4846  -10.0023  -15.7167 C   0  0  0  0  0  0  0  0  0  0  0  0
   21.4719   -8.8417  -15.1820 O   0  0  0  0  0  0  0  0  0  0  0  0
   26.9214  -10.0013  -14.4836 C   0  0  0  0  0  0  0  0  0  0  0  0
   26.4975  -10.2792  -15.8916 C   0  0  1  0  0  0  0  0  0  0  0  0
   27.4921  -11.3225  -16.4204 C   0  0  0  0  0  0  0  0  0  0  0  0
   25.1185  -10.8681  -15.9854 C   0  0  0  0  0  0  0  0  0  0  0  0
   24.0087   -9.8561  -15.8610 C   0  0  2  0  0  0  0  0  0  0  0  0
   22.7561  -10.5494  -15.9919 N   0  0  0  0  0  0  0  0  0  0  0  0
   24.1625   -8.6656  -16.6994 C   0  0  0  0  0  0  0  0  0  0  0  0
   24.6584   -7.4635  -16.2822 O   0  0  0  0  0  0  0  0  0  0  0  0
   23.8089   -8.7529  -17.9132 O   0  0  0  0  0  0  0  0  0  0  0  0
  2  1  1  6
  3  4  1  0
  3  2  1  0
  4  5  2  0
  6  2  1  0
  6 11  1  0
  7  6  2  0
  8  4  1  0
 10 12  1  0
 10  9  1  1
 11 10  1  0
 12 19  1  0
 12 13  2  0
 15 14  1  1
 15 16  1  0
 17 15  1  0
 18 17  1  6
 19 18  1  0
 20 18  1  0
 21 20  1  0
 22 20  2  0
M  END
$$$$
