DAL.pdb
     RDKit          3D

 22 21  0  0  1  0  0  0  0  0999 V2000
   17.1778  -11.9319  -17.4910 N   0  0  0  0  0  0  0  0  0  0  0  0
   16.5623  -10.8159  -16.7727 C   0  0  1  0  0  0  0  0  0  0  0  0
   16.2061  -11.2339  -15.3531 C   0  0  0  0  0  0  0  0  0  0  0  0
   15.1307  -12.2442  -15.3224 C   0  0  0  0  0  0  0  0  0  0  0  0
   14.0683  -12.0227  -15.9256 O   0  0  0  0  0  0  0  0  0  0  0  0
   17.4900   -9.6631  -16.7745 C   0  0  0  0  0  0  0  0  0  0  0  0
   18.7170   -9.9020  -16.5514 O   0  0  0  0  0  0  0  0  0  0  0  0
   15.3135  -13.4149  -14.6259 O   0  0  0  0  0  0  0  0  0  0  0  0
   17.5571   -5.9721  -17.4149 C   0  0  0  0  0  0  0  0  0  0  0  0
   18.0961   -7.2816  -16.8809 C   0  0  2  0  0  0  0  0  0  0  0  0
   17.1152   -8.3239  -17.0038 N   0  0  0  0  0  0  0  0  0  0  0  0
   18.6985   -7.1776  -15.5444 C   0  0  0  0  0  0  0  0  0  0  0  0
   18.0639   -7.6532  -14.5423 O   0  0  0  0  0  0  0  0  0  0  0  0
   23.5207   -8.2973  -13.4624 C   0  0  0  0  0  0  0  0  0  0  0  0
   22.1535   -8.8784  -13.2825 C   0  0  1  0  0  0  0  0  0  0  0  0
   21.6797   -8.3924  -11.9053 C   0  0  0  0  0  0  0  0  0  0  0  0
   21.1680   -8.3918  -14.3070 C   0  0  0  0  0  0  0  0  0  0  0  0
   20.8146   -6.9328  -14.1748 C   0  0  2  0  0  0  0  0  0  0  0  0
   19.9481   -6.5831  -15.2674 N   0  0  0  0  0  0  0  0  0  0  0  0
   21.9543   -6.0388  -13.9613 C   0  0  0  0  0  0  0  0  0  0  0  0
   22.3537   -5.5416  -12.7536 O   0  0  0  0  0  0  0  0  0  0  0  0
   22.6299   -5.6960  -14.9771 O   0  0  0  0  0  0  0  0  0  0  0  0
  2  1  1  1
  3  4  1  0
  3  2  1  0
  4  5  2  0
  6  2  1  0
  6 11  1  0
  7  6  2  0
  8  4  1  0
 10 12  1  0
 10  9  1  1
 11 10  1  0
 12 19  1  0
 12 13  2  0
 15 14  1  6
 15 16  1  0
 17 15  1  0
 18 17  1  6
 19 18  1  0
 20 18  1  0
 21 20  1  0
 22 20  2  0
M  END
$$$$
