DAL.pdb
     RDKit          3D

 22 21  0  0  1  0  0  0  0  0999 V2000
   19.6166  -15.4941  -17.6832 N   0  0  0  0  0  0  0  0  0  0  0  0
   19.0686  -14.3125  -17.0170 C   0  0  1  0  0  0  0  0  0  0  0  0
   18.9183  -14.5699  -15.5244 C   0  0  0  0  0  0  0  0  0  0  0  0
   17.8415  -15.5355  -15.2306 C   0  0  0  0  0  0  0  0  0  0  0  0
   16.7532  -15.4333  -15.8196 O   0  0  0  0  0  0  0  0  0  0  0  0
   19.9519  -13.1535  -17.2741 C   0  0  0  0  0  0  0  0  0  0  0  0
   21.2036  -13.3663  -17.2879 O   0  0  0  0  0  0  0  0  0  0  0  0
   18.0516  -16.5328  -14.3085 O   0  0  0  0  0  0  0  0  0  0  0  0
   19.9166   -9.8592  -18.8548 C   0  0  0  0  0  0  0  0  0  0  0  0
   20.4668  -10.8094  -17.8132 C   0  0  2  0  0  0  0  0  0  0  0  0
   19.5098  -11.8349  -17.5034 N   0  0  0  0  0  0  0  0  0  0  0  0
   21.0323  -10.1388  -16.6340 C   0  0  0  0  0  0  0  0  0  0  0  0
   20.2946   -9.9756  -15.6034 O   0  0  0  0  0  0  0  0  0  0  0  0
   26.4962  -10.1896  -15.8294 C   0  0  0  0  0  0  0  0  0  0  0  0
   25.0037  -10.2314  -15.7287 C   0  0  1  0  0  0  0  0  0  0  0  0
   24.7014  -11.0355  -14.4562 C   0  0  0  0  0  0  0  0  0  0  0  0
   24.3864   -8.8707  -15.5715 C   0  0  0  0  0  0  0  0  0  0  0  0
   22.8849   -8.8885  -15.4432 C   0  0  2  0  0  0  0  0  0  0  0  0
   22.3524   -9.6485  -16.5413 N   0  0  0  0  0  0  0  0  0  0  0  0
   22.2688   -7.5785  -15.2240 C   0  0  0  0  0  0  0  0  0  0  0  0
   22.0725   -6.9909  -14.0068 O   0  0  0  0  0  0  0  0  0  0  0  0
   21.8854   -6.9320  -16.2442 O   0  0  0  0  0  0  0  0  0  0  0  0
  2  1  1  6
  3  4  1  0
  3  2  1  0
  4  5  2  0
  6  2  1  0
  6 11  1  0
  7  6  2  0
  8  4  1  0
 10 12  1  0
 10  9  1  6
 11 10  1  0
 12 19  1  0
 12 13  2  0
 15 14  1  1
 15 16  1  0
 17 15  1  0
 18 17  1  6
 19 18  1  0
 20 18  1  0
 21 20  1  0
 22 20  2  0
M  END
$$$$
