YCN.pdb
     RDKit          3D

 27 27  0  0  1  0  0  0  0  0999 V2000
   12.1400  -16.2792   32.0265 O   0  0  0  0  0  0  0  0  0  0  0  0
   11.5506  -16.1962   30.7617 C   0  0  0  0  0  0  0  0  0  0  0  0
   11.6589  -17.2302   29.8854 C   0  0  0  0  0  0  0  0  0  0  0  0
   11.0832  -17.1719   28.6248 C   0  0  0  0  0  0  0  0  0  0  0  0
   10.3871  -16.0474   28.2474 C   0  0  0  0  0  0  0  0  0  0  0  0
    9.7839  -16.0107   26.8952 C   0  0  0  0  0  0  0  0  0  0  0  0
    8.3155  -16.3950   26.9465 C   0  0  2  0  0  0  0  0  0  0  0  0
    8.2396  -17.8275   27.0962 N   0  0  0  0  0  0  0  0  0  0  0  0
    7.6848  -15.9758   25.6670 C   0  0  0  0  0  0  0  0  0  0  0  0
    7.5233  -16.8410   24.7478 O   0  0  0  0  0  0  0  0  0  0  0  0
   10.2781  -15.0018   29.1350 C   0  0  0  0  0  0  0  0  0  0  0  0
   10.8519  -15.0573   30.3944 C   0  0  0  0  0  0  0  0  0  0  0  0
    7.2513  -14.6449   25.4216 N   0  0  0  0  0  0  0  0  0  0  0  0
    6.9014  -14.1880   24.0937 C   0  0  1  0  0  0  0  0  0  0  0  0
    6.4810  -12.7235   24.1115 C   0  0  0  0  0  0  0  0  0  0  0  0
    5.4568  -12.3410   25.5373 S   0  0  0  0  0  0  0  0  0  0  0  0
    8.0327  -14.3810   23.1381 C   0  0  0  0  0  0  0  0  0  0  0  0
    9.0870  -13.7350   23.3354 O   0  0  0  0  0  0  0  0  0  0  0  0
   10.3452  -17.8212   23.2925 N   0  0  0  0  0  0  0  0  0  0  0  0
   10.5442  -16.8331   22.2736 C   0  0  0  0  0  0  0  0  0  0  0  0
   11.5206  -16.0744   22.4572 O   0  0  0  0  0  0  0  0  0  0  0  0
    9.6580  -16.7288   21.1019 C   0  0  0  0  0  0  0  0  0  0  0  0
    9.0341  -15.3724   21.0345 C   0  0  2  0  0  0  0  0  0  0  0  0
    7.9709  -15.2431   22.0411 N   0  0  0  0  0  0  0  0  0  0  0  0
    8.3389  -15.2356   19.7366 C   0  0  0  0  0  0  0  0  0  0  0  0
    8.9170  -15.2323   18.6338 O   0  0  0  0  0  0  0  0  0  0  0  0
    6.9625  -15.1010   19.7068 O   0  0  0  0  0  0  0  0  0  0  0  0
  1  2  1  0
  2  3  2  0
  3  4  1  0
  5  6  1  0
  5  4  2  0
  6  7  1  0
  7  8  1  6
  7  9  1  0
  9 13  1  0
  9 10  2  0
 11  5  1  0
 12 11  2  0
 12  2  1  0
 13 14  1  0
 14 15  1  1
 15 16  1  0
 17 14  1  0
 17 18  2  0
 19 20  1  0
 20 21  2  0
 22 20  1  0
 23 22  1  6
 23 24  1  0
 24 17  1  0
 25 23  1  0
 26 25  2  0
 27 25  1  0
M  END
$$$$
