YCN.pdb
     RDKit          3D

 27 27  0  0  1  0  0  0  0  0999 V2000
   10.6634  -14.7470   30.4878 O   0  0  0  0  0  0  0  0  0  0  0  0
    9.9868  -14.9908   29.2892 C   0  0  0  0  0  0  0  0  0  0  0  0
    9.5895  -13.9550   28.5030 C   0  0  0  0  0  0  0  0  0  0  0  0
    8.9166  -14.1709   27.3095 C   0  0  0  0  0  0  0  0  0  0  0  0
    8.6424  -15.4572   26.9074 C   0  0  0  0  0  0  0  0  0  0  0  0
    7.9211  -15.6594   25.6298 C   0  0  0  0  0  0  0  0  0  0  0  0
    8.8896  -15.9895   24.5074 C   0  0  2  0  0  0  0  0  0  0  0  0
    9.9112  -14.9716   24.4929 N   0  0  0  0  0  0  0  0  0  0  0  0
    8.1324  -15.9789   23.2279 C   0  0  0  0  0  0  0  0  0  0  0  0
    7.2628  -16.8844   23.0197 O   0  0  0  0  0  0  0  0  0  0  0  0
    9.0450  -16.5045   27.7037 C   0  0  0  0  0  0  0  0  0  0  0  0
    9.7171  -16.2918   28.8960 C   0  0  0  0  0  0  0  0  0  0  0  0
    8.3364  -14.9980   22.2201 N   0  0  0  0  0  0  0  0  0  0  0  0
    7.8140  -15.1591   20.8802 C   0  0  1  0  0  0  0  0  0  0  0  0
    7.0744  -13.9065   20.4264 C   0  0  0  0  0  0  0  0  0  0  0  0
    6.2982  -13.0543   21.8046 S   0  0  0  0  0  0  0  0  0  0  0  0
    8.9009  -15.4877   19.9101 C   0  0  0  0  0  0  0  0  0  0  0  0
    8.5835  -15.6869   18.7154 O   0  0  0  0  0  0  0  0  0  0  0  0
   10.5908  -12.6550   18.0989 N   0  0  0  0  0  0  0  0  0  0  0  0
   11.2366  -13.9130   17.8649 C   0  0  0  0  0  0  0  0  0  0  0  0
   11.0892  -14.3761   16.7131 O   0  0  0  0  0  0  0  0  0  0  0  0
   12.0134  -14.5996   18.9109 C   0  0  0  0  0  0  0  0  0  0  0  0
   11.3347  -15.8656   19.3232 C   0  0  2  0  0  0  0  0  0  0  0  0
   10.2469  -15.5827   20.2704 N   0  0  0  0  0  0  0  0  0  0  0  0
   12.2942  -16.6882   20.0908 C   0  0  0  0  0  0  0  0  0  0  0  0
   12.2264  -16.8720   21.3204 O   0  0  0  0  0  0  0  0  0  0  0  0
   13.3443  -17.3068   19.4363 O   0  0  0  0  0  0  0  0  0  0  0  0
  1  2  1  0
  2  3  2  0
  3  4  1  0
  5  6  1  0
  5  4  2  0
  6  7  1  0
  7  8  1  6
  7  9  1  0
  9 13  1  0
  9 10  2  0
 11  5  1  0
 12 11  2  0
 12  2  1  0
 13 14  1  0
 14 15  1  6
 15 16  1  0
 17 14  1  0
 17 18  2  0
 19 20  1  0
 20 21  2  0
 22 20  1  0
 23 22  1  1
 23 24  1  0
 24 17  1  0
 25 23  1  0
 26 25  2  0
 27 25  1  0
M  END
$$$$
