YCN.pdb
     RDKit          3D

 27 27  0  0  1  0  0  0  0  0999 V2000
    5.6039  -10.5047   28.1984 O   0  0  0  0  0  0  0  0  0  0  0  0
    6.2045  -11.5843   27.5447 C   0  0  0  0  0  0  0  0  0  0  0  0
    7.3989  -12.0695   27.9768 C   0  0  0  0  0  0  0  0  0  0  0  0
    8.0150  -13.1396   27.3450 C   0  0  0  0  0  0  0  0  0  0  0  0
    7.4102  -13.7265   26.2582 C   0  0  0  0  0  0  0  0  0  0  0  0
    8.0906  -14.8662   25.6011 C   0  0  0  0  0  0  0  0  0  0  0  0
    7.0822  -15.8966   25.1234 C   0  0  2  0  0  0  0  0  0  0  0  0
    7.0101  -16.9376   26.1190 N   0  0  0  0  0  0  0  0  0  0  0  0
    7.5667  -16.4507   23.8316 C   0  0  0  0  0  0  0  0  0  0  0  0
    8.2018  -17.5536   23.8344 O   0  0  0  0  0  0  0  0  0  0  0  0
    6.2016  -13.2348   25.8218 C   0  0  0  0  0  0  0  0  0  0  0  0
    5.5841  -12.1664   26.4508 C   0  0  0  0  0  0  0  0  0  0  0  0
    7.3523  -15.8013   22.5859 N   0  0  0  0  0  0  0  0  0  0  0  0
    8.1481  -16.1088   21.4170 C   0  0  1  0  0  0  0  0  0  0  0  0
    7.9562  -15.0569   20.3315 C   0  0  0  0  0  0  0  0  0  0  0  0
    8.8349  -15.4858   18.8242 S   0  0  0  0  0  0  0  0  0  0  0  0
    9.5964  -16.2254   21.7622 C   0  0  0  0  0  0  0  0  0  0  0  0
   10.0112  -15.6172   22.7750 O   0  0  0  0  0  0  0  0  0  0  0  0
   13.8937  -18.6146   24.0600 N   0  0  0  0  0  0  0  0  0  0  0  0
   13.2685  -18.7565   22.7781 C   0  0  0  0  0  0  0  0  0  0  0  0
   13.9754  -19.3021   21.9032 O   0  0  0  0  0  0  0  0  0  0  0  0
   11.8950  -18.2905   22.5221 C   0  0  0  0  0  0  0  0  0  0  0  0
   11.8828  -17.2631   21.4368 C   0  0  2  0  0  0  0  0  0  0  0  0
   10.5048  -16.9766   21.0132 N   0  0  0  0  0  0  0  0  0  0  0  0
   12.5315  -17.8349   20.2372 C   0  0  0  0  0  0  0  0  0  0  0  0
   11.9471  -18.5537   19.4054 O   0  0  0  0  0  0  0  0  0  0  0  0
   13.8681  -17.5767   19.9915 O   0  0  0  0  0  0  0  0  0  0  0  0
  1  2  1  0
  2  3  2  0
  3  4  1  0
  5  6  1  0
  5  4  2  0
  6  7  1  0
  7  8  1  1
  7  9  1  0
  9 13  1  0
  9 10  2  0
 11  5  1  0
 12 11  2  0
 12  2  1  0
 13 14  1  0
 14 15  1  6
 15 16  1  0
 17 14  1  0
 17 18  2  0
 19 20  1  0
 20 21  2  0
 22 20  1  0
 23 22  1  1
 23 24  1  0
 24 17  1  0
 25 23  1  0
 26 25  2  0
 27 25  1  0
M  END
$$$$
