YCN.pdb
     RDKit          3D

 27 27  0  0  1  0  0  0  0  0999 V2000
    7.2876  -12.7026   16.1201 O   0  0  0  0  0  0  0  0  0  0  0  0
    7.4986  -12.9701   17.4757 C   0  0  0  0  0  0  0  0  0  0  0  0
    8.7563  -12.9453   17.9920 C   0  0  0  0  0  0  0  0  0  0  0  0
    8.9916  -13.2074   19.3335 C   0  0  0  0  0  0  0  0  0  0  0  0
    7.9350  -13.4992   20.1641 C   0  0  0  0  0  0  0  0  0  0  0  0
    8.2145  -13.7769   21.5918 C   0  0  0  0  0  0  0  0  0  0  0  0
    9.0669  -15.0247   21.7440 C   0  0  2  0  0  0  0  0  0  0  0  0
    8.4288  -16.0873   21.0065 N   0  0  0  0  0  0  0  0  0  0  0  0
    9.1300  -15.3657   23.1898 C   0  0  0  0  0  0  0  0  0  0  0  0
    9.5357  -14.4841   24.0131 O   0  0  0  0  0  0  0  0  0  0  0  0
    6.6629  -13.5240   19.6406 C   0  0  0  0  0  0  0  0  0  0  0  0
    6.4250  -13.2626   18.3014 C   0  0  0  0  0  0  0  0  0  0  0  0
    8.7558  -16.6389   23.6980 N   0  0  0  0  0  0  0  0  0  0  0  0
    9.0940  -17.0544   25.0425 C   0  0  1  0  0  0  0  0  0  0  0  0
    7.9326  -16.8127   25.9988 C   0  0  0  0  0  0  0  0  0  0  0  0
    6.3555  -17.2475   25.2560 S   0  0  0  0  0  0  0  0  0  0  0  0
    9.4941  -18.4926   25.0812 C   0  0  0  0  0  0  0  0  0  0  0  0
    8.8091  -19.3123   24.4280 O   0  0  0  0  0  0  0  0  0  0  0  0
   14.4925  -19.7379   23.0865 N   0  0  0  0  0  0  0  0  0  0  0  0
   13.2059  -20.2445   23.4636 C   0  0  0  0  0  0  0  0  0  0  0  0
   13.0650  -21.4795   23.3309 O   0  0  0  0  0  0  0  0  0  0  0  0
   12.1370  -19.3661   23.9685 C   0  0  0  0  0  0  0  0  0  0  0  0
   11.6034  -19.8810   25.2661 C   0  0  2  0  0  0  0  0  0  0  0  0
   10.5901  -18.9641   25.8073 N   0  0  0  0  0  0  0  0  0  0  0  0
   12.6934  -19.8654   26.2652 C   0  0  0  0  0  0  0  0  0  0  0  0
   13.2246  -20.8900   26.7325 O   0  0  0  0  0  0  0  0  0  0  0  0
   13.1781  -18.6570   26.7324 O   0  0  0  0  0  0  0  0  0  0  0  0
  1  2  1  0
  2  3  2  0
  3  4  1  0
  5  6  1  0
  5  4  2  0
  6  7  1  0
  7  8  1  6
  7  9  1  0
  9 13  1  0
  9 10  2  0
 11  5  1  0
 12 11  2  0
 12  2  1  0
 13 14  1  0
 14 15  1  1
 15 16  1  0
 17 14  1  0
 17 18  2  0
 19 20  1  0
 20 21  2  0
 22 20  1  0
 23 22  1  6
 23 24  1  0
 24 17  1  0
 25 23  1  0
 26 25  2  0
 27 25  1  0
M  END
$$$$
