YCN.pdb
     RDKit          3D

 27 27  0  0  1  0  0  0  0  0999 V2000
   11.4119  -15.2218   29.6537 O   0  0  0  0  0  0  0  0  0  0  0  0
   10.2708  -15.2126   28.8465 C   0  0  0  0  0  0  0  0  0  0  0  0
   10.0014  -14.1426   28.0519 C   0  0  0  0  0  0  0  0  0  0  0  0
    8.8758  -14.1094   27.2422 C   0  0  0  0  0  0  0  0  0  0  0  0
    8.0101  -15.1781   27.2385 C   0  0  0  0  0  0  0  0  0  0  0  0
    6.8148  -15.1159   26.3660 C   0  0  0  0  0  0  0  0  0  0  0  0
    6.6317  -16.4174   25.6049 C   0  0  2  0  0  0  0  0  0  0  0  0
    7.1466  -17.4850   26.4266 N   0  0  0  0  0  0  0  0  0  0  0  0
    7.4045  -16.3226   24.3382 C   0  0  0  0  0  0  0  0  0  0  0  0
    8.3657  -17.1332   24.1414 O   0  0  0  0  0  0  0  0  0  0  0  0
    8.2837  -16.2602   28.0428 C   0  0  0  0  0  0  0  0  0  0  0  0
    9.4070  -16.2960   28.8524 C   0  0  0  0  0  0  0  0  0  0  0  0
    7.1175  -15.3624   23.3307 N   0  0  0  0  0  0  0  0  0  0  0  0
    7.8370  -15.3339   22.0753 C   0  0  1  0  0  0  0  0  0  0  0  0
    7.3604  -14.1836   21.1970 C   0  0  0  0  0  0  0  0  0  0  0  0
    7.9522  -14.3445   19.5082 S   0  0  0  0  0  0  0  0  0  0  0  0
    9.3101  -15.2283   22.2968 C   0  0  0  0  0  0  0  0  0  0  0  0
    9.7110  -14.5952   23.2999 O   0  0  0  0  0  0  0  0  0  0  0  0
   12.5569  -15.3215   24.3088 N   0  0  0  0  0  0  0  0  0  0  0  0
   12.0960  -16.6740   24.1976 C   0  0  0  0  0  0  0  0  0  0  0  0
   12.1863  -17.3506   25.2449 O   0  0  0  0  0  0  0  0  0  0  0  0
   11.5579  -17.2156   22.9382 C   0  0  0  0  0  0  0  0  0  0  0  0
   11.6129  -16.1848   21.8574 C   0  0  2  0  0  0  0  0  0  0  0  0
   10.2565  -15.7993   21.4429 N   0  0  0  0  0  0  0  0  0  0  0  0
   12.2129  -16.7954   20.6517 C   0  0  0  0  0  0  0  0  0  0  0  0
   11.8509  -17.8845   20.1689 O   0  0  0  0  0  0  0  0  0  0  0  0
   13.2415  -16.1455   19.9934 O   0  0  0  0  0  0  0  0  0  0  0  0
  1  2  1  0
  2  3  2  0
  3  4  1  0
  5  6  1  0
  5  4  2  0
  6  7  1  0
  7  8  1  1
  7  9  1  0
  9 13  1  0
  9 10  2  0
 11  5  1  0
 12 11  2  0
 12  2  1  0
 13 14  1  0
 14 15  1  6
 15 16  1  0
 17 14  1  0
 17 18  2  0
 19 20  1  0
 20 21  2  0
 22 20  1  0
 23 22  1  1
 23 24  1  0
 24 17  1  0
 25 23  1  0
 26 25  2  0
 27 25  1  0
M  END
$$$$
