YCN.pdb
     RDKit          3D

 27 27  0  0  1  0  0  0  0  0999 V2000
   10.3392  -14.4362   30.4312 O   0  0  0  0  0  0  0  0  0  0  0  0
   10.1085  -14.5774   29.0598 C   0  0  0  0  0  0  0  0  0  0  0  0
    9.4798  -13.5921   28.3651 C   0  0  0  0  0  0  0  0  0  0  0  0
    9.2392  -13.7085   27.0040 C   0  0  0  0  0  0  0  0  0  0  0  0
    9.6423  -14.8420   26.3376 C   0  0  0  0  0  0  0  0  0  0  0  0
    9.3713  -14.9414   24.8849 C   0  0  0  0  0  0  0  0  0  0  0  0
    7.9278  -15.3386   24.6293 C   0  0  2  0  0  0  0  0  0  0  0  0
    7.7298  -16.6579   25.1774 N   0  0  0  0  0  0  0  0  0  0  0  0
    7.7075  -15.3524   23.1590 C   0  0  0  0  0  0  0  0  0  0  0  0
    7.6281  -16.4719   22.5588 O   0  0  0  0  0  0  0  0  0  0  0  0
   10.2784  -15.8384   27.0416 C   0  0  0  0  0  0  0  0  0  0  0  0
   10.5200  -15.7247   28.4007 C   0  0  0  0  0  0  0  0  0  0  0  0
    7.5808  -14.1655   22.3878 N   0  0  0  0  0  0  0  0  0  0  0  0
    7.5690  -14.1921   20.9409 C   0  0  1  0  0  0  0  0  0  0  0  0
    7.3321  -12.7996   20.3695 C   0  0  0  0  0  0  0  0  0  0  0  0
    7.3614  -12.8020   18.5730 S   0  0  0  0  0  0  0  0  0  0  0  0
    8.8415  -14.7549   20.3984 C   0  0  0  0  0  0  0  0  0  0  0  0
    8.8901  -15.0315   19.1782 O   0  0  0  0  0  0  0  0  0  0  0  0
   14.2174  -14.6552   19.4589 N   0  0  0  0  0  0  0  0  0  0  0  0
   13.6848  -15.0117   20.7409 C   0  0  0  0  0  0  0  0  0  0  0  0
   14.4200  -15.7498   21.4316 O   0  0  0  0  0  0  0  0  0  0  0  0
   12.3680  -14.5376   21.1997 C   0  0  0  0  0  0  0  0  0  0  0  0
   11.2782  -15.3969   20.6454 C   0  0  2  0  0  0  0  0  0  0  0  0
    9.9734  -14.9861   21.1832 N   0  0  0  0  0  0  0  0  0  0  0  0
   11.4678  -16.7780   21.1388 C   0  0  0  0  0  0  0  0  0  0  0  0
   10.9961  -17.2063   22.2085 O   0  0  0  0  0  0  0  0  0  0  0  0
   12.2088  -17.6770   20.3929 O   0  0  0  0  0  0  0  0  0  0  0  0
  1  2  1  0
  2  3  2  0
  3  4  1  0
  5  6  1  0
  5  4  2  0
  6  7  1  0
  7  8  1  6
  7  9  1  0
  9 13  1  0
  9 10  2  0
 11  5  1  0
 12 11  2  0
 12  2  1  0
 13 14  1  0
 14 15  1  6
 15 16  1  0
 17 14  1  0
 17 18  2  0
 19 20  1  0
 20 21  2  0
 22 20  1  0
 23 22  1  1
 23 24  1  0
 24 17  1  0
 25 23  1  0
 26 25  2  0
 27 25  1  0
M  END
$$$$
