YCN.pdb
     RDKit          3D

 27 27  0  0  1  0  0  0  0  0999 V2000
    5.3129  -10.6639   28.1841 O   0  0  0  0  0  0  0  0  0  0  0  0
    6.0299  -11.6389   27.4847 C   0  0  0  0  0  0  0  0  0  0  0  0
    5.6232  -12.0348   26.2491 C   0  0  0  0  0  0  0  0  0  0  0  0
    6.3174  -13.0003   25.5351 C   0  0  0  0  0  0  0  0  0  0  0  0
    7.4415  -13.5729   26.0830 C   0  0  0  0  0  0  0  0  0  0  0  0
    8.1628  -14.6026   25.3001 C   0  0  0  0  0  0  0  0  0  0  0  0
    7.1956  -15.6247   24.7287 C   0  0  2  0  0  0  0  0  0  0  0  0
    6.8891  -16.5728   25.7714 N   0  0  0  0  0  0  0  0  0  0  0  0
    7.8664  -16.3078   23.5912 C   0  0  0  0  0  0  0  0  0  0  0  0
    8.4228  -17.4348   23.7914 O   0  0  0  0  0  0  0  0  0  0  0  0
    7.8521  -13.1714   27.3332 C   0  0  0  0  0  0  0  0  0  0  0  0
    7.1608  -12.2075   28.0484 C   0  0  0  0  0  0  0  0  0  0  0  0
    7.9154  -15.7567   22.2822 N   0  0  0  0  0  0  0  0  0  0  0  0
    8.5808  -16.4364   21.1915 C   0  0  1  0  0  0  0  0  0  0  0  0
    8.3298  -15.7244   19.8680 C   0  0  0  0  0  0  0  0  0  0  0  0
    6.5755  -15.5968   19.5015 S   0  0  0  0  0  0  0  0  0  0  0  0
   10.0494  -16.5491   21.4381 C   0  0  0  0  0  0  0  0  0  0  0  0
   10.6702  -15.5167   21.7793 O   0  0  0  0  0  0  0  0  0  0  0  0
   10.9713  -19.8761   24.2520 N   0  0  0  0  0  0  0  0  0  0  0  0
   11.9966  -19.0256   23.7233 C   0  0  0  0  0  0  0  0  0  0  0  0
   12.4525  -18.1848   24.5282 O   0  0  0  0  0  0  0  0  0  0  0  0
   12.4701  -19.1428   22.3336 C   0  0  0  0  0  0  0  0  0  0  0  0
   12.1972  -17.8826   21.5780 C   0  0  2  0  0  0  0  0  0  0  0  0
   10.7592  -17.7448   21.3070 N   0  0  0  0  0  0  0  0  0  0  0  0
   12.8211  -17.9881   20.2414 C   0  0  0  0  0  0  0  0  0  0  0  0
   12.1796  -18.0406   19.1756 O   0  0  0  0  0  0  0  0  0  0  0  0
   14.1991  -18.0339   20.1295 O   0  0  0  0  0  0  0  0  0  0  0  0
  1  2  1  0
  2  3  2  0
  3  4  1  0
  5  6  1  0
  5  4  2  0
  6  7  1  0
  7  8  1  1
  7  9  1  0
  9 13  1  0
  9 10  2  0
 11  5  1  0
 12 11  2  0
 12  2  1  0
 13 14  1  0
 14 15  1  6
 15 16  1  0
 17 14  1  0
 17 18  2  0
 19 20  1  0
 20 21  2  0
 22 20  1  0
 23 22  1  1
 23 24  1  0
 24 17  1  0
 25 23  1  0
 26 25  2  0
 27 25  1  0
M  END
$$$$
