YCN.pdb
     RDKit          3D

 27 27  0  0  1  0  0  0  0  0999 V2000
    6.7117  -18.3572   13.8310 O   0  0  0  0  0  0  0  0  0  0  0  0
    7.3347  -18.0676   15.0482 C   0  0  0  0  0  0  0  0  0  0  0  0
    6.5896  -17.8217   16.1587 C   0  0  0  0  0  0  0  0  0  0  0  0
    7.1841  -17.5320   17.3779 C   0  0  0  0  0  0  0  0  0  0  0  0
    8.5556  -17.4908   17.4720 C   0  0  0  0  0  0  0  0  0  0  0  0
    9.1644  -17.1772   18.7852 C   0  0  0  0  0  0  0  0  0  0  0  0
    8.9598  -15.7150   19.1416 C   0  0  2  0  0  0  0  0  0  0  0  0
    9.6759  -14.9208   18.1739 N   0  0  0  0  0  0  0  0  0  0  0  0
    9.5129  -15.4913   20.5035 C   0  0  0  0  0  0  0  0  0  0  0  0
   10.7753  -15.4303   20.6528 O   0  0  0  0  0  0  0  0  0  0  0  0
    9.3085  -17.7398   16.3478 C   0  0  0  0  0  0  0  0  0  0  0  0
    8.7175  -18.0294   15.1290 C   0  0  0  0  0  0  0  0  0  0  0  0
    8.6916  -15.3417   21.6535 N   0  0  0  0  0  0  0  0  0  0  0  0
    9.2531  -15.1582   22.9747 C   0  0  1  0  0  0  0  0  0  0  0  0
    8.2503  -14.4915   23.9082 C   0  0  0  0  0  0  0  0  0  0  0  0
    6.6071  -15.1976   23.7360 S   0  0  0  0  0  0  0  0  0  0  0  0
    9.7049  -16.4571   23.5572 C   0  0  0  0  0  0  0  0  0  0  0  0
    9.1142  -17.5009   23.1976 O   0  0  0  0  0  0  0  0  0  0  0  0
   13.7335  -20.2503   24.6438 N   0  0  0  0  0  0  0  0  0  0  0  0
   13.3188  -19.1099   25.4065 C   0  0  0  0  0  0  0  0  0  0  0  0
   13.4669  -19.2192   26.6429 O   0  0  0  0  0  0  0  0  0  0  0  0
   12.7612  -17.9044   24.7701 C   0  0  0  0  0  0  0  0  0  0  0  0
   11.2825  -17.8378   24.9767 C   0  0  2  0  0  0  0  0  0  0  0  0
   10.7491  -16.5620   24.4787 N   0  0  0  0  0  0  0  0  0  0  0  0
   11.0086  -17.8159   26.4297 C   0  0  0  0  0  0  0  0  0  0  0  0
   11.0085  -18.8288   27.1537 O   0  0  0  0  0  0  0  0  0  0  0  0
   10.7315  -16.6147   27.0572 O   0  0  0  0  0  0  0  0  0  0  0  0
  1  2  1  0
  2  3  2  0
  3  4  1  0
  5  6  1  0
  5  4  2  0
  6  7  1  0
  7  8  1  6
  7  9  1  0
  9 13  1  0
  9 10  2  0
 11  5  1  0
 12 11  2  0
 12  2  1  0
 13 14  1  0
 14 15  1  1
 15 16  1  0
 17 14  1  0
 17 18  2  0
 19 20  1  0
 20 21  2  0
 22 20  1  0
 23 22  1  1
 23 24  1  0
 24 17  1  0
 25 23  1  0
 26 25  2  0
 27 25  1  0
M  END
$$$$
