YCN.pdb
     RDKit          3D

 27 27  0  0  1  0  0  0  0  0999 V2000
    7.9954  -12.1254   17.3432 O   0  0  0  0  0  0  0  0  0  0  0  0
    8.0346  -12.8936   18.5103 C   0  0  0  0  0  0  0  0  0  0  0  0
    6.9049  -13.0880   19.2416 C   0  0  0  0  0  0  0  0  0  0  0  0
    6.9179  -13.8460   20.4031 C   0  0  0  0  0  0  0  0  0  0  0  0
    8.0950  -14.4154   20.8294 C   0  0  0  0  0  0  0  0  0  0  0  0
    8.0813  -15.2183   22.0739 C   0  0  0  0  0  0  0  0  0  0  0  0
    8.1084  -16.7041   21.7601 C   0  0  2  0  0  0  0  0  0  0  0  0
    6.8048  -17.0744   21.2664 N   0  0  0  0  0  0  0  0  0  0  0  0
    8.4100  -17.4351   23.0191 C   0  0  0  0  0  0  0  0  0  0  0  0
    7.4812  -17.5985   23.8738 O   0  0  0  0  0  0  0  0  0  0  0  0
    9.2374  -14.2181   20.0886 C   0  0  0  0  0  0  0  0  0  0  0  0
    9.2273  -13.4617   18.9283 C   0  0  0  0  0  0  0  0  0  0  0  0
    9.6959  -17.9632   23.3142 N   0  0  0  0  0  0  0  0  0  0  0  0
    9.9926  -18.5857   24.5866 C   0  0  1  0  0  0  0  0  0  0  0  0
   10.9961  -19.7202   24.4204 C   0  0  0  0  0  0  0  0  0  0  0  0
   11.5533  -20.3554   26.0060 S   0  0  0  0  0  0  0  0  0  0  0  0
   10.5102  -17.5887   25.5706 C   0  0  0  0  0  0  0  0  0  0  0  0
   11.3589  -16.7572   25.1755 O   0  0  0  0  0  0  0  0  0  0  0  0
    9.3177  -13.4987   29.6909 N   0  0  0  0  0  0  0  0  0  0  0  0
   10.1130  -14.5789   29.1862 C   0  0  0  0  0  0  0  0  0  0  0  0
   11.2742  -14.6392   29.6453 O   0  0  0  0  0  0  0  0  0  0  0  0
    9.5906  -15.5403   28.2003 C   0  0  0  0  0  0  0  0  0  0  0  0
   10.6138  -16.5854   27.8930 C   0  0  2  0  0  0  0  0  0  0  0  0
   10.0947  -17.5400   26.9031 N   0  0  0  0  0  0  0  0  0  0  0  0
   10.8427  -17.3952   29.1089 C   0  0  0  0  0  0  0  0  0  0  0  0
   10.3630  -18.5297   29.2907 O   0  0  0  0  0  0  0  0  0  0  0  0
   11.6326  -16.8940   30.1279 O   0  0  0  0  0  0  0  0  0  0  0  0
  1  2  1  0
  2  3  2  0
  3  4  1  0
  5  6  1  0
  5  4  2  0
  6  7  1  0
  7  8  1  1
  7  9  1  0
  9 13  1  0
  9 10  2  0
 11  5  1  0
 12 11  2  0
 12  2  1  0
 13 14  1  0
 14 15  1  6
 15 16  1  0
 17 14  1  0
 17 18  2  0
 19 20  1  0
 20 21  2  0
 22 20  1  0
 23 22  1  1
 23 24  1  0
 24 17  1  0
 25 23  1  0
 26 25  2  0
 27 25  1  0
M  END
$$$$
