YCN.pdb
     RDKit          3D

 27 27  0  0  1  0  0  0  0  0999 V2000
   11.6227  -19.9015   30.1133 O   0  0  0  0  0  0  0  0  0  0  0  0
   12.0881  -19.5901   28.8326 C   0  0  0  0  0  0  0  0  0  0  0  0
   11.5003  -18.5983   28.1117 C   0  0  0  0  0  0  0  0  0  0  0  0
   11.9436  -18.2705   26.8389 C   0  0  0  0  0  0  0  0  0  0  0  0
   12.9993  -18.9595   26.2890 C   0  0  0  0  0  0  0  0  0  0  0  0
   13.4513  -18.5905   24.9277 C   0  0  0  0  0  0  0  0  0  0  0  0
   12.2954  -18.6325   23.9434 C   0  0  2  0  0  0  0  0  0  0  0  0
   11.7322  -19.9597   23.9808 N   0  0  0  0  0  0  0  0  0  0  0  0
   12.8332  -18.3382   22.5888 C   0  0  0  0  0  0  0  0  0  0  0  0
   13.3173  -19.2914   21.8983 O   0  0  0  0  0  0  0  0  0  0  0  0
   13.5933  -19.9627   27.0194 C   0  0  0  0  0  0  0  0  0  0  0  0
   13.1527  -20.2921   28.2906 C   0  0  0  0  0  0  0  0  0  0  0  0
   12.8318  -17.0334   22.0261 N   0  0  0  0  0  0  0  0  0  0  0  0
   13.2828  -16.7840   20.6737 C   0  0  1  0  0  0  0  0  0  0  0  0
   12.4389  -15.7060   20.0050 C   0  0  0  0  0  0  0  0  0  0  0  0
   10.6807  -16.0374   20.1698 S   0  0  0  0  0  0  0  0  0  0  0  0
   14.7237  -16.3924   20.6460 C   0  0  0  0  0  0  0  0  0  0  0  0
   15.0935  -15.4549   21.3891 O   0  0  0  0  0  0  0  0  0  0  0  0
   17.1728  -19.2381   22.4388 N   0  0  0  0  0  0  0  0  0  0  0  0
   17.7308  -18.0650   21.8333 C   0  0  0  0  0  0  0  0  0  0  0  0
   18.0884  -17.1756   22.6358 O   0  0  0  0  0  0  0  0  0  0  0  0
   17.8679  -17.9285   20.3733 C   0  0  0  0  0  0  0  0  0  0  0  0
   17.1140  -16.7343   19.8845 C   0  0  2  0  0  0  0  0  0  0  0  0
   15.6728  -17.0188   19.8353 N   0  0  0  0  0  0  0  0  0  0  0  0
   17.4929  -16.4790   18.4781 C   0  0  0  0  0  0  0  0  0  0  0  0
   17.1288  -17.1854   17.5196 O   0  0  0  0  0  0  0  0  0  0  0  0
   18.3001  -15.3986   18.1706 O   0  0  0  0  0  0  0  0  0  0  0  0
  1  2  1  0
  2  3  2  0
  3  4  1  0
  5  6  1  0
  5  4  2  0
  6  7  1  0
  7  8  1  6
  7  9  1  0
  9 13  1  0
  9 10  2  0
 11  5  1  0
 12 11  2  0
 12  2  1  0
 13 14  1  0
 14 15  1  1
 15 16  1  0
 17 14  1  0
 17 18  2  0
 19 20  1  0
 20 21  2  0
 22 20  1  0
 23 22  1  6
 23 24  1  0
 24 17  1  0
 25 23  1  0
 26 25  2  0
 27 25  1  0
M  END
$$$$
