YCN.pdb
     RDKit          3D

 27 27  0  0  1  0  0  0  0  0999 V2000
    7.6730  -14.0723   14.7116 O   0  0  0  0  0  0  0  0  0  0  0  0
    7.7873  -13.9640   16.1005 C   0  0  0  0  0  0  0  0  0  0  0  0
    8.5250  -14.8667   16.8004 C   0  0  0  0  0  0  0  0  0  0  0  0
    8.6536  -14.7808   18.1787 C   0  0  0  0  0  0  0  0  0  0  0  0
    8.0244  -13.7637   18.8576 C   0  0  0  0  0  0  0  0  0  0  0  0
    8.1767  -13.6964   20.3293 C   0  0  0  0  0  0  0  0  0  0  0  0
    8.1383  -15.0857   20.9417 C   0  0  2  0  0  0  0  0  0  0  0  0
    6.7839  -15.5721   20.8471 N   0  0  0  0  0  0  0  0  0  0  0  0
    8.5474  -14.9722   22.3667 C   0  0  0  0  0  0  0  0  0  0  0  0
    8.6030  -13.8185   22.9011 O   0  0  0  0  0  0  0  0  0  0  0  0
    7.2783  -12.8508   18.1484 C   0  0  0  0  0  0  0  0  0  0  0  0
    7.1481  -12.9341   16.7719 C   0  0  0  0  0  0  0  0  0  0  0  0
    8.8814  -16.0997   23.1645 N   0  0  0  0  0  0  0  0  0  0  0  0
    9.3373  -15.9607   24.5309 C   0  0  1  0  0  0  0  0  0  0  0  0
    8.1753  -15.6530   25.4673 C   0  0  0  0  0  0  0  0  0  0  0  0
    6.8733  -14.7358   24.6355 S   0  0  0  0  0  0  0  0  0  0  0  0
   10.0509  -17.1888   24.9922 C   0  0  0  0  0  0  0  0  0  0  0  0
    9.5234  -18.2998   24.7571 O   0  0  0  0  0  0  0  0  0  0  0  0
   15.1578  -19.5370   24.7695 N   0  0  0  0  0  0  0  0  0  0  0  0
   14.5860  -18.8683   25.9009 C   0  0  0  0  0  0  0  0  0  0  0  0
   14.9581  -19.3004   27.0134 O   0  0  0  0  0  0  0  0  0  0  0  0
   13.6321  -17.7562   25.7519 C   0  0  0  0  0  0  0  0  0  0  0  0
   12.2304  -18.2712   25.6914 C   0  0  2  0  0  0  0  0  0  0  0  0
   11.2720  -17.1571   25.6694 N   0  0  0  0  0  0  0  0  0  0  0  0
   11.9368  -18.9920   26.9488 C   0  0  0  0  0  0  0  0  0  0  0  0
   11.1806  -18.5603   27.8388 O   0  0  0  0  0  0  0  0  0  0  0  0
   12.5200  -20.2239   27.1853 O   0  0  0  0  0  0  0  0  0  0  0  0
  1  2  1  0
  2  3  2  0
  3  4  1  0
  5  6  1  0
  5  4  2  0
  6  7  1  0
  7  8  1  1
  7  9  1  0
  9 13  1  0
  9 10  2  0
 11  5  1  0
 12 11  2  0
 12  2  1  0
 13 14  1  0
 14 15  1  1
 15 16  1  0
 17 14  1  0
 17 18  2  0
 19 20  1  0
 20 21  2  0
 22 20  1  0
 23 22  1  1
 23 24  1  0
 24 17  1  0
 25 23  1  0
 26 25  2  0
 27 25  1  0
M  END
$$$$
