YCN.pdb
     RDKit          3D

 27 27  0  0  1  0  0  0  0  0999 V2000
   10.6631  -18.2878   10.6939 O   0  0  0  0  0  0  0  0  0  0  0  0
   10.8940  -17.7715   11.9722 C   0  0  0  0  0  0  0  0  0  0  0  0
   10.4973  -16.5089   12.2838 C   0  0  0  0  0  0  0  0  0  0  0  0
   10.7150  -15.9739   13.5448 C   0  0  0  0  0  0  0  0  0  0  0  0
   11.3449  -16.7314   14.5045 C   0  0  0  0  0  0  0  0  0  0  0  0
   11.5665  -16.1353   15.8420 C   0  0  0  0  0  0  0  0  0  0  0  0
   10.6248  -16.7415   16.8679 C   0  0  2  0  0  0  0  0  0  0  0  0
    9.2887  -16.2963   16.5573 N   0  0  0  0  0  0  0  0  0  0  0  0
   11.0320  -16.2531   18.2119 C   0  0  0  0  0  0  0  0  0  0  0  0
   10.7954  -15.0423   18.5247 O   0  0  0  0  0  0  0  0  0  0  0  0
   11.7458  -18.0090   14.1880 C   0  0  0  0  0  0  0  0  0  0  0  0
   11.5297  -18.5457   12.9296 C   0  0  0  0  0  0  0  0  0  0  0  0
   11.6776  -17.0812   19.1695 N   0  0  0  0  0  0  0  0  0  0  0  0
   12.0768  -16.5804   20.4673 C   0  0  1  0  0  0  0  0  0  0  0  0
   11.3866  -17.3494   21.5871 C   0  0  0  0  0  0  0  0  0  0  0  0
    9.6093  -17.0860   21.5801 S   0  0  0  0  0  0  0  0  0  0  0  0
   13.5584  -16.6474   20.6421 C   0  0  0  0  0  0  0  0  0  0  0  0
   14.1512  -17.6794   20.2534 O   0  0  0  0  0  0  0  0  0  0  0  0
   15.0979  -12.7237   19.2631 N   0  0  0  0  0  0  0  0  0  0  0  0
   15.9787  -13.8107   19.5745 C   0  0  0  0  0  0  0  0  0  0  0  0
   16.4695  -14.3932   18.5833 O   0  0  0  0  0  0  0  0  0  0  0  0
   16.2762  -14.2030   20.9625 C   0  0  0  0  0  0  0  0  0  0  0  0
   15.7792  -15.5858   21.2353 C   0  0  2  0  0  0  0  0  0  0  0  0
   14.3099  -15.6191   21.2154 N   0  0  0  0  0  0  0  0  0  0  0  0
   16.1428  -15.9543   22.6205 C   0  0  0  0  0  0  0  0  0  0  0  0
   17.3139  -16.0322   23.0358 O   0  0  0  0  0  0  0  0  0  0  0  0
   15.1474  -16.2366   23.5387 O   0  0  0  0  0  0  0  0  0  0  0  0
  1  2  1  0
  2  3  2  0
  3  4  1  0
  5  6  1  0
  5  4  2  0
  6  7  1  0
  7  8  1  6
  7  9  1  0
  9 13  1  0
  9 10  2  0
 11  5  1  0
 12 11  2  0
 12  2  1  0
 13 14  1  0
 14 15  1  1
 15 16  1  0
 17 14  1  0
 17 18  2  0
 19 20  1  0
 20 21  2  0
 22 20  1  0
 23 22  1  1
 23 24  1  0
 24 17  1  0
 25 23  1  0
 26 25  2  0
 27 25  1  0
M  END
$$$$
