YCN.pdb
     RDKit          3D

 27 27  0  0  1  0  0  0  0  0999 V2000
    4.1479  -22.4105   21.0330 O   0  0  0  0  0  0  0  0  0  0  0  0
    4.9262  -21.4012   21.6068 C   0  0  0  0  0  0  0  0  0  0  0  0
    4.3339  -20.3650   22.2582 C   0  0  0  0  0  0  0  0  0  0  0  0
    5.0841  -19.3514   22.8358 C   0  0  0  0  0  0  0  0  0  0  0  0
    6.4563  -19.3895   22.7512 C   0  0  0  0  0  0  0  0  0  0  0  0
    7.2332  -18.2936   23.3750 C   0  0  0  0  0  0  0  0  0  0  0  0
    7.0150  -16.9856   22.6345 C   0  0  2  0  0  0  0  0  0  0  0  0
    7.6555  -17.0957   21.3469 N   0  0  0  0  0  0  0  0  0  0  0  0
    7.6401  -15.8962   23.4302 C   0  0  0  0  0  0  0  0  0  0  0  0
    8.8922  -15.6952   23.3218 O   0  0  0  0  0  0  0  0  0  0  0  0
    7.0546  -20.4384   22.0919 C   0  0  0  0  0  0  0  0  0  0  0  0
    6.3079  -21.4520   21.5143 C   0  0  0  0  0  0  0  0  0  0  0  0
    6.8993  -15.0638   24.3120 N   0  0  0  0  0  0  0  0  0  0  0  0
    7.5495  -14.1991   25.2732 C   0  0  1  0  0  0  0  0  0  0  0  0
    6.5483  -13.2518   25.9229 C   0  0  0  0  0  0  0  0  0  0  0  0
    7.2666  -12.3766   27.3180 S   0  0  0  0  0  0  0  0  0  0  0  0
    8.2565  -14.9908   26.3237 C   0  0  0  0  0  0  0  0  0  0  0  0
    7.6749  -15.9937   26.7965 O   0  0  0  0  0  0  0  0  0  0  0  0
   12.7668  -17.9436   27.0031 N   0  0  0  0  0  0  0  0  0  0  0  0
   12.7124  -16.5514   27.3394 C   0  0  0  0  0  0  0  0  0  0  0  0
   13.5254  -16.1878   28.2166 O   0  0  0  0  0  0  0  0  0  0  0  0
   11.7652  -15.6274   26.6929 C   0  0  0  0  0  0  0  0  0  0  0  0
   10.4520  -15.6375   27.4064 C   0  0  2  0  0  0  0  0  0  0  0  0
    9.5286  -14.6674   26.8011 N   0  0  0  0  0  0  0  0  0  0  0  0
   10.6594  -15.1459   28.7856 C   0  0  0  0  0  0  0  0  0  0  0  0
   10.3844  -13.9915   29.1622 O   0  0  0  0  0  0  0  0  0  0  0  0
   11.1895  -15.9923   29.7428 O   0  0  0  0  0  0  0  0  0  0  0  0
  1  2  1  0
  2  3  2  0
  3  4  1  0
  5  6  1  0
  5  4  2  0
  6  7  1  0
  7  8  1  6
  7  9  1  0
  9 13  1  0
  9 10  2  0
 11  5  1  0
 12 11  2  0
 12  2  1  0
 13 14  1  0
 14 15  1  1
 15 16  1  0
 17 14  1  0
 17 18  2  0
 19 20  1  0
 20 21  2  0
 22 20  1  0
 23 22  1  6
 23 24  1  0
 24 17  1  0
 25 23  1  0
 26 25  2  0
 27 25  1  0
M  END
$$$$
