YCN.pdb
     RDKit          3D

 27 27  0  0  1  0  0  0  0  0999 V2000
    6.5546  -19.9091   11.7408 O   0  0  0  0  0  0  0  0  0  0  0  0
    7.2263  -19.0017   12.5650 C   0  0  0  0  0  0  0  0  0  0  0  0
    7.3081  -19.2222   13.9043 C   0  0  0  0  0  0  0  0  0  0  0  0
    7.9688  -18.3369   14.7430 C   0  0  0  0  0  0  0  0  0  0  0  0
    8.5555  -17.2106   14.2152 C   0  0  0  0  0  0  0  0  0  0  0  0
    9.2530  -16.2810   15.1333 C   0  0  0  0  0  0  0  0  0  0  0  0
    8.2859  -15.2610   15.7088 C   0  0  2  0  0  0  0  0  0  0  0  0
    7.9591  -14.3239   14.6623 N   0  0  0  0  0  0  0  0  0  0  0  0
    8.9665  -14.5636   16.8317 C   0  0  0  0  0  0  0  0  0  0  0  0
    9.6923  -13.5496   16.5772 O   0  0  0  0  0  0  0  0  0  0  0  0
    8.4722  -16.9885   12.8599 C   0  0  0  0  0  0  0  0  0  0  0  0
    7.8131  -17.8709   12.0200 C   0  0  0  0  0  0  0  0  0  0  0  0
    8.8435  -14.9799   18.1849 N   0  0  0  0  0  0  0  0  0  0  0  0
    9.4213  -14.2211   19.2733 C   0  0  1  0  0  0  0  0  0  0  0  0
    8.3371  -13.5679   20.1216 C   0  0  0  0  0  0  0  0  0  0  0  0
    7.0968  -14.7560   20.6492 S   0  0  0  0  0  0  0  0  0  0  0  0
   10.2906  -15.0799   20.1317 C   0  0  0  0  0  0  0  0  0  0  0  0
    9.9786  -16.2849   20.2666 O   0  0  0  0  0  0  0  0  0  0  0  0
   14.5125  -13.1910   19.9568 N   0  0  0  0  0  0  0  0  0  0  0  0
   14.3237  -14.5127   20.4781 C   0  0  0  0  0  0  0  0  0  0  0  0
   14.7682  -15.4329   19.7582 O   0  0  0  0  0  0  0  0  0  0  0  0
   13.6543  -14.7564   21.7672 C   0  0  0  0  0  0  0  0  0  0  0  0
   12.3493  -15.4539   21.5575 C   0  0  2  0  0  0  0  0  0  0  0  0
   11.4288  -14.6053   20.7874 N   0  0  0  0  0  0  0  0  0  0  0  0
   11.6893  -15.6266   22.8695 C   0  0  0  0  0  0  0  0  0  0  0  0
   10.6331  -15.0552   23.1984 O   0  0  0  0  0  0  0  0  0  0  0  0
   12.2508  -16.4666   23.8143 O   0  0  0  0  0  0  0  0  0  0  0  0
  1  2  1  0
  2  3  2  0
  3  4  1  0
  5  6  1  0
  5  4  2  0
  6  7  1  0
  7  8  1  6
  7  9  1  0
  9 13  1  0
  9 10  2  0
 11  5  1  0
 12 11  2  0
 12  2  1  0
 13 14  1  0
 14 15  1  1
 15 16  1  0
 17 14  1  0
 17 18  2  0
 19 20  1  0
 20 21  2  0
 22 20  1  0
 23 22  1  1
 23 24  1  0
 24 17  1  0
 25 23  1  0
 26 25  2  0
 27 25  1  0
M  END
$$$$
