YCN.pdb
     RDKit          3D

 27 27  0  0  1  0  0  0  0  0999 V2000
    4.6843  -21.9531   15.6973 O   0  0  0  0  0  0  0  0  0  0  0  0
    5.6054  -21.2393   16.4692 C   0  0  0  0  0  0  0  0  0  0  0  0
    5.6024  -19.8796   16.4573 C   0  0  0  0  0  0  0  0  0  0  0  0
    6.5061  -19.1487   17.2143 C   0  0  0  0  0  0  0  0  0  0  0  0
    7.4270  -19.8072   17.9951 C   0  0  0  0  0  0  0  0  0  0  0  0
    8.3816  -19.0026   18.7920 C   0  0  0  0  0  0  0  0  0  0  0  0
    8.2889  -17.5319   18.4246 C   0  0  2  0  0  0  0  0  0  0  0  0
    9.1061  -17.3170   17.2558 N   0  0  0  0  0  0  0  0  0  0  0  0
    8.8071  -16.7376   19.5697 C   0  0  0  0  0  0  0  0  0  0  0  0
   10.0655  -16.6519   19.7400 O   0  0  0  0  0  0  0  0  0  0  0  0
    7.4291  -21.1830   18.0064 C   0  0  0  0  0  0  0  0  0  0  0  0
    6.5278  -21.9154   17.2516 C   0  0  0  0  0  0  0  0  0  0  0  0
    7.9568  -16.0657   20.4888 N   0  0  0  0  0  0  0  0  0  0  0  0
    8.4805  -15.3596   21.6384 C   0  0  1  0  0  0  0  0  0  0  0  0
    7.3944  -14.5315   22.3139 C   0  0  0  0  0  0  0  0  0  0  0  0
    8.0186  -13.6640   23.7583 S   0  0  0  0  0  0  0  0  0  0  0  0
    9.0878  -16.3031   22.6239 C   0  0  0  0  0  0  0  0  0  0  0  0
    8.4763  -17.3664   22.8751 O   0  0  0  0  0  0  0  0  0  0  0  0
   13.6869  -16.0978   22.0539 N   0  0  0  0  0  0  0  0  0  0  0  0
   12.9788  -17.0910   22.8065 C   0  0  0  0  0  0  0  0  0  0  0  0
   12.8551  -18.1968   22.2367 O   0  0  0  0  0  0  0  0  0  0  0  0
   12.4413  -16.8178   24.1502 C   0  0  0  0  0  0  0  0  0  0  0  0
   10.9599  -17.0143   24.1731 C   0  0  2  0  0  0  0  0  0  0  0  0
   10.2988  -16.0571   23.2747 N   0  0  0  0  0  0  0  0  0  0  0  0
   10.4581  -16.6701   25.5208 C   0  0  0  0  0  0  0  0  0  0  0  0
    9.7039  -15.7084   25.7585 O   0  0  0  0  0  0  0  0  0  0  0  0
   10.8282  -17.4412   26.6080 O   0  0  0  0  0  0  0  0  0  0  0  0
  1  2  1  0
  2  3  2  0
  3  4  1  0
  5  6  1  0
  5  4  2  0
  6  7  1  0
  7  8  1  6
  7  9  1  0
  9 13  1  0
  9 10  2  0
 11  5  1  0
 12 11  2  0
 12  2  1  0
 13 14  1  0
 14 15  1  1
 15 16  1  0
 17 14  1  0
 17 18  2  0
 19 20  1  0
 20 21  2  0
 22 20  1  0
 23 22  1  1
 23 24  1  0
 24 17  1  0
 25 23  1  0
 26 25  2  0
 27 25  1  0
M  END
$$$$
