CKA.pdb
     RDKit          3D

 21 20  0  0  1  0  0  0  0  0999 V2000
   19.7055  -20.5377  -15.5771 N   0  0  0  0  0  0  0  0  0  0  0  0
   20.7058  -21.5242  -15.2500 C   0  0  1  0  0  0  0  0  0  0  0  0
   20.9679  -22.4399  -16.4275 C   0  0  0  0  0  0  0  0  0  0  0  0
   19.5236  -23.5532  -16.5579 S   0  0  0  0  0  0  0  0  0  0  0  0
   21.9311  -20.8373  -14.7990 C   0  0  0  0  0  0  0  0  0  0  0  0
   22.1952  -19.6836  -15.2551 O   0  0  0  0  0  0  0  0  0  0  0  0
   22.7815  -21.4815  -13.8691 N   0  0  0  0  0  0  0  0  0  0  0  0
   23.9128  -20.7833  -13.3482 C   0  0  1  0  0  0  0  0  0  0  0  0
   24.2075  -21.2898  -11.9323 C   0  0  0  0  0  0  0  0  0  0  0  0
   25.2937  -20.4932  -11.2859 C   0  0  0  0  0  0  0  0  0  0  0  0
   25.4475  -20.8924   -9.8590 C   0  0  0  0  0  0  0  0  0  0  0  0
   26.4580  -20.0823   -9.0878 C   0  0  0  0  0  0  0  0  0  0  0  0
   26.5287  -20.5196   -7.6971 N   0  0  0  0  0  0  0  0  0  0  0  0
   25.1401  -21.0051  -14.1754 C   0  0  0  0  0  0  0  0  0  0  0  0
   25.4829  -22.1605  -14.5582 O   0  0  0  0  0  0  0  0  0  0  0  0
   27.9205  -18.8057  -15.5699 C   0  0  0  0  0  0  0  0  0  0  0  0
   27.1729  -20.1040  -15.3499 C   0  0  2  0  0  0  0  0  0  0  0  0
   25.9812  -19.9318  -14.5722 N   0  0  0  0  0  0  0  0  0  0  0  0
   28.0847  -21.1234  -14.7899 C   0  0  0  0  0  0  0  0  0  0  0  0
   28.8595  -21.8968  -15.6318 O   0  0  0  0  0  0  0  0  0  0  0  0
   28.1767  -21.3089  -13.5573 O   0  0  0  0  0  0  0  0  0  0  0  0
  2  5  1  0
  2  1  1  6
  3  2  1  0
  4  3  1  0
  5  6  2  0
  7  8  1  0
  7  5  1  0
  8 14  1  0
  8  9  1  1
 10  9  1  0
 10 11  1  0
 11 12  1  0
 12 13  1  0
 14 18  1  0
 15 14  2  0
 17 16  1  1
 17 19  1  0
 18 17  1  0
 19 21  2  0
 19 20  1  0
M  END
$$$$
