CKA.pdb
     RDKit          3D

 21 20  0  0  1  0  0  0  0  0999 V2000
   26.1741  -22.4961  -11.4759 N   0  0  0  0  0  0  0  0  0  0  0  0
   25.1793  -21.4624  -11.3244 C   0  0  1  0  0  0  0  0  0  0  0  0
   25.7101  -20.3198  -10.4839 C   0  0  0  0  0  0  0  0  0  0  0  0
   24.9841  -20.5133   -8.8172 S   0  0  0  0  0  0  0  0  0  0  0  0
   24.7447  -21.0121  -12.6604 C   0  0  0  0  0  0  0  0  0  0  0  0
   25.6208  -20.7668  -13.5441 O   0  0  0  0  0  0  0  0  0  0  0  0
   23.3619  -20.8647  -12.9234 N   0  0  0  0  0  0  0  0  0  0  0  0
   22.9276  -20.5302  -14.2418 C   0  0  1  0  0  0  0  0  0  0  0  0
   21.4035  -20.6693  -14.3192 C   0  0  0  0  0  0  0  0  0  0  0  0
   20.9723  -21.1810  -15.6550 C   0  0  0  0  0  0  0  0  0  0  0  0
   20.7778  -22.6571  -15.6043 C   0  0  0  0  0  0  0  0  0  0  0  0
   20.4426  -23.2901  -16.9305 C   0  0  0  0  0  0  0  0  0  0  0  0
   20.2252  -24.7261  -16.7856 N   0  0  0  0  0  0  0  0  0  0  0  0
   23.2750  -19.1212  -14.6076 C   0  0  0  0  0  0  0  0  0  0  0  0
   22.8941  -18.1401  -13.9066 O   0  0  0  0  0  0  0  0  0  0  0  0
   25.7468  -17.4345  -16.8707 C   0  0  0  0  0  0  0  0  0  0  0  0
   24.4298  -17.4818  -16.1250 C   0  0  2  0  0  0  0  0  0  0  0  0
   24.0485  -18.8140  -15.7584 N   0  0  0  0  0  0  0  0  0  0  0  0
   23.3864  -16.7753  -16.8974 C   0  0  0  0  0  0  0  0  0  0  0  0
   23.3429  -15.3949  -16.9009 O   0  0  0  0  0  0  0  0  0  0  0  0
   22.5288  -17.4002  -17.5577 O   0  0  0  0  0  0  0  0  0  0  0  0
  2  5  1  0
  2  1  1  6
  3  2  1  0
  4  3  1  0
  5  6  2  0
  7  8  1  0
  7  5  1  0
  8 14  1  0
  8  9  1  1
 10  9  1  0
 10 11  1  0
 11 12  1  0
 12 13  1  0
 14 18  1  0
 15 14  2  0
 17 16  1  6
 17 19  1  0
 18 17  1  0
 19 21  2  0
 19 20  1  0
M  END
$$$$
