CKA.pdb
     RDKit          3D

 21 20  0  0  1  0  0  0  0  0999 V2000
   26.5579  -21.7857  -13.8270 N   0  0  0  0  0  0  0  0  0  0  0  0
   25.6735  -20.7036  -13.4696 C   0  0  1  0  0  0  0  0  0  0  0  0
   26.0296  -19.4412  -14.2268 C   0  0  0  0  0  0  0  0  0  0  0  0
   27.6774  -18.9195  -13.6310 S   0  0  0  0  0  0  0  0  0  0  0  0
   24.2792  -21.1203  -13.7121 C   0  0  0  0  0  0  0  0  0  0  0  0
   24.0399  -21.9792  -14.6142 O   0  0  0  0  0  0  0  0  0  0  0  0
   23.2431  -20.5521  -12.9331 N   0  0  0  0  0  0  0  0  0  0  0  0
   21.8939  -20.9687  -13.1444 C   0  0  1  0  0  0  0  0  0  0  0  0
   21.1250  -20.8708  -11.8224 C   0  0  0  0  0  0  0  0  0  0  0  0
   21.1189  -22.1784  -11.0999 C   0  0  0  0  0  0  0  0  0  0  0  0
   20.2487  -22.0976   -9.8934 C   0  0  0  0  0  0  0  0  0  0  0  0
   19.9589  -23.4249   -9.2407 C   0  0  0  0  0  0  0  0  0  0  0  0
   19.1338  -23.2537   -8.0490 N   0  0  0  0  0  0  0  0  0  0  0  0
   21.1897  -20.1071  -14.1451 C   0  0  0  0  0  0  0  0  0  0  0  0
   21.1622  -18.8477  -14.0345 O   0  0  0  0  0  0  0  0  0  0  0  0
   19.7666  -20.5604  -17.6029 C   0  0  0  0  0  0  0  0  0  0  0  0
   19.8494  -19.8671  -16.2593 C   0  0  2  0  0  0  0  0  0  0  0  0
   20.5174  -20.6582  -15.2682 N   0  0  0  0  0  0  0  0  0  0  0  0
   18.5041  -19.4262  -15.8347 C   0  0  0  0  0  0  0  0  0  0  0  0
   17.8832  -20.0338  -14.7611 O   0  0  0  0  0  0  0  0  0  0  0  0
   17.9025  -18.5053  -16.4280 O   0  0  0  0  0  0  0  0  0  0  0  0
  2  5  1  0
  2  1  1  6
  3  2  1  0
  4  3  1  0
  5  6  2  0
  7  8  1  0
  7  5  1  0
  8 14  1  0
  8  9  1  1
 10  9  1  0
 10 11  1  0
 11 12  1  0
 12 13  1  0
 14 18  1  0
 15 14  2  0
 17 16  1  6
 17 19  1  0
 18 17  1  0
 19 21  2  0
 19 20  1  0
M  END
$$$$
