CKA.pdb
     RDKit          3D

 21 20  0  0  1  0  0  0  0  0999 V2000
   26.7181  -21.5760  -11.0719 N   0  0  0  0  0  0  0  0  0  0  0  0
   25.3224  -21.2817  -11.2872 C   0  0  1  0  0  0  0  0  0  0  0  0
   24.8520  -20.1817  -10.3585 C   0  0  0  0  0  0  0  0  0  0  0  0
   24.6956  -20.9291   -8.6973 S   0  0  0  0  0  0  0  0  0  0  0  0
   25.1162  -20.9345  -12.7062 C   0  0  0  0  0  0  0  0  0  0  0  0
   25.8904  -20.0925  -13.2543 O   0  0  0  0  0  0  0  0  0  0  0  0
   24.0604  -21.5488  -13.4211 N   0  0  0  0  0  0  0  0  0  0  0  0
   23.8435  -21.2055  -14.7899 C   0  0  1  0  0  0  0  0  0  0  0  0
   23.3548  -22.4447  -15.5474 C   0  0  0  0  0  0  0  0  0  0  0  0
   24.4085  -22.9689  -16.4677 C   0  0  0  0  0  0  0  0  0  0  0  0
   25.1653  -24.0715  -15.8114 C   0  0  0  0  0  0  0  0  0  0  0  0
   26.3368  -24.5870  -16.6075 C   0  0  0  0  0  0  0  0  0  0  0  0
   27.0533  -25.6250  -15.8731 N   0  0  0  0  0  0  0  0  0  0  0  0
   22.8050  -20.1390  -14.9443 C   0  0  0  0  0  0  0  0  0  0  0  0
   21.7583  -20.1239  -14.2349 O   0  0  0  0  0  0  0  0  0  0  0  0
   22.4320  -16.9645  -17.0077 C   0  0  0  0  0  0  0  0  0  0  0  0
   21.9470  -18.0810  -16.1072 C   0  0  2  0  0  0  0  0  0  0  0  0
   22.9410  -19.0913  -15.8934 N   0  0  0  0  0  0  0  0  0  0  0  0
   20.6721  -18.6256  -16.6196 C   0  0  0  0  0  0  0  0  0  0  0  0
   19.4704  -18.1174  -16.1672 O   0  0  0  0  0  0  0  0  0  0  0  0
   20.6495  -19.5472  -17.4637 O   0  0  0  0  0  0  0  0  0  0  0  0
  2  5  1  0
  2  1  1  6
  3  2  1  0
  4  3  1  0
  5  6  2  0
  7  8  1  0
  7  5  1  0
  8 14  1  0
  8  9  1  6
 10  9  1  0
 10 11  1  0
 11 12  1  0
 12 13  1  0
 14 18  1  0
 15 14  2  0
 17 16  1  6
 17 19  1  0
 18 17  1  0
 19 21  2  0
 19 20  1  0
M  END
$$$$
