CKA.pdb
     RDKit          3D

 21 20  0  0  1  0  0  0  0  0999 V2000
   26.1598  -11.9862  -18.0863 N   0  0  0  0  0  0  0  0  0  0  0  0
   25.9602  -11.3370  -16.8137 C   0  0  1  0  0  0  0  0  0  0  0  0
   27.2324  -10.6618  -16.3454 C   0  0  0  0  0  0  0  0  0  0  0  0
   28.4059  -11.9957  -15.9140 S   0  0  0  0  0  0  0  0  0  0  0  0
   24.8382  -10.3859  -16.9284 C   0  0  0  0  0  0  0  0  0  0  0  0
   24.7162   -9.7005  -17.9886 O   0  0  0  0  0  0  0  0  0  0  0  0
   23.9258  -10.2614  -15.8536 N   0  0  0  0  0  0  0  0  0  0  0  0
   22.7703   -9.4361  -16.0029 C   0  0  1  0  0  0  0  0  0  0  0  0
   21.5570  -10.1580  -15.4072 C   0  0  0  0  0  0  0  0  0  0  0  0
   20.2986   -9.3870  -15.6395 C   0  0  0  0  0  0  0  0  0  0  0  0
   19.1312  -10.1225  -15.0777 C   0  0  0  0  0  0  0  0  0  0  0  0
   17.8043   -9.4354  -15.2756 C   0  0  0  0  0  0  0  0  0  0  0  0
   16.7026  -10.2891  -14.8424 N   0  0  0  0  0  0  0  0  0  0  0  0
   22.9172   -8.1287  -15.2895 C   0  0  0  0  0  0  0  0  0  0  0  0
   23.2571   -8.0707  -14.0729 O   0  0  0  0  0  0  0  0  0  0  0  0
   22.6429   -4.4535  -16.2467 C   0  0  0  0  0  0  0  0  0  0  0  0
   22.8009   -5.6167  -15.2901 C   0  0  2  0  0  0  0  0  0  0  0  0
   22.6831   -6.8885  -15.9407 N   0  0  0  0  0  0  0  0  0  0  0  0
   21.8720   -5.4635  -14.1508 C   0  0  0  0  0  0  0  0  0  0  0  0
   22.2455   -4.7212  -13.0478 O   0  0  0  0  0  0  0  0  0  0  0  0
   20.7405   -5.9944  -14.1564 O   0  0  0  0  0  0  0  0  0  0  0  0
  2  5  1  0
  2  1  1  6
  3  2  1  0
  4  3  1  0
  5  6  2  0
  7  8  1  0
  7  5  1  0
  8 14  1  0
  8  9  1  1
 10  9  1  0
 10 11  1  0
 11 12  1  0
 12 13  1  0
 14 18  1  0
 15 14  2  0
 17 16  1  6
 17 19  1  0
 18 17  1  0
 19 21  2  0
 19 20  1  0
M  END
$$$$
