CKA.pdb
     RDKit          3D

 21 20  0  0  1  0  0  0  0  0999 V2000
   17.4594  -10.5122  -12.2936 N   0  0  0  0  0  0  0  0  0  0  0  0
   17.9475   -9.4131  -11.4969 C   0  0  1  0  0  0  0  0  0  0  0  0
   19.1462   -8.7599  -12.1528 C   0  0  0  0  0  0  0  0  0  0  0  0
   20.5077   -9.9784  -12.0893 S   0  0  0  0  0  0  0  0  0  0  0  0
   16.8484   -8.4550  -11.2723 C   0  0  0  0  0  0  0  0  0  0  0  0
   16.1734   -8.0463  -12.2653 O   0  0  0  0  0  0  0  0  0  0  0  0
   16.5738   -8.0153   -9.9553 N   0  0  0  0  0  0  0  0  0  0  0  0
   15.4899   -7.1149   -9.7251 C   0  0  1  0  0  0  0  0  0  0  0  0
   14.5575   -7.7116   -8.6654 C   0  0  0  0  0  0  0  0  0  0  0  0
   13.3900   -8.3992   -9.2949 C   0  0  0  0  0  0  0  0  0  0  0  0
   12.4401   -8.8673   -8.2471 C   0  0  0  0  0  0  0  0  0  0  0  0
   11.2388   -9.6075   -8.7770 C   0  0  0  0  0  0  0  0  0  0  0  0
   10.3996  -10.0933   -7.6861 N   0  0  0  0  0  0  0  0  0  0  0  0
   15.9599   -5.7864   -9.2213 C   0  0  0  0  0  0  0  0  0  0  0  0
   16.7474   -5.6905   -8.2366 O   0  0  0  0  0  0  0  0  0  0  0  0
   15.7333   -2.1983  -10.4349 C   0  0  0  0  0  0  0  0  0  0  0  0
   16.0320   -3.2805   -9.4188 C   0  0  2  0  0  0  0  0  0  0  0  0
   15.5466   -4.5676   -9.8219 N   0  0  0  0  0  0  0  0  0  0  0  0
   15.5422   -2.8710   -8.0859 C   0  0  0  0  0  0  0  0  0  0  0  0
   16.0976   -1.7782   -7.4497 O   0  0  0  0  0  0  0  0  0  0  0  0
   14.6256   -3.4944   -7.5084 O   0  0  0  0  0  0  0  0  0  0  0  0
  2  5  1  0
  2  1  1  6
  3  2  1  0
  4  3  1  0
  5  6  2  0
  7  8  1  0
  7  5  1  0
  8 14  1  0
  8  9  1  1
 10  9  1  0
 10 11  1  0
 11 12  1  0
 12 13  1  0
 14 18  1  0
 15 14  2  0
 17 16  1  6
 17 19  1  0
 18 17  1  0
 19 21  2  0
 19 20  1  0
M  END
$$$$
