CKA.pdb
     RDKit          3D

 21 20  0  0  1  0  0  0  0  0999 V2000
   25.7780  -35.1009  -14.3818 N   0  0  0  0  0  0  0  0  0  0  0  0
   26.4503  -33.8711  -14.0406 C   0  0  1  0  0  0  0  0  0  0  0  0
   26.5089  -32.9380  -15.2322 C   0  0  0  0  0  0  0  0  0  0  0  0
   27.9754  -33.4259  -16.2088 S   0  0  0  0  0  0  0  0  0  0  0  0
   25.7696  -33.2536  -12.8865 C   0  0  0  0  0  0  0  0  0  0  0  0
   26.2412  -32.1856  -12.3910 O   0  0  0  0  0  0  0  0  0  0  0  0
   24.6078  -33.8674  -12.3606 N   0  0  0  0  0  0  0  0  0  0  0  0
   23.9656  -33.2979  -11.2196 C   0  0  1  0  0  0  0  0  0  0  0  0
   22.5423  -33.8559  -11.1135 C   0  0  0  0  0  0  0  0  0  0  0  0
   21.7492  -33.1268  -10.0783 C   0  0  0  0  0  0  0  0  0  0  0  0
   20.3378  -33.6034  -10.0788 C   0  0  0  0  0  0  0  0  0  0  0  0
   19.4277  -32.8656   -9.1306 C   0  0  0  0  0  0  0  0  0  0  0  0
   18.0509  -33.3340   -9.2548 N   0  0  0  0  0  0  0  0  0  0  0  0
   24.6806  -33.6305   -9.9477 C   0  0  0  0  0  0  0  0  0  0  0  0
   25.1921  -34.7703   -9.7520 O   0  0  0  0  0  0  0  0  0  0  0  0
   25.7442  -31.7183   -6.8386 C   0  0  0  0  0  0  0  0  0  0  0  0
   25.5026  -32.9626   -7.6669 C   0  0  2  0  0  0  0  0  0  0  0  0
   24.8213  -32.6853   -8.8971 N   0  0  0  0  0  0  0  0  0  0  0  0
   24.8224  -33.9892   -6.8497 C   0  0  0  0  0  0  0  0  0  0  0  0
   25.5153  -34.6563   -5.8586 O   0  0  0  0  0  0  0  0  0  0  0  0
   23.6196  -34.2759   -7.0322 O   0  0  0  0  0  0  0  0  0  0  0  0
  2  5  1  0
  2  1  1  6
  3  2  1  0
  4  3  1  0
  5  6  2  0
  7  8  1  0
  7  5  1  0
  8 14  1  0
  8  9  1  1
 10  9  1  0
 10 11  1  0
 11 12  1  0
 12 13  1  0
 14 18  1  0
 15 14  2  0
 17 16  1  1
 17 19  1  0
 18 17  1  0
 19 21  2  0
 19 20  1  0
M  END
$$$$
