CKA.pdb
     RDKit          3D

 21 20  0  0  1  0  0  0  0  0999 V2000
   26.3157  -11.1702  -18.6180 N   0  0  0  0  0  0  0  0  0  0  0  0
   25.7084  -10.9817  -17.3232 C   0  0  1  0  0  0  0  0  0  0  0  0
   26.7611  -10.9147  -16.2365 C   0  0  0  0  0  0  0  0  0  0  0  0
   27.4827  -12.5891  -16.1012 S   0  0  0  0  0  0  0  0  0  0  0  0
   24.8686   -9.7693  -17.3565 C   0  0  0  0  0  0  0  0  0  0  0  0
   25.2352   -8.7840  -18.0661 O   0  0  0  0  0  0  0  0  0  0  0  0
   23.6751   -9.7347  -16.5965 N   0  0  0  0  0  0  0  0  0  0  0  0
   22.7597   -8.6531  -16.7718 C   0  0  1  0  0  0  0  0  0  0  0  0
   21.3267   -9.1857  -16.6668 C   0  0  0  0  0  0  0  0  0  0  0  0
   20.9687  -10.0184  -17.8544 C   0  0  0  0  0  0  0  0  0  0  0  0
   19.5658  -10.5061  -17.7391 C   0  0  0  0  0  0  0  0  0  0  0  0
   19.1253  -11.4152  -18.8577 C   0  0  0  0  0  0  0  0  0  0  0  0
   17.8019  -11.9702  -18.5915 N   0  0  0  0  0  0  0  0  0  0  0  0
   22.9304   -7.5970  -15.7252 C   0  0  0  0  0  0  0  0  0  0  0  0
   23.0892   -7.8905  -14.5055 O   0  0  0  0  0  0  0  0  0  0  0  0
   23.3119   -3.8230  -15.6514 C   0  0  0  0  0  0  0  0  0  0  0  0
   22.9489   -5.1707  -15.0644 C   0  0  2  0  0  0  0  0  0  0  0  0
   22.9228   -6.2138  -16.0472 N   0  0  0  0  0  0  0  0  0  0  0  0
   21.6878   -5.0661  -14.3008 C   0  0  0  0  0  0  0  0  0  0  0  0
   21.6761   -4.4513  -13.0642 O   0  0  0  0  0  0  0  0  0  0  0  0
   20.6148   -5.5249  -14.7485 O   0  0  0  0  0  0  0  0  0  0  0  0
  2  5  1  0
  2  1  1  6
  3  2  1  0
  4  3  1  0
  5  6  2  0
  7  8  1  0
  7  5  1  0
  8 14  1  0
  8  9  1  1
 10  9  1  0
 10 11  1  0
 11 12  1  0
 12 13  1  0
 14 18  1  0
 15 14  2  0
 17 16  1  6
 17 19  1  0
 18 17  1  0
 19 21  2  0
 19 20  1  0
M  END
$$$$
