CKA.pdb
     RDKit          3D

 21 20  0  0  1  0  0  0  0  0999 V2000
   15.1161   -9.6339  -10.1935 N   0  0  0  0  0  0  0  0  0  0  0  0
   15.4150   -8.2328  -10.3621 C   0  0  1  0  0  0  0  0  0  0  0  0
   15.8385   -7.6081   -9.0489 C   0  0  0  0  0  0  0  0  0  0  0  0
   14.3270   -7.4479   -8.0329 S   0  0  0  0  0  0  0  0  0  0  0  0
   16.4471   -8.0821  -11.4054 C   0  0  0  0  0  0  0  0  0  0  0  0
   17.3276   -8.9854  -11.5374 O   0  0  0  0  0  0  0  0  0  0  0  0
   16.4298   -6.9343  -12.2333 N   0  0  0  0  0  0  0  0  0  0  0  0
   17.3521   -6.8348  -13.3186 C   0  0  1  0  0  0  0  0  0  0  0  0
   16.6281   -6.2637  -14.5425 C   0  0  0  0  0  0  0  0  0  0  0  0
   17.5459   -6.1603  -15.7168 C   0  0  0  0  0  0  0  0  0  0  0  0
   16.8137   -5.6252  -16.8987 C   0  0  0  0  0  0  0  0  0  0  0  0
   17.6374   -5.5370  -18.1580 C   0  0  0  0  0  0  0  0  0  0  0  0
   18.7313   -4.5834  -18.0027 N   0  0  0  0  0  0  0  0  0  0  0  0
   18.4972   -5.9249  -13.0018 C   0  0  0  0  0  0  0  0  0  0  0  0
   18.3134   -4.7639  -12.5355 O   0  0  0  0  0  0  0  0  0  0  0  0
   22.2796   -6.2415  -12.8944 C   0  0  0  0  0  0  0  0  0  0  0  0
   20.9706   -5.4805  -12.9068 C   0  0  2  0  0  0  0  0  0  0  0  0
   19.8464   -6.3173  -13.2079 N   0  0  0  0  0  0  0  0  0  0  0  0
   21.0750   -4.3104  -13.8036 C   0  0  0  0  0  0  0  0  0  0  0  0
   21.5678   -3.1126  -13.3245 O   0  0  0  0  0  0  0  0  0  0  0  0
   20.7249   -4.3742  -15.0018 O   0  0  0  0  0  0  0  0  0  0  0  0
  2  5  1  0
  2  1  1  1
  3  2  1  0
  4  3  1  0
  5  6  2  0
  7  8  1  0
  7  5  1  0
  8 14  1  0
  8  9  1  6
 10  9  1  0
 10 11  1  0
 11 12  1  0
 12 13  1  0
 14 18  1  0
 15 14  2  0
 17 16  1  6
 17 19  1  0
 18 17  1  0
 19 21  2  0
 19 20  1  0
M  END
$$$$
