CKA.pdb
     RDKit          3D

 21 20  0  0  1  0  0  0  0  0999 V2000
   24.0176  -10.2231  -18.4559 N   0  0  0  0  0  0  0  0  0  0  0  0
   23.2975  -10.0411  -17.2193 C   0  0  1  0  0  0  0  0  0  0  0  0
   24.2527   -9.8273  -16.0635 C   0  0  0  0  0  0  0  0  0  0  0  0
   25.0684  -11.4338  -15.7531 S   0  0  0  0  0  0  0  0  0  0  0  0
   22.3528   -8.9183  -17.3721 C   0  0  0  0  0  0  0  0  0  0  0  0
   22.7046   -7.9034  -18.0467 O   0  0  0  0  0  0  0  0  0  0  0  0
   21.0780   -9.0005  -16.7630 N   0  0  0  0  0  0  0  0  0  0  0  0
   20.1592   -7.9167  -16.9034 C   0  0  1  0  0  0  0  0  0  0  0  0
   18.7327   -8.4726  -16.9686 C   0  0  0  0  0  0  0  0  0  0  0  0
   18.5210   -9.2802  -18.2076 C   0  0  0  0  0  0  0  0  0  0  0  0
   17.1219   -9.7892  -18.2593 C   0  0  0  0  0  0  0  0  0  0  0  0
   16.8042  -10.6246  -19.4730 C   0  0  0  0  0  0  0  0  0  0  0  0
   15.4408  -11.1417  -19.4109 N   0  0  0  0  0  0  0  0  0  0  0  0
   20.2260   -6.9697  -15.7465 C   0  0  0  0  0  0  0  0  0  0  0  0
   19.5268   -5.9167  -15.7091 O   0  0  0  0  0  0  0  0  0  0  0  0
   21.5728   -6.9551  -12.2425 C   0  0  0  0  0  0  0  0  0  0  0  0
   21.2455   -6.2749  -13.5552 C   0  0  2  0  0  0  0  0  0  0  0  0
   21.0761   -7.2043  -14.6332 N   0  0  0  0  0  0  0  0  0  0  0  0
   22.2495   -5.2303  -13.8468 C   0  0  0  0  0  0  0  0  0  0  0  0
   22.9442   -5.2515  -15.0402 O   0  0  0  0  0  0  0  0  0  0  0  0
   22.4921   -4.3138  -13.0323 O   0  0  0  0  0  0  0  0  0  0  0  0
  2  5  1  0
  2  1  1  6
  3  2  1  0
  4  3  1  0
  5  6  2  0
  7  8  1  0
  7  5  1  0
  8 14  1  0
  8  9  1  1
 10  9  1  0
 10 11  1  0
 11 12  1  0
 12 13  1  0
 14 18  1  0
 15 14  2  0
 17 16  1  1
 17 19  1  0
 18 17  1  0
 19 21  2  0
 19 20  1  0
M  END
$$$$
