CKA.pdb
     RDKit          3D

 21 20  0  0  1  0  0  0  0  0999 V2000
   24.9281  -12.3318  -15.8660 N   0  0  0  0  0  0  0  0  0  0  0  0
   24.8051  -12.5192  -17.2910 C   0  0  1  0  0  0  0  0  0  0  0  0
   24.7899  -13.9920  -17.6436 C   0  0  0  0  0  0  0  0  0  0  0  0
   26.1827  -14.7613  -16.7432 S   0  0  0  0  0  0  0  0  0  0  0  0
   23.5941  -11.8233  -17.7660 C   0  0  0  0  0  0  0  0  0  0  0  0
   23.3302  -11.8213  -19.0066 O   0  0  0  0  0  0  0  0  0  0  0  0
   22.7567  -11.1755  -16.8268 N   0  0  0  0  0  0  0  0  0  0  0  0
   21.5615  -10.5346  -17.2734 C   0  0  1  0  0  0  0  0  0  0  0  0
   20.3556  -11.1881  -16.5900 C   0  0  0  0  0  0  0  0  0  0  0  0
   20.0867  -12.5479  -17.1475 C   0  0  0  0  0  0  0  0  0  0  0  0
   18.9185  -13.1660  -16.4601 C   0  0  0  0  0  0  0  0  0  0  0  0
   18.6198  -14.5813  -16.8840 C   0  0  0  0  0  0  0  0  0  0  0  0
   18.7025  -14.7224  -18.3344 N   0  0  0  0  0  0  0  0  0  0  0  0
   21.5435   -9.0777  -16.9320 C   0  0  0  0  0  0  0  0  0  0  0  0
   21.8755   -8.6602  -15.7855 O   0  0  0  0  0  0  0  0  0  0  0  0
   20.9195   -5.8505  -18.8510 C   0  0  0  0  0  0  0  0  0  0  0  0
   21.2084   -6.6818  -17.6188 C   0  0  2  0  0  0  0  0  0  0  0  0
   21.1535   -8.0908  -17.8760 N   0  0  0  0  0  0  0  0  0  0  0  0
   20.3265   -6.2634  -16.5090 C   0  0  0  0  0  0  0  0  0  0  0  0
   20.6813   -5.1965  -15.7071 O   0  0  0  0  0  0  0  0  0  0  0  0
   19.2522   -6.8562  -16.2713 O   0  0  0  0  0  0  0  0  0  0  0  0
  2  5  1  0
  2  1  1  1
  3  2  1  0
  4  3  1  0
  5  6  2  0
  7  8  1  0
  7  5  1  0
  8 14  1  0
  8  9  1  1
 10  9  1  0
 10 11  1  0
 11 12  1  0
 12 13  1  0
 14 18  1  0
 15 14  2  0
 17 16  1  6
 17 19  1  0
 18 17  1  0
 19 21  2  0
 19 20  1  0
M  END
$$$$
