CKA.pdb
     RDKit          3D

 21 20  0  0  1  0  0  0  0  0999 V2000
   24.3220  -11.9446  -17.8136 N   0  0  0  0  0  0  0  0  0  0  0  0
   24.1944  -11.3819  -16.4915 C   0  0  1  0  0  0  0  0  0  0  0  0
   25.5529  -11.2015  -15.8468 C   0  0  0  0  0  0  0  0  0  0  0  0
   26.1900  -12.8773  -15.4884 S   0  0  0  0  0  0  0  0  0  0  0  0
   23.4492  -10.1116  -16.5779 C   0  0  0  0  0  0  0  0  0  0  0  0
   23.7382   -9.2881  -17.4983 O   0  0  0  0  0  0  0  0  0  0  0  0
   22.4307   -9.8427  -15.6327 N   0  0  0  0  0  0  0  0  0  0  0  0
   21.6042   -8.6900  -15.7969 C   0  0  1  0  0  0  0  0  0  0  0  0
   20.1737   -9.0323  -15.3671 C   0  0  0  0  0  0  0  0  0  0  0  0
   19.4304   -9.7284  -16.4603 C   0  0  0  0  0  0  0  0  0  0  0  0
   18.1297  -10.2466  -15.9515 C   0  0  0  0  0  0  0  0  0  0  0  0
   17.3414  -11.0510  -16.9533 C   0  0  0  0  0  0  0  0  0  0  0  0
   16.0490  -11.4496  -16.4045 N   0  0  0  0  0  0  0  0  0  0  0  0
   22.0687   -7.5411  -14.9579 C   0  0  0  0  0  0  0  0  0  0  0  0
   22.4223   -7.6983  -13.7540 O   0  0  0  0  0  0  0  0  0  0  0  0
   22.9825   -3.9149  -15.5328 C   0  0  0  0  0  0  0  0  0  0  0  0
   22.5263   -5.0835  -14.6848 C   0  0  2  0  0  0  0  0  0  0  0  0
   22.1360   -6.2179  -15.4693 N   0  0  0  0  0  0  0  0  0  0  0  0
   21.4751   -4.6443  -13.7432 C   0  0  0  0  0  0  0  0  0  0  0  0
   21.7987   -3.8332  -12.6734 O   0  0  0  0  0  0  0  0  0  0  0  0
   20.2832   -4.9910  -13.8891 O   0  0  0  0  0  0  0  0  0  0  0  0
  2  5  1  0
  2  1  1  6
  3  2  1  0
  4  3  1  0
  5  6  2  0
  7  8  1  0
  7  5  1  0
  8 14  1  0
  8  9  1  1
 10  9  1  0
 10 11  1  0
 11 12  1  0
 12 13  1  0
 14 18  1  0
 15 14  2  0
 17 16  1  6
 17 19  1  0
 18 17  1  0
 19 21  2  0
 19 20  1  0
M  END
$$$$
