CKA.pdb
     RDKit          3D

 21 20  0  0  1  0  0  0  0  0999 V2000
   25.1670  -11.1776  -17.0090 N   0  0  0  0  0  0  0  0  0  0  0  0
   25.0270   -9.9359  -16.2882 C   0  0  1  0  0  0  0  0  0  0  0  0
   26.3343   -9.1714  -16.2686 C   0  0  0  0  0  0  0  0  0  0  0  0
   27.4018   -9.9896  -15.0302 S   0  0  0  0  0  0  0  0  0  0  0  0
   23.9342   -9.1491  -16.8908 C   0  0  0  0  0  0  0  0  0  0  0  0
   23.8583   -9.0650  -18.1541 O   0  0  0  0  0  0  0  0  0  0  0  0
   22.9977   -8.5076  -16.0455 N   0  0  0  0  0  0  0  0  0  0  0  0
   21.8630   -7.8567  -16.6177 C   0  0  1  0  0  0  0  0  0  0  0  0
   20.5885   -8.4024  -15.9647 C   0  0  0  0  0  0  0  0  0  0  0  0
   20.1951   -9.7164  -16.5568 C   0  0  0  0  0  0  0  0  0  0  0  0
   18.9586  -10.2281  -15.9023 C   0  0  0  0  0  0  0  0  0  0  0  0
   18.3835  -11.4696  -16.5347 C   0  0  0  0  0  0  0  0  0  0  0  0
   17.1514  -11.8756  -15.8659 N   0  0  0  0  0  0  0  0  0  0  0  0
   21.8913   -6.3773  -16.3937 C   0  0  0  0  0  0  0  0  0  0  0  0
   22.1475   -5.8823  -15.2586 O   0  0  0  0  0  0  0  0  0  0  0  0
   21.5260   -3.2745  -18.5642 C   0  0  0  0  0  0  0  0  0  0  0  0
   21.5900   -4.0342  -17.2560 C   0  0  2  0  0  0  0  0  0  0  0  0
   21.6324   -5.4548  -17.4421 N   0  0  0  0  0  0  0  0  0  0  0  0
   20.4919   -3.6018  -16.3664 C   0  0  0  0  0  0  0  0  0  0  0  0
   20.6110   -2.4360  -15.6356 O   0  0  0  0  0  0  0  0  0  0  0  0
   19.4420   -4.2707  -16.2543 O   0  0  0  0  0  0  0  0  0  0  0  0
  2  5  1  0
  2  1  1  6
  3  2  1  0
  4  3  1  0
  5  6  2  0
  7  8  1  0
  7  5  1  0
  8 14  1  0
  8  9  1  1
 10  9  1  0
 10 11  1  0
 11 12  1  0
 12 13  1  0
 14 18  1  0
 15 14  2  0
 17 16  1  6
 17 19  1  0
 18 17  1  0
 19 21  2  0
 19 20  1  0
M  END
$$$$
