CKA.pdb
     RDKit          3D

 21 20  0  0  1  0  0  0  0  0999 V2000
   25.1124  -14.6962  -17.8166 N   0  0  0  0  0  0  0  0  0  0  0  0
   24.5856  -14.1156  -16.6057 C   0  0  1  0  0  0  0  0  0  0  0  0
   25.7048  -13.6906  -15.6781 C   0  0  0  0  0  0  0  0  0  0  0  0
   26.5751  -15.2169  -15.1726 S   0  0  0  0  0  0  0  0  0  0  0  0
   23.6993  -12.9896  -16.9568 C   0  0  0  0  0  0  0  0  0  0  0  0
   24.0340  -12.2123  -17.9016 O   0  0  0  0  0  0  0  0  0  0  0  0
   22.4983  -12.8039  -16.2315 N   0  0  0  0  0  0  0  0  0  0  0  0
   21.5942  -11.7691  -16.6194 C   0  0  1  0  0  0  0  0  0  0  0  0
   20.1598  -12.3040  -16.5524 C   0  0  0  0  0  0  0  0  0  0  0  0
   19.8899  -13.2738  -17.6563 C   0  0  0  0  0  0  0  0  0  0  0  0
   18.4749  -13.7366  -17.6025 C   0  0  0  0  0  0  0  0  0  0  0  0
   18.1147  -14.7704  -18.6386 C   0  0  0  0  0  0  0  0  0  0  0  0
   16.7087  -15.1481  -18.5351 N   0  0  0  0  0  0  0  0  0  0  0  0
   21.6791  -10.5801  -15.7146 C   0  0  0  0  0  0  0  0  0  0  0  0
   21.6731  -10.7017  -14.4560 O   0  0  0  0  0  0  0  0  0  0  0  0
   22.1562   -6.8328  -16.1985 C   0  0  0  0  0  0  0  0  0  0  0  0
   21.9698   -8.1027  -15.3951 C   0  0  2  0  0  0  0  0  0  0  0  0
   21.7707   -9.2567  -16.2218 N   0  0  0  0  0  0  0  0  0  0  0  0
   20.8957   -7.9160  -14.3971 C   0  0  0  0  0  0  0  0  0  0  0  0
   21.1698   -7.2998  -13.1920 O   0  0  0  0  0  0  0  0  0  0  0  0
   19.7284   -8.3056  -14.6153 O   0  0  0  0  0  0  0  0  0  0  0  0
  2  5  1  0
  2  1  1  6
  3  2  1  0
  4  3  1  0
  5  6  2  0
  7  8  1  0
  7  5  1  0
  8 14  1  0
  8  9  1  1
 10  9  1  0
 10 11  1  0
 11 12  1  0
 12 13  1  0
 14 18  1  0
 15 14  2  0
 17 16  1  6
 17 19  1  0
 18 17  1  0
 19 21  2  0
 19 20  1  0
M  END
$$$$
