IMS.pdb
     RDKit          3D

 23 22  0  0  1  0  0  0  0  0999 V2000
   19.7657  -15.8854  -16.7817 C   0  0  0  0  0  0  0  0  0  0  0  0
   19.8247  -14.4922  -17.3686 C   0  0  0  0  0  0  0  0  0  0  0  0
   20.4629  -13.5301  -16.3850 C   0  0  2  0  0  0  0  0  0  0  0  0
   19.6773  -13.6051  -15.0910 C   0  0  0  0  0  0  0  0  0  0  0  0
   20.5483  -12.1381  -16.9232 C   0  0  2  0  0  0  0  0  0  0  0  0
   21.1665  -12.2444  -18.2501 N   0  0  0  0  0  0  0  0  0  0  0  0
   21.3166  -11.1999  -16.0788 C   0  0  0  0  0  0  0  0  0  0  0  0
   20.8721  -10.9360  -14.9321 O   0  0  0  0  0  0  0  0  0  0  0  0
   27.9350  -12.4588  -15.5186 C   0  0  0  0  0  0  0  0  0  0  0  0
   27.1146  -10.9569  -16.1266 S   0  0  0  0  0  0  0  0  0  0  0  0
   25.3692  -11.0540  -15.5231 C   0  0  0  0  0  0  0  0  0  0  0  0
   24.7180   -9.7973  -15.9258 C   0  0  0  0  0  0  0  0  0  0  0  0
   23.2607   -9.6219  -15.6268 C   0  0  2  0  0  0  0  0  0  0  0  0
   22.5029  -10.5850  -16.4657 N   0  0  0  0  0  0  0  0  0  0  0  0
   22.7259   -8.2739  -15.7823 C   0  0  0  0  0  0  0  0  0  0  0  0
   22.2122   -7.8656  -16.8893 O   0  0  0  0  0  0  0  0  0  0  0  0
   19.7415   -5.2487  -15.1396 O   0  0  0  0  0  0  0  0  0  0  0  0
   20.5238   -6.3876  -15.0741 C   0  0  0  0  0  0  0  0  0  0  0  0
   21.9868   -6.0456  -14.8662 C   0  0  2  0  0  0  0  0  0  0  0  0
   22.7096   -7.2933  -14.7568 N   0  0  0  0  0  0  0  0  0  0  0  0
   22.2009   -5.1496  -13.7391 C   0  0  0  0  0  0  0  0  0  0  0  0
   22.0681   -3.7867  -13.9015 O   0  0  0  0  0  0  0  0  0  0  0  0
   22.5064   -5.6001  -12.6151 O   0  0  0  0  0  0  0  0  0  0  0  0
  2  1  1  0
  3  4  1  1
  3  2  1  0
  5  3  1  0
  5  6  1  6
  7  8  2  0
  7  5  1  0
 10 11  1  0
 10  9  1  0
 11 12  1  0
 13 12  1  6
 13 14  1  0
 14  7  1  0
 15 13  1  0
 16 15  2  0
 18 17  1  0
 19 18  1  1
 19 21  1  0
 19 20  1  0
 20 15  1  0
 21 22  1  0
 23 21  2  0
M  END
$$$$
