IMS.pdb
     RDKit          3D

 23 22  0  0  1  0  0  0  0  0999 V2000
   19.6988  -22.8389  -15.5392 C   0  0  0  0  0  0  0  0  0  0  0  0
   19.9031  -22.4243  -14.0986 C   0  0  0  0  0  0  0  0  0  0  0  0
   21.2313  -21.7103  -13.9366 C   0  0  2  0  0  0  0  0  0  0  0  0
   22.3244  -22.6650  -14.3737 C   0  0  0  0  0  0  0  0  0  0  0  0
   21.4384  -21.2005  -12.5467 C   0  0  2  0  0  0  0  0  0  0  0  0
   20.3568  -20.2416  -12.2917 N   0  0  0  0  0  0  0  0  0  0  0  0
   22.7499  -20.5592  -12.3174 C   0  0  0  0  0  0  0  0  0  0  0  0
   22.9953  -19.4825  -12.9198 O   0  0  0  0  0  0  0  0  0  0  0  0
   28.5750  -19.7993   -7.1635 C   0  0  0  0  0  0  0  0  0  0  0  0
   26.9842  -20.5104   -7.6754 S   0  0  0  0  0  0  0  0  0  0  0  0
   26.8376  -20.1707   -9.4873 C   0  0  0  0  0  0  0  0  0  0  0  0
   25.5294  -20.6987   -9.9063 C   0  0  0  0  0  0  0  0  0  0  0  0
   25.0890  -20.4725  -11.3201 C   0  0  2  0  0  0  0  0  0  0  0  0
   23.7367  -21.0657  -11.4780 N   0  0  0  0  0  0  0  0  0  0  0  0
   25.9868  -20.9562  -12.3628 C   0  0  0  0  0  0  0  0  0  0  0  0
   26.2713  -22.2042  -12.4954 O   0  0  0  0  0  0  0  0  0  0  0  0
   27.9621  -18.3774  -14.9666 O   0  0  0  0  0  0  0  0  0  0  0  0
   27.4710  -19.5636  -15.4815 C   0  0  0  0  0  0  0  0  0  0  0  0
   27.4079  -20.6459  -14.4207 C   0  0  2  0  0  0  0  0  0  0  0  0
   26.6240  -20.1270  -13.3219 N   0  0  0  0  0  0  0  0  0  0  0  0
   28.7248  -21.1205  -14.0215 C   0  0  0  0  0  0  0  0  0  0  0  0
   29.5090  -21.8219  -14.9129 O   0  0  0  0  0  0  0  0  0  0  0  0
   29.1609  -20.9003  -12.8721 O   0  0  0  0  0  0  0  0  0  0  0  0
  2  1  1  0
  3  4  1  1
  3  2  1  0
  5  3  1  0
  5  6  1  6
  7  8  2  0
  7  5  1  0
 10 11  1  0
 10  9  1  0
 11 12  1  0
 13 12  1  1
 13 14  1  0
 14  7  1  0
 15 13  1  0
 16 15  2  0
 18 17  1  0
 19 18  1  6
 19 21  1  0
 19 20  1  0
 20 15  1  0
 21 22  1  0
 23 21  2  0
M  END
$$$$
