IMS.pdb
     RDKit          3D

 23 22  0  0  1  0  0  0  0  0999 V2000
   19.2134  -16.6190  -16.7758 C   0  0  0  0  0  0  0  0  0  0  0  0
   19.7148  -15.4589  -17.6074 C   0  0  0  0  0  0  0  0  0  0  0  0
   20.0020  -14.2597  -16.7244 C   0  0  2  0  0  0  0  0  0  0  0  0
   18.7597  -13.9858  -15.9004 C   0  0  0  0  0  0  0  0  0  0  0  0
   20.4430  -13.0665  -17.5095 C   0  0  2  0  0  0  0  0  0  0  0  0
   21.5578  -13.5145  -18.3527 N   0  0  0  0  0  0  0  0  0  0  0  0
   20.8603  -11.9114  -16.6877 C   0  0  0  0  0  0  0  0  0  0  0  0
   20.0471  -11.4651  -15.8382 O   0  0  0  0  0  0  0  0  0  0  0  0
   27.4831  -12.0091  -14.6430 C   0  0  0  0  0  0  0  0  0  0  0  0
   26.5657  -10.7546  -15.5826 S   0  0  0  0  0  0  0  0  0  0  0  0
   24.7760  -11.1631  -15.3587 C   0  0  0  0  0  0  0  0  0  0  0  0
   24.0168  -10.0662  -15.9800 C   0  0  0  0  0  0  0  0  0  0  0  0
   22.5205  -10.1294  -15.9516 C   0  0  2  0  0  0  0  0  0  0  0  0
   22.0956  -11.2801  -16.7889 N   0  0  0  0  0  0  0  0  0  0  0  0
   21.8139   -8.9168  -16.3489 C   0  0  0  0  0  0  0  0  0  0  0  0
   21.7420   -8.5385  -17.5768 O   0  0  0  0  0  0  0  0  0  0  0  0
   18.5389   -7.2859  -14.5805 O   0  0  0  0  0  0  0  0  0  0  0  0
   19.0110   -7.0548  -15.8600 C   0  0  0  0  0  0  0  0  0  0  0  0
   20.5088   -6.8160  -15.8651 C   0  0  2  0  0  0  0  0  0  0  0  0
   21.1428   -8.0477  -15.4502 N   0  0  0  0  0  0  0  0  0  0  0  0
   20.8979   -5.6641  -15.0647 C   0  0  0  0  0  0  0  0  0  0  0  0
   20.4578   -4.4024  -15.4050 O   0  0  0  0  0  0  0  0  0  0  0  0
   21.6320   -5.8015  -14.0637 O   0  0  0  0  0  0  0  0  0  0  0  0
  2  1  1  0
  3  4  1  6
  3  2  1  0
  5  3  1  0
  5  6  1  1
  7  8  2  0
  7  5  1  0
 10 11  1  0
 10  9  1  0
 11 12  1  0
 13 12  1  6
 13 14  1  0
 14  7  1  0
 15 13  1  0
 16 15  2  0
 18 17  1  0
 19 18  1  1
 19 21  1  0
 19 20  1  0
 20 15  1  0
 21 22  1  0
 23 21  2  0
M  END
$$$$
