IMS.pdb
     RDKit          3D

 23 22  0  0  1  0  0  0  0  0999 V2000
   21.9841  -11.7460  -21.7144 C   0  0  0  0  0  0  0  0  0  0  0  0
   22.8543  -11.2721  -20.5711 C   0  0  0  0  0  0  0  0  0  0  0  0
   22.0590  -10.3841  -19.6334 C   0  0  2  0  0  0  0  0  0  0  0  0
   21.4571   -9.2642  -20.4585 C   0  0  0  0  0  0  0  0  0  0  0  0
   22.8825   -9.8768  -18.4937 C   0  0  2  0  0  0  0  0  0  0  0  0
   23.5949  -11.0384  -17.9481 N   0  0  0  0  0  0  0  0  0  0  0  0
   22.1082   -9.2091  -17.4267 C   0  0  0  0  0  0  0  0  0  0  0  0
   20.9081   -8.9149  -17.6623 O   0  0  0  0  0  0  0  0  0  0  0  0
   22.2548  -12.3465  -11.6270 C   0  0  0  0  0  0  0  0  0  0  0  0
   22.3870  -10.5458  -11.8221 S   0  0  0  0  0  0  0  0  0  0  0  0
   21.9984  -10.1992  -13.5966 C   0  0  0  0  0  0  0  0  0  0  0  0
   22.2184   -8.7581  -13.7981 C   0  0  0  0  0  0  0  0  0  0  0  0
   21.8554   -8.1599  -15.1226 C   0  0  2  0  0  0  0  0  0  0  0  0
   22.6165   -8.8815  -16.1740 N   0  0  0  0  0  0  0  0  0  0  0  0
   22.0386   -6.7188  -15.2538 C   0  0  0  0  0  0  0  0  0  0  0  0
   23.1856   -6.1962  -15.5130 O   0  0  0  0  0  0  0  0  0  0  0  0
   18.9078   -3.9592  -14.7222 O   0  0  0  0  0  0  0  0  0  0  0  0
   19.8624   -3.7453  -15.7003 C   0  0  0  0  0  0  0  0  0  0  0  0
   21.2009   -4.3427  -15.3105 C   0  0  2  0  0  0  0  0  0  0  0  0
   20.9998   -5.7618  -15.1183 N   0  0  0  0  0  0  0  0  0  0  0  0
   21.7999   -3.6800  -14.1612 C   0  0  0  0  0  0  0  0  0  0  0  0
   22.0354   -4.3843  -12.9993 O   0  0  0  0  0  0  0  0  0  0  0  0
   22.1074   -2.4706  -14.2109 O   0  0  0  0  0  0  0  0  0  0  0  0
  2  1  1  0
  3  4  1  6
  3  2  1  0
  5  3  1  0
  5  6  1  1
  7  8  2  0
  7  5  1  0
 10 11  1  0
 10  9  1  0
 11 12  1  0
 13 12  1  1
 13 14  1  0
 14  7  1  0
 15 13  1  0
 16 15  2  0
 18 17  1  0
 19 18  1  1
 19 21  1  0
 19 20  1  0
 20 15  1  0
 21 22  1  0
 23 21  2  0
M  END
$$$$
