IMS.pdb
     RDKit          3D

 23 22  0  0  1  0  0  0  0  0999 V2000
   16.4467  -12.1921  -19.9525 C   0  0  0  0  0  0  0  0  0  0  0  0
   17.8716  -12.5231  -19.5666 C   0  0  0  0  0  0  0  0  0  0  0  0
   18.4125  -11.4869  -18.6000 C   0  0  2  0  0  0  0  0  0  0  0  0
   18.3011  -10.1309  -19.2678 C   0  0  0  0  0  0  0  0  0  0  0  0
   19.8066  -11.7941  -18.1567 C   0  0  2  0  0  0  0  0  0  0  0  0
   19.7644  -13.1317  -17.5538 N   0  0  0  0  0  0  0  0  0  0  0  0
   20.3737  -10.8229  -17.1981 C   0  0  0  0  0  0  0  0  0  0  0  0
   19.9738  -10.8657  -16.0062 O   0  0  0  0  0  0  0  0  0  0  0  0
   25.6245  -10.6258  -14.7097 C   0  0  0  0  0  0  0  0  0  0  0  0
   25.8347   -8.9881  -15.4659 S   0  0  0  0  0  0  0  0  0  0  0  0
   24.1404   -8.2533  -15.5611 C   0  0  0  0  0  0  0  0  0  0  0  0
   23.3363   -9.1648  -16.3907 C   0  0  0  0  0  0  0  0  0  0  0  0
   21.8777   -8.8711  -16.5641 C   0  0  2  0  0  0  0  0  0  0  0  0
   21.3232   -9.8599  -17.5235 N   0  0  0  0  0  0  0  0  0  0  0  0
   21.5350   -7.5130  -16.9711 C   0  0  0  0  0  0  0  0  0  0  0  0
   21.7483   -7.0825  -18.1649 O   0  0  0  0  0  0  0  0  0  0  0  0
   18.3365   -5.5350  -15.9172 O   0  0  0  0  0  0  0  0  0  0  0  0
   19.4438   -4.7289  -15.7237 C   0  0  0  0  0  0  0  0  0  0  0  0
   20.6258   -5.2009  -16.5487 C   0  0  2  0  0  0  0  0  0  0  0  0
   20.9409   -6.5455  -16.1199 N   0  0  0  0  0  0  0  0  0  0  0  0
   21.7588   -4.2894  -16.4820 C   0  0  0  0  0  0  0  0  0  0  0  0
   21.6237   -2.9830  -16.9020 O   0  0  0  0  0  0  0  0  0  0  0  0
   22.8635   -4.6757  -16.0457 O   0  0  0  0  0  0  0  0  0  0  0  0
  2  1  1  0
  3  4  1  6
  3  2  1  0
  5  3  1  0
  5  6  1  1
  7  8  2  0
  7  5  1  0
 10 11  1  0
 10  9  1  0
 11 12  1  0
 13 12  1  6
 13 14  1  0
 14  7  1  0
 15 13  1  0
 16 15  2  0
 18 17  1  0
 19 18  1  1
 19 21  1  0
 19 20  1  0
 20 15  1  0
 21 22  1  0
 23 21  2  0
M  END
$$$$
