IMS.pdb
     RDKit          3D

 23 22  0  0  1  0  0  0  0  0999 V2000
   16.7910  -14.0693  -18.3395 C   0  0  0  0  0  0  0  0  0  0  0  0
   18.0015  -13.2738  -18.7761 C   0  0  0  0  0  0  0  0  0  0  0  0
   18.4018  -12.2847  -17.6983 C   0  0  2  0  0  0  0  0  0  0  0  0
   17.1851  -11.4423  -17.3707 C   0  0  0  0  0  0  0  0  0  0  0  0
   19.5817  -11.4568  -18.0945 C   0  0  2  0  0  0  0  0  0  0  0  0
   20.6232  -12.3982  -18.5228 N   0  0  0  0  0  0  0  0  0  0  0  0
   20.1006  -10.5774  -17.0263 C   0  0  0  0  0  0  0  0  0  0  0  0
   19.3182   -9.7287  -16.5264 O   0  0  0  0  0  0  0  0  0  0  0  0
   26.8862   -9.6901  -15.2367 C   0  0  0  0  0  0  0  0  0  0  0  0
   25.7699  -11.1137  -15.0764 S   0  0  0  0  0  0  0  0  0  0  0  0
   24.2450  -10.6703  -16.0239 C   0  0  0  0  0  0  0  0  0  0  0  0
   23.2486  -10.2365  -15.0315 C   0  0  0  0  0  0  0  0  0  0  0  0
   21.9477   -9.6804  -15.5237 C   0  0  2  0  0  0  0  0  0  0  0  0
   21.4004  -10.6226  -16.5328 N   0  0  0  0  0  0  0  0  0  0  0  0
   21.9841   -8.3228  -16.0555 C   0  0  0  0  0  0  0  0  0  0  0  0
   22.4784   -8.0548  -17.2130 O   0  0  0  0  0  0  0  0  0  0  0  0
   19.6559   -5.1639  -14.6235 O   0  0  0  0  0  0  0  0  0  0  0  0
   20.1465   -5.2801  -15.9116 C   0  0  0  0  0  0  0  0  0  0  0  0
   21.5548   -5.8432  -15.9213 C   0  0  2  0  0  0  0  0  0  0  0  0
   21.4878   -7.1806  -15.3754 N   0  0  0  0  0  0  0  0  0  0  0  0
   22.5095   -4.9835  -15.2369 C   0  0  0  0  0  0  0  0  0  0  0  0
   22.7262   -3.6961  -15.6808 O   0  0  0  0  0  0  0  0  0  0  0  0
   23.1426   -5.3976  -14.2431 O   0  0  0  0  0  0  0  0  0  0  0  0
  2  1  1  0
  3  4  1  6
  3  2  1  0
  5  3  1  0
  5  6  1  1
  7  8  2  0
  7  5  1  0
 10 11  1  0
 10  9  1  0
 11 12  1  0
 13 12  1  6
 13 14  1  0
 14  7  1  0
 15 13  1  0
 16 15  2  0
 18 17  1  0
 19 18  1  1
 19 21  1  0
 19 20  1  0
 20 15  1  0
 21 22  1  0
 23 21  2  0
M  END
$$$$
