IMS.pdb
     RDKit          3D

 23 22  0  0  1  0  0  0  0  0999 V2000
   15.2596  -12.0773  -18.0911 C   0  0  0  0  0  0  0  0  0  0  0  0
   16.6007  -12.7701  -17.9901 C   0  0  0  0  0  0  0  0  0  0  0  0
   17.5897  -11.9015  -17.2366 C   0  0  2  0  0  0  0  0  0  0  0  0
   17.7082  -10.5861  -17.9802 C   0  0  0  0  0  0  0  0  0  0  0  0
   18.9114  -12.5742  -17.0489 C   0  0  2  0  0  0  0  0  0  0  0  0
   18.6329  -13.8602  -16.3985 N   0  0  0  0  0  0  0  0  0  0  0  0
   19.8852  -11.8015  -16.2499 C   0  0  0  0  0  0  0  0  0  0  0  0
   19.5914  -11.5341  -15.0564 O   0  0  0  0  0  0  0  0  0  0  0  0
   27.4947  -10.4482  -15.2842 C   0  0  0  0  0  0  0  0  0  0  0  0
   26.0955  -11.3296  -16.0348 S   0  0  0  0  0  0  0  0  0  0  0  0
   24.5865  -10.3596  -15.5854 C   0  0  0  0  0  0  0  0  0  0  0  0
   23.4417  -11.0714  -16.1758 C   0  0  0  0  0  0  0  0  0  0  0  0
   22.0659  -10.5279  -15.9402 C   0  0  2  0  0  0  0  0  0  0  0  0
   21.1098  -11.3470  -16.7280 N   0  0  0  0  0  0  0  0  0  0  0  0
   21.8748   -9.1085  -16.2162 C   0  0  0  0  0  0  0  0  0  0  0  0
   21.7514   -8.6554  -17.4143 O   0  0  0  0  0  0  0  0  0  0  0  0
   21.1512   -4.6219  -14.4364 O   0  0  0  0  0  0  0  0  0  0  0  0
   21.3621   -5.9732  -14.2294 C   0  0  0  0  0  0  0  0  0  0  0  0
   21.6721   -6.6927  -15.5281 C   0  0  2  0  0  0  0  0  0  0  0  0
   21.8014   -8.0998  -15.2209 N   0  0  0  0  0  0  0  0  0  0  0  0
   22.8299   -6.1395  -16.2157 C   0  0  0  0  0  0  0  0  0  0  0  0
   22.6598   -5.2413  -17.2480 O   0  0  0  0  0  0  0  0  0  0  0  0
   23.9875   -6.4688  -15.8820 O   0  0  0  0  0  0  0  0  0  0  0  0
  2  1  1  0
  3  4  1  6
  3  2  1  0
  5  3  1  0
  5  6  1  1
  7  8  2  0
  7  5  1  0
 10 11  1  0
 10  9  1  0
 11 12  1  0
 13 12  1  6
 13 14  1  0
 14  7  1  0
 15 13  1  0
 16 15  2  0
 18 17  1  0
 19 18  1  1
 19 21  1  0
 19 20  1  0
 20 15  1  0
 21 22  1  0
 23 21  2  0
M  END
$$$$
