IMS.pdb
     RDKit          3D

 23 22  0  0  1  0  0  0  0  0999 V2000
   16.0859  -10.2945  -20.7839 C   0  0  0  0  0  0  0  0  0  0  0  0
   17.3047  -11.1027  -20.3963 C   0  0  0  0  0  0  0  0  0  0  0  0
   18.0201  -10.4539  -19.2269 C   0  0  2  0  0  0  0  0  0  0  0  0
   18.4352   -9.0607  -19.6558 C   0  0  0  0  0  0  0  0  0  0  0  0
   19.1736  -11.2707  -18.7403 C   0  0  2  0  0  0  0  0  0  0  0  0
   18.6343  -12.5963  -18.4146 N   0  0  0  0  0  0  0  0  0  0  0  0
   19.8744  -10.7058  -17.5684 C   0  0  0  0  0  0  0  0  0  0  0  0
   19.2686  -10.6935  -16.4660 O   0  0  0  0  0  0  0  0  0  0  0  0
   26.8638  -10.5981  -14.2842 C   0  0  0  0  0  0  0  0  0  0  0  0
   25.6979  -11.0604  -15.5977 S   0  0  0  0  0  0  0  0  0  0  0  0
   24.2123   -9.9857  -15.3570 C   0  0  0  0  0  0  0  0  0  0  0  0
   23.2359  -10.3880  -16.3820 C   0  0  0  0  0  0  0  0  0  0  0  0
   21.9032   -9.7044  -16.4042 C   0  0  2  0  0  0  0  0  0  0  0  0
   21.1634  -10.1838  -17.5995 N   0  0  0  0  0  0  0  0  0  0  0  0
   21.9230   -8.2465  -16.3633 C   0  0  0  0  0  0  0  0  0  0  0  0
   22.2734   -7.5387  -17.3793 O   0  0  0  0  0  0  0  0  0  0  0  0
   20.3261   -4.0655  -15.1746 O   0  0  0  0  0  0  0  0  0  0  0  0
   20.3092   -5.4410  -15.3196 C   0  0  0  0  0  0  0  0  0  0  0  0
   21.6996   -6.0313  -15.1828 C   0  0  2  0  0  0  0  0  0  0  0  0
   21.5635   -7.4702  -15.2313 N   0  0  0  0  0  0  0  0  0  0  0  0
   22.4001   -5.5538  -13.9994 C   0  0  0  0  0  0  0  0  0  0  0  0
   22.3238   -6.2584  -12.8166 O   0  0  0  0  0  0  0  0  0  0  0  0
   23.0764   -4.5045  -14.0384 O   0  0  0  0  0  0  0  0  0  0  0  0
  2  1  1  0
  3  4  1  6
  3  2  1  0
  5  3  1  0
  5  6  1  1
  7  8  2  0
  7  5  1  0
 10 11  1  0
 10  9  1  0
 11 12  1  0
 13 12  1  6
 13 14  1  0
 14  7  1  0
 15 13  1  0
 16 15  2  0
 18 17  1  0
 19 18  1  1
 19 21  1  0
 19 20  1  0
 20 15  1  0
 21 22  1  0
 23 21  2  0
M  END
$$$$
