IMS.pdb
     RDKit          3D

 23 22  0  0  1  0  0  0  0  0999 V2000
   27.2266  -18.0944  -17.8382 C   0  0  0  0  0  0  0  0  0  0  0  0
   26.8133  -19.4503  -18.3669 C   0  0  0  0  0  0  0  0  0  0  0  0
   25.7814  -20.0827  -17.4528 C   0  0  2  0  0  0  0  0  0  0  0  0
   24.6058  -19.1310  -17.3563 C   0  0  0  0  0  0  0  0  0  0  0  0
   26.3453  -20.4339  -16.1137 C   0  0  2  0  0  0  0  0  0  0  0  0
   27.4767  -21.3348  -16.3640 N   0  0  0  0  0  0  0  0  0  0  0  0
   25.3832  -21.0714  -15.1908 C   0  0  0  0  0  0  0  0  0  0  0  0
   25.0010  -22.2414  -15.4502 O   0  0  0  0  0  0  0  0  0  0  0  0
   25.8639  -20.9889   -9.2007 C   0  0  0  0  0  0  0  0  0  0  0  0
   24.1003  -20.5735   -9.0763 S   0  0  0  0  0  0  0  0  0  0  0  0
   23.3306  -21.1566  -10.6534 C   0  0  0  0  0  0  0  0  0  0  0  0
   24.2069  -20.6939  -11.7415 C   0  0  0  0  0  0  0  0  0  0  0  0
   23.8691  -21.0899  -13.1461 C   0  0  2  0  0  0  0  0  0  0  0  0
   24.8681  -20.4648  -14.0499 N   0  0  0  0  0  0  0  0  0  0  0  0
   22.5136  -20.7916  -13.5943 C   0  0  0  0  0  0  0  0  0  0  0  0
   22.1357  -19.5951  -13.8801 O   0  0  0  0  0  0  0  0  0  0  0  0
   20.1473  -23.2041  -15.7747 O   0  0  0  0  0  0  0  0  0  0  0  0
   19.4919  -22.7039  -14.6640 C   0  0  0  0  0  0  0  0  0  0  0  0
   20.1425  -21.4290  -14.1621 C   0  0  2  0  0  0  0  0  0  0  0  0
   21.4924  -21.7619  -13.7643 N   0  0  0  0  0  0  0  0  0  0  0  0
   19.3713  -20.7787  -13.1127 C   0  0  0  0  0  0  0  0  0  0  0  0
   18.4573  -19.7965  -13.4308 O   0  0  0  0  0  0  0  0  0  0  0  0
   19.5257  -21.0995  -11.9156 O   0  0  0  0  0  0  0  0  0  0  0  0
  2  1  1  0
  3  4  1  1
  3  2  1  0
  5  3  1  0
  5  6  1  6
  7  8  2  0
  7  5  1  0
 10 11  1  0
 10  9  1  0
 11 12  1  0
 13 12  1  1
 13 14  1  0
 14  7  1  0
 15 13  1  0
 16 15  2  0
 18 17  1  0
 19 18  1  1
 19 21  1  0
 19 20  1  0
 20 15  1  0
 21 22  1  0
 23 21  2  0
M  END
$$$$
