IMS.pdb
     RDKit          3D

 23 22  0  0  1  0  0  0  0  0999 V2000
   28.8688   -7.5587  -21.1671 C   0  0  0  0  0  0  0  0  0  0  0  0
   29.7070   -8.6774  -20.5885 C   0  0  0  0  0  0  0  0  0  0  0  0
   30.2671   -8.2749  -19.2377 C   0  0  2  0  0  0  0  0  0  0  0  0
   31.1387   -7.0525  -19.4456 C   0  0  0  0  0  0  0  0  0  0  0  0
   30.9992   -9.3931  -18.5683 C   0  0  2  0  0  0  0  0  0  0  0  0
   30.0103  -10.4511  -18.3291 N   0  0  0  0  0  0  0  0  0  0  0  0
   31.6612   -9.0210  -17.3006 C   0  0  0  0  0  0  0  0  0  0  0  0
   30.9540   -8.9488  -16.2629 O   0  0  0  0  0  0  0  0  0  0  0  0
   36.4551  -11.2756  -12.7593 C   0  0  0  0  0  0  0  0  0  0  0  0
   36.8101  -10.4538  -14.3395 S   0  0  0  0  0  0  0  0  0  0  0  0
   35.6337   -9.0308  -14.4454 C   0  0  0  0  0  0  0  0  0  0  0  0
   34.7662   -9.2922  -15.6051 C   0  0  0  0  0  0  0  0  0  0  0  0
   33.6730   -8.3152  -15.9120 C   0  0  2  0  0  0  0  0  0  0  0  0
   33.0184   -8.7434  -17.1744 N   0  0  0  0  0  0  0  0  0  0  0  0
   34.0617   -6.9113  -15.9858 C   0  0  0  0  0  0  0  0  0  0  0  0
   34.7181   -6.4352  -16.9851 O   0  0  0  0  0  0  0  0  0  0  0  0
   33.4716   -2.3843  -14.3733 O   0  0  0  0  0  0  0  0  0  0  0  0
   33.1081   -3.7179  -14.4257 C   0  0  0  0  0  0  0  0  0  0  0  0
   34.1835   -4.5616  -15.0833 C   0  0  2  0  0  0  0  0  0  0  0  0
   33.7630   -5.9422  -14.9933 N   0  0  0  0  0  0  0  0  0  0  0  0
   35.5070   -4.3201  -14.5273 C   0  0  0  0  0  0  0  0  0  0  0  0
   36.3691   -3.4396  -15.1460 O   0  0  0  0  0  0  0  0  0  0  0  0
   35.8784   -4.9039  -13.4876 O   0  0  0  0  0  0  0  0  0  0  0  0
  2  1  1  0
  3  4  1  6
  3  2  1  0
  5  3  1  0
  5  6  1  1
  7  8  2  0
  7  5  1  0
 10 11  1  0
 10  9  1  0
 11 12  1  0
 13 12  1  6
 13 14  1  0
 14  7  1  0
 15 13  1  0
 16 15  2  0
 18 17  1  0
 19 18  1  1
 19 21  1  0
 19 20  1  0
 20 15  1  0
 21 22  1  0
 23 21  2  0
M  END
$$$$
