IMS.pdb
     RDKit          3D

 23 22  0  0  1  0  0  0  0  0999 V2000
   20.8242  -10.0577   12.5987 C   0  0  0  0  0  0  0  0  0  0  0  0
   20.6837   -9.7900   11.1163 C   0  0  0  0  0  0  0  0  0  0  0  0
   19.5897  -10.6572   10.5232 C   0  0  2  0  0  0  0  0  0  0  0  0
   19.9484  -12.1039   10.7977 C   0  0  0  0  0  0  0  0  0  0  0  0
   19.3737  -10.3867    9.0690 C   0  0  2  0  0  0  0  0  0  0  0  0
   18.9005   -9.0007    8.9713 N   0  0  0  0  0  0  0  0  0  0  0  0
   18.4143  -11.2982    8.4113 C   0  0  0  0  0  0  0  0  0  0  0  0
   17.1873  -11.1166    8.6203 O   0  0  0  0  0  0  0  0  0  0  0  0
   19.7590  -13.8212    3.0825 C   0  0  0  0  0  0  0  0  0  0  0  0
   18.5095  -12.5117    2.9338 S   0  0  0  0  0  0  0  0  0  0  0  0
   18.0215  -12.0788    4.6642 C   0  0  0  0  0  0  0  0  0  0  0  0
   18.1467  -13.3141    5.4544 C   0  0  0  0  0  0  0  0  0  0  0  0
   17.8106  -13.2642    6.9133 C   0  0  2  0  0  0  0  0  0  0  0  0
   18.7754  -12.3482    7.5735 N   0  0  0  0  0  0  0  0  0  0  0  0
   17.7595  -14.5447    7.6097 C   0  0  0  0  0  0  0  0  0  0  0  0
   18.8241  -15.1562    7.9956 O   0  0  0  0  0  0  0  0  0  0  0  0
   15.0747  -17.7884   10.0252 O   0  0  0  0  0  0  0  0  0  0  0  0
   15.1460  -16.6853    9.1936 C   0  0  0  0  0  0  0  0  0  0  0  0
   16.5441  -16.4994    8.6356 C   0  0  2  0  0  0  0  0  0  0  0  0
   16.5631  -15.2355    7.9333 N   0  0  0  0  0  0  0  0  0  0  0  0
   16.9787  -17.6239    7.8197 C   0  0  0  0  0  0  0  0  0  0  0  0
   17.6315  -18.6907    8.4002 O   0  0  0  0  0  0  0  0  0  0  0  0
   16.7677  -17.6381    6.5888 O   0  0  0  0  0  0  0  0  0  0  0  0
  2  1  1  0
  3  4  1  6
  3  2  1  0
  5  3  1  0
  5  6  1  1
  7  8  2  0
  7  5  1  0
 10 11  1  0
 10  9  1  0
 11 12  1  0
 13 12  1  6
 13 14  1  0
 14  7  1  0
 15 13  1  0
 16 15  2  0
 18 17  1  0
 19 18  1  6
 19 21  1  0
 19 20  1  0
 20 15  1  0
 21 22  1  0
 23 21  2  0
M  END
$$$$
