IMS.pdb
     RDKit          3D

 23 22  0  0  1  0  0  0  0  0999 V2000
   28.7004  -20.1176   -3.6140 C   0  0  0  0  0  0  0  0  0  0  0  0
   27.3156  -19.5985   -3.9331 C   0  0  0  0  0  0  0  0  0  0  0  0
   26.9801  -19.8471   -5.3912 C   0  0  2  0  0  0  0  0  0  0  0  0
   26.7640  -21.3369   -5.5671 C   0  0  0  0  0  0  0  0  0  0  0  0
   28.0228  -19.3066   -6.3160 C   0  0  2  0  0  0  0  0  0  0  0  0
   28.0816  -17.8602   -6.0738 N   0  0  0  0  0  0  0  0  0  0  0  0
   27.7701  -19.5718   -7.7476 C   0  0  0  0  0  0  0  0  0  0  0  0
   26.9795  -18.8089   -8.3600 O   0  0  0  0  0  0  0  0  0  0  0  0
   32.1090  -22.5465  -10.3249 C   0  0  0  0  0  0  0  0  0  0  0  0
   31.3806  -22.5484  -11.9885 S   0  0  0  0  0  0  0  0  0  0  0  0
   29.7082  -21.7797  -11.8096 C   0  0  0  0  0  0  0  0  0  0  0  0
   29.5362  -21.4832  -10.3784 C   0  0  0  0  0  0  0  0  0  0  0  0
   28.3188  -20.7232   -9.9491 C   0  0  2  0  0  0  0  0  0  0  0  0
   28.3483  -20.6115   -8.4685 N   0  0  0  0  0  0  0  0  0  0  0  0
   27.0352  -21.2500  -10.3988 C   0  0  0  0  0  0  0  0  0  0  0  0
   26.4967  -22.2887   -9.8629 O   0  0  0  0  0  0  0  0  0  0  0  0
   22.6721  -20.7895  -11.9604 O   0  0  0  0  0  0  0  0  0  0  0  0
   23.9052  -20.3049  -11.5630 C   0  0  0  0  0  0  0  0  0  0  0  0
   25.0210  -21.2709  -11.9131 C   0  0  2  0  0  0  0  0  0  0  0  0
   26.2586  -20.6876  -11.4448 N   0  0  0  0  0  0  0  0  0  0  0  0
   25.0413  -21.6191  -13.3264 C   0  0  0  0  0  0  0  0  0  0  0  0
   24.0562  -22.4254  -13.8563 O   0  0  0  0  0  0  0  0  0  0  0  0
   25.9464  -21.1948  -14.0750 O   0  0  0  0  0  0  0  0  0  0  0  0
  2  1  1  0
  3  4  1  1
  3  2  1  0
  5  3  1  0
  5  6  1  6
  7  8  2  0
  7  5  1  0
 10 11  1  0
 10  9  1  0
 11 12  1  0
 13 12  1  1
 13 14  1  0
 14  7  1  0
 15 13  1  0
 16 15  2  0
 18 17  1  0
 19 18  1  6
 19 21  1  0
 19 20  1  0
 20 15  1  0
 21 22  1  0
 23 21  2  0
M  END
$$$$
