IMS.pdb
     RDKit          3D

 23 22  0  0  1  0  0  0  0  0999 V2000
   21.3971  -22.3379  -10.6696 C   0  0  0  0  0  0  0  0  0  0  0  0
   21.5484  -20.8722  -10.3263 C   0  0  0  0  0  0  0  0  0  0  0  0
   22.8150  -20.3119  -10.9445 C   0  0  2  0  0  0  0  0  0  0  0  0
   22.7680  -20.5989  -12.4320 C   0  0  0  0  0  0  0  0  0  0  0  0
   24.0508  -20.8480  -10.2966 C   0  0  2  0  0  0  0  0  0  0  0  0
   23.9603  -20.4937   -8.8751 N   0  0  0  0  0  0  0  0  0  0  0  0
   25.3142  -20.3367  -10.8677 C   0  0  0  0  0  0  0  0  0  0  0  0
   25.5672  -19.1110  -10.7416 O   0  0  0  0  0  0  0  0  0  0  0  0
   30.8122  -21.9841   -9.5428 C   0  0  0  0  0  0  0  0  0  0  0  0
   31.1605  -22.1878  -11.3135 S   0  0  0  0  0  0  0  0  0  0  0  0
   29.9824  -21.0662  -12.1934 C   0  0  0  0  0  0  0  0  0  0  0  0
   28.6377  -21.4033  -11.6994 C   0  0  0  0  0  0  0  0  0  0  0  0
   27.4758  -20.5922  -12.1852 C   0  0  2  0  0  0  0  0  0  0  0  0
   26.2476  -21.1202  -11.5384 N   0  0  0  0  0  0  0  0  0  0  0  0
   27.3013  -20.5133  -13.6311 C   0  0  0  0  0  0  0  0  0  0  0  0
   26.7682  -21.4687  -14.3087 O   0  0  0  0  0  0  0  0  0  0  0  0
   27.3832  -17.6957  -17.6061 O   0  0  0  0  0  0  0  0  0  0  0  0
   27.4539  -17.8613  -16.2346 C   0  0  0  0  0  0  0  0  0  0  0  0
   27.4448  -19.3286  -15.8507 C   0  0  2  0  0  0  0  0  0  0  0  0
   27.6854  -19.4030  -14.4268 N   0  0  0  0  0  0  0  0  0  0  0  0
   28.3757  -20.1227  -16.6393 C   0  0  0  0  0  0  0  0  0  0  0  0
   27.9419  -20.7774  -17.7727 O   0  0  0  0  0  0  0  0  0  0  0  0
   29.5743  -20.2216  -16.3024 O   0  0  0  0  0  0  0  0  0  0  0  0
  2  1  1  0
  3  4  1  6
  3  2  1  0
  5  3  1  0
  5  6  1  1
  7  8  2  0
  7  5  1  0
 10 11  1  0
 10  9  1  0
 11 12  1  0
 13 12  1  6
 13 14  1  0
 14  7  1  0
 15 13  1  0
 16 15  2  0
 18 17  1  0
 19 18  1  6
 19 21  1  0
 19 20  1  0
 20 15  1  0
 21 22  1  0
 23 21  2  0
M  END
$$$$
