IMS.pdb
     RDKit          3D

 23 22  0  0  1  0  0  0  0  0999 V2000
   21.9238  -19.2045  -15.9049 C   0  0  0  0  0  0  0  0  0  0  0  0
   23.1723  -19.1340  -15.0532 C   0  0  0  0  0  0  0  0  0  0  0  0
   23.0164  -19.9936  -13.8134 C   0  0  2  0  0  0  0  0  0  0  0  0
   21.7100  -19.6102  -13.1477 C   0  0  0  0  0  0  0  0  0  0  0  0
   24.1856  -19.8779  -12.8892 C   0  0  2  0  0  0  0  0  0  0  0  0
   25.3679  -20.2698  -13.6658 N   0  0  0  0  0  0  0  0  0  0  0  0
   24.0853  -20.7021  -11.6667 C   0  0  0  0  0  0  0  0  0  0  0  0
   24.1781  -21.9509  -11.7858 O   0  0  0  0  0  0  0  0  0  0  0  0
   28.6626  -19.8982   -7.0160 C   0  0  0  0  0  0  0  0  0  0  0  0
   26.8679  -19.7031   -6.8171 S   0  0  0  0  0  0  0  0  0  0  0  0
   26.0988  -20.6476   -8.2086 C   0  0  0  0  0  0  0  0  0  0  0  0
   24.6468  -20.4301   -8.1081 C   0  0  0  0  0  0  0  0  0  0  0  0
   23.7628  -21.0211   -9.1631 C   0  0  2  0  0  0  0  0  0  0  0  0
   23.8942  -20.1906  -10.3874 N   0  0  0  0  0  0  0  0  0  0  0  0
   22.3587  -21.1943   -8.8084 C   0  0  0  0  0  0  0  0  0  0  0  0
   21.5136  -20.2258   -8.8694 O   0  0  0  0  0  0  0  0  0  0  0  0
   19.8409  -23.8522   -9.8999 O   0  0  0  0  0  0  0  0  0  0  0  0
   19.8910  -23.8626   -8.5176 C   0  0  0  0  0  0  0  0  0  0  0  0
   20.4025  -22.5438   -7.9701 C   0  0  2  0  0  0  0  0  0  0  0  0
   21.7854  -22.4172   -8.3735 N   0  0  0  0  0  0  0  0  0  0  0  0
   20.2022  -22.4149   -6.5340 C   0  0  0  0  0  0  0  0  0  0  0  0
   18.9267  -22.3414   -6.0154 O   0  0  0  0  0  0  0  0  0  0  0  0
   21.1777  -22.3692   -5.7554 O   0  0  0  0  0  0  0  0  0  0  0  0
  2  1  1  0
  3  4  1  1
  3  2  1  0
  5  3  1  0
  5  6  1  6
  7  8  2  0
  7  5  1  0
 10 11  1  0
 10  9  1  0
 11 12  1  0
 13 12  1  1
 13 14  1  0
 14  7  1  0
 15 13  1  0
 16 15  2  0
 18 17  1  0
 19 18  1  1
 19 21  1  0
 19 20  1  0
 20 15  1  0
 21 22  1  0
 23 21  2  0
M  END
$$$$
