FTF.pdb
     RDKit          3D

 30 31  0  0  1  0  0  0  0  0999 V2000
   19.5165  -14.2717  -21.4183 N   0  0  0  0  0  0  0  0  0  0  0  0
   19.0003  -13.6377  -20.2200 C   0  0  1  0  0  0  0  0  0  0  0  0
   19.5990  -14.3656  -19.0338 C   0  0  0  0  0  0  0  0  0  0  0  0
   19.0906  -15.7561  -18.9354 C   0  0  0  0  0  0  0  0  0  0  0  0
   17.8222  -15.9995  -18.4090 C   0  0  0  0  0  0  0  0  0  0  0  0
   17.3156  -17.2766  -18.3009 C   0  0  0  0  0  0  0  0  0  0  0  0
   18.0843  -18.3407  -18.7247 C   0  0  0  0  0  0  0  0  0  0  0  0
   19.3201  -18.1076  -19.2380 C   0  0  0  0  0  0  0  0  0  0  0  0
   19.8210  -16.8314  -19.3438 C   0  0  0  0  0  0  0  0  0  0  0  0
   19.4636  -12.2078  -20.1455 C   0  0  0  0  0  0  0  0  0  0  0  0
   20.6352  -11.8860  -20.4620 O   0  0  0  0  0  0  0  0  0  0  0  0
   17.9096   -9.4388  -21.7969 C   0  0  0  0  0  0  0  0  0  0  0  0
   18.0577   -8.9426  -20.3815 C   0  0  1  0  0  0  0  0  0  0  0  0
   16.8042   -9.0606  -19.7739 O   0  0  0  0  0  0  0  0  0  0  0  0
   19.0746   -9.8017  -19.6542 C   0  0  2  0  0  0  0  0  0  0  0  0
   18.5960  -11.1696  -19.7152 N   0  0  0  0  0  0  0  0  0  0  0  0
   19.2595   -9.3527  -18.2507 C   0  0  0  0  0  0  0  0  0  0  0  0
   18.7541  -10.0101  -17.2977 O   0  0  0  0  0  0  0  0  0  0  0  0
   20.0101   -8.1766  -17.9862 N   0  0  0  0  0  0  0  0  0  0  0  0
   20.1568   -7.6453  -16.6382 C   0  0  1  0  0  0  0  0  0  0  0  0
   21.5158   -8.0348  -16.0584 C   0  0  0  0  0  0  0  0  0  0  0  0
   21.6584   -7.3525  -14.7423 C   0  0  0  0  0  0  0  0  0  0  0  0
   22.2204   -6.0830  -14.6671 C   0  0  0  0  0  0  0  0  0  0  0  0
   22.3682   -5.4194  -13.4510 C   0  0  0  0  0  0  0  0  0  0  0  0
   21.9573   -6.0103  -12.2821 C   0  0  0  0  0  0  0  0  0  0  0  0
   21.3986   -7.2690  -12.3437 C   0  0  0  0  0  0  0  0  0  0  0  0
   21.2546   -7.9236  -13.5581 C   0  0  0  0  0  0  0  0  0  0  0  0
   19.9606   -6.1764  -16.6101 C   0  0  0  0  0  0  0  0  0  0  0  0
   20.3523   -5.4383  -17.5457 O   0  0  0  0  0  0  0  0  0  0  0  0
   19.3307   -5.5974  -15.5291 O   0  0  0  0  0  0  0  0  0  0  0  0
  2 10  1  0
  2  1  1  6
  3  2  1  0
  4  9  1  0
  4  3  1  0
  5  4  2  0
  6  7  2  0
  6  5  1  0
  7  8  1  0
  8  9  2  0
 10 11  2  0
 13 15  1  0
 13 14  1  0
 13 12  1  6
 15 16  1  1
 16 10  1  0
 17 18  2  0
 17 15  1  0
 19 17  1  0
 20 19  1  0
 20 28  1  0
 20 21  1  6
 22 21  1  0
 23 22  2  0
 24 23  1  0
 25 24  2  0
 25 26  1  0
 26 27  2  0
 27 22  1  0
 28 30  1  0
 29 28  2  0
M  END
$$$$
