FTF.pdb
     RDKit          3D

 30 31  0  0  1  0  0  0  0  0999 V2000
   23.1408  -13.8832  -17.8044 N   0  0  0  0  0  0  0  0  0  0  0  0
   23.1715  -12.5052  -18.2568 C   0  0  1  0  0  0  0  0  0  0  0  0
   21.8281  -12.2117  -18.8926 C   0  0  0  0  0  0  0  0  0  0  0  0
   21.7420  -12.7696  -20.2649 C   0  0  0  0  0  0  0  0  0  0  0  0
   20.8113  -13.7669  -20.5553 C   0  0  0  0  0  0  0  0  0  0  0  0
   20.7017  -14.3102  -21.8172 C   0  0  0  0  0  0  0  0  0  0  0  0
   21.5348  -13.8546  -22.8177 C   0  0  0  0  0  0  0  0  0  0  0  0
   22.4425  -12.8834  -22.5387 C   0  0  0  0  0  0  0  0  0  0  0  0
   22.5479  -12.3446  -21.2780 C   0  0  0  0  0  0  0  0  0  0  0  0
   23.3222  -11.5745  -17.0839 C   0  0  0  0  0  0  0  0  0  0  0  0
   22.8615  -11.8712  -15.9542 O   0  0  0  0  0  0  0  0  0  0  0  0
   25.9926  -10.9311  -15.2923 C   0  0  0  0  0  0  0  0  0  0  0  0
   25.6215   -9.5193  -15.6674 C   0  0  1  0  0  0  0  0  0  0  0  0
   26.4158   -9.1651  -16.7619 O   0  0  0  0  0  0  0  0  0  0  0  0
   24.1542   -9.4724  -16.0489 C   0  0  2  0  0  0  0  0  0  0  0  0
   23.9894  -10.3275  -17.2089 N   0  0  0  0  0  0  0  0  0  0  0  0
   23.7108   -8.0831  -16.3303 C   0  0  0  0  0  0  0  0  0  0  0  0
   23.6663   -7.6550  -17.5180 O   0  0  0  0  0  0  0  0  0  0  0  0
   23.3363   -7.2372  -15.2531 N   0  0  0  0  0  0  0  0  0  0  0  0
   22.8884   -5.8685  -15.4705 C   0  0  1  0  0  0  0  0  0  0  0  0
   21.8736   -5.4653  -14.4017 C   0  0  0  0  0  0  0  0  0  0  0  0
   21.3222   -4.1347  -14.7806 C   0  0  0  0  0  0  0  0  0  0  0  0
   20.2807   -4.0418  -15.6971 C   0  0  0  0  0  0  0  0  0  0  0  0
   19.7444   -2.8119  -16.0725 C   0  0  0  0  0  0  0  0  0  0  0  0
   20.2373   -1.6468  -15.5398 C   0  0  0  0  0  0  0  0  0  0  0  0
   21.2700   -1.7259  -14.6300 C   0  0  0  0  0  0  0  0  0  0  0  0
   21.7989   -2.9541  -14.2611 C   0  0  0  0  0  0  0  0  0  0  0  0
   24.0304   -4.9246  -15.5118 C   0  0  0  0  0  0  0  0  0  0  0  0
   24.9296   -4.9349  -14.6372 O   0  0  0  0  0  0  0  0  0  0  0  0
   24.1142   -4.0066  -16.5369 O   0  0  0  0  0  0  0  0  0  0  0  0
  2 10  1  0
  2  1  1  1
  3  2  1  0
  4  9  1  0
  4  3  1  0
  5  4  2  0
  6  7  2  0
  6  5  1  0
  7  8  1  0
  8  9  2  0
 10 11  2  0
 13 15  1  0
 13 14  1  0
 13 12  1  6
 15 16  1  6
 16 10  1  0
 17 18  2  0
 17 15  1  0
 19 17  1  0
 20 19  1  0
 20 28  1  0
 20 21  1  1
 22 21  1  0
 23 22  2  0
 24 23  1  0
 25 24  2  0
 25 26  1  0
 26 27  2  0
 27 22  1  0
 28 30  1  0
 29 28  2  0
M  END
$$$$
