FTF.pdb
     RDKit          3D

 30 31  0  0  1  0  0  0  0  0999 V2000
   26.2799  -22.5876  -17.6160 N   0  0  0  0  0  0  0  0  0  0  0  0
   25.9024  -23.9304  -17.2175 C   0  0  1  0  0  0  0  0  0  0  0  0
   24.5564  -24.2238  -17.8479 C   0  0  0  0  0  0  0  0  0  0  0  0
   23.5073  -23.3033  -17.3442 C   0  0  0  0  0  0  0  0  0  0  0  0
   23.0482  -22.2614  -18.1497 C   0  0  0  0  0  0  0  0  0  0  0  0
   22.0757  -21.3858  -17.7170 C   0  0  0  0  0  0  0  0  0  0  0  0
   21.5439  -21.5454  -16.4544 C   0  0  0  0  0  0  0  0  0  0  0  0
   21.9885  -22.5590  -15.6670 C   0  0  0  0  0  0  0  0  0  0  0  0
   22.9590  -23.4300  -16.1033 C   0  0  0  0  0  0  0  0  0  0  0  0
   26.8806  -24.9324  -17.7688 C   0  0  0  0  0  0  0  0  0  0  0  0
   27.4915  -24.7213  -18.8451 O   0  0  0  0  0  0  0  0  0  0  0  0
   29.7619  -25.9305  -16.1330 C   0  0  0  0  0  0  0  0  0  0  0  0
   29.4832  -26.3425  -17.5557 C   0  0  1  0  0  0  0  0  0  0  0  0
   30.5154  -27.2026  -17.9416 O   0  0  0  0  0  0  0  0  0  0  0  0
   28.1506  -27.0645  -17.6154 C   0  0  2  0  0  0  0  0  0  0  0  0
   27.1498  -26.1527  -17.0948 N   0  0  0  0  0  0  0  0  0  0  0  0
   28.1852  -28.3323  -16.8427 C   0  0  0  0  0  0  0  0  0  0  0  0
   28.2699  -28.3103  -15.5824 O   0  0  0  0  0  0  0  0  0  0  0  0
   28.1224  -29.5726  -17.5314 N   0  0  0  0  0  0  0  0  0  0  0  0
   27.6647  -30.7916  -16.8790 C   0  0  1  0  0  0  0  0  0  0  0  0
   26.2361  -30.6158  -16.3664 C   0  0  0  0  0  0  0  0  0  0  0  0
   25.8012  -31.9159  -15.7842 C   0  0  0  0  0  0  0  0  0  0  0  0
   26.0536  -32.2060  -14.4481 C   0  0  0  0  0  0  0  0  0  0  0  0
   25.6604  -33.4135  -13.8749 C   0  0  0  0  0  0  0  0  0  0  0  0
   25.0057  -34.3585  -14.6250 C   0  0  0  0  0  0  0  0  0  0  0  0
   24.7498  -34.0825  -15.9511 C   0  0  0  0  0  0  0  0  0  0  0  0
   25.1443  -32.8781  -16.5149 C   0  0  0  0  0  0  0  0  0  0  0  0
   27.7727  -31.9626  -17.7812 C   0  0  0  0  0  0  0  0  0  0  0  0
   27.8006  -33.1369  -17.3412 O   0  0  0  0  0  0  0  0  0  0  0  0
   27.8447  -31.7640  -19.1436 O   0  0  0  0  0  0  0  0  0  0  0  0
  2 10  1  0
  2  1  1  6
  3  2  1  0
  4  9  1  0
  4  3  1  0
  5  4  2  0
  6  7  2  0
  6  5  1  0
  7  8  1  0
  8  9  2  0
 10 11  2  0
 13 15  1  0
 13 14  1  0
 13 12  1  1
 15 16  1  1
 16 10  1  0
 17 18  2  0
 17 15  1  0
 19 17  1  0
 20 19  1  0
 20 28  1  0
 20 21  1  6
 22 21  1  0
 23 22  2  0
 24 23  1  0
 25 24  2  0
 25 26  1  0
 26 27  2  0
 27 22  1  0
 28 30  1  0
 29 28  2  0
M  END
$$$$
