FTF.pdb
     RDKit          3D

 30 31  0  0  1  0  0  0  0  0999 V2000
   26.7410   -5.1445  -18.9045 N   0  0  0  0  0  0  0  0  0  0  0  0
   25.3170   -5.0041  -19.1430 C   0  0  1  0  0  0  0  0  0  0  0  0
   24.8951   -6.1568  -20.0309 C   0  0  0  0  0  0  0  0  0  0  0  0
   25.2023   -5.8858  -21.4571 C   0  0  0  0  0  0  0  0  0  0  0  0
   25.4637   -6.9437  -22.3275 C   0  0  0  0  0  0  0  0  0  0  0  0
   25.7535   -6.7322  -23.6582 C   0  0  0  0  0  0  0  0  0  0  0  0
   25.7853   -5.4401  -24.1401 C   0  0  0  0  0  0  0  0  0  0  0  0
   25.5313   -4.4072  -23.2954 C   0  0  0  0  0  0  0  0  0  0  0  0
   25.2426   -4.6235  -21.9684 C   0  0  0  0  0  0  0  0  0  0  0  0
   24.5565   -5.1354  -17.8510 C   0  0  0  0  0  0  0  0  0  0  0  0
   24.9709   -5.8738  -16.9240 O   0  0  0  0  0  0  0  0  0  0  0  0
   22.4488   -2.0869  -16.3585 C   0  0  0  0  0  0  0  0  0  0  0  0
   22.9545   -3.2745  -15.5804 C   0  0  1  0  0  0  0  0  0  0  0  0
   22.2710   -3.2852  -14.3610 O   0  0  0  0  0  0  0  0  0  0  0  0
   22.6592   -4.5437  -16.3569 C   0  0  2  0  0  0  0  0  0  0  0  0
   23.3435   -4.4311  -17.6308 N   0  0  0  0  0  0  0  0  0  0  0  0
   21.1985   -4.7403  -16.5400 C   0  0  0  0  0  0  0  0  0  0  0  0
   20.6260   -4.3345  -17.5904 O   0  0  0  0  0  0  0  0  0  0  0  0
   20.4479   -5.3891  -15.5241 N   0  0  0  0  0  0  0  0  0  0  0  0
   18.9977   -5.5044  -15.5950 C   0  0  1  0  0  0  0  0  0  0  0  0
   18.5977   -6.5434  -16.6415 C   0  0  0  0  0  0  0  0  0  0  0  0
   17.1151   -6.5021  -16.7762 C   0  0  0  0  0  0  0  0  0  0  0  0
   16.3340   -7.5261  -16.2524 C   0  0  0  0  0  0  0  0  0  0  0  0
   14.9452   -7.5165  -16.3632 C   0  0  0  0  0  0  0  0  0  0  0  0
   14.3057   -6.4824  -17.0005 C   0  0  0  0  0  0  0  0  0  0  0  0
   15.0694   -5.4612  -17.5241 C   0  0  0  0  0  0  0  0  0  0  0  0
   16.4518   -5.4775  -17.4099 C   0  0  0  0  0  0  0  0  0  0  0  0
   18.4139   -5.8223  -14.2703 C   0  0  0  0  0  0  0  0  0  0  0  0
   19.0880   -6.3669  -13.3633 O   0  0  0  0  0  0  0  0  0  0  0  0
   17.0938   -5.5140  -14.0199 O   0  0  0  0  0  0  0  0  0  0  0  0
  2 10  1  0
  2  1  1  1
  3  2  1  0
  4  9  1  0
  4  3  1  0
  5  4  2  0
  6  7  2  0
  6  5  1  0
  7  8  1  0
  8  9  2  0
 10 11  2  0
 13 15  1  0
 13 14  1  0
 13 12  1  6
 15 16  1  6
 16 10  1  0
 17 18  2  0
 17 15  1  0
 19 17  1  0
 20 19  1  0
 20 28  1  0
 20 21  1  6
 22 21  1  0
 23 22  2  0
 24 23  1  0
 25 24  2  0
 25 26  1  0
 26 27  2  0
 27 22  1  0
 28 30  1  0
 29 28  2  0
M  END
$$$$
