FTF.pdb
     RDKit          3D

 30 31  0  0  1  0  0  0  0  0999 V2000
   21.1919  -14.0054  -19.7942 N   0  0  0  0  0  0  0  0  0  0  0  0
   20.4082  -13.1138  -18.9603 C   0  0  1  0  0  0  0  0  0  0  0  0
   20.1731  -13.8231  -17.6424 C   0  0  0  0  0  0  0  0  0  0  0  0
   19.3298  -15.0313  -17.8176 C   0  0  0  0  0  0  0  0  0  0  0  0
   18.0092  -14.9039  -18.2478 C   0  0  0  0  0  0  0  0  0  0  0  0
   17.1948  -16.0020  -18.4216 C   0  0  0  0  0  0  0  0  0  0  0  0
   17.7004  -17.2591  -18.1630 C   0  0  0  0  0  0  0  0  0  0  0  0
   18.9861  -17.3872  -17.7439 C   0  0  0  0  0  0  0  0  0  0  0  0
   19.7946  -16.2883  -17.5720 C   0  0  0  0  0  0  0  0  0  0  0  0
   21.1870  -11.8617  -18.6597 C   0  0  0  0  0  0  0  0  0  0  0  0
   22.4341  -11.8895  -18.5170 O   0  0  0  0  0  0  0  0  0  0  0  0
   21.3764   -9.1501  -20.8474 C   0  0  0  0  0  0  0  0  0  0  0  0
   20.9621   -8.4923  -19.5562 C   0  0  1  0  0  0  0  0  0  0  0  0
   19.5757   -8.3220  -19.6109 O   0  0  0  0  0  0  0  0  0  0  0  0
   21.3331   -9.3938  -18.3941 C   0  0  2  0  0  0  0  0  0  0  0  0
   20.5434  -10.6033  -18.5260 N   0  0  0  0  0  0  0  0  0  0  0  0
   21.0906   -8.7257  -17.0901 C   0  0  0  0  0  0  0  0  0  0  0  0
   20.0324   -8.9580  -16.4403 O   0  0  0  0  0  0  0  0  0  0  0  0
   22.0582   -7.8219  -16.5771 N   0  0  0  0  0  0  0  0  0  0  0  0
   21.8382   -7.0784  -15.3442 C   0  0  1  0  0  0  0  0  0  0  0  0
   22.6611   -7.6807  -14.2064 C   0  0  0  0  0  0  0  0  0  0  0  0
   23.9377   -8.1815  -14.7874 C   0  0  0  0  0  0  0  0  0  0  0  0
   24.2520   -9.5347  -14.7293 C   0  0  0  0  0  0  0  0  0  0  0  0
   25.4385  -10.0335  -15.2627 C   0  0  0  0  0  0  0  0  0  0  0  0
   26.3379   -9.1903  -15.8664 C   0  0  0  0  0  0  0  0  0  0  0  0
   26.0375   -7.8465  -15.9302 C   0  0  0  0  0  0  0  0  0  0  0  0
   24.8542   -7.3571  -15.3969 C   0  0  0  0  0  0  0  0  0  0  0  0
   22.1362   -5.6372  -15.5198 C   0  0  0  0  0  0  0  0  0  0  0  0
   22.6520   -5.1914  -16.5728 O   0  0  0  0  0  0  0  0  0  0  0  0
   21.8411   -4.7552  -14.5022 O   0  0  0  0  0  0  0  0  0  0  0  0
  2 10  1  0
  2  1  1  6
  3  2  1  0
  4  9  1  0
  4  3  1  0
  5  4  2  0
  6  7  2  0
  6  5  1  0
  7  8  1  0
  8  9  2  0
 10 11  2  0
 13 15  1  0
 13 14  1  0
 13 12  1  6
 15 16  1  1
 16 10  1  0
 17 18  2  0
 17 15  1  0
 19 17  1  0
 20 19  1  0
 20 28  1  0
 20 21  1  1
 22 21  1  0
 23 22  2  0
 24 23  1  0
 25 24  2  0
 25 26  1  0
 26 27  2  0
 27 22  1  0
 28 30  1  0
 29 28  2  0
M  END
$$$$
