FTF.pdb
     RDKit          3D

 30 31  0  0  1  0  0  0  0  0999 V2000
   25.7834   -8.6624  -19.3164 N   0  0  0  0  0  0  0  0  0  0  0  0
   25.8072   -7.7902  -18.1575 C   0  0  1  0  0  0  0  0  0  0  0  0
   26.8812   -6.7498  -18.4009 C   0  0  0  0  0  0  0  0  0  0  0  0
   28.2106   -7.3771  -18.6033 C   0  0  0  0  0  0  0  0  0  0  0  0
   28.7608   -8.1825  -17.6065 C   0  0  0  0  0  0  0  0  0  0  0  0
   29.9928   -8.7817  -17.7573 C   0  0  0  0  0  0  0  0  0  0  0  0
   30.6985   -8.5785  -18.9249 C   0  0  0  0  0  0  0  0  0  0  0  0
   30.1658   -7.7948  -19.8980 C   0  0  0  0  0  0  0  0  0  0  0  0
   28.9362   -7.1992  -19.7428 C   0  0  0  0  0  0  0  0  0  0  0  0
   24.4986   -7.0581  -18.0288 C   0  0  0  0  0  0  0  0  0  0  0  0
   23.8686   -6.6683  -19.0424 O   0  0  0  0  0  0  0  0  0  0  0  0
   21.4353   -8.1347  -16.6023 C   0  0  0  0  0  0  0  0  0  0  0  0
   21.7161   -6.8505  -15.8650 C   0  0  1  0  0  0  0  0  0  0  0  0
   22.2761   -7.2008  -14.6330 O   0  0  0  0  0  0  0  0  0  0  0  0
   22.6970   -6.0172  -16.6676 C   0  0  2  0  0  0  0  0  0  0  0  0
   23.9271   -6.7803  -16.7591 N   0  0  0  0  0  0  0  0  0  0  0  0
   22.9252   -4.6916  -16.0378 C   0  0  0  0  0  0  0  0  0  0  0  0
   24.0790   -4.3624  -15.6424 O   0  0  0  0  0  0  0  0  0  0  0  0
   21.8355   -3.7945  -15.8828 N   0  0  0  0  0  0  0  0  0  0  0  0
   22.0173   -2.4475  -15.3597 C   0  0  1  0  0  0  0  0  0  0  0  0
   23.0562   -1.6919  -16.1870 C   0  0  0  0  0  0  0  0  0  0  0  0
   22.3914   -1.2333  -17.4383 C   0  0  0  0  0  0  0  0  0  0  0  0
   22.6299   -1.8894  -18.6408 C   0  0  0  0  0  0  0  0  0  0  0  0
   22.0240   -1.4836  -19.8280 C   0  0  0  0  0  0  0  0  0  0  0  0
   21.1657   -0.4124  -19.8398 C   0  0  0  0  0  0  0  0  0  0  0  0
   20.9212    0.2463  -18.6537 C   0  0  0  0  0  0  0  0  0  0  0  0
   21.5281   -0.1634  -17.4756 C   0  0  0  0  0  0  0  0  0  0  0  0
   20.7331   -1.7097  -15.3043 C   0  0  0  0  0  0  0  0  0  0  0  0
   19.6981   -2.1389  -15.8684 O   0  0  0  0  0  0  0  0  0  0  0  0
   20.6656   -0.5174  -14.6153 O   0  0  0  0  0  0  0  0  0  0  0  0
  2 10  1  0
  2  1  1  6
  3  2  1  0
  4  9  1  0
  4  3  1  0
  5  4  2  0
  6  7  2  0
  6  5  1  0
  7  8  1  0
  8  9  2  0
 10 11  2  0
 13 15  1  0
 13 14  1  0
 13 12  1  6
 15 16  1  1
 16 10  1  0
 17 18  2  0
 17 15  1  0
 19 17  1  0
 20 19  1  0
 20 28  1  0
 20 21  1  6
 22 21  1  0
 23 22  2  0
 24 23  1  0
 25 24  2  0
 25 26  1  0
 26 27  2  0
 27 22  1  0
 28 30  1  0
 29 28  2  0
M  END
$$$$
