FTF.pdb
     RDKit          3D

 30 31  0  0  1  0  0  0  0  0999 V2000
   22.6145    4.1400  -10.6178 N   0  0  0  0  0  0  0  0  0  0  0  0
   22.4649    4.2248   -9.1774 C   0  0  1  0  0  0  0  0  0  0  0  0
   21.2269    3.4337   -8.8075 C   0  0  0  0  0  0  0  0  0  0  0  0
   19.9866    4.1786   -9.1372 C   0  0  0  0  0  0  0  0  0  0  0  0
   19.5276    5.1815   -8.2837 C   0  0  0  0  0  0  0  0  0  0  0  0
   18.3799    5.8947   -8.5554 C   0  0  0  0  0  0  0  0  0  0  0  0
   17.6681    5.6079   -9.7015 C   0  0  0  0  0  0  0  0  0  0  0  0
   18.1121    4.6317  -10.5352 C   0  0  0  0  0  0  0  0  0  0  0  0
   19.2578    3.9230  -10.2597 C   0  0  0  0  0  0  0  0  0  0  0  0
   23.6336    3.5694   -8.4922 C   0  0  0  0  0  0  0  0  0  0  0  0
   24.1489    2.5186   -8.9467 O   0  0  0  0  0  0  0  0  0  0  0  0
   26.8759    5.0211   -7.9022 C   0  0  0  0  0  0  0  0  0  0  0  0
   26.4100    4.5713   -6.5412 C   0  0  1  0  0  0  0  0  0  0  0  0
   25.8568    5.6885   -5.9089 O   0  0  0  0  0  0  0  0  0  0  0  0
   25.3599    3.4890   -6.7045 C   0  0  2  0  0  0  0  0  0  0  0  0
   24.1975    4.1126   -7.3078 N   0  0  0  0  0  0  0  0  0  0  0  0
   25.0240    2.8580   -5.4027 C   0  0  0  0  0  0  0  0  0  0  0  0
   23.9518    3.1574   -4.8054 O   0  0  0  0  0  0  0  0  0  0  0  0
   25.9180    1.9136   -4.8323 N   0  0  0  0  0  0  0  0  0  0  0  0
   25.6617    1.2971   -3.5380 C   0  0  1  0  0  0  0  0  0  0  0  0
   26.0422   -0.1824   -3.5694 C   0  0  0  0  0  0  0  0  0  0  0  0
   25.7783   -0.7462   -2.2165 C   0  0  0  0  0  0  0  0  0  0  0  0
   24.5493   -1.3277   -1.9259 C   0  0  0  0  0  0  0  0  0  0  0  0
   24.2719   -1.8627   -0.6697 C   0  0  0  0  0  0  0  0  0  0  0  0
   25.2174   -1.8282    0.3248 C   0  0  0  0  0  0  0  0  0  0  0  0
   26.4400   -1.2541    0.0489 C   0  0  0  0  0  0  0  0  0  0  0  0
   26.7090   -0.7236   -1.2042 C   0  0  0  0  0  0  0  0  0  0  0  0
   26.3677    2.0114   -2.4480 C   0  0  0  0  0  0  0  0  0  0  0  0
   27.5597    2.3845   -2.5645 O   0  0  0  0  0  0  0  0  0  0  0  0
   25.7028    2.2772   -1.2699 O   0  0  0  0  0  0  0  0  0  0  0  0
  2 10  1  0
  2  1  1  6
  3  2  1  0
  4  9  1  0
  4  3  1  0
  5  4  2  0
  6  7  2  0
  6  5  1  0
  7  8  1  0
  8  9  2  0
 10 11  2  0
 13 15  1  0
 13 14  1  0
 13 12  1  6
 15 16  1  1
 16 10  1  0
 17 18  2  0
 17 15  1  0
 19 17  1  0
 20 19  1  0
 20 28  1  0
 20 21  1  6
 22 21  1  0
 23 22  2  0
 24 23  1  0
 25 24  2  0
 25 26  1  0
 26 27  2  0
 27 22  1  0
 28 30  1  0
 29 28  2  0
M  END
$$$$
