FTF.pdb
     RDKit          3D

 30 31  0  0  1  0  0  0  0  0999 V2000
   25.1568  -18.1541  -15.6134 N   0  0  0  0  0  0  0  0  0  0  0  0
   26.1907  -18.4595  -14.6428 C   0  0  1  0  0  0  0  0  0  0  0  0
   26.8954  -17.1593  -14.3137 C   0  0  0  0  0  0  0  0  0  0  0  0
   27.8279  -16.7570  -15.3955 C   0  0  0  0  0  0  0  0  0  0  0  0
   27.7182  -15.4941  -15.9772 C   0  0  0  0  0  0  0  0  0  0  0  0
   28.5651  -15.0845  -16.9844 C   0  0  0  0  0  0  0  0  0  0  0  0
   29.5461  -15.9470  -17.4274 C   0  0  0  0  0  0  0  0  0  0  0  0
   29.6561  -17.1777  -16.8633 C   0  0  0  0  0  0  0  0  0  0  0  0
   28.8086  -17.5817  -15.8586 C   0  0  0  0  0  0  0  0  0  0  0  0
   25.5748  -18.9677  -13.3671 C   0  0  0  0  0  0  0  0  0  0  0  0
   24.4838  -18.5121  -12.9445 O   0  0  0  0  0  0  0  0  0  0  0  0
   23.8385  -21.3849  -12.9757 C   0  0  0  0  0  0  0  0  0  0  0  0
   24.7815  -21.7498  -11.8580 C   0  0  1  0  0  0  0  0  0  0  0  0
   25.6689  -22.7026  -12.3669 O   0  0  0  0  0  0  0  0  0  0  0  0
   25.5391  -20.5114  -11.4183 C   0  0  2  0  0  0  0  0  0  0  0  0
   26.2022  -19.9796  -12.5936 N   0  0  0  0  0  0  0  0  0  0  0  0
   26.5116  -20.8245  -10.3404 C   0  0  0  0  0  0  0  0  0  0  0  0
   27.7208  -21.0606  -10.6198 O   0  0  0  0  0  0  0  0  0  0  0  0
   26.0724  -20.8566   -8.9904 N   0  0  0  0  0  0  0  0  0  0  0  0
   26.8506  -21.5056   -7.9442 C   0  0  1  0  0  0  0  0  0  0  0  0
   28.2337  -20.8653   -7.8359 C   0  0  0  0  0  0  0  0  0  0  0  0
   28.3105  -20.1750   -6.5185 C   0  0  0  0  0  0  0  0  0  0  0  0
   27.7300  -18.9233   -6.3471 C   0  0  0  0  0  0  0  0  0  0  0  0
   27.7859  -18.2518   -5.1276 C   0  0  0  0  0  0  0  0  0  0  0  0
   28.4238  -18.8170   -4.0514 C   0  0  0  0  0  0  0  0  0  0  0  0
   29.0033  -20.0578   -4.2089 C   0  0  0  0  0  0  0  0  0  0  0  0
   28.9436  -20.7203   -5.4262 C   0  0  0  0  0  0  0  0  0  0  0  0
   26.1405  -21.4767   -6.6436 C   0  0  0  0  0  0  0  0  0  0  0  0
   25.0252  -20.9183   -6.5106 O   0  0  0  0  0  0  0  0  0  0  0  0
   26.7152  -22.0780   -5.5442 O   0  0  0  0  0  0  0  0  0  0  0  0
  2 10  1  0
  2  1  1  6
  3  2  1  0
  4  9  1  0
  4  3  1  0
  5  4  2  0
  6  7  2  0
  6  5  1  0
  7  8  1  0
  8  9  2  0
 10 11  2  0
 13 15  1  0
 13 14  1  0
 13 12  1  6
 15 16  1  6
 16 10  1  0
 17 18  2  0
 17 15  1  0
 19 17  1  0
 20 19  1  0
 20 28  1  0
 20 21  1  1
 22 21  1  0
 23 22  2  0
 24 23  1  0
 25 24  2  0
 25 26  1  0
 26 27  2  0
 27 22  1  0
 28 30  1  0
 29 28  2  0
M  END
$$$$
