FTF.pdb
     RDKit          3D

 30 31  0  0  1  0  0  0  0  0999 V2000
   16.6499  -13.2581    4.1298 N   0  0  0  0  0  0  0  0  0  0  0  0
   17.1217  -14.6204    4.2904 C   0  0  1  0  0  0  0  0  0  0  0  0
   18.3633  -14.7690    3.4351 C   0  0  0  0  0  0  0  0  0  0  0  0
   18.3027  -15.9908    2.5954 C   0  0  0  0  0  0  0  0  0  0  0  0
   17.3597  -16.9807    2.8713 C   0  0  0  0  0  0  0  0  0  0  0  0
   17.2728  -18.1295    2.1148 C   0  0  0  0  0  0  0  0  0  0  0  0
   18.1417  -18.3031    1.0577 C   0  0  0  0  0  0  0  0  0  0  0  0
   19.0615  -17.3412    0.7858 C   0  0  0  0  0  0  0  0  0  0  0  0
   19.1441  -16.1968    1.5437 C   0  0  0  0  0  0  0  0  0  0  0  0
   17.5318  -14.8655    5.7175 C   0  0  0  0  0  0  0  0  0  0  0  0
   17.5518  -13.9332    6.5582 O   0  0  0  0  0  0  0  0  0  0  0  0
   16.4499  -14.6213    8.0770 C   0  0  0  0  0  0  0  0  0  0  0  0
   16.7429  -16.0900    8.2468 C   0  0  1  0  0  0  0  0  0  0  0  0
   15.7074  -16.7884    7.6189 O   0  0  0  0  0  0  0  0  0  0  0  0
   18.0691  -16.4151    7.5862 C   0  0  2  0  0  0  0  0  0  0  0  0
   17.9114  -16.1575    6.1675 N   0  0  0  0  0  0  0  0  0  0  0  0
   18.4722  -17.8215    7.8417 C   0  0  0  0  0  0  0  0  0  0  0  0
   18.2889  -18.7087    6.9612 O   0  0  0  0  0  0  0  0  0  0  0  0
   19.0665  -18.1634    9.0852 N   0  0  0  0  0  0  0  0  0  0  0  0
   19.5033  -19.5209    9.3810 C   0  0  1  0  0  0  0  0  0  0  0  0
   20.7518  -19.8659    8.5705 C   0  0  0  0  0  0  0  0  0  0  0  0
   21.7990  -18.8604    8.9029 C   0  0  0  0  0  0  0  0  0  0  0  0
   22.0741  -17.8174    8.0256 C   0  0  0  0  0  0  0  0  0  0  0  0
   23.0482  -16.8621    8.3077 C   0  0  0  0  0  0  0  0  0  0  0  0
   23.7695  -16.9279    9.4738 C   0  0  0  0  0  0  0  0  0  0  0  0
   23.5058  -17.9575   10.3517 C   0  0  0  0  0  0  0  0  0  0  0  0
   22.5345  -18.9051   10.0641 C   0  0  0  0  0  0  0  0  0  0  0  0
   19.7340  -19.7120   10.8325 C   0  0  0  0  0  0  0  0  0  0  0  0
   19.6294  -18.7659   11.6496 O   0  0  0  0  0  0  0  0  0  0  0  0
   20.0732  -20.9615   11.3062 O   0  0  0  0  0  0  0  0  0  0  0  0
  2 10  1  0
  2  1  1  1
  3  2  1  0
  4  9  1  0
  4  3  1  0
  5  4  2  0
  6  7  2  0
  6  5  1  0
  7  8  1  0
  8  9  2  0
 10 11  2  0
 13 15  1  0
 13 14  1  0
 13 12  1  6
 15 16  1  6
 16 10  1  0
 17 18  2  0
 17 15  1  0
 19 17  1  0
 20 19  1  0
 20 28  1  0
 20 21  1  6
 22 21  1  0
 23 22  2  0
 24 23  1  0
 25 24  2  0
 25 26  1  0
 26 27  2  0
 27 22  1  0
 28 30  1  0
 29 28  2  0
M  END
$$$$
