FTF.pdb
     RDKit          3D

 30 31  0  0  1  0  0  0  0  0999 V2000
   28.7780  -20.8320   -8.8578 N   0  0  0  0  0  0  0  0  0  0  0  0
   27.3279  -20.8718   -8.8709 C   0  0  1  0  0  0  0  0  0  0  0  0
   26.8419  -19.8463   -7.8672 C   0  0  0  0  0  0  0  0  0  0  0  0
   27.4901  -20.0292   -6.5451 C   0  0  0  0  0  0  0  0  0  0  0  0
   28.5952  -19.2529   -6.1967 C   0  0  0  0  0  0  0  0  0  0  0  0
   29.2245  -19.3940   -4.9787 C   0  0  0  0  0  0  0  0  0  0  0  0
   28.7478  -20.3276   -4.0821 C   0  0  0  0  0  0  0  0  0  0  0  0
   27.6718  -21.0855   -4.4178 C   0  0  0  0  0  0  0  0  0  0  0  0
   27.0474  -20.9409   -5.6344 C   0  0  0  0  0  0  0  0  0  0  0  0
   26.8069  -20.4563  -10.2202 C   0  0  0  0  0  0  0  0  0  0  0  0
   27.3522  -19.5321  -10.8720 O   0  0  0  0  0  0  0  0  0  0  0  0
   27.6964  -20.3566  -12.4629 C   0  0  0  0  0  0  0  0  0  0  0  0
   26.4795  -21.0203  -13.0545 C   0  0  1  0  0  0  0  0  0  0  0  0
   26.7480  -22.3911  -13.1098 O   0  0  0  0  0  0  0  0  0  0  0  0
   25.2822  -20.7573  -12.1611 C   0  0  2  0  0  0  0  0  0  0  0  0
   25.6810  -21.0917  -10.8072 N   0  0  0  0  0  0  0  0  0  0  0  0
   24.1006  -21.5479  -12.5906 C   0  0  0  0  0  0  0  0  0  0  0  0
   23.9916  -22.7631  -12.2630 O   0  0  0  0  0  0  0  0  0  0  0  0
   23.0915  -20.9274  -13.3736 N   0  0  0  0  0  0  0  0  0  0  0  0
   21.6912  -20.9410  -12.9737 C   0  0  1  0  0  0  0  0  0  0  0  0
   21.5221  -20.2773  -11.6078 C   0  0  0  0  0  0  0  0  0  0  0  0
   20.0713  -20.2973  -11.2718 C   0  0  0  0  0  0  0  0  0  0  0  0
   19.4891  -21.4437  -10.7427 C   0  0  0  0  0  0  0  0  0  0  0  0
   18.1348  -21.4938  -10.4192 C   0  0  0  0  0  0  0  0  0  0  0  0
   17.3317  -20.3983  -10.6176 C   0  0  0  0  0  0  0  0  0  0  0  0
   17.8974  -19.2557  -11.1418 C   0  0  0  0  0  0  0  0  0  0  0  0
   19.2465  -19.2132  -11.4613 C   0  0  0  0  0  0  0  0  0  0  0  0
   20.8296  -20.2989  -13.9946 C   0  0  0  0  0  0  0  0  0  0  0  0
   21.1089  -19.1796  -14.4873 O   0  0  0  0  0  0  0  0  0  0  0  0
   19.6876  -20.9433  -14.4201 O   0  0  0  0  0  0  0  0  0  0  0  0
  2 10  1  0
  2  1  1  6
  3  2  1  0
  4  9  1  0
  4  3  1  0
  5  4  2  0
  6  7  2  0
  6  5  1  0
  7  8  1  0
  8  9  2  0
 10 11  2  0
 13 15  1  0
 13 14  1  0
 13 12  1  1
 15 16  1  1
 16 10  1  0
 17 18  2  0
 17 15  1  0
 19 17  1  0
 20 19  1  0
 20 28  1  0
 20 21  1  1
 22 21  1  0
 23 22  2  0
 24 23  1  0
 25 24  2  0
 25 26  1  0
 26 27  2  0
 27 22  1  0
 28 30  1  0
 29 28  2  0
M  END
$$$$
