FIW.pdb
     RDKit          3D

 34 36  0  0  1  0  0  0  0  0999 V2000
    5.5592  -20.1330   20.5099 N   0  0  0  0  0  0  0  0  0  0  0  0
    5.9821  -19.5128   21.7757 C   0  0  1  0  0  0  0  0  0  0  0  0
    6.5969  -20.6608   22.5725 C   0  0  0  0  0  0  0  0  0  0  0  0
    7.0011  -20.1002   23.8842 C   0  0  0  0  0  0  0  0  0  0  0  0
    8.2891  -19.6675   24.1108 C   0  0  0  0  0  0  0  0  0  0  0  0
    8.6541  -19.1414   25.3534 C   0  0  0  0  0  0  0  0  0  0  0  0
    7.7264  -19.0492   26.3698 C   0  0  0  0  0  0  0  0  0  0  0  0
    6.4456  -19.4767   26.1527 C   0  0  0  0  0  0  0  0  0  0  0  0
    6.1067  -19.9899   24.9268 C   0  0  0  0  0  0  0  0  0  0  0  0
    6.9412  -18.4495   21.4938 C   0  0  0  0  0  0  0  0  0  0  0  0
    8.0495  -18.7346   20.9629 O   0  0  0  0  0  0  0  0  0  0  0  0
    7.4981  -12.7757   19.7211 C   0  0  0  0  0  0  0  0  0  0  0  0
    8.1795  -13.8178   20.5549 C   0  0  0  0  0  0  0  0  0  0  0  0
    7.2686  -14.9373   20.9027 C   0  0  2  0  0  0  0  0  0  0  0  0
    5.8675  -14.4861   21.2650 C   0  0  0  0  0  0  0  0  0  0  0  0
    7.8009  -16.0729   21.6900 C   0  0  2  0  0  0  0  0  0  0  0  0
    6.7317  -17.0726   21.7733 N   0  0  0  0  0  0  0  0  0  0  0  0
    8.3911  -15.7942   22.9914 C   0  0  0  0  0  0  0  0  0  0  0  0
    7.6366  -15.7129   23.9891 O   0  0  0  0  0  0  0  0  0  0  0  0
    9.7822  -15.6034   23.2082 N   0  0  0  0  0  0  0  0  0  0  0  0
   10.2648  -15.2535   24.5139 C   0  0  1  0  0  0  0  0  0  0  0  0
    9.4661  -15.8589   25.6479 C   0  0  0  0  0  0  0  0  0  0  0  0
    8.1834  -15.1463   25.8650 C   0  0  0  0  0  0  0  0  0  0  0  0
    6.8830  -15.6501   25.7366 C   0  0  0  0  0  0  0  0  0  0  0  0
    5.9914  -14.6809   26.0176 N   0  0  0  0  0  0  0  0  0  0  0  0
    6.6392  -13.5419   26.3309 C   0  0  0  0  0  0  0  0  0  0  0  0
    6.1945  -12.2804   26.6893 C   0  0  0  0  0  0  0  0  0  0  0  0
    7.0819  -11.2597   26.9668 C   0  0  0  0  0  0  0  0  0  0  0  0
    8.4218  -11.5337   26.8766 C   0  0  0  0  0  0  0  0  0  0  0  0
    8.8698  -12.7908   26.5194 C   0  0  0  0  0  0  0  0  0  0  0  0
    7.9855  -13.8255   26.2379 C   0  0  0  0  0  0  0  0  0  0  0  0
   11.7115  -15.4408   24.7105 C   0  0  0  0  0  0  0  0  0  0  0  0
   12.2378  -15.1570   25.8040 O   0  0  0  0  0  0  0  0  0  0  0  0
   12.4878  -15.9290   23.6874 O   0  0  0  0  0  0  0  0  0  0  0  0
  2  1  1  6
  2  3  1  0
  4  5  2  0
  4  3  1  0
  6  5  1  0
  7  6  2  0
  8  7  1  0
  8  9  2  0
  9  4  1  0
 10  2  1  0
 11 10  2  0
 12 13  1  0
 13 14  1  0
 14 15  1  1
 16 14  1  0
 16 17  1  1
 17 10  1  0
 18 16  1  0
 18 20  1  0
 19 18  2  0
 21 20  1  0
 21 22  1  1
 22 23  1  0
 23 24  2  0
 24 25  1  0
 26 25  1  0
 27 26  2  0
 28 27  1  0
 29 30  1  0
 29 28  2  0
 30 31  2  0
 31 23  1  0
 31 26  1  0
 32 21  1  0
 33 32  2  0
 34 32  1  0
M  END
$$$$
