FIW.pdb
     RDKit          3D

 34 36  0  0  1  0  0  0  0  0999 V2000
    6.0944  -18.2674   25.0021 N   0  0  0  0  0  0  0  0  0  0  0  0
    6.5019  -16.8694   24.7895 C   0  0  1  0  0  0  0  0  0  0  0  0
    7.1417  -16.4566   26.1127 C   0  0  0  0  0  0  0  0  0  0  0  0
    7.1631  -14.9742   26.1313 C   0  0  0  0  0  0  0  0  0  0  0  0
    6.0476  -14.2473   26.4846 C   0  0  0  0  0  0  0  0  0  0  0  0
    6.0842  -12.8499   26.4972 C   0  0  0  0  0  0  0  0  0  0  0  0
    7.2407  -12.1810   26.1550 C   0  0  0  0  0  0  0  0  0  0  0  0
    8.3524  -12.8956   25.8031 C   0  0  0  0  0  0  0  0  0  0  0  0
    8.2968  -14.2659   25.7969 C   0  0  0  0  0  0  0  0  0  0  0  0
    7.4369  -16.8053   23.6708 C   0  0  0  0  0  0  0  0  0  0  0  0
    8.0800  -17.8377   23.3361 O   0  0  0  0  0  0  0  0  0  0  0  0
    6.8602  -12.6431   20.0772 C   0  0  0  0  0  0  0  0  0  0  0  0
    6.9471  -13.9893   20.7297 C   0  0  0  0  0  0  0  0  0  0  0  0
    8.3513  -14.3902   20.9971 C   0  0  2  0  0  0  0  0  0  0  0  0
    9.2894  -14.1148   19.8386 C   0  0  0  0  0  0  0  0  0  0  0  0
    8.6064  -15.6419   21.7461 C   0  0  2  0  0  0  0  0  0  0  0  0
    7.6975  -15.6433   22.8965 N   0  0  0  0  0  0  0  0  0  0  0  0
    9.9763  -15.9488   22.1316 C   0  0  0  0  0  0  0  0  0  0  0  0
   10.7812  -16.3221   21.2462 O   0  0  0  0  0  0  0  0  0  0  0  0
   10.4671  -15.8546   23.4616 N   0  0  0  0  0  0  0  0  0  0  0  0
   11.8544  -16.1013   23.7350 C   0  0  1  0  0  0  0  0  0  0  0  0
   12.3612  -15.4353   24.9959 C   0  0  0  0  0  0  0  0  0  0  0  0
   11.6815  -15.9534   26.2084 C   0  0  0  0  0  0  0  0  0  0  0  0
   11.3881  -17.2841   26.5318 C   0  0  0  0  0  0  0  0  0  0  0  0
   10.7593  -17.3334   27.7216 N   0  0  0  0  0  0  0  0  0  0  0  0
   10.6167  -16.0876   28.2143 C   0  0  0  0  0  0  0  0  0  0  0  0
   10.0498  -15.6015   29.3805 C   0  0  0  0  0  0  0  0  0  0  0  0
   10.0298  -14.2491   29.6579 C   0  0  0  0  0  0  0  0  0  0  0  0
   10.5902  -13.3987   28.7408 C   0  0  0  0  0  0  0  0  0  0  0  0
   11.1567  -13.8794   27.5761 C   0  0  0  0  0  0  0  0  0  0  0  0
   11.1824  -15.2386   27.2865 C   0  0  0  0  0  0  0  0  0  0  0  0
   12.2567  -17.5157   23.6707 C   0  0  0  0  0  0  0  0  0  0  0  0
   11.3927  -18.4108   23.5962 O   0  0  0  0  0  0  0  0  0  0  0  0
   13.5880  -17.8545   23.6936 O   0  0  0  0  0  0  0  0  0  0  0  0
  2  1  1  1
  2  3  1  0
  4  5  2  0
  4  3  1  0
  6  5  1  0
  7  6  2  0
  8  7  1  0
  8  9  2  0
  9  4  1  0
 10  2  1  0
 11 10  2  0
 12 13  1  0
 13 14  1  0
 14 15  1  6
 16 14  1  0
 16 17  1  1
 17 10  1  0
 18 16  1  0
 18 20  1  0
 19 18  2  0
 21 20  1  0
 21 22  1  1
 22 23  1  0
 23 24  2  0
 24 25  1  0
 26 25  1  0
 27 26  2  0
 28 27  1  0
 29 30  1  0
 29 28  2  0
 30 31  2  0
 31 23  1  0
 31 26  1  0
 32 21  1  0
 33 32  2  0
 34 32  1  0
M  END
$$$$
