FIW.pdb
     RDKit          3D

 34 36  0  0  1  0  0  0  0  0999 V2000
    7.5762  -16.5590   17.9478 N   0  0  0  0  0  0  0  0  0  0  0  0
    8.9563  -16.5726   18.4583 C   0  0  1  0  0  0  0  0  0  0  0  0
    9.3503  -15.0991   18.5228 C   0  0  0  0  0  0  0  0  0  0  0  0
    8.5963  -14.5058   19.6531 C   0  0  0  0  0  0  0  0  0  0  0  0
    7.2535  -14.2182   19.5445 C   0  0  0  0  0  0  0  0  0  0  0  0
    6.5570  -13.6588   20.6198 C   0  0  0  0  0  0  0  0  0  0  0  0
    7.2078  -13.3876   21.8051 C   0  0  0  0  0  0  0  0  0  0  0  0
    8.5409  -13.6703   21.9207 C   0  0  0  0  0  0  0  0  0  0  0  0
    9.2069  -14.2189   20.8547 C   0  0  0  0  0  0  0  0  0  0  0  0
    8.9789  -17.2166   19.7677 C   0  0  0  0  0  0  0  0  0  0  0  0
    7.8920  -17.4783   20.3523 O   0  0  0  0  0  0  0  0  0  0  0  0
   11.4103  -21.6767   20.4462 C   0  0  0  0  0  0  0  0  0  0  0  0
   10.4431  -20.5416   20.5932 C   0  0  0  0  0  0  0  0  0  0  0  0
   10.9071  -19.5381   21.5841 C   0  0  2  0  0  0  0  0  0  0  0  0
   11.4512  -20.1536   22.8581 C   0  0  0  0  0  0  0  0  0  0  0  0
   10.1276  -18.2908   21.7558 C   0  0  2  0  0  0  0  0  0  0  0  0
   10.1568  -17.5890   20.4688 N   0  0  0  0  0  0  0  0  0  0  0  0
   10.4674  -17.4116   22.8654 C   0  0  0  0  0  0  0  0  0  0  0  0
   11.2729  -16.4726   22.6641 O   0  0  0  0  0  0  0  0  0  0  0  0
    9.9421  -17.5505   24.1782 N   0  0  0  0  0  0  0  0  0  0  0  0
   10.2461  -16.5698   25.1814 C   0  0  1  0  0  0  0  0  0  0  0  0
    9.8704  -15.1559   24.7937 C   0  0  0  0  0  0  0  0  0  0  0  0
    8.4502  -14.8558   25.0996 C   0  0  0  0  0  0  0  0  0  0  0  0
    7.3501  -15.7194   25.0275 C   0  0  0  0  0  0  0  0  0  0  0  0
    6.2316  -15.0594   25.3833 N   0  0  0  0  0  0  0  0  0  0  0  0
    6.5336  -13.7834   25.6928 C   0  0  0  0  0  0  0  0  0  0  0  0
    5.7600  -12.7131   26.1098 C   0  0  0  0  0  0  0  0  0  0  0  0
    6.3233  -11.4792   26.3673 C   0  0  0  0  0  0  0  0  0  0  0  0
    7.6766  -11.3447   26.1973 C   0  0  0  0  0  0  0  0  0  0  0  0
    8.4520  -12.4098   25.7815 C   0  0  0  0  0  0  0  0  0  0  0  0
    7.8957  -13.6563   25.5193 C   0  0  0  0  0  0  0  0  0  0  0  0
    9.7759  -16.9027   26.5358 C   0  0  0  0  0  0  0  0  0  0  0  0
   10.1490  -16.2256   27.5134 O   0  0  0  0  0  0  0  0  0  0  0  0
    8.9236  -17.9632   26.7275 O   0  0  0  0  0  0  0  0  0  0  0  0
  2  1  1  1
  2  3  1  0
  4  5  2  0
  4  3  1  0
  6  5  1  0
  7  6  2  0
  8  7  1  0
  8  9  2  0
  9  4  1  0
 10  2  1  0
 11 10  2  0
 12 13  1  0
 13 14  1  0
 14 15  1  1
 16 14  1  0
 16 17  1  6
 17 10  1  0
 18 16  1  0
 18 20  1  0
 19 18  2  0
 21 20  1  0
 21 22  1  6
 22 23  1  0
 23 24  2  0
 24 25  1  0
 26 25  1  0
 27 26  2  0
 28 27  1  0
 29 30  1  0
 29 28  2  0
 30 31  2  0
 31 23  1  0
 31 26  1  0
 32 21  1  0
 33 32  2  0
 34 32  1  0
M  END
$$$$
