FIW.pdb
     RDKit          3D

 34 36  0  0  1  0  0  0  0  0999 V2000
    6.1775  -19.2258   20.2105 N   0  0  0  0  0  0  0  0  0  0  0  0
    6.3117  -17.9988   21.0119 C   0  0  1  0  0  0  0  0  0  0  0  0
    5.5394  -18.2983   22.2943 C   0  0  0  0  0  0  0  0  0  0  0  0
    4.1635  -18.6702   21.8858 C   0  0  0  0  0  0  0  0  0  0  0  0
    3.2188  -19.0465   22.8150 C   0  0  0  0  0  0  0  0  0  0  0  0
    1.9257  -19.3943   22.4134 C   0  0  0  0  0  0  0  0  0  0  0  0
    1.5799  -19.3646   21.0786 C   0  0  0  0  0  0  0  0  0  0  0  0
    2.5123  -18.9920   20.1500 C   0  0  0  0  0  0  0  0  0  0  0  0
    3.7755  -18.6543   20.5636 C   0  0  0  0  0  0  0  0  0  0  0  0
    7.7262  -17.7367   21.2578 C   0  0  0  0  0  0  0  0  0  0  0  0
    8.3623  -18.4621   22.0706 O   0  0  0  0  0  0  0  0  0  0  0  0
    7.4098  -12.9912   19.4014 C   0  0  0  0  0  0  0  0  0  0  0  0
    6.9698  -14.3124   19.9549 C   0  0  0  0  0  0  0  0  0  0  0  0
    7.5897  -14.5994   21.2731 C   0  0  2  0  0  0  0  0  0  0  0  0
    7.5738  -13.4150   22.2190 C   0  0  0  0  0  0  0  0  0  0  0  0
    8.8052  -15.4438   21.3219 C   0  0  2  0  0  0  0  0  0  0  0  0
    8.4787  -16.7011   20.6421 N   0  0  0  0  0  0  0  0  0  0  0  0
    9.4377  -15.6692   22.6137 C   0  0  0  0  0  0  0  0  0  0  0  0
   10.4357  -14.9771   22.9238 O   0  0  0  0  0  0  0  0  0  0  0  0
    8.9952  -16.6354   23.5567 N   0  0  0  0  0  0  0  0  0  0  0  0
    9.6734  -16.7758   24.8140 C   0  0  1  0  0  0  0  0  0  0  0  0
    9.6383  -15.5314   25.6746 C   0  0  0  0  0  0  0  0  0  0  0  0
    8.2501  -15.0882   25.9524 C   0  0  0  0  0  0  0  0  0  0  0  0
    7.0734  -15.8450   25.8911 C   0  0  0  0  0  0  0  0  0  0  0  0
    6.0193  -15.0710   26.2121 N   0  0  0  0  0  0  0  0  0  0  0  0
    6.4385  -13.8206   26.4878 C   0  0  0  0  0  0  0  0  0  0  0  0
    5.7664  -12.6693   26.8626 C   0  0  0  0  0  0  0  0  0  0  0  0
    6.4422  -11.4872   27.0911 C   0  0  0  0  0  0  0  0  0  0  0  0
    7.8039  -11.4875   26.9353 C   0  0  0  0  0  0  0  0  0  0  0  0
    8.4783  -12.6337   26.5616 C   0  0  0  0  0  0  0  0  0  0  0  0
    7.8083  -13.8291   26.3290 C   0  0  0  0  0  0  0  0  0  0  0  0
    9.3096  -17.9765   25.5836 C   0  0  0  0  0  0  0  0  0  0  0  0
    9.8836  -18.2291   26.6607 O   0  0  0  0  0  0  0  0  0  0  0  0
    8.3351  -18.8248   25.1161 O   0  0  0  0  0  0  0  0  0  0  0  0
  2  1  1  6
  2  3  1  0
  4  5  2  0
  4  3  1  0
  6  5  1  0
  7  6  2  0
  8  7  1  0
  8  9  2  0
  9  4  1  0
 10  2  1  0
 11 10  2  0
 12 13  1  0
 13 14  1  0
 14 15  1  6
 16 14  1  0
 16 17  1  1
 17 10  1  0
 18 16  1  0
 18 20  1  0
 19 18  2  0
 21 20  1  0
 21 22  1  1
 22 23  1  0
 23 24  2  0
 24 25  1  0
 26 25  1  0
 27 26  2  0
 28 27  1  0
 29 30  1  0
 29 28  2  0
 30 31  2  0
 31 23  1  0
 31 26  1  0
 32 21  1  0
 33 32  2  0
 34 32  1  0
M  END
$$$$
