FIW.pdb
     RDKit          3D

 34 36  0  0  1  0  0  0  0  0999 V2000
    5.6506  -19.0356   19.9641 N   0  0  0  0  0  0  0  0  0  0  0  0
    5.9826  -18.3125   21.2021 C   0  0  1  0  0  0  0  0  0  0  0  0
    6.1123  -19.4084   22.2570 C   0  0  0  0  0  0  0  0  0  0  0  0
    6.3395  -18.7265   23.5538 C   0  0  0  0  0  0  0  0  0  0  0  0
    5.4939  -17.7336   23.9975 C   0  0  0  0  0  0  0  0  0  0  0  0
    5.7221  -17.1004   25.2228 C   0  0  0  0  0  0  0  0  0  0  0  0
    6.7993  -17.4635   26.0038 C   0  0  0  0  0  0  0  0  0  0  0  0
    7.6433  -18.4484   25.5703 C   0  0  0  0  0  0  0  0  0  0  0  0
    7.4028  -19.0578   24.3654 C   0  0  0  0  0  0  0  0  0  0  0  0
    7.2247  -17.5713   21.0083 C   0  0  0  0  0  0  0  0  0  0  0  0
    8.1973  -18.1261   20.4271 O   0  0  0  0  0  0  0  0  0  0  0  0
    6.6704  -12.5877   19.3599 C   0  0  0  0  0  0  0  0  0  0  0  0
    7.2629  -13.9604   19.4607 C   0  0  0  0  0  0  0  0  0  0  0  0
    8.1351  -14.1054   20.6532 C   0  0  2  0  0  0  0  0  0  0  0  0
    9.1401  -12.9811   20.8072 C   0  0  0  0  0  0  0  0  0  0  0  0
    8.6197  -15.4548   21.0237 C   0  0  2  0  0  0  0  0  0  0  0  0
    7.4454  -16.2330   21.4301 N   0  0  0  0  0  0  0  0  0  0  0  0
    9.7044  -15.5578   21.9893 C   0  0  0  0  0  0  0  0  0  0  0  0
   10.8230  -15.0772   21.6910 O   0  0  0  0  0  0  0  0  0  0  0  0
    9.5786  -16.1767   23.2620 N   0  0  0  0  0  0  0  0  0  0  0  0
   10.6406  -16.0693   24.2216 C   0  0  1  0  0  0  0  0  0  0  0  0
   10.6198  -14.7847   25.0215 C   0  0  0  0  0  0  0  0  0  0  0  0
    9.4551  -14.7209   25.9380 C   0  0  0  0  0  0  0  0  0  0  0  0
    9.1192  -15.6055   26.9704 C   0  0  0  0  0  0  0  0  0  0  0  0
    7.9817  -15.1977   27.5647 N   0  0  0  0  0  0  0  0  0  0  0  0
    7.5364  -14.0719   26.9737 C   0  0  0  0  0  0  0  0  0  0  0  0
    6.4321  -13.2683   27.2027 C   0  0  0  0  0  0  0  0  0  0  0  0
    6.1943  -12.1426   26.4396 C   0  0  0  0  0  0  0  0  0  0  0  0
    7.0878  -11.8429   25.4444 C   0  0  0  0  0  0  0  0  0  0  0  0
    8.1907  -12.6419   25.2124 C   0  0  0  0  0  0  0  0  0  0  0  0
    8.4398  -13.7773   25.9744 C   0  0  0  0  0  0  0  0  0  0  0  0
   10.8122  -17.2451   25.0902 C   0  0  0  0  0  0  0  0  0  0  0  0
   11.7777  -17.3092   25.8758 O   0  0  0  0  0  0  0  0  0  0  0  0
    9.9076  -18.2779   25.0374 O   0  0  0  0  0  0  0  0  0  0  0  0
  2  1  1  6
  2  3  1  0
  4  5  2  0
  4  3  1  0
  6  5  1  0
  7  6  2  0
  8  7  1  0
  8  9  2  0
  9  4  1  0
 10  2  1  0
 11 10  2  0
 12 13  1  0
 13 14  1  0
 14 15  1  6
 16 14  1  0
 16 17  1  1
 17 10  1  0
 18 16  1  0
 18 20  1  0
 19 18  2  0
 21 20  1  0
 21 22  1  1
 22 23  1  0
 23 24  2  0
 24 25  1  0
 26 25  1  0
 27 26  2  0
 28 27  1  0
 29 30  1  0
 29 28  2  0
 30 31  2  0
 31 23  1  0
 31 26  1  0
 32 21  1  0
 33 32  2  0
 34 32  1  0
M  END
$$$$
