FIW.pdb
     RDKit          3D

 34 36  0  0  1  0  0  0  0  0999 V2000
    8.1989  -17.2302   16.9408 N   0  0  0  0  0  0  0  0  0  0  0  0
    8.4895  -16.2726   18.0198 C   0  0  1  0  0  0  0  0  0  0  0  0
    7.5393  -15.1070   17.7571 C   0  0  0  0  0  0  0  0  0  0  0  0
    7.6867  -14.1718   18.8981 C   0  0  0  0  0  0  0  0  0  0  0  0
    6.8773  -14.2656   20.0088 C   0  0  0  0  0  0  0  0  0  0  0  0
    7.0291  -13.3760   21.0764 C   0  0  0  0  0  0  0  0  0  0  0  0
    7.9937  -12.3913   21.0300 C   0  0  0  0  0  0  0  0  0  0  0  0
    8.8013  -12.2918   19.9307 C   0  0  0  0  0  0  0  0  0  0  0  0
    8.6369  -13.1738   18.8935 C   0  0  0  0  0  0  0  0  0  0  0  0
    8.2484  -16.9125   19.3091 C   0  0  0  0  0  0  0  0  0  0  0  0
    7.2587  -17.6825   19.4473 O   0  0  0  0  0  0  0  0  0  0  0  0
    8.8265  -21.3629   21.8281 C   0  0  0  0  0  0  0  0  0  0  0  0
    8.7910  -19.9707   22.3814 C   0  0  0  0  0  0  0  0  0  0  0  0
    8.8750  -18.9434   21.3129 C   0  0  2  0  0  0  0  0  0  0  0  0
    9.8254  -19.3140   20.1916 C   0  0  0  0  0  0  0  0  0  0  0  0
    8.8597  -17.5128   21.6949 C   0  0  2  0  0  0  0  0  0  0  0  0
    9.0570  -16.7406   20.4643 N   0  0  0  0  0  0  0  0  0  0  0  0
    9.7459  -17.0740   22.7634 C   0  0  0  0  0  0  0  0  0  0  0  0
   10.9841  -17.1803   22.5997 O   0  0  0  0  0  0  0  0  0  0  0  0
    9.2950  -16.5291   23.9956 N   0  0  0  0  0  0  0  0  0  0  0  0
   10.2389  -16.2126   25.0297 C   0  0  1  0  0  0  0  0  0  0  0  0
    9.8763  -14.9868   25.8399 C   0  0  0  0  0  0  0  0  0  0  0  0
    8.4219  -14.6990   25.7895 C   0  0  0  0  0  0  0  0  0  0  0  0
    7.3672  -15.6059   25.6263 C   0  0  0  0  0  0  0  0  0  0  0  0
    6.1949  -14.9433   25.6301 N   0  0  0  0  0  0  0  0  0  0  0  0
    6.4170  -13.6240   25.7895 C   0  0  0  0  0  0  0  0  0  0  0  0
    5.5664  -12.5335   25.8596 C   0  0  0  0  0  0  0  0  0  0  0  0
    6.0550  -11.2535   26.0303 C   0  0  0  0  0  0  0  0  0  0  0  0
    7.4127  -11.0939   26.1288 C   0  0  0  0  0  0  0  0  0  0  0  0
    8.2648  -12.1791   26.0594 C   0  0  0  0  0  0  0  0  0  0  0  0
    7.7840  -13.4719   25.8876 C   0  0  0  0  0  0  0  0  0  0  0  0
   10.6115  -17.3430   25.8956 C   0  0  0  0  0  0  0  0  0  0  0  0
    9.9133  -18.3753   25.9148 O   0  0  0  0  0  0  0  0  0  0  0  0
   11.7314  -17.2636   26.6876 O   0  0  0  0  0  0  0  0  0  0  0  0
  2  1  1  6
  2  3  1  0
  4  5  2  0
  4  3  1  0
  6  5  1  0
  7  6  2  0
  8  7  1  0
  8  9  2  0
  9  4  1  0
 10  2  1  0
 11 10  2  0
 12 13  1  0
 13 14  1  0
 14 15  1  1
 16 14  1  0
 16 17  1  6
 17 10  1  0
 18 16  1  0
 18 20  1  0
 19 18  2  0
 21 20  1  0
 21 22  1  1
 22 23  1  0
 23 24  2  0
 24 25  1  0
 26 25  1  0
 27 26  2  0
 28 27  1  0
 29 30  1  0
 29 28  2  0
 30 31  2  0
 31 23  1  0
 31 26  1  0
 32 21  1  0
 33 32  2  0
 34 32  1  0
M  END
$$$$
