FIW.pdb
     RDKit          3D

 34 36  0  0  1  0  0  0  0  0999 V2000
    7.6770  -19.0153   19.8996 N   0  0  0  0  0  0  0  0  0  0  0  0
    9.0490  -18.7450   19.4409 C   0  0  1  0  0  0  0  0  0  0  0  0
    8.9332  -18.6794   17.9200 C   0  0  0  0  0  0  0  0  0  0  0  0
    8.5657  -20.0407   17.4618 C   0  0  0  0  0  0  0  0  0  0  0  0
    9.4716  -21.0777   17.5018 C   0  0  0  0  0  0  0  0  0  0  0  0
    9.1093  -22.3555   17.0660 C   0  0  0  0  0  0  0  0  0  0  0  0
    7.8371  -22.5936   16.5895 C   0  0  0  0  0  0  0  0  0  0  0  0
    6.9319  -21.5693   16.5467 C   0  0  0  0  0  0  0  0  0  0  0  0
    7.3063  -20.3227   16.9787 C   0  0  0  0  0  0  0  0  0  0  0  0
    9.5123  -17.4892   20.0223 C   0  0  0  0  0  0  0  0  0  0  0  0
   10.6281  -17.0150   19.6734 O   0  0  0  0  0  0  0  0  0  0  0  0
    6.6112  -13.2548   20.0375 C   0  0  0  0  0  0  0  0  0  0  0  0
    7.7642  -14.2120   20.0284 C   0  0  0  0  0  0  0  0  0  0  0  0
    8.3071  -14.4444   21.3906 C   0  0  2  0  0  0  0  0  0  0  0  0
    8.5235  -13.1689   22.1806 C   0  0  0  0  0  0  0  0  0  0  0  0
    9.3288  -15.4990   21.5817 C   0  0  2  0  0  0  0  0  0  0  0  0
    8.7943  -16.7247   20.9803 N   0  0  0  0  0  0  0  0  0  0  0  0
    9.8418  -15.7280   22.9248 C   0  0  0  0  0  0  0  0  0  0  0  0
   10.8517  -15.0877   23.3004 O   0  0  0  0  0  0  0  0  0  0  0  0
    9.2681  -16.6423   23.8488 N   0  0  0  0  0  0  0  0  0  0  0  0
    9.8783  -16.8451   25.1321 C   0  0  1  0  0  0  0  0  0  0  0  0
    9.6601  -15.7059   26.1043 C   0  0  0  0  0  0  0  0  0  0  0  0
    8.2463  -15.2571   26.1244 C   0  0  0  0  0  0  0  0  0  0  0  0
    7.0947  -16.0201   25.8948 C   0  0  0  0  0  0  0  0  0  0  0  0
    6.0038  -15.2377   26.0008 N   0  0  0  0  0  0  0  0  0  0  0  0
    6.3741  -13.9757   26.2931 C   0  0  0  0  0  0  0  0  0  0  0  0
    5.6518  -12.8128   26.5016 C   0  0  0  0  0  0  0  0  0  0  0  0
    6.2827  -11.6200   26.7938 C   0  0  0  0  0  0  0  0  0  0  0  0
    7.6511  -11.6214   26.8716 C   0  0  0  0  0  0  0  0  0  0  0  0
    8.3755  -12.7793   26.6642 C   0  0  0  0  0  0  0  0  0  0  0  0
    7.7509  -13.9855   26.3695 C   0  0  0  0  0  0  0  0  0  0  0  0
    9.5952  -18.1489   25.7538 C   0  0  0  0  0  0  0  0  0  0  0  0
   10.1008  -18.4420   26.8546 O   0  0  0  0  0  0  0  0  0  0  0  0
    8.7720  -19.0489   25.1213 O   0  0  0  0  0  0  0  0  0  0  0  0
  2  1  1  1
  2  3  1  0
  4  5  2  0
  4  3  1  0
  6  5  1  0
  7  6  2  0
  8  7  1  0
  8  9  2  0
  9  4  1  0
 10  2  1  0
 11 10  2  0
 12 13  1  0
 13 14  1  0
 14 15  1  6
 16 14  1  0
 16 17  1  1
 17 10  1  0
 18 16  1  0
 18 20  1  0
 19 18  2  0
 21 20  1  0
 21 22  1  1
 22 23  1  0
 23 24  2  0
 24 25  1  0
 26 25  1  0
 27 26  2  0
 28 27  1  0
 29 30  1  0
 29 28  2  0
 30 31  2  0
 31 23  1  0
 31 26  1  0
 32 21  1  0
 33 32  2  0
 34 32  1  0
M  END
$$$$
