FIW.pdb
     RDKit          3D

 34 36  0  0  1  0  0  0  0  0999 V2000
    8.2859  -18.7475   17.8760 N   0  0  0  0  0  0  0  0  0  0  0  0
    7.6725  -18.5126   19.1930 C   0  0  1  0  0  0  0  0  0  0  0  0
    7.8217  -19.8452   19.9227 C   0  0  0  0  0  0  0  0  0  0  0  0
    7.1741  -19.6809   21.2463 C   0  0  0  0  0  0  0  0  0  0  0  0
    7.9196  -19.4841   22.3878 C   0  0  0  0  0  0  0  0  0  0  0  0
    7.2936  -19.3308   23.6282 C   0  0  0  0  0  0  0  0  0  0  0  0
    5.9185  -19.3749   23.7240 C   0  0  0  0  0  0  0  0  0  0  0  0
    5.1712  -19.5698   22.5952 C   0  0  0  0  0  0  0  0  0  0  0  0
    5.8038  -19.7181   21.3874 C   0  0  0  0  0  0  0  0  0  0  0  0
    8.3757  -17.4242   19.8643 C   0  0  0  0  0  0  0  0  0  0  0  0
    9.6371  -17.4050   19.8666 O   0  0  0  0  0  0  0  0  0  0  0  0
    7.2380  -12.5109   18.8181 C   0  0  0  0  0  0  0  0  0  0  0  0
    7.8894  -13.8084   19.1893 C   0  0  0  0  0  0  0  0  0  0  0  0
    7.9698  -13.9915   20.6604 C   0  0  2  0  0  0  0  0  0  0  0  0
    8.4021  -12.7422   21.4021 C   0  0  0  0  0  0  0  0  0  0  0  0
    8.4961  -15.2689   21.1932 C   0  0  2  0  0  0  0  0  0  0  0  0
    7.7452  -16.3453   20.5398 N   0  0  0  0  0  0  0  0  0  0  0  0
    8.5550  -15.4425   22.6376 C   0  0  0  0  0  0  0  0  0  0  0  0
    7.7251  -14.8316   23.3512 O   0  0  0  0  0  0  0  0  0  0  0  0
    9.5039  -16.2664   23.3004 N   0  0  0  0  0  0  0  0  0  0  0  0
   10.1384  -15.8073   24.5033 C   0  0  1  0  0  0  0  0  0  0  0  0
    9.6468  -14.4585   24.9823 C   0  0  0  0  0  0  0  0  0  0  0  0
    8.2874  -14.5405   25.5703 C   0  0  0  0  0  0  0  0  0  0  0  0
    7.4262  -15.6444   25.6040 C   0  0  0  0  0  0  0  0  0  0  0  0
    6.2804  -15.3068   26.2256 N   0  0  0  0  0  0  0  0  0  0  0  0
    6.3343  -14.0175   26.6131 C   0  0  0  0  0  0  0  0  0  0  0  0
    5.4340  -13.2013   27.2772 C   0  0  0  0  0  0  0  0  0  0  0  0
    5.7357  -11.8845   27.5621 C   0  0  0  0  0  0  0  0  0  0  0  0
    6.9581  -11.4074   27.1664 C   0  0  0  0  0  0  0  0  0  0  0  0
    7.8592  -12.2182   26.5037 C   0  0  0  0  0  0  0  0  0  0  0  0
    7.5660  -13.5451   26.2116 C   0  0  0  0  0  0  0  0  0  0  0  0
   10.1752  -16.7901   25.5984 C   0  0  0  0  0  0  0  0  0  0  0  0
    9.5298  -17.8526   25.5096 O   0  0  0  0  0  0  0  0  0  0  0  0
   10.9215  -16.5387   26.7242 O   0  0  0  0  0  0  0  0  0  0  0  0
  2  1  1  6
  2  3  1  0
  4  5  2  0
  4  3  1  0
  6  5  1  0
  7  6  2  0
  8  7  1  0
  8  9  2  0
  9  4  1  0
 10  2  1  0
 11 10  2  0
 12 13  1  0
 13 14  1  0
 14 15  1  6
 16 14  1  0
 16 17  1  6
 17 10  1  0
 18 16  1  0
 18 20  1  0
 19 18  2  0
 21 20  1  0
 21 22  1  1
 22 23  1  0
 23 24  2  0
 24 25  1  0
 26 25  1  0
 27 26  2  0
 28 27  1  0
 29 30  1  0
 29 28  2  0
 30 31  2  0
 31 23  1  0
 31 26  1  0
 32 21  1  0
 33 32  2  0
 34 32  1  0
M  END
$$$$
