FIW.pdb
     RDKit          3D

 34 36  0  0  1  0  0  0  0  0999 V2000
    5.8031  -18.2255   20.5312 N   0  0  0  0  0  0  0  0  0  0  0  0
    6.6758  -17.0534   20.7053 C   0  0  1  0  0  0  0  0  0  0  0  0
    5.7527  -15.9745   21.2661 C   0  0  0  0  0  0  0  0  0  0  0  0
    6.5283  -14.7109   21.2712 C   0  0  0  0  0  0  0  0  0  0  0  0
    6.8357  -14.0557   20.0992 C   0  0  0  0  0  0  0  0  0  0  0  0
    7.5679  -12.8650   20.1213 C   0  0  0  0  0  0  0  0  0  0  0  0
    7.9921  -12.3310   21.3200 C   0  0  0  0  0  0  0  0  0  0  0  0
    7.6907  -12.9756   22.4880 C   0  0  0  0  0  0  0  0  0  0  0  0
    6.9715  -14.1425   22.4458 C   0  0  0  0  0  0  0  0  0  0  0  0
    7.7612  -17.3931   21.6198 C   0  0  0  0  0  0  0  0  0  0  0  0
    7.5104  -18.0470   22.6691 O   0  0  0  0  0  0  0  0  0  0  0  0
   13.8146  -18.1284   21.1391 C   0  0  0  0  0  0  0  0  0  0  0  0
   12.6805  -18.0714   22.1169 C   0  0  0  0  0  0  0  0  0  0  0  0
   11.4336  -17.5578   21.4958 C   0  0  2  0  0  0  0  0  0  0  0  0
   11.6600  -16.3756   20.5743 C   0  0  0  0  0  0  0  0  0  0  0  0
   10.1976  -17.5096   22.3099 C   0  0  2  0  0  0  0  0  0  0  0  0
    9.1240  -17.0412   21.4281 N   0  0  0  0  0  0  0  0  0  0  0  0
   10.2283  -16.7794   23.5691 C   0  0  0  0  0  0  0  0  0  0  0  0
   10.4156  -15.5403   23.5414 O   0  0  0  0  0  0  0  0  0  0  0  0
   10.0607  -17.3856   24.8430 N   0  0  0  0  0  0  0  0  0  0  0  0
   10.3894  -16.6564   26.0348 C   0  0  1  0  0  0  0  0  0  0  0  0
    9.2350  -16.5050   27.0018 C   0  0  0  0  0  0  0  0  0  0  0  0
    8.1003  -15.7636   26.3992 C   0  0  0  0  0  0  0  0  0  0  0  0
    6.9746  -16.2860   25.7503 C   0  0  0  0  0  0  0  0  0  0  0  0
    6.1786  -15.2795   25.3422 N   0  0  0  0  0  0  0  0  0  0  0  0
    6.7231  -14.0973   25.6903 C   0  0  0  0  0  0  0  0  0  0  0  0
    6.3119  -12.7875   25.5083 C   0  0  0  0  0  0  0  0  0  0  0  0
    7.0679  -11.7284   25.9699 C   0  0  0  0  0  0  0  0  0  0  0  0
    8.2423  -12.0135   26.6165 C   0  0  0  0  0  0  0  0  0  0  0  0
    8.6562  -13.3186   26.8001 C   0  0  0  0  0  0  0  0  0  0  0  0
    7.9034  -14.3924   26.3396 C   0  0  0  0  0  0  0  0  0  0  0  0
   11.6128  -17.1058   26.7186 C   0  0  0  0  0  0  0  0  0  0  0  0
   12.2041  -18.1338   26.3354 O   0  0  0  0  0  0  0  0  0  0  0  0
   12.1076  -16.3928   27.7838 O   0  0  0  0  0  0  0  0  0  0  0  0
  2  1  1  1
  2  3  1  0
  4  5  2  0
  4  3  1  0
  6  5  1  0
  7  6  2  0
  8  7  1  0
  8  9  2  0
  9  4  1  0
 10  2  1  0
 11 10  2  0
 12 13  1  0
 13 14  1  0
 14 15  1  1
 16 14  1  0
 16 17  1  6
 17 10  1  0
 18 16  1  0
 18 20  1  0
 19 18  2  0
 21 20  1  0
 21 22  1  1
 22 23  1  0
 23 24  2  0
 24 25  1  0
 26 25  1  0
 27 26  2  0
 28 27  1  0
 29 30  1  0
 29 28  2  0
 30 31  2  0
 31 23  1  0
 31 26  1  0
 32 21  1  0
 33 32  2  0
 34 32  1  0
M  END
$$$$
