FIW.pdb
     RDKit          3D

 34 36  0  0  1  0  0  0  0  0999 V2000
    9.5001  -18.6562   17.2031 N   0  0  0  0  0  0  0  0  0  0  0  0
    8.9666  -18.4679   18.5617 C   0  0  1  0  0  0  0  0  0  0  0  0
    9.3329  -19.7565   19.2938 C   0  0  0  0  0  0  0  0  0  0  0  0
    8.5378  -20.8414   18.6701 C   0  0  0  0  0  0  0  0  0  0  0  0
    9.1009  -21.7078   17.7591 C   0  0  0  0  0  0  0  0  0  0  0  0
    8.3374  -22.7256   17.1801 C   0  0  0  0  0  0  0  0  0  0  0  0
    7.0078  -22.8747   17.5152 C   0  0  0  0  0  0  0  0  0  0  0  0
    6.4415  -22.0186   18.4189 C   0  0  0  0  0  0  0  0  0  0  0  0
    7.2069  -21.0264   18.9761 C   0  0  0  0  0  0  0  0  0  0  0  0
    9.5821  -17.2883   19.1613 C   0  0  0  0  0  0  0  0  0  0  0  0
   10.7830  -17.0084   18.8948 O   0  0  0  0  0  0  0  0  0  0  0  0
    6.4714  -12.9379   21.1976 C   0  0  0  0  0  0  0  0  0  0  0  0
    7.4290  -14.0639   21.4437 C   0  0  0  0  0  0  0  0  0  0  0  0
    8.5238  -14.0945   20.4414 C   0  0  2  0  0  0  0  0  0  0  0  0
    8.0689  -13.7429   19.0388 C   0  0  0  0  0  0  0  0  0  0  0  0
    9.5491  -15.1587   20.5360 C   0  0  2  0  0  0  0  0  0  0  0  0
    8.9272  -16.3944   20.0501 N   0  0  0  0  0  0  0  0  0  0  0  0
   10.2275  -15.3526   21.8095 C   0  0  0  0  0  0  0  0  0  0  0  0
   10.9121  -14.4117   22.2757 O   0  0  0  0  0  0  0  0  0  0  0  0
   10.1667  -16.5529   22.5670 N   0  0  0  0  0  0  0  0  0  0  0  0
    9.7180  -16.5206   23.9301 C   0  0  1  0  0  0  0  0  0  0  0  0
    8.5070  -15.6422   24.1588 C   0  0  0  0  0  0  0  0  0  0  0  0
    8.5225  -15.0153   25.5031 C   0  0  0  0  0  0  0  0  0  0  0  0
    9.1958  -15.4507   26.6513 C   0  0  0  0  0  0  0  0  0  0  0  0
    8.9495  -14.6046   27.6695 N   0  0  0  0  0  0  0  0  0  0  0  0
    8.1361  -13.6144   27.2535 C   0  0  0  0  0  0  0  0  0  0  0  0
    7.5942  -12.5151   27.8981 C   0  0  0  0  0  0  0  0  0  0  0  0
    6.7703  -11.6288   27.2333 C   0  0  0  0  0  0  0  0  0  0  0  0
    6.5037  -11.8706   25.9109 C   0  0  0  0  0  0  0  0  0  0  0  0
    7.0421  -12.9661   25.2640 C   0  0  0  0  0  0  0  0  0  0  0  0
    7.8727  -13.8648   25.9232 C   0  0  0  0  0  0  0  0  0  0  0  0
    9.5558  -17.8407   24.5605 C   0  0  0  0  0  0  0  0  0  0  0  0
    8.6484  -18.0310   25.3935 O   0  0  0  0  0  0  0  0  0  0  0  0
   10.4061  -18.8691   24.2330 O   0  0  0  0  0  0  0  0  0  0  0  0
  2  1  1  6
  2  3  1  0
  4  5  2  0
  4  3  1  0
  6  5  1  0
  7  6  2  0
  8  7  1  0
  8  9  2  0
  9  4  1  0
 10  2  1  0
 11 10  2  0
 12 13  1  0
 13 14  1  0
 14 15  1  6
 16 14  1  0
 16 17  1  1
 17 10  1  0
 18 16  1  0
 18 20  1  0
 19 18  2  0
 21 20  1  0
 21 22  1  6
 22 23  1  0
 23 24  2  0
 24 25  1  0
 26 25  1  0
 27 26  2  0
 28 27  1  0
 29 30  1  0
 29 28  2  0
 30 31  2  0
 31 23  1  0
 31 26  1  0
 32 21  1  0
 33 32  2  0
 34 32  1  0
M  END
$$$$
