FIW.pdb
     RDKit          3D

 34 36  0  0  1  0  0  0  0  0999 V2000
    5.5742  -19.7950   21.0679 N   0  0  0  0  0  0  0  0  0  0  0  0
    5.2281  -18.3725   21.2177 C   0  0  1  0  0  0  0  0  0  0  0  0
    4.3536  -18.3257   22.4682 C   0  0  0  0  0  0  0  0  0  0  0  0
    3.0042  -18.7863   22.0617 C   0  0  0  0  0  0  0  0  0  0  0  0
    2.2858  -19.6687   22.8381 C   0  0  0  0  0  0  0  0  0  0  0  0
    1.0146  -20.0933   22.4407 C   0  0  0  0  0  0  0  0  0  0  0  0
    0.4634  -19.6325   21.2634 C   0  0  0  0  0  0  0  0  0  0  0  0
    1.1704  -18.7561   20.4871 C   0  0  0  0  0  0  0  0  0  0  0  0
    2.4159  -18.3513   20.8939 C   0  0  0  0  0  0  0  0  0  0  0  0
    6.4527  -17.5916   21.3606 C   0  0  0  0  0  0  0  0  0  0  0  0
    7.4826  -18.1315   21.8498 O   0  0  0  0  0  0  0  0  0  0  0  0
    8.5007  -12.0289   19.6052 C   0  0  0  0  0  0  0  0  0  0  0  0
    8.8401  -13.2888   20.3421 C   0  0  0  0  0  0  0  0  0  0  0  0
    7.6532  -14.1597   20.5345 C   0  0  2  0  0  0  0  0  0  0  0  0
    6.3968  -13.3960   20.9033 C   0  0  0  0  0  0  0  0  0  0  0  0
    7.8289  -15.4685   21.2045 C   0  0  2  0  0  0  0  0  0  0  0  0
    6.5948  -16.2291   20.9849 N   0  0  0  0  0  0  0  0  0  0  0  0
    8.2361  -15.4794   22.6022 C   0  0  0  0  0  0  0  0  0  0  0  0
    7.6003  -14.7732   23.4196 O   0  0  0  0  0  0  0  0  0  0  0  0
    9.3214  -16.2448   23.1072 N   0  0  0  0  0  0  0  0  0  0  0  0
    9.9945  -15.8333   24.3063 C   0  0  1  0  0  0  0  0  0  0  0  0
    9.3302  -16.3103   25.5797 C   0  0  0  0  0  0  0  0  0  0  0  0
    8.0494  -15.6065   25.8343 C   0  0  0  0  0  0  0  0  0  0  0  0
    6.7482  -16.1085   25.7079 C   0  0  0  0  0  0  0  0  0  0  0  0
    5.8590  -15.1495   26.0288 N   0  0  0  0  0  0  0  0  0  0  0  0
    6.5094  -14.0190   26.3670 C   0  0  0  0  0  0  0  0  0  0  0  0
    6.0677  -12.7693   26.7680 C   0  0  0  0  0  0  0  0  0  0  0  0
    6.9573  -11.7558   27.0638 C   0  0  0  0  0  0  0  0  0  0  0  0
    8.2963  -12.0247   26.9482 C   0  0  0  0  0  0  0  0  0  0  0  0
    8.7412  -13.2700   26.5485 C   0  0  0  0  0  0  0  0  0  0  0  0
    7.8547  -14.2976   26.2482 C   0  0  0  0  0  0  0  0  0  0  0  0
   11.4437  -16.0905   24.3227 C   0  0  0  0  0  0  0  0  0  0  0  0
   12.1291  -15.7555   25.3083 O   0  0  0  0  0  0  0  0  0  0  0  0
   12.0467  -16.7009   23.2497 O   0  0  0  0  0  0  0  0  0  0  0  0
  2  1  1  1
  2  3  1  0
  4  5  2  0
  4  3  1  0
  6  5  1  0
  7  6  2  0
  8  7  1  0
  8  9  2  0
  9  4  1  0
 10  2  1  0
 11 10  2  0
 12 13  1  0
 13 14  1  0
 14 15  1  1
 16 14  1  0
 16 17  1  1
 17 10  1  0
 18 16  1  0
 18 20  1  0
 19 18  2  0
 21 20  1  0
 21 22  1  1
 22 23  1  0
 23 24  2  0
 24 25  1  0
 26 25  1  0
 27 26  2  0
 28 27  1  0
 29 30  1  0
 29 28  2  0
 30 31  2  0
 31 23  1  0
 31 26  1  0
 32 21  1  0
 33 32  2  0
 34 32  1  0
M  END
$$$$
