FIW.pdb
     RDKit          3D

 34 36  0  0  1  0  0  0  0  0999 V2000
    7.4111  -19.8536   20.4110 N   0  0  0  0  0  0  0  0  0  0  0  0
    8.5641  -19.6906   21.3109 C   0  0  1  0  0  0  0  0  0  0  0  0
    9.6119  -20.6554   20.7615 C   0  0  0  0  0  0  0  0  0  0  0  0
    9.0762  -22.0237   20.9592 C   0  0  0  0  0  0  0  0  0  0  0  0
    8.7565  -22.4921   22.2146 C   0  0  0  0  0  0  0  0  0  0  0  0
    8.2523  -23.7849   22.3839 C   0  0  0  0  0  0  0  0  0  0  0  0
    8.0686  -24.6087   21.2932 C   0  0  0  0  0  0  0  0  0  0  0  0
    8.3835  -24.1509   20.0435 C   0  0  0  0  0  0  0  0  0  0  0  0
    8.8769  -22.8796   19.8977 C   0  0  0  0  0  0  0  0  0  0  0  0
    9.0089  -18.3011   21.2764 C   0  0  0  0  0  0  0  0  0  0  0  0
   10.1424  -18.0212   20.7984 O   0  0  0  0  0  0  0  0  0  0  0  0
    5.9188  -14.0561   20.1874 C   0  0  0  0  0  0  0  0  0  0  0  0
    7.0461  -15.0351   20.3151 C   0  0  0  0  0  0  0  0  0  0  0  0
    7.7764  -14.8809   21.5985 C   0  0  2  0  0  0  0  0  0  0  0  0
    8.0798  -13.4383   21.9516 C   0  0  0  0  0  0  0  0  0  0  0  0
    8.8315  -15.8615   21.9420 C   0  0  2  0  0  0  0  0  0  0  0  0
    8.2534  -17.1951   21.7494 N   0  0  0  0  0  0  0  0  0  0  0  0
    9.4979  -15.7357   23.2303 C   0  0  0  0  0  0  0  0  0  0  0  0
   10.3079  -14.7942   23.3992 O   0  0  0  0  0  0  0  0  0  0  0  0
    9.2905  -16.6216   24.3216 N   0  0  0  0  0  0  0  0  0  0  0  0
    9.9984  -16.4216   25.5541 C   0  0  1  0  0  0  0  0  0  0  0  0
    9.1003  -16.2856   26.7646 C   0  0  0  0  0  0  0  0  0  0  0  0
    7.9512  -15.3843   26.5042 C   0  0  0  0  0  0  0  0  0  0  0  0
    6.6515  -15.7323   26.1156 C   0  0  0  0  0  0  0  0  0  0  0  0
    5.9061  -14.6193   25.9783 N   0  0  0  0  0  0  0  0  0  0  0  0
    6.6520  -13.5330   26.2591 C   0  0  0  0  0  0  0  0  0  0  0  0
    6.3664  -12.1780   26.2667 C   0  0  0  0  0  0  0  0  0  0  0  0
    7.3285  -11.2448   26.5982 C   0  0  0  0  0  0  0  0  0  0  0  0
    8.5798  -11.7016   26.9207 C   0  0  0  0  0  0  0  0  0  0  0  0
    8.8689  -13.0525   26.9143 C   0  0  0  0  0  0  0  0  0  0  0  0
    7.9083  -14.0006   26.5823 C   0  0  0  0  0  0  0  0  0  0  0  0
   11.0966  -17.3706   25.7989 C   0  0  0  0  0  0  0  0  0  0  0  0
   11.2472  -18.3607   25.0570 O   0  0  0  0  0  0  0  0  0  0  0  0
   11.9603  -17.1682   26.8481 O   0  0  0  0  0  0  0  0  0  0  0  0
  2  1  1  6
  2  3  1  0
  4  5  2  0
  4  3  1  0
  6  5  1  0
  7  6  2  0
  8  7  1  0
  8  9  2  0
  9  4  1  0
 10  2  1  0
 11 10  2  0
 12 13  1  0
 13 14  1  0
 14 15  1  6
 16 14  1  0
 16 17  1  1
 17 10  1  0
 18 16  1  0
 18 20  1  0
 19 18  2  0
 21 20  1  0
 21 22  1  1
 22 23  1  0
 23 24  2  0
 24 25  1  0
 26 25  1  0
 27 26  2  0
 28 27  1  0
 29 30  1  0
 29 28  2  0
 30 31  2  0
 31 23  1  0
 31 26  1  0
 32 21  1  0
 33 32  2  0
 34 32  1  0
M  END
$$$$
