IYR.pdb
     RDKit          3D

 32 32  0  0  1  0  0  0  0  0999 V2000
   28.2024  -16.0311  -17.1982 C   0  0  0  0  0  0  0  0  0  0  0  0
   27.6190  -17.3919  -16.8534 C   0  0  0  0  0  0  0  0  0  0  0  0
   26.2619  -17.2765  -16.2410 C   0  0  2  0  0  0  0  0  0  0  0  0
   26.2305  -16.3217  -15.0645 C   0  0  0  0  0  0  0  0  0  0  0  0
   25.6180  -18.5761  -15.9663 C   0  0  2  0  0  0  0  0  0  0  0  0
   25.7029  -19.4960  -17.1070 N   0  0  0  0  0  0  0  0  0  0  0  0
   24.2375  -18.5435  -15.4362 C   0  0  0  0  0  0  0  0  0  0  0  0
   23.9273  -17.9968  -14.3727 O   0  0  0  0  0  0  0  0  0  0  0  0
   21.3409  -12.8168  -16.1929 O   0  0  0  0  0  0  0  0  0  0  0  0
   21.2139  -14.2254  -16.2616 C   0  0  0  0  0  0  0  0  0  0  0  0
   20.4406  -14.9020  -15.3540 C   0  0  0  0  0  0  0  0  0  0  0  0
   20.3167  -16.2823  -15.4229 C   0  0  0  0  0  0  0  0  0  0  0  0
   20.9554  -17.0211  -16.3914 C   0  0  0  0  0  0  0  0  0  0  0  0
   20.7998  -18.4875  -16.4446 C   0  0  0  0  0  0  0  0  0  0  0  0
   21.8267  -19.2631  -15.6774 C   0  0  2  0  0  0  0  0  0  0  0  0
   23.1569  -19.1669  -16.1535 N   0  0  0  0  0  0  0  0  0  0  0  0
   21.3983  -20.6815  -15.4415 C   0  0  0  0  0  0  0  0  0  0  0  0
   21.8779  -21.6481  -16.0836 O   0  0  0  0  0  0  0  0  0  0  0  0
   21.7242  -16.3115  -17.2874 C   0  0  0  0  0  0  0  0  0  0  0  0
   21.8609  -14.9419  -17.2372 C   0  0  0  0  0  0  0  0  0  0  0  0
   18.0860  -25.1266   -8.7624 N   0  0  0  0  0  0  0  0  0  0  0  0
   18.9944  -24.0546   -8.9593 C   0  0  0  0  0  0  0  0  0  0  0  0
   19.8705  -23.7760   -8.0561 N   0  0  0  0  0  0  0  0  0  0  0  0
   18.9155  -23.3067  -10.1565 N   0  0  0  0  0  0  0  0  0  0  0  0
   17.9495  -23.6461  -11.1768 C   0  0  0  0  0  0  0  0  0  0  0  0
   18.5842  -23.6302  -12.5086 C   0  0  0  0  0  0  0  0  0  0  0  0
   19.3259  -22.4681  -12.9907 C   0  0  0  0  0  0  0  0  0  0  0  0
   19.8929  -22.4128  -14.3483 C   0  0  2  0  0  0  0  0  0  0  0  0
   20.4196  -20.9846  -14.4687 N   0  0  0  0  0  0  0  0  0  0  0  0
   18.9524  -22.5021  -15.4876 C   0  0  0  0  0  0  0  0  0  0  0  0
   18.3051  -21.4671  -15.8994 O   0  0  0  0  0  0  0  0  0  0  0  0
   18.7296  -23.6643  -16.1555 O   0  0  0  0  0  0  0  0  0  0  0  0
  2  1  1  0
  3  5  1  0
  3  2  1  0
  3  4  1  1
  5  6  1  6
  7  5  1  0
  8  7  2  0
  9 10  1  0
 10 11  2  0
 11 12  1  0
 13 12  2  0
 13 14  1  0
 15 14  1  6
 15 16  1  0
 16  7  1  0
 17 15  1  0
 18 17  2  0
 19 13  1  0
 20 10  1  0
 20 19  2  0
 21 22  1  0
 22 23  2  0
 22 24  1  0
 24 25  1  0
 26 25  1  0
 28 27  1  1
 27 26  1  0
 28 29  1  0
 29 17  1  0
 30 28  1  0
 31 30  2  0
 32 30  1  0
M  END
$$$$
