IYR.pdb
     RDKit          3D

 32 32  0  0  1  0  0  0  0  0999 V2000
   18.4500  -23.7038  -13.4398 C   0  0  0  0  0  0  0  0  0  0  0  0
   19.0199  -22.4477  -12.8007 C   0  0  0  0  0  0  0  0  0  0  0  0
   19.9547  -21.7313  -13.7188 C   0  0  2  0  0  0  0  0  0  0  0  0
   21.0545  -22.6283  -14.2502 C   0  0  0  0  0  0  0  0  0  0  0  0
   20.4452  -20.4446  -13.1868 C   0  0  2  0  0  0  0  0  0  0  0  0
   19.3571  -19.5876  -12.7007 N   0  0  0  0  0  0  0  0  0  0  0  0
   21.3635  -19.6677  -14.0477 C   0  0  0  0  0  0  0  0  0  0  0  0
   20.9976  -19.0482  -15.0519 O   0  0  0  0  0  0  0  0  0  0  0  0
   28.7720  -15.7776  -17.1329 O   0  0  0  0  0  0  0  0  0  0  0  0
   27.8187  -16.4320  -16.3157 C   0  0  0  0  0  0  0  0  0  0  0  0
   27.8332  -17.7963  -16.1811 C   0  0  0  0  0  0  0  0  0  0  0  0
   26.8987  -18.4361  -15.3796 C   0  0  0  0  0  0  0  0  0  0  0  0
   25.9309  -17.7389  -14.6947 C   0  0  0  0  0  0  0  0  0  0  0  0
   24.9540  -18.4456  -13.8439 C   0  0  0  0  0  0  0  0  0  0  0  0
   23.7278  -18.9315  -14.5543 C   0  0  2  0  0  0  0  0  0  0  0  0
   22.7696  -19.5952  -13.7500 N   0  0  0  0  0  0  0  0  0  0  0  0
   24.0664  -19.6964  -15.7997 C   0  0  0  0  0  0  0  0  0  0  0  0
   24.4794  -20.8820  -15.7736 O   0  0  0  0  0  0  0  0  0  0  0  0
   25.9436  -16.3705  -14.8512 C   0  0  0  0  0  0  0  0  0  0  0  0
   26.8617  -15.7153  -15.6416 C   0  0  0  0  0  0  0  0  0  0  0  0
   17.8540  -21.6140  -19.5098 N   0  0  0  0  0  0  0  0  0  0  0  0
   18.8734  -21.6843  -20.4941 C   0  0  0  0  0  0  0  0  0  0  0  0
   18.5821  -22.0232  -21.7029 N   0  0  0  0  0  0  0  0  0  0  0  0
   20.2023  -21.3782  -20.1207 N   0  0  0  0  0  0  0  0  0  0  0  0
   20.5269  -21.0471  -18.7517 C   0  0  0  0  0  0  0  0  0  0  0  0
   21.7291  -20.1931  -18.7027 C   0  0  0  0  0  0  0  0  0  0  0  0
   23.0628  -20.7569  -18.5108 C   0  0  0  0  0  0  0  0  0  0  0  0
   24.2500  -19.9061  -18.3258 C   0  0  2  0  0  0  0  0  0  0  0  0
   23.9300  -19.0963  -17.0715 N   0  0  0  0  0  0  0  0  0  0  0  0
   24.4991  -18.8494  -19.3318 C   0  0  0  0  0  0  0  0  0  0  0  0
   24.7627  -19.1459  -20.5575 O   0  0  0  0  0  0  0  0  0  0  0  0
   24.4566  -17.5272  -19.0213 O   0  0  0  0  0  0  0  0  0  0  0  0
  2  1  1  0
  3  5  1  0
  3  2  1  0
  3  4  1  1
  5  6  1  6
  7  5  1  0
  8  7  2  0
  9 10  1  0
 10 11  2  0
 11 12  1  0
 13 12  2  0
 13 14  1  0
 15 14  1  1
 15 16  1  0
 16  7  1  0
 17 15  1  0
 18 17  2  0
 19 13  1  0
 20 10  1  0
 20 19  2  0
 21 22  1  0
 22 23  2  0
 22 24  1  0
 24 25  1  0
 26 25  1  0
 28 27  1  6
 27 26  1  0
 28 29  1  0
 29 17  1  0
 30 28  1  0
 31 30  2  0
 32 30  1  0
M  END
$$$$
