IYR.pdb
     RDKit          3D

 32 32  0  0  1  0  0  0  0  0999 V2000
   21.1491  -20.2605  -21.2661 C   0  0  0  0  0  0  0  0  0  0  0  0
   22.0602  -21.4403  -20.9677 C   0  0  0  0  0  0  0  0  0  0  0  0
   21.9812  -21.8562  -19.5358 C   0  0  2  0  0  0  0  0  0  0  0  0
   20.6079  -22.3685  -19.1504 C   0  0  0  0  0  0  0  0  0  0  0  0
   22.5274  -20.8599  -18.5933 C   0  0  2  0  0  0  0  0  0  0  0  0
   23.8998  -20.4629  -18.9305 N   0  0  0  0  0  0  0  0  0  0  0  0
   22.4240  -21.1717  -17.1511 C   0  0  0  0  0  0  0  0  0  0  0  0
   22.7185  -22.2695  -16.6672 O   0  0  0  0  0  0  0  0  0  0  0  0
   21.1595  -20.3382   -8.3884 O   0  0  0  0  0  0  0  0  0  0  0  0
   21.4268  -20.0910   -9.7568 C   0  0  0  0  0  0  0  0  0  0  0  0
   22.4665  -20.7212  -10.3903 C   0  0  0  0  0  0  0  0  0  0  0  0
   22.7269  -20.4783  -11.7314 C   0  0  0  0  0  0  0  0  0  0  0  0
   21.9635  -19.6069  -12.4729 C   0  0  0  0  0  0  0  0  0  0  0  0
   22.2595  -19.3733  -13.8995 C   0  0  0  0  0  0  0  0  0  0  0  0
   21.7423  -20.4227  -14.8354 C   0  0  2  0  0  0  0  0  0  0  0  0
   21.9599  -20.1830  -16.2140 N   0  0  0  0  0  0  0  0  0  0  0  0
   20.3214  -20.7958  -14.5308 C   0  0  0  0  0  0  0  0  0  0  0  0
   19.3708  -19.9827  -14.6401 O   0  0  0  0  0  0  0  0  0  0  0  0
   20.9272  -18.9904  -11.8071 C   0  0  0  0  0  0  0  0  0  0  0  0
   20.6513  -19.2169  -10.4769 C   0  0  0  0  0  0  0  0  0  0  0  0
   18.7970  -24.7727   -7.6049 N   0  0  0  0  0  0  0  0  0  0  0  0
   17.4393  -24.6462   -7.9969 C   0  0  0  0  0  0  0  0  0  0  0  0
   16.5029  -24.7131   -7.1138 N   0  0  0  0  0  0  0  0  0  0  0  0
   17.1414  -24.4486   -9.3648 N   0  0  0  0  0  0  0  0  0  0  0  0
   18.1993  -24.2536  -10.3302 C   0  0  0  0  0  0  0  0  0  0  0  0
   18.0632  -22.9360  -10.9800 C   0  0  0  0  0  0  0  0  0  0  0  0
   19.0191  -22.4731  -11.9826 C   0  0  0  0  0  0  0  0  0  0  0  0
   18.6618  -22.3577  -13.4062 C   0  0  2  0  0  0  0  0  0  0  0  0
   19.9974  -22.1020  -14.1007 N   0  0  0  0  0  0  0  0  0  0  0  0
   17.8592  -21.1843  -13.8181 C   0  0  0  0  0  0  0  0  0  0  0  0
   16.6317  -21.0546  -13.4491 O   0  0  0  0  0  0  0  0  0  0  0  0
   18.3700  -20.1910  -14.5919 O   0  0  0  0  0  0  0  0  0  0  0  0
  2  1  1  0
  3  5  1  0
  3  2  1  0
  3  4  1  1
  5  6  1  6
  7  5  1  0
  8  7  2  0
  9 10  1  0
 10 11  2  0
 11 12  1  0
 13 12  2  0
 13 14  1  0
 15 14  1  1
 15 16  1  0
 16  7  1  0
 17 15  1  0
 18 17  2  0
 19 13  1  0
 20 10  1  0
 20 19  2  0
 21 22  1  0
 22 23  2  0
 22 24  1  0
 24 25  1  0
 26 25  1  0
 28 27  1  1
 27 26  1  0
 28 29  1  0
 29 17  1  0
 30 28  1  0
 31 30  2  0
 32 30  1  0
M  END
$$$$
