IYR.pdb
     RDKit          3D

 32 32  0  0  1  0  0  0  0  0999 V2000
   28.0642  -19.9809  -19.2642 C   0  0  0  0  0  0  0  0  0  0  0  0
   28.3979  -21.0449  -18.2309 C   0  0  0  0  0  0  0  0  0  0  0  0
   27.5165  -20.9495  -17.0293 C   0  0  2  0  0  0  0  0  0  0  0  0
   27.4369  -19.5421  -16.4726 C   0  0  0  0  0  0  0  0  0  0  0  0
   27.7895  -21.9769  -16.0051 C   0  0  2  0  0  0  0  0  0  0  0  0
   27.7231  -23.3397  -16.5465 N   0  0  0  0  0  0  0  0  0  0  0  0
   27.0220  -21.8889  -14.7436 C   0  0  0  0  0  0  0  0  0  0  0  0
   25.8428  -22.2409  -14.6361 O   0  0  0  0  0  0  0  0  0  0  0  0
   25.1602  -20.0595   -6.1755 O   0  0  0  0  0  0  0  0  0  0  0  0
   25.8203  -20.3084   -7.4032 C   0  0  0  0  0  0  0  0  0  0  0  0
   26.9233  -19.5783   -7.7637 C   0  0  0  0  0  0  0  0  0  0  0  0
   27.5693  -19.8237   -8.9669 C   0  0  0  0  0  0  0  0  0  0  0  0
   27.1373  -20.7967   -9.8377 C   0  0  0  0  0  0  0  0  0  0  0  0
   27.8484  -21.0403  -11.1075 C   0  0  0  0  0  0  0  0  0  0  0  0
   26.9656  -21.2420  -12.3010 C   0  0  2  0  0  0  0  0  0  0  0  0
   27.6288  -21.3720  -13.5455 N   0  0  0  0  0  0  0  0  0  0  0  0
   25.8444  -20.2461  -12.3448 C   0  0  0  0  0  0  0  0  0  0  0  0
   26.0373  -19.0184  -12.5242 O   0  0  0  0  0  0  0  0  0  0  0  0
   26.0272  -21.5120   -9.4461 C   0  0  0  0  0  0  0  0  0  0  0  0
   25.3709  -21.2849   -8.2567 C   0  0  0  0  0  0  0  0  0  0  0  0
   22.7390  -21.5236  -17.5367 N   0  0  0  0  0  0  0  0  0  0  0  0
   21.7405  -20.5166  -17.4930 C   0  0  0  0  0  0  0  0  0  0  0  0
   20.6239  -20.6866  -18.1137 N   0  0  0  0  0  0  0  0  0  0  0  0
   21.9975  -19.3345  -16.7613 N   0  0  0  0  0  0  0  0  0  0  0  0
   23.2471  -19.1597  -16.0561 C   0  0  0  0  0  0  0  0  0  0  0  0
   23.1705  -19.7765  -14.7180 C   0  0  0  0  0  0  0  0  0  0  0  0
   23.4526  -19.0138  -13.5048 C   0  0  0  0  0  0  0  0  0  0  0  0
   23.3867  -19.6242  -12.1666 C   0  0  2  0  0  0  0  0  0  0  0  0
   24.5047  -20.6641  -12.1817 N   0  0  0  0  0  0  0  0  0  0  0  0
   22.1958  -20.4420  -11.8447 C   0  0  0  0  0  0  0  0  0  0  0  0
   21.0538  -19.8927  -11.6124 O   0  0  0  0  0  0  0  0  0  0  0  0
   22.2417  -21.7988  -11.7844 O   0  0  0  0  0  0  0  0  0  0  0  0
  2  1  1  0
  3  5  1  0
  3  2  1  0
  3  4  1  1
  5  6  1  6
  7  5  1  0
  8  7  2  0
  9 10  1  0
 10 11  2  0
 11 12  1  0
 13 12  2  0
 13 14  1  0
 15 14  1  1
 15 16  1  0
 16  7  1  0
 17 15  1  0
 18 17  2  0
 19 13  1  0
 20 10  1  0
 20 19  2  0
 21 22  1  0
 22 23  2  0
 22 24  1  0
 24 25  1  0
 26 25  1  0
 28 27  1  6
 27 26  1  0
 28 29  1  0
 29 17  1  0
 30 28  1  0
 31 30  2  0
 32 30  1  0
M  END
$$$$
