IYR.pdb
     RDKit          3D

 32 32  0  0  1  0  0  0  0  0999 V2000
   32.4441  -26.1981  -18.6678 C   0  0  0  0  0  0  0  0  0  0  0  0
   31.1971  -26.4020  -17.8226 C   0  0  0  0  0  0  0  0  0  0  0  0
   30.3312  -25.1855  -17.8059 C   0  0  2  0  0  0  0  0  0  0  0  0
   31.1031  -23.9226  -17.4802 C   0  0  0  0  0  0  0  0  0  0  0  0
   29.0941  -25.3437  -17.0161 C   0  0  2  0  0  0  0  0  0  0  0  0
   28.3390  -26.5450  -17.3918 N   0  0  0  0  0  0  0  0  0  0  0  0
   28.1915  -24.1743  -16.9396 C   0  0  0  0  0  0  0  0  0  0  0  0
   28.5504  -23.0595  -16.5468 O   0  0  0  0  0  0  0  0  0  0  0  0
   21.1920  -18.9146  -18.6163 O   0  0  0  0  0  0  0  0  0  0  0  0
   22.1792  -19.9297  -18.6245 C   0  0  0  0  0  0  0  0  0  0  0  0
   21.8492  -21.2273  -18.3296 C   0  0  0  0  0  0  0  0  0  0  0  0
   22.8175  -22.2210  -18.3385 C   0  0  0  0  0  0  0  0  0  0  0  0
   24.1321  -21.9510  -18.6398 C   0  0  0  0  0  0  0  0  0  0  0  0
   25.1393  -23.0293  -18.6483 C   0  0  0  0  0  0  0  0  0  0  0  0
   25.9001  -23.1976  -17.3687 C   0  0  2  0  0  0  0  0  0  0  0  0
   26.8102  -24.2820  -17.3286 N   0  0  0  0  0  0  0  0  0  0  0  0
   24.9991  -23.1546  -16.1699 C   0  0  0  0  0  0  0  0  0  0  0  0
   24.3928  -24.1681  -15.7433 O   0  0  0  0  0  0  0  0  0  0  0  0
   24.4306  -20.6382  -18.9313 C   0  0  0  0  0  0  0  0  0  0  0  0
   23.4852  -19.6365  -18.9281 C   0  0  0  0  0  0  0  0  0  0  0  0
   23.0157  -19.9077   -9.7519 N   0  0  0  0  0  0  0  0  0  0  0  0
   23.7920  -20.7403   -8.9052 C   0  0  0  0  0  0  0  0  0  0  0  0
   23.3929  -20.9942   -7.7063 N   0  0  0  0  0  0  0  0  0  0  0  0
   25.0015  -21.2780   -9.4022 N   0  0  0  0  0  0  0  0  0  0  0  0
   25.4682  -20.9432  -10.7286 C   0  0  0  0  0  0  0  0  0  0  0  0
   24.5580  -21.5003  -11.7475 C   0  0  0  0  0  0  0  0  0  0  0  0
   24.8310  -21.3647  -13.1759 C   0  0  0  0  0  0  0  0  0  0  0  0
   23.9452  -21.9464  -14.1980 C   0  0  2  0  0  0  0  0  0  0  0  0
   24.7970  -21.9468  -15.4653 N   0  0  0  0  0  0  0  0  0  0  0  0
   22.7630  -21.1568  -14.6096 C   0  0  0  0  0  0  0  0  0  0  0  0
   21.5717  -21.5207  -14.2804 O   0  0  0  0  0  0  0  0  0  0  0  0
   22.8704  -20.0169  -15.3416 O   0  0  0  0  0  0  0  0  0  0  0  0
  2  1  1  0
  3  5  1  0
  3  2  1  0
  3  4  1  1
  5  6  1  6
  7  5  1  0
  8  7  2  0
  9 10  1  0
 10 11  2  0
 11 12  1  0
 13 12  2  0
 13 14  1  0
 15 14  1  6
 15 16  1  0
 16  7  1  0
 17 15  1  0
 18 17  2  0
 19 13  1  0
 20 10  1  0
 20 19  2  0
 21 22  1  0
 22 23  2  0
 22 24  1  0
 24 25  1  0
 26 25  1  0
 28 27  1  1
 27 26  1  0
 28 29  1  0
 29 17  1  0
 30 28  1  0
 31 30  2  0
 32 30  1  0
M  END
$$$$
