IYR.pdb
     RDKit          3D

 32 32  0  0  1  0  0  0  0  0999 V2000
   27.0597  -22.4318  -20.6535 C   0  0  0  0  0  0  0  0  0  0  0  0
   27.5738  -22.9908  -19.3365 C   0  0  0  0  0  0  0  0  0  0  0  0
   26.5993  -22.7809  -18.2247 C   0  0  2  0  0  0  0  0  0  0  0  0
   26.0746  -21.3602  -18.1672 C   0  0  0  0  0  0  0  0  0  0  0  0
   27.0614  -23.2947  -16.9203 C   0  0  2  0  0  0  0  0  0  0  0  0
   27.4432  -24.7108  -16.9790 N   0  0  0  0  0  0  0  0  0  0  0  0
   26.1874  -23.0477  -15.7528 C   0  0  0  0  0  0  0  0  0  0  0  0
   25.1416  -23.6696  -15.5392 O   0  0  0  0  0  0  0  0  0  0  0  0
   23.1993  -20.1953   -7.8958 O   0  0  0  0  0  0  0  0  0  0  0  0
   23.9907  -20.3816   -9.0552 C   0  0  0  0  0  0  0  0  0  0  0  0
   24.8470  -21.4478   -9.1523 C   0  0  0  0  0  0  0  0  0  0  0  0
   25.6214  -21.6294  -10.2892 C   0  0  0  0  0  0  0  0  0  0  0  0
   25.5640  -20.7597  -11.3532 C   0  0  0  0  0  0  0  0  0  0  0  0
   26.3944  -20.9818  -12.5527 C   0  0  0  0  0  0  0  0  0  0  0  0
   25.7025  -21.6798  -13.6835 C   0  0  2  0  0  0  0  0  0  0  0  0
   26.5215  -22.0400  -14.7812 N   0  0  0  0  0  0  0  0  0  0  0  0
   24.4531  -20.9641  -14.1048 C   0  0  0  0  0  0  0  0  0  0  0  0
   24.4747  -19.9183  -14.7996 O   0  0  0  0  0  0  0  0  0  0  0  0
   24.6943  -19.6995  -11.2241 C   0  0  0  0  0  0  0  0  0  0  0  0
   23.9167  -19.5004  -10.1048 C   0  0  0  0  0  0  0  0  0  0  0  0
   19.1125  -22.9436  -19.4900 N   0  0  0  0  0  0  0  0  0  0  0  0
   20.4392  -22.9022  -18.9890 C   0  0  0  0  0  0  0  0  0  0  0  0
   21.3866  -23.5089  -19.6179 N   0  0  0  0  0  0  0  0  0  0  0  0
   20.6942  -22.1884  -17.7955 N   0  0  0  0  0  0  0  0  0  0  0  0
   19.6223  -21.5236  -17.0896 C   0  0  0  0  0  0  0  0  0  0  0  0
   20.1372  -20.8792  -15.8662 C   0  0  0  0  0  0  0  0  0  0  0  0
   21.4390  -21.2299  -15.3046 C   0  0  0  0  0  0  0  0  0  0  0  0
   21.9335  -20.6360  -14.0514 C   0  0  2  0  0  0  0  0  0  0  0  0
   23.1824  -21.4519  -13.7259 N   0  0  0  0  0  0  0  0  0  0  0  0
   21.1093  -20.8172  -12.8355 C   0  0  0  0  0  0  0  0  0  0  0  0
   21.3991  -21.7197  -11.9630 O   0  0  0  0  0  0  0  0  0  0  0  0
   20.0208  -20.0465  -12.5750 O   0  0  0  0  0  0  0  0  0  0  0  0
  2  1  1  0
  3  5  1  0
  3  2  1  0
  3  4  1  1
  5  6  1  6
  7  5  1  0
  8  7  2  0
  9 10  1  0
 10 11  2  0
 11 12  1  0
 13 12  2  0
 13 14  1  0
 15 14  1  1
 15 16  1  0
 16  7  1  0
 17 15  1  0
 18 17  2  0
 19 13  1  0
 20 10  1  0
 20 19  2  0
 21 22  1  0
 22 23  2  0
 22 24  1  0
 24 25  1  0
 26 25  1  0
 28 27  1  6
 27 26  1  0
 28 29  1  0
 29 17  1  0
 30 28  1  0
 31 30  2  0
 32 30  1  0
M  END
$$$$
