IYR.pdb
     RDKit          3D

 32 32  0  0  1  0  0  0  0  0999 V2000
   29.5578  -20.6758  -10.8786 C   0  0  0  0  0  0  0  0  0  0  0  0
   29.0454  -20.9994  -12.2728 C   0  0  0  0  0  0  0  0  0  0  0  0
   27.7646  -20.2926  -12.5728 C   0  0  2  0  0  0  0  0  0  0  0  0
   27.7354  -18.8785  -12.0283 C   0  0  0  0  0  0  0  0  0  0  0  0
   26.5582  -21.0780  -12.2460 C   0  0  2  0  0  0  0  0  0  0  0  0
   26.6152  -22.4428  -12.7833 N   0  0  0  0  0  0  0  0  0  0  0  0
   25.2501  -20.4602  -12.5544 C   0  0  0  0  0  0  0  0  0  0  0  0
   24.8632  -19.3971  -12.0583 O   0  0  0  0  0  0  0  0  0  0  0  0
   26.6772  -16.2558  -16.9777 O   0  0  0  0  0  0  0  0  0  0  0  0
   25.7377  -17.2195  -16.5377 C   0  0  0  0  0  0  0  0  0  0  0  0
   24.5761  -16.8319  -15.9213 C   0  0  0  0  0  0  0  0  0  0  0  0
   23.6561  -17.7773  -15.4912 C   0  0  0  0  0  0  0  0  0  0  0  0
   23.8668  -19.1257  -15.6626 C   0  0  0  0  0  0  0  0  0  0  0  0
   22.8674  -20.1085  -15.2012 C   0  0  0  0  0  0  0  0  0  0  0  0
   23.0508  -20.5873  -13.7935 C   0  0  2  0  0  0  0  0  0  0  0  0
   24.3366  -21.0869  -13.4730 N   0  0  0  0  0  0  0  0  0  0  0  0
   21.9487  -21.5115  -13.3667 C   0  0  0  0  0  0  0  0  0  0  0  0
   22.1546  -22.7103  -13.0549 O   0  0  0  0  0  0  0  0  0  0  0  0
   25.0429  -19.4819  -16.2850 C   0  0  0  0  0  0  0  0  0  0  0  0
   25.9695  -18.5601  -16.7195 C   0  0  0  0  0  0  0  0  0  0  0  0
   17.1997  -24.5756   -8.8711 N   0  0  0  0  0  0  0  0  0  0  0  0
   18.3006  -24.6934   -7.9839 C   0  0  0  0  0  0  0  0  0  0  0  0
   18.3296  -25.6428   -7.1128 N   0  0  0  0  0  0  0  0  0  0  0  0
   19.3530  -23.7539   -8.0764 N   0  0  0  0  0  0  0  0  0  0  0  0
   19.2258  -22.5829   -8.9142 C   0  0  0  0  0  0  0  0  0  0  0  0
   19.2684  -22.9653  -10.3386 C   0  0  0  0  0  0  0  0  0  0  0  0
   20.0400  -22.2008  -11.3150 C   0  0  0  0  0  0  0  0  0  0  0  0
   19.5418  -21.9473  -12.6770 C   0  0  2  0  0  0  0  0  0  0  0  0
   20.6132  -21.0554  -13.3001 N   0  0  0  0  0  0  0  0  0  0  0  0
   18.3206  -21.1229  -12.8174 C   0  0  0  0  0  0  0  0  0  0  0  0
   17.1732  -21.6651  -13.0398 O   0  0  0  0  0  0  0  0  0  0  0  0
   18.3434  -19.7682  -12.7136 O   0  0  0  0  0  0  0  0  0  0  0  0
  2  1  1  0
  3  5  1  0
  3  2  1  0
  3  4  1  1
  5  6  1  6
  7  5  1  0
  8  7  2  0
  9 10  1  0
 10 11  2  0
 11 12  1  0
 13 12  2  0
 13 14  1  0
 15 14  1  6
 15 16  1  0
 16  7  1  0
 17 15  1  0
 18 17  2  0
 19 13  1  0
 20 10  1  0
 20 19  2  0
 21 22  1  0
 22 23  2  0
 22 24  1  0
 24 25  1  0
 26 25  1  0
 28 27  1  1
 27 26  1  0
 28 29  1  0
 29 17  1  0
 30 28  1  0
 31 30  2  0
 32 30  1  0
M  END
$$$$
