IYR.pdb
     RDKit          3D

 32 32  0  0  1  0  0  0  0  0999 V2000
   23.9926  -14.8137  -22.4640 C   0  0  0  0  0  0  0  0  0  0  0  0
   24.4290  -14.8516  -21.0083 C   0  0  0  0  0  0  0  0  0  0  0  0
   23.7462  -13.8015  -20.1952 C   0  0  2  0  0  0  0  0  0  0  0  0
   23.8892  -12.4154  -20.7912 C   0  0  0  0  0  0  0  0  0  0  0  0
   24.0623  -13.8621  -18.7545 C   0  0  2  0  0  0  0  0  0  0  0  0
   23.9109  -15.2143  -18.2038 N   0  0  0  0  0  0  0  0  0  0  0  0
   23.3955  -12.8745  -17.8781 C   0  0  0  0  0  0  0  0  0  0  0  0
   22.2187  -12.9691  -17.5146 O   0  0  0  0  0  0  0  0  0  0  0  0
   21.9995   -5.4765  -13.0778 O   0  0  0  0  0  0  0  0  0  0  0  0
   22.5761   -6.6057  -13.7084 C   0  0  0  0  0  0  0  0  0  0  0  0
   23.3805   -6.4564  -14.8085 C   0  0  0  0  0  0  0  0  0  0  0  0
   23.9452   -7.5637  -15.4250 C   0  0  0  0  0  0  0  0  0  0  0  0
   23.7256   -8.8414  -14.9652 C   0  0  0  0  0  0  0  0  0  0  0  0
   24.3451  -10.0000  -15.6370 C   0  0  0  0  0  0  0  0  0  0  0  0
   23.5058  -10.6413  -16.6995 C   0  0  2  0  0  0  0  0  0  0  0  0
   24.1055  -11.7203  -17.3935 N   0  0  0  0  0  0  0  0  0  0  0  0
   22.8972   -9.6272  -17.6225 C   0  0  0  0  0  0  0  0  0  0  0  0
   23.5401   -9.0954  -18.5609 O   0  0  0  0  0  0  0  0  0  0  0  0
   22.9133   -8.9569  -13.8589 C   0  0  0  0  0  0  0  0  0  0  0  0
   22.3427   -7.8715  -13.2318 C   0  0  0  0  0  0  0  0  0  0  0  0
   17.4034  -12.5461  -15.8910 N   0  0  0  0  0  0  0  0  0  0  0  0
   17.1904  -11.1442  -15.9373 C   0  0  0  0  0  0  0  0  0  0  0  0
   16.4611  -10.5716  -15.0421 N   0  0  0  0  0  0  0  0  0  0  0  0
   17.7897  -10.3986  -16.9785 N   0  0  0  0  0  0  0  0  0  0  0  0
   18.6704  -11.0364  -17.9307 C   0  0  0  0  0  0  0  0  0  0  0  0
   19.1438  -10.0561  -18.9266 C   0  0  0  0  0  0  0  0  0  0  0  0
   19.5195   -8.6970  -18.5462 C   0  0  0  0  0  0  0  0  0  0  0  0
   20.9260   -8.2677  -18.4740 C   0  0  2  0  0  0  0  0  0  0  0  0
   21.5515   -9.2269  -17.4639 N   0  0  0  0  0  0  0  0  0  0  0  0
   21.2085   -6.9447  -17.8737 C   0  0  0  0  0  0  0  0  0  0  0  0
   21.1510   -6.7659  -16.5991 O   0  0  0  0  0  0  0  0  0  0  0  0
   21.5459   -5.8638  -18.6250 O   0  0  0  0  0  0  0  0  0  0  0  0
  2  1  1  0
  3  5  1  0
  3  2  1  0
  3  4  1  6
  5  6  1  1
  7  5  1  0
  8  7  2  0
  9 10  1  0
 10 11  2  0
 11 12  1  0
 13 12  2  0
 13 14  1  0
 15 14  1  6
 15 16  1  0
 16  7  1  0
 17 15  1  0
 18 17  2  0
 19 13  1  0
 20 10  1  0
 20 19  2  0
 21 22  1  0
 22 23  2  0
 22 24  1  0
 24 25  1  0
 26 25  1  0
 28 27  1  1
 27 26  1  0
 28 29  1  0
 29 17  1  0
 30 28  1  0
 31 30  2  0
 32 30  1  0
M  END
$$$$
