IYR.pdb
     RDKit          3D

 32 32  0  0  1  0  0  0  0  0999 V2000
   20.8451  -29.6632  -20.1657 C   0  0  0  0  0  0  0  0  0  0  0  0
   21.9741  -29.5576  -19.1533 C   0  0  0  0  0  0  0  0  0  0  0  0
   21.5146  -28.9507  -17.8687 C   0  0  2  0  0  0  0  0  0  0  0  0
   20.7649  -27.6493  -18.0718 C   0  0  0  0  0  0  0  0  0  0  0  0
   22.5655  -28.8734  -16.8348 C   0  0  2  0  0  0  0  0  0  0  0  0
   23.5221  -27.7892  -17.0878 N   0  0  0  0  0  0  0  0  0  0  0  0
   23.2840  -30.1255  -16.5120 C   0  0  0  0  0  0  0  0  0  0  0  0
   24.3370  -30.4688  -17.0591 O   0  0  0  0  0  0  0  0  0  0  0  0
   27.4309  -36.8392  -12.9342 O   0  0  0  0  0  0  0  0  0  0  0  0
   26.7966  -35.6582  -13.3902 C   0  0  0  0  0  0  0  0  0  0  0  0
   26.2225  -34.7861  -12.5017 C   0  0  0  0  0  0  0  0  0  0  0  0
   25.6017  -33.6291  -12.9500 C   0  0  0  0  0  0  0  0  0  0  0  0
   25.5367  -33.3112  -14.2866 C   0  0  0  0  0  0  0  0  0  0  0  0
   24.8759  -32.0700  -14.7340 C   0  0  0  0  0  0  0  0  0  0  0  0
   23.4305  -32.2165  -15.0997 C   0  0  2  0  0  0  0  0  0  0  0  0
   22.7754  -31.0324  -15.5171 N   0  0  0  0  0  0  0  0  0  0  0  0
   22.6595  -32.9653  -14.0529 C   0  0  0  0  0  0  0  0  0  0  0  0
   22.1189  -32.3945  -13.0739 O   0  0  0  0  0  0  0  0  0  0  0  0
   26.1227  -34.2077  -15.1527 C   0  0  0  0  0  0  0  0  0  0  0  0
   26.7438  -35.3618  -14.7293 C   0  0  0  0  0  0  0  0  0  0  0  0
   24.7075  -32.5786   -7.9206 N   0  0  0  0  0  0  0  0  0  0  0  0
   24.9643  -32.7209   -9.3087 C   0  0  0  0  0  0  0  0  0  0  0  0
   25.9769  -32.1286   -9.8424 N   0  0  0  0  0  0  0  0  0  0  0  0
   24.0915  -33.5182  -10.0841 N   0  0  0  0  0  0  0  0  0  0  0  0
   22.8860  -34.0688   -9.5072 C   0  0  0  0  0  0  0  0  0  0  0  0
   22.1199  -34.8069  -10.5296 C   0  0  0  0  0  0  0  0  0  0  0  0
   21.8839  -34.2521  -11.8599 C   0  0  0  0  0  0  0  0  0  0  0  0
   21.7369  -35.1094  -13.0478 C   0  0  2  0  0  0  0  0  0  0  0  0
   22.5128  -34.3682  -14.1341 N   0  0  0  0  0  0  0  0  0  0  0  0
   20.3877  -35.2275  -13.6447 C   0  0  0  0  0  0  0  0  0  0  0  0
   19.5244  -36.0628  -13.1791 O   0  0  0  0  0  0  0  0  0  0  0  0
   19.9908  -34.4660  -14.6978 O   0  0  0  0  0  0  0  0  0  0  0  0
  2  1  1  0
  3  5  1  0
  3  2  1  0
  3  4  1  6
  5  6  1  6
  7  5  1  0
  8  7  2  0
  9 10  1  0
 10 11  2  0
 11 12  1  0
 13 12  2  0
 13 14  1  0
 15 14  1  1
 15 16  1  0
 16  7  1  0
 17 15  1  0
 18 17  2  0
 19 13  1  0
 20 10  1  0
 20 19  2  0
 21 22  1  0
 22 23  2  0
 22 24  1  0
 24 25  1  0
 26 25  1  0
 28 27  1  1
 27 26  1  0
 28 29  1  0
 29 17  1  0
 30 28  1  0
 31 30  2  0
 32 30  1  0
M  END
$$$$
