IYR.pdb
     RDKit          3D

 32 32  0  0  1  0  0  0  0  0999 V2000
   27.7128  -23.6338  -16.8343 C   0  0  0  0  0  0  0  0  0  0  0  0
   26.8988  -22.3686  -17.0530 C   0  0  0  0  0  0  0  0  0  0  0  0
   26.1691  -21.9560  -15.8172 C   0  0  2  0  0  0  0  0  0  0  0  0
   25.3539  -23.0830  -15.2155 C   0  0  0  0  0  0  0  0  0  0  0  0
   25.4182  -20.6931  -15.9604 C   0  0  2  0  0  0  0  0  0  0  0  0
   26.2220  -19.6296  -16.5749 N   0  0  0  0  0  0  0  0  0  0  0  0
   24.7267  -20.1821  -14.7568 C   0  0  0  0  0  0  0  0  0  0  0  0
   25.1260  -19.2160  -14.0987 O   0  0  0  0  0  0  0  0  0  0  0  0
   17.3914  -16.0118  -13.0159 O   0  0  0  0  0  0  0  0  0  0  0  0
   18.5213  -16.7497  -13.4446 C   0  0  0  0  0  0  0  0  0  0  0  0
   18.5110  -17.4068  -14.6478 C   0  0  0  0  0  0  0  0  0  0  0  0
   19.6191  -18.1290  -15.0668 C   0  0  0  0  0  0  0  0  0  0  0  0
   20.7602  -18.2157  -14.3036 C   0  0  0  0  0  0  0  0  0  0  0  0
   21.9263  -18.9855  -14.7779 C   0  0  0  0  0  0  0  0  0  0  0  0
   22.3584  -20.1025  -13.8777 C   0  0  2  0  0  0  0  0  0  0  0  0
   23.5208  -20.8050  -14.2785 N   0  0  0  0  0  0  0  0  0  0  0  0
   21.2205  -21.0173  -13.5321 C   0  0  0  0  0  0  0  0  0  0  0  0
   20.6688  -21.7603  -14.3807 O   0  0  0  0  0  0  0  0  0  0  0  0
   20.7383  -17.5447  -13.1009 C   0  0  0  0  0  0  0  0  0  0  0  0
   19.6493  -16.8222  -12.6659 C   0  0  0  0  0  0  0  0  0  0  0  0
   16.3450  -25.3600   -8.4470 N   0  0  0  0  0  0  0  0  0  0  0  0
   17.5012  -25.4747   -7.6327 C   0  0  0  0  0  0  0  0  0  0  0  0
   17.6193  -26.4629   -6.8139 N   0  0  0  0  0  0  0  0  0  0  0  0
   18.5090  -24.4889   -7.7390 N   0  0  0  0  0  0  0  0  0  0  0  0
   18.3515  -23.3655   -8.6348 C   0  0  0  0  0  0  0  0  0  0  0  0
   19.1723  -23.5571   -9.8457 C   0  0  0  0  0  0  0  0  0  0  0  0
   19.8672  -22.4430  -10.4853 C   0  0  0  0  0  0  0  0  0  0  0  0
   19.5905  -22.0461  -11.8758 C   0  0  2  0  0  0  0  0  0  0  0  0
   20.7197  -21.0748  -12.2123 N   0  0  0  0  0  0  0  0  0  0  0  0
   18.3824  -21.2289  -12.1275 C   0  0  0  0  0  0  0  0  0  0  0  0
   18.4010  -19.9494  -11.9777 O   0  0  0  0  0  0  0  0  0  0  0  0
   17.2065  -21.7772  -12.5312 O   0  0  0  0  0  0  0  0  0  0  0  0
  2  1  1  0
  3  5  1  0
  3  2  1  0
  3  4  1  6
  5  6  1  1
  7  5  1  0
  8  7  2  0
  9 10  1  0
 10 11  2  0
 11 12  1  0
 13 12  2  0
 13 14  1  0
 15 14  1  6
 15 16  1  0
 16  7  1  0
 17 15  1  0
 18 17  2  0
 19 13  1  0
 20 10  1  0
 20 19  2  0
 21 22  1  0
 22 23  2  0
 22 24  1  0
 24 25  1  0
 26 25  1  0
 28 27  1  1
 27 26  1  0
 28 29  1  0
 29 17  1  0
 30 28  1  0
 31 30  2  0
 32 30  1  0
M  END
$$$$
