IYR.pdb
     RDKit          3D

 32 32  0  0  1  0  0  0  0  0999 V2000
   24.3969  -15.6409  -18.8388 C   0  0  0  0  0  0  0  0  0  0  0  0
   23.3498  -16.0714  -17.8242 C   0  0  0  0  0  0  0  0  0  0  0  0
   23.6081  -17.4487  -17.3084 C   0  0  2  0  0  0  0  0  0  0  0  0
   24.0032  -18.4189  -18.4036 C   0  0  0  0  0  0  0  0  0  0  0  0
   22.5487  -17.9612  -16.4172 C   0  0  2  0  0  0  0  0  0  0  0  0
   22.3216  -17.0902  -15.2577 N   0  0  0  0  0  0  0  0  0  0  0  0
   22.6583  -19.3716  -15.9847 C   0  0  0  0  0  0  0  0  0  0  0  0
   22.8339  -20.3131  -16.7648 O   0  0  0  0  0  0  0  0  0  0  0  0
   28.9114  -20.1246  -15.5019 O   0  0  0  0  0  0  0  0  0  0  0  0
   27.6514  -20.4325  -14.9341 C   0  0  0  0  0  0  0  0  0  0  0  0
   26.9929  -19.5154  -14.1564 C   0  0  0  0  0  0  0  0  0  0  0  0
   25.7580  -19.8184  -13.6011 C   0  0  0  0  0  0  0  0  0  0  0  0
   25.1494  -21.0350  -13.8042 C   0  0  0  0  0  0  0  0  0  0  0  0
   23.8322  -21.3270  -13.2065 C   0  0  0  0  0  0  0  0  0  0  0  0
   22.6569  -21.0474  -14.0926 C   0  0  2  0  0  0  0  0  0  0  0  0
   22.5609  -19.7262  -14.5934 N   0  0  0  0  0  0  0  0  0  0  0  0
   21.3713  -21.5319  -13.4898 C   0  0  0  0  0  0  0  0  0  0  0  0
   20.6313  -20.7947  -12.7930 O   0  0  0  0  0  0  0  0  0  0  0  0
   25.8368  -21.9337  -14.5898 C   0  0  0  0  0  0  0  0  0  0  0  0
   27.0632  -21.6537  -15.1505 C   0  0  0  0  0  0  0  0  0  0  0  0
   16.9200  -24.8411   -8.3994 N   0  0  0  0  0  0  0  0  0  0  0  0
   18.3119  -25.0102   -8.1827 C   0  0  0  0  0  0  0  0  0  0  0  0
   18.7513  -26.0760   -7.6065 N   0  0  0  0  0  0  0  0  0  0  0  0
   19.1957  -23.9919   -8.6082 N   0  0  0  0  0  0  0  0  0  0  0  0
   18.7027  -22.8401   -9.3290 C   0  0  0  0  0  0  0  0  0  0  0  0
   18.5811  -23.1492  -10.7666 C   0  0  0  0  0  0  0  0  0  0  0  0
   19.7204  -23.0383  -11.6737 C   0  0  0  0  0  0  0  0  0  0  0  0
   19.6000  -23.3153  -13.1147 C   0  0  2  0  0  0  0  0  0  0  0  0
   20.9403  -22.8626  -13.6892 N   0  0  0  0  0  0  0  0  0  0  0  0
   18.6324  -22.5062  -13.8892 C   0  0  0  0  0  0  0  0  0  0  0  0
   17.7862  -23.0626  -14.6857 O   0  0  0  0  0  0  0  0  0  0  0  0
   18.5814  -21.1514  -13.7974 O   0  0  0  0  0  0  0  0  0  0  0  0
  2  1  1  0
  3  5  1  0
  3  2  1  0
  3  4  1  6
  5  6  1  1
  7  5  1  0
  8  7  2  0
  9 10  1  0
 10 11  2  0
 11 12  1  0
 13 12  2  0
 13 14  1  0
 15 14  1  1
 15 16  1  0
 16  7  1  0
 17 15  1  0
 18 17  2  0
 19 13  1  0
 20 10  1  0
 20 19  2  0
 21 22  1  0
 22 23  2  0
 22 24  1  0
 24 25  1  0
 26 25  1  0
 28 27  1  1
 27 26  1  0
 28 29  1  0
 29 17  1  0
 30 28  1  0
 31 30  2  0
 32 30  1  0
M  END
$$$$
