IYR.pdb
     RDKit          3D

 32 32  0  0  1  0  0  0  0  0999 V2000
   26.5346  -21.1533  -19.8175 C   0  0  0  0  0  0  0  0  0  0  0  0
   26.9372  -22.0716  -18.6749 C   0  0  0  0  0  0  0  0  0  0  0  0
   28.1289  -21.5541  -17.9387 C   0  0  2  0  0  0  0  0  0  0  0  0
   29.3159  -21.3065  -18.8478 C   0  0  0  0  0  0  0  0  0  0  0  0
   28.4630  -22.3259  -16.7255 C   0  0  2  0  0  0  0  0  0  0  0  0
   28.9467  -23.6766  -17.0359 N   0  0  0  0  0  0  0  0  0  0  0  0
   27.4380  -22.3810  -15.6604 C   0  0  0  0  0  0  0  0  0  0  0  0
   26.6599  -23.3286  -15.5102 O   0  0  0  0  0  0  0  0  0  0  0  0
   22.7579  -20.4546   -8.3413 O   0  0  0  0  0  0  0  0  0  0  0  0
   23.7290  -20.4493   -9.3718 C   0  0  0  0  0  0  0  0  0  0  0  0
   23.4683  -19.8443  -10.5741 C   0  0  0  0  0  0  0  0  0  0  0  0
   24.4210  -19.8394  -11.5827 C   0  0  0  0  0  0  0  0  0  0  0  0
   25.6513  -20.4330  -11.4221 C   0  0  0  0  0  0  0  0  0  0  0  0
   26.6479  -20.4063  -12.5101 C   0  0  0  0  0  0  0  0  0  0  0  0
   26.3108  -21.2510  -13.7007 C   0  0  2  0  0  0  0  0  0  0  0  0
   27.2917  -21.3008  -14.7209 N   0  0  0  0  0  0  0  0  0  0  0  0
   24.9396  -20.9522  -14.2312 C   0  0  0  0  0  0  0  0  0  0  0  0
   24.7369  -20.1221  -15.1512 O   0  0  0  0  0  0  0  0  0  0  0  0
   25.8817  -21.0318  -10.2033 C   0  0  0  0  0  0  0  0  0  0  0  0
   24.9503  -21.0483   -9.1888 C   0  0  0  0  0  0  0  0  0  0  0  0
   20.3156  -20.7614  -19.3817 N   0  0  0  0  0  0  0  0  0  0  0  0
   21.6466  -21.2474  -19.4552 C   0  0  0  0  0  0  0  0  0  0  0  0
   22.4623  -20.7675  -20.3300 N   0  0  0  0  0  0  0  0  0  0  0  0
   22.0517  -22.2607  -18.5563 N   0  0  0  0  0  0  0  0  0  0  0  0
   21.1164  -22.8252  -17.6098 C   0  0  0  0  0  0  0  0  0  0  0  0
   21.1584  -22.0758  -16.3395 C   0  0  0  0  0  0  0  0  0  0  0  0
   22.3871  -21.9584  -15.5587 C   0  0  0  0  0  0  0  0  0  0  0  0
   22.4195  -21.2795  -14.2527 C   0  0  2  0  0  0  0  0  0  0  0  0
   23.8054  -21.6078  -13.7022 N   0  0  0  0  0  0  0  0  0  0  0  0
   21.5255  -21.7936  -13.1910 C   0  0  0  0  0  0  0  0  0  0  0  0
   21.8969  -22.7518  -12.4141 O   0  0  0  0  0  0  0  0  0  0  0  0
   20.2839  -21.2841  -12.9779 O   0  0  0  0  0  0  0  0  0  0  0  0
  2  1  1  0
  3  5  1  0
  3  2  1  0
  3  4  1  6
  5  6  1  6
  7  5  1  0
  8  7  2  0
  9 10  1  0
 10 11  2  0
 11 12  1  0
 13 12  2  0
 13 14  1  0
 15 14  1  1
 15 16  1  0
 16  7  1  0
 17 15  1  0
 18 17  2  0
 19 13  1  0
 20 10  1  0
 20 19  2  0
 21 22  1  0
 22 23  2  0
 22 24  1  0
 24 25  1  0
 26 25  1  0
 28 27  1  6
 27 26  1  0
 28 29  1  0
 29 17  1  0
 30 28  1  0
 31 30  2  0
 32 30  1  0
M  END
$$$$
