IYR.pdb
     RDKit          3D

 32 32  0  0  1  0  0  0  0  0999 V2000
   16.0024  -12.0190  -13.9170 C   0  0  0  0  0  0  0  0  0  0  0  0
   16.8423  -11.0462  -13.1050 C   0  0  0  0  0  0  0  0  0  0  0  0
   15.9951  -10.0789  -12.3457 C   0  0  2  0  0  0  0  0  0  0  0  0
   14.9106   -9.4546  -13.2008 C   0  0  0  0  0  0  0  0  0  0  0  0
   16.7678   -9.0972  -11.5593 C   0  0  2  0  0  0  0  0  0  0  0  0
   17.6061   -9.7337  -10.5362 N   0  0  0  0  0  0  0  0  0  0  0  0
   16.0175   -7.9643  -10.9748 C   0  0  0  0  0  0  0  0  0  0  0  0
   15.2520   -7.2447  -11.6245 O   0  0  0  0  0  0  0  0  0  0  0  0
   10.0486  -10.0029   -7.7312 O   0  0  0  0  0  0  0  0  0  0  0  0
   11.2394   -9.2377   -7.6909 C   0  0  0  0  0  0  0  0  0  0  0  0
   12.4607   -9.8369   -7.8609 C   0  0  0  0  0  0  0  0  0  0  0  0
   13.6266   -9.0858   -7.8217 C   0  0  0  0  0  0  0  0  0  0  0  0
   13.6077   -7.7263   -7.6136 C   0  0  0  0  0  0  0  0  0  0  0  0
   14.8633   -6.9517   -7.5837 C   0  0  0  0  0  0  0  0  0  0  0  0
   15.4274   -6.6046   -8.9275 C   0  0  2  0  0  0  0  0  0  0  0  0
   16.1480   -7.6343   -9.5801 N   0  0  0  0  0  0  0  0  0  0  0  0
   16.1726   -5.3027   -8.9045 C   0  0  0  0  0  0  0  0  0  0  0  0
   17.3457   -5.2029   -8.4681 O   0  0  0  0  0  0  0  0  0  0  0  0
   12.3654   -7.1552   -7.4464 C   0  0  0  0  0  0  0  0  0  0  0  0
   11.1960   -7.8820   -7.4816 C   0  0  0  0  0  0  0  0  0  0  0  0
   16.0732   -1.7413  -16.0737 N   0  0  0  0  0  0  0  0  0  0  0  0
   14.8328   -2.1179  -15.4970 C   0  0  0  0  0  0  0  0  0  0  0  0
   13.7711   -2.1709  -16.2257 N   0  0  0  0  0  0  0  0  0  0  0  0
   14.7897   -2.4290  -14.1185 N   0  0  0  0  0  0  0  0  0  0  0  0
   15.9905   -2.3905  -13.3150 C   0  0  0  0  0  0  0  0  0  0  0  0
   15.6671   -2.6458  -11.8982 C   0  0  0  0  0  0  0  0  0  0  0  0
   16.7027   -2.6759  -10.8687 C   0  0  0  0  0  0  0  0  0  0  0  0
   16.3786   -2.8270   -9.4405 C   0  0  2  0  0  0  0  0  0  0  0  0
   15.5670   -4.1191   -9.3826 N   0  0  0  0  0  0  0  0  0  0  0  0
   15.4513   -1.8417   -8.8406 C   0  0  0  0  0  0  0  0  0  0  0  0
   14.3185   -2.2076   -8.3478 O   0  0  0  0  0  0  0  0  0  0  0  0
   15.7447   -0.5166   -8.7726 O   0  0  0  0  0  0  0  0  0  0  0  0
  2  1  1  0
  3  5  1  0
  3  2  1  0
  3  4  1  6
  5  6  1  1
  7  5  1  0
  8  7  2  0
  9 10  1  0
 10 11  2  0
 11 12  1  0
 13 12  2  0
 13 14  1  0
 15 14  1  1
 15 16  1  0
 16  7  1  0
 17 15  1  0
 18 17  2  0
 19 13  1  0
 20 10  1  0
 20 19  2  0
 21 22  1  0
 22 23  2  0
 22 24  1  0
 24 25  1  0
 26 25  1  0
 28 27  1  6
 27 26  1  0
 28 29  1  0
 29 17  1  0
 30 28  1  0
 31 30  2  0
 32 30  1  0
M  END
$$$$
