SGM.pdb
     RDKit          3D

 19 18  0  0  1  0  0  0  0  0999 V2000
    7.3333  -14.6968   19.5500 O   0  0  0  0  0  0  0  0  0  0  0  0
    8.6667  -14.7872   19.9906 C   0  0  0  0  0  0  0  0  0  0  0  0
    8.8306  -16.1383   20.6342 C   0  0  2  0  0  0  0  0  0  0  0  0
    8.5103  -17.1571   19.6468 N   0  0  0  0  0  0  0  0  0  0  0  0
    7.8897  -16.2334   21.7720 C   0  0  0  0  0  0  0  0  0  0  0  0
    6.7094  -16.6148   21.6286 O   0  0  0  0  0  0  0  0  0  0  0  0
    8.3190  -15.8841   23.0903 N   0  0  0  0  0  0  0  0  0  0  0  0
    7.9356  -16.6684   24.2017 C   0  0  0  0  0  0  0  0  0  0  0  0
    8.4840  -16.2273   25.5011 C   0  0  0  0  0  0  0  0  0  0  0  0
    8.2156  -16.8857   26.5732 O   0  0  0  0  0  0  0  0  0  0  0  0
    6.3208  -12.1295   26.9448 C   0  0  0  0  0  0  0  0  0  0  0  0
    7.6222  -11.7376   28.1107 S   0  0  0  0  0  0  0  0  0  0  0  0
    9.0603  -12.7014   27.8745 C   0  0  0  0  0  0  0  0  0  0  0  0
    9.1121  -14.1379   27.7708 C   0  0  0  0  0  0  0  0  0  0  0  0
   10.0522  -14.9566   27.0008 C   0  0  2  0  0  0  0  0  0  0  0  0
    9.3076  -15.1061   25.6824 N   0  0  0  0  0  0  0  0  0  0  0  0
   10.2505  -16.3613   27.4534 C   0  0  0  0  0  0  0  0  0  0  0  0
   11.4857  -16.7189   28.0316 O   0  0  0  0  0  0  0  0  0  0  0  0
    9.4246  -17.2592   27.3700 O   0  0  0  0  0  0  0  0  0  0  0  0
  1  2  1  0
  3  5  1  0
  3  4  1  6
  3  2  1  0
  5  6  2  0
  7  5  1  0
  7  8  1  0
  9 10  2  0
  9  8  1  0
 11 12  1  0
 13 14  1  0
 13 12  1  0
 15 14  1  1
 15 16  1  0
 15 17  1  0
 16  9  1  0
 17 18  1  0
 19 17  2  0
M  END
$$$$
