SGM.pdb
     RDKit          3D

 19 18  0  0  1  0  0  0  0  0999 V2000
    7.9928  -20.9426   18.0908 O   0  0  0  0  0  0  0  0  0  0  0  0
    8.0782  -19.5571   18.3220 C   0  0  0  0  0  0  0  0  0  0  0  0
    8.5922  -19.3723   19.7250 C   0  0  2  0  0  0  0  0  0  0  0  0
    7.4968  -19.6190   20.6495 N   0  0  0  0  0  0  0  0  0  0  0  0
    9.0642  -17.9778   19.8719 C   0  0  0  0  0  0  0  0  0  0  0  0
   10.0750  -17.5516   19.2752 O   0  0  0  0  0  0  0  0  0  0  0  0
    8.3591  -17.0661   20.7180 N   0  0  0  0  0  0  0  0  0  0  0  0
    8.8378  -15.7507   20.9128 C   0  0  0  0  0  0  0  0  0  0  0  0
    9.1679  -15.4027   22.3105 C   0  0  0  0  0  0  0  0  0  0  0  0
   10.2964  -14.8523   22.5905 O   0  0  0  0  0  0  0  0  0  0  0  0
    6.5229  -11.0814   27.7820 C   0  0  0  0  0  0  0  0  0  0  0  0
    7.0773  -11.7536   26.2177 S   0  0  0  0  0  0  0  0  0  0  0  0
    6.9191  -13.4915   26.1296 C   0  0  0  0  0  0  0  0  0  0  0  0
    7.2949  -14.3227   25.0139 C   0  0  0  0  0  0  0  0  0  0  0  0
    8.6127  -14.8855   24.7078 C   0  0  2  0  0  0  0  0  0  0  0  0
    8.3266  -15.6272   23.4105 N   0  0  0  0  0  0  0  0  0  0  0  0
    9.1189  -15.9506   25.6171 C   0  0  0  0  0  0  0  0  0  0  0  0
    9.9439  -15.5819   26.6993 O   0  0  0  0  0  0  0  0  0  0  0  0
    8.8827  -17.1460   25.5138 O   0  0  0  0  0  0  0  0  0  0  0  0
  1  2  1  0
  3  5  1  0
  3  4  1  1
  3  2  1  0
  5  6  2  0
  7  5  1  0
  7  8  1  0
  9 10  2  0
  9  8  1  0
 11 12  1  0
 13 14  1  0
 13 12  1  0
 15 14  1  1
 15 16  1  0
 15 17  1  0
 16  9  1  0
 17 18  1  0
 19 17  2  0
M  END
$$$$
