SGM.pdb
     RDKit          3D

 19 18  0  0  1  0  0  0  0  0999 V2000
    7.0296  -12.9020   17.7192 O   0  0  0  0  0  0  0  0  0  0  0  0
    8.3309  -12.7882   18.2424 C   0  0  0  0  0  0  0  0  0  0  0  0
    8.9398  -14.1650   18.2207 C   0  0  2  0  0  0  0  0  0  0  0  0
    8.6686  -14.7645   16.9235 N   0  0  0  0  0  0  0  0  0  0  0  0
    8.3082  -14.9745   19.2859 C   0  0  0  0  0  0  0  0  0  0  0  0
    7.3975  -15.7945   19.0462 O   0  0  0  0  0  0  0  0  0  0  0  0
    8.7350  -14.8343   20.6432 N   0  0  0  0  0  0  0  0  0  0  0  0
    8.2031  -15.6680   21.6528 C   0  0  0  0  0  0  0  0  0  0  0  0
    8.6874  -15.3861   23.0202 C   0  0  0  0  0  0  0  0  0  0  0  0
    9.8850  -14.9543   23.2058 O   0  0  0  0  0  0  0  0  0  0  0  0
    6.8192  -11.1835   27.5056 C   0  0  0  0  0  0  0  0  0  0  0  0
    5.8024  -12.2218   26.4594 S   0  0  0  0  0  0  0  0  0  0  0  0
    6.7256  -13.4250   25.5917 C   0  0  0  0  0  0  0  0  0  0  0  0
    7.5570  -14.4444   26.1803 C   0  0  0  0  0  0  0  0  0  0  0  0
    8.5839  -15.2623   25.5295 C   0  0  2  0  0  0  0  0  0  0  0  0
    7.9280  -15.5533   24.1879 N   0  0  0  0  0  0  0  0  0  0  0  0
    8.8305  -16.6152   26.1008 C   0  0  0  0  0  0  0  0  0  0  0  0
    8.4359  -17.7467   25.3578 O   0  0  0  0  0  0  0  0  0  0  0  0
    9.3556  -16.8469   27.1806 O   0  0  0  0  0  0  0  0  0  0  0  0
  1  2  1  0
  3  5  1  0
  3  4  1  6
  3  2  1  0
  5  6  2  0
  7  5  1  0
  7  8  1  0
  9 10  2  0
  9  8  1  0
 11 12  1  0
 13 14  1  0
 13 12  1  0
 15 14  1  1
 15 16  1  0
 15 17  1  0
 16  9  1  0
 17 18  1  0
 19 17  2  0
M  END
$$$$
