SGM.pdb
     RDKit          3D

 19 18  0  0  1  0  0  0  0  0999 V2000
    2.9017  -18.7710   22.0647 O   0  0  0  0  0  0  0  0  0  0  0  0
    3.7297  -17.9188   21.3107 C   0  0  0  0  0  0  0  0  0  0  0  0
    4.9625  -18.7038   20.9491 C   0  0  2  0  0  0  0  0  0  0  0  0
    5.2880  -19.5820   22.0619 N   0  0  0  0  0  0  0  0  0  0  0  0
    6.0738  -17.7540   20.7219 C   0  0  0  0  0  0  0  0  0  0  0  0
    5.9479  -16.7441   19.9983 O   0  0  0  0  0  0  0  0  0  0  0  0
    7.3446  -17.9743   21.3389 N   0  0  0  0  0  0  0  0  0  0  0  0
    8.4150  -17.0784   21.1178 C   0  0  0  0  0  0  0  0  0  0  0  0
    8.7562  -16.2117   22.2651 C   0  0  0  0  0  0  0  0  0  0  0  0
    9.8249  -15.4960   22.2395 O   0  0  0  0  0  0  0  0  0  0  0  0
    5.7795  -11.2570   27.4113 C   0  0  0  0  0  0  0  0  0  0  0  0
    5.6237  -12.4357   26.0724 S   0  0  0  0  0  0  0  0  0  0  0  0
    7.0662  -13.3933   25.8375 C   0  0  0  0  0  0  0  0  0  0  0  0
    7.2784  -14.3675   24.7970 C   0  0  0  0  0  0  0  0  0  0  0  0
    8.4797  -15.1643   24.5343 C   0  0  2  0  0  0  0  0  0  0  0  0
    7.9880  -16.0916   23.4329 N   0  0  0  0  0  0  0  0  0  0  0  0
    8.9185  -16.0971   25.6090 C   0  0  0  0  0  0  0  0  0  0  0  0
    8.6153  -17.4681   25.4817 O   0  0  0  0  0  0  0  0  0  0  0  0
    9.5323  -15.7814   26.6184 O   0  0  0  0  0  0  0  0  0  0  0  0
  1  2  1  0
  3  5  1  0
  3  4  1  1
  3  2  1  0
  5  6  2  0
  7  5  1  0
  7  8  1  0
  9 10  2  0
  9  8  1  0
 11 12  1  0
 13 14  1  0
 13 12  1  0
 15 14  1  1
 15 16  1  0
 15 17  1  0
 16  9  1  0
 17 18  1  0
 19 17  2  0
M  END
$$$$
