SGM.pdb
     RDKit          3D

 19 18  0  0  1  0  0  0  0  0999 V2000
    6.3590  -21.4557   22.9616 O   0  0  0  0  0  0  0  0  0  0  0  0
    5.7062  -20.5290   23.7954 C   0  0  0  0  0  0  0  0  0  0  0  0
    4.7320  -19.7682   22.9359 C   0  0  2  0  0  0  0  0  0  0  0  0
    4.4565  -20.5594   21.7469 N   0  0  0  0  0  0  0  0  0  0  0  0
    5.3535  -18.4832   22.5467 C   0  0  0  0  0  0  0  0  0  0  0  0
    4.6740  -17.4717   22.2739 O   0  0  0  0  0  0  0  0  0  0  0  0
    6.7766  -18.3667   22.4729 N   0  0  0  0  0  0  0  0  0  0  0  0
    7.3782  -17.1460   22.0920 C   0  0  0  0  0  0  0  0  0  0  0  0
    7.9984  -16.3806   23.1935 C   0  0  0  0  0  0  0  0  0  0  0  0
    8.7821  -15.3939   22.9340 O   0  0  0  0  0  0  0  0  0  0  0  0
    6.8264  -10.7565   26.3685 C   0  0  0  0  0  0  0  0  0  0  0  0
    6.3636  -12.4848   26.2969 S   0  0  0  0  0  0  0  0  0  0  0  0
    7.7422  -13.5562   26.2323 C   0  0  0  0  0  0  0  0  0  0  0  0
    7.6970  -14.9955   26.1749 C   0  0  0  0  0  0  0  0  0  0  0  0
    8.6705  -15.9084   25.5700 C   0  0  2  0  0  0  0  0  0  0  0  0
    7.8032  -16.6420   24.5579 N   0  0  0  0  0  0  0  0  0  0  0  0
    9.2001  -16.9989   26.4348 C   0  0  0  0  0  0  0  0  0  0  0  0
   10.2892  -16.7206   27.2858 O   0  0  0  0  0  0  0  0  0  0  0  0
    8.7712  -18.1432   26.4797 O   0  0  0  0  0  0  0  0  0  0  0  0
  1  2  1  0
  3  5  1  0
  3  4  1  6
  3  2  1  0
  5  6  2  0
  7  5  1  0
  7  8  1  0
  9 10  2  0
  9  8  1  0
 11 12  1  0
 13 14  1  0
 13 12  1  0
 15 14  1  1
 15 16  1  0
 15 17  1  0
 16  9  1  0
 17 18  1  0
 19 17  2  0
M  END
$$$$
