SGM.pdb
     RDKit          3D

 19 18  0  0  1  0  0  0  0  0999 V2000
    3.9849  -21.2850   22.5676 O   0  0  0  0  0  0  0  0  0  0  0  0
    5.2236  -21.5247   23.1909 C   0  0  0  0  0  0  0  0  0  0  0  0
    6.2338  -20.6240   22.5314 C   0  0  2  0  0  0  0  0  0  0  0  0
    7.5627  -21.0501   22.9411 N   0  0  0  0  0  0  0  0  0  0  0  0
    5.9928  -19.2367   22.9856 C   0  0  0  0  0  0  0  0  0  0  0  0
    5.6221  -18.9727   24.1484 O   0  0  0  0  0  0  0  0  0  0  0  0
    6.1833  -18.1427   22.0850 N   0  0  0  0  0  0  0  0  0  0  0  0
    5.9009  -16.8194   22.4930 C   0  0  0  0  0  0  0  0  0  0  0  0
    7.0273  -16.1035   23.1274 C   0  0  0  0  0  0  0  0  0  0  0  0
    7.6826  -15.2149   22.4671 O   0  0  0  0  0  0  0  0  0  0  0  0
    6.2217  -10.6401   26.0572 C   0  0  0  0  0  0  0  0  0  0  0  0
    6.7051  -12.2125   26.7646 S   0  0  0  0  0  0  0  0  0  0  0  0
    7.4901  -13.2647   25.6115 C   0  0  0  0  0  0  0  0  0  0  0  0
    8.0039  -14.5843   25.8790 C   0  0  0  0  0  0  0  0  0  0  0  0
    8.6569  -15.5075   24.9472 C   0  0  2  0  0  0  0  0  0  0  0  0
    7.4686  -16.3126   24.4425 N   0  0  0  0  0  0  0  0  0  0  0  0
    9.5545  -16.5387   25.5375 C   0  0  0  0  0  0  0  0  0  0  0  0
   10.9411  -16.2866   25.5789 O   0  0  0  0  0  0  0  0  0  0  0  0
    9.1968  -17.6118   26.0022 O   0  0  0  0  0  0  0  0  0  0  0  0
  1  2  1  0
  3  5  1  0
  3  4  1  1
  3  2  1  0
  5  6  2  0
  7  5  1  0
  7  8  1  0
  9 10  2  0
  9  8  1  0
 11 12  1  0
 13 14  1  0
 13 12  1  0
 15 14  1  1
 15 16  1  0
 15 17  1  0
 16  9  1  0
 17 18  1  0
 19 17  2  0
M  END
$$$$
