SGM.pdb
     RDKit          3D

 19 18  0  0  1  0  0  0  0  0999 V2000
    6.3288  -21.8522   21.5113 O   0  0  0  0  0  0  0  0  0  0  0  0
    5.9439  -20.8509   20.6005 C   0  0  0  0  0  0  0  0  0  0  0  0
    5.6040  -19.6252   21.4061 C   0  0  2  0  0  0  0  0  0  0  0  0
    4.2096  -19.2906   21.1632 N   0  0  0  0  0  0  0  0  0  0  0  0
    6.4695  -18.5129   20.9559 C   0  0  0  0  0  0  0  0  0  0  0  0
    6.6612  -18.2671   19.7467 O   0  0  0  0  0  0  0  0  0  0  0  0
    7.1198  -17.6753   21.9149 N   0  0  0  0  0  0  0  0  0  0  0  0
    7.9454  -16.6084   21.4936 C   0  0  0  0  0  0  0  0  0  0  0  0
    8.4962  -15.7730   22.5810 C   0  0  0  0  0  0  0  0  0  0  0  0
    9.3454  -14.8437   22.3156 O   0  0  0  0  0  0  0  0  0  0  0  0
    6.0767  -10.6964   26.3149 C   0  0  0  0  0  0  0  0  0  0  0  0
    6.2161  -12.4659   26.5511 S   0  0  0  0  0  0  0  0  0  0  0  0
    7.6144  -13.1502   25.7577 C   0  0  0  0  0  0  0  0  0  0  0  0
    8.0171  -14.5335   25.7907 C   0  0  0  0  0  0  0  0  0  0  0  0
    9.0313  -15.2009   24.9704 C   0  0  2  0  0  0  0  0  0  0  0  0
    8.1640  -15.9051   23.9376 N   0  0  0  0  0  0  0  0  0  0  0  0
    9.7902  -16.3121   25.6082 C   0  0  0  0  0  0  0  0  0  0  0  0
   11.0939  -16.0582   26.0814 O   0  0  0  0  0  0  0  0  0  0  0  0
    9.3823  -17.4541   25.7655 O   0  0  0  0  0  0  0  0  0  0  0  0
  1  2  1  0
  3  5  1  0
  3  4  1  6
  3  2  1  0
  5  6  2  0
  7  5  1  0
  7  8  1  0
  9 10  2  0
  9  8  1  0
 11 12  1  0
 13 14  1  0
 13 12  1  0
 15 14  1  1
 15 16  1  0
 15 17  1  0
 16  9  1  0
 17 18  1  0
 19 17  2  0
M  END
$$$$
