SGM.pdb
     RDKit          3D

 19 18  0  0  1  0  0  0  0  0999 V2000
    7.7217  -14.4183   17.2745 O   0  0  0  0  0  0  0  0  0  0  0  0
    7.5241  -13.1321   17.8101 C   0  0  0  0  0  0  0  0  0  0  0  0
    8.5080  -12.9649   18.9374 C   0  0  2  0  0  0  0  0  0  0  0  0
    9.8368  -13.2765   18.4346 N   0  0  0  0  0  0  0  0  0  0  0  0
    8.1493  -13.9103   20.0175 C   0  0  0  0  0  0  0  0  0  0  0  0
    7.0929  -13.7998   20.6741 O   0  0  0  0  0  0  0  0  0  0  0  0
    9.0218  -14.9958   20.3412 N   0  0  0  0  0  0  0  0  0  0  0  0
    8.6679  -15.9269   21.3437 C   0  0  0  0  0  0  0  0  0  0  0  0
    9.1308  -15.5897   22.7060 C   0  0  0  0  0  0  0  0  0  0  0  0
   10.2109  -14.9110   22.8723 O   0  0  0  0  0  0  0  0  0  0  0  0
    6.1936  -11.0923   27.7906 C   0  0  0  0  0  0  0  0  0  0  0  0
    6.1481  -12.1575   26.3520 S   0  0  0  0  0  0  0  0  0  0  0  0
    7.4414  -13.3322   26.3339 C   0  0  0  0  0  0  0  0  0  0  0  0
    7.6825  -14.3137   25.3066 C   0  0  0  0  0  0  0  0  0  0  0  0
    8.8226  -15.2246   25.1747 C   0  0  2  0  0  0  0  0  0  0  0  0
    8.4718  -15.9578   23.8885 N   0  0  0  0  0  0  0  0  0  0  0  0
    8.9339  -16.3158   26.1819 C   0  0  0  0  0  0  0  0  0  0  0  0
    8.4083  -17.5855   25.8662 O   0  0  0  0  0  0  0  0  0  0  0  0
    9.4502  -16.2154   27.2858 O   0  0  0  0  0  0  0  0  0  0  0  0
  1  2  1  0
  3  5  1  0
  3  4  1  6
  3  2  1  0
  5  6  2  0
  7  5  1  0
  7  8  1  0
  9 10  2  0
  9  8  1  0
 11 12  1  0
 13 14  1  0
 13 12  1  0
 15 14  1  1
 15 16  1  0
 15 17  1  0
 16  9  1  0
 17 18  1  0
 19 17  2  0
M  END
$$$$
