SGM.pdb
     RDKit          3D

 19 18  0  0  1  0  0  0  0  0999 V2000
    6.8195  -17.1534   17.8327 O   0  0  0  0  0  0  0  0  0  0  0  0
    8.1812  -17.4037   17.5808 C   0  0  0  0  0  0  0  0  0  0  0  0
    8.9539  -16.8851   18.7643 C   0  0  2  0  0  0  0  0  0  0  0  0
   10.3733  -16.9809   18.4613 N   0  0  0  0  0  0  0  0  0  0  0  0
    8.6366  -17.7281   19.9380 C   0  0  0  0  0  0  0  0  0  0  0  0
    8.3560  -18.9401   19.8297 O   0  0  0  0  0  0  0  0  0  0  0  0
    8.6447  -17.1633   21.2514 N   0  0  0  0  0  0  0  0  0  0  0  0
    9.7828  -16.4758   21.7303 C   0  0  0  0  0  0  0  0  0  0  0  0
    9.6772  -15.9754   23.1168 C   0  0  0  0  0  0  0  0  0  0  0  0
   10.7009  -15.4535   23.6955 O   0  0  0  0  0  0  0  0  0  0  0  0
    6.5330  -10.6185   26.0338 C   0  0  0  0  0  0  0  0  0  0  0  0
    6.9431  -12.2673   26.5992 S   0  0  0  0  0  0  0  0  0  0  0  0
    6.9316  -13.4500   25.3132 C   0  0  0  0  0  0  0  0  0  0  0  0
    7.2564  -14.8481   25.4426 C   0  0  0  0  0  0  0  0  0  0  0  0
    8.5692  -15.4875   25.3206 C   0  0  2  0  0  0  0  0  0  0  0  0
    8.5115  -16.0185   23.8960 N   0  0  0  0  0  0  0  0  0  0  0  0
    8.8037  -16.7078   26.1411 C   0  0  0  0  0  0  0  0  0  0  0  0
    9.5701  -16.5952   27.3193 O   0  0  0  0  0  0  0  0  0  0  0  0
    8.3856  -17.8282   25.8858 O   0  0  0  0  0  0  0  0  0  0  0  0
  1  2  1  0
  3  5  1  0
  3  4  1  6
  3  2  1  0
  5  6  2  0
  7  5  1  0
  7  8  1  0
  9 10  2  0
  9  8  1  0
 11 12  1  0
 13 14  1  0
 13 12  1  0
 15 14  1  1
 15 16  1  0
 15 17  1  0
 16  9  1  0
 17 18  1  0
 19 17  2  0
M  END
$$$$
