SGM.pdb
     RDKit          3D

 19 18  0  0  1  0  0  0  0  0999 V2000
    3.0690  -17.9705   22.4059 O   0  0  0  0  0  0  0  0  0  0  0  0
    3.2766  -18.7033   21.2226 C   0  0  0  0  0  0  0  0  0  0  0  0
    4.7568  -18.9549   21.1105 C   0  0  2  0  0  0  0  0  0  0  0  0
    5.2166  -19.5424   22.3591 N   0  0  0  0  0  0  0  0  0  0  0  0
    5.4374  -17.6602   20.8883 C   0  0  0  0  0  0  0  0  0  0  0  0
    5.2289  -16.9653   19.8719 O   0  0  0  0  0  0  0  0  0  0  0  0
    6.3690  -17.1635   21.8524 N   0  0  0  0  0  0  0  0  0  0  0  0
    7.0115  -15.9202   21.6558 C   0  0  0  0  0  0  0  0  0  0  0  0
    7.9427  -15.5173   22.7302 C   0  0  0  0  0  0  0  0  0  0  0  0
    8.6861  -14.4774   22.5852 O   0  0  0  0  0  0  0  0  0  0  0  0
    6.6017  -11.2982   25.6067 C   0  0  0  0  0  0  0  0  0  0  0  0
    7.5813  -12.0689   26.8923 S   0  0  0  0  0  0  0  0  0  0  0  0
    7.6203  -13.8111   26.7659 C   0  0  0  0  0  0  0  0  0  0  0  0
    7.6990  -14.5722   25.5447 C   0  0  0  0  0  0  0  0  0  0  0  0
    8.7719  -15.4674   25.1035 C   0  0  2  0  0  0  0  0  0  0  0  0
    8.0984  -16.1943   23.9490 N   0  0  0  0  0  0  0  0  0  0  0  0
    9.1585  -16.5654   26.0322 C   0  0  0  0  0  0  0  0  0  0  0  0
   10.2803  -16.3836   26.8667 O   0  0  0  0  0  0  0  0  0  0  0  0
    8.5826  -17.6383   26.1446 O   0  0  0  0  0  0  0  0  0  0  0  0
  1  2  1  0
  3  5  1  0
  3  4  1  1
  3  2  1  0
  5  6  2  0
  7  5  1  0
  7  8  1  0
  9 10  2  0
  9  8  1  0
 11 12  1  0
 13 14  1  0
 13 12  1  0
 15 14  1  1
 15 16  1  0
 15 17  1  0
 16  9  1  0
 17 18  1  0
 19 17  2  0
M  END
$$$$
