SGM.pdb
     RDKit          3D

 19 18  0  0  1  0  0  0  0  0999 V2000
   10.2745  -19.0734   19.6784 O   0  0  0  0  0  0  0  0  0  0  0  0
    9.4609  -18.9097   18.5419 C   0  0  0  0  0  0  0  0  0  0  0  0
    8.9636  -17.4887   18.5533 C   0  0  2  0  0  0  0  0  0  0  0  0
   10.1157  -16.6013   18.5855 N   0  0  0  0  0  0  0  0  0  0  0  0
    8.1452  -17.2875   19.7693 C   0  0  0  0  0  0  0  0  0  0  0  0
    7.0865  -17.9185   19.9701 O   0  0  0  0  0  0  0  0  0  0  0  0
    8.5562  -16.3466   20.7643 N   0  0  0  0  0  0  0  0  0  0  0  0
    7.7662  -16.1279   21.9155 C   0  0  0  0  0  0  0  0  0  0  0  0
    8.5238  -15.9122   23.1658 C   0  0  0  0  0  0  0  0  0  0  0  0
    9.7975  -16.0913   23.1890 O   0  0  0  0  0  0  0  0  0  0  0  0
    6.4899  -10.3525   26.0660 C   0  0  0  0  0  0  0  0  0  0  0  0
    6.3519  -12.1317   25.9171 S   0  0  0  0  0  0  0  0  0  0  0  0
    7.8022  -12.9704   26.4131 C   0  0  0  0  0  0  0  0  0  0  0  0
    8.0012  -14.3978   26.4084 C   0  0  0  0  0  0  0  0  0  0  0  0
    8.8855  -15.1856   25.5457 C   0  0  2  0  0  0  0  0  0  0  0  0
    7.9573  -15.5123   24.3853 N   0  0  0  0  0  0  0  0  0  0  0  0
    9.3022  -16.5235   26.0495 C   0  0  0  0  0  0  0  0  0  0  0  0
   10.4725  -16.6193   26.8301 O   0  0  0  0  0  0  0  0  0  0  0  0
    8.7129  -17.5756   25.8465 O   0  0  0  0  0  0  0  0  0  0  0  0
  1  2  1  0
  3  5  1  0
  3  4  1  1
  3  2  1  0
  5  6  2  0
  7  5  1  0
  7  8  1  0
  9 10  2  0
  9  8  1  0
 11 12  1  0
 13 14  1  0
 13 12  1  0
 15 14  1  1
 15 16  1  0
 15 17  1  0
 16  9  1  0
 17 18  1  0
 19 17  2  0
M  END
$$$$
