SGM.pdb
     RDKit          3D

 19 18  0  0  1  0  0  0  0  0999 V2000
    2.6467  -19.2586   21.0784 O   0  0  0  0  0  0  0  0  0  0  0  0
    3.8934  -19.1240   20.4397 C   0  0  0  0  0  0  0  0  0  0  0  0
    4.9392  -19.0457   21.5200 C   0  0  2  0  0  0  0  0  0  0  0  0
    4.3019  -18.5758   22.7401 N   0  0  0  0  0  0  0  0  0  0  0  0
    5.9791  -18.0818   21.0976 C   0  0  0  0  0  0  0  0  0  0  0  0
    6.8038  -18.3454   20.1978 O   0  0  0  0  0  0  0  0  0  0  0  0
    6.0656  -16.7987   21.7223 N   0  0  0  0  0  0  0  0  0  0  0  0
    7.1048  -15.9033   21.3824 C   0  0  0  0  0  0  0  0  0  0  0  0
    7.9507  -15.4646   22.5118 C   0  0  0  0  0  0  0  0  0  0  0  0
    8.9746  -14.7151   22.2997 O   0  0  0  0  0  0  0  0  0  0  0  0
    6.4114  -10.5082   26.4832 C   0  0  0  0  0  0  0  0  0  0  0  0
    6.3229  -12.2884   26.6548 S   0  0  0  0  0  0  0  0  0  0  0  0
    7.6227  -13.1167   25.8317 C   0  0  0  0  0  0  0  0  0  0  0  0
    7.8272  -14.5426   25.7873 C   0  0  0  0  0  0  0  0  0  0  0  0
    8.7137  -15.3028   24.9023 C   0  0  2  0  0  0  0  0  0  0  0  0
    7.7311  -15.8050   23.8549 N   0  0  0  0  0  0  0  0  0  0  0  0
    9.3079  -16.5518   25.4540 C   0  0  0  0  0  0  0  0  0  0  0  0
   10.5036  -16.4631   26.1958 O   0  0  0  0  0  0  0  0  0  0  0  0
    8.8478  -17.6771   25.3226 O   0  0  0  0  0  0  0  0  0  0  0  0
  1  2  1  0
  3  5  1  0
  3  4  1  1
  3  2  1  0
  5  6  2  0
  7  5  1  0
  7  8  1  0
  9 10  2  0
  9  8  1  0
 11 12  1  0
 13 14  1  0
 13 12  1  0
 15 14  1  1
 15 16  1  0
 15 17  1  0
 16  9  1  0
 17 18  1  0
 19 17  2  0
M  END
$$$$
