SGM.pdb
     RDKit          3D

 19 18  0  0  1  0  0  0  0  0999 V2000
    6.4118  -18.5630   22.7894 O   0  0  0  0  0  0  0  0  0  0  0  0
    5.3910  -18.6530   21.8250 C   0  0  0  0  0  0  0  0  0  0  0  0
    6.0145  -18.3471   20.4891 C   0  0  2  0  0  0  0  0  0  0  0  0
    6.6406  -19.5606   19.9882 N   0  0  0  0  0  0  0  0  0  0  0  0
    7.0408  -17.2985   20.6793 C   0  0  0  0  0  0  0  0  0  0  0  0
    8.2502  -17.5712   20.8290 O   0  0  0  0  0  0  0  0  0  0  0  0
    6.6642  -15.9194   20.6959 N   0  0  0  0  0  0  0  0  0  0  0  0
    7.6452  -14.9086   20.8107 C   0  0  0  0  0  0  0  0  0  0  0  0
    8.1147  -14.6419   22.1863 C   0  0  0  0  0  0  0  0  0  0  0  0
    9.0322  -13.7654   22.3978 O   0  0  0  0  0  0  0  0  0  0  0  0
    6.7561  -10.8919   27.5803 C   0  0  0  0  0  0  0  0  0  0  0  0
    7.1898  -11.9164   26.1772 S   0  0  0  0  0  0  0  0  0  0  0  0
    6.7719  -13.5973   26.4070 C   0  0  0  0  0  0  0  0  0  0  0  0
    7.0237  -14.6695   25.4775 C   0  0  0  0  0  0  0  0  0  0  0  0
    8.2305  -14.9142   24.6833 C   0  0  2  0  0  0  0  0  0  0  0  0
    7.6307  -15.2853   23.3352 N   0  0  0  0  0  0  0  0  0  0  0  0
    9.0456  -16.1068   25.0453 C   0  0  0  0  0  0  0  0  0  0  0  0
   10.1116  -15.9484   25.9544 O   0  0  0  0  0  0  0  0  0  0  0  0
    8.8763  -17.2404   24.6192 O   0  0  0  0  0  0  0  0  0  0  0  0
  1  2  1  0
  3  5  1  0
  3  4  1  1
  3  2  1  0
  5  6  2  0
  7  5  1  0
  7  8  1  0
  9 10  2  0
  9  8  1  0
 11 12  1  0
 13 14  1  0
 13 12  1  0
 15 14  1  1
 15 16  1  0
 15 17  1  0
 16  9  1  0
 17 18  1  0
 19 17  2  0
M  END
$$$$
