IDD.pdb
     RDKit          3D

 25 24  0  0  1  0  0  0  0  0999 V2000
    6.5078  -11.9141   27.0744 C   0  0  0  0  0  0  0  0  0  0  0  0
    6.0010  -12.9686   26.1176 C   0  0  0  0  0  0  0  0  0  0  0  0
    7.1051  -13.9294   25.7690 C   0  0  2  0  0  0  0  0  0  0  0  0
    8.2296  -13.1109   25.1775 C   0  0  0  0  0  0  0  0  0  0  0  0
    6.6705  -15.0517   24.8771 C   0  0  2  0  0  0  0  0  0  0  0  0
    5.5395  -15.7447   25.4667 N   0  0  0  0  0  0  0  0  0  0  0  0
    7.7126  -16.0105   24.5447 C   0  0  0  0  0  0  0  0  0  0  0  0
    8.0167  -17.0223   25.2259 O   0  0  0  0  0  0  0  0  0  0  0  0
    8.4748  -15.8235   23.3576 N   0  0  0  0  0  0  0  0  0  0  0  0
    9.5130  -16.7525   22.9514 C   0  0  1  0  0  0  0  0  0  0  0  0
    9.9587  -16.5272   21.5335 C   0  0  0  0  0  0  0  0  0  0  0  0
    8.9481  -16.8493   20.5230 C   0  0  0  0  0  0  0  0  0  0  0  0
    8.1155  -17.7851   20.5781 O   0  0  0  0  0  0  0  0  0  0  0  0
   10.7203  -16.5773   23.8270 C   0  0  0  0  0  0  0  0  0  0  0  0
   10.8838  -15.4900   24.4573 O   0  0  0  0  0  0  0  0  0  0  0  0
    8.8990  -16.0448   19.3880 O   0  0  0  0  0  0  0  0  0  0  0  0
   11.6896  -17.6058   23.9675 N   0  0  0  0  0  0  0  0  0  0  0  0
   12.1962  -17.9865   25.2552 C   0  0  1  0  0  0  0  0  0  0  0  0
   11.0885  -18.2478   26.2540 C   0  0  0  0  0  0  0  0  0  0  0  0
   11.6116  -18.6384   27.5729 C   0  0  0  0  0  0  0  0  0  0  0  0
   12.5858  -17.9883   28.0315 O   0  0  0  0  0  0  0  0  0  0  0  0
   13.1457  -19.1169   25.1814 C   0  0  0  0  0  0  0  0  0  0  0  0
   12.7759  -20.4124   24.8717 O   0  0  0  0  0  0  0  0  0  0  0  0
   11.1109  -19.6711   28.3506 O   0  0  0  0  0  0  0  0  0  0  0  0
   14.3582  -18.8891   25.4129 O   0  0  0  0  0  0  0  0  0  0  0  0
  2  1  1  0
  3  2  1  0
  3  4  1  6
  5  3  1  0
  5  6  1  1
  7  5  1  0
  7  8  2  0
  9  7  1  0
 10  9  1  0
 10 11  1  6
 12 11  1  0
 13 12  2  0
 14 10  1  0
 14 17  1  0
 15 14  2  0
 16 12  1  0
 18 17  1  0
 18 22  1  0
 19 20  1  0
 18 19  1  1
 20 21  2  0
 22 23  1  0
 24 20  1  0
 25 22  2  0
M  END
$$$$
