IDD.pdb
     RDKit          3D

 25 24  0  0  1  0  0  0  0  0999 V2000
    6.6547  -11.8051   27.0477 C   0  0  0  0  0  0  0  0  0  0  0  0
    6.1067  -12.9120   26.1766 C   0  0  0  0  0  0  0  0  0  0  0  0
    7.1995  -13.8821   25.8183 C   0  0  2  0  0  0  0  0  0  0  0  0
    8.2882  -13.0857   25.1365 C   0  0  0  0  0  0  0  0  0  0  0  0
    6.7302  -15.0458   24.9999 C   0  0  2  0  0  0  0  0  0  0  0  0
    5.6362  -15.7189   25.6759 N   0  0  0  0  0  0  0  0  0  0  0  0
    7.7625  -16.0119   24.6579 C   0  0  0  0  0  0  0  0  0  0  0  0
    7.9829  -17.0896   25.2665 O   0  0  0  0  0  0  0  0  0  0  0  0
    8.6154  -15.7529   23.5487 N   0  0  0  0  0  0  0  0  0  0  0  0
    9.5983  -16.7161   23.0881 C   0  0  1  0  0  0  0  0  0  0  0  0
   10.2623  -16.2880   21.8092 C   0  0  0  0  0  0  0  0  0  0  0  0
   11.1079  -17.3136   21.1935 C   0  0  0  0  0  0  0  0  0  0  0  0
   11.4533  -18.4010   21.7133 O   0  0  0  0  0  0  0  0  0  0  0  0
   10.6803  -16.8676   24.1183 C   0  0  0  0  0  0  0  0  0  0  0  0
   11.3853  -15.8640   24.4378 O   0  0  0  0  0  0  0  0  0  0  0  0
   11.5787  -17.0669   19.9068 O   0  0  0  0  0  0  0  0  0  0  0  0
   10.9351  -18.1151   24.7476 N   0  0  0  0  0  0  0  0  0  0  0  0
   12.0321  -18.2848   25.6573 C   0  0  1  0  0  0  0  0  0  0  0  0
   11.7370  -19.3148   26.7272 C   0  0  0  0  0  0  0  0  0  0  0  0
   10.8221  -18.7981   27.7575 C   0  0  0  0  0  0  0  0  0  0  0  0
   11.1350  -17.7236   28.3317 O   0  0  0  0  0  0  0  0  0  0  0  0
   13.3076  -18.5639   24.9644 C   0  0  0  0  0  0  0  0  0  0  0  0
   14.5325  -18.6209   25.6027 O   0  0  0  0  0  0  0  0  0  0  0  0
    9.6383  -19.4071   28.1447 O   0  0  0  0  0  0  0  0  0  0  0  0
   13.2786  -18.7608   23.7251 O   0  0  0  0  0  0  0  0  0  0  0  0
  2  1  1  0
  3  2  1  0
  3  4  1  6
  5  3  1  0
  5  6  1  1
  7  5  1  0
  7  8  2  0
  9  7  1  0
 10  9  1  0
 10 11  1  6
 12 11  1  0
 13 12  2  0
 14 10  1  0
 14 17  1  0
 15 14  2  0
 16 12  1  0
 18 17  1  0
 18 22  1  0
 19 20  1  0
 18 19  1  1
 20 21  2  0
 22 23  1  0
 24 20  1  0
 25 22  2  0
M  END
$$$$
