IDD.pdb
     RDKit          3D

 25 24  0  0  1  0  0  0  0  0999 V2000
    5.7867  -11.3912   25.9136 C   0  0  0  0  0  0  0  0  0  0  0  0
    6.1339  -12.4544   26.9301 C   0  0  0  0  0  0  0  0  0  0  0  0
    7.0999  -13.4447   26.3387 C   0  0  2  0  0  0  0  0  0  0  0  0
    8.1827  -12.6456   25.6508 C   0  0  0  0  0  0  0  0  0  0  0  0
    6.4561  -14.4511   25.4349 C   0  0  2  0  0  0  0  0  0  0  0  0
    5.4612  -15.2121   26.1683 N   0  0  0  0  0  0  0  0  0  0  0  0
    7.3784  -15.3610   24.7736 C   0  0  0  0  0  0  0  0  0  0  0  0
    7.6476  -16.5291   25.1524 O   0  0  0  0  0  0  0  0  0  0  0  0
    8.0527  -14.9315   23.5964 N   0  0  0  0  0  0  0  0  0  0  0  0
    8.9169  -15.8143   22.8350 C   0  0  1  0  0  0  0  0  0  0  0  0
    9.3817  -15.1898   21.5490 C   0  0  0  0  0  0  0  0  0  0  0  0
   10.1739  -16.0790   20.6960 C   0  0  0  0  0  0  0  0  0  0  0  0
   11.2478  -15.7897   20.1172 O   0  0  0  0  0  0  0  0  0  0  0  0
   10.1440  -16.1379   23.6377 C   0  0  0  0  0  0  0  0  0  0  0  0
   10.8930  -15.1988   24.0421 O   0  0  0  0  0  0  0  0  0  0  0  0
    9.6970  -17.3725   20.5029 O   0  0  0  0  0  0  0  0  0  0  0  0
   10.4887  -17.4781   23.9573 N   0  0  0  0  0  0  0  0  0  0  0  0
   11.6636  -17.7875   24.7211 C   0  0  1  0  0  0  0  0  0  0  0  0
   11.4393  -18.9387   25.6789 C   0  0  0  0  0  0  0  0  0  0  0  0
   10.5519  -18.5686   26.7930 C   0  0  0  0  0  0  0  0  0  0  0  0
   10.7382  -17.4532   27.3434 O   0  0  0  0  0  0  0  0  0  0  0  0
   12.8535  -18.0050   23.8716 C   0  0  0  0  0  0  0  0  0  0  0  0
   12.8202  -18.0126   22.4897 O   0  0  0  0  0  0  0  0  0  0  0  0
    9.5231  -19.3582   27.2834 O   0  0  0  0  0  0  0  0  0  0  0  0
   13.9586  -18.1938   24.4360 O   0  0  0  0  0  0  0  0  0  0  0  0
  2  1  1  0
  3  2  1  0
  3  4  1  6
  5  3  1  0
  5  6  1  1
  7  5  1  0
  7  8  2  0
  9  7  1  0
 10  9  1  0
 10 11  1  6
 12 11  1  0
 13 12  2  0
 14 10  1  0
 14 17  1  0
 15 14  2  0
 16 12  1  0
 18 17  1  0
 18 22  1  0
 19 20  1  0
 18 19  1  6
 20 21  2  0
 22 23  1  0
 24 20  1  0
 25 22  2  0
M  END
$$$$
