IDD.pdb
     RDKit          3D

 25 24  0  0  1  0  0  0  0  0999 V2000
    6.5120  -11.1660   26.6218 C   0  0  0  0  0  0  0  0  0  0  0  0
    6.0968  -12.5646   26.2270 C   0  0  0  0  0  0  0  0  0  0  0  0
    7.1453  -13.1905   25.3480 C   0  0  2  0  0  0  0  0  0  0  0  0
    7.2977  -12.2952   24.1399 C   0  0  0  0  0  0  0  0  0  0  0  0
    6.8573  -14.6149   24.9843 C   0  0  2  0  0  0  0  0  0  0  0  0
    6.5936  -15.3897   26.1831 N   0  0  0  0  0  0  0  0  0  0  0  0
    7.8911  -15.2684   24.1969 C   0  0  0  0  0  0  0  0  0  0  0  0
    8.2090  -14.9684   23.0182 O   0  0  0  0  0  0  0  0  0  0  0  0
    8.6274  -16.3416   24.7722 N   0  0  0  0  0  0  0  0  0  0  0  0
    9.7110  -17.0010   24.0672 C   0  0  1  0  0  0  0  0  0  0  0  0
   10.5620  -16.0330   23.2934 C   0  0  0  0  0  0  0  0  0  0  0  0
   10.6795  -16.3380   21.8654 C   0  0  0  0  0  0  0  0  0  0  0  0
   10.3027  -17.3905   21.2977 O   0  0  0  0  0  0  0  0  0  0  0  0
   10.6105  -17.6906   25.0521 C   0  0  0  0  0  0  0  0  0  0  0  0
   11.5569  -17.0448   25.5941 O   0  0  0  0  0  0  0  0  0  0  0  0
   11.2648  -15.3724   21.0511 O   0  0  0  0  0  0  0  0  0  0  0  0
   10.4265  -19.0567   25.3938 N   0  0  0  0  0  0  0  0  0  0  0  0
   11.2753  -19.7109   26.3484 C   0  0  1  0  0  0  0  0  0  0  0  0
   12.6473  -20.0143   25.7841 C   0  0  0  0  0  0  0  0  0  0  0  0
   12.5922  -20.9965   24.6897 C   0  0  0  0  0  0  0  0  0  0  0  0
   11.9103  -20.7030   23.6744 O   0  0  0  0  0  0  0  0  0  0  0  0
   11.3592  -18.9796   27.6302 C   0  0  0  0  0  0  0  0  0  0  0  0
   10.7942  -17.7362   27.8441 O   0  0  0  0  0  0  0  0  0  0  0  0
   13.2366  -22.2241   24.6925 O   0  0  0  0  0  0  0  0  0  0  0  0
   11.9788  -19.5171   28.5803 O   0  0  0  0  0  0  0  0  0  0  0  0
  2  1  1  0
  3  2  1  0
  3  4  1  6
  5  3  1  0
  5  6  1  1
  7  5  1  0
  7  8  2  0
  9  7  1  0
 10  9  1  0
 10 11  1  1
 12 11  1  0
 13 12  2  0
 14 10  1  0
 14 17  1  0
 15 14  2  0
 16 12  1  0
 18 17  1  0
 18 22  1  0
 19 20  1  0
 18 19  1  6
 20 21  2  0
 22 23  1  0
 24 20  1  0
 25 22  2  0
M  END
$$$$
