IDD.pdb
     RDKit          3D

 25 24  0  0  1  0  0  0  0  0999 V2000
    7.9335  -12.5163   20.5781 C   0  0  0  0  0  0  0  0  0  0  0  0
    8.8225  -12.2247   19.3911 C   0  0  0  0  0  0  0  0  0  0  0  0
    8.8562  -13.4080   18.4626 C   0  0  2  0  0  0  0  0  0  0  0  0
    7.5166  -13.4574   17.7646 C   0  0  0  0  0  0  0  0  0  0  0  0
    9.2078  -14.6974   19.1393 C   0  0  2  0  0  0  0  0  0  0  0  0
    8.9851  -14.5843   20.5691 N   0  0  0  0  0  0  0  0  0  0  0  0
   10.5600  -15.1723   18.8908 C   0  0  0  0  0  0  0  0  0  0  0  0
   10.9270  -15.8365   17.8885 O   0  0  0  0  0  0  0  0  0  0  0  0
   11.5824  -14.8820   19.8370 N   0  0  0  0  0  0  0  0  0  0  0  0
   12.9449  -15.3535   19.6719 C   0  0  1  0  0  0  0  0  0  0  0  0
   13.7840  -14.4043   18.8627 C   0  0  0  0  0  0  0  0  0  0  0  0
   14.0677  -14.8589   17.4993 C   0  0  0  0  0  0  0  0  0  0  0  0
   13.5916  -14.3797   16.4430 O   0  0  0  0  0  0  0  0  0  0  0  0
   13.6010  -15.4873   21.0159 C   0  0  0  0  0  0  0  0  0  0  0  0
   13.2575  -14.7143   21.9598 O   0  0  0  0  0  0  0  0  0  0  0  0
   14.9498  -15.9256   17.3510 O   0  0  0  0  0  0  0  0  0  0  0  0
   14.6031  -16.4643   21.2577 N   0  0  0  0  0  0  0  0  0  0  0  0
   14.5525  -17.3200   22.4087 C   0  0  1  0  0  0  0  0  0  0  0  0
   13.1574  -17.8465   22.6722 C   0  0  0  0  0  0  0  0  0  0  0  0
   12.8355  -17.8707   24.1080 C   0  0  0  0  0  0  0  0  0  0  0  0
   13.7403  -17.5378   24.9157 O   0  0  0  0  0  0  0  0  0  0  0  0
   15.5482  -18.4109   22.3507 C   0  0  0  0  0  0  0  0  0  0  0  0
   15.6781  -19.2769   21.2810 O   0  0  0  0  0  0  0  0  0  0  0  0
   11.6075  -18.2335   24.6395 O   0  0  0  0  0  0  0  0  0  0  0  0
   16.3212  -18.5609   23.3282 O   0  0  0  0  0  0  0  0  0  0  0  0
  2  1  1  0
  3  2  1  0
  3  4  1  1
  5  3  1  0
  5  6  1  1
  7  5  1  0
  7  8  2  0
  9  7  1  0
 10  9  1  0
 10 11  1  6
 12 11  1  0
 13 12  2  0
 14 10  1  0
 14 17  1  0
 15 14  2  0
 16 12  1  0
 18 17  1  0
 18 22  1  0
 19 20  1  0
 18 19  1  6
 20 21  2  0
 22 23  1  0
 24 20  1  0
 25 22  2  0
M  END
$$$$
