IDD.pdb
     RDKit          3D

 25 24  0  0  1  0  0  0  0  0999 V2000
    7.1806  -11.7315   26.7202 C   0  0  0  0  0  0  0  0  0  0  0  0
    6.4179  -12.9135   26.1675 C   0  0  0  0  0  0  0  0  0  0  0  0
    7.3737  -13.9579   25.6580 C   0  0  2  0  0  0  0  0  0  0  0  0
    8.2636  -13.2806   24.6413 C   0  0  0  0  0  0  0  0  0  0  0  0
    6.6998  -15.1819   25.1180 C   0  0  2  0  0  0  0  0  0  0  0  0
    5.7358  -15.6832   26.0805 N   0  0  0  0  0  0  0  0  0  0  0  0
    7.5996  -16.2542   24.7228 C   0  0  0  0  0  0  0  0  0  0  0  0
    8.1274  -17.0876   25.5022 O   0  0  0  0  0  0  0  0  0  0  0  0
    7.9359  -16.4071   23.3486 N   0  0  0  0  0  0  0  0  0  0  0  0
    8.8087  -17.4675   22.8798 C   0  0  1  0  0  0  0  0  0  0  0  0
    8.5240  -17.8542   21.4553 C   0  0  0  0  0  0  0  0  0  0  0  0
    7.1244  -18.1954   21.1890 C   0  0  0  0  0  0  0  0  0  0  0  0
    6.3788  -18.8921   21.9174 O   0  0  0  0  0  0  0  0  0  0  0  0
   10.2376  -17.0094   22.9360 C   0  0  0  0  0  0  0  0  0  0  0  0
   10.7393  -16.4011   21.9437 O   0  0  0  0  0  0  0  0  0  0  0  0
    6.5580  -17.7033   20.0164 O   0  0  0  0  0  0  0  0  0  0  0  0
   11.0461  -17.2419   24.0802 N   0  0  0  0  0  0  0  0  0  0  0  0
   12.4607  -17.0003   24.0594 C   0  0  1  0  0  0  0  0  0  0  0  0
   12.8012  -15.6282   23.5169 C   0  0  0  0  0  0  0  0  0  0  0  0
   13.4118  -15.6962   22.1797 C   0  0  0  0  0  0  0  0  0  0  0  0
   13.3909  -16.8032   21.5829 O   0  0  0  0  0  0  0  0  0  0  0  0
   13.0990  -17.2456   25.3698 C   0  0  0  0  0  0  0  0  0  0  0  0
   12.3962  -17.5273   26.5264 O   0  0  0  0  0  0  0  0  0  0  0  0
   14.0101  -14.6301   21.5259 O   0  0  0  0  0  0  0  0  0  0  0  0
   14.3514  -17.1958   25.4381 O   0  0  0  0  0  0  0  0  0  0  0  0
  2  1  1  0
  3  2  1  0
  3  4  1  6
  5  3  1  0
  5  6  1  1
  7  5  1  0
  7  8  2  0
  9  7  1  0
 10  9  1  0
 10 11  1  6
 12 11  1  0
 13 12  2  0
 14 10  1  0
 14 17  1  0
 15 14  2  0
 16 12  1  0
 18 17  1  0
 18 22  1  0
 19 20  1  0
 18 19  1  1
 20 21  2  0
 22 23  1  0
 24 20  1  0
 25 22  2  0
M  END
$$$$
