IDD.pdb
     RDKit          3D

 25 24  0  0  1  0  0  0  0  0999 V2000
    6.3158  -11.9763   27.3952 C   0  0  0  0  0  0  0  0  0  0  0  0
    5.9431  -13.0166   26.3642 C   0  0  0  0  0  0  0  0  0  0  0  0
    7.0945  -13.9574   26.1339 C   0  0  2  0  0  0  0  0  0  0  0  0
    8.2774  -13.1118   25.7216 C   0  0  0  0  0  0  0  0  0  0  0  0
    6.7937  -15.0530   25.1576 C   0  0  2  0  0  0  0  0  0  0  0  0
    5.6233  -15.7952   25.5894 N   0  0  0  0  0  0  0  0  0  0  0  0
    7.8927  -15.9733   24.9099 C   0  0  0  0  0  0  0  0  0  0  0  0
    8.1102  -17.0367   25.5441 O   0  0  0  0  0  0  0  0  0  0  0  0
    8.8213  -15.6821   23.8718 N   0  0  0  0  0  0  0  0  0  0  0  0
    9.9273  -16.5661   23.5537 C   0  0  1  0  0  0  0  0  0  0  0  0
   10.8109  -16.0096   22.4723 C   0  0  0  0  0  0  0  0  0  0  0  0
   11.8081  -16.9528   21.9604 C   0  0  0  0  0  0  0  0  0  0  0  0
   11.9408  -18.1514   22.3035 O   0  0  0  0  0  0  0  0  0  0  0  0
   10.7865  -16.7601   24.7698 C   0  0  0  0  0  0  0  0  0  0  0  0
   11.3935  -15.7674   25.2722 O   0  0  0  0  0  0  0  0  0  0  0  0
   12.6994  -16.4829   20.9999 O   0  0  0  0  0  0  0  0  0  0  0  0
   10.9369  -18.0361   25.3752 N   0  0  0  0  0  0  0  0  0  0  0  0
   11.7990  -18.2317   26.5058 C   0  0  1  0  0  0  0  0  0  0  0  0
   11.0310  -18.6074   27.7555 C   0  0  0  0  0  0  0  0  0  0  0  0
   11.1370  -17.5785   28.8023 C   0  0  0  0  0  0  0  0  0  0  0  0
   10.3379  -17.6455   29.7712 O   0  0  0  0  0  0  0  0  0  0  0  0
   12.8941  -19.1848   26.2280 C   0  0  0  0  0  0  0  0  0  0  0  0
   13.0436  -19.8553   25.0284 O   0  0  0  0  0  0  0  0  0  0  0  0
   12.0533  -16.5380   28.8016 O   0  0  0  0  0  0  0  0  0  0  0  0
   13.7377  -19.3988   27.1324 O   0  0  0  0  0  0  0  0  0  0  0  0
  2  1  1  0
  3  2  1  0
  3  4  1  6
  5  3  1  0
  5  6  1  1
  7  5  1  0
  7  8  2  0
  9  7  1  0
 10  9  1  0
 10 11  1  6
 12 11  1  0
 13 12  2  0
 14 10  1  0
 14 17  1  0
 15 14  2  0
 16 12  1  0
 18 17  1  0
 18 22  1  0
 19 20  1  0
 18 19  1  1
 20 21  2  0
 22 23  1  0
 24 20  1  0
 25 22  2  0
M  END
$$$$
