IDD.pdb
     RDKit          3D

 25 24  0  0  1  0  0  0  0  0999 V2000
    6.9154  -11.4703   27.2045 C   0  0  0  0  0  0  0  0  0  0  0  0
    6.1221  -12.5677   26.5331 C   0  0  0  0  0  0  0  0  0  0  0  0
    7.0468  -13.5195   25.8241 C   0  0  2  0  0  0  0  0  0  0  0  0
    7.8443  -12.7021   24.8341 C   0  0  0  0  0  0  0  0  0  0  0  0
    6.3469  -14.6819   25.1892 C   0  0  2  0  0  0  0  0  0  0  0  0
    5.5928  -15.4142   26.1901 N   0  0  0  0  0  0  0  0  0  0  0  0
    7.2127  -15.5973   24.4623 C   0  0  0  0  0  0  0  0  0  0  0  0
    7.7836  -16.6046   24.9519 O   0  0  0  0  0  0  0  0  0  0  0  0
    7.4597  -15.3687   23.0797 N   0  0  0  0  0  0  0  0  0  0  0  0
    8.3368  -16.2223   22.2998 C   0  0  1  0  0  0  0  0  0  0  0  0
    8.2693  -15.9194   20.8289 C   0  0  0  0  0  0  0  0  0  0  0  0
    8.8606  -16.9492   19.9712 C   0  0  0  0  0  0  0  0  0  0  0  0
    9.9058  -17.6006   20.2063 O   0  0  0  0  0  0  0  0  0  0  0  0
    9.7604  -16.0127   22.7291 C   0  0  0  0  0  0  0  0  0  0  0  0
   10.2505  -14.8440   22.7224 O   0  0  0  0  0  0  0  0  0  0  0  0
    8.2067  -17.2404   18.7772 O   0  0  0  0  0  0  0  0  0  0  0  0
   10.5766  -17.0980   23.1450 N   0  0  0  0  0  0  0  0  0  0  0  0
   11.9205  -16.8915   23.6040 C   0  0  1  0  0  0  0  0  0  0  0  0
   12.2417  -17.7181   24.8314 C   0  0  0  0  0  0  0  0  0  0  0  0
   13.6157  -17.4928   25.3080 C   0  0  0  0  0  0  0  0  0  0  0  0
   14.1735  -16.4102   24.9937 O   0  0  0  0  0  0  0  0  0  0  0  0
   12.9228  -17.0850   22.5351 C   0  0  0  0  0  0  0  0  0  0  0  0
   13.9974  -16.2406   22.3270 O   0  0  0  0  0  0  0  0  0  0  0  0
   14.3440  -18.3855   26.0792 O   0  0  0  0  0  0  0  0  0  0  0  0
   12.7923  -18.0726   21.7714 O   0  0  0  0  0  0  0  0  0  0  0  0
  2  1  1  0
  3  2  1  0
  3  4  1  6
  5  3  1  0
  5  6  1  1
  7  5  1  0
  7  8  2  0
  9  7  1  0
 10  9  1  0
 10 11  1  6
 12 11  1  0
 13 12  2  0
 14 10  1  0
 14 17  1  0
 15 14  2  0
 16 12  1  0
 18 17  1  0
 18 22  1  0
 19 20  1  0
 18 19  1  1
 20 21  2  0
 22 23  1  0
 24 20  1  0
 25 22  2  0
M  END
$$$$
