IDD.pdb
     RDKit          3D

 25 24  0  0  1  0  0  0  0  0999 V2000
    6.7321  -10.7175   26.4567 C   0  0  0  0  0  0  0  0  0  0  0  0
    7.3605  -12.0558   26.7701 C   0  0  0  0  0  0  0  0  0  0  0  0
    6.7439  -13.1326   25.9192 C   0  0  2  0  0  0  0  0  0  0  0  0
    5.2803  -13.2018   26.2900 C   0  0  0  0  0  0  0  0  0  0  0  0
    7.4347  -14.4575   26.0265 C   0  0  2  0  0  0  0  0  0  0  0  0
    8.7042  -14.3011   26.7127 N   0  0  0  0  0  0  0  0  0  0  0  0
    7.6436  -15.1451   24.7619 C   0  0  0  0  0  0  0  0  0  0  0  0
    6.7409  -15.6581   24.0531 O   0  0  0  0  0  0  0  0  0  0  0  0
    8.9652  -15.2690   24.2492 N   0  0  0  0  0  0  0  0  0  0  0  0
    9.2524  -15.9768   23.0153 C   0  0  1  0  0  0  0  0  0  0  0  0
    9.7259  -15.0561   21.9253 C   0  0  0  0  0  0  0  0  0  0  0  0
   10.0146  -15.7225   20.6531 C   0  0  0  0  0  0  0  0  0  0  0  0
    9.1814  -16.2862   19.9047 O   0  0  0  0  0  0  0  0  0  0  0  0
   10.3435  -16.9815   23.2499 C   0  0  0  0  0  0  0  0  0  0  0  0
   10.7400  -17.7099   22.2915 O   0  0  0  0  0  0  0  0  0  0  0  0
   11.3390  -15.7371   20.2245 O   0  0  0  0  0  0  0  0  0  0  0  0
   10.9461  -17.1369   24.5265 N   0  0  0  0  0  0  0  0  0  0  0  0
   11.4590  -18.4041   24.9632 C   0  0  1  0  0  0  0  0  0  0  0  0
   11.6724  -18.4519   26.4616 C   0  0  0  0  0  0  0  0  0  0  0  0
   12.4908  -19.6051   26.8689 C   0  0  0  0  0  0  0  0  0  0  0  0
   11.9573  -20.7435   26.8304 O   0  0  0  0  0  0  0  0  0  0  0  0
   10.6433  -19.5420   24.4891 C   0  0  0  0  0  0  0  0  0  0  0  0
   11.1616  -20.6293   23.8107 O   0  0  0  0  0  0  0  0  0  0  0  0
   13.8086  -19.5321   27.2931 O   0  0  0  0  0  0  0  0  0  0  0  0
    9.4087  -19.5213   24.7147 O   0  0  0  0  0  0  0  0  0  0  0  0
  2  1  1  0
  3  2  1  0
  3  4  1  1
  5  3  1  0
  5  6  1  6
  7  5  1  0
  7  8  2  0
  9  7  1  0
 10  9  1  0
 10 11  1  6
 12 11  1  0
 13 12  2  0
 14 10  1  0
 14 17  1  0
 15 14  2  0
 16 12  1  0
 18 17  1  0
 18 22  1  0
 19 20  1  0
 18 19  1  1
 20 21  2  0
 22 23  1  0
 24 20  1  0
 25 22  2  0
M  END
$$$$
