IDD.pdb
     RDKit          3D

 25 24  0  0  1  0  0  0  0  0999 V2000
    6.2401  -11.7743   27.2703 C   0  0  0  0  0  0  0  0  0  0  0  0
    5.7624  -12.8978   26.3793 C   0  0  0  0  0  0  0  0  0  0  0  0
    6.9298  -13.7234   25.9112 C   0  0  2  0  0  0  0  0  0  0  0  0
    7.8928  -12.7774   25.2314 C   0  0  0  0  0  0  0  0  0  0  0  0
    6.5419  -14.8816   25.0439 C   0  0  2  0  0  0  0  0  0  0  0  0
    5.5785  -15.7187   25.7355 N   0  0  0  0  0  0  0  0  0  0  0  0
    7.6518  -15.6971   24.5761 C   0  0  0  0  0  0  0  0  0  0  0  0
    8.1146  -16.7063   25.1659 O   0  0  0  0  0  0  0  0  0  0  0  0
    8.2950  -15.3579   23.3529 N   0  0  0  0  0  0  0  0  0  0  0  0
    9.3884  -16.1432   22.8109 C   0  0  1  0  0  0  0  0  0  0  0  0
    9.9371  -15.5579   21.5396 C   0  0  0  0  0  0  0  0  0  0  0  0
   10.9595  -16.3794   20.8870 C   0  0  0  0  0  0  0  0  0  0  0  0
   10.8069  -17.5436   20.4473 O   0  0  0  0  0  0  0  0  0  0  0  0
   10.5177  -16.1890   23.7995 C   0  0  0  0  0  0  0  0  0  0  0  0
   10.4643  -15.4736   24.8443 O   0  0  0  0  0  0  0  0  0  0  0  0
   12.2265  -15.8230   20.7356 O   0  0  0  0  0  0  0  0  0  0  0  0
   11.6513  -17.0191   23.5920 N   0  0  0  0  0  0  0  0  0  0  0  0
   12.3335  -17.6433   24.6895 C   0  0  1  0  0  0  0  0  0  0  0  0
   11.3918  -18.4246   25.5816 C   0  0  0  0  0  0  0  0  0  0  0  0
   11.5728  -18.0937   27.0041 C   0  0  0  0  0  0  0  0  0  0  0  0
   10.6927  -17.3847   27.5561 O   0  0  0  0  0  0  0  0  0  0  0  0
   13.4822  -18.4644   24.2524 C   0  0  0  0  0  0  0  0  0  0  0  0
   14.4700  -18.9201   25.1053 O   0  0  0  0  0  0  0  0  0  0  0  0
   12.6425  -18.5051   27.7842 O   0  0  0  0  0  0  0  0  0  0  0  0
   13.5670  -18.7662   23.0370 O   0  0  0  0  0  0  0  0  0  0  0  0
  2  1  1  0
  3  2  1  0
  3  4  1  6
  5  3  1  0
  5  6  1  1
  7  5  1  0
  7  8  2  0
  9  7  1  0
 10  9  1  0
 10 11  1  6
 12 11  1  0
 13 12  2  0
 14 10  1  0
 14 17  1  0
 15 14  2  0
 16 12  1  0
 18 17  1  0
 18 22  1  0
 19 20  1  0
 18 19  1  6
 20 21  2  0
 22 23  1  0
 24 20  1  0
 25 22  2  0
M  END
$$$$
