IDD.pdb
     RDKit          3D

 25 24  0  0  1  0  0  0  0  0999 V2000
    6.8326  -10.5976   26.4582 C   0  0  0  0  0  0  0  0  0  0  0  0
    7.1776  -11.9939   26.9224 C   0  0  0  0  0  0  0  0  0  0  0  0
    7.1148  -12.9568   25.7680 C   0  0  2  0  0  0  0  0  0  0  0  0
    5.7186  -12.8670   25.1961 C   0  0  0  0  0  0  0  0  0  0  0  0
    7.5077  -14.3571   26.1269 C   0  0  2  0  0  0  0  0  0  0  0  0
    8.5503  -14.3367   27.1367 N   0  0  0  0  0  0  0  0  0  0  0  0
    7.9285  -15.1831   25.0060 C   0  0  0  0  0  0  0  0  0  0  0  0
    7.1614  -15.7168   24.1651 O   0  0  0  0  0  0  0  0  0  0  0  0
    9.3157  -15.4320   24.8094 N   0  0  0  0  0  0  0  0  0  0  0  0
    9.8048  -16.2778   23.7364 C   0  0  1  0  0  0  0  0  0  0  0  0
   10.6209  -15.5125   22.7322 C   0  0  0  0  0  0  0  0  0  0  0  0
   10.9931  -16.2818   21.5424 C   0  0  0  0  0  0  0  0  0  0  0  0
   10.2501  -17.0610   20.9000 O   0  0  0  0  0  0  0  0  0  0  0  0
   10.6912  -17.3503   24.3008 C   0  0  0  0  0  0  0  0  0  0  0  0
   11.9499  -17.2080   24.2592 O   0  0  0  0  0  0  0  0  0  0  0  0
   12.2955  -16.1412   21.0713 O   0  0  0  0  0  0  0  0  0  0  0  0
   10.1514  -18.5275   24.8838 N   0  0  0  0  0  0  0  0  0  0  0  0
   10.9510  -19.7041   25.0728 C   0  0  1  0  0  0  0  0  0  0  0  0
   11.2343  -20.4215   23.7697 C   0  0  0  0  0  0  0  0  0  0  0  0
   10.5376  -21.7150   23.6857 C   0  0  0  0  0  0  0  0  0  0  0  0
    9.5921  -21.9231   24.4885 O   0  0  0  0  0  0  0  0  0  0  0  0
   12.1909  -19.4336   25.8305 C   0  0  0  0  0  0  0  0  0  0  0  0
   12.2885  -19.5334   27.2059 O   0  0  0  0  0  0  0  0  0  0  0  0
   10.8449  -22.7244   22.7864 O   0  0  0  0  0  0  0  0  0  0  0  0
   13.2153  -19.0935   25.1898 O   0  0  0  0  0  0  0  0  0  0  0  0
  2  1  1  0
  3  2  1  0
  3  4  1  1
  5  3  1  0
  5  6  1  1
  7  5  1  0
  7  8  2  0
  9  7  1  0
 10  9  1  0
 10 11  1  6
 12 11  1  0
 13 12  2  0
 14 10  1  0
 14 17  1  0
 15 14  2  0
 16 12  1  0
 18 17  1  0
 18 22  1  0
 19 20  1  0
 18 19  1  6
 20 21  2  0
 22 23  1  0
 24 20  1  0
 25 22  2  0
M  END
$$$$
