IDD.pdb
     RDKit          3D

 25 24  0  0  1  0  0  0  0  0999 V2000
    6.6503  -11.9399   27.5825 C   0  0  0  0  0  0  0  0  0  0  0  0
    6.0548  -12.9053   26.5836 C   0  0  0  0  0  0  0  0  0  0  0  0
    7.1240  -13.8079   26.0306 C   0  0  2  0  0  0  0  0  0  0  0  0
    8.1703  -12.9163   25.4025 C   0  0  0  0  0  0  0  0  0  0  0  0
    6.6064  -14.8510   25.0883 C   0  0  2  0  0  0  0  0  0  0  0  0
    5.5654  -15.6301   25.7336 N   0  0  0  0  0  0  0  0  0  0  0  0
    7.6184  -15.7428   24.5438 C   0  0  0  0  0  0  0  0  0  0  0  0
    7.9448  -16.8567   25.0267 O   0  0  0  0  0  0  0  0  0  0  0  0
    8.3208  -15.3594   23.3671 N   0  0  0  0  0  0  0  0  0  0  0  0
    9.3351  -16.2032   22.7629 C   0  0  1  0  0  0  0  0  0  0  0  0
    9.9846  -15.5533   21.5730 C   0  0  0  0  0  0  0  0  0  0  0  0
   10.9810  -16.3874   20.8967 C   0  0  0  0  0  0  0  0  0  0  0  0
   11.9332  -15.9803   20.1900 O   0  0  0  0  0  0  0  0  0  0  0  0
   10.4214  -16.4831   23.7610 C   0  0  0  0  0  0  0  0  0  0  0  0
   11.0295  -15.5170   24.3117 O   0  0  0  0  0  0  0  0  0  0  0  0
   10.8689  -17.7668   21.0470 O   0  0  0  0  0  0  0  0  0  0  0  0
   10.7870  -17.8115   24.1057 N   0  0  0  0  0  0  0  0  0  0  0  0
   11.6158  -18.0888   25.2440 C   0  0  1  0  0  0  0  0  0  0  0  0
   10.8042  -18.3576   26.4938 C   0  0  0  0  0  0  0  0  0  0  0  0
   11.6547  -18.7027   27.6440 C   0  0  0  0  0  0  0  0  0  0  0  0
   12.4236  -17.8132   28.0906 O   0  0  0  0  0  0  0  0  0  0  0  0
   12.5964  -19.1641   24.9853 C   0  0  0  0  0  0  0  0  0  0  0  0
   13.6386  -19.4755   25.8384 O   0  0  0  0  0  0  0  0  0  0  0  0
   11.6730  -19.9372   28.2747 O   0  0  0  0  0  0  0  0  0  0  0  0
   12.4772  -19.8343   23.9307 O   0  0  0  0  0  0  0  0  0  0  0  0
  2  1  1  0
  3  2  1  0
  3  4  1  6
  5  3  1  0
  5  6  1  1
  7  5  1  0
  7  8  2  0
  9  7  1  0
 10  9  1  0
 10 11  1  6
 12 11  1  0
 13 12  2  0
 14 10  1  0
 14 17  1  0
 15 14  2  0
 16 12  1  0
 18 17  1  0
 18 22  1  0
 19 20  1  0
 18 19  1  1
 20 21  2  0
 22 23  1  0
 24 20  1  0
 25 22  2  0
M  END
$$$$
