NHL.pdb
     RDKit          3D

 27 27  0  0  1  0  0  0  0  0999 V2000
   18.7543  -13.0771  -20.7684 N   0  0  0  0  0  0  0  0  0  0  0  0
   19.7601  -12.4943  -19.9719 C   0  0  0  0  0  0  0  0  0  0  0  0
   20.9482  -12.4159  -20.3900 O   0  0  0  0  0  0  0  0  0  0  0  0
   19.4375  -11.9672  -18.6367 C   0  0  0  0  0  0  0  0  0  0  0  0
   20.5226  -11.0538  -18.1755 C   0  0  2  0  0  0  0  0  0  0  0  0
   21.4000  -11.7443  -17.2509 N   0  0  0  0  0  0  0  0  0  0  0  0
   19.8927   -9.9130  -17.4365 C   0  0  0  0  0  0  0  0  0  0  0  0
   19.1979   -9.0435  -18.0384 O   0  0  0  0  0  0  0  0  0  0  0  0
   20.0500   -9.7616  -16.0313 N   0  0  0  0  0  0  0  0  0  0  0  0
   19.4227   -8.6406  -15.3500 C   0  0  1  0  0  0  0  0  0  0  0  0
   18.5875   -9.1019  -14.1885 C   0  0  0  0  0  0  0  0  0  0  0  0
   17.3214   -9.7357  -14.5509 C   0  0  0  0  0  0  0  0  0  0  0  0
   16.9936  -11.0707  -14.6500 C   0  0  0  0  0  0  0  0  0  0  0  0
   15.7104  -11.2292  -15.0334 N   0  0  0  0  0  0  0  0  0  0  0  0
   15.2301   -9.9962  -15.1760 C   0  0  0  0  0  0  0  0  0  0  0  0
   16.1729   -9.0821  -14.8936 N   0  0  0  0  0  0  0  0  0  0  0  0
   20.5018   -7.7709  -14.8481 C   0  0  0  0  0  0  0  0  0  0  0  0
   21.6315   -8.2668  -14.6390 O   0  0  0  0  0  0  0  0  0  0  0  0
   23.6997   -4.6515  -17.5786 C   0  0  0  0  0  0  0  0  0  0  0  0
   23.2641   -4.6910  -16.1076 C   0  0  2  0  0  0  0  0  0  0  0  0
   24.4499   -5.0251  -15.2651 C   0  0  0  0  0  0  0  0  0  0  0  0
   22.1004   -5.6004  -15.9477 C   0  0  0  0  0  0  0  0  0  0  0  0
   21.4812   -5.5204  -14.5926 C   0  0  2  0  0  0  0  0  0  0  0  0
   20.3067   -6.3937  -14.5937 N   0  0  0  0  0  0  0  0  0  0  0  0
   21.0182   -4.1569  -14.2930 C   0  0  0  0  0  0  0  0  0  0  0  0
   19.9468   -3.7205  -14.7354 O   0  0  0  0  0  0  0  0  0  0  0  0
   21.7910   -3.3316  -13.4975 O   0  0  0  0  0  0  0  0  0  0  0  0
  1  2  1  0
  2  3  2  0
  4  2  1  0
  5  4  1  0
  5  6  1  1
  7  5  1  0
  7  8  2  0
  9  7  1  0
 10  9  1  0
 10 11  1  1
 11 12  1  0
 12 16  1  0
 13 12  2  0
 13 14  1  0
 14 15  1  0
 16 15  2  0
 17 10  1  0
 18 17  2  0
 20 19  1  6
 21 20  1  0
 22 20  1  0
 23 22  1  6
 23 24  1  0
 24 17  1  0
 25 23  1  0
 26 25  2  0
 27 25  1  0
M  END
$$$$
