NHL.pdb
     RDKit          3D

 27 27  0  0  1  0  0  0  0  0999 V2000
   15.6083  -13.0149  -11.9970 N   0  0  0  0  0  0  0  0  0  0  0  0
   15.8539  -12.1326  -10.9260 C   0  0  0  0  0  0  0  0  0  0  0  0
   15.8777  -12.5540   -9.7368 O   0  0  0  0  0  0  0  0  0  0  0  0
   16.0868  -10.7023  -11.1808 C   0  0  0  0  0  0  0  0  0  0  0  0
   15.2408   -9.8796  -10.2687 C   0  0  2  0  0  0  0  0  0  0  0  0
   13.8421  -10.0134  -10.6253 N   0  0  0  0  0  0  0  0  0  0  0  0
   15.6190   -8.4412  -10.4486 C   0  0  0  0  0  0  0  0  0  0  0  0
   15.2965   -7.8023  -11.4920 O   0  0  0  0  0  0  0  0  0  0  0  0
   16.3544   -7.7373   -9.4556 N   0  0  0  0  0  0  0  0  0  0  0  0
   16.6995   -6.3404   -9.6658 C   0  0  1  0  0  0  0  0  0  0  0  0
   16.3973   -5.5114   -8.4489 C   0  0  0  0  0  0  0  0  0  0  0  0
   14.9793   -5.2383   -8.2237 C   0  0  0  0  0  0  0  0  0  0  0  0
   13.8800   -5.5671   -8.9872 C   0  0  0  0  0  0  0  0  0  0  0  0
   12.7430   -5.1082   -8.4255 N   0  0  0  0  0  0  0  0  0  0  0  0
   13.1249   -4.4909   -7.3100 C   0  0  0  0  0  0  0  0  0  0  0  0
   14.4587   -4.5532   -7.1638 N   0  0  0  0  0  0  0  0  0  0  0  0
   18.1468   -6.2808   -9.9383 C   0  0  0  0  0  0  0  0  0  0  0  0
   18.9287   -6.9224   -9.2014 O   0  0  0  0  0  0  0  0  0  0  0  0
   21.5729   -6.6700  -13.9778 C   0  0  0  0  0  0  0  0  0  0  0  0
   21.4292   -7.4344  -12.6548 C   0  0  2  0  0  0  0  0  0  0  0  0
   21.6898   -8.8822  -12.9067 C   0  0  0  0  0  0  0  0  0  0  0  0
   20.1152   -7.1289  -12.0329 C   0  0  0  0  0  0  0  0  0  0  0  0
   20.0713   -5.7788  -11.3991 C   0  0  2  0  0  0  0  0  0  0  0  0
   18.6852   -5.5236  -11.0041 N   0  0  0  0  0  0  0  0  0  0  0  0
   20.4613   -4.7261  -12.3492 C   0  0  0  0  0  0  0  0  0  0  0  0
   19.6401   -4.2005  -13.1129 O   0  0  0  0  0  0  0  0  0  0  0  0
   21.7768   -4.3041  -12.4000 O   0  0  0  0  0  0  0  0  0  0  0  0
  1  2  1  0
  2  3  2  0
  4  2  1  0
  5  4  1  0
  5  6  1  6
  7  5  1  0
  7  8  2  0
  9  7  1  0
 10  9  1  0
 10 11  1  1
 11 12  1  0
 12 16  1  0
 13 12  2  0
 13 14  1  0
 14 15  1  0
 16 15  2  0
 17 10  1  0
 18 17  2  0
 20 19  1  6
 21 20  1  0
 22 20  1  0
 23 22  1  6
 23 24  1  0
 24 17  1  0
 25 23  1  0
 26 25  2  0
 27 25  1  0
M  END
$$$$
