NHL.pdb
     RDKit          3D

 27 27  0  0  1  0  0  0  0  0999 V2000
   13.0078  -11.7895  -12.4436 N   0  0  0  0  0  0  0  0  0  0  0  0
   13.2338  -11.7725  -11.0528 C   0  0  0  0  0  0  0  0  0  0  0  0
   12.3663  -12.2210  -10.2536 O   0  0  0  0  0  0  0  0  0  0  0  0
   14.4895  -11.2294  -10.5112 C   0  0  0  0  0  0  0  0  0  0  0  0
   15.3647  -10.7654  -11.6262 C   0  0  2  0  0  0  0  0  0  0  0  0
   16.2587  -11.8295  -12.0380 N   0  0  0  0  0  0  0  0  0  0  0  0
   16.2080   -9.6349  -11.1208 C   0  0  0  0  0  0  0  0  0  0  0  0
   16.8846   -9.7439  -10.0573 O   0  0  0  0  0  0  0  0  0  0  0  0
   16.2818   -8.3960  -11.8151 N   0  0  0  0  0  0  0  0  0  0  0  0
   17.0683   -7.3041  -11.2640 C   0  0  1  0  0  0  0  0  0  0  0  0
   18.0046   -6.7298  -12.2901 C   0  0  0  0  0  0  0  0  0  0  0  0
   19.1249   -7.5939  -12.6569 C   0  0  0  0  0  0  0  0  0  0  0  0
   19.4974   -8.8236  -12.1582 C   0  0  0  0  0  0  0  0  0  0  0  0
   20.6129   -9.2769  -12.7658 N   0  0  0  0  0  0  0  0  0  0  0  0
   20.9430   -8.3346  -13.6456 C   0  0  0  0  0  0  0  0  0  0  0  0
   20.0695   -7.3151  -13.6021 N   0  0  0  0  0  0  0  0  0  0  0  0
   16.1256   -6.2550  -10.8359 C   0  0  0  0  0  0  0  0  0  0  0  0
   15.1391   -5.9950  -11.5606 O   0  0  0  0  0  0  0  0  0  0  0  0
   12.9089   -5.5310   -8.1538 C   0  0  0  0  0  0  0  0  0  0  0  0
   14.2289   -5.5729   -7.3721 C   0  0  2  0  0  0  0  0  0  0  0  0
   13.9221   -5.5599   -5.9116 C   0  0  0  0  0  0  0  0  0  0  0  0
   15.1283   -4.4860   -7.8374 C   0  0  0  0  0  0  0  0  0  0  0  0
   15.3220   -4.4842   -9.3168 C   0  0  2  0  0  0  0  0  0  0  0  0
   16.2955   -5.5302   -9.6339 N   0  0  0  0  0  0  0  0  0  0  0  0
   15.8786   -3.2056   -9.7843 C   0  0  0  0  0  0  0  0  0  0  0  0
   17.0842   -3.0723  -10.0348 O   0  0  0  0  0  0  0  0  0  0  0  0
   15.0434   -2.1169   -9.9524 O   0  0  0  0  0  0  0  0  0  0  0  0
  1  2  1  0
  2  3  2  0
  4  2  1  0
  5  4  1  0
  5  6  1  1
  7  5  1  0
  7  8  2  0
  9  7  1  0
 10  9  1  0
 10 11  1  6
 11 12  1  0
 12 16  1  0
 13 12  2  0
 13 14  1  0
 14 15  1  0
 16 15  2  0
 17 10  1  0
 18 17  2  0
 20 19  1  6
 21 20  1  0
 22 20  1  0
 23 22  1  1
 23 24  1  0
 24 17  1  0
 25 23  1  0
 26 25  2  0
 27 25  1  0
M  END
$$$$
