NHL.pdb
     RDKit          3D

 27 27  0  0  1  0  0  0  0  0999 V2000
   21.3552  -21.4243  -12.5839 N   0  0  0  0  0  0  0  0  0  0  0  0
   21.2371  -21.1321  -11.2104 C   0  0  0  0  0  0  0  0  0  0  0  0
   22.1854  -20.5829  -10.5847 O   0  0  0  0  0  0  0  0  0  0  0  0
   20.0014  -21.4649  -10.4842 C   0  0  0  0  0  0  0  0  0  0  0  0
   19.0633  -22.1941  -11.3855 C   0  0  2  0  0  0  0  0  0  0  0  0
   18.5401  -21.2967  -12.3967 N   0  0  0  0  0  0  0  0  0  0  0  0
   17.9061  -22.6774  -10.5659 C   0  0  0  0  0  0  0  0  0  0  0  0
   17.0796  -21.8678  -10.0538 O   0  0  0  0  0  0  0  0  0  0  0  0
   17.6904  -24.0633  -10.3310 N   0  0  0  0  0  0  0  0  0  0  0  0
   16.5694  -24.4917   -9.5098 C   0  0  1  0  0  0  0  0  0  0  0  0
   15.6482  -25.4032  -10.2712 C   0  0  0  0  0  0  0  0  0  0  0  0
   14.7458  -24.7313  -11.2042 C   0  0  0  0  0  0  0  0  0  0  0  0
   14.4850  -23.3888  -11.3752 C   0  0  0  0  0  0  0  0  0  0  0  0
   13.5654  -23.1915  -12.3418 N   0  0  0  0  0  0  0  0  0  0  0  0
   13.2469  -24.4073  -12.7790 C   0  0  0  0  0  0  0  0  0  0  0  0
   13.9384  -25.3486  -12.1156 N   0  0  0  0  0  0  0  0  0  0  0  0
   17.1230  -25.2246   -8.3570 C   0  0  0  0  0  0  0  0  0  0  0  0
   18.3644  -25.3432   -8.2543 O   0  0  0  0  0  0  0  0  0  0  0  0
   19.0262  -26.9287   -4.3426 C   0  0  0  0  0  0  0  0  0  0  0  0
   18.2583  -25.6089   -4.1890 C   0  0  2  0  0  0  0  0  0  0  0  0
   17.2916  -25.7452   -3.0600 C   0  0  0  0  0  0  0  0  0  0  0  0
   17.6575  -25.2175   -5.4900 C   0  0  0  0  0  0  0  0  0  0  0  0
   16.9457  -26.3422   -6.1641 C   0  0  2  0  0  0  0  0  0  0  0  0
   16.3008  -25.7998   -7.3609 N   0  0  0  0  0  0  0  0  0  0  0  0
   15.8890  -26.9003   -5.3067 C   0  0  0  0  0  0  0  0  0  0  0  0
   14.8885  -26.2412   -4.9927 O   0  0  0  0  0  0  0  0  0  0  0  0
   16.0048  -28.1938   -4.8329 O   0  0  0  0  0  0  0  0  0  0  0  0
  1  2  1  0
  2  3  2  0
  4  2  1  0
  5  4  1  0
  5  6  1  6
  7  5  1  0
  7  8  2  0
  9  7  1  0
 10  9  1  0
 10 11  1  6
 11 12  1  0
 12 16  1  0
 13 12  2  0
 13 14  1  0
 14 15  1  0
 16 15  2  0
 17 10  1  0
 18 17  2  0
 20 19  1  6
 21 20  1  0
 22 20  1  0
 23 22  1  1
 23 24  1  0
 24 17  1  0
 25 23  1  0
 26 25  2  0
 27 25  1  0
M  END
$$$$
