NHL.pdb
     RDKit          3D

 27 27  0  0  1  0  0  0  0  0999 V2000
   24.7733  -17.0687  -20.5253 N   0  0  0  0  0  0  0  0  0  0  0  0
   25.5148  -18.2014  -20.1343 C   0  0  0  0  0  0  0  0  0  0  0  0
   26.3846  -18.6984  -20.9018 O   0  0  0  0  0  0  0  0  0  0  0  0
   25.2842  -18.8226  -18.8206 C   0  0  0  0  0  0  0  0  0  0  0  0
   24.1916  -18.1037  -18.1037 C   0  0  2  0  0  0  0  0  0  0  0  0
   24.6513  -16.8001  -17.6671 N   0  0  0  0  0  0  0  0  0  0  0  0
   23.8356  -18.8919  -16.8804 C   0  0  0  0  0  0  0  0  0  0  0  0
   22.9551  -19.7999  -16.9166 O   0  0  0  0  0  0  0  0  0  0  0  0
   24.4718  -18.6518  -15.6315 N   0  0  0  0  0  0  0  0  0  0  0  0
   24.0985  -19.4381  -14.4667 C   0  0  1  0  0  0  0  0  0  0  0  0
   25.1037  -19.2896  -13.3591 C   0  0  0  0  0  0  0  0  0  0  0  0
   24.7315  -19.9262  -12.0972 C   0  0  0  0  0  0  0  0  0  0  0  0
   23.5947  -20.6281  -11.7587 C   0  0  0  0  0  0  0  0  0  0  0  0
   23.6405  -21.0377  -10.4746 N   0  0  0  0  0  0  0  0  0  0  0  0
   24.8039  -20.5945  -10.0043 C   0  0  0  0  0  0  0  0  0  0  0  0
   25.4780  -19.9255  -10.9542 N   0  0  0  0  0  0  0  0  0  0  0  0
   22.7931  -18.9389  -13.9986 C   0  0  0  0  0  0  0  0  0  0  0  0
   22.5847  -17.7050  -13.9890 O   0  0  0  0  0  0  0  0  0  0  0  0
   17.7812  -17.8695  -15.4891 C   0  0  0  0  0  0  0  0  0  0  0  0
   18.5315  -18.0383  -14.1611 C   0  0  2  0  0  0  0  0  0  0  0  0
   18.5464  -16.7269  -13.4486 C   0  0  0  0  0  0  0  0  0  0  0  0
   19.8682  -18.6380  -14.4066 C   0  0  0  0  0  0  0  0  0  0  0  0
   20.4832  -19.2130  -13.1748 C   0  0  2  0  0  0  0  0  0  0  0  0
   21.7655  -19.8049  -13.5590 N   0  0  0  0  0  0  0  0  0  0  0  0
   19.6519  -20.2869  -12.6101 C   0  0  0  0  0  0  0  0  0  0  0  0
   19.6889  -21.4422  -13.0550 O   0  0  0  0  0  0  0  0  0  0  0  0
   18.8029  -20.0111  -11.5546 O   0  0  0  0  0  0  0  0  0  0  0  0
  1  2  1  0
  2  3  2  0
  4  2  1  0
  5  4  1  0
  5  6  1  1
  7  5  1  0
  7  8  2  0
  9  7  1  0
 10  9  1  0
 10 11  1  1
 11 12  1  0
 12 16  1  0
 13 12  2  0
 13 14  1  0
 14 15  1  0
 16 15  2  0
 17 10  1  0
 18 17  2  0
 20 19  1  6
 21 20  1  0
 22 20  1  0
 23 22  1  6
 23 24  1  0
 24 17  1  0
 25 23  1  0
 26 25  2  0
 27 25  1  0
M  END
$$$$
