NHL.pdb
     RDKit          3D

 27 27  0  0  1  0  0  0  0  0999 V2000
   29.7999  -22.9328  -16.8303 N   0  0  0  0  0  0  0  0  0  0  0  0
   28.5903  -23.0356  -16.1147 C   0  0  0  0  0  0  0  0  0  0  0  0
   27.8632  -24.0613  -16.2224 O   0  0  0  0  0  0  0  0  0  0  0  0
   28.1569  -21.9439  -15.2284 C   0  0  0  0  0  0  0  0  0  0  0  0
   26.6900  -21.7203  -15.3781 C   0  0  2  0  0  0  0  0  0  0  0  0
   26.4138  -21.0144  -16.6138 N   0  0  0  0  0  0  0  0  0  0  0  0
   26.2303  -20.8516  -14.2474 C   0  0  0  0  0  0  0  0  0  0  0  0
   26.5091  -19.6179  -14.2109 O   0  0  0  0  0  0  0  0  0  0  0  0
   25.4636  -21.3777  -13.1715 N   0  0  0  0  0  0  0  0  0  0  0  0
   24.9715  -20.4884  -12.1315 C   0  0  1  0  0  0  0  0  0  0  0  0
   23.4703  -20.5063  -12.0591 C   0  0  0  0  0  0  0  0  0  0  0  0
   22.7913  -19.7725  -13.1253 C   0  0  0  0  0  0  0  0  0  0  0  0
   23.3089  -18.9701  -14.1192 C   0  0  0  0  0  0  0  0  0  0  0  0
   22.3288  -18.4639  -14.8951 N   0  0  0  0  0  0  0  0  0  0  0  0
   21.1954  -18.9461  -14.3910 C   0  0  0  0  0  0  0  0  0  0  0  0
   21.4423  -19.7327  -13.3305 N   0  0  0  0  0  0  0  0  0  0  0  0
   25.5184  -20.9662  -10.8488 C   0  0  0  0  0  0  0  0  0  0  0  0
   25.5820  -22.1982  -10.6390 O   0  0  0  0  0  0  0  0  0  0  0  0
   26.7864  -20.1910   -5.6719 C   0  0  0  0  0  0  0  0  0  0  0  0
   27.9456  -20.1112   -6.6744 C   0  0  2  0  0  0  0  0  0  0  0  0
   29.0171  -19.2451   -6.1006 C   0  0  0  0  0  0  0  0  0  0  0  0
   27.4372  -19.6879   -8.0045 C   0  0  0  0  0  0  0  0  0  0  0  0
   26.4658  -20.6565   -8.5914 C   0  0  2  0  0  0  0  0  0  0  0  0
   25.9746  -20.0816   -9.8446 N   0  0  0  0  0  0  0  0  0  0  0  0
   25.3048  -20.8537   -7.7103 C   0  0  0  0  0  0  0  0  0  0  0  0
   24.3422  -20.0744   -7.7162 O   0  0  0  0  0  0  0  0  0  0  0  0
   25.2762  -21.9344   -6.8486 O   0  0  0  0  0  0  0  0  0  0  0  0
  1  2  1  0
  2  3  2  0
  4  2  1  0
  5  4  1  0
  5  6  1  6
  7  5  1  0
  7  8  2  0
  9  7  1  0
 10  9  1  0
 10 11  1  1
 11 12  1  0
 12 16  1  0
 13 12  2  0
 13 14  1  0
 14 15  1  0
 16 15  2  0
 17 10  1  0
 18 17  2  0
 20 19  1  1
 21 20  1  0
 22 20  1  0
 23 22  1  1
 23 24  1  0
 24 17  1  0
 25 23  1  0
 26 25  2  0
 27 25  1  0
M  END
$$$$
