NHL.pdb
     RDKit          3D

 27 27  0  0  1  0  0  0  0  0999 V2000
   28.2426  -25.8615  -16.1309 N   0  0  0  0  0  0  0  0  0  0  0  0
   28.2901  -24.6504  -16.8496 C   0  0  0  0  0  0  0  0  0  0  0  0
   28.5158  -24.6465  -18.0912 O   0  0  0  0  0  0  0  0  0  0  0  0
   28.0763  -23.3686  -16.1595 C   0  0  0  0  0  0  0  0  0  0  0  0
   26.6174  -23.1433  -15.9469 C   0  0  2  0  0  0  0  0  0  0  0  0
   25.9848  -22.7477  -17.1897 N   0  0  0  0  0  0  0  0  0  0  0  0
   26.4539  -22.0145  -14.9756 C   0  0  0  0  0  0  0  0  0  0  0  0
   27.2267  -21.0128  -14.9957 O   0  0  0  0  0  0  0  0  0  0  0  0
   25.4254  -22.0234  -13.9936 N   0  0  0  0  0  0  0  0  0  0  0  0
   25.1914  -20.8406  -13.1808 C   0  0  1  0  0  0  0  0  0  0  0  0
   23.7727  -20.3600  -13.3068 C   0  0  0  0  0  0  0  0  0  0  0  0
   23.4983  -19.5473  -14.4902 C   0  0  0  0  0  0  0  0  0  0  0  0
   24.3488  -19.1076  -15.4815 C   0  0  0  0  0  0  0  0  0  0  0  0
   23.6901  -18.3615  -16.3916 N   0  0  0  0  0  0  0  0  0  0  0  0
   22.4267  -18.3306  -15.9746 C   0  0  0  0  0  0  0  0  0  0  0  0
   22.2829  -19.0323  -14.8382 N   0  0  0  0  0  0  0  0  0  0  0  0
   25.4479  -21.2128  -11.7779 C   0  0  0  0  0  0  0  0  0  0  0  0
   25.0747  -22.3359  -11.3714 O   0  0  0  0  0  0  0  0  0  0  0  0
   27.5591  -18.7196   -6.5755 C   0  0  0  0  0  0  0  0  0  0  0  0
   27.1567  -20.0069   -7.3078 C   0  0  2  0  0  0  0  0  0  0  0  0
   28.1122  -21.0905   -6.9331 C   0  0  0  0  0  0  0  0  0  0  0  0
   27.0396  -19.7454   -8.7654 C   0  0  0  0  0  0  0  0  0  0  0  0
   26.2140  -20.7657   -9.4751 C   0  0  2  0  0  0  0  0  0  0  0  0
   26.1016  -20.3454  -10.8726 N   0  0  0  0  0  0  0  0  0  0  0  0
   24.8525  -20.8339   -8.9230 C   0  0  0  0  0  0  0  0  0  0  0  0
   23.9454  -20.0967   -9.3325 O   0  0  0  0  0  0  0  0  0  0  0  0
   24.5660  -21.7412   -7.9201 O   0  0  0  0  0  0  0  0  0  0  0  0
  1  2  1  0
  2  3  2  0
  4  2  1  0
  5  4  1  0
  5  6  1  6
  7  5  1  0
  7  8  2  0
  9  7  1  0
 10  9  1  0
 10 11  1  1
 11 12  1  0
 12 16  1  0
 13 12  2  0
 13 14  1  0
 14 15  1  0
 16 15  2  0
 17 10  1  0
 18 17  2  0
 20 19  1  1
 21 20  1  0
 22 20  1  0
 23 22  1  1
 23 24  1  0
 24 17  1  0
 25 23  1  0
 26 25  2  0
 27 25  1  0
M  END
$$$$
