NHL.pdb
     RDKit          3D

 27 27  0  0  1  0  0  0  0  0999 V2000
   17.1589  -14.2887  -16.9501 N   0  0  0  0  0  0  0  0  0  0  0  0
   18.3464  -14.7797  -16.3717 C   0  0  0  0  0  0  0  0  0  0  0  0
   18.4102  -15.9628  -15.9374 O   0  0  0  0  0  0  0  0  0  0  0  0
   19.5329  -13.9161  -16.2659 C   0  0  0  0  0  0  0  0  0  0  0  0
   19.2897  -12.6292  -16.9794 C   0  0  2  0  0  0  0  0  0  0  0  0
   19.7349  -12.7268  -18.3555 N   0  0  0  0  0  0  0  0  0  0  0  0
   20.1047  -11.5627  -16.3139 C   0  0  0  0  0  0  0  0  0  0  0  0
   19.8748  -11.2079  -15.1213 O   0  0  0  0  0  0  0  0  0  0  0  0
   21.1675  -10.9075  -16.9945 N   0  0  0  0  0  0  0  0  0  0  0  0
   21.9191   -9.8595  -16.3228 C   0  0  1  0  0  0  0  0  0  0  0  0
   23.3753   -9.9053  -16.6926 C   0  0  0  0  0  0  0  0  0  0  0  0
   24.1129  -11.0486  -16.1588 C   0  0  0  0  0  0  0  0  0  0  0  0
   23.7056  -12.0426  -15.2953 C   0  0  0  0  0  0  0  0  0  0  0  0
   24.7096  -12.9061  -15.0398 N   0  0  0  0  0  0  0  0  0  0  0  0
   25.7480  -12.4571  -15.7407 C   0  0  0  0  0  0  0  0  0  0  0  0
   25.4193  -11.3460  -16.4203 N   0  0  0  0  0  0  0  0  0  0  0  0
   21.3559   -8.5678  -16.7551 C   0  0  0  0  0  0  0  0  0  0  0  0
   20.9853   -8.4359  -17.9430 O   0  0  0  0  0  0  0  0  0  0  0  0
   16.9304   -5.6680  -17.1929 C   0  0  0  0  0  0  0  0  0  0  0  0
   18.4413   -5.4211  -17.3002 C   0  0  2  0  0  0  0  0  0  0  0  0
   18.7720   -5.0783  -18.7146 C   0  0  0  0  0  0  0  0  0  0  0  0
   19.1851   -6.5792  -16.7414 C   0  0  0  0  0  0  0  0  0  0  0  0
   20.5966   -6.2486  -16.3883 C   0  0  2  0  0  0  0  0  0  0  0  0
   21.2187   -7.4699  -15.8747 N   0  0  0  0  0  0  0  0  0  0  0  0
   20.6612   -5.2374  -15.3223 C   0  0  0  0  0  0  0  0  0  0  0  0
   20.3653   -4.0526  -15.5290 O   0  0  0  0  0  0  0  0  0  0  0  0
   21.0614   -5.6077  -14.0519 O   0  0  0  0  0  0  0  0  0  0  0  0
  1  2  1  0
  2  3  2  0
  4  2  1  0
  5  4  1  0
  5  6  1  6
  7  5  1  0
  7  8  2  0
  9  7  1  0
 10  9  1  0
 10 11  1  6
 11 12  1  0
 12 16  1  0
 13 12  2  0
 13 14  1  0
 14 15  1  0
 16 15  2  0
 17 10  1  0
 18 17  2  0
 20 19  1  6
 21 20  1  0
 22 20  1  0
 23 22  1  1
 23 24  1  0
 24 17  1  0
 25 23  1  0
 26 25  2  0
 27 25  1  0
M  END
$$$$
