NHL.pdb
     RDKit          3D

 27 27  0  0  1  0  0  0  0  0999 V2000
   19.1769  -19.8162  -11.2992 N   0  0  0  0  0  0  0  0  0  0  0  0
   20.4859  -19.3093  -11.4230 C   0  0  0  0  0  0  0  0  0  0  0  0
   20.7097  -18.2577  -12.0837 O   0  0  0  0  0  0  0  0  0  0  0  0
   21.6142  -20.0021  -10.7811 C   0  0  0  0  0  0  0  0  0  0  0  0
   22.6569  -20.3244  -11.7976 C   0  0  2  0  0  0  0  0  0  0  0  0
   22.1891  -21.3752  -12.6798 N   0  0  0  0  0  0  0  0  0  0  0  0
   23.8672  -20.8398  -11.0805 C   0  0  0  0  0  0  0  0  0  0  0  0
   23.7987  -21.8430  -10.3125 O   0  0  0  0  0  0  0  0  0  0  0  0
   25.1394  -20.2233  -11.2341 N   0  0  0  0  0  0  0  0  0  0  0  0
   26.3140  -20.8279  -10.6265 C   0  0  1  0  0  0  0  0  0  0  0  0
   27.5420  -20.6033  -11.4637 C   0  0  0  0  0  0  0  0  0  0  0  0
   28.7755  -21.1626  -10.9140 C   0  0  0  0  0  0  0  0  0  0  0  0
   28.9789  -21.9185   -9.7797 C   0  0  0  0  0  0  0  0  0  0  0  0
   30.2843  -22.2189   -9.6232 N   0  0  0  0  0  0  0  0  0  0  0  0
   30.9028  -21.6531  -10.6569 C   0  0  0  0  0  0  0  0  0  0  0  0
   30.0238  -21.0138  -11.4462 N   0  0  0  0  0  0  0  0  0  0  0  0
   26.5075  -20.1898   -9.3120 C   0  0  0  0  0  0  0  0  0  0  0  0
   26.1378  -19.0048   -9.1539 O   0  0  0  0  0  0  0  0  0  0  0  0
   29.6740  -21.0520   -4.1996 C   0  0  0  0  0  0  0  0  0  0  0  0
   28.4404  -20.3480   -4.7808 C   0  0  2  0  0  0  0  0  0  0  0  0
   27.4014  -20.2427   -3.7145 C   0  0  0  0  0  0  0  0  0  0  0  0
   28.0024  -21.0355   -6.0226 C   0  0  0  0  0  0  0  0  0  0  0  0
   27.3105  -20.1235   -6.9796 C   0  0  2  0  0  0  0  0  0  0  0  0
   27.0968  -20.8690   -8.2209 N   0  0  0  0  0  0  0  0  0  0  0  0
   28.1413  -18.9539   -7.3036 C   0  0  0  0  0  0  0  0  0  0  0  0
   29.0404  -19.0084   -8.1535 O   0  0  0  0  0  0  0  0  0  0  0  0
   27.9217  -17.7566   -6.6483 O   0  0  0  0  0  0  0  0  0  0  0  0
  1  2  1  0
  2  3  2  0
  4  2  1  0
  5  4  1  0
  5  6  1  6
  7  5  1  0
  7  8  2  0
  9  7  1  0
 10  9  1  0
 10 11  1  6
 11 12  1  0
 12 16  1  0
 13 12  2  0
 13 14  1  0
 14 15  1  0
 16 15  2  0
 17 10  1  0
 18 17  2  0
 20 19  1  1
 21 20  1  0
 22 20  1  0
 23 22  1  1
 23 24  1  0
 24 17  1  0
 25 23  1  0
 26 25  2  0
 27 25  1  0
M  END
$$$$
