NHL.pdb
     RDKit          3D

 27 27  0  0  1  0  0  0  0  0999 V2000
   14.8351  -12.4101  -13.3214 N   0  0  0  0  0  0  0  0  0  0  0  0
   15.9819  -11.6122  -13.5055 C   0  0  0  0  0  0  0  0  0  0  0  0
   17.0736  -12.1280  -13.8723 O   0  0  0  0  0  0  0  0  0  0  0  0
   15.9218  -10.1608  -13.2716 C   0  0  0  0  0  0  0  0  0  0  0  0
   15.2158   -9.8820  -11.9877 C   0  0  2  0  0  0  0  0  0  0  0  0
   13.7810   -9.9692  -12.1753 N   0  0  0  0  0  0  0  0  0  0  0  0
   15.5343   -8.4781  -11.5727 C   0  0  0  0  0  0  0  0  0  0  0  0
   14.9175   -7.4904  -12.0675 O   0  0  0  0  0  0  0  0  0  0  0  0
   16.5410   -8.1998  -10.6076 N   0  0  0  0  0  0  0  0  0  0  0  0
   16.8393   -6.8221  -10.2507 C   0  0  1  0  0  0  0  0  0  0  0  0
   16.4774   -6.5350   -8.8203 C   0  0  0  0  0  0  0  0  0  0  0  0
   15.0511   -6.6251   -8.5137 C   0  0  0  0  0  0  0  0  0  0  0  0
   14.3186   -7.6730   -7.9989 C   0  0  0  0  0  0  0  0  0  0  0  0
   13.0155   -7.3451   -7.8841 N   0  0  0  0  0  0  0  0  0  0  0  0
   12.9266   -6.0928   -8.3258 C   0  0  0  0  0  0  0  0  0  0  0  0
   14.1304   -5.6365   -8.7094 N   0  0  0  0  0  0  0  0  0  0  0  0
   18.2897   -6.6262  -10.4260 C   0  0  0  0  0  0  0  0  0  0  0  0
   19.0808   -7.3561   -9.7878 O   0  0  0  0  0  0  0  0  0  0  0  0
   21.1283   -8.2235  -14.6160 C   0  0  0  0  0  0  0  0  0  0  0  0
   21.3881   -7.4307  -13.3279 C   0  0  2  0  0  0  0  0  0  0  0  0
   22.3708   -8.1818  -12.4925 C   0  0  0  0  0  0  0  0  0  0  0  0
   20.1003   -7.1166  -12.6574 C   0  0  0  0  0  0  0  0  0  0  0  0
   20.1553   -5.8633  -11.8496 C   0  0  2  0  0  0  0  0  0  0  0  0
   18.8209   -5.6417  -11.2907 N   0  0  0  0  0  0  0  0  0  0  0  0
   20.4835   -4.6989  -12.6859 C   0  0  0  0  0  0  0  0  0  0  0  0
   19.6131   -4.0824  -13.3155 O   0  0  0  0  0  0  0  0  0  0  0  0
   21.7951   -4.2719  -12.7792 O   0  0  0  0  0  0  0  0  0  0  0  0
  1  2  1  0
  2  3  2  0
  4  2  1  0
  5  4  1  0
  5  6  1  6
  7  5  1  0
  7  8  2  0
  9  7  1  0
 10  9  1  0
 10 11  1  1
 11 12  1  0
 12 16  1  0
 13 12  2  0
 13 14  1  0
 14 15  1  0
 16 15  2  0
 17 10  1  0
 18 17  2  0
 20 19  1  6
 21 20  1  0
 22 20  1  0
 23 22  1  6
 23 24  1  0
 24 17  1  0
 25 23  1  0
 26 25  2  0
 27 25  1  0
M  END
$$$$
