NHL.pdb
     RDKit          3D

 27 27  0  0  1  0  0  0  0  0999 V2000
   18.4932  -12.8315  -17.8540 N   0  0  0  0  0  0  0  0  0  0  0  0
   19.3785  -12.9565  -16.7647 C   0  0  0  0  0  0  0  0  0  0  0  0
   19.5380  -14.0677  -16.1884 O   0  0  0  0  0  0  0  0  0  0  0  0
   20.1318  -11.7882  -16.2825 C   0  0  0  0  0  0  0  0  0  0  0  0
   19.8413  -10.6057  -17.1438 C   0  0  2  0  0  0  0  0  0  0  0  0
   20.3937  -10.8030  -18.4694 N   0  0  0  0  0  0  0  0  0  0  0  0
   20.5178   -9.4112  -16.5438 C   0  0  0  0  0  0  0  0  0  0  0  0
   20.2351   -9.0128  -15.3767 O   0  0  0  0  0  0  0  0  0  0  0  0
   21.5031   -8.6782  -17.2609 N   0  0  0  0  0  0  0  0  0  0  0  0
   22.0843   -7.4817  -16.6734 C   0  0  1  0  0  0  0  0  0  0  0  0
   23.5675   -7.4194  -16.9091 C   0  0  0  0  0  0  0  0  0  0  0  0
   24.3521   -8.4099  -16.1745 C   0  0  0  0  0  0  0  0  0  0  0  0
   23.9594   -9.3214  -15.2182 C   0  0  0  0  0  0  0  0  0  0  0  0
   25.0082  -10.0450  -14.7765 N   0  0  0  0  0  0  0  0  0  0  0  0
   26.0603   -9.5903  -15.4529 C   0  0  0  0  0  0  0  0  0  0  0  0
   25.6968   -8.6108  -16.2971 N   0  0  0  0  0  0  0  0  0  0  0  0
   21.4477   -6.3201  -17.3199 C   0  0  0  0  0  0  0  0  0  0  0  0
   21.1818   -6.3773  -18.5413 O   0  0  0  0  0  0  0  0  0  0  0  0
   16.7136   -4.0078  -18.1677 C   0  0  0  0  0  0  0  0  0  0  0  0
   18.1919   -3.6512  -18.3741 C   0  0  2  0  0  0  0  0  0  0  0  0
   18.4510   -3.5083  -19.8369 C   0  0  0  0  0  0  0  0  0  0  0  0
   19.0540   -4.6379  -17.6742 C   0  0  0  0  0  0  0  0  0  0  0  0
   20.3941   -4.0887  -17.3156 C   0  0  2  0  0  0  0  0  0  0  0  0
   21.1257   -5.1411  -16.6089 N   0  0  0  0  0  0  0  0  0  0  0  0
   20.2780   -2.9414  -16.4026 C   0  0  0  0  0  0  0  0  0  0  0  0
   20.2834   -3.0842  -15.1724 O   0  0  0  0  0  0  0  0  0  0  0  0
   20.1591   -1.6650  -16.9202 O   0  0  0  0  0  0  0  0  0  0  0  0
  1  2  1  0
  2  3  2  0
  4  2  1  0
  5  4  1  0
  5  6  1  6
  7  5  1  0
  7  8  2  0
  9  7  1  0
 10  9  1  0
 10 11  1  6
 11 12  1  0
 12 16  1  0
 13 12  2  0
 13 14  1  0
 14 15  1  0
 16 15  2  0
 17 10  1  0
 18 17  2  0
 20 19  1  6
 21 20  1  0
 22 20  1  0
 23 22  1  1
 23 24  1  0
 24 17  1  0
 25 23  1  0
 26 25  2  0
 27 25  1  0
M  END
$$$$
