NFH.pdb
     RDKit          3D

 30 31  0  0  1  0  0  0  0  0999 V2000
    7.3839  -14.1166   16.8137 N   0  0  0  0  0  0  0  0  0  0  0  0
    8.7465  -14.2712   17.2136 C   0  0  0  0  0  0  0  0  0  0  0  0
    9.5757  -14.7688   16.4232 O   0  0  0  0  0  0  0  0  0  0  0  0
    9.1194  -13.8211   18.5841 C   0  0  0  0  0  0  0  0  0  0  0  0
    9.1491  -15.0229   19.5089 C   0  0  2  0  0  0  0  0  0  0  0  0
    7.9420  -15.7848   19.3303 N   0  0  0  0  0  0  0  0  0  0  0  0
    9.2491  -14.6119   20.9312 C   0  0  0  0  0  0  0  0  0  0  0  0
   10.1970  -13.8800   21.3412 O   0  0  0  0  0  0  0  0  0  0  0  0
    8.2824  -15.0216   21.9045 N   0  0  0  0  0  0  0  0  0  0  0  0
    8.3517  -14.6365   23.2855 C   0  0  1  0  0  0  0  0  0  0  0  0
    7.0140  -14.0784   23.7155 C   0  0  0  0  0  0  0  0  0  0  0  0
    7.0769  -13.5103   25.0835 C   0  0  0  0  0  0  0  0  0  0  0  0
    6.5302  -14.1345   26.1766 C   0  0  0  0  0  0  0  0  0  0  0  0
    6.6051  -13.5832   27.4283 C   0  0  0  0  0  0  0  0  0  0  0  0
    7.2508  -12.3637   27.5876 C   0  0  0  0  0  0  0  0  0  0  0  0
    7.8048  -11.7184   26.5184 C   0  0  0  0  0  0  0  0  0  0  0  0
    7.7107  -12.3005   25.2786 C   0  0  0  0  0  0  0  0  0  0  0  0
    8.6363  -15.8138   24.1727 C   0  0  0  0  0  0  0  0  0  0  0  0
    7.8180  -16.7643   24.1329 O   0  0  0  0  0  0  0  0  0  0  0  0
    9.7991  -15.7720   24.9872 N   0  0  0  0  0  0  0  0  0  0  0  0
   10.0243  -16.9417   25.8595 C   0  0  1  0  0  0  0  0  0  0  0  0
   11.3382  -17.4810   25.4715 C   0  0  0  0  0  0  0  0  0  0  0  0
   11.4653  -18.0776   24.1453 C   0  0  0  0  0  0  0  0  0  0  0  0
   10.3773  -18.0634   23.2607 C   0  0  0  0  0  0  0  0  0  0  0  0
   10.7685  -18.6689   22.1358 N   0  0  0  0  0  0  0  0  0  0  0  0
   12.0464  -19.0680   22.2557 C   0  0  0  0  0  0  0  0  0  0  0  0
   12.4330  -18.6922   23.4854 N   0  0  0  0  0  0  0  0  0  0  0  0
    9.8060  -16.5959   27.2558 C   0  0  0  0  0  0  0  0  0  0  0  0
    9.8290  -17.5623   28.2386 O   0  0  0  0  0  0  0  0  0  0  0  0
    9.5932  -15.4208   27.6061 O   0  0  0  0  0  0  0  0  0  0  0  0
  1  2  1  0
  2  3  2  0
  4  2  1  0
  4  5  1  0
  5  7  1  0
  5  6  1  1
  7  8  2  0
  9 10  1  0
  9  7  1  0
 10 11  1  1
 12 13  2  0
 12 11  1  0
 14 13  1  0
 15 14  2  0
 16 15  1  0
 16 17  2  0
 17 12  1  0
 18 10  1  0
 19 18  2  0
 20 18  1  0
 21 22  1  1
 21 20  1  0
 23 22  1  0
 24 23  2  0
 25 26  1  0
 25 24  1  0
 26 27  2  0
 27 23  1  0
 28 29  1  0
 28 21  1  0
 30 28  2  0
M  END
$$$$
