NFH.pdb
     RDKit          3D

 30 31  0  0  1  0  0  0  0  0999 V2000
    7.0143  -19.0942   18.1421 N   0  0  0  0  0  0  0  0  0  0  0  0
    8.4204  -18.9009   18.3042 C   0  0  0  0  0  0  0  0  0  0  0  0
    9.2115  -19.3156   17.4313 O   0  0  0  0  0  0  0  0  0  0  0  0
    8.8837  -18.1987   19.5339 C   0  0  0  0  0  0  0  0  0  0  0  0
    8.3560  -16.7767   19.5205 C   0  0  2  0  0  0  0  0  0  0  0  0
    8.9366  -16.0693   18.4106 N   0  0  0  0  0  0  0  0  0  0  0  0
    8.6945  -16.0596   20.7747 C   0  0  0  0  0  0  0  0  0  0  0  0
    9.8962  -15.8946   21.1364 O   0  0  0  0  0  0  0  0  0  0  0  0
    7.6824  -15.5218   21.6326 N   0  0  0  0  0  0  0  0  0  0  0  0
    7.9756  -14.8940   22.8897 C   0  0  1  0  0  0  0  0  0  0  0  0
    6.7266  -14.2245   23.4164 C   0  0  0  0  0  0  0  0  0  0  0  0
    6.9878  -13.5129   24.6905 C   0  0  0  0  0  0  0  0  0  0  0  0
    7.6563  -12.3160   24.7533 C   0  0  0  0  0  0  0  0  0  0  0  0
    7.8818  -11.6833   25.9471 C   0  0  0  0  0  0  0  0  0  0  0  0
    7.4205  -12.2725   27.1174 C   0  0  0  0  0  0  0  0  0  0  0  0
    6.7517  -13.4635   27.0867 C   0  0  0  0  0  0  0  0  0  0  0  0
    6.5437  -14.0692   25.8724 C   0  0  0  0  0  0  0  0  0  0  0  0
    8.3979  -15.8986   23.9225 C   0  0  0  0  0  0  0  0  0  0  0  0
    7.7154  -16.9484   24.0043 O   0  0  0  0  0  0  0  0  0  0  0  0
    9.5284  -15.5957   24.7273 N   0  0  0  0  0  0  0  0  0  0  0  0
   10.1092  -16.7231   25.4832 C   0  0  1  0  0  0  0  0  0  0  0  0
   11.4913  -16.8605   24.9944 C   0  0  0  0  0  0  0  0  0  0  0  0
   12.3455  -17.8548   25.6366 C   0  0  0  0  0  0  0  0  0  0  0  0
   11.9809  -18.3997   26.8762 C   0  0  0  0  0  0  0  0  0  0  0  0
   12.9312  -19.2717   27.2249 N   0  0  0  0  0  0  0  0  0  0  0  0
   13.8813  -19.3120   26.2750 C   0  0  0  0  0  0  0  0  0  0  0  0
   13.4911  -18.4408   25.3305 N   0  0  0  0  0  0  0  0  0  0  0  0
    9.8972  -16.5521   26.9124 C   0  0  0  0  0  0  0  0  0  0  0  0
   10.2609  -15.3851   27.5497 O   0  0  0  0  0  0  0  0  0  0  0  0
    9.3815  -17.4505   27.6024 O   0  0  0  0  0  0  0  0  0  0  0  0
  1  2  1  0
  2  3  2  0
  4  2  1  0
  4  5  1  0
  5  7  1  0
  5  6  1  6
  7  8  2  0
  9 10  1  0
  9  7  1  0
 10 11  1  1
 12 13  2  0
 12 11  1  0
 14 13  1  0
 15 14  2  0
 16 15  1  0
 16 17  2  0
 17 12  1  0
 18 10  1  0
 19 18  2  0
 20 18  1  0
 21 22  1  1
 21 20  1  0
 23 22  1  0
 24 23  2  0
 25 26  1  0
 25 24  1  0
 26 27  2  0
 27 23  1  0
 28 29  1  0
 28 21  1  0
 30 28  2  0
M  END
$$$$
