NFH.pdb
     RDKit          3D

 30 31  0  0  1  0  0  0  0  0999 V2000
   11.1452  -19.4179   17.1789 N   0  0  0  0  0  0  0  0  0  0  0  0
   11.6030  -18.0729   17.0306 C   0  0  0  0  0  0  0  0  0  0  0  0
   12.3025  -17.7573   16.0452 O   0  0  0  0  0  0  0  0  0  0  0  0
   11.2148  -17.0913   18.0822 C   0  0  0  0  0  0  0  0  0  0  0  0
   10.4300  -17.8089   19.1637 C   0  0  2  0  0  0  0  0  0  0  0  0
    9.0557  -17.9201   18.7533 N   0  0  0  0  0  0  0  0  0  0  0  0
   10.4865  -17.0765   20.4529 C   0  0  0  0  0  0  0  0  0  0  0  0
   11.5452  -16.4992   20.8377 O   0  0  0  0  0  0  0  0  0  0  0  0
    9.3509  -16.9877   21.3203 N   0  0  0  0  0  0  0  0  0  0  0  0
    9.3898  -16.3272   22.5940 C   0  0  1  0  0  0  0  0  0  0  0  0
    8.0455  -15.6918   22.8679 C   0  0  0  0  0  0  0  0  0  0  0  0
    7.8013  -14.5320   21.9773 C   0  0  0  0  0  0  0  0  0  0  0  0
    8.2306  -13.2621   22.2713 C   0  0  0  0  0  0  0  0  0  0  0  0
    7.9889  -12.2108   21.4270 C   0  0  0  0  0  0  0  0  0  0  0  0
    7.2925  -12.4427   20.2477 C   0  0  0  0  0  0  0  0  0  0  0  0
    6.8524  -13.6960   19.9278 C   0  0  0  0  0  0  0  0  0  0  0  0
    7.1127  -14.7257   20.7976 C   0  0  0  0  0  0  0  0  0  0  0  0
    9.6468  -17.2974   23.7107 C   0  0  0  0  0  0  0  0  0  0  0  0
    8.9475  -18.3391   23.7285 O   0  0  0  0  0  0  0  0  0  0  0  0
   10.6526  -16.9736   24.6599 N   0  0  0  0  0  0  0  0  0  0  0  0
   10.9391  -18.0018   25.6799 C   0  0  1  0  0  0  0  0  0  0  0  0
   12.3946  -17.9534   25.8967 C   0  0  0  0  0  0  0  0  0  0  0  0
   13.2609  -18.3902   24.8060 C   0  0  0  0  0  0  0  0  0  0  0  0
   12.7021  -18.8340   23.5989 C   0  0  0  0  0  0  0  0  0  0  0  0
   13.7115  -19.1677   22.7897 N   0  0  0  0  0  0  0  0  0  0  0  0
   14.8829  -18.9605   23.4156 C   0  0  0  0  0  0  0  0  0  0  0  0
   14.5685  -18.4899   24.6333 N   0  0  0  0  0  0  0  0  0  0  0  0
   10.0648  -17.8456   26.8323 C   0  0  0  0  0  0  0  0  0  0  0  0
   10.0869  -18.7542   27.8688 O   0  0  0  0  0  0  0  0  0  0  0  0
    9.2727  -16.8895   26.9191 O   0  0  0  0  0  0  0  0  0  0  0  0
  1  2  1  0
  2  3  2  0
  4  2  1  0
  4  5  1  0
  5  7  1  0
  5  6  1  6
  7  8  2  0
  9 10  1  0
  9  7  1  0
 10 11  1  1
 12 13  2  0
 12 11  1  0
 14 13  1  0
 15 14  2  0
 16 15  1  0
 16 17  2  0
 17 12  1  0
 18 10  1  0
 19 18  2  0
 20 18  1  0
 21 22  1  1
 21 20  1  0
 23 22  1  0
 24 23  2  0
 25 26  1  0
 25 24  1  0
 26 27  2  0
 27 23  1  0
 28 29  1  0
 28 21  1  0
 30 28  2  0
M  END
$$$$
