NFH.pdb
     RDKit          3D

 30 31  0  0  1  0  0  0  0  0999 V2000
   10.8976  -17.1293   16.5972 N   0  0  0  0  0  0  0  0  0  0  0  0
   10.6329  -17.7225   17.8695 C   0  0  0  0  0  0  0  0  0  0  0  0
   10.3124  -18.9275   17.9411 O   0  0  0  0  0  0  0  0  0  0  0  0
   10.7549  -16.8550   19.0747 C   0  0  0  0  0  0  0  0  0  0  0  0
    9.5994  -17.1458   20.0131 C   0  0  2  0  0  0  0  0  0  0  0  0
    8.3602  -16.9067   19.3226 N   0  0  0  0  0  0  0  0  0  0  0  0
    9.6488  -16.2834   21.2196 C   0  0  0  0  0  0  0  0  0  0  0  0
   10.7349  -15.7718   21.6206 O   0  0  0  0  0  0  0  0  0  0  0  0
    8.4753  -15.9896   21.9853 N   0  0  0  0  0  0  0  0  0  0  0  0
    8.5070  -15.2367   23.2069 C   0  0  1  0  0  0  0  0  0  0  0  0
    7.1317  -14.6714   23.4804 C   0  0  0  0  0  0  0  0  0  0  0  0
    7.1286  -13.8100   24.6871 C   0  0  0  0  0  0  0  0  0  0  0  0
    7.8666  -12.6569   24.7827 C   0  0  0  0  0  0  0  0  0  0  0  0
    7.8421  -11.8823   25.9122 C   0  0  0  0  0  0  0  0  0  0  0  0
    7.0497  -12.2792   26.9819 C   0  0  0  0  0  0  0  0  0  0  0  0
    6.3041  -13.4221   26.9163 C   0  0  0  0  0  0  0  0  0  0  0  0
    6.3531  -14.1738   25.7685 C   0  0  0  0  0  0  0  0  0  0  0  0
    8.8608  -16.1042   24.3802 C   0  0  0  0  0  0  0  0  0  0  0  0
    8.0967  -17.0696   24.6221 O   0  0  0  0  0  0  0  0  0  0  0  0
   10.0233  -15.7765   25.1278 N   0  0  0  0  0  0  0  0  0  0  0  0
   10.3466  -16.6749   26.2539 C   0  0  1  0  0  0  0  0  0  0  0  0
   11.8018  -16.8893   26.1874 C   0  0  0  0  0  0  0  0  0  0  0  0
   12.3068  -17.8331   25.1950 C   0  0  0  0  0  0  0  0  0  0  0  0
   11.4240  -18.4456   24.2940 C   0  0  0  0  0  0  0  0  0  0  0  0
   12.1471  -19.2502   23.5099 N   0  0  0  0  0  0  0  0  0  0  0  0
   13.4425  -19.1835   23.8623 C   0  0  0  0  0  0  0  0  0  0  0  0
   13.4989  -18.3157   24.8855 N   0  0  0  0  0  0  0  0  0  0  0  0
    9.7797  -16.1726   27.4962 C   0  0  0  0  0  0  0  0  0  0  0  0
    9.2772  -17.0348   28.4472 O   0  0  0  0  0  0  0  0  0  0  0  0
    9.7316  -14.9529   27.7392 O   0  0  0  0  0  0  0  0  0  0  0  0
  1  2  1  0
  2  3  2  0
  4  2  1  0
  4  5  1  0
  5  7  1  0
  5  6  1  6
  7  8  2  0
  9 10  1  0
  9  7  1  0
 10 11  1  1
 12 13  2  0
 12 11  1  0
 14 13  1  0
 15 14  2  0
 16 15  1  0
 16 17  2  0
 17 12  1  0
 18 10  1  0
 19 18  2  0
 20 18  1  0
 21 22  1  1
 21 20  1  0
 23 22  1  0
 24 23  2  0
 25 26  1  0
 25 24  1  0
 26 27  2  0
 27 23  1  0
 28 29  1  0
 28 21  1  0
 30 28  2  0
M  END
$$$$
