NFH.pdb
     RDKit          3D

 30 31  0  0  1  0  0  0  0  0999 V2000
    6.1902  -18.2743   17.6229 N   0  0  0  0  0  0  0  0  0  0  0  0
    7.4772  -17.8413   18.0664 C   0  0  0  0  0  0  0  0  0  0  0  0
    8.5076  -18.3804   17.6112 O   0  0  0  0  0  0  0  0  0  0  0  0
    7.5275  -16.7435   19.0726 C   0  0  0  0  0  0  0  0  0  0  0  0
    8.2161  -17.2510   20.3250 C   0  0  2  0  0  0  0  0  0  0  0  0
    7.4183  -18.2946   20.9113 N   0  0  0  0  0  0  0  0  0  0  0  0
    8.3955  -16.1679   21.3234 C   0  0  0  0  0  0  0  0  0  0  0  0
    9.0995  -15.1470   21.0698 O   0  0  0  0  0  0  0  0  0  0  0  0
    7.7835  -16.2252   22.6165 N   0  0  0  0  0  0  0  0  0  0  0  0
    7.9566  -15.2032   23.6093 C   0  0  1  0  0  0  0  0  0  0  0  0
    6.7113  -15.1203   24.4625 C   0  0  0  0  0  0  0  0  0  0  0  0
    6.8553  -14.1092   25.5371 C   0  0  0  0  0  0  0  0  0  0  0  0
    7.2734  -12.8235   25.3008 C   0  0  0  0  0  0  0  0  0  0  0  0
    7.3963  -11.9122   26.3161 C   0  0  0  0  0  0  0  0  0  0  0  0
    7.0889  -12.3053   27.6124 C   0  0  0  0  0  0  0  0  0  0  0  0
    6.6702  -13.5782   27.8788 C   0  0  0  0  0  0  0  0  0  0  0  0
    6.5586  -14.4649   26.8366 C   0  0  0  0  0  0  0  0  0  0  0  0
    9.0961  -15.5203   24.5342 C   0  0  0  0  0  0  0  0  0  0  0  0
    9.4108  -14.6379   25.3689 O   0  0  0  0  0  0  0  0  0  0  0  0
    9.7328  -16.7832   24.4028 N   0  0  0  0  0  0  0  0  0  0  0  0
   10.9757  -16.9684   25.1778 C   0  0  1  0  0  0  0  0  0  0  0  0
   11.8829  -15.8953   24.7383 C   0  0  0  0  0  0  0  0  0  0  0  0
   12.4356  -15.9798   23.3899 C   0  0  0  0  0  0  0  0  0  0  0  0
   11.9595  -16.9482   22.4943 C   0  0  0  0  0  0  0  0  0  0  0  0
   12.6323  -16.7995   21.3496 N   0  0  0  0  0  0  0  0  0  0  0  0
   13.5110  -15.7891   21.4673 C   0  0  0  0  0  0  0  0  0  0  0  0
   13.3619  -15.3184   22.7160 N   0  0  0  0  0  0  0  0  0  0  0  0
   10.6868  -17.0882   26.5987 C   0  0  0  0  0  0  0  0  0  0  0  0
   11.7020  -17.2314   27.5202 O   0  0  0  0  0  0  0  0  0  0  0  0
    9.5180  -17.0643   27.0260 O   0  0  0  0  0  0  0  0  0  0  0  0
  1  2  1  0
  2  3  2  0
  4  2  1  0
  4  5  1  0
  5  7  1  0
  5  6  1  1
  7  8  2  0
  9 10  1  0
  9  7  1  0
 10 11  1  1
 12 13  2  0
 12 11  1  0
 14 13  1  0
 15 14  2  0
 16 15  1  0
 16 17  2  0
 17 12  1  0
 18 10  1  0
 19 18  2  0
 20 18  1  0
 21 22  1  1
 21 20  1  0
 23 22  1  0
 24 23  2  0
 25 26  1  0
 25 24  1  0
 26 27  2  0
 27 23  1  0
 28 29  1  0
 28 21  1  0
 30 28  2  0
M  END
$$$$
