NFH.pdb
     RDKit          3D

 30 31  0  0  1  0  0  0  0  0999 V2000
   12.4070  -17.8793   18.1923 N   0  0  0  0  0  0  0  0  0  0  0  0
   11.1322  -17.3171   18.5074 C   0  0  0  0  0  0  0  0  0  0  0  0
   10.1345  -17.6064   17.8142 O   0  0  0  0  0  0  0  0  0  0  0  0
   11.0542  -16.3929   19.6735 C   0  0  0  0  0  0  0  0  0  0  0  0
   10.1855  -17.0215   20.7462 C   0  0  2  0  0  0  0  0  0  0  0  0
    8.8529  -17.1933   20.2325 N   0  0  0  0  0  0  0  0  0  0  0  0
   10.1238  -16.1729   21.9620 C   0  0  0  0  0  0  0  0  0  0  0  0
   11.1708  -15.6851   22.4797 O   0  0  0  0  0  0  0  0  0  0  0  0
    8.8822  -15.8662   22.6054 N   0  0  0  0  0  0  0  0  0  0  0  0
    8.7987  -15.1171   23.8269 C   0  0  1  0  0  0  0  0  0  0  0  0
    7.4020  -14.5576   23.9747 C   0  0  0  0  0  0  0  0  0  0  0  0
    7.2945  -13.6705   25.1577 C   0  0  0  0  0  0  0  0  0  0  0  0
    7.9742  -12.4831   25.2642 C   0  0  0  0  0  0  0  0  0  0  0  0
    7.8535  -11.6853   26.3712 C   0  0  0  0  0  0  0  0  0  0  0  0
    7.0220  -12.0939   27.4062 C   0  0  0  0  0  0  0  0  0  0  0  0
    6.3325  -13.2709   27.3290 C   0  0  0  0  0  0  0  0  0  0  0  0
    6.4777  -14.0450   26.2046 C   0  0  0  0  0  0  0  0  0  0  0  0
    9.0470  -15.9869   25.0253 C   0  0  0  0  0  0  0  0  0  0  0  0
    8.1704  -16.8432   25.2953 O   0  0  0  0  0  0  0  0  0  0  0  0
   10.2435  -15.7835   25.7632 N   0  0  0  0  0  0  0  0  0  0  0  0
   10.4738  -16.7033   26.8948 C   0  0  1  0  0  0  0  0  0  0  0  0
   11.6952  -17.4528   26.5568 C   0  0  0  0  0  0  0  0  0  0  0  0
   11.5876  -18.5210   25.5678 C   0  0  0  0  0  0  0  0  0  0  0  0
   10.3283  -19.0238   25.2101 C   0  0  0  0  0  0  0  0  0  0  0  0
   10.5239  -19.9804   24.2981 N   0  0  0  0  0  0  0  0  0  0  0  0
   11.8392  -20.1144   24.0554 C   0  0  0  0  0  0  0  0  0  0  0  0
   12.4498  -19.2141   24.8427 N   0  0  0  0  0  0  0  0  0  0  0  0
   10.4322  -15.9874   28.1607 C   0  0  0  0  0  0  0  0  0  0  0  0
   10.3681  -16.6663   29.3587 O   0  0  0  0  0  0  0  0  0  0  0  0
   10.4541  -14.7437   28.2021 O   0  0  0  0  0  0  0  0  0  0  0  0
  1  2  1  0
  2  3  2  0
  4  2  1  0
  4  5  1  0
  5  7  1  0
  5  6  1  6
  7  8  2  0
  9 10  1  0
  9  7  1  0
 10 11  1  1
 12 13  2  0
 12 11  1  0
 14 13  1  0
 15 14  2  0
 16 15  1  0
 16 17  2  0
 17 12  1  0
 18 10  1  0
 19 18  2  0
 20 18  1  0
 21 22  1  6
 21 20  1  0
 23 22  1  0
 24 23  2  0
 25 26  1  0
 25 24  1  0
 26 27  2  0
 27 23  1  0
 28 29  1  0
 28 21  1  0
 30 28  2  0
M  END
$$$$
