NFH.pdb
     RDKit          3D

 30 31  0  0  1  0  0  0  0  0999 V2000
    9.4687  -19.0521   17.5518 N   0  0  0  0  0  0  0  0  0  0  0  0
    9.8188  -19.7235   18.7631 C   0  0  0  0  0  0  0  0  0  0  0  0
   10.0272  -20.9549   18.7558 O   0  0  0  0  0  0  0  0  0  0  0  0
    9.9204  -18.9032   20.0028 C   0  0  0  0  0  0  0  0  0  0  0  0
    9.6088  -17.4574   19.6666 C   0  0  2  0  0  0  0  0  0  0  0  0
   10.5367  -16.9951   18.6694 N   0  0  0  0  0  0  0  0  0  0  0  0
    9.7182  -16.5856   20.8624 C   0  0  0  0  0  0  0  0  0  0  0  0
   10.8359  -16.1366   21.2513 O   0  0  0  0  0  0  0  0  0  0  0  0
    8.5695  -16.2118   21.6309 N   0  0  0  0  0  0  0  0  0  0  0  0
    8.6479  -15.3898   22.8049 C   0  0  1  0  0  0  0  0  0  0  0  0
    7.3090  -14.7289   23.0417 C   0  0  0  0  0  0  0  0  0  0  0  0
    7.3177  -13.9116   24.2786 C   0  0  0  0  0  0  0  0  0  0  0  0
    8.0192  -12.7375   24.3923 C   0  0  0  0  0  0  0  0  0  0  0  0
    8.0069  -12.0049   25.5496 C   0  0  0  0  0  0  0  0  0  0  0  0
    7.2650  -12.4669   26.6293 C   0  0  0  0  0  0  0  0  0  0  0  0
    6.5564  -13.6321   26.5462 C   0  0  0  0  0  0  0  0  0  0  0  0
    6.5918  -14.3403   25.3707 C   0  0  0  0  0  0  0  0  0  0  0  0
    8.9524  -16.2042   24.0290 C   0  0  0  0  0  0  0  0  0  0  0  0
    7.9715  -16.6609   24.6643 O   0  0  0  0  0  0  0  0  0  0  0  0
   10.3147  -16.3999   24.3804 N   0  0  0  0  0  0  0  0  0  0  0  0
   10.6304  -16.3338   25.8211 C   0  0  1  0  0  0  0  0  0  0  0  0
   10.1337  -15.0253   26.2782 C   0  0  0  0  0  0  0  0  0  0  0  0
   10.1840  -14.7392   27.7087 C   0  0  0  0  0  0  0  0  0  0  0  0
   10.7365  -15.6758   28.5941 C   0  0  0  0  0  0  0  0  0  0  0  0
   10.6538  -15.1607   29.8241 N   0  0  0  0  0  0  0  0  0  0  0  0
   10.0787  -13.9469   29.7704 C   0  0  0  0  0  0  0  0  0  0  0  0
    9.8088  -13.7273   28.4735 N   0  0  0  0  0  0  0  0  0  0  0  0
   10.1627  -17.5275   26.5089 C   0  0  0  0  0  0  0  0  0  0  0  0
   10.7974  -18.7394   26.3392 O   0  0  0  0  0  0  0  0  0  0  0  0
    9.1788  -17.4923   27.2703 O   0  0  0  0  0  0  0  0  0  0  0  0
  1  2  1  0
  2  3  2  0
  4  2  1  0
  4  5  1  0
  5  7  1  0
  5  6  1  6
  7  8  2  0
  9 10  1  0
  9  7  1  0
 10 11  1  1
 12 13  2  0
 12 11  1  0
 14 13  1  0
 15 14  2  0
 16 15  1  0
 16 17  2  0
 17 12  1  0
 18 10  1  0
 19 18  2  0
 20 18  1  0
 21 22  1  1
 21 20  1  0
 23 22  1  0
 24 23  2  0
 25 26  1  0
 25 24  1  0
 26 27  2  0
 27 23  1  0
 28 29  1  0
 28 21  1  0
 30 28  2  0
M  END
$$$$
