NFH.pdb
     RDKit          3D

 30 31  0  0  1  0  0  0  0  0999 V2000
   11.6756  -17.6857   15.7179 N   0  0  0  0  0  0  0  0  0  0  0  0
   10.3738  -17.5138   16.2803 C   0  0  0  0  0  0  0  0  0  0  0  0
    9.3753  -17.9855   15.6971 O   0  0  0  0  0  0  0  0  0  0  0  0
   10.2694  -16.7636   17.5634 C   0  0  0  0  0  0  0  0  0  0  0  0
   10.2344  -17.7521   18.7133 C   0  0  2  0  0  0  0  0  0  0  0  0
    8.9958  -18.4823   18.6692 N   0  0  0  0  0  0  0  0  0  0  0  0
   10.3379  -17.0646   20.0243 C   0  0  0  0  0  0  0  0  0  0  0  0
   11.3700  -16.4050   20.3435 O   0  0  0  0  0  0  0  0  0  0  0  0
    9.2798  -17.1139   20.9874 N   0  0  0  0  0  0  0  0  0  0  0  0
    9.3486  -16.4520   22.2591 C   0  0  1  0  0  0  0  0  0  0  0  0
    8.0223  -15.7861   22.5475 C   0  0  0  0  0  0  0  0  0  0  0  0
    7.7672  -14.6588   21.6190 C   0  0  0  0  0  0  0  0  0  0  0  0
    6.9576  -14.7688   20.5163 C   0  0  0  0  0  0  0  0  0  0  0  0
    6.7419  -13.7078   19.6772 C   0  0  0  0  0  0  0  0  0  0  0  0
    7.3600  -12.4953   19.9549 C   0  0  0  0  0  0  0  0  0  0  0  0
    8.1715  -12.3551   21.0452 C   0  0  0  0  0  0  0  0  0  0  0  0
    8.3649  -13.4398   21.8642 C   0  0  0  0  0  0  0  0  0  0  0  0
    9.5971  -17.4256   23.3748 C   0  0  0  0  0  0  0  0  0  0  0  0
    9.0173  -18.5357   23.2978 O   0  0  0  0  0  0  0  0  0  0  0  0
   10.4616  -17.0281   24.4293 N   0  0  0  0  0  0  0  0  0  0  0  0
   11.2095  -18.1102   25.0997 C   0  0  1  0  0  0  0  0  0  0  0  0
   12.4875  -18.2185   24.3765 C   0  0  0  0  0  0  0  0  0  0  0  0
   13.4731  -19.1735   24.8739 C   0  0  0  0  0  0  0  0  0  0  0  0
   13.1604  -20.0065   25.9578 C   0  0  0  0  0  0  0  0  0  0  0  0
   14.2308  -20.7692   26.1979 N   0  0  0  0  0  0  0  0  0  0  0  0
   15.2083  -20.4674   25.3260 C   0  0  0  0  0  0  0  0  0  0  0  0
   14.7117  -19.4975   24.5413 N   0  0  0  0  0  0  0  0  0  0  0  0
   11.2474  -17.8990   26.5387 C   0  0  0  0  0  0  0  0  0  0  0  0
   11.4492  -18.9515   27.4059 O   0  0  0  0  0  0  0  0  0  0  0  0
   11.1002  -16.7653   27.0307 O   0  0  0  0  0  0  0  0  0  0  0  0
  1  2  1  0
  2  3  2  0
  4  2  1  0
  4  5  1  0
  5  7  1  0
  5  6  1  1
  7  8  2  0
  9 10  1  0
  9  7  1  0
 10 11  1  1
 12 13  2  0
 12 11  1  0
 14 13  1  0
 15 14  2  0
 16 15  1  0
 16 17  2  0
 17 12  1  0
 18 10  1  0
 19 18  2  0
 20 18  1  0
 21 22  1  6
 21 20  1  0
 23 22  1  0
 24 23  2  0
 25 26  1  0
 25 24  1  0
 26 27  2  0
 27 23  1  0
 28 29  1  0
 28 21  1  0
 30 28  2  0
M  END
$$$$
