NFH.pdb
     RDKit          3D

 30 31  0  0  1  0  0  0  0  0999 V2000
    8.3964  -15.7363   14.3347 N   0  0  0  0  0  0  0  0  0  0  0  0
    8.8173  -16.8210   15.1635 C   0  0  0  0  0  0  0  0  0  0  0  0
    8.4956  -17.9914   14.8699 O   0  0  0  0  0  0  0  0  0  0  0  0
    9.6376  -16.4949   16.3639 C   0  0  0  0  0  0  0  0  0  0  0  0
    9.1406  -17.3132   17.5402 C   0  0  2  0  0  0  0  0  0  0  0  0
    7.7058  -17.3978   17.4826 N   0  0  0  0  0  0  0  0  0  0  0  0
    9.5321  -16.6994   18.8333 C   0  0  0  0  0  0  0  0  0  0  0  0
   10.1943  -15.6217   18.8781 O   0  0  0  0  0  0  0  0  0  0  0  0
    9.1811  -17.2942   20.0874 N   0  0  0  0  0  0  0  0  0  0  0  0
    9.4242  -16.6568   21.3502 C   0  0  1  0  0  0  0  0  0  0  0  0
    8.1438  -16.0217   21.8433 C   0  0  0  0  0  0  0  0  0  0  0  0
    7.8745  -14.7368   21.1546 C   0  0  0  0  0  0  0  0  0  0  0  0
    6.8734  -14.5819   20.2288 C   0  0  0  0  0  0  0  0  0  0  0  0
    6.6499  -13.3806   19.6096 C   0  0  0  0  0  0  0  0  0  0  0  0
    7.4592  -12.2983   19.9310 C   0  0  0  0  0  0  0  0  0  0  0  0
    8.4638  -12.4218   20.8487 C   0  0  0  0  0  0  0  0  0  0  0  0
    8.6589  -13.6408   21.4495 C   0  0  0  0  0  0  0  0  0  0  0  0
    9.8477  -17.6478   22.3956 C   0  0  0  0  0  0  0  0  0  0  0  0
    9.0566  -18.5920   22.6350 O   0  0  0  0  0  0  0  0  0  0  0  0
   11.1007  -17.4513   23.0351 N   0  0  0  0  0  0  0  0  0  0  0  0
   11.4954  -18.4770   24.0209 C   0  0  1  0  0  0  0  0  0  0  0  0
   12.9557  -18.6130   23.8914 C   0  0  0  0  0  0  0  0  0  0  0  0
   13.4791  -19.1981   22.6608 C   0  0  0  0  0  0  0  0  0  0  0  0
   12.6315  -19.9233   21.8110 C   0  0  0  0  0  0  0  0  0  0  0  0
   13.3646  -20.3386   20.7741 N   0  0  0  0  0  0  0  0  0  0  0  0
   14.6331  -19.9174   20.9171 C   0  0  0  0  0  0  0  0  0  0  0  0
   14.6625  -19.2309   22.0707 N   0  0  0  0  0  0  0  0  0  0  0  0
   10.9449  -18.1730   25.3330 C   0  0  0  0  0  0  0  0  0  0  0  0
   11.0510  -19.0715   26.3731 O   0  0  0  0  0  0  0  0  0  0  0  0
   10.3637  -17.0956   25.5574 O   0  0  0  0  0  0  0  0  0  0  0  0
  1  2  1  0
  2  3  2  0
  4  2  1  0
  4  5  1  0
  5  7  1  0
  5  6  1  1
  7  8  2  0
  9 10  1  0
  9  7  1  0
 10 11  1  1
 12 13  2  0
 12 11  1  0
 14 13  1  0
 15 14  2  0
 16 15  1  0
 16 17  2  0
 17 12  1  0
 18 10  1  0
 19 18  2  0
 20 18  1  0
 21 22  1  1
 21 20  1  0
 23 22  1  0
 24 23  2  0
 25 26  1  0
 25 24  1  0
 26 27  2  0
 27 23  1  0
 28 29  1  0
 28 21  1  0
 30 28  2  0
M  END
$$$$
