NFH.pdb
     RDKit          3D

 30 31  0  0  1  0  0  0  0  0999 V2000
    9.6840  -19.1832   19.0352 N   0  0  0  0  0  0  0  0  0  0  0  0
   10.7317  -19.2621   20.0031 C   0  0  0  0  0  0  0  0  0  0  0  0
   11.4623  -20.2740   20.0502 O   0  0  0  0  0  0  0  0  0  0  0  0
   10.9048  -18.1077   20.9291 C   0  0  0  0  0  0  0  0  0  0  0  0
    9.7518  -17.1413   20.7362 C   0  0  2  0  0  0  0  0  0  0  0  0
    9.8825  -16.5019   19.4542 N   0  0  0  0  0  0  0  0  0  0  0  0
    9.7347  -16.0982   21.7914 C   0  0  0  0  0  0  0  0  0  0  0  0
   10.7781  -15.4486   22.0938 O   0  0  0  0  0  0  0  0  0  0  0  0
    8.5420  -15.7774   22.5156 N   0  0  0  0  0  0  0  0  0  0  0  0
    8.4879  -14.7511   23.5176 C   0  0  1  0  0  0  0  0  0  0  0  0
    7.0431  -14.4163   23.8114 C   0  0  0  0  0  0  0  0  0  0  0  0
    6.9242  -13.4777   24.9528 C   0  0  0  0  0  0  0  0  0  0  0  0
    7.5348  -12.2489   24.9751 C   0  0  0  0  0  0  0  0  0  0  0  0
    7.4054  -11.4040   26.0455 C   0  0  0  0  0  0  0  0  0  0  0  0
    6.6369  -11.8069   27.1303 C   0  0  0  0  0  0  0  0  0  0  0  0
    6.0170  -13.0243   27.1371 C   0  0  0  0  0  0  0  0  0  0  0  0
    6.1687  -13.8451   26.0471 C   0  0  0  0  0  0  0  0  0  0  0  0
    9.0986  -15.2098   24.8102 C   0  0  0  0  0  0  0  0  0  0  0  0
    9.2132  -14.3518   25.7188 O   0  0  0  0  0  0  0  0  0  0  0  0
    9.5006  -16.5681   24.9154 N   0  0  0  0  0  0  0  0  0  0  0  0
   10.1574  -16.9557   26.1795 C   0  0  1  0  0  0  0  0  0  0  0  0
    9.2166  -17.8648   26.8550 C   0  0  0  0  0  0  0  0  0  0  0  0
    9.6454  -18.4824   28.1062 C   0  0  0  0  0  0  0  0  0  0  0  0
   10.8975  -18.1671   28.6531 C   0  0  0  0  0  0  0  0  0  0  0  0
   11.0277  -18.8667   29.7839 N   0  0  0  0  0  0  0  0  0  0  0  0
    9.9267  -19.6105   29.9871 C   0  0  0  0  0  0  0  0  0  0  0  0
    9.1135  -19.3507   28.9505 N   0  0  0  0  0  0  0  0  0  0  0  0
   11.5136  -17.4232   25.9361 C   0  0  0  0  0  0  0  0  0  0  0  0
   12.0080  -17.5313   24.6539 O   0  0  0  0  0  0  0  0  0  0  0  0
   12.2679  -17.7383   26.8746 O   0  0  0  0  0  0  0  0  0  0  0  0
  1  2  1  0
  2  3  2  0
  4  2  1  0
  4  5  1  0
  5  7  1  0
  5  6  1  6
  7  8  2  0
  9 10  1  0
  9  7  1  0
 10 11  1  1
 12 13  2  0
 12 11  1  0
 14 13  1  0
 15 14  2  0
 16 15  1  0
 16 17  2  0
 17 12  1  0
 18 10  1  0
 19 18  2  0
 20 18  1  0
 21 22  1  6
 21 20  1  0
 23 22  1  0
 24 23  2  0
 25 26  1  0
 25 24  1  0
 26 27  2  0
 27 23  1  0
 28 29  1  0
 28 21  1  0
 30 28  2  0
M  END
$$$$
