NFH.pdb
     RDKit          3D

 30 31  0  0  1  0  0  0  0  0999 V2000
    9.8591  -19.4592   18.7123 N   0  0  0  0  0  0  0  0  0  0  0  0
   10.5481  -18.2095   18.6450 C   0  0  0  0  0  0  0  0  0  0  0  0
   10.9773  -17.7924   17.5489 O   0  0  0  0  0  0  0  0  0  0  0  0
   10.7242  -17.4489   19.9140 C   0  0  0  0  0  0  0  0  0  0  0  0
    9.5374  -16.5242   20.1057 C   0  0  2  0  0  0  0  0  0  0  0  0
    9.5485  -15.5231   19.0727 N   0  0  0  0  0  0  0  0  0  0  0  0
    9.5822  -15.8492   21.4264 C   0  0  0  0  0  0  0  0  0  0  0  0
   10.6669  -15.4042   21.9033 O   0  0  0  0  0  0  0  0  0  0  0  0
    8.4054  -15.6694   22.2218 N   0  0  0  0  0  0  0  0  0  0  0  0
    8.4234  -15.0469   23.5150 C   0  0  1  0  0  0  0  0  0  0  0  0
    7.0471  -14.5043   23.8268 C   0  0  0  0  0  0  0  0  0  0  0  0
    7.0367  -13.7504   25.1033 C   0  0  0  0  0  0  0  0  0  0  0  0
    6.4875  -14.2471   26.2588 C   0  0  0  0  0  0  0  0  0  0  0  0
    6.4938  -13.5252   27.4229 C   0  0  0  0  0  0  0  0  0  0  0  0
    7.0711  -12.2617   27.4267 C   0  0  0  0  0  0  0  0  0  0  0  0
    7.6257  -11.7405   26.2921 C   0  0  0  0  0  0  0  0  0  0  0  0
    7.6014  -12.4923   25.1436 C   0  0  0  0  0  0  0  0  0  0  0  0
    8.7565  -16.0330   24.5971 C   0  0  0  0  0  0  0  0  0  0  0  0
    7.9731  -17.0027   24.7409 O   0  0  0  0  0  0  0  0  0  0  0  0
    9.9224  -15.8037   25.3754 N   0  0  0  0  0  0  0  0  0  0  0  0
   10.2898  -16.8717   26.3262 C   0  0  1  0  0  0  0  0  0  0  0  0
   11.7341  -17.0900   26.1415 C   0  0  0  0  0  0  0  0  0  0  0  0
   12.1722  -17.7500   24.9155 C   0  0  0  0  0  0  0  0  0  0  0  0
   11.2265  -18.2063   23.9860 C   0  0  0  0  0  0  0  0  0  0  0  0
   11.8973  -18.7622   22.9730 N   0  0  0  0  0  0  0  0  0  0  0  0
   13.2188  -18.6849   23.2066 C   0  0  0  0  0  0  0  0  0  0  0  0
   13.3450  -18.0660   24.3916 N   0  0  0  0  0  0  0  0  0  0  0  0
    9.8043  -16.5644   27.6629 C   0  0  0  0  0  0  0  0  0  0  0  0
    9.1169  -15.3969   27.9177 O   0  0  0  0  0  0  0  0  0  0  0  0
    9.9926  -17.3434   28.6151 O   0  0  0  0  0  0  0  0  0  0  0  0
  1  2  1  0
  2  3  2  0
  4  2  1  0
  4  5  1  0
  5  7  1  0
  5  6  1  6
  7  8  2  0
  9 10  1  0
  9  7  1  0
 10 11  1  1
 12 13  2  0
 12 11  1  0
 14 13  1  0
 15 14  2  0
 16 15  1  0
 16 17  2  0
 17 12  1  0
 18 10  1  0
 19 18  2  0
 20 18  1  0
 21 22  1  1
 21 20  1  0
 23 22  1  0
 24 23  2  0
 25 26  1  0
 25 24  1  0
 26 27  2  0
 27 23  1  0
 28 29  1  0
 28 21  1  0
 30 28  2  0
M  END
$$$$
