NFH.pdb
     RDKit          3D

 30 31  0  0  1  0  0  0  0  0999 V2000
   10.5877  -18.5593   18.2026 N   0  0  0  0  0  0  0  0  0  0  0  0
   10.6192  -17.1716   17.8651 C   0  0  0  0  0  0  0  0  0  0  0  0
   10.9762  -16.8157   16.7224 O   0  0  0  0  0  0  0  0  0  0  0  0
   10.2157  -16.1958   18.9163 C   0  0  0  0  0  0  0  0  0  0  0  0
    9.8147  -16.9537   20.1675 C   0  0  2  0  0  0  0  0  0  0  0  0
    8.5084  -17.5243   19.9743 N   0  0  0  0  0  0  0  0  0  0  0  0
    9.7770  -16.0631   21.3537 C   0  0  0  0  0  0  0  0  0  0  0  0
   10.7844  -15.3773   21.6960 O   0  0  0  0  0  0  0  0  0  0  0  0
    8.6042  -15.9369   22.1652 N   0  0  0  0  0  0  0  0  0  0  0  0
    8.5781  -15.1901   23.3906 C   0  0  1  0  0  0  0  0  0  0  0  0
    7.1767  -14.6768   23.6323 C   0  0  0  0  0  0  0  0  0  0  0  0
    7.1171  -13.8025   24.8281 C   0  0  0  0  0  0  0  0  0  0  0  0
    7.6408  -12.5342   24.8520 C   0  0  0  0  0  0  0  0  0  0  0  0
    7.5696  -11.7507   25.9734 C   0  0  0  0  0  0  0  0  0  0  0  0
    6.9515  -12.2582   27.1092 C   0  0  0  0  0  0  0  0  0  0  0  0
    6.4208  -13.5172   27.1158 C   0  0  0  0  0  0  0  0  0  0  0  0
    6.5105  -14.2740   25.9739 C   0  0  0  0  0  0  0  0  0  0  0  0
    8.9342  -16.0505   24.5684 C   0  0  0  0  0  0  0  0  0  0  0  0
    8.2199  -17.0629   24.7673 O   0  0  0  0  0  0  0  0  0  0  0  0
   10.0427  -15.6643   25.3681 N   0  0  0  0  0  0  0  0  0  0  0  0
   10.4025  -16.5820   26.4673 C   0  0  1  0  0  0  0  0  0  0  0  0
   11.8446  -16.8381   26.3167 C   0  0  0  0  0  0  0  0  0  0  0  0
   12.2739  -17.6876   25.2100 C   0  0  0  0  0  0  0  0  0  0  0  0
   11.3342  -18.1670   24.2860 C   0  0  0  0  0  0  0  0  0  0  0  0
   11.9947  -18.9086   23.3922 N   0  0  0  0  0  0  0  0  0  0  0  0
   13.3038  -18.9278   23.6965 C   0  0  0  0  0  0  0  0  0  0  0  0
   13.4330  -18.1776   24.8027 N   0  0  0  0  0  0  0  0  0  0  0  0
    9.9218  -16.0748   27.7435 C   0  0  0  0  0  0  0  0  0  0  0  0
    9.9484  -16.8610   28.8755 O   0  0  0  0  0  0  0  0  0  0  0  0
    9.4740  -14.9188   27.8534 O   0  0  0  0  0  0  0  0  0  0  0  0
  1  2  1  0
  2  3  2  0
  4  2  1  0
  4  5  1  0
  5  7  1  0
  5  6  1  6
  7  8  2  0
  9 10  1  0
  9  7  1  0
 10 11  1  1
 12 13  2  0
 12 11  1  0
 14 13  1  0
 15 14  2  0
 16 15  1  0
 16 17  2  0
 17 12  1  0
 18 10  1  0
 19 18  2  0
 20 18  1  0
 21 22  1  1
 21 20  1  0
 23 22  1  0
 24 23  2  0
 25 26  1  0
 25 24  1  0
 26 27  2  0
 27 23  1  0
 28 29  1  0
 28 21  1  0
 30 28  2  0
M  END
$$$$
