NFH.pdb
     RDKit          3D

 30 31  0  0  1  0  0  0  0  0999 V2000
   10.4988  -18.4263   18.3402 N   0  0  0  0  0  0  0  0  0  0  0  0
   11.4016  -17.3243   18.4456 C   0  0  0  0  0  0  0  0  0  0  0  0
   12.2922  -17.1632   17.5850 O   0  0  0  0  0  0  0  0  0  0  0  0
   11.2322  -16.4011   19.6028 C   0  0  0  0  0  0  0  0  0  0  0  0
   10.1684  -16.9585   20.5292 C   0  0  2  0  0  0  0  0  0  0  0  0
    8.8905  -16.8940   19.8718 N   0  0  0  0  0  0  0  0  0  0  0  0
   10.0939  -16.1895   21.7961 C   0  0  0  0  0  0  0  0  0  0  0  0
   11.1351  -15.9052   22.4573 O   0  0  0  0  0  0  0  0  0  0  0  0
    8.8459  -15.7340   22.3296 N   0  0  0  0  0  0  0  0  0  0  0  0
    8.7367  -15.0452   23.5841 C   0  0  1  0  0  0  0  0  0  0  0  0
    7.3370  -14.4924   23.7296 C   0  0  0  0  0  0  0  0  0  0  0  0
    7.1807  -13.7357   24.9949 C   0  0  0  0  0  0  0  0  0  0  0  0
    6.4831  -14.2202   26.0728 C   0  0  0  0  0  0  0  0  0  0  0  0
    6.3567  -13.4959   27.2286 C   0  0  0  0  0  0  0  0  0  0  0  0
    6.9509  -12.2427   27.3044 C   0  0  0  0  0  0  0  0  0  0  0  0
    7.6517  -11.7336   26.2478 C   0  0  0  0  0  0  0  0  0  0  0  0
    7.7577  -12.4874   25.1053 C   0  0  0  0  0  0  0  0  0  0  0  0
    8.9599  -15.9725   24.7436 C   0  0  0  0  0  0  0  0  0  0  0  0
    8.2579  -17.0118   24.7814 O   0  0  0  0  0  0  0  0  0  0  0  0
    9.9394  -15.6140   25.7078 N   0  0  0  0  0  0  0  0  0  0  0  0
   10.3567  -16.6816   26.6384 C   0  0  1  0  0  0  0  0  0  0  0  0
   11.6955  -17.0997   26.1905 C   0  0  0  0  0  0  0  0  0  0  0  0
   11.7898  -18.2746   25.3294 C   0  0  0  0  0  0  0  0  0  0  0  0
   10.6276  -18.9541   24.9371 C   0  0  0  0  0  0  0  0  0  0  0  0
   11.0037  -19.9758   24.1627 N   0  0  0  0  0  0  0  0  0  0  0  0
   12.3422  -19.9842   24.0403 C   0  0  0  0  0  0  0  0  0  0  0  0
   12.7817  -18.9396   24.7605 N   0  0  0  0  0  0  0  0  0  0  0  0
   10.1934  -16.2568   28.0204 C   0  0  0  0  0  0  0  0  0  0  0  0
   10.0761  -14.9218   28.3437 O   0  0  0  0  0  0  0  0  0  0  0  0
   10.1537  -17.0822   28.9510 O   0  0  0  0  0  0  0  0  0  0  0  0
  1  2  1  0
  2  3  2  0
  4  2  1  0
  4  5  1  0
  5  7  1  0
  5  6  1  6
  7  8  2  0
  9 10  1  0
  9  7  1  0
 10 11  1  1
 12 13  2  0
 12 11  1  0
 14 13  1  0
 15 14  2  0
 16 15  1  0
 16 17  2  0
 17 12  1  0
 18 10  1  0
 19 18  2  0
 20 18  1  0
 21 22  1  6
 21 20  1  0
 23 22  1  0
 24 23  2  0
 25 26  1  0
 25 24  1  0
 26 27  2  0
 27 23  1  0
 28 29  1  0
 28 21  1  0
 30 28  2  0
M  END
$$$$
