NFH.pdb
     RDKit          3D

 30 31  0  0  1  0  0  0  0  0999 V2000
   13.1181  -18.0998   18.8941 N   0  0  0  0  0  0  0  0  0  0  0  0
   11.9647  -17.2585   18.8441 C   0  0  0  0  0  0  0  0  0  0  0  0
   11.1818  -17.3307   17.8738 O   0  0  0  0  0  0  0  0  0  0  0  0
   11.7482  -16.3156   19.9773 C   0  0  0  0  0  0  0  0  0  0  0  0
   10.5652  -16.7918   20.7984 C   0  0  2  0  0  0  0  0  0  0  0  0
    9.3784  -16.7432   19.9870 N   0  0  0  0  0  0  0  0  0  0  0  0
   10.3595  -15.9432   21.9981 C   0  0  0  0  0  0  0  0  0  0  0  0
   11.3365  -15.5251   22.6857 O   0  0  0  0  0  0  0  0  0  0  0  0
    9.0514  -15.5579   22.4341 N   0  0  0  0  0  0  0  0  0  0  0  0
    8.8058  -14.9070   23.6896 C   0  0  1  0  0  0  0  0  0  0  0  0
    7.3842  -14.3932   23.7157 C   0  0  0  0  0  0  0  0  0  0  0  0
    7.1051  -13.6301   24.9558 C   0  0  0  0  0  0  0  0  0  0  0  0
    6.2852  -14.0987   25.9516 C   0  0  0  0  0  0  0  0  0  0  0  0
    6.0471  -13.3689   27.0862 C   0  0  0  0  0  0  0  0  0  0  0  0
    6.6529  -12.1267   27.2254 C   0  0  0  0  0  0  0  0  0  0  0  0
    7.4741  -11.6337   26.2511 C   0  0  0  0  0  0  0  0  0  0  0  0
    7.6900  -12.3925   25.1275 C   0  0  0  0  0  0  0  0  0  0  0  0
    8.9439  -15.8604   24.8413 C   0  0  0  0  0  0  0  0  0  0  0  0
    8.6807  -17.0660   24.6136 O   0  0  0  0  0  0  0  0  0  0  0  0
    9.3583  -15.3386   26.0957 N   0  0  0  0  0  0  0  0  0  0  0  0
   10.1195  -16.2593   26.9633 C   0  0  1  0  0  0  0  0  0  0  0  0
   11.4007  -16.4878   26.2749 C   0  0  0  0  0  0  0  0  0  0  0  0
   11.5690  -17.7419   25.5470 C   0  0  0  0  0  0  0  0  0  0  0  0
   10.5029  -18.6478   25.4513 C   0  0  0  0  0  0  0  0  0  0  0  0
   10.9304  -19.6948   24.7397 N   0  0  0  0  0  0  0  0  0  0  0  0
   12.2107  -19.5050   24.3770 C   0  0  0  0  0  0  0  0  0  0  0  0
   12.5615  -18.3123   24.8843 N   0  0  0  0  0  0  0  0  0  0  0  0
   10.1505  -15.7722   28.3340 C   0  0  0  0  0  0  0  0  0  0  0  0
    9.6695  -14.5205   28.6538 O   0  0  0  0  0  0  0  0  0  0  0  0
   10.6098  -16.4680   29.2581 O   0  0  0  0  0  0  0  0  0  0  0  0
  1  2  1  0
  2  3  2  0
  4  2  1  0
  4  5  1  0
  5  7  1  0
  5  6  1  6
  7  8  2  0
  9 10  1  0
  9  7  1  0
 10 11  1  6
 12 13  2  0
 12 11  1  0
 14 13  1  0
 15 14  2  0
 16 15  1  0
 16 17  2  0
 17 12  1  0
 18 10  1  0
 19 18  2  0
 20 18  1  0
 21 22  1  6
 21 20  1  0
 23 22  1  0
 24 23  2  0
 25 26  1  0
 25 24  1  0
 26 27  2  0
 27 23  1  0
 28 29  1  0
 28 21  1  0
 30 28  2  0
M  END
$$$$
