NFH.pdb
     RDKit          3D

 30 31  0  0  1  0  0  0  0  0999 V2000
   10.1613  -19.2349   18.8947 N   0  0  0  0  0  0  0  0  0  0  0  0
   11.1891  -18.2505   18.7717 C   0  0  0  0  0  0  0  0  0  0  0  0
   12.1037  -18.4050   17.9355 O   0  0  0  0  0  0  0  0  0  0  0  0
   11.1175  -17.0617   19.6672 C   0  0  0  0  0  0  0  0  0  0  0  0
    9.8385  -17.1302   20.4795 C   0  0  2  0  0  0  0  0  0  0  0  0
    8.7299  -16.7493   19.6457 N   0  0  0  0  0  0  0  0  0  0  0  0
    9.8898  -16.2217   21.6516 C   0  0  0  0  0  0  0  0  0  0  0  0
   10.9489  -15.6003   21.9586 O   0  0  0  0  0  0  0  0  0  0  0  0
    8.7485  -16.0051   22.4884 N   0  0  0  0  0  0  0  0  0  0  0  0
    8.7891  -15.1928   23.6711 C   0  0  1  0  0  0  0  0  0  0  0  0
    7.4039  -14.6590   23.9576 C   0  0  0  0  0  0  0  0  0  0  0  0
    7.4019  -13.7571   25.1343 C   0  0  0  0  0  0  0  0  0  0  0  0
    8.0670  -12.5568   25.1556 C   0  0  0  0  0  0  0  0  0  0  0  0
    8.0457  -11.7455   26.2591 C   0  0  0  0  0  0  0  0  0  0  0  0
    7.3324  -12.1535   27.3791 C   0  0  0  0  0  0  0  0  0  0  0  0
    6.6604  -13.3430   27.3878 C   0  0  0  0  0  0  0  0  0  0  0  0
    6.7038  -14.1305   26.2641 C   0  0  0  0  0  0  0  0  0  0  0  0
    9.2042  -15.9901   24.8737 C   0  0  0  0  0  0  0  0  0  0  0  0
    8.5111  -16.9984   25.1520 O   0  0  0  0  0  0  0  0  0  0  0  0
   10.3404  -15.5537   25.6060 N   0  0  0  0  0  0  0  0  0  0  0  0
   10.7154  -16.3746   26.7744 C   0  0  1  0  0  0  0  0  0  0  0  0
   12.1858  -16.4471   26.7551 C   0  0  0  0  0  0  0  0  0  0  0  0
   12.8153  -17.2370   25.7012 C   0  0  0  0  0  0  0  0  0  0  0  0
   12.0504  -18.1363   24.9445 C   0  0  0  0  0  0  0  0  0  0  0  0
   12.8706  -18.7163   24.0636 N   0  0  0  0  0  0  0  0  0  0  0  0
   14.1162  -18.2354   24.2179 C   0  0  0  0  0  0  0  0  0  0  0  0
   14.0422  -17.3427   25.2183 N   0  0  0  0  0  0  0  0  0  0  0  0
   10.0650  -15.8859   27.9807 C   0  0  0  0  0  0  0  0  0  0  0  0
   10.2142  -16.5424   29.1836 O   0  0  0  0  0  0  0  0  0  0  0  0
    9.3565  -14.8627   27.9650 O   0  0  0  0  0  0  0  0  0  0  0  0
  1  2  1  0
  2  3  2  0
  4  2  1  0
  4  5  1  0
  5  7  1  0
  5  6  1  6
  7  8  2  0
  9 10  1  0
  9  7  1  0
 10 11  1  1
 12 13  2  0
 12 11  1  0
 14 13  1  0
 15 14  2  0
 16 15  1  0
 16 17  2  0
 17 12  1  0
 18 10  1  0
 19 18  2  0
 20 18  1  0
 21 22  1  1
 21 20  1  0
 23 22  1  0
 24 23  2  0
 25 26  1  0
 25 24  1  0
 26 27  2  0
 27 23  1  0
 28 29  1  0
 28 21  1  0
 30 28  2  0
M  END
$$$$
