LTQ.pdb
     RDKit          3D

 25 24  0  0  1  0  0  0  0  0999 V2000
    9.4566  -13.1602   19.6307 C   0  0  0  0  0  0  0  0  0  0  0  0
    7.9687  -13.3569   19.8879 C   0  0  2  0  0  0  0  0  0  0  0  0
    7.2746  -12.0615   20.2000 C   0  0  0  0  0  0  0  0  0  0  0  0
    7.8454  -14.3168   21.0402 C   0  0  0  0  0  0  0  0  0  0  0  0
    8.4718  -15.6488   20.6527 C   0  0  2  0  0  0  0  0  0  0  0  0
    7.6860  -16.3225   19.6413 N   0  0  0  0  0  0  0  0  0  0  0  0
    8.5941  -16.4499   21.8858 C   0  0  0  0  0  0  0  0  0  0  0  0
    7.5319  -16.8450   22.4296 O   0  0  0  0  0  0  0  0  0  0  0  0
    9.9088  -19.6872   22.3745 C   0  0  0  0  0  0  0  0  0  0  0  0
   10.6855  -18.8725   23.3881 C   0  0  1  0  0  0  0  0  0  0  0  0
   11.7765  -18.3550   22.6392 O   0  0  0  0  0  0  0  0  0  0  0  0
    9.8406  -17.6237   23.6938 C   0  0  2  0  0  0  0  0  0  0  0  0
    9.8413  -16.7872   22.4737 N   0  0  0  0  0  0  0  0  0  0  0  0
   10.5050  -16.8922   24.7835 C   0  0  0  0  0  0  0  0  0  0  0  0
   11.5237  -16.1551   24.4962 O   0  0  0  0  0  0  0  0  0  0  0  0
    8.5681  -13.0652   28.7941 N   0  0  0  0  0  0  0  0  0  0  0  0
    8.7121  -13.2077   27.3954 C   0  0  0  0  0  0  0  0  0  0  0  0
    8.1356  -12.4087   26.6271 O   0  0  0  0  0  0  0  0  0  0  0  0
    9.5329  -14.2864   26.8496 C   0  0  0  0  0  0  0  0  0  0  0  0
   10.1601  -15.1587   27.8918 C   0  0  0  0  0  0  0  0  0  0  0  0
   10.9911  -16.2121   27.1596 C   0  0  2  0  0  0  0  0  0  0  0  0
   10.1684  -16.8817   26.1492 N   0  0  0  0  0  0  0  0  0  0  0  0
   11.4164  -17.2442   28.1322 C   0  0  0  0  0  0  0  0  0  0  0  0
   10.9430  -18.3950   28.0565 O   0  0  0  0  0  0  0  0  0  0  0  0
   12.3390  -16.9746   29.1436 O   0  0  0  0  0  0  0  0  0  0  0  0
  2  1  1  1
  2  3  1  0
  4  5  1  0
  4  2  1  0
  5  7  1  0
  5  6  1  6
  7  8  2  0
 10  9  1  6
 10 11  1  0
 10 12  1  0
 12 13  1  6
 13  7  1  0
 14 15  2  0
 14 12  1  0
 16 17  1  0
 17 18  2  0
 17 19  1  0
 19 20  1  0
 21 20  1  1
 21 22  1  0
 21 23  1  0
 22 14  1  0
 23 25  1  0
 24 23  2  0
M  END
$$$$
