LTQ.pdb
     RDKit          3D

 25 24  0  0  1  0  0  0  0  0999 V2000
    9.5237  -12.0476   19.8842 C   0  0  0  0  0  0  0  0  0  0  0  0
    8.3866  -13.0030   19.5482 C   0  0  2  0  0  0  0  0  0  0  0  0
    7.0878  -12.2795   19.3323 C   0  0  0  0  0  0  0  0  0  0  0  0
    8.2720  -13.9698   20.6957 C   0  0  0  0  0  0  0  0  0  0  0  0
    9.5962  -14.6994   20.8712 C   0  0  2  0  0  0  0  0  0  0  0  0
   10.0395  -15.2872   19.6252 N   0  0  0  0  0  0  0  0  0  0  0  0
    9.4006  -15.7135   21.9250 C   0  0  0  0  0  0  0  0  0  0  0  0
    8.5145  -15.4906   22.7884 O   0  0  0  0  0  0  0  0  0  0  0  0
    9.3761  -19.6486   21.6725 C   0  0  0  0  0  0  0  0  0  0  0  0
   10.3638  -19.2165   22.7366 C   0  0  1  0  0  0  0  0  0  0  0  0
   11.5679  -19.0055   22.0124 O   0  0  0  0  0  0  0  0  0  0  0  0
    9.9563  -17.7976   23.1693 C   0  0  2  0  0  0  0  0  0  0  0  0
   10.1593  -16.9107   22.0028 N   0  0  0  0  0  0  0  0  0  0  0  0
   10.8602  -17.3860   24.2544 C   0  0  0  0  0  0  0  0  0  0  0  0
   11.9619  -16.7917   23.9434 O   0  0  0  0  0  0  0  0  0  0  0  0
    8.9400  -13.4180   27.1609 N   0  0  0  0  0  0  0  0  0  0  0  0
    9.6098  -14.3070   28.0320 C   0  0  0  0  0  0  0  0  0  0  0  0
    9.8557  -13.9584   29.2063 O   0  0  0  0  0  0  0  0  0  0  0  0
   10.0133  -15.6298   27.5603 C   0  0  0  0  0  0  0  0  0  0  0  0
   11.4185  -15.6891   27.0482 C   0  0  0  0  0  0  0  0  0  0  0  0
   11.6837  -17.1326   26.6213 C   0  0  2  0  0  0  0  0  0  0  0  0
   10.6814  -17.5540   25.6394 N   0  0  0  0  0  0  0  0  0  0  0  0
   11.5372  -18.0135   27.8023 C   0  0  0  0  0  0  0  0  0  0  0  0
   10.6031  -18.8381   27.8442 O   0  0  0  0  0  0  0  0  0  0  0  0
   12.4160  -17.9553   28.8844 O   0  0  0  0  0  0  0  0  0  0  0  0
  2  1  1  1
  2  3  1  0
  4  5  1  0
  4  2  1  0
  5  7  1  0
  5  6  1  6
  7  8  2  0
 10  9  1  6
 10 11  1  0
 10 12  1  0
 12 13  1  6
 13  7  1  0
 14 15  2  0
 14 12  1  0
 16 17  1  0
 17 18  2  0
 17 19  1  0
 19 20  1  0
 21 20  1  1
 21 22  1  0
 21 23  1  0
 22 14  1  0
 23 25  1  0
 24 23  2  0
M  END
$$$$
