LTQ.pdb
     RDKit          3D

 25 24  0  0  1  0  0  0  0  0999 V2000
    7.4130  -12.2095   26.6629 C   0  0  0  0  0  0  0  0  0  0  0  0
    7.3044  -13.2828   25.5882 C   0  0  2  0  0  0  0  0  0  0  0  0
    6.8006  -12.7278   24.2863 C   0  0  0  0  0  0  0  0  0  0  0  0
    6.3685  -14.3374   26.1140 C   0  0  0  0  0  0  0  0  0  0  0  0
    6.2083  -15.4321   25.0687 C   0  0  2  0  0  0  0  0  0  0  0  0
    5.2228  -16.4089   25.4801 N   0  0  0  0  0  0  0  0  0  0  0  0
    7.5379  -16.0378   24.8623 C   0  0  0  0  0  0  0  0  0  0  0  0
    8.0863  -16.5864   25.8515 O   0  0  0  0  0  0  0  0  0  0  0  0
    8.4150  -17.8505   21.5190 C   0  0  0  0  0  0  0  0  0  0  0  0
    9.6504  -17.1058   21.9810 C   0  0  1  0  0  0  0  0  0  0  0  0
    9.5173  -15.8262   21.3777 O   0  0  0  0  0  0  0  0  0  0  0  0
    9.4575  -16.8138   23.4791 C   0  0  2  0  0  0  0  0  0  0  0  0
    8.2122  -16.0268   23.6132 N   0  0  0  0  0  0  0  0  0  0  0  0
   10.5973  -15.9974   23.9242 C   0  0  0  0  0  0  0  0  0  0  0  0
   10.7572  -14.8294   23.4010 O   0  0  0  0  0  0  0  0  0  0  0  0
   10.6737  -15.1837   29.1635 N   0  0  0  0  0  0  0  0  0  0  0  0
   11.0666  -16.0541   28.1216 C   0  0  0  0  0  0  0  0  0  0  0  0
   10.2683  -16.9177   27.6995 O   0  0  0  0  0  0  0  0  0  0  0  0
   12.4025  -15.9443   27.5399 C   0  0  0  0  0  0  0  0  0  0  0  0
   12.5465  -14.8242   26.5575 C   0  0  0  0  0  0  0  0  0  0  0  0
   12.7151  -15.4541   25.1750 C   0  0  2  0  0  0  0  0  0  0  0  0
   11.5741  -16.3250   24.8818 N   0  0  0  0  0  0  0  0  0  0  0  0
   13.9256  -16.3066   25.1841 C   0  0  0  0  0  0  0  0  0  0  0  0
   15.0445  -15.7866   25.3630 O   0  0  0  0  0  0  0  0  0  0  0  0
   13.8613  -17.6878   24.9975 O   0  0  0  0  0  0  0  0  0  0  0  0
  2  1  1  1
  2  3  1  0
  4  5  1  0
  4  2  1  0
  5  7  1  0
  5  6  1  1
  7  8  2  0
 10  9  1  6
 10 11  1  0
 10 12  1  0
 12 13  1  6
 13  7  1  0
 14 15  2  0
 14 12  1  0
 16 17  1  0
 17 18  2  0
 17 19  1  0
 19 20  1  0
 21 20  1  1
 21 22  1  0
 21 23  1  0
 22 14  1  0
 23 25  1  0
 24 23  2  0
M  END
$$$$
