LTQ.pdb
     RDKit          3D

 25 24  0  0  1  0  0  0  0  0999 V2000
    9.7391  -12.6245   19.4757 C   0  0  0  0  0  0  0  0  0  0  0  0
    8.3693  -13.2691   19.3123 C   0  0  2  0  0  0  0  0  0  0  0  0
    7.2661  -12.2497   19.2863 C   0  0  0  0  0  0  0  0  0  0  0  0
    8.1897  -14.2172   20.4671 C   0  0  0  0  0  0  0  0  0  0  0  0
    9.3345  -15.2202   20.4755 C   0  0  2  0  0  0  0  0  0  0  0  0
    9.2719  -16.0961   19.3251 N   0  0  0  0  0  0  0  0  0  0  0  0
    9.2535  -15.9658   21.7462 C   0  0  0  0  0  0  0  0  0  0  0  0
    8.4132  -15.5759   22.5960 O   0  0  0  0  0  0  0  0  0  0  0  0
    9.5362  -19.9028   22.1209 C   0  0  0  0  0  0  0  0  0  0  0  0
   10.4080  -19.2200   23.1543 C   0  0  1  0  0  0  0  0  0  0  0  0
   11.6394  -19.0172   22.4750 O   0  0  0  0  0  0  0  0  0  0  0  0
    9.8578  -17.7936   23.3255 C   0  0  2  0  0  0  0  0  0  0  0  0
   10.0718  -17.0868   22.0437 N   0  0  0  0  0  0  0  0  0  0  0  0
   10.6455  -17.1358   24.3793 C   0  0  0  0  0  0  0  0  0  0  0  0
   11.7311  -16.5255   24.0437 O   0  0  0  0  0  0  0  0  0  0  0  0
    9.7927  -12.7794   28.0988 N   0  0  0  0  0  0  0  0  0  0  0  0
    8.9282  -13.7454   27.5356 C   0  0  0  0  0  0  0  0  0  0  0  0
    7.7138  -13.4864   27.3970 O   0  0  0  0  0  0  0  0  0  0  0  0
    9.4534  -15.0431   27.1167 C   0  0  0  0  0  0  0  0  0  0  0  0
   10.9480  -15.1226   27.1198 C   0  0  0  0  0  0  0  0  0  0  0  0
   11.3256  -16.5525   26.7335 C   0  0  2  0  0  0  0  0  0  0  0  0
   10.3666  -17.0744   25.7567 N   0  0  0  0  0  0  0  0  0  0  0  0
   11.2361  -17.4108   27.9366 C   0  0  0  0  0  0  0  0  0  0  0  0
   11.8724  -17.1017   28.9631 O   0  0  0  0  0  0  0  0  0  0  0  0
   10.4566  -18.5676   27.9659 O   0  0  0  0  0  0  0  0  0  0  0  0
  2  1  1  1
  2  3  1  0
  4  5  1  0
  4  2  1  0
  5  7  1  0
  5  6  1  6
  7  8  2  0
 10  9  1  6
 10 11  1  0
 10 12  1  0
 12 13  1  6
 13  7  1  0
 14 15  2  0
 14 12  1  0
 16 17  1  0
 17 18  2  0
 17 19  1  0
 19 20  1  0
 21 20  1  1
 21 22  1  0
 21 23  1  0
 22 14  1  0
 23 25  1  0
 24 23  2  0
M  END
$$$$
