LTQ.pdb
     RDKit          3D

 25 24  0  0  1  0  0  0  0  0999 V2000
    5.3341  -12.2943   25.7192 C   0  0  0  0  0  0  0  0  0  0  0  0
    6.1545  -13.0298   26.7702 C   0  0  2  0  0  0  0  0  0  0  0  0
    6.8861  -12.0828   27.6785 C   0  0  0  0  0  0  0  0  0  0  0  0
    7.1234  -13.9131   26.0318 C   0  0  0  0  0  0  0  0  0  0  0  0
    6.3513  -14.9965   25.2922 C   0  0  2  0  0  0  0  0  0  0  0  0
    5.7393  -15.9270   26.2163 N   0  0  0  0  0  0  0  0  0  0  0  0
    7.2993  -15.6633   24.3790 C   0  0  0  0  0  0  0  0  0  0  0  0
    7.8584  -16.7126   24.7870 O   0  0  0  0  0  0  0  0  0  0  0  0
    9.5519  -16.0707   20.0137 C   0  0  0  0  0  0  0  0  0  0  0  0
    8.5041  -15.3452   20.8322 C   0  0  1  0  0  0  0  0  0  0  0  0
    7.2748  -15.8461   20.3255 O   0  0  0  0  0  0  0  0  0  0  0  0
    8.5676  -15.9315   22.2531 C   0  0  2  0  0  0  0  0  0  0  0  0
    7.6009  -15.1767   23.0801 N   0  0  0  0  0  0  0  0  0  0  0  0
    9.9269  -15.7050   22.7680 C   0  0  0  0  0  0  0  0  0  0  0  0
   10.1436  -14.6575   23.4886 O   0  0  0  0  0  0  0  0  0  0  0  0
   11.4089  -16.9571   27.3571 N   0  0  0  0  0  0  0  0  0  0  0  0
   11.6503  -17.9995   26.4336 C   0  0  0  0  0  0  0  0  0  0  0  0
   11.7666  -19.1751   26.8406 O   0  0  0  0  0  0  0  0  0  0  0  0
   11.7635  -17.7030   25.0073 C   0  0  0  0  0  0  0  0  0  0  0  0
   12.2608  -16.3225   24.7120 C   0  0  0  0  0  0  0  0  0  0  0  0
   12.3612  -16.1935   23.1922 C   0  0  2  0  0  0  0  0  0  0  0  0
   11.0679  -16.5056   22.5791 N   0  0  0  0  0  0  0  0  0  0  0  0
   13.3348  -17.1908   22.6925 C   0  0  0  0  0  0  0  0  0  0  0  0
   12.9378  -18.1424   21.9916 O   0  0  0  0  0  0  0  0  0  0  0  0
   14.6975  -17.1054   22.9799 O   0  0  0  0  0  0  0  0  0  0  0  0
  2  1  1  6
  2  3  1  0
  4  5  1  0
  4  2  1  0
  5  7  1  0
  5  6  1  1
  7  8  2  0
 10  9  1  6
 10 11  1  0
 10 12  1  0
 12 13  1  1
 13  7  1  0
 14 15  2  0
 14 12  1  0
 16 17  1  0
 17 18  2  0
 17 19  1  0
 19 20  1  0
 21 20  1  1
 21 22  1  0
 21 23  1  0
 22 14  1  0
 23 25  1  0
 24 23  2  0
M  END
$$$$
