LTQ.pdb
     RDKit          3D

 25 24  0  0  1  0  0  0  0  0999 V2000
    7.3615  -17.9044   16.8425 C   0  0  0  0  0  0  0  0  0  0  0  0
    8.0055  -16.5552   16.5535 C   0  0  2  0  0  0  0  0  0  0  0  0
    9.0157  -16.6388   15.4447 C   0  0  0  0  0  0  0  0  0  0  0  0
    8.6553  -16.0962   17.8308 C   0  0  0  0  0  0  0  0  0  0  0  0
    8.1041  -14.7294   18.2112 C   0  0  2  0  0  0  0  0  0  0  0  0
    8.4067  -13.7420   17.1973 N   0  0  0  0  0  0  0  0  0  0  0  0
    8.6810  -14.3743   19.5219 C   0  0  0  0  0  0  0  0  0  0  0  0
    9.1753  -13.2253   19.6470 O   0  0  0  0  0  0  0  0  0  0  0  0
    7.6738  -12.8034   21.2987 C   0  0  0  0  0  0  0  0  0  0  0  0
    7.8851  -13.8181   22.4033 C   0  0  1  0  0  0  0  0  0  0  0  0
    6.7533  -14.6707   22.2982 O   0  0  0  0  0  0  0  0  0  0  0  0
    9.0507  -14.7191   21.9601 C   0  0  2  0  0  0  0  0  0  0  0  0
    8.7007  -15.2621   20.6294 N   0  0  0  0  0  0  0  0  0  0  0  0
    9.1499  -15.8255   22.9244 C   0  0  0  0  0  0  0  0  0  0  0  0
    8.2268  -16.7262   22.9224 O   0  0  0  0  0  0  0  0  0  0  0  0
   14.5474  -18.6479   23.8478 N   0  0  0  0  0  0  0  0  0  0  0  0
   13.6307  -19.4582   24.5555 C   0  0  0  0  0  0  0  0  0  0  0  0
   14.0181  -20.5268   25.0742 O   0  0  0  0  0  0  0  0  0  0  0  0
   12.2340  -19.0471   24.6800 C   0  0  0  0  0  0  0  0  0  0  0  0
   11.9869  -17.6175   24.3117 C   0  0  0  0  0  0  0  0  0  0  0  0
   10.4784  -17.3844   24.3907 C   0  0  2  0  0  0  0  0  0  0  0  0
   10.1535  -16.0485   23.8845 N   0  0  0  0  0  0  0  0  0  0  0  0
   10.0632  -17.4272   25.8113 C   0  0  0  0  0  0  0  0  0  0  0  0
   10.1525  -18.4955   26.4477 O   0  0  0  0  0  0  0  0  0  0  0  0
    9.5694  -16.3029   26.4737 O   0  0  0  0  0  0  0  0  0  0  0  0
  2  1  1  1
  2  3  1  0
  4  5  1  0
  4  2  1  0
  5  7  1  0
  5  6  1  6
  7  8  2  0
 10  9  1  6
 10 11  1  0
 10 12  1  0
 12 13  1  6
 13  7  1  0
 14 15  2  0
 14 12  1  0
 16 17  1  0
 17 18  2  0
 17 19  1  0
 19 20  1  0
 21 20  1  1
 21 22  1  0
 21 23  1  0
 22 14  1  0
 23 25  1  0
 24 23  2  0
M  END
$$$$
