LTQ.pdb
     RDKit          3D

 25 24  0  0  1  0  0  0  0  0999 V2000
    8.9294  -18.0744   13.2769 C   0  0  0  0  0  0  0  0  0  0  0  0
    8.0741  -16.8386   13.5215 C   0  0  2  0  0  0  0  0  0  0  0  0
    7.8782  -16.0319   12.2693 C   0  0  0  0  0  0  0  0  0  0  0  0
    8.7726  -16.0227   14.5754 C   0  0  0  0  0  0  0  0  0  0  0  0
    8.8519  -16.8294   15.8636 C   0  0  2  0  0  0  0  0  0  0  0  0
    7.6373  -17.5847   16.0843 N   0  0  0  0  0  0  0  0  0  0  0  0
    9.1213  -15.8785   16.9593 C   0  0  0  0  0  0  0  0  0  0  0  0
   10.2148  -15.2590   16.9352 O   0  0  0  0  0  0  0  0  0  0  0  0
    7.8938  -12.9540   20.6121 C   0  0  0  0  0  0  0  0  0  0  0  0
    7.4455  -13.8514   19.4772 C   0  0  1  0  0  0  0  0  0  0  0  0
    7.3653  -12.9719   18.3641 O   0  0  0  0  0  0  0  0  0  0  0  0
    8.6402  -14.7562   19.1294 C   0  0  2  0  0  0  0  0  0  0  0  0
    8.2114  -15.6384   18.0221 N   0  0  0  0  0  0  0  0  0  0  0  0
    8.9383  -15.5754   20.3143 C   0  0  0  0  0  0  0  0  0  0  0  0
    8.2832  -16.6736   20.4819 O   0  0  0  0  0  0  0  0  0  0  0  0
   13.8431  -18.9306   20.5466 N   0  0  0  0  0  0  0  0  0  0  0  0
   13.3965  -17.9073   21.4132 C   0  0  0  0  0  0  0  0  0  0  0  0
   14.2247  -17.2604   22.0890 O   0  0  0  0  0  0  0  0  0  0  0  0
   11.9704  -17.6070   21.5183 C   0  0  0  0  0  0  0  0  0  0  0  0
   11.6475  -16.5346   22.5113 C   0  0  0  0  0  0  0  0  0  0  0  0
   10.1459  -16.2657   22.4143 C   0  0  2  0  0  0  0  0  0  0  0  0
    9.8784  -15.3190   21.3287 N   0  0  0  0  0  0  0  0  0  0  0  0
    9.6935  -15.6288   23.6720 C   0  0  0  0  0  0  0  0  0  0  0  0
    9.3879  -14.4202   23.6759 O   0  0  0  0  0  0  0  0  0  0  0  0
    9.5948  -16.3390   24.8690 O   0  0  0  0  0  0  0  0  0  0  0  0
  2  1  1  6
  2  3  1  0
  4  5  1  0
  4  2  1  0
  5  7  1  0
  5  6  1  1
  7  8  2  0
 10  9  1  1
 10 11  1  0
 10 12  1  0
 12 13  1  6
 13  7  1  0
 14 15  2  0
 14 12  1  0
 16 17  1  0
 17 18  2  0
 17 19  1  0
 19 20  1  0
 21 20  1  1
 21 22  1  0
 21 23  1  0
 22 14  1  0
 23 25  1  0
 24 23  2  0
M  END
$$$$
