LTQ.pdb
     RDKit          3D

 25 24  0  0  1  0  0  0  0  0999 V2000
    7.5924  -11.2459   25.2907 C   0  0  0  0  0  0  0  0  0  0  0  0
    6.5249  -12.2241   25.7622 C   0  0  2  0  0  0  0  0  0  0  0  0
    6.1622  -12.0106   27.2044 C   0  0  0  0  0  0  0  0  0  0  0  0
    7.0747  -13.6089   25.5519 C   0  0  0  0  0  0  0  0  0  0  0  0
    7.5231  -13.7563   24.1049 C   0  0  2  0  0  0  0  0  0  0  0  0
    6.4015  -13.6544   23.1960 N   0  0  0  0  0  0  0  0  0  0  0  0
    8.2138  -15.0552   23.9911 C   0  0  0  0  0  0  0  0  0  0  0  0
    7.8687  -15.9681   24.7834 O   0  0  0  0  0  0  0  0  0  0  0  0
   10.8657  -18.2943   21.4713 C   0  0  0  0  0  0  0  0  0  0  0  0
   10.3440  -16.8743   21.5467 C   0  0  1  0  0  0  0  0  0  0  0  0
    9.1628  -16.9073   20.7578 O   0  0  0  0  0  0  0  0  0  0  0  0
    9.8109  -16.6735   22.9758 C   0  0  2  0  0  0  0  0  0  0  0  0
    9.2351  -15.3124   23.0393 N   0  0  0  0  0  0  0  0  0  0  0  0
   10.9566  -16.7585   23.8946 C   0  0  0  0  0  0  0  0  0  0  0  0
   11.8295  -15.8092   23.8768 O   0  0  0  0  0  0  0  0  0  0  0  0
   11.5353  -16.9595   29.9700 N   0  0  0  0  0  0  0  0  0  0  0  0
   11.1343  -18.0497   29.1648 C   0  0  0  0  0  0  0  0  0  0  0  0
   10.8577  -19.1460   29.6967 O   0  0  0  0  0  0  0  0  0  0  0  0
   11.0436  -17.8951   27.7146 C   0  0  0  0  0  0  0  0  0  0  0  0
   12.1549  -18.5585   26.9628 C   0  0  0  0  0  0  0  0  0  0  0  0
   12.4134  -17.7243   25.7084 C   0  0  2  0  0  0  0  0  0  0  0  0
   11.2421  -17.7699   24.8296 N   0  0  0  0  0  0  0  0  0  0  0  0
   13.5439  -18.3227   24.9626 C   0  0  0  0  0  0  0  0  0  0  0  0
   13.3277  -19.2414   24.1482 O   0  0  0  0  0  0  0  0  0  0  0  0
   14.8592  -17.8919   25.1388 O   0  0  0  0  0  0  0  0  0  0  0  0
  2  1  1  1
  2  3  1  0
  4  5  1  0
  4  2  1  0
  5  7  1  0
  5  6  1  6
  7  8  2  0
 10  9  1  1
 10 11  1  0
 10 12  1  0
 12 13  1  6
 13  7  1  0
 14 15  2  0
 14 12  1  0
 16 17  1  0
 17 18  2  0
 17 19  1  0
 19 20  1  0
 21 20  1  1
 21 22  1  0
 21 23  1  0
 22 14  1  0
 23 25  1  0
 24 23  2  0
M  END
$$$$
