LTQ.pdb
     RDKit          3D

 25 24  0  0  1  0  0  0  0  0999 V2000
   10.0085  -13.7307   18.9397 C   0  0  0  0  0  0  0  0  0  0  0  0
    8.4977  -13.6337   18.7763 C   0  0  2  0  0  0  0  0  0  0  0  0
    8.0265  -12.2080   18.7271 C   0  0  0  0  0  0  0  0  0  0  0  0
    7.8825  -14.3567   19.9439 C   0  0  0  0  0  0  0  0  0  0  0  0
    8.4223  -15.7788   19.9943 C   0  0  2  0  0  0  0  0  0  0  0  0
    7.6599  -16.6592   19.1352 N   0  0  0  0  0  0  0  0  0  0  0  0
    8.3860  -16.2108   21.4047 C   0  0  0  0  0  0  0  0  0  0  0  0
    7.2582  -16.3299   21.9469 O   0  0  0  0  0  0  0  0  0  0  0  0
    9.8236  -18.5066   25.2933 C   0  0  0  0  0  0  0  0  0  0  0  0
   10.2091  -18.0582   23.8988 C   0  0  1  0  0  0  0  0  0  0  0  0
    9.6062  -19.0288   23.0543 O   0  0  0  0  0  0  0  0  0  0  0  0
    9.4023  -16.7817   23.6050 C   0  0  2  0  0  0  0  0  0  0  0  0
    9.5530  -16.4929   22.1621 N   0  0  0  0  0  0  0  0  0  0  0  0
   10.0016  -15.6869   24.3837 C   0  0  0  0  0  0  0  0  0  0  0  0
   11.0974  -15.9172   25.0237 O   0  0  0  0  0  0  0  0  0  0  0  0
    5.9985  -10.7647   27.4460 N   0  0  0  0  0  0  0  0  0  0  0  0
    6.2363  -12.1579   27.4438 C   0  0  0  0  0  0  0  0  0  0  0  0
    5.2866  -12.9504   27.6204 O   0  0  0  0  0  0  0  0  0  0  0  0
    7.5890  -12.6698   27.2357 C   0  0  0  0  0  0  0  0  0  0  0  0
    7.7844  -13.3499   25.9168 C   0  0  0  0  0  0  0  0  0  0  0  0
    9.2512  -13.7727   25.8389 C   0  0  2  0  0  0  0  0  0  0  0  0
    9.5287  -14.3703   24.5304 N   0  0  0  0  0  0  0  0  0  0  0  0
    9.5012  -14.8165   26.8588 C   0  0  0  0  0  0  0  0  0  0  0  0
   10.2201  -14.5566   27.8436 O   0  0  0  0  0  0  0  0  0  0  0  0
    8.9557  -16.0968   26.7586 O   0  0  0  0  0  0  0  0  0  0  0  0
  2  1  1  1
  2  3  1  0
  4  5  1  0
  4  2  1  0
  5  7  1  0
  5  6  1  6
  7  8  2  0
 10  9  1  1
 10 11  1  0
 10 12  1  0
 12 13  1  6
 13  7  1  0
 14 15  2  0
 14 12  1  0
 16 17  1  0
 17 18  2  0
 17 19  1  0
 19 20  1  0
 21 20  1  6
 21 22  1  0
 21 23  1  0
 22 14  1  0
 23 25  1  0
 24 23  2  0
M  END
$$$$
