LTQ.pdb
     RDKit          3D

 25 24  0  0  1  0  0  0  0  0999 V2000
    9.5970  -12.4680   19.4411 C   0  0  0  0  0  0  0  0  0  0  0  0
    8.1931  -13.0112   19.2113 C   0  0  2  0  0  0  0  0  0  0  0  0
    7.1390  -11.9673   19.4486 C   0  0  0  0  0  0  0  0  0  0  0  0
    8.0123  -14.1722   20.1514 C   0  0  0  0  0  0  0  0  0  0  0  0
    9.1005  -15.2037   19.8898 C   0  0  2  0  0  0  0  0  0  0  0  0
    8.8829  -15.8876   18.6331 N   0  0  0  0  0  0  0  0  0  0  0  0
    9.1054  -16.1344   21.0348 C   0  0  0  0  0  0  0  0  0  0  0  0
    8.0272  -16.2892   21.6622 O   0  0  0  0  0  0  0  0  0  0  0  0
   12.3819  -18.6707   22.1580 C   0  0  0  0  0  0  0  0  0  0  0  0
   10.9204  -19.0672   22.1882 C   0  0  1  0  0  0  0  0  0  0  0  0
   10.8170  -19.8843   23.3460 O   0  0  0  0  0  0  0  0  0  0  0  0
   10.1271  -17.8061   22.5717 C   0  0  2  0  0  0  0  0  0  0  0  0
   10.2586  -16.8503   21.4504 N   0  0  0  0  0  0  0  0  0  0  0  0
   10.7542  -17.2335   23.7729 C   0  0  0  0  0  0  0  0  0  0  0  0
   11.8001  -16.4933   23.6257 O   0  0  0  0  0  0  0  0  0  0  0  0
    9.9398  -13.5633   29.8964 N   0  0  0  0  0  0  0  0  0  0  0  0
    9.7583  -13.8962   28.5348 C   0  0  0  0  0  0  0  0  0  0  0  0
    8.8783  -13.3145   27.8652 O   0  0  0  0  0  0  0  0  0  0  0  0
   10.5975  -14.9176   27.9123 C   0  0  0  0  0  0  0  0  0  0  0  0
    9.9198  -15.6716   26.8112 C   0  0  0  0  0  0  0  0  0  0  0  0
   10.9562  -16.6190   26.2073 C   0  0  2  0  0  0  0  0  0  0  0  0
   10.3538  -17.3843   25.1129 N   0  0  0  0  0  0  0  0  0  0  0  0
   11.3741  -17.5910   27.2430 C   0  0  0  0  0  0  0  0  0  0  0  0
   12.1155  -17.2195   28.1739 O   0  0  0  0  0  0  0  0  0  0  0  0
   10.9645  -18.9246   27.2168 O   0  0  0  0  0  0  0  0  0  0  0  0
  2  1  1  1
  2  3  1  0
  4  5  1  0
  4  2  1  0
  5  7  1  0
  5  6  1  6
  7  8  2  0
 10  9  1  1
 10 11  1  0
 10 12  1  0
 12 13  1  6
 13  7  1  0
 14 15  2  0
 14 12  1  0
 16 17  1  0
 17 18  2  0
 17 19  1  0
 19 20  1  0
 21 20  1  1
 21 22  1  0
 21 23  1  0
 22 14  1  0
 23 25  1  0
 24 23  2  0
M  END
$$$$
