LTQ.pdb
     RDKit          3D

 25 24  0  0  1  0  0  0  0  0999 V2000
    7.3409  -13.0785   18.7063 C   0  0  0  0  0  0  0  0  0  0  0  0
    6.9861  -13.2854   20.1726 C   0  0  2  0  0  0  0  0  0  0  0  0
    6.9883  -11.9943   20.9407 C   0  0  0  0  0  0  0  0  0  0  0  0
    8.0001  -14.2423   20.7388 C   0  0  0  0  0  0  0  0  0  0  0  0
    7.8704  -15.5854   20.0346 C   0  0  2  0  0  0  0  0  0  0  0  0
    6.5787  -16.1870   20.2878 N   0  0  0  0  0  0  0  0  0  0  0  0
    8.9808  -16.4354   20.5056 C   0  0  0  0  0  0  0  0  0  0  0  0
    8.7387  -17.2439   21.4372 O   0  0  0  0  0  0  0  0  0  0  0  0
   13.3264  -18.5631   19.8257 C   0  0  0  0  0  0  0  0  0  0  0  0
   12.2632  -17.6260   19.2911 C   0  0  1  0  0  0  0  0  0  0  0  0
   11.4923  -18.4493   18.4271 O   0  0  0  0  0  0  0  0  0  0  0  0
   11.3017  -17.3359   20.4565 C   0  0  2  0  0  0  0  0  0  0  0  0
   10.2896  -16.3787   19.9591 N   0  0  0  0  0  0  0  0  0  0  0  0
   12.0819  -16.7021   21.5305 C   0  0  0  0  0  0  0  0  0  0  0  0
   12.5297  -15.5075   21.3409 O   0  0  0  0  0  0  0  0  0  0  0  0
   12.5292  -17.9167   27.8590 N   0  0  0  0  0  0  0  0  0  0  0  0
   11.9896  -18.5542   26.7188 C   0  0  0  0  0  0  0  0  0  0  0  0
   11.1205  -19.4413   26.8563 O   0  0  0  0  0  0  0  0  0  0  0  0
   12.4469  -18.1768   25.3833 C   0  0  0  0  0  0  0  0  0  0  0  0
   12.5544  -16.6987   25.1738 C   0  0  0  0  0  0  0  0  0  0  0  0
   13.1699  -16.4815   23.7916 C   0  0  2  0  0  0  0  0  0  0  0  0
   12.4181  -17.2377   22.7870 N   0  0  0  0  0  0  0  0  0  0  0  0
   14.5517  -17.0132   23.7963 C   0  0  0  0  0  0  0  0  0  0  0  0
   14.7890  -18.1178   23.2695 O   0  0  0  0  0  0  0  0  0  0  0  0
   15.6125  -16.3159   24.3755 O   0  0  0  0  0  0  0  0  0  0  0  0
  2  1  1  6
  2  3  1  0
  4  5  1  0
  4  2  1  0
  5  7  1  0
  5  6  1  1
  7  8  2  0
 10  9  1  1
 10 11  1  0
 10 12  1  0
 12 13  1  6
 13  7  1  0
 14 15  2  0
 14 12  1  0
 16 17  1  0
 17 18  2  0
 17 19  1  0
 19 20  1  0
 21 20  1  1
 21 22  1  0
 21 23  1  0
 22 14  1  0
 23 25  1  0
 24 23  2  0
M  END
$$$$
