LTQ.pdb
     RDKit          3D

 25 24  0  0  1  0  0  0  0  0999 V2000
    8.2327  -14.3190   18.3950 C   0  0  0  0  0  0  0  0  0  0  0  0
    7.6831  -13.4611   19.5266 C   0  0  2  0  0  0  0  0  0  0  0  0
    7.5496  -12.0191   19.1268 C   0  0  0  0  0  0  0  0  0  0  0  0
    8.6304  -13.6053   20.6869 C   0  0  0  0  0  0  0  0  0  0  0  0
    8.5804  -15.0372   21.2004 C   0  0  2  0  0  0  0  0  0  0  0  0
    7.3648  -15.7016   20.7816 N   0  0  0  0  0  0  0  0  0  0  0  0
    8.7039  -14.9796   22.6696 C   0  0  0  0  0  0  0  0  0  0  0  0
    8.5886  -13.8547   23.2186 O   0  0  0  0  0  0  0  0  0  0  0  0
    7.2634  -14.2775   24.6572 C   0  0  0  0  0  0  0  0  0  0  0  0
    7.6427  -15.5203   25.4354 C   0  0  1  0  0  0  0  0  0  0  0  0
    6.7875  -16.5236   24.9053 O   0  0  0  0  0  0  0  0  0  0  0  0
    9.0365  -15.9444   24.9409 C   0  0  2  0  0  0  0  0  0  0  0  0
    8.9435  -16.1234   23.4755 N   0  0  0  0  0  0  0  0  0  0  0  0
    9.3575  -17.2360   25.5676 C   0  0  0  0  0  0  0  0  0  0  0  0
    8.8057  -18.3016   25.0950 O   0  0  0  0  0  0  0  0  0  0  0  0
   14.6259  -19.8706   26.0659 N   0  0  0  0  0  0  0  0  0  0  0  0
   13.5638  -20.1710   25.1831 C   0  0  0  0  0  0  0  0  0  0  0  0
   13.8033  -20.7246   24.0889 O   0  0  0  0  0  0  0  0  0  0  0  0
   12.1896  -19.8349   25.5492 C   0  0  0  0  0  0  0  0  0  0  0  0
   12.0722  -19.0746   26.8331 C   0  0  0  0  0  0  0  0  0  0  0  0
   10.5834  -18.8332   27.0812 C   0  0  2  0  0  0  0  0  0  0  0  0
   10.2196  -17.4806   26.6519 N   0  0  0  0  0  0  0  0  0  0  0  0
   10.3233  -18.9155   28.5364 C   0  0  0  0  0  0  0  0  0  0  0  0
   10.5131  -19.9914   29.1368 O   0  0  0  0  0  0  0  0  0  0  0  0
    9.8677  -17.8204   29.2713 O   0  0  0  0  0  0  0  0  0  0  0  0
  2  1  1  6
  2  3  1  0
  4  5  1  0
  4  2  1  0
  5  7  1  0
  5  6  1  1
  7  8  2  0
 10  9  1  6
 10 11  1  0
 10 12  1  0
 12 13  1  6
 13  7  1  0
 14 15  2  0
 14 12  1  0
 16 17  1  0
 17 18  2  0
 17 19  1  0
 19 20  1  0
 21 20  1  1
 21 22  1  0
 21 23  1  0
 22 14  1  0
 23 25  1  0
 24 23  2  0
M  END
$$$$
