LTQ.pdb
     RDKit          3D

 25 24  0  0  1  0  0  0  0  0999 V2000
    8.6099  -11.7688   20.3142 C   0  0  0  0  0  0  0  0  0  0  0  0
    8.6094  -12.9845   19.3973 C   0  0  2  0  0  0  0  0  0  0  0  0
    7.2254  -13.3406   18.9340 C   0  0  0  0  0  0  0  0  0  0  0  0
    9.2185  -14.1204   20.1740 C   0  0  0  0  0  0  0  0  0  0  0  0
    9.5809  -15.2460   19.2157 C   0  0  2  0  0  0  0  0  0  0  0  0
    8.5331  -15.4619   18.2411 N   0  0  0  0  0  0  0  0  0  0  0  0
    9.8376  -16.4489   20.0308 C   0  0  0  0  0  0  0  0  0  0  0  0
    8.8595  -16.9657   20.6277 O   0  0  0  0  0  0  0  0  0  0  0  0
   10.9223  -19.5700   18.7313 C   0  0  0  0  0  0  0  0  0  0  0  0
   11.9135  -19.3105   19.8468 C   0  0  1  0  0  0  0  0  0  0  0  0
   12.9038  -18.4960   19.2345 O   0  0  0  0  0  0  0  0  0  0  0  0
   11.2271  -18.3521   20.8354 C   0  0  2  0  0  0  0  0  0  0  0  0
   11.1225  -17.0369   20.1664 N   0  0  0  0  0  0  0  0  0  0  0  0
   12.0987  -18.2285   22.0139 C   0  0  0  0  0  0  0  0  0  0  0  0
   12.7807  -17.1440   22.1620 O   0  0  0  0  0  0  0  0  0  0  0  0
   10.7390  -17.3089   25.9579 N   0  0  0  0  0  0  0  0  0  0  0  0
   11.4980  -18.3639   26.5135 C   0  0  0  0  0  0  0  0  0  0  0  0
   12.0849  -18.1993   27.6042 O   0  0  0  0  0  0  0  0  0  0  0  0
   11.5958  -19.6432   25.8142 C   0  0  0  0  0  0  0  0  0  0  0  0
   12.9605  -19.9368   25.2741 C   0  0  0  0  0  0  0  0  0  0  0  0
   13.2282  -18.9340   24.1520 C   0  0  2  0  0  0  0  0  0  0  0  0
   12.2970  -19.1648   23.0448 N   0  0  0  0  0  0  0  0  0  0  0  0
   14.5949  -19.1580   23.6286 C   0  0  0  0  0  0  0  0  0  0  0  0
   14.8059  -20.0988   22.8383 O   0  0  0  0  0  0  0  0  0  0  0  0
   15.6700  -18.3458   23.9908 O   0  0  0  0  0  0  0  0  0  0  0  0
  2  1  1  1
  2  3  1  0
  4  5  1  0
  4  2  1  0
  5  7  1  0
  5  6  1  6
  7  8  2  0
 10  9  1  6
 10 11  1  0
 10 12  1  0
 12 13  1  6
 13  7  1  0
 14 15  2  0
 14 12  1  0
 16 17  1  0
 17 18  2  0
 17 19  1  0
 19 20  1  0
 21 20  1  1
 21 22  1  0
 21 23  1  0
 22 14  1  0
 23 25  1  0
 24 23  2  0
M  END
$$$$
