SDE.pdb
     RDKit          3D

 24 23  0  0  1  0  0  0  0  0999 V2000
    9.0599  -14.6240   19.7110 O   0  0  0  0  0  0  0  0  0  0  0  0
    9.2192  -13.7120   18.6683 C   0  0  0  0  0  0  0  0  0  0  0  0
    9.9189  -14.3467   17.4807 C   0  0  2  0  0  0  0  0  0  0  0  0
    9.0724  -15.3826   16.9049 N   0  0  0  0  0  0  0  0  0  0  0  0
   11.2390  -14.9063   17.8295 C   0  0  0  0  0  0  0  0  0  0  0  0
   11.3661  -16.1879   17.8773 O   0  0  0  0  0  0  0  0  0  0  0  0
   12.3807  -14.1363   18.1153 N   0  0  0  0  0  0  0  0  0  0  0  0
   13.6779  -14.7555   18.4226 C   0  0  1  0  0  0  0  0  0  0  0  0
   14.6705  -14.1007   17.5061 C   0  0  0  0  0  0  0  0  0  0  0  0
   16.0313  -14.6001   17.5543 C   0  0  0  0  0  0  0  0  0  0  0  0
   16.3389  -15.6685   18.1140 O   0  0  0  0  0  0  0  0  0  0  0  0
   13.9871  -14.5812   19.8551 C   0  0  0  0  0  0  0  0  0  0  0  0
   14.1014  -13.4513   20.3602 O   0  0  0  0  0  0  0  0  0  0  0  0
   17.1128  -13.9096   16.9689 O   0  0  0  0  0  0  0  0  0  0  0  0
   14.1743  -15.6847   20.7577 N   0  0  0  0  0  0  0  0  0  0  0  0
   14.4333  -15.4549   22.1646 C   0  0  1  0  0  0  0  0  0  0  0  0
   13.6449  -16.4454   23.0197 C   0  0  0  0  0  0  0  0  0  0  0  0
   12.3101  -15.8487   23.4350 C   0  0  0  0  0  0  0  0  0  0  0  0
   11.4860  -16.8247   24.1626 C   0  0  0  0  0  0  0  0  0  0  0  0
   11.3738  -16.8556   25.4115 O   0  0  0  0  0  0  0  0  0  0  0  0
   15.8628  -15.4514   22.5165 C   0  0  0  0  0  0  0  0  0  0  0  0
   16.7635  -15.9000   21.7476 O   0  0  0  0  0  0  0  0  0  0  0  0
   10.7823  -17.7771   23.4363 O   0  0  0  0  0  0  0  0  0  0  0  0
   16.2249  -14.9282   23.7492 O   0  0  0  0  0  0  0  0  0  0  0  0
  2  1  1  0
  2  3  1  0
  3  4  1  1
  5  3  1  0
  5  6  2  0
  7  5  1  0
  8  7  1  0
  8 12  1  0
  8  9  1  6
 10 11  2  0
 10  9  1  0
 12 15  1  0
 13 12  2  0
 14 10  1  0
 15 16  1  0
 16 21  1  0
 16 17  1  1
 18 17  1  0
 19 18  1  0
 19 20  2  0
 21 22  2  0
 21 24  1  0
 23 19  1  0
M  END
$$$$
