SDE.pdb
     RDKit          3D

 24 23  0  0  1  0  0  0  0  0999 V2000
   13.9444  -16.4404   21.0220 O   0  0  0  0  0  0  0  0  0  0  0  0
   13.3734  -17.3524   21.9090 C   0  0  0  0  0  0  0  0  0  0  0  0
   11.8622  -17.3826   21.7745 C   0  0  2  0  0  0  0  0  0  0  0  0
   11.3905  -16.1201   21.2225 N   0  0  0  0  0  0  0  0  0  0  0  0
   11.1819  -17.6625   23.0537 C   0  0  0  0  0  0  0  0  0  0  0  0
   10.2503  -16.8594   23.4388 O   0  0  0  0  0  0  0  0  0  0  0  0
   11.4771  -18.7529   23.8914 N   0  0  0  0  0  0  0  0  0  0  0  0
   10.7069  -19.0239   25.1137 C   0  0  1  0  0  0  0  0  0  0  0  0
   10.4788  -20.5076   25.1323 C   0  0  0  0  0  0  0  0  0  0  0  0
    9.8831  -21.0612   26.3333 C   0  0  0  0  0  0  0  0  0  0  0  0
    8.7030  -20.8427   26.6638 O   0  0  0  0  0  0  0  0  0  0  0  0
   11.4439  -18.5214   26.2894 C   0  0  0  0  0  0  0  0  0  0  0  0
   12.5512  -17.9691   26.1723 O   0  0  0  0  0  0  0  0  0  0  0  0
   10.5989  -21.8913   27.2207 O   0  0  0  0  0  0  0  0  0  0  0  0
   10.9450  -18.6294   27.6336 N   0  0  0  0  0  0  0  0  0  0  0  0
   11.5487  -17.8714   28.7108 C   0  0  1  0  0  0  0  0  0  0  0  0
   11.4259  -16.3728   28.4412 C   0  0  0  0  0  0  0  0  0  0  0  0
    9.9738  -15.9317   28.5265 C   0  0  0  0  0  0  0  0  0  0  0  0
    9.8340  -14.4875   28.2903 C   0  0  0  0  0  0  0  0  0  0  0  0
   10.7903  -13.7274   28.0056 O   0  0  0  0  0  0  0  0  0  0  0  0
   11.0434  -18.2260   30.0474 C   0  0  0  0  0  0  0  0  0  0  0  0
   10.0648  -19.0087   30.2296 O   0  0  0  0  0  0  0  0  0  0  0  0
    8.5718  -13.9150   28.3842 O   0  0  0  0  0  0  0  0  0  0  0  0
   11.6794  -17.6708   31.1482 O   0  0  0  0  0  0  0  0  0  0  0  0
  2  1  1  0
  2  3  1  0
  3  4  1  1
  5  3  1  0
  5  6  2  0
  7  5  1  0
  8  7  1  0
  8 12  1  0
  8  9  1  1
 10 11  2  0
 10  9  1  0
 12 15  1  0
 13 12  2  0
 14 10  1  0
 15 16  1  0
 16 21  1  0
 16 17  1  6
 18 17  1  0
 19 18  1  0
 19 20  2  0
 21 22  2  0
 21 24  1  0
 23 19  1  0
M  END
$$$$
