SDE.pdb
     RDKit          3D

 24 23  0  0  1  0  0  0  0  0999 V2000
   15.2681  -16.3100   17.9753 O   0  0  0  0  0  0  0  0  0  0  0  0
   14.5412  -15.5724   17.0415 C   0  0  0  0  0  0  0  0  0  0  0  0
   14.0899  -14.2429   17.6174 C   0  0  2  0  0  0  0  0  0  0  0  0
   15.1918  -13.2912   17.5843 N   0  0  0  0  0  0  0  0  0  0  0  0
   13.5667  -14.3654   18.9917 C   0  0  0  0  0  0  0  0  0  0  0  0
   14.3209  -13.9927   19.9681 O   0  0  0  0  0  0  0  0  0  0  0  0
   12.2923  -14.8628   19.3179 N   0  0  0  0  0  0  0  0  0  0  0  0
   11.8400  -14.9860   20.7110 C   0  0  1  0  0  0  0  0  0  0  0  0
   10.3889  -15.3638   20.6375 C   0  0  0  0  0  0  0  0  0  0  0  0
    9.7069  -15.5827   21.8988 C   0  0  0  0  0  0  0  0  0  0  0  0
   10.3012  -15.6059   22.9923 O   0  0  0  0  0  0  0  0  0  0  0  0
   12.6756  -15.9734   21.4214 C   0  0  0  0  0  0  0  0  0  0  0  0
   13.2049  -16.9249   20.8218 O   0  0  0  0  0  0  0  0  0  0  0  0
    8.3140  -15.7872   21.9813 O   0  0  0  0  0  0  0  0  0  0  0  0
   12.9368  -15.9094   22.8339 N   0  0  0  0  0  0  0  0  0  0  0  0
   14.0991  -16.5616   23.4024 C   0  0  1  0  0  0  0  0  0  0  0  0
   15.3584  -16.1740   22.6294 C   0  0  0  0  0  0  0  0  0  0  0  0
   16.5684  -16.9169   23.1721 C   0  0  0  0  0  0  0  0  0  0  0  0
   17.8145  -16.4442   22.5515 C   0  0  0  0  0  0  0  0  0  0  0  0
   18.2289  -15.2625   22.6219 O   0  0  0  0  0  0  0  0  0  0  0  0
   14.2604  -16.3409   24.8490 C   0  0  0  0  0  0  0  0  0  0  0  0
   15.0965  -16.9782   25.5550 O   0  0  0  0  0  0  0  0  0  0  0  0
   18.5913  -17.3501   21.8407 O   0  0  0  0  0  0  0  0  0  0  0  0
   13.4539  -15.3870   25.4522 O   0  0  0  0  0  0  0  0  0  0  0  0
  2  1  1  0
  2  3  1  0
  3  4  1  1
  5  3  1  0
  5  6  2  0
  7  5  1  0
  8  7  1  0
  8 12  1  0
  8  9  1  6
 10 11  2  0
 10  9  1  0
 12 15  1  0
 13 12  2  0
 14 10  1  0
 15 16  1  0
 16 21  1  0
 16 17  1  6
 18 17  1  0
 19 18  1  0
 19 20  2  0
 21 22  2  0
 21 24  1  0
 23 19  1  0
M  END
$$$$
