SDE.pdb
     RDKit          3D

 24 23  0  0  1  0  0  0  0  0999 V2000
    7.7410  -13.8586   21.1233 O   0  0  0  0  0  0  0  0  0  0  0  0
    6.7124  -14.4256   20.3717 C   0  0  0  0  0  0  0  0  0  0  0  0
    7.2583  -15.2460   19.2177 C   0  0  2  0  0  0  0  0  0  0  0  0
    6.1627  -15.8999   18.5154 N   0  0  0  0  0  0  0  0  0  0  0  0
    8.2525  -16.2468   19.6503 C   0  0  0  0  0  0  0  0  0  0  0  0
    7.8293  -17.4021   20.0342 O   0  0  0  0  0  0  0  0  0  0  0  0
    9.6421  -16.0313   19.6736 N   0  0  0  0  0  0  0  0  0  0  0  0
   10.5794  -17.0589   20.1492 C   0  0  1  0  0  0  0  0  0  0  0  0
   11.4879  -17.3511   18.9903 C   0  0  0  0  0  0  0  0  0  0  0  0
   12.5060  -18.3629   19.1983 C   0  0  0  0  0  0  0  0  0  0  0  0
   12.2950  -19.4123   19.8337 O   0  0  0  0  0  0  0  0  0  0  0  0
   11.2861  -16.5721   21.3499 C   0  0  0  0  0  0  0  0  0  0  0  0
   11.9415  -15.5162   21.3322 O   0  0  0  0  0  0  0  0  0  0  0  0
   13.8170  -18.2331   18.6949 O   0  0  0  0  0  0  0  0  0  0  0  0
   11.2685  -17.2689   22.6076 N   0  0  0  0  0  0  0  0  0  0  0  0
   11.9831  -16.7455   23.7542 C   0  0  1  0  0  0  0  0  0  0  0  0
   11.7005  -17.5960   24.9913 C   0  0  0  0  0  0  0  0  0  0  0  0
   12.4279  -17.0357   26.2026 C   0  0  0  0  0  0  0  0  0  0  0  0
   12.1704  -17.8399   27.4060 C   0  0  0  0  0  0  0  0  0  0  0  0
   11.4820  -17.4473   28.3781 O   0  0  0  0  0  0  0  0  0  0  0  0
   13.4283  -16.5751   23.5310 C   0  0  0  0  0  0  0  0  0  0  0  0
   14.0850  -15.5916   23.9838 O   0  0  0  0  0  0  0  0  0  0  0  0
   12.7160  -19.1149   27.4858 O   0  0  0  0  0  0  0  0  0  0  0  0
   14.0878  -17.5451   22.7903 O   0  0  0  0  0  0  0  0  0  0  0  0
  2  1  1  0
  2  3  1  0
  3  4  1  1
  5  3  1  0
  5  6  2  0
  7  5  1  0
  8  7  1  0
  8 12  1  0
  8  9  1  6
 10 11  2  0
 10  9  1  0
 12 15  1  0
 13 12  2  0
 14 10  1  0
 15 16  1  0
 16 21  1  0
 16 17  1  1
 18 17  1  0
 19 18  1  0
 19 20  2  0
 21 22  2  0
 21 24  1  0
 23 19  1  0
M  END
$$$$
