SDE.pdb
     RDKit          3D

 24 23  0  0  1  0  0  0  0  0999 V2000
    8.8804  -15.3615   20.1087 O   0  0  0  0  0  0  0  0  0  0  0  0
    8.0201  -16.4571   20.0460 C   0  0  0  0  0  0  0  0  0  0  0  0
    8.6059  -17.5724   19.1999 C   0  0  2  0  0  0  0  0  0  0  0  0
    7.6631  -18.6797   19.1215 N   0  0  0  0  0  0  0  0  0  0  0  0
    9.9070  -18.0491   19.7072 C   0  0  0  0  0  0  0  0  0  0  0  0
    9.9161  -18.8042   20.7516 O   0  0  0  0  0  0  0  0  0  0  0  0
   11.1505  -17.7380   19.1284 N   0  0  0  0  0  0  0  0  0  0  0  0
   12.4196  -18.1347   19.7550 C   0  0  1  0  0  0  0  0  0  0  0  0
   13.4115  -18.2462   18.6337 C   0  0  0  0  0  0  0  0  0  0  0  0
   14.7119  -18.7964   18.9651 C   0  0  0  0  0  0  0  0  0  0  0  0
   15.6694  -18.7922   18.1696 O   0  0  0  0  0  0  0  0  0  0  0  0
   12.7968  -17.1483   20.7859 C   0  0  0  0  0  0  0  0  0  0  0  0
   12.9221  -15.9421   20.5131 O   0  0  0  0  0  0  0  0  0  0  0  0
   14.9903  -19.3805   20.2182 O   0  0  0  0  0  0  0  0  0  0  0  0
   13.0414  -17.5014   22.1581 N   0  0  0  0  0  0  0  0  0  0  0  0
   13.3353  -16.4813   23.1442 C   0  0  1  0  0  0  0  0  0  0  0  0
   12.5560  -16.7451   24.4314 C   0  0  0  0  0  0  0  0  0  0  0  0
   13.2870  -17.7547   25.3013 C   0  0  0  0  0  0  0  0  0  0  0  0
   12.4226  -18.2685   26.3737 C   0  0  0  0  0  0  0  0  0  0  0  0
   11.6849  -17.5468   27.0865 O   0  0  0  0  0  0  0  0  0  0  0  0
   14.7726  -16.3004   23.4069 C   0  0  0  0  0  0  0  0  0  0  0  0
   15.6538  -17.1220   23.0169 O   0  0  0  0  0  0  0  0  0  0  0  0
   12.4111  -19.6348   26.6246 O   0  0  0  0  0  0  0  0  0  0  0  0
   15.1646  -15.1730   24.1137 O   0  0  0  0  0  0  0  0  0  0  0  0
  2  1  1  0
  2  3  1  0
  3  4  1  1
  5  3  1  0
  5  6  2  0
  7  5  1  0
  8  7  1  0
  8 12  1  0
  8  9  1  6
 10 11  2  0
 10  9  1  0
 12 15  1  0
 13 12  2  0
 14 10  1  0
 15 16  1  0
 16 21  1  0
 16 17  1  1
 18 17  1  0
 19 18  1  0
 19 20  2  0
 21 22  2  0
 21 24  1  0
 23 19  1  0
M  END
$$$$
