SDE.pdb
     RDKit          3D

 24 23  0  0  1  0  0  0  0  0999 V2000
    5.4543  -16.6668   21.5219 O   0  0  0  0  0  0  0  0  0  0  0  0
    6.6431  -17.3085   21.8672 C   0  0  0  0  0  0  0  0  0  0  0  0
    7.0901  -18.2674   20.7793 C   0  0  2  0  0  0  0  0  0  0  0  0
    6.1662  -19.3905   20.7012 N   0  0  0  0  0  0  0  0  0  0  0  0
    8.4674  -18.7568   20.9819 C   0  0  0  0  0  0  0  0  0  0  0  0
    8.6308  -19.9139   21.5255 O   0  0  0  0  0  0  0  0  0  0  0  0
    9.6266  -18.0471   20.6207 N   0  0  0  0  0  0  0  0  0  0  0  0
   10.9733  -18.5770   20.8780 C   0  0  1  0  0  0  0  0  0  0  0  0
   11.8511  -17.9999   19.8055 C   0  0  0  0  0  0  0  0  0  0  0  0
   13.2237  -18.4668   19.7644 C   0  0  0  0  0  0  0  0  0  0  0  0
   14.1425  -17.8160   19.2335 O   0  0  0  0  0  0  0  0  0  0  0  0
   11.3961  -18.2219   22.2466 C   0  0  0  0  0  0  0  0  0  0  0  0
   11.8424  -17.0932   22.5143 O   0  0  0  0  0  0  0  0  0  0  0  0
   13.6221  -19.6984   20.3243 O   0  0  0  0  0  0  0  0  0  0  0  0
   11.3234  -19.1373   23.3530 N   0  0  0  0  0  0  0  0  0  0  0  0
   11.8267  -18.7622   24.6589 C   0  0  1  0  0  0  0  0  0  0  0  0
   11.2360  -19.6684   25.7376 C   0  0  0  0  0  0  0  0  0  0  0  0
   11.6975  -19.2278   27.1172 C   0  0  0  0  0  0  0  0  0  0  0  0
   11.1713  -20.1099   28.1691 C   0  0  0  0  0  0  0  0  0  0  0  0
   11.4282  -19.9770   29.3895 O   0  0  0  0  0  0  0  0  0  0  0  0
   13.2956  -18.7075   24.7402 C   0  0  0  0  0  0  0  0  0  0  0  0
   13.9192  -17.7869   25.3461 O   0  0  0  0  0  0  0  0  0  0  0  0
   10.3371  -21.1591   27.8045 O   0  0  0  0  0  0  0  0  0  0  0  0
   14.0163  -19.7184   24.1212 O   0  0  0  0  0  0  0  0  0  0  0  0
  2  1  1  0
  2  3  1  0
  3  4  1  1
  5  3  1  0
  5  6  2  0
  7  5  1  0
  8  7  1  0
  8 12  1  0
  8  9  1  6
 10 11  2  0
 10  9  1  0
 12 15  1  0
 13 12  2  0
 14 10  1  0
 15 16  1  0
 16 21  1  0
 16 17  1  1
 18 17  1  0
 19 18  1  0
 19 20  2  0
 21 22  2  0
 21 24  1  0
 23 19  1  0
M  END
$$$$
