SDE.pdb
     RDKit          3D

 24 23  0  0  1  0  0  0  0  0999 V2000
    8.7992  -16.8536   18.5358 O   0  0  0  0  0  0  0  0  0  0  0  0
   10.0247  -16.9012   19.1993 C   0  0  0  0  0  0  0  0  0  0  0  0
   10.8695  -18.0659   18.7173 C   0  0  2  0  0  0  0  0  0  0  0  0
   10.1664  -19.3185   18.9579 N   0  0  0  0  0  0  0  0  0  0  0  0
   12.2024  -18.1030   19.3494 C   0  0  0  0  0  0  0  0  0  0  0  0
   12.5890  -19.2043   19.8960 O   0  0  0  0  0  0  0  0  0  0  0  0
   13.0915  -17.0144   19.3987 N   0  0  0  0  0  0  0  0  0  0  0  0
   14.3657  -17.0850   20.1282 C   0  0  1  0  0  0  0  0  0  0  0  0
   15.2692  -16.0826   19.4704 C   0  0  0  0  0  0  0  0  0  0  0  0
   16.6384  -16.0276   19.9457 C   0  0  0  0  0  0  0  0  0  0  0  0
   17.0462  -16.7025   20.9088 O   0  0  0  0  0  0  0  0  0  0  0  0
   14.1344  -16.8250   21.5624 C   0  0  0  0  0  0  0  0  0  0  0  0
   13.5446  -15.8011   21.9482 O   0  0  0  0  0  0  0  0  0  0  0  0
   17.6143  -15.2015   19.3504 O   0  0  0  0  0  0  0  0  0  0  0  0
   14.5645  -17.7205   22.6019 N   0  0  0  0  0  0  0  0  0  0  0  0
   14.2419  -17.4544   23.9891 C   0  0  1  0  0  0  0  0  0  0  0  0
   12.7330  -17.2906   24.1629 C   0  0  0  0  0  0  0  0  0  0  0  0
   12.0156  -18.5962   23.8609 C   0  0  0  0  0  0  0  0  0  0  0  0
   10.5658  -18.4765   24.0732 C   0  0  0  0  0  0  0  0  0  0  0  0
   10.0206  -18.4663   25.2027 O   0  0  0  0  0  0  0  0  0  0  0  0
   14.7929  -18.4426   24.9311 C   0  0  0  0  0  0  0  0  0  0  0  0
   14.6432  -18.3578   26.1857 O   0  0  0  0  0  0  0  0  0  0  0  0
    9.7359  -18.3668   22.9645 O   0  0  0  0  0  0  0  0  0  0  0  0
   15.5049  -19.5109   24.4057 O   0  0  0  0  0  0  0  0  0  0  0  0
  2  1  1  0
  2  3  1  0
  3  4  1  1
  5  3  1  0
  5  6  2  0
  7  5  1  0
  8  7  1  0
  8 12  1  0
  8  9  1  6
 10 11  2  0
 10  9  1  0
 12 15  1  0
 13 12  2  0
 14 10  1  0
 15 16  1  0
 16 21  1  0
 16 17  1  6
 18 17  1  0
 19 18  1  0
 19 20  2  0
 21 22  2  0
 21 24  1  0
 23 19  1  0
M  END
$$$$
