SDE.pdb
     RDKit          3D

 24 23  0  0  1  0  0  0  0  0999 V2000
    8.0615  -12.4784   20.9076 O   0  0  0  0  0  0  0  0  0  0  0  0
    8.5157  -11.9494   19.7001 C   0  0  0  0  0  0  0  0  0  0  0  0
    8.4692  -12.9839   18.5909 C   0  0  2  0  0  0  0  0  0  0  0  0
    7.0890  -13.3741   18.3375 N   0  0  0  0  0  0  0  0  0  0  0  0
    9.2866  -14.1758   18.8888 C   0  0  0  0  0  0  0  0  0  0  0  0
    8.6939  -15.2238   19.3486 O   0  0  0  0  0  0  0  0  0  0  0  0
   10.6787  -14.2536   18.7048 N   0  0  0  0  0  0  0  0  0  0  0  0
   11.4384  -15.4689   19.0315 C   0  0  1  0  0  0  0  0  0  0  0  0
   12.4301  -15.6425   17.9178 C   0  0  0  0  0  0  0  0  0  0  0  0
   12.2101  -16.7570   17.0161 C   0  0  0  0  0  0  0  0  0  0  0  0
   11.3604  -17.6411   17.2303 O   0  0  0  0  0  0  0  0  0  0  0  0
   12.0591  -15.3263   20.3628 C   0  0  0  0  0  0  0  0  0  0  0  0
   12.7057  -14.3104   20.6705 O   0  0  0  0  0  0  0  0  0  0  0  0
   12.9457  -16.9239   15.8244 O   0  0  0  0  0  0  0  0  0  0  0  0
   11.9631  -16.3325   21.3855 N   0  0  0  0  0  0  0  0  0  0  0  0
   12.5495  -16.1179   22.6929 C   0  0  1  0  0  0  0  0  0  0  0  0
   11.8661  -17.0021   23.7345 C   0  0  0  0  0  0  0  0  0  0  0  0
   12.4221  -16.7216   25.1211 C   0  0  0  0  0  0  0  0  0  0  0  0
   11.8478  -17.6281   26.1260 C   0  0  0  0  0  0  0  0  0  0  0  0
   11.0007  -18.5161   25.8671 O   0  0  0  0  0  0  0  0  0  0  0  0
   14.0131  -16.2738   22.7244 C   0  0  0  0  0  0  0  0  0  0  0  0
   14.6305  -17.1319   22.0272 O   0  0  0  0  0  0  0  0  0  0  0  0
   12.2589  -17.5060   27.4472 O   0  0  0  0  0  0  0  0  0  0  0  0
   14.7358  -15.4342   23.5594 O   0  0  0  0  0  0  0  0  0  0  0  0
  2  1  1  0
  2  3  1  0
  3  4  1  1
  5  3  1  0
  5  6  2  0
  7  5  1  0
  8  7  1  0
  8 12  1  0
  8  9  1  6
 10 11  2  0
 10  9  1  0
 12 15  1  0
 13 12  2  0
 14 10  1  0
 15 16  1  0
 16 21  1  0
 16 17  1  1
 18 17  1  0
 19 18  1  0
 19 20  2  0
 21 22  2  0
 21 24  1  0
 23 19  1  0
M  END
$$$$
