SDE.pdb
     RDKit          3D

 24 23  0  0  1  0  0  0  0  0999 V2000
    9.8964  -14.2512   17.3444 O   0  0  0  0  0  0  0  0  0  0  0  0
    8.5053  -14.3014   17.2623 C   0  0  0  0  0  0  0  0  0  0  0  0
    7.8575  -13.7942   18.5374 C   0  0  2  0  0  0  0  0  0  0  0  0
    8.0465  -12.3544   18.6480 N   0  0  0  0  0  0  0  0  0  0  0  0
    8.3727  -14.4677   19.7450 C   0  0  0  0  0  0  0  0  0  0  0  0
    9.1638  -13.8096   20.5211 O   0  0  0  0  0  0  0  0  0  0  0  0
    8.0600  -15.7877   20.1161 N   0  0  0  0  0  0  0  0  0  0  0  0
    8.5762  -16.3893   21.3539 C   0  0  1  0  0  0  0  0  0  0  0  0
    7.7455  -17.6177   21.5884 C   0  0  0  0  0  0  0  0  0  0  0  0
    8.1171  -18.4512   22.7157 C   0  0  0  0  0  0  0  0  0  0  0  0
    8.7546  -18.0191   23.6936 O   0  0  0  0  0  0  0  0  0  0  0  0
   10.0186  -16.6663   21.2102 C   0  0  0  0  0  0  0  0  0  0  0  0
   10.4971  -17.0679   20.1356 O   0  0  0  0  0  0  0  0  0  0  0  0
    7.7833  -19.8195   22.7887 O   0  0  0  0  0  0  0  0  0  0  0  0
   10.9616  -16.4940   22.2819 N   0  0  0  0  0  0  0  0  0  0  0  0
   12.3863  -16.4726   22.0185 C   0  0  1  0  0  0  0  0  0  0  0  0
   12.7127  -15.4424   20.9387 C   0  0  0  0  0  0  0  0  0  0  0  0
   14.2130  -15.3683   20.7070 C   0  0  0  0  0  0  0  0  0  0  0  0
   14.5421  -14.4772   19.5849 C   0  0  0  0  0  0  0  0  0  0  0  0
   15.2425  -13.4424   19.6929 O   0  0  0  0  0  0  0  0  0  0  0  0
   13.2135  -16.2796   23.2210 C   0  0  0  0  0  0  0  0  0  0  0  0
   14.4787  -16.3285   23.2029 O   0  0  0  0  0  0  0  0  0  0  0  0
   14.0548  -14.7874   18.3215 O   0  0  0  0  0  0  0  0  0  0  0  0
   12.5633  -16.0320   24.4212 O   0  0  0  0  0  0  0  0  0  0  0  0
  2  1  1  0
  2  3  1  0
  3  4  1  1
  5  3  1  0
  5  6  2  0
  7  5  1  0
  8  7  1  0
  8 12  1  0
  8  9  1  6
 10 11  2  0
 10  9  1  0
 12 15  1  0
 13 12  2  0
 14 10  1  0
 15 16  1  0
 16 21  1  0
 16 17  1  6
 18 17  1  0
 19 18  1  0
 19 20  2  0
 21 22  2  0
 21 24  1  0
 23 19  1  0
M  END
$$$$
