SDE.pdb
     RDKit          3D

 24 23  0  0  1  0  0  0  0  0999 V2000
    8.8749  -14.0341   20.1010 O   0  0  0  0  0  0  0  0  0  0  0  0
    9.0737  -13.1740   19.0216 C   0  0  0  0  0  0  0  0  0  0  0  0
    9.6528  -13.9100   17.8275 C   0  0  2  0  0  0  0  0  0  0  0  0
    8.6879  -14.8813   17.3310 N   0  0  0  0  0  0  0  0  0  0  0  0
   10.9321  -14.5778   18.1355 C   0  0  0  0  0  0  0  0  0  0  0  0
   10.9448  -15.8637   18.2216 O   0  0  0  0  0  0  0  0  0  0  0  0
   12.1512  -13.9079   18.3429 N   0  0  0  0  0  0  0  0  0  0  0  0
   13.4015  -14.6344   18.6064 C   0  0  1  0  0  0  0  0  0  0  0  0
   14.4294  -14.0203   17.7009 C   0  0  0  0  0  0  0  0  0  0  0  0
   15.7370  -14.6476   17.6780 C   0  0  0  0  0  0  0  0  0  0  0  0
   15.9360  -15.8082   18.0815 O   0  0  0  0  0  0  0  0  0  0  0  0
   13.7404  -14.5407   20.0397 C   0  0  0  0  0  0  0  0  0  0  0  0
   14.0289  -13.4528   20.5672 O   0  0  0  0  0  0  0  0  0  0  0  0
   16.8858  -13.9870   17.1955 O   0  0  0  0  0  0  0  0  0  0  0  0
   13.7603  -15.6791   20.9177 N   0  0  0  0  0  0  0  0  0  0  0  0
   14.1401  -15.5352   22.3085 C   0  0  1  0  0  0  0  0  0  0  0  0
   13.5238  -16.6535   23.1472 C   0  0  0  0  0  0  0  0  0  0  0  0
   12.0187  -16.4716   23.2570 C   0  0  0  0  0  0  0  0  0  0  0  0
   11.4022  -17.5454   24.0495 C   0  0  0  0  0  0  0  0  0  0  0  0
   11.0635  -18.6580   23.5799 O   0  0  0  0  0  0  0  0  0  0  0  0
   15.5929  -15.4325   22.5238 C   0  0  0  0  0  0  0  0  0  0  0  0
   16.1047  -15.1284   23.6415 O   0  0  0  0  0  0  0  0  0  0  0  0
   11.1747  -17.3295   25.4028 O   0  0  0  0  0  0  0  0  0  0  0  0
   16.4268  -15.6847   21.4443 O   0  0  0  0  0  0  0  0  0  0  0  0
  2  1  1  0
  2  3  1  0
  3  4  1  1
  5  3  1  0
  5  6  2  0
  7  5  1  0
  8  7  1  0
  8 12  1  0
  8  9  1  6
 10 11  2  0
 10  9  1  0
 12 15  1  0
 13 12  2  0
 14 10  1  0
 15 16  1  0
 16 21  1  0
 16 17  1  1
 18 17  1  0
 19 18  1  0
 19 20  2  0
 21 22  2  0
 21 24  1  0
 23 19  1  0
M  END
$$$$
