MYT.pdb
     RDKit          3D

 28 28  0  0  1  0  0  0  0  0999 V2000
    6.7658  -11.5148   25.5026 C   0  0  0  0  0  0  0  0  0  0  0  0
    6.4235  -12.0414   27.1838 S   0  0  0  0  0  0  0  0  0  0  0  0
    6.4472  -13.8509   27.3044 C   0  0  0  0  0  0  0  0  0  0  0  0
    5.9744  -14.4028   25.9720 C   0  0  0  0  0  0  0  0  0  0  0  0
    6.5822  -15.7771   25.7820 C   0  0  2  0  0  0  0  0  0  0  0  0
    7.5357  -15.9996   26.8581 N   0  0  0  0  0  0  0  0  0  0  0  0
    7.2786  -15.9150   24.5005 C   0  0  0  0  0  0  0  0  0  0  0  0
    6.6530  -16.2575   23.4439 O   0  0  0  0  0  0  0  0  0  0  0  0
    6.7808  -12.9813   18.1246 O   0  0  0  0  0  0  0  0  0  0  0  0
    7.5360  -13.3484   19.2308 C   0  0  0  0  0  0  0  0  0  0  0  0
    7.7739  -12.4887   20.2630 C   0  0  0  0  0  0  0  0  0  0  0  0
    8.5347  -12.9108   21.3410 C   0  0  0  0  0  0  0  0  0  0  0  0
    9.0660  -14.1810   21.4105 C   0  0  0  0  0  0  0  0  0  0  0  0
    9.8823  -14.6410   22.5610 C   0  0  0  0  0  0  0  0  0  0  0  0
    9.3629  -15.9796   23.0979 C   0  0  2  0  0  0  0  0  0  0  0  0
    8.6730  -15.6865   24.3219 N   0  0  0  0  0  0  0  0  0  0  0  0
   10.5356  -16.8683   23.2817 C   0  0  0  0  0  0  0  0  0  0  0  0
   11.1154  -17.0458   24.3815 O   0  0  0  0  0  0  0  0  0  0  0  0
    8.8065  -15.0237   20.3515 C   0  0  0  0  0  0  0  0  0  0  0  0
    8.0480  -14.6126   19.2697 C   0  0  0  0  0  0  0  0  0  0  0  0
   13.5717  -20.1655   20.9875 C   0  0  0  0  0  0  0  0  0  0  0  0
   12.4034  -19.2176   20.9144 C   0  0  1  0  0  0  0  0  0  0  0  0
   11.2640  -19.8135   20.3796 O   0  0  0  0  0  0  0  0  0  0  0  0
   12.1582  -18.4486   22.1549 C   0  0  2  0  0  0  0  0  0  0  0  0
   11.0508  -17.5658   22.1785 N   0  0  0  0  0  0  0  0  0  0  0  0
   13.4235  -17.7599   22.5433 C   0  0  0  0  0  0  0  0  0  0  0  0
   14.2572  -18.3004   23.5111 O   0  0  0  0  0  0  0  0  0  0  0  0
   13.7619  -16.6820   22.0072 O   0  0  0  0  0  0  0  0  0  0  0  0
  2  1  1  0
  3  2  1  0
  4  3  1  0
  5  4  1  0
  5  6  1  1
  7  8  2  0
  7  5  1  0
  9 10  1  0
 10 20  2  0
 11 12  2  0
 11 10  1  0
 12 13  1  0
 13 14  1  0
 13 19  2  0
 15 14  1  1
 15 16  1  0
 16  7  1  0
 17 15  1  0
 18 17  2  0
 20 19  1  0
 22 24  1  0
 22 21  1  1
 23 22  1  0
 24 25  1  6
 25 17  1  0
 26 27  1  0
 26 24  1  0
 28 26  2  0
M  END
$$$$
