MYT.pdb
     RDKit          3D

 28 28  0  0  1  0  0  0  0  0999 V2000
    7.4432  -11.7451   19.0641 C   0  0  0  0  0  0  0  0  0  0  0  0
    7.2761  -13.1284   17.9328 S   0  0  0  0  0  0  0  0  0  0  0  0
    7.8622  -14.6608   18.7057 C   0  0  0  0  0  0  0  0  0  0  0  0
    8.6781  -14.2732   19.9253 C   0  0  0  0  0  0  0  0  0  0  0  0
    9.1331  -15.5411   20.6178 C   0  0  2  0  0  0  0  0  0  0  0  0
    7.9645  -16.3816   20.8298 N   0  0  0  0  0  0  0  0  0  0  0  0
    9.7669  -15.2817   21.9129 C   0  0  0  0  0  0  0  0  0  0  0  0
   10.9215  -14.7462   21.9861 O   0  0  0  0  0  0  0  0  0  0  0  0
   11.0841  -15.1558   30.6637 O   0  0  0  0  0  0  0  0  0  0  0  0
   10.5137  -15.2509   29.4010 C   0  0  0  0  0  0  0  0  0  0  0  0
   10.1632  -16.4500   28.8530 C   0  0  0  0  0  0  0  0  0  0  0  0
    9.5976  -16.4833   27.5888 C   0  0  0  0  0  0  0  0  0  0  0  0
    9.3731  -15.3373   26.8560 C   0  0  0  0  0  0  0  0  0  0  0  0
    8.7683  -15.3639   25.5013 C   0  0  0  0  0  0  0  0  0  0  0  0
    9.8536  -15.4238   24.4204 C   0  0  2  0  0  0  0  0  0  0  0  0
    9.1718  -15.5930   23.1688 N   0  0  0  0  0  0  0  0  0  0  0  0
   10.7531  -16.5533   24.7579 C   0  0  0  0  0  0  0  0  0  0  0  0
   11.2716  -16.7230   25.8891 O   0  0  0  0  0  0  0  0  0  0  0  0
    9.7386  -14.1433   27.4390 C   0  0  0  0  0  0  0  0  0  0  0  0
   10.3043  -14.0985   28.7009 C   0  0  0  0  0  0  0  0  0  0  0  0
   10.2420  -20.5622   23.6429 C   0  0  0  0  0  0  0  0  0  0  0  0
   11.4824  -19.8681   23.1442 C   0  0  1  0  0  0  0  0  0  0  0  0
   11.4718  -19.6805   21.7644 O   0  0  0  0  0  0  0  0  0  0  0  0
   11.8642  -18.6641   23.9154 C   0  0  2  0  0  0  0  0  0  0  0  0
   11.0616  -17.5056   23.7746 N   0  0  0  0  0  0  0  0  0  0  0  0
   13.3050  -18.3740   23.6582 C   0  0  0  0  0  0  0  0  0  0  0  0
   14.2825  -19.3100   23.9618 O   0  0  0  0  0  0  0  0  0  0  0  0
   13.6650  -17.2830   23.1641 O   0  0  0  0  0  0  0  0  0  0  0  0
  2  1  1  0
  3  2  1  0
  4  3  1  0
  5  4  1  0
  5  6  1  1
  7  8  2  0
  7  5  1  0
  9 10  1  0
 10 20  2  0
 11 12  2  0
 11 10  1  0
 12 13  1  0
 13 14  1  0
 13 19  2  0
 15 14  1  1
 15 16  1  0
 16  7  1  0
 17 15  1  0
 18 17  2  0
 20 19  1  0
 22 24  1  0
 22 21  1  1
 23 22  1  0
 24 25  1  6
 25 17  1  0
 26 27  1  0
 26 24  1  0
 28 26  2  0
M  END
$$$$
