MYT.pdb
     RDKit          3D

 28 28  0  0  1  0  0  0  0  0999 V2000
    8.3338  -11.3816   20.0552 C   0  0  0  0  0  0  0  0  0  0  0  0
    7.2275  -12.5215   19.2199 S   0  0  0  0  0  0  0  0  0  0  0  0
    7.5955  -14.2329   19.6944 C   0  0  0  0  0  0  0  0  0  0  0  0
    8.1702  -14.2031   21.0986 C   0  0  0  0  0  0  0  0  0  0  0  0
    8.5376  -15.6184   21.4941 C   0  0  2  0  0  0  0  0  0  0  0  0
    7.3377  -16.4362   21.4032 N   0  0  0  0  0  0  0  0  0  0  0  0
    9.0639  -15.7056   22.8585 C   0  0  0  0  0  0  0  0  0  0  0  0
   10.2174  -15.2478   23.1504 O   0  0  0  0  0  0  0  0  0  0  0  0
    6.3646  -10.6263   26.3398 O   0  0  0  0  0  0  0  0  0  0  0  0
    6.7429  -11.9626   26.3323 C   0  0  0  0  0  0  0  0  0  0  0  0
    7.9700  -12.3704   26.7666 C   0  0  0  0  0  0  0  0  0  0  0  0
    8.2919  -13.7175   26.7358 C   0  0  0  0  0  0  0  0  0  0  0  0
    7.4086  -14.6716   26.2775 C   0  0  0  0  0  0  0  0  0  0  0  0
    7.7453  -16.1163   26.2404 C   0  0  0  0  0  0  0  0  0  0  0  0
    8.9050  -16.3815   25.2737 C   0  0  2  0  0  0  0  0  0  0  0  0
    8.3593  -16.2901   23.9494 N   0  0  0  0  0  0  0  0  0  0  0  0
    9.4508  -17.7226   25.5940 C   0  0  0  0  0  0  0  0  0  0  0  0
    8.7812  -18.7836   25.5392 O   0  0  0  0  0  0  0  0  0  0  0  0
    6.1781  -14.2257   25.8463 C   0  0  0  0  0  0  0  0  0  0  0  0
    5.8462  -12.8827   25.8727 C   0  0  0  0  0  0  0  0  0  0  0  0
   13.4829  -20.5374   26.1878 C   0  0  0  0  0  0  0  0  0  0  0  0
   12.8496  -19.2221   25.8164 C   0  0  1  0  0  0  0  0  0  0  0  0
   12.9792  -18.9301   24.4610 O   0  0  0  0  0  0  0  0  0  0  0  0
   11.4827  -19.0268   26.3492 C   0  0  2  0  0  0  0  0  0  0  0  0
   10.7929  -17.8445   25.9849 N   0  0  0  0  0  0  0  0  0  0  0  0
   11.5201  -19.2122   27.8292 C   0  0  0  0  0  0  0  0  0  0  0  0
   11.8285  -20.4462   28.3821 O   0  0  0  0  0  0  0  0  0  0  0  0
   11.2750  -18.2621   28.6046 O   0  0  0  0  0  0  0  0  0  0  0  0
  2  1  1  0
  3  2  1  0
  4  3  1  0
  5  4  1  0
  5  6  1  1
  7  8  2  0
  7  5  1  0
  9 10  1  0
 10 20  2  0
 11 12  2  0
 11 10  1  0
 12 13  1  0
 13 14  1  0
 13 19  2  0
 15 14  1  1
 15 16  1  0
 16  7  1  0
 17 15  1  0
 18 17  2  0
 20 19  1  0
 22 24  1  0
 22 21  1  6
 23 22  1  0
 24 25  1  1
 25 17  1  0
 26 27  1  0
 26 24  1  0
 28 26  2  0
M  END
$$$$
