MYT.pdb
     RDKit          3D

 28 28  0  0  1  0  0  0  0  0999 V2000
    6.4606  -11.6533   18.9526 C   0  0  0  0  0  0  0  0  0  0  0  0
    8.0768  -12.4309   19.0172 S   0  0  0  0  0  0  0  0  0  0  0  0
    7.9973  -13.9957   19.9307 C   0  0  0  0  0  0  0  0  0  0  0  0
    9.4120  -14.5353   20.0344 C   0  0  0  0  0  0  0  0  0  0  0  0
    9.3612  -15.8754   20.7387 C   0  0  2  0  0  0  0  0  0  0  0  0
    7.9665  -16.2767   20.8412 N   0  0  0  0  0  0  0  0  0  0  0  0
    9.9374  -15.8288   22.0848 C   0  0  0  0  0  0  0  0  0  0  0  0
   11.1983  -15.7627   22.2601 O   0  0  0  0  0  0  0  0  0  0  0  0
   10.7472  -15.1837   30.8472 O   0  0  0  0  0  0  0  0  0  0  0  0
   10.2601  -15.2146   29.5469 C   0  0  0  0  0  0  0  0  0  0  0  0
    9.6605  -16.3229   29.0242 C   0  0  0  0  0  0  0  0  0  0  0  0
    9.1936  -16.2953   27.7203 C   0  0  0  0  0  0  0  0  0  0  0  0
    9.3135  -15.1774   26.9224 C   0  0  0  0  0  0  0  0  0  0  0  0
    8.8168  -15.1394   25.5247 C   0  0  0  0  0  0  0  0  0  0  0  0
    9.7578  -15.9081   24.5902 C   0  0  2  0  0  0  0  0  0  0  0  0
    9.1678  -15.8517   23.2830 N   0  0  0  0  0  0  0  0  0  0  0  0
    9.8804  -17.2871   25.1215 C   0  0  0  0  0  0  0  0  0  0  0  0
    8.9012  -18.0367   25.3593 O   0  0  0  0  0  0  0  0  0  0  0  0
    9.9240  -14.0756   27.4814 C   0  0  0  0  0  0  0  0  0  0  0  0
   10.3940  -14.0922   28.7826 C   0  0  0  0  0  0  0  0  0  0  0  0
   11.4920  -20.3651   23.5737 C   0  0  0  0  0  0  0  0  0  0  0  0
   12.2533  -19.9623   24.8095 C   0  0  1  0  0  0  0  0  0  0  0  0
   13.5187  -19.4595   24.5178 O   0  0  0  0  0  0  0  0  0  0  0  0
   11.4805  -19.1379   25.7652 C   0  0  2  0  0  0  0  0  0  0  0  0
   11.1545  -17.8132   25.3840 N   0  0  0  0  0  0  0  0  0  0  0  0
   12.1662  -19.1799   27.0897 C   0  0  0  0  0  0  0  0  0  0  0  0
   12.1696  -20.3397   27.8504 O   0  0  0  0  0  0  0  0  0  0  0  0
   12.7527  -18.1734   27.5445 O   0  0  0  0  0  0  0  0  0  0  0  0
  2  1  1  0
  3  2  1  0
  4  3  1  0
  5  4  1  0
  5  6  1  1
  7  8  2  0
  7  5  1  0
  9 10  1  0
 10 20  2  0
 11 12  2  0
 11 10  1  0
 12 13  1  0
 13 14  1  0
 13 19  2  0
 15 14  1  1
 15 16  1  0
 16  7  1  0
 17 15  1  0
 18 17  2  0
 20 19  1  0
 22 24  1  0
 22 21  1  6
 23 22  1  0
 24 25  1  6
 25 17  1  0
 26 27  1  0
 26 24  1  0
 28 26  2  0
M  END
$$$$
