MYT.pdb
     RDKit          3D

 28 28  0  0  1  0  0  0  0  0999 V2000
    8.2181  -12.0679   18.1784 C   0  0  0  0  0  0  0  0  0  0  0  0
    8.1487  -13.4835   17.0774 S   0  0  0  0  0  0  0  0  0  0  0  0
    8.6208  -14.9993   17.9542 C   0  0  0  0  0  0  0  0  0  0  0  0
    9.3352  -14.5856   19.2276 C   0  0  0  0  0  0  0  0  0  0  0  0
    9.5587  -15.8225   20.0729 C   0  0  2  0  0  0  0  0  0  0  0  0
    8.4184  -16.7066   19.8861 N   0  0  0  0  0  0  0  0  0  0  0  0
    9.6878  -15.5164   21.4997 C   0  0  0  0  0  0  0  0  0  0  0  0
   10.7674  -15.0329   21.9750 O   0  0  0  0  0  0  0  0  0  0  0  0
    6.9890  -11.6359   28.8395 O   0  0  0  0  0  0  0  0  0  0  0  0
    7.0943  -12.3909   27.6785 C   0  0  0  0  0  0  0  0  0  0  0  0
    8.1880  -13.1617   27.4126 C   0  0  0  0  0  0  0  0  0  0  0  0
    8.2374  -13.8939   26.2376 C   0  0  0  0  0  0  0  0  0  0  0  0
    7.2113  -13.8725   25.3171 C   0  0  0  0  0  0  0  0  0  0  0  0
    7.2562  -14.6531   24.0560 C   0  0  0  0  0  0  0  0  0  0  0  0
    8.6786  -15.1490   23.7717 C   0  0  2  0  0  0  0  0  0  0  0  0
    8.6535  -15.7234   22.4567 N   0  0  0  0  0  0  0  0  0  0  0  0
    9.0283  -16.1237   24.8331 C   0  0  0  0  0  0  0  0  0  0  0  0
    8.9929  -15.8655   26.0616 O   0  0  0  0  0  0  0  0  0  0  0  0
    6.1217  -13.0838   25.6168 C   0  0  0  0  0  0  0  0  0  0  0  0
    6.0619  -12.3484   26.7873 C   0  0  0  0  0  0  0  0  0  0  0  0
   10.6118  -20.0444   23.4808 C   0  0  0  0  0  0  0  0  0  0  0  0
   11.1073  -19.2366   24.6515 C   0  0  1  0  0  0  0  0  0  0  0  0
   12.3062  -18.5821   24.3803 O   0  0  0  0  0  0  0  0  0  0  0  0
   10.0802  -18.3796   25.2848 C   0  0  2  0  0  0  0  0  0  0  0  0
    9.4265  -17.4202   24.4734 N   0  0  0  0  0  0  0  0  0  0  0  0
   10.6683  -17.7611   26.5087 C   0  0  0  0  0  0  0  0  0  0  0  0
   11.1756  -18.5513   27.5293 O   0  0  0  0  0  0  0  0  0  0  0  0
   10.7177  -16.5188   26.6433 O   0  0  0  0  0  0  0  0  0  0  0  0
  2  1  1  0
  3  2  1  0
  4  3  1  0
  5  4  1  0
  5  6  1  1
  7  8  2  0
  7  5  1  0
  9 10  1  0
 10 20  2  0
 11 12  2  0
 11 10  1  0
 12 13  1  0
 13 14  1  0
 13 19  2  0
 15 14  1  1
 15 16  1  0
 16  7  1  0
 17 15  1  0
 18 17  2  0
 20 19  1  0
 22 24  1  0
 22 21  1  6
 23 22  1  0
 24 25  1  6
 25 17  1  0
 26 27  1  0
 26 24  1  0
 28 26  2  0
M  END
$$$$
