MYT.pdb
     RDKit          3D

 28 28  0  0  1  0  0  0  0  0999 V2000
    6.2117  -12.2605   18.6443 C   0  0  0  0  0  0  0  0  0  0  0  0
    7.4064  -13.0619   19.7173 S   0  0  0  0  0  0  0  0  0  0  0  0
    7.6914  -14.7739   19.1908 C   0  0  0  0  0  0  0  0  0  0  0  0
    8.5920  -15.4248   20.2244 C   0  0  0  0  0  0  0  0  0  0  0  0
    9.4473  -14.3474   20.8584 C   0  0  2  0  0  0  0  0  0  0  0  0
   10.5399  -14.0461   19.9462 N   0  0  0  0  0  0  0  0  0  0  0  0
   10.0101  -14.7577   22.1472 C   0  0  0  0  0  0  0  0  0  0  0  0
   11.1588  -15.3059   22.2202 O   0  0  0  0  0  0  0  0  0  0  0  0
   10.9974  -15.8822   30.8566 O   0  0  0  0  0  0  0  0  0  0  0  0
   10.4776  -15.5940   29.6013 C   0  0  0  0  0  0  0  0  0  0  0  0
    9.6659  -16.4655   28.9360 C   0  0  0  0  0  0  0  0  0  0  0  0
    9.1768  -16.1237   27.6858 C   0  0  0  0  0  0  0  0  0  0  0  0
    9.4829  -14.9225   27.0824 C   0  0  0  0  0  0  0  0  0  0  0  0
    8.9639  -14.5487   25.7435 C   0  0  0  0  0  0  0  0  0  0  0  0
    9.8762  -15.0862   24.6351 C   0  0  2  0  0  0  0  0  0  0  0  0
    9.3486  -14.5877   23.3969 N   0  0  0  0  0  0  0  0  0  0  0  0
    9.8613  -16.5661   24.7278 C   0  0  0  0  0  0  0  0  0  0  0  0
    8.8248  -17.2655   24.6115 O   0  0  0  0  0  0  0  0  0  0  0  0
   10.3051  -14.0657   27.7816 C   0  0  0  0  0  0  0  0  0  0  0  0
   10.7992  -14.3969   29.0309 C   0  0  0  0  0  0  0  0  0  0  0  0
   10.8518  -19.3251   22.6245 C   0  0  0  0  0  0  0  0  0  0  0  0
   11.7907  -19.3244   23.8023 C   0  0  1  0  0  0  0  0  0  0  0  0
   13.0817  -18.9331   23.4566 O   0  0  0  0  0  0  0  0  0  0  0  0
   11.2592  -18.6555   25.0107 C   0  0  2  0  0  0  0  0  0  0  0  0
   11.0624  -17.2537   24.9591 N   0  0  0  0  0  0  0  0  0  0  0  0
   12.0962  -19.0542   26.1798 C   0  0  0  0  0  0  0  0  0  0  0  0
   12.7918  -18.1033   26.9117 O   0  0  0  0  0  0  0  0  0  0  0  0
   12.1904  -20.2519   26.5269 O   0  0  0  0  0  0  0  0  0  0  0  0
  2  1  1  0
  3  2  1  0
  4  3  1  0
  5  4  1  0
  5  6  1  6
  7  8  2  0
  7  5  1  0
  9 10  1  0
 10 20  2  0
 11 12  2  0
 11 10  1  0
 12 13  1  0
 13 14  1  0
 13 19  2  0
 15 14  1  1
 15 16  1  0
 16  7  1  0
 17 15  1  0
 18 17  2  0
 20 19  1  0
 22 24  1  0
 22 21  1  6
 23 22  1  0
 24 25  1  6
 25 17  1  0
 26 27  1  0
 26 24  1  0
 28 26  2  0
M  END
$$$$
