MYT.pdb
     RDKit          3D

 28 28  0  0  1  0  0  0  0  0999 V2000
    8.1017  -11.8042   18.4600 C   0  0  0  0  0  0  0  0  0  0  0  0
    7.8204  -12.5795   20.0540 S   0  0  0  0  0  0  0  0  0  0  0  0
    6.2287  -13.4488   20.0702 C   0  0  0  0  0  0  0  0  0  0  0  0
    6.0380  -14.0248   21.4612 C   0  0  0  0  0  0  0  0  0  0  0  0
    6.9453  -15.2287   21.6078 C   0  0  2  0  0  0  0  0  0  0  0  0
    6.2335  -16.3923   21.1017 N   0  0  0  0  0  0  0  0  0  0  0  0
    7.3298  -15.4810   22.9987 C   0  0  0  0  0  0  0  0  0  0  0  0
    6.5235  -15.2473   23.9581 O   0  0  0  0  0  0  0  0  0  0  0  0
   11.0890  -14.4774   30.5781 O   0  0  0  0  0  0  0  0  0  0  0  0
   10.4282  -14.7524   29.3879 C   0  0  0  0  0  0  0  0  0  0  0  0
    9.9376  -13.7633   28.5867 C   0  0  0  0  0  0  0  0  0  0  0  0
    9.2869  -14.0977   27.4103 C   0  0  0  0  0  0  0  0  0  0  0  0
    9.1150  -15.4071   27.0147 C   0  0  0  0  0  0  0  0  0  0  0  0
    8.4191  -15.7743   25.7567 C   0  0  0  0  0  0  0  0  0  0  0  0
    9.3140  -15.5091   24.5407 C   0  0  2  0  0  0  0  0  0  0  0  0
    8.5978  -15.9940   23.3953 N   0  0  0  0  0  0  0  0  0  0  0  0
   10.5979  -16.2135   24.7735 C   0  0  0  0  0  0  0  0  0  0  0  0
   10.8885  -16.8069   25.8415 O   0  0  0  0  0  0  0  0  0  0  0  0
    9.6226  -16.3812   27.8469 C   0  0  0  0  0  0  0  0  0  0  0  0
   10.2741  -16.0584   29.0241 C   0  0  0  0  0  0  0  0  0  0  0  0
   11.2841  -18.6221   21.6968 C   0  0  0  0  0  0  0  0  0  0  0  0
   12.4899  -17.7991   22.0677 C   0  0  1  0  0  0  0  0  0  0  0  0
   12.8028  -16.8444   21.1034 O   0  0  0  0  0  0  0  0  0  0  0  0
   12.4749  -17.2776   23.4526 C   0  0  2  0  0  0  0  0  0  0  0  0
   11.5656  -16.2352   23.7576 N   0  0  0  0  0  0  0  0  0  0  0  0
   13.8716  -16.9252   23.8414 C   0  0  0  0  0  0  0  0  0  0  0  0
   14.1869  -15.6447   24.2712 O   0  0  0  0  0  0  0  0  0  0  0  0
   14.7890  -17.7734   23.7892 O   0  0  0  0  0  0  0  0  0  0  0  0
  2  1  1  0
  3  2  1  0
  4  3  1  0
  5  4  1  0
  5  6  1  1
  7  8  2  0
  7  5  1  0
  9 10  1  0
 10 20  2  0
 11 12  2  0
 11 10  1  0
 12 13  1  0
 13 14  1  0
 13 19  2  0
 15 14  1  1
 15 16  1  0
 16  7  1  0
 17 15  1  0
 18 17  2  0
 20 19  1  0
 22 24  1  0
 22 21  1  6
 23 22  1  0
 24 25  1  6
 25 17  1  0
 26 27  1  0
 26 24  1  0
 28 26  2  0
M  END
$$$$
