MYT.pdb
     RDKit          3D

 28 28  0  0  1  0  0  0  0  0999 V2000
    7.0499  -12.5988   21.0443 C   0  0  0  0  0  0  0  0  0  0  0  0
    7.0648  -13.1962   19.3519 S   0  0  0  0  0  0  0  0  0  0  0  0
    7.0737  -15.0094   19.3140 C   0  0  0  0  0  0  0  0  0  0  0  0
    7.5481  -15.4915   20.6725 C   0  0  0  0  0  0  0  0  0  0  0  0
    8.9840  -15.0480   20.8616 C   0  0  2  0  0  0  0  0  0  0  0  0
    9.7939  -15.7016   19.8450 N   0  0  0  0  0  0  0  0  0  0  0  0
    9.5145  -15.3973   22.1818 C   0  0  0  0  0  0  0  0  0  0  0  0
   10.3430  -16.3553   22.3268 O   0  0  0  0  0  0  0  0  0  0  0  0
   10.7420  -15.4152   30.9404 O   0  0  0  0  0  0  0  0  0  0  0  0
   10.3566  -15.0706   29.6513 C   0  0  0  0  0  0  0  0  0  0  0  0
   10.9443  -14.0457   28.9692 C   0  0  0  0  0  0  0  0  0  0  0  0
   10.5182  -13.7475   27.6852 C   0  0  0  0  0  0  0  0  0  0  0  0
    9.5114  -14.4556   27.0643 C   0  0  0  0  0  0  0  0  0  0  0  0
    9.0485  -14.1427   25.6897 C   0  0  0  0  0  0  0  0  0  0  0  0
    9.6260  -15.1404   24.6792 C   0  0  2  0  0  0  0  0  0  0  0  0
    9.1658  -14.7213   23.3859 N   0  0  0  0  0  0  0  0  0  0  0  0
    9.1470  -16.4895   25.0655 C   0  0  0  0  0  0  0  0  0  0  0  0
    7.9349  -16.8116   25.1298 O   0  0  0  0  0  0  0  0  0  0  0  0
    8.9394  -15.4842   27.7812 C   0  0  0  0  0  0  0  0  0  0  0  0
    9.3572  -15.7906   29.0642 C   0  0  0  0  0  0  0  0  0  0  0  0
    9.0498  -19.6872   23.3859 C   0  0  0  0  0  0  0  0  0  0  0  0
   10.0456  -19.8085   24.5096 C   0  0  1  0  0  0  0  0  0  0  0  0
   11.3607  -19.8641   24.0550 O   0  0  0  0  0  0  0  0  0  0  0  0
    9.8309  -18.8600   25.6252 C   0  0  2  0  0  0  0  0  0  0  0  0
   10.0813  -17.4868   25.3841 N   0  0  0  0  0  0  0  0  0  0  0  0
   10.5746  -19.3569   26.8194 C   0  0  0  0  0  0  0  0  0  0  0  0
   11.5940  -18.6048   27.3841 O   0  0  0  0  0  0  0  0  0  0  0  0
   10.2974  -20.4604   27.3386 O   0  0  0  0  0  0  0  0  0  0  0  0
  2  1  1  0
  3  2  1  0
  4  3  1  0
  5  4  1  0
  5  6  1  6
  7  8  2  0
  7  5  1  0
  9 10  1  0
 10 20  2  0
 11 12  2  0
 11 10  1  0
 12 13  1  0
 13 14  1  0
 13 19  2  0
 15 14  1  1
 15 16  1  0
 16  7  1  0
 17 15  1  0
 18 17  2  0
 20 19  1  0
 22 24  1  0
 22 21  1  6
 23 22  1  0
 24 25  1  6
 25 17  1  0
 26 27  1  0
 26 24  1  0
 28 26  2  0
M  END
$$$$
