MYT.pdb
     RDKit          3D

 28 28  0  0  1  0  0  0  0  0999 V2000
    8.0324  -11.3869   20.1576 C   0  0  0  0  0  0  0  0  0  0  0  0
    7.5564  -12.5120   18.8429 S   0  0  0  0  0  0  0  0  0  0  0  0
    7.9114  -14.2281   19.3103 C   0  0  0  0  0  0  0  0  0  0  0  0
    8.6331  -14.1971   20.6450 C   0  0  0  0  0  0  0  0  0  0  0  0
    8.9595  -15.6212   21.0443 C   0  0  2  0  0  0  0  0  0  0  0  0
    7.7874  -16.4418   20.7806 N   0  0  0  0  0  0  0  0  0  0  0  0
    9.3110  -15.7448   22.4611 C   0  0  0  0  0  0  0  0  0  0  0  0
   10.4254  -15.3120   22.9039 O   0  0  0  0  0  0  0  0  0  0  0  0
    6.8554  -10.7542   26.7530 O   0  0  0  0  0  0  0  0  0  0  0  0
    7.0017  -12.1019   26.4508 C   0  0  0  0  0  0  0  0  0  0  0  0
    6.2555  -12.7129   25.4861 C   0  0  0  0  0  0  0  0  0  0  0  0
    6.4453  -14.0607   25.2281 C   0  0  0  0  0  0  0  0  0  0  0  0
    7.3703  -14.8156   25.9172 C   0  0  0  0  0  0  0  0  0  0  0  0
    7.5798  -16.2597   25.6477 C   0  0  0  0  0  0  0  0  0  0  0  0
    8.8504  -16.4813   24.8193 C   0  0  2  0  0  0  0  0  0  0  0  0
    8.4682  -16.3396   23.4431 N   0  0  0  0  0  0  0  0  0  0  0  0
    9.3655  -17.8317   25.1509 C   0  0  0  0  0  0  0  0  0  0  0  0
    8.7434  -18.8969   24.9152 O   0  0  0  0  0  0  0  0  0  0  0  0
    8.1071  -14.1674   26.8847 C   0  0  0  0  0  0  0  0  0  0  0  0
    7.9257  -12.8217   27.1507 C   0  0  0  0  0  0  0  0  0  0  0  0
   12.5651  -19.4948   23.8989 C   0  0  0  0  0  0  0  0  0  0  0  0
   12.6332  -19.3618   25.3977 C   0  0  1  0  0  0  0  0  0  0  0  0
   13.6255  -18.4767   25.8114 O   0  0  0  0  0  0  0  0  0  0  0  0
   11.3240  -19.1529   26.0556 C   0  0  2  0  0  0  0  0  0  0  0  0
   10.6205  -17.9582   25.7657 N   0  0  0  0  0  0  0  0  0  0  0  0
   11.4947  -19.3522   27.5244 C   0  0  0  0  0  0  0  0  0  0  0  0
   11.9231  -20.5707   28.0300 O   0  0  0  0  0  0  0  0  0  0  0  0
   11.2563  -18.4282   28.3326 O   0  0  0  0  0  0  0  0  0  0  0  0
  2  1  1  0
  3  2  1  0
  4  3  1  0
  5  4  1  0
  5  6  1  1
  7  8  2  0
  7  5  1  0
  9 10  1  0
 10 20  2  0
 11 12  2  0
 11 10  1  0
 12 13  1  0
 13 14  1  0
 13 19  2  0
 15 14  1  1
 15 16  1  0
 16  7  1  0
 17 15  1  0
 18 17  2  0
 20 19  1  0
 22 24  1  0
 22 21  1  6
 23 22  1  0
 24 25  1  1
 25 17  1  0
 26 27  1  0
 26 24  1  0
 28 26  2  0
M  END
$$$$
