MYT.pdb
     RDKit          3D

 28 28  0  0  1  0  0  0  0  0999 V2000
    7.9022  -14.6525   16.2927 C   0  0  0  0  0  0  0  0  0  0  0  0
    6.5909  -13.9558   17.3008 S   0  0  0  0  0  0  0  0  0  0  0  0
    6.4666  -14.8328   18.8834 C   0  0  0  0  0  0  0  0  0  0  0  0
    7.8227  -14.7477   19.5594 C   0  0  0  0  0  0  0  0  0  0  0  0
    7.8213  -13.5470   20.4827 C   0  0  2  0  0  0  0  0  0  0  0  0
    8.4094  -12.4269   19.7642 N   0  0  0  0  0  0  0  0  0  0  0  0
    8.5905  -13.7754   21.7084 C   0  0  0  0  0  0  0  0  0  0  0  0
    9.8629  -13.6982   21.7121 O   0  0  0  0  0  0  0  0  0  0  0  0
   10.6698  -15.5419   30.1013 O   0  0  0  0  0  0  0  0  0  0  0  0
   10.0203  -15.1467   28.9390 C   0  0  0  0  0  0  0  0  0  0  0  0
   10.1059  -13.8727   28.4590 C   0  0  0  0  0  0  0  0  0  0  0  0
    9.4361  -13.5359   27.2940 C   0  0  0  0  0  0  0  0  0  0  0  0
    8.6781  -14.4503   26.5940 C   0  0  0  0  0  0  0  0  0  0  0  0
    7.9572  -14.0980   25.3459 C   0  0  0  0  0  0  0  0  0  0  0  0
    8.7820  -14.4825   24.1124 C   0  0  2  0  0  0  0  0  0  0  0  0
    8.0075  -14.0939   22.9682 N   0  0  0  0  0  0  0  0  0  0  0  0
    9.0333  -15.9421   24.1848 C   0  0  0  0  0  0  0  0  0  0  0  0
    8.1258  -16.8101   24.1976 O   0  0  0  0  0  0  0  0  0  0  0  0
    8.6130  -15.7279   27.1064 C   0  0  0  0  0  0  0  0  0  0  0  0
    9.2779  -16.0751   28.2691 C   0  0  0  0  0  0  0  0  0  0  0  0
   10.4081  -18.5318   21.9278 C   0  0  0  0  0  0  0  0  0  0  0  0
   11.3842  -18.3319   23.0575 C   0  0  1  0  0  0  0  0  0  0  0  0
   12.5579  -17.7059   22.6454 O   0  0  0  0  0  0  0  0  0  0  0  0
   10.7919  -17.7579   24.2863 C   0  0  2  0  0  0  0  0  0  0  0  0
   10.3544  -16.4113   24.2437 N   0  0  0  0  0  0  0  0  0  0  0  0
   11.7291  -17.9998   25.4217 C   0  0  0  0  0  0  0  0  0  0  0  0
   12.0710  -19.2906   25.7969 O   0  0  0  0  0  0  0  0  0  0  0  0
   12.2276  -17.0473   26.0606 O   0  0  0  0  0  0  0  0  0  0  0  0
  2  1  1  0
  3  2  1  0
  4  3  1  0
  5  4  1  0
  5  6  1  6
  7  8  2  0
  7  5  1  0
  9 10  1  0
 10 20  2  0
 11 12  2  0
 11 10  1  0
 12 13  1  0
 13 14  1  0
 13 19  2  0
 15 14  1  1
 15 16  1  0
 16  7  1  0
 17 15  1  0
 18 17  2  0
 20 19  1  0
 22 24  1  0
 22 21  1  6
 23 22  1  0
 24 25  1  6
 25 17  1  0
 26 27  1  0
 26 24  1  0
 28 26  2  0
M  END
$$$$
