MYT.pdb
     RDKit          3D

 28 28  0  0  1  0  0  0  0  0999 V2000
    8.9230  -16.9176   17.1007 C   0  0  0  0  0  0  0  0  0  0  0  0
    7.7387  -15.7147   16.4914 S   0  0  0  0  0  0  0  0  0  0  0  0
    7.5670  -14.3381   17.6596 C   0  0  0  0  0  0  0  0  0  0  0  0
    8.3135  -14.7182   18.9250 C   0  0  0  0  0  0  0  0  0  0  0  0
    7.9674  -13.7128   20.0037 C   0  0  2  0  0  0  0  0  0  0  0  0
    8.5521  -12.4339   19.6303 N   0  0  0  0  0  0  0  0  0  0  0  0
    8.4803  -14.0976   21.3209 C   0  0  0  0  0  0  0  0  0  0  0  0
    9.6541  -13.7679   21.6933 O   0  0  0  0  0  0  0  0  0  0  0  0
    6.3242  -10.4434   27.1509 O   0  0  0  0  0  0  0  0  0  0  0  0
    6.5628  -11.6591   26.5232 C   0  0  0  0  0  0  0  0  0  0  0  0
    7.7209  -12.3555   26.7097 C   0  0  0  0  0  0  0  0  0  0  0  0
    7.9034  -13.5636   26.0568 C   0  0  0  0  0  0  0  0  0  0  0  0
    6.9478  -14.0942   25.2166 C   0  0  0  0  0  0  0  0  0  0  0  0
    7.1352  -15.3871   24.5131 C   0  0  0  0  0  0  0  0  0  0  0  0
    8.2986  -15.3033   23.5184 C   0  0  2  0  0  0  0  0  0  0  0  0
    7.7396  -14.8505   22.2764 N   0  0  0  0  0  0  0  0  0  0  0  0
    8.9064  -16.6532   23.4328 C   0  0  0  0  0  0  0  0  0  0  0  0
    8.3103  -17.6635   22.9842 O   0  0  0  0  0  0  0  0  0  0  0  0
    5.7901  -13.3654   25.0506 C   0  0  0  0  0  0  0  0  0  0  0  0
    5.5974  -12.1576   25.6977 C   0  0  0  0  0  0  0  0  0  0  0  0
   11.9428  -17.8800   21.5011 C   0  0  0  0  0  0  0  0  0  0  0  0
   12.2053  -18.0405   22.9756 C   0  0  1  0  0  0  0  0  0  0  0  0
   13.2193  -17.2025   23.4325 O   0  0  0  0  0  0  0  0  0  0  0  0
   10.9897  -18.0350   23.8199 C   0  0  2  0  0  0  0  0  0  0  0  0
   10.2253  -16.8437   23.8720 N   0  0  0  0  0  0  0  0  0  0  0  0
   11.3576  -18.5168   25.1832 C   0  0  0  0  0  0  0  0  0  0  0  0
   11.8595  -19.7959   25.3723 O   0  0  0  0  0  0  0  0  0  0  0  0
   11.2227  -17.7810   26.1854 O   0  0  0  0  0  0  0  0  0  0  0  0
  2  1  1  0
  3  2  1  0
  4  3  1  0
  5  4  1  0
  5  6  1  6
  7  8  2  0
  7  5  1  0
  9 10  1  0
 10 20  2  0
 11 12  2  0
 11 10  1  0
 12 13  1  0
 13 14  1  0
 13 19  2  0
 15 14  1  1
 15 16  1  0
 16  7  1  0
 17 15  1  0
 18 17  2  0
 20 19  1  0
 22 24  1  0
 22 21  1  6
 23 22  1  0
 24 25  1  1
 25 17  1  0
 26 27  1  0
 26 24  1  0
 28 26  2  0
M  END
$$$$
