ENY.pdb
     RDKit          3D

 30 30  0  0  1  0  0  0  0  0999 V2000
   11.4028  -16.2608   17.1987 N   0  0  0  0  0  0  0  0  0  0  0  0
    9.9428  -15.9941   17.1578 C   0  0  1  0  0  0  0  0  0  0  0  0
    9.4211  -16.5889   15.8706 C   0  0  0  0  0  0  0  0  0  0  0  0
   10.4459  -17.2263   15.0016 C   0  0  0  0  0  0  0  0  0  0  0  0
    9.7691  -17.7793   13.7765 C   0  0  0  0  0  0  0  0  0  0  0  0
    9.8394  -19.0116   13.5731 O   0  0  0  0  0  0  0  0  0  0  0  0
    9.3894  -16.5723   18.3755 C   0  0  0  0  0  0  0  0  0  0  0  0
    8.1279  -16.5698   18.6045 O   0  0  0  0  0  0  0  0  0  0  0  0
    9.0800  -16.9978   12.8739 O   0  0  0  0  0  0  0  0  0  0  0  0
    8.4737  -20.4859   22.1762 N   0  0  0  0  0  0  0  0  0  0  0  0
    9.6745  -19.6744   22.1324 C   0  0  0  0  0  0  0  0  0  0  0  0
   10.2273  -19.5365   23.2538 O   0  0  0  0  0  0  0  0  0  0  0  0
   10.1563  -19.0930   20.8760 C   0  0  0  0  0  0  0  0  0  0  0  0
    9.5157  -17.7897   20.5825 C   0  0  2  0  0  0  0  0  0  0  0  0
   10.1442  -17.1935   19.4276 N   0  0  0  0  0  0  0  0  0  0  0  0
    9.4809  -16.8633   21.7394 C   0  0  0  0  0  0  0  0  0  0  0  0
   10.5806  -16.3922   22.1334 O   0  0  0  0  0  0  0  0  0  0  0  0
    6.6470  -11.0976   27.7023 O   0  0  0  0  0  0  0  0  0  0  0  0
    6.8033  -11.9343   26.6029 C   0  0  0  0  0  0  0  0  0  0  0  0
    6.1485  -13.1521   26.6524 C   0  0  0  0  0  0  0  0  0  0  0  0
    6.2740  -14.0209   25.5792 C   0  0  0  0  0  0  0  0  0  0  0  0
    7.0376  -13.6772   24.4828 C   0  0  0  0  0  0  0  0  0  0  0  0
    7.1510  -14.6365   23.3636 C   0  0  0  0  0  0  0  0  0  0  0  0
    8.3606  -15.5252   23.5113 C   0  0  2  0  0  0  0  0  0  0  0  0
    8.3142  -16.4863   22.4105 N   0  0  0  0  0  0  0  0  0  0  0  0
    8.4164  -16.2531   24.7824 C   0  0  0  0  0  0  0  0  0  0  0  0
    9.2100  -15.7890   25.8095 O   0  0  0  0  0  0  0  0  0  0  0  0
    7.6811  -12.4611   24.4534 C   0  0  0  0  0  0  0  0  0  0  0  0
    7.5615  -11.5869   25.5203 C   0  0  0  0  0  0  0  0  0  0  0  0
    7.7467  -17.2959   24.9416 O   0  0  0  0  0  0  0  0  0  0  0  0
  2  1  1  1
  2  3  1  0
  3  4  1  0
  4  5  1  0
  5  6  2  0
  5  9  1  0
  7  8  2  0
  7  2  1  0
 10 11  1  0
 11 12  2  0
 11 13  1  0
 14 13  1  1
 14 15  1  0
 15  7  1  0
 16 25  1  0
 16 14  1  0
 17 16  2  0
 19 18  1  0
 20 19  2  0
 21 20  1  0
 22 21  2  0
 22 28  1  0
 24 23  1  1
 23 22  1  0
 24 26  1  0
 24 25  1  0
 26 27  1  0
 28 29  2  0
 29 19  1  0
 30 26  2  0
M  END
$$$$
