ENY.pdb
     RDKit          3D

 30 30  0  0  1  0  0  0  0  0999 V2000
    8.8275  -12.7289   18.4280 N   0  0  0  0  0  0  0  0  0  0  0  0
    7.7864  -13.7682   18.6285 C   0  0  1  0  0  0  0  0  0  0  0  0
    7.4163  -14.2924   17.2607 C   0  0  0  0  0  0  0  0  0  0  0  0
    8.5317  -14.9013   16.4881 C   0  0  0  0  0  0  0  0  0  0  0  0
    7.9753  -15.5148   15.2317 C   0  0  0  0  0  0  0  0  0  0  0  0
    7.7533  -14.7604   14.2588 O   0  0  0  0  0  0  0  0  0  0  0  0
    8.3642  -14.7537   19.5331 C   0  0  0  0  0  0  0  0  0  0  0  0
    7.6992  -15.7799   19.9184 O   0  0  0  0  0  0  0  0  0  0  0  0
    7.7003  -16.8595   15.1029 O   0  0  0  0  0  0  0  0  0  0  0  0
   10.7064  -18.0452   19.5273 N   0  0  0  0  0  0  0  0  0  0  0  0
   11.7197  -17.0271   19.7252 C   0  0  0  0  0  0  0  0  0  0  0  0
   12.6900  -17.1249   18.9308 O   0  0  0  0  0  0  0  0  0  0  0  0
   11.5795  -16.0039   20.7654 C   0  0  0  0  0  0  0  0  0  0  0  0
   10.1603  -15.6820   21.0436 C   0  0  2  0  0  0  0  0  0  0  0  0
    9.6898  -14.7111   20.0842 N   0  0  0  0  0  0  0  0  0  0  0  0
    9.9034  -15.2563   22.4401 C   0  0  0  0  0  0  0  0  0  0  0  0
    9.6593  -14.0360   22.6348 O   0  0  0  0  0  0  0  0  0  0  0  0
    6.5492  -10.6912   27.5701 O   0  0  0  0  0  0  0  0  0  0  0  0
    6.9261  -11.8330   26.8718 C   0  0  0  0  0  0  0  0  0  0  0  0
    6.4993  -11.9261   25.5590 C   0  0  0  0  0  0  0  0  0  0  0  0
    6.8503  -13.0466   24.8216 C   0  0  0  0  0  0  0  0  0  0  0  0
    7.6109  -14.0494   25.3865 C   0  0  0  0  0  0  0  0  0  0  0  0
    7.9560  -15.2304   24.5670 C   0  0  0  0  0  0  0  0  0  0  0  0
    9.3661  -15.6974   24.8281 C   0  0  2  0  0  0  0  0  0  0  0  0
    9.9157  -16.1184   23.5403 N   0  0  0  0  0  0  0  0  0  0  0  0
    9.4616  -16.8098   25.7779 C   0  0  0  0  0  0  0  0  0  0  0  0
    9.8881  -18.0487   25.3496 O   0  0  0  0  0  0  0  0  0  0  0  0
    8.0252  -13.9374   26.6941 C   0  0  0  0  0  0  0  0  0  0  0  0
    7.6797  -12.8223   27.4383 C   0  0  0  0  0  0  0  0  0  0  0  0
    9.1575  -16.6418   26.9781 O   0  0  0  0  0  0  0  0  0  0  0  0
  2  1  1  6
  2  3  1  0
  3  4  1  0
  4  5  1  0
  5  6  2  0
  5  9  1  0
  7  8  2  0
  7  2  1  0
 10 11  1  0
 11 12  2  0
 11 13  1  0
 14 13  1  1
 14 15  1  0
 15  7  1  0
 16 25  1  0
 16 14  1  0
 17 16  2  0
 19 18  1  0
 20 19  2  0
 21 20  1  0
 22 21  2  0
 22 28  1  0
 24 23  1  6
 23 22  1  0
 24 26  1  0
 24 25  1  0
 26 27  1  0
 28 29  2  0
 29 19  1  0
 30 26  2  0
M  END
$$$$
