ENY.pdb
     RDKit          3D

 30 30  0  0  1  0  0  0  0  0999 V2000
    8.5232  -12.8379   19.4715 N   0  0  0  0  0  0  0  0  0  0  0  0
    8.8099  -14.2876   19.3283 C   0  0  1  0  0  0  0  0  0  0  0  0
   10.2992  -14.4242   19.1135 C   0  0  0  0  0  0  0  0  0  0  0  0
   11.1099  -13.2373   19.4955 C   0  0  0  0  0  0  0  0  0  0  0  0
   12.5686  -13.5786   19.3542 C   0  0  0  0  0  0  0  0  0  0  0  0
   13.0697  -13.5497   18.2084 O   0  0  0  0  0  0  0  0  0  0  0  0
    8.2979  -14.9246   20.5347 C   0  0  0  0  0  0  0  0  0  0  0  0
    7.6789  -14.2537   21.4349 O   0  0  0  0  0  0  0  0  0  0  0  0
   13.3736  -13.9194   20.4201 O   0  0  0  0  0  0  0  0  0  0  0  0
    7.3062  -19.0051   19.4147 N   0  0  0  0  0  0  0  0  0  0  0  0
    6.7275  -18.5449   20.6619 C   0  0  0  0  0  0  0  0  0  0  0  0
    5.4830  -18.3714   20.6030 O   0  0  0  0  0  0  0  0  0  0  0  0
    7.5565  -18.3187   21.8495 C   0  0  0  0  0  0  0  0  0  0  0  0
    7.8446  -16.8811   22.0631 C   0  0  2  0  0  0  0  0  0  0  0  0
    8.4097  -16.3192   20.8592 N   0  0  0  0  0  0  0  0  0  0  0  0
    8.6837  -16.6070   23.2541 C   0  0  0  0  0  0  0  0  0  0  0  0
    9.9276  -16.5223   23.0752 O   0  0  0  0  0  0  0  0  0  0  0  0
    6.2863  -10.4874   25.7055 O   0  0  0  0  0  0  0  0  0  0  0  0
    6.8212  -11.7440   25.9668 C   0  0  0  0  0  0  0  0  0  0  0  0
    5.9190  -12.7595   26.2295 C   0  0  0  0  0  0  0  0  0  0  0  0
    6.4047  -14.0306   26.4959 C   0  0  0  0  0  0  0  0  0  0  0  0
    7.7620  -14.2777   26.4987 C   0  0  0  0  0  0  0  0  0  0  0  0
    8.2372  -15.6457   26.7954 C   0  0  0  0  0  0  0  0  0  0  0  0
    9.0822  -16.1978   25.6747 C   0  0  2  0  0  0  0  0  0  0  0  0
    8.1822  -16.4389   24.5479 N   0  0  0  0  0  0  0  0  0  0  0  0
    9.7785  -17.4437   26.0084 C   0  0  0  0  0  0  0  0  0  0  0  0
   10.8077  -17.4352   26.9253 O   0  0  0  0  0  0  0  0  0  0  0  0
    8.6426  -13.2535   26.2351 C   0  0  0  0  0  0  0  0  0  0  0  0
    8.1671  -11.9810   25.9680 C   0  0  0  0  0  0  0  0  0  0  0  0
    9.4440  -18.5178   25.4647 O   0  0  0  0  0  0  0  0  0  0  0  0
  2  1  1  1
  2  3  1  0
  3  4  1  0
  4  5  1  0
  5  6  2  0
  5  9  1  0
  7  8  2  0
  7  2  1  0
 10 11  1  0
 11 12  2  0
 11 13  1  0
 14 13  1  6
 14 15  1  0
 15  7  1  0
 16 25  1  0
 16 14  1  0
 17 16  2  0
 19 18  1  0
 20 19  2  0
 21 20  1  0
 22 21  2  0
 22 28  1  0
 24 23  1  1
 23 22  1  0
 24 26  1  0
 24 25  1  0
 26 27  1  0
 28 29  2  0
 29 19  1  0
 30 26  2  0
M  END
$$$$
