ENY.pdb
     RDKit          3D

 30 30  0  0  1  0  0  0  0  0999 V2000
    9.8480  -18.5101   17.8580 N   0  0  0  0  0  0  0  0  0  0  0  0
   10.4074  -18.5656   19.2323 C   0  0  1  0  0  0  0  0  0  0  0  0
   11.8669  -18.9330   19.1005 C   0  0  0  0  0  0  0  0  0  0  0  0
   12.2160  -19.7372   17.8991 C   0  0  0  0  0  0  0  0  0  0  0  0
   13.6411  -19.4444   17.5149 C   0  0  0  0  0  0  0  0  0  0  0  0
   14.5071  -19.4591   18.4175 O   0  0  0  0  0  0  0  0  0  0  0  0
   10.1490  -17.2618   19.8295 C   0  0  0  0  0  0  0  0  0  0  0  0
   10.5578  -16.1795   19.2771 O   0  0  0  0  0  0  0  0  0  0  0  0
   14.0351  -19.1626   16.2243 O   0  0  0  0  0  0  0  0  0  0  0  0
    7.9731  -12.8125   21.2356 N   0  0  0  0  0  0  0  0  0  0  0  0
    7.4391  -14.0109   21.8529 C   0  0  0  0  0  0  0  0  0  0  0  0
    6.6966  -13.7773   22.8410 O   0  0  0  0  0  0  0  0  0  0  0  0
    7.7636  -15.3439   21.3368 C   0  0  0  0  0  0  0  0  0  0  0  0
    9.1851  -15.6974   21.5594 C   0  0  2  0  0  0  0  0  0  0  0  0
    9.4357  -17.0262   21.0536 N   0  0  0  0  0  0  0  0  0  0  0  0
    9.6297  -15.5424   22.9651 C   0  0  0  0  0  0  0  0  0  0  0  0
   10.7229  -14.9484   23.1615 O   0  0  0  0  0  0  0  0  0  0  0  0
    5.6196  -10.8351   25.9542 O   0  0  0  0  0  0  0  0  0  0  0  0
    6.3220  -12.0294   26.0718 C   0  0  0  0  0  0  0  0  0  0  0  0
    5.6572  -13.1801   25.6869 C   0  0  0  0  0  0  0  0  0  0  0  0
    6.3165  -14.3958   25.7858 C   0  0  0  0  0  0  0  0  0  0  0  0
    7.6109  -14.4565   26.2592 C   0  0  0  0  0  0  0  0  0  0  0  0
    8.2740  -15.7743   26.3557 C   0  0  0  0  0  0  0  0  0  0  0  0
    9.4558  -15.8735   25.4240 C   0  0  2  0  0  0  0  0  0  0  0  0
    8.9161  -16.0107   24.0721 N   0  0  0  0  0  0  0  0  0  0  0  0
   10.3446  -17.0050   25.7035 C   0  0  0  0  0  0  0  0  0  0  0  0
   10.1116  -18.2284   25.1128 O   0  0  0  0  0  0  0  0  0  0  0  0
    8.2543  -13.3001   26.6371 C   0  0  0  0  0  0  0  0  0  0  0  0
    7.6041  -12.0815   26.5418 C   0  0  0  0  0  0  0  0  0  0  0  0
   11.3161  -16.8673   26.4772 O   0  0  0  0  0  0  0  0  0  0  0  0
  2  1  1  6
  2  3  1  0
  3  4  1  0
  4  5  1  0
  5  6  2  0
  5  9  1  0
  7  8  2  0
  7  2  1  0
 10 11  1  0
 11 12  2  0
 11 13  1  0
 14 13  1  1
 14 15  1  0
 15  7  1  0
 16 25  1  0
 16 14  1  0
 17 16  2  0
 19 18  1  0
 20 19  2  0
 21 20  1  0
 22 21  2  0
 22 28  1  0
 24 23  1  1
 23 22  1  0
 24 26  1  0
 24 25  1  0
 26 27  1  0
 28 29  2  0
 29 19  1  0
 30 26  2  0
M  END
$$$$
