ENY.pdb
     RDKit          3D

 30 30  0  0  1  0  0  0  0  0999 V2000
    7.6462  -17.6239   20.1464 N   0  0  0  0  0  0  0  0  0  0  0  0
    8.2663  -18.4522   21.2112 C   0  0  1  0  0  0  0  0  0  0  0  0
    9.7541  -18.4675   20.9488 C   0  0  0  0  0  0  0  0  0  0  0  0
   10.3956  -17.1304   20.8376 C   0  0  0  0  0  0  0  0  0  0  0  0
   11.8693  -17.3163   20.5967 C   0  0  0  0  0  0  0  0  0  0  0  0
   12.2923  -17.1949   19.4258 O   0  0  0  0  0  0  0  0  0  0  0  0
    7.8675  -17.8518   22.4776 C   0  0  0  0  0  0  0  0  0  0  0  0
    7.6849  -16.5879   22.5912 O   0  0  0  0  0  0  0  0  0  0  0  0
   12.7692  -17.6120   21.5983 O   0  0  0  0  0  0  0  0  0  0  0  0
    7.1748  -21.1049   25.1709 N   0  0  0  0  0  0  0  0  0  0  0  0
    6.9138  -20.0171   26.0933 C   0  0  0  0  0  0  0  0  0  0  0  0
    7.2957  -20.2538   27.2682 O   0  0  0  0  0  0  0  0  0  0  0  0
    6.2642  -18.7803   25.6494 C   0  0  0  0  0  0  0  0  0  0  0  0
    7.1947  -17.8960   24.9096 C   0  0  2  0  0  0  0  0  0  0  0  0
    7.6347  -18.5597   23.7054 N   0  0  0  0  0  0  0  0  0  0  0  0
    8.3322  -17.4052   25.7238 C   0  0  0  0  0  0  0  0  0  0  0  0
    9.4766  -17.8491   25.4413 O   0  0  0  0  0  0  0  0  0  0  0  0
    6.2481  -11.5190   24.1765 O   0  0  0  0  0  0  0  0  0  0  0  0
    6.8806  -12.2773   25.1554 C   0  0  0  0  0  0  0  0  0  0  0  0
    8.1809  -12.6698   24.8919 C   0  0  0  0  0  0  0  0  0  0  0  0
    8.8536  -13.4275   25.8383 C   0  0  0  0  0  0  0  0  0  0  0  0
    8.2376  -13.7832   27.0204 C   0  0  0  0  0  0  0  0  0  0  0  0
    8.9884  -14.5985   27.9987 C   0  0  0  0  0  0  0  0  0  0  0  0
    9.3976  -15.9291   27.4184 C   0  0  2  0  0  0  0  0  0  0  0  0
    8.2114  -16.4901   26.7734 N   0  0  0  0  0  0  0  0  0  0  0  0
    9.9025  -16.8840   28.4093 C   0  0  0  0  0  0  0  0  0  0  0  0
   11.0685  -16.6167   29.0941 O   0  0  0  0  0  0  0  0  0  0  0  0
    6.9434  -13.3828   27.2630 C   0  0  0  0  0  0  0  0  0  0  0  0
    6.2638  -12.6258   26.3240 C   0  0  0  0  0  0  0  0  0  0  0  0
    9.2803  -17.9432   28.6380 O   0  0  0  0  0  0  0  0  0  0  0  0
  2  1  1  6
  2  3  1  0
  3  4  1  0
  4  5  1  0
  5  6  2  0
  5  9  1  0
  7  8  2  0
  7  2  1  0
 10 11  1  0
 11 12  2  0
 11 13  1  0
 14 13  1  1
 14 15  1  0
 15  7  1  0
 16 25  1  0
 16 14  1  0
 17 16  2  0
 19 18  1  0
 20 19  2  0
 21 20  1  0
 22 21  2  0
 22 28  1  0
 24 23  1  1
 23 22  1  0
 24 26  1  0
 24 25  1  0
 26 27  1  0
 28 29  2  0
 29 19  1  0
 30 26  2  0
M  END
$$$$
