ENY.pdb
     RDKit          3D

 30 30  0  0  1  0  0  0  0  0999 V2000
    8.1839  -19.3422   21.4088 N   0  0  0  0  0  0  0  0  0  0  0  0
    9.5735  -19.8615   21.4688 C   0  0  1  0  0  0  0  0  0  0  0  0
    9.9126  -20.3766   20.0895 C   0  0  0  0  0  0  0  0  0  0  0  0
    9.5006  -19.4986   18.9620 C   0  0  0  0  0  0  0  0  0  0  0  0
    9.8728  -20.1651   17.6652 C   0  0  0  0  0  0  0  0  0  0  0  0
    9.2421  -21.1925   17.3314 O   0  0  0  0  0  0  0  0  0  0  0  0
   10.4006  -18.7571   21.9373 C   0  0  0  0  0  0  0  0  0  0  0  0
   11.6537  -18.9078   22.1628 O   0  0  0  0  0  0  0  0  0  0  0  0
   10.8689  -19.7004   16.8333 O   0  0  0  0  0  0  0  0  0  0  0  0
    8.7225  -15.6892   21.2158 N   0  0  0  0  0  0  0  0  0  0  0  0
    9.9561  -14.9294   21.2711 C   0  0  0  0  0  0  0  0  0  0  0  0
    9.9869  -13.9646   20.4647 O   0  0  0  0  0  0  0  0  0  0  0  0
   11.0341  -15.2920   22.1959 C   0  0  0  0  0  0  0  0  0  0  0  0
   10.6982  -16.4886   23.0024 C   0  0  2  0  0  0  0  0  0  0  0  0
    9.9466  -17.4189   22.1937 N   0  0  0  0  0  0  0  0  0  0  0  0
   10.0125  -16.1791   24.2798 C   0  0  0  0  0  0  0  0  0  0  0  0
   10.4197  -15.1762   24.9239 O   0  0  0  0  0  0  0  0  0  0  0  0
    6.7763  -10.7903   25.7442 O   0  0  0  0  0  0  0  0  0  0  0  0
    6.8743  -12.1751   25.8230 C   0  0  0  0  0  0  0  0  0  0  0  0
    6.8799  -12.7250   27.0925 C   0  0  0  0  0  0  0  0  0  0  0  0
    6.9758  -14.1021   27.2223 C   0  0  0  0  0  0  0  0  0  0  0  0
    7.0641  -14.9084   26.1063 C   0  0  0  0  0  0  0  0  0  0  0  0
    7.1728  -16.3712   26.2901 C   0  0  0  0  0  0  0  0  0  0  0  0
    8.6058  -16.8368   26.2225 C   0  0  2  0  0  0  0  0  0  0  0  0
    8.9536  -16.9251   24.8052 N   0  0  0  0  0  0  0  0  0  0  0  0
    8.8431  -18.1365   26.8573 C   0  0  0  0  0  0  0  0  0  0  0  0
    8.9389  -18.2276   28.2294 O   0  0  0  0  0  0  0  0  0  0  0  0
    7.0571  -14.3413   24.8523 C   0  0  0  0  0  0  0  0  0  0  0  0
    6.9615  -12.9672   24.7129 C   0  0  0  0  0  0  0  0  0  0  0  0
    8.9596  -19.1667   26.1599 O   0  0  0  0  0  0  0  0  0  0  0  0
  2  1  1  6
  2  3  1  0
  3  4  1  0
  4  5  1  0
  5  6  2  0
  5  9  1  0
  7  8  2  0
  7  2  1  0
 10 11  1  0
 11 12  2  0
 11 13  1  0
 14 13  1  6
 14 15  1  0
 15  7  1  0
 16 25  1  0
 16 14  1  0
 17 16  2  0
 19 18  1  0
 20 19  2  0
 21 20  1  0
 22 21  2  0
 22 28  1  0
 24 23  1  6
 23 22  1  0
 24 26  1  0
 24 25  1  0
 26 27  1  0
 28 29  2  0
 29 19  1  0
 30 26  2  0
M  END
$$$$
