ENY.pdb
     RDKit          3D

 30 30  0  0  1  0  0  0  0  0999 V2000
   10.1224  -18.3207   18.6013 N   0  0  0  0  0  0  0  0  0  0  0  0
   10.2501  -18.4695   20.0730 C   0  0  1  0  0  0  0  0  0  0  0  0
   11.7245  -18.5950   20.3781 C   0  0  0  0  0  0  0  0  0  0  0  0
   12.6229  -18.5954   19.1929 C   0  0  0  0  0  0  0  0  0  0  0  0
   14.0413  -18.7868   19.6577 C   0  0  0  0  0  0  0  0  0  0  0  0
   14.2526  -18.8432   20.8894 O   0  0  0  0  0  0  0  0  0  0  0  0
    9.5941  -17.3071   20.6578 C   0  0  0  0  0  0  0  0  0  0  0  0
   10.0427  -16.1207   20.4711 O   0  0  0  0  0  0  0  0  0  0  0  0
   15.1116  -18.9022   18.7966 O   0  0  0  0  0  0  0  0  0  0  0  0
    4.3440  -17.7735   22.0576 N   0  0  0  0  0  0  0  0  0  0  0  0
    5.7244  -17.4086   22.3095 C   0  0  0  0  0  0  0  0  0  0  0  0
    6.3228  -18.2089   23.0734 O   0  0  0  0  0  0  0  0  0  0  0  0
    6.3187  -16.2114   21.7075 C   0  0  0  0  0  0  0  0  0  0  0  0
    7.7773  -16.1286   21.9538 C   0  0  2  0  0  0  0  0  0  0  0  0
    8.4152  -17.3331   21.4777 N   0  0  0  0  0  0  0  0  0  0  0  0
    8.1329  -15.8278   23.3612 C   0  0  0  0  0  0  0  0  0  0  0  0
    7.7179  -14.7393   23.8403 O   0  0  0  0  0  0  0  0  0  0  0  0
    6.3535  -10.6925   26.4416 O   0  0  0  0  0  0  0  0  0  0  0  0
    6.7880  -12.0133   26.4396 C   0  0  0  0  0  0  0  0  0  0  0  0
    6.1151  -12.8861   25.6031 C   0  0  0  0  0  0  0  0  0  0  0  0
    6.5122  -14.2141   25.5663 C   0  0  0  0  0  0  0  0  0  0  0  0
    7.5586  -14.6563   26.3491 C   0  0  0  0  0  0  0  0  0  0  0  0
    7.9443  -16.0820   26.2849 C   0  0  0  0  0  0  0  0  0  0  0  0
    9.2423  -16.2756   25.5417 C   0  0  2  0  0  0  0  0  0  0  0  0
    8.8921  -16.6704   24.1781 N   0  0  0  0  0  0  0  0  0  0  0  0
   10.1201  -17.2937   26.1261 C   0  0  0  0  0  0  0  0  0  0  0  0
   10.8905  -16.9908   27.2283 O   0  0  0  0  0  0  0  0  0  0  0  0
    8.2147  -13.7719   27.1745 C   0  0  0  0  0  0  0  0  0  0  0  0
    7.8254  -12.4440   27.2179 C   0  0  0  0  0  0  0  0  0  0  0  0
   10.1751  -18.4390   25.6295 O   0  0  0  0  0  0  0  0  0  0  0  0
  2  1  1  6
  2  3  1  0
  3  4  1  0
  4  5  1  0
  5  6  2  0
  5  9  1  0
  7  8  2  0
  7  2  1  0
 10 11  1  0
 11 12  2  0
 11 13  1  0
 14 13  1  1
 14 15  1  0
 15  7  1  0
 16 25  1  0
 16 14  1  0
 17 16  2  0
 19 18  1  0
 20 19  2  0
 21 20  1  0
 22 21  2  0
 22 28  1  0
 24 23  1  1
 23 22  1  0
 24 26  1  0
 24 25  1  0
 26 27  1  0
 28 29  2  0
 29 19  1  0
 30 26  2  0
M  END
$$$$
