ENY.pdb
     RDKit          3D

 30 30  0  0  1  0  0  0  0  0999 V2000
    8.5878  -19.4680   19.1699 N   0  0  0  0  0  0  0  0  0  0  0  0
    7.9629  -18.9668   20.4200 C   0  0  1  0  0  0  0  0  0  0  0  0
    8.3528  -19.9230   21.5229 C   0  0  0  0  0  0  0  0  0  0  0  0
    7.8848  -21.3237   21.3472 C   0  0  0  0  0  0  0  0  0  0  0  0
    6.9173  -21.6554   22.4510 C   0  0  0  0  0  0  0  0  0  0  0  0
    7.1879  -21.2606   23.6068 O   0  0  0  0  0  0  0  0  0  0  0  0
    8.4357  -17.5991   20.5912 C   0  0  0  0  0  0  0  0  0  0  0  0
    9.6177  -17.2502   20.2377 O   0  0  0  0  0  0  0  0  0  0  0  0
    5.7549  -22.3689   22.2505 O   0  0  0  0  0  0  0  0  0  0  0  0
    7.8564  -11.9505   20.0828 N   0  0  0  0  0  0  0  0  0  0  0  0
    7.7004  -12.8107   21.2395 C   0  0  0  0  0  0  0  0  0  0  0  0
    8.0470  -12.2663   22.3192 O   0  0  0  0  0  0  0  0  0  0  0  0
    7.1839  -14.1764   21.1100 C   0  0  0  0  0  0  0  0  0  0  0  0
    8.2372  -15.1946   21.3313 C   0  0  2  0  0  0  0  0  0  0  0  0
    7.6785  -16.5131   21.1479 N   0  0  0  0  0  0  0  0  0  0  0  0
    8.9380  -15.0614   22.6309 C   0  0  0  0  0  0  0  0  0  0  0  0
    9.6250  -14.0212   22.8109 O   0  0  0  0  0  0  0  0  0  0  0  0
    5.8232  -10.9762   26.3706 O   0  0  0  0  0  0  0  0  0  0  0  0
    6.5724  -12.1448   26.2898 C   0  0  0  0  0  0  0  0  0  0  0  0
    5.8696  -13.3193   26.0876 C   0  0  0  0  0  0  0  0  0  0  0  0
    6.5731  -14.5108   26.0002 C   0  0  0  0  0  0  0  0  0  0  0  0
    7.9480  -14.5247   26.1127 C   0  0  0  0  0  0  0  0  0  0  0  0
    8.6581  -15.8181   26.0214 C   0  0  0  0  0  0  0  0  0  0  0  0
    9.6510  -15.8301   24.8862 C   0  0  2  0  0  0  0  0  0  0  0  0
    8.8820  -16.0102   23.6558 N   0  0  0  0  0  0  0  0  0  0  0  0
   10.6576  -16.8912   24.9831 C   0  0  0  0  0  0  0  0  0  0  0  0
   10.7716  -17.8286   23.9790 O   0  0  0  0  0  0  0  0  0  0  0  0
    8.6282  -13.3453   26.3139 C   0  0  0  0  0  0  0  0  0  0  0  0
    7.9343  -12.1506   26.4024 C   0  0  0  0  0  0  0  0  0  0  0  0
   11.4161  -16.9518   25.9742 O   0  0  0  0  0  0  0  0  0  0  0  0
  2  1  1  6
  2  3  1  0
  3  4  1  0
  4  5  1  0
  5  6  2  0
  5  9  1  0
  7  8  2  0
  7  2  1  0
 10 11  1  0
 11 12  2  0
 11 13  1  0
 14 13  1  1
 14 15  1  0
 15  7  1  0
 16 25  1  0
 16 14  1  0
 17 16  2  0
 19 18  1  0
 20 19  2  0
 21 20  1  0
 22 21  2  0
 22 28  1  0
 24 23  1  1
 23 22  1  0
 24 26  1  0
 24 25  1  0
 26 27  1  0
 28 29  2  0
 29 19  1  0
 30 26  2  0
M  END
$$$$
