ENY.pdb
     RDKit          3D

 30 30  0  0  1  0  0  0  0  0999 V2000
   10.7741  -15.9191   17.7695 N   0  0  0  0  0  0  0  0  0  0  0  0
    9.3134  -15.9207   18.0355 C   0  0  1  0  0  0  0  0  0  0  0  0
    8.6469  -16.5553   16.8373 C   0  0  0  0  0  0  0  0  0  0  0  0
    9.5716  -17.1034   15.8095 C   0  0  0  0  0  0  0  0  0  0  0  0
    8.7588  -17.6868   14.6854 C   0  0  0  0  0  0  0  0  0  0  0  0
    8.6498  -17.0200   13.6326 O   0  0  0  0  0  0  0  0  0  0  0  0
    9.1299  -16.6316   19.2942 C   0  0  0  0  0  0  0  0  0  0  0  0
    7.9666  -16.7933   19.8084 O   0  0  0  0  0  0  0  0  0  0  0  0
    8.1329  -18.9127   14.7602 O   0  0  0  0  0  0  0  0  0  0  0  0
    9.9946  -20.9829   22.8849 N   0  0  0  0  0  0  0  0  0  0  0  0
   10.7023  -19.7235   22.7606 C   0  0  0  0  0  0  0  0  0  0  0  0
   11.1614  -19.2970   23.8512 O   0  0  0  0  0  0  0  0  0  0  0  0
   10.8415  -19.0518   21.4651 C   0  0  0  0  0  0  0  0  0  0  0  0
    9.9098  -17.9082   21.3268 C   0  0  2  0  0  0  0  0  0  0  0  0
   10.1743  -17.2191   20.0860 N   0  0  0  0  0  0  0  0  0  0  0  0
    9.9127  -16.9869   22.4882 C   0  0  0  0  0  0  0  0  0  0  0  0
   10.8115  -16.1052   22.5219 O   0  0  0  0  0  0  0  0  0  0  0  0
    6.2172  -10.7838   27.1484 O   0  0  0  0  0  0  0  0  0  0  0  0
    6.6463  -11.7997   26.3016 C   0  0  0  0  0  0  0  0  0  0  0  0
    5.7995  -12.8841   26.1554 C   0  0  0  0  0  0  0  0  0  0  0  0
    6.1839  -13.9227   25.3210 C   0  0  0  0  0  0  0  0  0  0  0  0
    7.3881  -13.8753   24.6496 C   0  0  0  0  0  0  0  0  0  0  0  0
    7.7627  -15.0076   23.7761 C   0  0  0  0  0  0  0  0  0  0  0  0
    8.7981  -15.8926   24.4237 C   0  0  2  0  0  0  0  0  0  0  0  0
    8.9882  -17.0382   23.5354 N   0  0  0  0  0  0  0  0  0  0  0  0
    8.4238  -16.3750   25.7563 C   0  0  0  0  0  0  0  0  0  0  0  0
    8.8816  -15.7221   26.8807 O   0  0  0  0  0  0  0  0  0  0  0  0
    8.2161  -12.7876   24.8090 C   0  0  0  0  0  0  0  0  0  0  0  0
    7.8407  -11.7458   25.6399 C   0  0  0  0  0  0  0  0  0  0  0  0
    7.6895  -17.3783   25.8802 O   0  0  0  0  0  0  0  0  0  0  0  0
  2  1  1  6
  2  3  1  0
  3  4  1  0
  4  5  1  0
  5  6  2  0
  5  9  1  0
  7  8  2  0
  7  2  1  0
 10 11  1  0
 11 12  2  0
 11 13  1  0
 14 13  1  1
 14 15  1  0
 15  7  1  0
 16 25  1  0
 16 14  1  0
 17 16  2  0
 19 18  1  0
 20 19  2  0
 21 20  1  0
 22 21  2  0
 22 28  1  0
 24 23  1  6
 23 22  1  0
 24 26  1  0
 24 25  1  0
 26 27  1  0
 28 29  2  0
 29 19  1  0
 30 26  2  0
M  END
$$$$
