ENY.pdb
     RDKit          3D

 30 30  0  0  1  0  0  0  0  0999 V2000
    6.3213  -15.3189   20.2012 N   0  0  0  0  0  0  0  0  0  0  0  0
    7.2249  -16.4344   20.5803 C   0  0  1  0  0  0  0  0  0  0  0  0
    8.5938  -16.0983   20.0367 C   0  0  0  0  0  0  0  0  0  0  0  0
    9.1847  -14.8288   20.5378 C   0  0  0  0  0  0  0  0  0  0  0  0
   10.6117  -14.7379   20.0690 C   0  0  0  0  0  0  0  0  0  0  0  0
   11.3888  -13.9849   20.6968 O   0  0  0  0  0  0  0  0  0  0  0  0
    7.1457  -16.5469   22.0310 C   0  0  0  0  0  0  0  0  0  0  0  0
    6.5334  -15.6701   22.7381 O   0  0  0  0  0  0  0  0  0  0  0  0
   11.1001  -15.4402   18.9881 O   0  0  0  0  0  0  0  0  0  0  0  0
    6.9307  -20.6735   26.5167 N   0  0  0  0  0  0  0  0  0  0  0  0
    6.5997  -19.4319   25.8451 C   0  0  0  0  0  0  0  0  0  0  0  0
    5.9691  -18.6217   26.5719 O   0  0  0  0  0  0  0  0  0  0  0  0
    6.9858  -19.1924   24.4515 C   0  0  0  0  0  0  0  0  0  0  0  0
    7.3850  -17.7849   24.2171 C   0  0  2  0  0  0  0  0  0  0  0  0
    7.7120  -17.6029   22.8228 N   0  0  0  0  0  0  0  0  0  0  0  0
    8.4686  -17.3110   25.1109 C   0  0  0  0  0  0  0  0  0  0  0  0
    9.6522  -17.5783   24.7731 O   0  0  0  0  0  0  0  0  0  0  0  0
    6.3149  -11.1379   24.7717 O   0  0  0  0  0  0  0  0  0  0  0  0
    6.8998  -12.1064   25.5800 C   0  0  0  0  0  0  0  0  0  0  0  0
    8.2751  -12.2339   25.4986 C   0  0  0  0  0  0  0  0  0  0  0  0
    8.9043  -13.1862   26.2858 C   0  0  0  0  0  0  0  0  0  0  0  0
    8.1724  -13.9912   27.1342 C   0  0  0  0  0  0  0  0  0  0  0  0
    8.8823  -14.9990   27.9500 C   0  0  0  0  0  0  0  0  0  0  0  0
    9.3843  -16.1451   27.1078 C   0  0  2  0  0  0  0  0  0  0  0  0
    8.2572  -16.5935   26.2917 N   0  0  0  0  0  0  0  0  0  0  0  0
    9.8964  -17.2783   27.8838 C   0  0  0  0  0  0  0  0  0  0  0  0
   11.0392  -17.1363   28.6414 O   0  0  0  0  0  0  0  0  0  0  0  0
    6.8052  -13.8484   27.2001 C   0  0  0  0  0  0  0  0  0  0  0  0
    6.1682  -12.9001   26.4179 C   0  0  0  0  0  0  0  0  0  0  0  0
    9.3013  -18.3768   27.8630 O   0  0  0  0  0  0  0  0  0  0  0  0
  2  1  1  1
  2  3  1  0
  3  4  1  0
  4  5  1  0
  5  6  2  0
  5  9  1  0
  7  8  2  0
  7  2  1  0
 10 11  1  0
 11 12  2  0
 11 13  1  0
 14 13  1  6
 14 15  1  0
 15  7  1  0
 16 25  1  0
 16 14  1  0
 17 16  2  0
 19 18  1  0
 20 19  2  0
 21 20  1  0
 22 21  2  0
 22 28  1  0
 24 23  1  1
 23 22  1  0
 24 26  1  0
 24 25  1  0
 26 27  1  0
 28 29  2  0
 29 19  1  0
 30 26  2  0
M  END
$$$$
