ENY.pdb
     RDKit          3D

 30 30  0  0  1  0  0  0  0  0999 V2000
   13.5008  -20.2791   19.6775 N   0  0  0  0  0  0  0  0  0  0  0  0
   14.1862  -18.9805   19.8976 C   0  0  1  0  0  0  0  0  0  0  0  0
   14.5910  -18.4590   18.5386 C   0  0  0  0  0  0  0  0  0  0  0  0
   14.0608  -19.2235   17.3784 C   0  0  0  0  0  0  0  0  0  0  0  0
   14.9657  -19.0038   16.1964 C   0  0  0  0  0  0  0  0  0  0  0  0
   14.6553  -18.1101   15.3779 O   0  0  0  0  0  0  0  0  0  0  0  0
   13.2438  -18.1416   20.6266 C   0  0  0  0  0  0  0  0  0  0  0  0
   13.5304  -16.9331   20.9445 O   0  0  0  0  0  0  0  0  0  0  0  0
   16.1126  -19.7355   15.9740 O   0  0  0  0  0  0  0  0  0  0  0  0
    8.9278  -18.7918   19.2889 N   0  0  0  0  0  0  0  0  0  0  0  0
    9.3380  -17.7139   20.1676 C   0  0  0  0  0  0  0  0  0  0  0  0
    9.3714  -16.5911   19.6015 O   0  0  0  0  0  0  0  0  0  0  0  0
    9.6713  -17.9612   21.5734 C   0  0  0  0  0  0  0  0  0  0  0  0
   11.0956  -17.6779   21.8673 C   0  0  2  0  0  0  0  0  0  0  0  0
   11.9331  -18.5351   21.0622 N   0  0  0  0  0  0  0  0  0  0  0  0
   11.4389  -17.7552   23.3074 C   0  0  0  0  0  0  0  0  0  0  0  0
   10.9493  -18.7108   23.9658 O   0  0  0  0  0  0  0  0  0  0  0  0
    9.4702  -14.4730   30.8120 O   0  0  0  0  0  0  0  0  0  0  0  0
    9.8843  -14.7728   29.5190 C   0  0  0  0  0  0  0  0  0  0  0  0
    9.2658  -14.0799   28.4935 C   0  0  0  0  0  0  0  0  0  0  0  0
    9.6452  -14.3442   27.1863 C   0  0  0  0  0  0  0  0  0  0  0  0
   10.6211  -15.2805   26.9138 C   0  0  0  0  0  0  0  0  0  0  0  0
   10.9899  -15.5371   25.5054 C   0  0  0  0  0  0  0  0  0  0  0  0
   12.0856  -16.5675   25.3947 C   0  0  2  0  0  0  0  0  0  0  0  0
   12.2638  -16.8415   23.9696 N   0  0  0  0  0  0  0  0  0  0  0  0
   11.7981  -17.8238   26.0931 C   0  0  0  0  0  0  0  0  0  0  0  0
   12.5578  -18.1988   27.1804 O   0  0  0  0  0  0  0  0  0  0  0  0
   11.2239  -15.9590   27.9484 C   0  0  0  0  0  0  0  0  0  0  0  0
   10.8517  -15.7017   29.2568 C   0  0  0  0  0  0  0  0  0  0  0  0
   10.8651  -18.5601   25.7076 O   0  0  0  0  0  0  0  0  0  0  0  0
  2  1  1  6
  2  3  1  0
  3  4  1  0
  4  5  1  0
  5  6  2  0
  5  9  1  0
  7  8  2  0
  7  2  1  0
 10 11  1  0
 11 12  2  0
 11 13  1  0
 14 13  1  1
 14 15  1  0
 15  7  1  0
 16 25  1  0
 16 14  1  0
 17 16  2  0
 19 18  1  0
 20 19  2  0
 21 20  1  0
 22 21  2  0
 22 28  1  0
 24 23  1  6
 23 22  1  0
 24 26  1  0
 24 25  1  0
 26 27  1  0
 28 29  2  0
 29 19  1  0
 30 26  2  0
M  END
$$$$
