ENY.pdb
     RDKit          3D

 30 30  0  0  1  0  0  0  0  0999 V2000
   12.0348  -19.3222   21.0885 N   0  0  0  0  0  0  0  0  0  0  0  0
   12.5474  -17.9639   20.7770 C   0  0  1  0  0  0  0  0  0  0  0  0
   12.7280  -17.8929   19.2787 C   0  0  0  0  0  0  0  0  0  0  0  0
   11.4705  -17.8282   18.4873 C   0  0  0  0  0  0  0  0  0  0  0  0
   11.8182  -17.7905   17.0236 C   0  0  0  0  0  0  0  0  0  0  0  0
   12.1236  -18.8674   16.4652 O   0  0  0  0  0  0  0  0  0  0  0  0
   11.5773  -17.0268   21.3283 C   0  0  0  0  0  0  0  0  0  0  0  0
   11.6998  -15.7614   21.1624 O   0  0  0  0  0  0  0  0  0  0  0  0
   11.8161  -16.6335   16.2741 O   0  0  0  0  0  0  0  0  0  0  0  0
    8.4612  -15.3617   20.2293 N   0  0  0  0  0  0  0  0  0  0  0  0
    7.6277  -16.2405   21.0263 C   0  0  0  0  0  0  0  0  0  0  0  0
    6.4977  -16.4565   20.5180 O   0  0  0  0  0  0  0  0  0  0  0  0
    8.1032  -16.7977   22.2960 C   0  0  0  0  0  0  0  0  0  0  0  0
    9.4936  -16.3862   22.6000 C   0  0  2  0  0  0  0  0  0  0  0  0
   10.4114  -17.3773   22.0904 N   0  0  0  0  0  0  0  0  0  0  0  0
    9.7326  -16.0887   24.0325 C   0  0  0  0  0  0  0  0  0  0  0  0
   10.7700  -15.4346   24.3198 O   0  0  0  0  0  0  0  0  0  0  0  0
    6.4773  -10.5930   25.6954 O   0  0  0  0  0  0  0  0  0  0  0  0
    6.8974  -11.8586   26.0893 C   0  0  0  0  0  0  0  0  0  0  0  0
    6.1579  -12.9307   25.6222 C   0  0  0  0  0  0  0  0  0  0  0  0
    6.5381  -14.2129   25.9879 C   0  0  0  0  0  0  0  0  0  0  0  0
    7.6331  -14.4156   26.8022 C   0  0  0  0  0  0  0  0  0  0  0  0
    7.9989  -15.7987   27.1742 C   0  0  0  0  0  0  0  0  0  0  0  0
    9.2509  -16.2538   26.4670 C   0  0  2  0  0  0  0  0  0  0  0  0
    8.8851  -16.4863   25.0706 N   0  0  0  0  0  0  0  0  0  0  0  0
    9.8390  -17.4774   27.0196 C   0  0  0  0  0  0  0  0  0  0  0  0
    9.8156  -18.6459   26.2887 O   0  0  0  0  0  0  0  0  0  0  0  0
    8.3551  -13.3355   27.2563 C   0  0  0  0  0  0  0  0  0  0  0  0
    7.9832  -12.0514   26.8963 C   0  0  0  0  0  0  0  0  0  0  0  0
   10.3635  -17.4682   28.1537 O   0  0  0  0  0  0  0  0  0  0  0  0
  2  1  1  6
  2  3  1  0
  3  4  1  0
  4  5  1  0
  5  6  2  0
  5  9  1  0
  7  8  2  0
  7  2  1  0
 10 11  1  0
 11 12  2  0
 11 13  1  0
 14 13  1  1
 14 15  1  0
 15  7  1  0
 16 25  1  0
 16 14  1  0
 17 16  2  0
 19 18  1  0
 20 19  2  0
 21 20  1  0
 22 21  2  0
 22 28  1  0
 24 23  1  1
 23 22  1  0
 24 26  1  0
 24 25  1  0
 26 27  1  0
 28 29  2  0
 29 19  1  0
 30 26  2  0
M  END
$$$$
