GEG.pdb
     RDKit          3D

 18 17  0  0  1  0  0  0  0  0999 V2000
   17.6811  -11.8132  -15.5215 N   0  0  0  0  0  0  0  0  0  0  0  0
   18.0131  -10.4943  -16.0266 C   0  0  0  0  0  0  0  0  0  0  0  0
   19.4324  -10.1811  -15.7661 C   0  0  0  0  0  0  0  0  0  0  0  0
   19.9560  -10.3422  -14.6163 O   0  0  0  0  0  0  0  0  0  0  0  0
   20.2358   -9.6860  -16.8288 N   0  0  0  0  0  0  0  0  0  0  0  0
   21.6287   -9.3549  -16.6114 C   0  0  1  0  0  0  0  0  0  0  0  0
   22.4758   -9.5969  -17.8219 C   0  0  0  0  0  0  0  0  0  0  0  0
   22.6182  -11.0168  -18.2220 C   0  0  0  0  0  0  0  0  0  0  0  0
   23.4223  -11.2672  -19.4127 C   0  0  0  0  0  0  0  0  0  0  0  0
   23.9383  -10.2766  -20.0015 O   0  0  0  0  0  0  0  0  0  0  0  0
   21.8004   -7.9280  -16.2308 C   0  0  0  0  0  0  0  0  0  0  0  0
   21.0816   -7.0444  -16.7600 O   0  0  0  0  0  0  0  0  0  0  0  0
   23.6883  -12.5039  -19.9819 O   0  0  0  0  0  0  0  0  0  0  0  0
   22.7547   -7.4853  -15.2773 N   0  0  0  0  0  0  0  0  0  0  0  0
   22.8994   -6.1233  -14.8647 C   0  0  0  0  0  0  0  0  0  0  0  0
   22.0388   -5.8788  -13.6849 C   0  0  0  0  0  0  0  0  0  0  0  0
   22.1698   -4.6965  -12.9767 O   0  0  0  0  0  0  0  0  0  0  0  0
   21.2112   -6.7426  -13.3502 O   0  0  0  0  0  0  0  0  0  0  0  0
  2  1  1  0
  3  4  2  0
  3  2  1  0
  5  3  1  0
  6  5  1  0
  6  7  1  6
  8  7  1  0
  9  8  1  0
 10  9  2  0
 11  6  1  0
 11 14  1  0
 12 11  2  0
 13  9  1  0
 15 14  1  0
 16 15  1  0
 17 16  1  0
 18 16  2  0
M  END
$$$$
