GEG.pdb
     RDKit          3D

 18 17  0  0  1  0  0  0  0  0999 V2000
   26.8956  -10.6860  -16.1597 N   0  0  0  0  0  0  0  0  0  0  0  0
   25.7577  -10.8392  -15.2728 C   0  0  0  0  0  0  0  0  0  0  0  0
   24.7261   -9.8262  -15.5726 C   0  0  0  0  0  0  0  0  0  0  0  0
   24.8694   -8.9790  -16.5128 O   0  0  0  0  0  0  0  0  0  0  0  0
   23.5403   -9.7966  -14.7896 N   0  0  0  0  0  0  0  0  0  0  0  0
   22.4267   -8.9500  -15.1644 C   0  0  1  0  0  0  0  0  0  0  0  0
   21.1108   -9.6601  -15.0907 C   0  0  0  0  0  0  0  0  0  0  0  0
   19.9660   -8.9369  -15.6931 C   0  0  0  0  0  0  0  0  0  0  0  0
   18.6922   -9.6473  -15.6964 C   0  0  0  0  0  0  0  0  0  0  0  0
   18.4637  -10.4550  -16.6396 O   0  0  0  0  0  0  0  0  0  0  0  0
   22.3308   -7.7511  -14.2905 C   0  0  0  0  0  0  0  0  0  0  0  0
   22.4642   -7.8662  -13.0469 O   0  0  0  0  0  0  0  0  0  0  0  0
   17.6810   -9.5296  -14.7542 O   0  0  0  0  0  0  0  0  0  0  0  0
   22.0906   -6.4426  -14.7865 N   0  0  0  0  0  0  0  0  0  0  0  0
   21.8751   -5.2996  -13.9538 C   0  0  0  0  0  0  0  0  0  0  0  0
   21.7462   -4.0952  -14.8055 C   0  0  0  0  0  0  0  0  0  0  0  0
   21.5317   -2.8612  -14.2161 O   0  0  0  0  0  0  0  0  0  0  0  0
   21.8333   -4.2143  -16.0389 O   0  0  0  0  0  0  0  0  0  0  0  0
  2  1  1  0
  3  4  2  0
  3  2  1  0
  5  3  1  0
  6  5  1  0
  6  7  1  1
  8  7  1  0
  9  8  1  0
 10  9  2  0
 11  6  1  0
 11 14  1  0
 12 11  2  0
 13  9  1  0
 15 14  1  0
 16 15  1  0
 17 16  1  0
 18 16  2  0
M  END
$$$$
