GEG.pdb
     RDKit          3D

 18 17  0  0  1  0  0  0  0  0999 V2000
   21.5240   -8.8187  -20.8236 N   0  0  0  0  0  0  0  0  0  0  0  0
   22.4519   -8.3437  -19.8146 C   0  0  0  0  0  0  0  0  0  0  0  0
   21.7222   -7.8577  -18.6264 C   0  0  0  0  0  0  0  0  0  0  0  0
   21.1047   -6.7438  -18.6261 O   0  0  0  0  0  0  0  0  0  0  0  0
   21.7094   -8.6561  -17.4506 N   0  0  0  0  0  0  0  0  0  0  0  0
   20.9538   -8.2456  -16.2854 C   0  0  1  0  0  0  0  0  0  0  0  0
   20.3608   -9.4032  -15.5440 C   0  0  0  0  0  0  0  0  0  0  0  0
   19.0781   -9.9119  -16.0848 C   0  0  0  0  0  0  0  0  0  0  0  0
   18.5037  -11.0599  -15.3925 C   0  0  0  0  0  0  0  0  0  0  0  0
   19.2204  -11.6647  -14.5471 O   0  0  0  0  0  0  0  0  0  0  0  0
   21.7980   -7.4905  -15.3223 C   0  0  0  0  0  0  0  0  0  0  0  0
   22.9315   -7.9265  -15.0022 O   0  0  0  0  0  0  0  0  0  0  0  0
   17.2260  -11.5714  -15.5656 O   0  0  0  0  0  0  0  0  0  0  0  0
   21.3930   -6.2693  -14.7218 N   0  0  0  0  0  0  0  0  0  0  0  0
   22.1802   -5.5469  -13.7707 C   0  0  0  0  0  0  0  0  0  0  0  0
   21.4711   -4.3014  -13.3989 C   0  0  0  0  0  0  0  0  0  0  0  0
   21.9930   -3.4878  -12.4079 O   0  0  0  0  0  0  0  0  0  0  0  0
   20.4162   -4.0077  -13.9852 O   0  0  0  0  0  0  0  0  0  0  0  0
  2  1  1  0
  3  4  2  0
  3  2  1  0
  5  3  1  0
  6  5  1  0
  6  7  1  1
  8  7  1  0
  9  8  1  0
 10  9  2  0
 11  6  1  0
 11 14  1  0
 12 11  2  0
 13  9  1  0
 15 14  1  0
 16 15  1  0
 17 16  1  0
 18 16  2  0
M  END
$$$$
