GEG.pdb
     RDKit          3D

 18 17  0  0  1  0  0  0  0  0999 V2000
   24.1728  -19.1381  -16.6158 N   0  0  0  0  0  0  0  0  0  0  0  0
   23.8955  -18.0067  -15.7509 C   0  0  0  0  0  0  0  0  0  0  0  0
   22.5565  -17.4527  -16.0347 C   0  0  0  0  0  0  0  0  0  0  0  0
   21.8692  -17.8358  -17.0362 O   0  0  0  0  0  0  0  0  0  0  0  0
   22.0205  -16.4644  -15.1652 N   0  0  0  0  0  0  0  0  0  0  0  0
   20.6943  -15.9259  -15.3849 C   0  0  1  0  0  0  0  0  0  0  0  0
   19.8202  -16.0310  -14.1741 C   0  0  0  0  0  0  0  0  0  0  0  0
   18.3925  -15.6984  -14.3925 C   0  0  0  0  0  0  0  0  0  0  0  0
   17.5299  -15.7857  -13.2197 C   0  0  0  0  0  0  0  0  0  0  0  0
   17.4413  -16.8973  -12.6275 O   0  0  0  0  0  0  0  0  0  0  0  0
   20.7420  -14.4911  -15.7715 C   0  0  0  0  0  0  0  0  0  0  0  0
   21.4681  -13.6905  -15.1316 O   0  0  0  0  0  0  0  0  0  0  0  0
   16.7787  -14.7566  -12.6713 O   0  0  0  0  0  0  0  0  0  0  0  0
   19.9962  -13.9498  -16.8517 N   0  0  0  0  0  0  0  0  0  0  0  0
   20.0792  -12.5863  -17.2760 C   0  0  0  0  0  0  0  0  0  0  0  0
   19.1913  -11.7586  -16.4282 C   0  0  0  0  0  0  0  0  0  0  0  0
   19.7407  -10.7935  -15.6016 O   0  0  0  0  0  0  0  0  0  0  0  0
   17.9642  -11.9457  -16.4739 O   0  0  0  0  0  0  0  0  0  0  0  0
  2  1  1  0
  3  4  2  0
  3  2  1  0
  5  3  1  0
  6  5  1  0
  6  7  1  1
  8  7  1  0
  9  8  1  0
 10  9  2  0
 11  6  1  0
 11 14  1  0
 12 11  2  0
 13  9  1  0
 15 14  1  0
 16 15  1  0
 17 16  1  0
 18 16  2  0
M  END
$$$$
