GEG.pdb
     RDKit          3D

 18 17  0  0  1  0  0  0  0  0999 V2000
   25.0872  -21.0438   -9.4701 N   0  0  0  0  0  0  0  0  0  0  0  0
   25.1192  -21.7368  -10.7443 C   0  0  0  0  0  0  0  0  0  0  0  0
   24.9372  -20.7842  -11.8578 C   0  0  0  0  0  0  0  0  0  0  0  0
   24.7980  -19.5343  -11.6569 O   0  0  0  0  0  0  0  0  0  0  0  0
   24.9167  -21.2771  -13.1907 N   0  0  0  0  0  0  0  0  0  0  0  0
   24.7942  -20.3705  -14.3133 C   0  0  1  0  0  0  0  0  0  0  0  0
   25.9697  -20.4341  -15.2382 C   0  0  0  0  0  0  0  0  0  0  0  0
   27.0554  -21.3527  -14.8209 C   0  0  0  0  0  0  0  0  0  0  0  0
   27.9597  -21.7937  -15.8767 C   0  0  0  0  0  0  0  0  0  0  0  0
   27.7848  -21.3355  -17.0401 O   0  0  0  0  0  0  0  0  0  0  0  0
   23.5805  -20.6595  -15.1218 C   0  0  0  0  0  0  0  0  0  0  0  0
   23.4321  -21.7876  -15.6535 O   0  0  0  0  0  0  0  0  0  0  0  0
   29.0158  -22.6825  -15.7387 O   0  0  0  0  0  0  0  0  0  0  0  0
   22.5450  -19.7125  -15.3387 N   0  0  0  0  0  0  0  0  0  0  0  0
   21.5943  -19.3258  -14.3423 C   0  0  0  0  0  0  0  0  0  0  0  0
   20.5196  -20.3422  -14.2757 C   0  0  0  0  0  0  0  0  0  0  0  0
   19.1963  -19.9438  -14.3572 O   0  0  0  0  0  0  0  0  0  0  0  0
   20.8258  -21.5391  -14.1474 O   0  0  0  0  0  0  0  0  0  0  0  0
  2  1  1  0
  3  4  2  0
  3  2  1  0
  5  3  1  0
  6  5  1  0
  6  7  1  6
  8  7  1  0
  9  8  1  0
 10  9  2  0
 11  6  1  0
 11 14  1  0
 12 11  2  0
 13  9  1  0
 15 14  1  0
 16 15  1  0
 17 16  1  0
 18 16  2  0
M  END
$$$$
