GEG.pdb
     RDKit          3D

 18 17  0  0  1  0  0  0  0  0999 V2000
   27.1803  -32.9178  -15.6213 N   0  0  0  0  0  0  0  0  0  0  0  0
   27.1635  -33.6536  -14.3710 C   0  0  0  0  0  0  0  0  0  0  0  0
   25.9408  -33.3440  -13.6032 C   0  0  0  0  0  0  0  0  0  0  0  0
   25.0845  -32.4964  -14.0162 O   0  0  0  0  0  0  0  0  0  0  0  0
   25.7140  -34.0111  -12.3689 N   0  0  0  0  0  0  0  0  0  0  0  0
   24.5406  -33.7166  -11.5730 C   0  0  1  0  0  0  0  0  0  0  0  0
   23.7142  -34.9325  -11.2903 C   0  0  0  0  0  0  0  0  0  0  0  0
   22.8311  -35.3699  -12.3973 C   0  0  0  0  0  0  0  0  0  0  0  0
   21.6037  -34.6028  -12.5763 C   0  0  0  0  0  0  0  0  0  0  0  0
   21.1262  -34.5072  -13.7412 O   0  0  0  0  0  0  0  0  0  0  0  0
   24.9034  -33.1151  -10.2627 C   0  0  0  0  0  0  0  0  0  0  0  0
   24.0047  -32.6952   -9.4923 O   0  0  0  0  0  0  0  0  0  0  0  0
   20.8871  -33.9518  -11.5830 O   0  0  0  0  0  0  0  0  0  0  0  0
   26.2428  -32.9803   -9.8113 N   0  0  0  0  0  0  0  0  0  0  0  0
   26.6134  -32.3312   -8.5918 C   0  0  0  0  0  0  0  0  0  0  0  0
   26.6626  -33.3336   -7.5031 C   0  0  0  0  0  0  0  0  0  0  0  0
   26.2102  -34.6206   -7.7384 O   0  0  0  0  0  0  0  0  0  0  0  0
   27.1107  -33.0004   -6.3936 O   0  0  0  0  0  0  0  0  0  0  0  0
  2  1  1  0
  3  4  2  0
  3  2  1  0
  5  3  1  0
  6  5  1  0
  6  7  1  1
  8  7  1  0
  9  8  1  0
 10  9  2  0
 11  6  1  0
 11 14  1  0
 12 11  2  0
 13  9  1  0
 15 14  1  0
 16 15  1  0
 17 16  1  0
 18 16  2  0
M  END
$$$$
