GEG.pdb
     RDKit          3D

 18 17  0  0  1  0  0  0  0  0999 V2000
   20.8508  -20.5521  -13.2228 N   0  0  0  0  0  0  0  0  0  0  0  0
   21.6835  -20.4776  -14.4086 C   0  0  0  0  0  0  0  0  0  0  0  0
   21.9972  -19.0721  -14.7349 C   0  0  0  0  0  0  0  0  0  0  0  0
   21.4681  -18.1013  -14.1027 O   0  0  0  0  0  0  0  0  0  0  0  0
   22.9155  -18.7961  -15.7839 N   0  0  0  0  0  0  0  0  0  0  0  0
   23.2802  -17.4327  -16.1088 C   0  0  1  0  0  0  0  0  0  0  0  0
   24.5334  -17.3483  -16.9234 C   0  0  0  0  0  0  0  0  0  0  0  0
   25.2045  -16.0269  -16.9185 C   0  0  0  0  0  0  0  0  0  0  0  0
   26.4249  -15.9275  -17.7109 C   0  0  0  0  0  0  0  0  0  0  0  0
   26.9530  -14.7892  -17.8503 O   0  0  0  0  0  0  0  0  0  0  0  0
   22.2078  -16.7462  -16.8764 C   0  0  0  0  0  0  0  0  0  0  0  0
   21.6187  -17.3462  -17.8093 O   0  0  0  0  0  0  0  0  0  0  0  0
   27.0840  -16.9718  -18.3428 O   0  0  0  0  0  0  0  0  0  0  0  0
   21.7933  -15.4136  -16.6147 N   0  0  0  0  0  0  0  0  0  0  0  0
   20.7985  -14.7224  -17.3754 C   0  0  0  0  0  0  0  0  0  0  0  0
   20.8080  -13.2901  -17.0002 C   0  0  0  0  0  0  0  0  0  0  0  0
   21.8460  -12.4791  -17.4260 O   0  0  0  0  0  0  0  0  0  0  0  0
   19.8807  -12.8399  -16.3072 O   0  0  0  0  0  0  0  0  0  0  0  0
  2  1  1  0
  3  4  2  0
  3  2  1  0
  5  3  1  0
  6  5  1  0
  6  7  1  6
  8  7  1  0
  9  8  1  0
 10  9  2  0
 11  6  1  0
 11 14  1  0
 12 11  2  0
 13  9  1  0
 15 14  1  0
 16 15  1  0
 17 16  1  0
 18 16  2  0
M  END
$$$$
