GEG.pdb
     RDKit          3D

 18 17  0  0  1  0  0  0  0  0999 V2000
   20.8800  -29.3844  -11.8859 N   0  0  0  0  0  0  0  0  0  0  0  0
   21.1767  -28.1698  -11.1499 C   0  0  0  0  0  0  0  0  0  0  0  0
   19.9391  -27.4107  -10.8809 C   0  0  0  0  0  0  0  0  0  0  0  0
   18.9764  -27.3777  -11.7142 O   0  0  0  0  0  0  0  0  0  0  0  0
   19.8197  -26.6973   -9.6574 N   0  0  0  0  0  0  0  0  0  0  0  0
   18.6440  -25.8995   -9.3775 C   0  0  1  0  0  0  0  0  0  0  0  0
   18.5398  -25.5104   -7.9356 C   0  0  0  0  0  0  0  0  0  0  0  0
   18.2943  -26.6281   -6.9937 C   0  0  0  0  0  0  0  0  0  0  0  0
   18.2617  -26.2755   -5.5789 C   0  0  0  0  0  0  0  0  0  0  0  0
   18.5190  -25.0821   -5.2569 O   0  0  0  0  0  0  0  0  0  0  0  0
   18.6296  -24.6451  -10.1753 C   0  0  0  0  0  0  0  0  0  0  0  0
   19.7075  -24.1466  -10.5841 O   0  0  0  0  0  0  0  0  0  0  0  0
   17.9721  -27.1284   -4.5240 O   0  0  0  0  0  0  0  0  0  0  0  0
   17.4382  -23.9519  -10.5160 N   0  0  0  0  0  0  0  0  0  0  0  0
   17.3928  -22.8272  -11.3987 C   0  0  0  0  0  0  0  0  0  0  0  0
   16.0198  -22.2731  -11.4095 C   0  0  0  0  0  0  0  0  0  0  0  0
   15.0206  -22.9090  -10.6928 O   0  0  0  0  0  0  0  0  0  0  0  0
   15.7880  -21.2433  -12.0643 O   0  0  0  0  0  0  0  0  0  0  0  0
  2  1  1  0
  3  4  2  0
  3  2  1  0
  5  3  1  0
  6  5  1  0
  6  7  1  1
  8  7  1  0
  9  8  1  0
 10  9  2  0
 11  6  1  0
 11 14  1  0
 12 11  2  0
 13  9  1  0
 15 14  1  0
 16 15  1  0
 17 16  1  0
 18 16  2  0
M  END
$$$$
