GEG.pdb
     RDKit          3D

 18 17  0  0  1  0  0  0  0  0999 V2000
   28.0487  -21.2567  -15.2345 N   0  0  0  0  0  0  0  0  0  0  0  0
   26.7168  -21.3407  -15.8037 C   0  0  0  0  0  0  0  0  0  0  0  0
   25.7443  -20.6216  -14.9567 C   0  0  0  0  0  0  0  0  0  0  0  0
   26.0940  -20.0352  -13.8815 O   0  0  0  0  0  0  0  0  0  0  0  0
   24.3800  -20.5832  -15.3533 N   0  0  0  0  0  0  0  0  0  0  0  0
   23.3973  -19.8777  -14.5573 C   0  0  1  0  0  0  0  0  0  0  0  0
   22.6650  -18.8310  -15.3379 C   0  0  0  0  0  0  0  0  0  0  0  0
   23.5091  -17.7429  -15.8859 C   0  0  0  0  0  0  0  0  0  0  0  0
   22.8162  -16.7369  -16.6827 C   0  0  0  0  0  0  0  0  0  0  0  0
   22.0478  -15.9314  -16.0870 O   0  0  0  0  0  0  0  0  0  0  0  0
   22.3783  -20.8038  -13.9967 C   0  0  0  0  0  0  0  0  0  0  0  0
   22.0021  -21.8019  -14.6598 O   0  0  0  0  0  0  0  0  0  0  0  0
   22.9116  -16.5647  -18.0558 O   0  0  0  0  0  0  0  0  0  0  0  0
   21.7839  -20.6275  -12.7194 N   0  0  0  0  0  0  0  0  0  0  0  0
   20.8377  -21.5344  -12.1464 C   0  0  0  0  0  0  0  0  0  0  0  0
   19.4836  -21.2040  -12.6463 C   0  0  0  0  0  0  0  0  0  0  0  0
   19.3387  -20.2802  -13.6671 O   0  0  0  0  0  0  0  0  0  0  0  0
   18.4979  -21.7640  -12.1387 O   0  0  0  0  0  0  0  0  0  0  0  0
  2  1  1  0
  3  4  2  0
  3  2  1  0
  5  3  1  0
  6  5  1  0
  6  7  1  6
  8  7  1  0
  9  8  1  0
 10  9  2  0
 11  6  1  0
 11 14  1  0
 12 11  2  0
 13  9  1  0
 15 14  1  0
 16 15  1  0
 17 16  1  0
 18 16  2  0
M  END
$$$$
