GEG.pdb
     RDKit          3D

 18 17  0  0  1  0  0  0  0  0999 V2000
   15.2912   -7.6878   -7.6190 N   0  0  0  0  0  0  0  0  0  0  0  0
   15.1658   -7.1649   -8.9665 C   0  0  0  0  0  0  0  0  0  0  0  0
   16.2957   -7.6138   -9.8045 C   0  0  0  0  0  0  0  0  0  0  0  0
   17.3325   -8.1553   -9.3006 O   0  0  0  0  0  0  0  0  0  0  0  0
   16.2232   -7.4361  -11.2128 N   0  0  0  0  0  0  0  0  0  0  0  0
   17.3225   -7.8353  -12.0668 C   0  0  1  0  0  0  0  0  0  0  0  0
   16.8623   -8.4680  -13.3431 C   0  0  0  0  0  0  0  0  0  0  0  0
   16.1119   -9.7365  -13.1869 C   0  0  0  0  0  0  0  0  0  0  0  0
   16.9090  -10.9145  -12.8644 C   0  0  0  0  0  0  0  0  0  0  0  0
   18.0914  -10.9714  -13.3036 O   0  0  0  0  0  0  0  0  0  0  0  0
   18.1812   -6.6780  -12.4325 C   0  0  0  0  0  0  0  0  0  0  0  0
   17.6766   -5.5348  -12.5593 O   0  0  0  0  0  0  0  0  0  0  0  0
   16.5003  -12.0044  -12.1100 O   0  0  0  0  0  0  0  0  0  0  0  0
   19.5795   -6.7847  -12.6547 N   0  0  0  0  0  0  0  0  0  0  0  0
   20.4258   -5.6747  -12.9672 C   0  0  0  0  0  0  0  0  0  0  0  0
   21.7950   -6.1688  -13.2387 C   0  0  0  0  0  0  0  0  0  0  0  0
   22.7751   -5.2786  -13.6430 O   0  0  0  0  0  0  0  0  0  0  0  0
   22.0407   -7.3782  -13.0982 O   0  0  0  0  0  0  0  0  0  0  0  0
  2  1  1  0
  3  4  2  0
  3  2  1  0
  5  3  1  0
  6  5  1  0
  6  7  1  6
  8  7  1  0
  9  8  1  0
 10  9  2  0
 11  6  1  0
 11 14  1  0
 12 11  2  0
 13  9  1  0
 15 14  1  0
 16 15  1  0
 17 16  1  0
 18 16  2  0
M  END
$$$$
