GEG.pdb
     RDKit          3D

 18 17  0  0  1  0  0  0  0  0999 V2000
   19.1698  -17.2793  -13.0879 N   0  0  0  0  0  0  0  0  0  0  0  0
   19.7600  -17.6601  -14.3574 C   0  0  0  0  0  0  0  0  0  0  0  0
   20.7686  -18.7209  -14.1633 C   0  0  0  0  0  0  0  0  0  0  0  0
   21.4589  -18.8048  -13.0962 O   0  0  0  0  0  0  0  0  0  0  0  0
   20.9742  -19.6746  -15.1968 N   0  0  0  0  0  0  0  0  0  0  0  0
   22.0415  -20.6489  -15.1033 C   0  0  1  0  0  0  0  0  0  0  0  0
   21.6849  -21.9589  -15.7343 C   0  0  0  0  0  0  0  0  0  0  0  0
   21.1580  -22.9869  -14.8057 C   0  0  0  0  0  0  0  0  0  0  0  0
   20.0831  -22.5559  -13.9192 C   0  0  0  0  0  0  0  0  0  0  0  0
   19.4796  -21.4816  -14.1943 O   0  0  0  0  0  0  0  0  0  0  0  0
   23.2842  -20.1660  -15.7612 C   0  0  0  0  0  0  0  0  0  0  0  0
   23.2439  -19.1762  -16.5334 O   0  0  0  0  0  0  0  0  0  0  0  0
   19.6413  -23.2131  -12.7804 O   0  0  0  0  0  0  0  0  0  0  0  0
   24.5542  -20.7704  -15.5671 N   0  0  0  0  0  0  0  0  0  0  0  0
   25.7585  -20.3177  -16.1922 C   0  0  0  0  0  0  0  0  0  0  0  0
   26.8651  -21.2351  -15.8368 C   0  0  0  0  0  0  0  0  0  0  0  0
   28.1126  -21.0551  -16.4093 O   0  0  0  0  0  0  0  0  0  0  0  0
   26.6533  -22.1536  -15.0278 O   0  0  0  0  0  0  0  0  0  0  0  0
  2  1  1  0
  3  4  2  0
  3  2  1  0
  5  3  1  0
  6  5  1  0
  6  7  1  6
  8  7  1  0
  9  8  1  0
 10  9  2  0
 11  6  1  0
 11 14  1  0
 12 11  2  0
 13  9  1  0
 15 14  1  0
 16 15  1  0
 17 16  1  0
 18 16  2  0
M  END
$$$$
