GEG.pdb
     RDKit          3D

 18 17  0  0  1  0  0  0  0  0999 V2000
   22.0214  -14.8619  -17.8651 N   0  0  0  0  0  0  0  0  0  0  0  0
   21.2218  -14.2174  -16.8403 C   0  0  0  0  0  0  0  0  0  0  0  0
   21.0516  -12.7819  -17.1413 C   0  0  0  0  0  0  0  0  0  0  0  0
   21.5976  -12.2387  -18.1558 O   0  0  0  0  0  0  0  0  0  0  0  0
   20.2561  -11.9849  -16.2742 N   0  0  0  0  0  0  0  0  0  0  0  0
   19.9282  -10.6171  -16.6190 C   0  0  1  0  0  0  0  0  0  0  0  0
   18.4589  -10.3393  -16.5463 C   0  0  0  0  0  0  0  0  0  0  0  0
   17.5803  -11.4770  -16.9073 C   0  0  0  0  0  0  0  0  0  0  0  0
   16.7523  -12.0107  -15.8319 C   0  0  0  0  0  0  0  0  0  0  0  0
   16.9742  -13.1900  -15.4392 O   0  0  0  0  0  0  0  0  0  0  0  0
   20.6058   -9.6471  -15.7189 C   0  0  0  0  0  0  0  0  0  0  0  0
   20.7104   -9.8939  -14.4918 O   0  0  0  0  0  0  0  0  0  0  0  0
   15.7236  -11.3484  -15.1782 O   0  0  0  0  0  0  0  0  0  0  0  0
   21.1602   -8.4206  -16.1709 N   0  0  0  0  0  0  0  0  0  0  0  0
   21.9011   -7.5237  -15.3385 C   0  0  0  0  0  0  0  0  0  0  0  0
   20.9613   -6.6033  -14.6586 C   0  0  0  0  0  0  0  0  0  0  0  0
   21.4524   -5.6463  -13.7873 O   0  0  0  0  0  0  0  0  0  0  0  0
   19.7441   -6.7069  -14.8832 O   0  0  0  0  0  0  0  0  0  0  0  0
  2  1  1  0
  3  4  2  0
  3  2  1  0
  5  3  1  0
  6  5  1  0
  6  7  1  1
  8  7  1  0
  9  8  1  0
 10  9  2  0
 11  6  1  0
 11 14  1  0
 12 11  2  0
 13  9  1  0
 15 14  1  0
 16 15  1  0
 17 16  1  0
 18 16  2  0
M  END
$$$$
