GEG.pdb
     RDKit          3D

 18 17  0  0  1  0  0  0  0  0999 V2000
   25.8217  -10.7245  -16.2670 N   0  0  0  0  0  0  0  0  0  0  0  0
   24.5916  -10.8942  -15.5166 C   0  0  0  0  0  0  0  0  0  0  0  0
   23.6888   -9.7461  -15.7337 C   0  0  0  0  0  0  0  0  0  0  0  0
   23.9448   -8.8434  -16.5949 O   0  0  0  0  0  0  0  0  0  0  0  0
   22.5011   -9.6466  -14.9594 N   0  0  0  0  0  0  0  0  0  0  0  0
   21.5852   -8.5407  -15.1477 C   0  0  1  0  0  0  0  0  0  0  0  0
   20.1566   -8.9296  -14.9260 C   0  0  0  0  0  0  0  0  0  0  0  0
   19.5928   -9.8675  -15.9255 C   0  0  0  0  0  0  0  0  0  0  0  0
   18.2061  -10.2672  -15.7150 C   0  0  0  0  0  0  0  0  0  0  0  0
   17.9849  -11.3880  -15.1773 O   0  0  0  0  0  0  0  0  0  0  0  0
   21.8853   -7.4163  -14.2225 C   0  0  0  0  0  0  0  0  0  0  0  0
   22.3088   -7.6507  -13.0635 O   0  0  0  0  0  0  0  0  0  0  0  0
   17.0774   -9.5331  -16.0488 O   0  0  0  0  0  0  0  0  0  0  0  0
   21.7189   -6.0512  -14.5754 N   0  0  0  0  0  0  0  0  0  0  0  0
   22.0057   -4.9584  -13.6980 C   0  0  0  0  0  0  0  0  0  0  0  0
   21.8425   -3.6859  -14.4373 C   0  0  0  0  0  0  0  0  0  0  0  0
   22.0536   -2.4840  -13.7836 O   0  0  0  0  0  0  0  0  0  0  0  0
   21.5178   -3.7197  -15.6357 O   0  0  0  0  0  0  0  0  0  0  0  0
  2  1  1  0
  3  4  2  0
  3  2  1  0
  5  3  1  0
  6  5  1  0
  6  7  1  1
  8  7  1  0
  9  8  1  0
 10  9  2  0
 11  6  1  0
 11 14  1  0
 12 11  2  0
 13  9  1  0
 15 14  1  0
 16 15  1  0
 17 16  1  0
 18 16  2  0
M  END
$$$$
