GEG.pdb
     RDKit          3D

 18 17  0  0  1  0  0  0  0  0999 V2000
   20.9558   -8.9627  -20.6002 N   0  0  0  0  0  0  0  0  0  0  0  0
   21.6548   -7.9350  -19.8518 C   0  0  0  0  0  0  0  0  0  0  0  0
   21.1259   -7.8446  -18.4762 C   0  0  0  0  0  0  0  0  0  0  0  0
   20.0120   -7.2826  -18.2201 O   0  0  0  0  0  0  0  0  0  0  0  0
   21.8818   -8.4005  -17.4087 N   0  0  0  0  0  0  0  0  0  0  0  0
   21.3810   -8.3654  -16.0503 C   0  0  1  0  0  0  0  0  0  0  0  0
   21.4496   -9.6996  -15.3746 C   0  0  0  0  0  0  0  0  0  0  0  0
   20.4671  -10.7020  -15.8503 C   0  0  0  0  0  0  0  0  0  0  0  0
   19.0847  -10.4868  -15.4383 C   0  0  0  0  0  0  0  0  0  0  0  0
   18.8376  -10.4071  -14.2027 O   0  0  0  0  0  0  0  0  0  0  0  0
   22.1433   -7.4051  -15.2094 C   0  0  0  0  0  0  0  0  0  0  0  0
   23.3746   -7.5698  -15.0244 O   0  0  0  0  0  0  0  0  0  0  0  0
   17.9864  -10.3570  -16.2755 O   0  0  0  0  0  0  0  0  0  0  0  0
   21.5505   -6.2778  -14.5818 N   0  0  0  0  0  0  0  0  0  0  0  0
   22.2486   -5.3971  -13.6968 C   0  0  0  0  0  0  0  0  0  0  0  0
   21.3552   -4.2780  -13.3203 C   0  0  0  0  0  0  0  0  0  0  0  0
   20.1000   -4.1822  -13.8963 O   0  0  0  0  0  0  0  0  0  0  0  0
   21.7495   -3.4416  -12.4910 O   0  0  0  0  0  0  0  0  0  0  0  0
  2  1  1  0
  3  4  2  0
  3  2  1  0
  5  3  1  0
  6  5  1  0
  6  7  1  1
  8  7  1  0
  9  8  1  0
 10  9  2  0
 11  6  1  0
 11 14  1  0
 12 11  2  0
 13  9  1  0
 15 14  1  0
 16 15  1  0
 17 16  1  0
 18 16  2  0
M  END
$$$$
