GEG.pdb
     RDKit          3D

 18 17  0  0  1  0  0  0  0  0999 V2000
   21.6851  -12.3896  -18.0631 N   0  0  0  0  0  0  0  0  0  0  0  0
   20.9795  -12.1308  -16.8221 C   0  0  0  0  0  0  0  0  0  0  0  0
   20.5781  -10.7122  -16.7396 C   0  0  0  0  0  0  0  0  0  0  0  0
   20.8292   -9.8871  -17.6768 O   0  0  0  0  0  0  0  0  0  0  0  0
   19.8922  -10.2558  -15.5815 N   0  0  0  0  0  0  0  0  0  0  0  0
   19.5209   -8.8630  -15.4419 C   0  0  1  0  0  0  0  0  0  0  0  0
   18.1232   -8.6856  -14.9357 C   0  0  0  0  0  0  0  0  0  0  0  0
   17.0581   -9.2253  -15.8136 C   0  0  0  0  0  0  0  0  0  0  0  0
   15.6908   -9.0623  -15.3328 C   0  0  0  0  0  0  0  0  0  0  0  0
   15.2370   -9.9215  -14.5265 O   0  0  0  0  0  0  0  0  0  0  0  0
   20.4244   -8.1458  -14.5040 C   0  0  0  0  0  0  0  0  0  0  0  0
   20.7687   -8.6869  -13.4240 O   0  0  0  0  0  0  0  0  0  0  0  0
   14.8142   -8.0425  -15.6728 O   0  0  0  0  0  0  0  0  0  0  0  0
   20.9397   -6.8474  -14.7580 N   0  0  0  0  0  0  0  0  0  0  0  0
   21.7862   -6.1326  -13.8532 C   0  0  0  0  0  0  0  0  0  0  0  0
   22.2098   -4.8622  -14.4848 C   0  0  0  0  0  0  0  0  0  0  0  0
   22.9208   -3.9342  -13.7434 O   0  0  0  0  0  0  0  0  0  0  0  0
   21.9182   -4.6508  -15.6736 O   0  0  0  0  0  0  0  0  0  0  0  0
  2  1  1  0
  3  4  2  0
  3  2  1  0
  5  3  1  0
  6  5  1  0
  6  7  1  1
  8  7  1  0
  9  8  1  0
 10  9  2  0
 11  6  1  0
 11 14  1  0
 12 11  2  0
 13  9  1  0
 15 14  1  0
 16 15  1  0
 17 16  1  0
 18 16  2  0
M  END
$$$$
