GEG.pdb
     RDKit          3D

 18 17  0  0  1  0  0  0  0  0999 V2000
   12.9077  -10.1425   -9.5414 N   0  0  0  0  0  0  0  0  0  0  0  0
   13.9408   -9.5240   -8.7320 C   0  0  0  0  0  0  0  0  0  0  0  0
   14.5986   -8.4316   -9.4765 C   0  0  0  0  0  0  0  0  0  0  0  0
   14.2108   -8.0812  -10.6380 O   0  0  0  0  0  0  0  0  0  0  0  0
   15.6952   -7.7526   -8.8793 N   0  0  0  0  0  0  0  0  0  0  0  0
   16.2931   -6.6019   -9.5239 C   0  0  1  0  0  0  0  0  0  0  0  0
   16.0240   -5.3245   -8.7909 C   0  0  0  0  0  0  0  0  0  0  0  0
   16.4805   -4.0923   -9.4765 C   0  0  0  0  0  0  0  0  0  0  0  0
   15.5299   -2.9866   -9.5028 C   0  0  0  0  0  0  0  0  0  0  0  0
   14.5132   -3.0580   -8.7575 O   0  0  0  0  0  0  0  0  0  0  0  0
   17.7687   -6.7425   -9.6385 C   0  0  0  0  0  0  0  0  0  0  0  0
   18.4776   -6.8030   -8.6035 O   0  0  0  0  0  0  0  0  0  0  0  0
   15.6232   -1.8383  -10.2753 O   0  0  0  0  0  0  0  0  0  0  0  0
   18.4502   -6.8153  -10.8819 N   0  0  0  0  0  0  0  0  0  0  0  0
   19.8672   -6.9640  -11.0089 C   0  0  0  0  0  0  0  0  0  0  0  0
   20.2176   -7.0758  -12.4431 C   0  0  0  0  0  0  0  0  0  0  0  0
   19.2097   -7.1318  -13.3904 O   0  0  0  0  0  0  0  0  0  0  0  0
   21.4147   -7.1175  -12.7721 O   0  0  0  0  0  0  0  0  0  0  0  0
  2  1  1  0
  3  4  2  0
  3  2  1  0
  5  3  1  0
  6  5  1  0
  6  7  1  1
  8  7  1  0
  9  8  1  0
 10  9  2  0
 11  6  1  0
 11 14  1  0
 12 11  2  0
 13  9  1  0
 15 14  1  0
 16 15  1  0
 17 16  1  0
 18 16  2  0
M  END
$$$$
