KMA.pdb
     RDKit          3D

 23 22  0  0  1  0  0  0  0  0999 V2000
    7.6693  -15.5947   20.8583 N   0  0  0  0  0  0  0  0  0  0  0  0
    8.8190  -14.7096   20.8645 C   0  0  1  0  0  0  0  0  0  0  0  0
    8.4423  -13.4418   20.1746 C   0  0  0  0  0  0  0  0  0  0  0  0
    7.6422  -13.8342   18.9294 C   0  0  0  0  0  0  0  0  0  0  0  0
    8.4627  -13.6325   17.6788 C   0  0  0  0  0  0  0  0  0  0  0  0
    7.5447  -13.8918   16.5004 C   0  0  0  0  0  0  0  0  0  0  0  0
    8.3066  -13.8717   15.2796 N   0  0  0  0  0  0  0  0  0  0  0  0
    9.2469  -14.4963   22.2726 C   0  0  0  0  0  0  0  0  0  0  0  0
   10.3248  -13.9057   22.5410 O   0  0  0  0  0  0  0  0  0  0  0  0
    5.3749  -11.9064   27.1015 C   0  0  0  0  0  0  0  0  0  0  0  0
    7.1731  -11.9550   27.0901 S   0  0  0  0  0  0  0  0  0  0  0  0
    7.8211  -12.6811   25.5863 C   0  0  0  0  0  0  0  0  0  0  0  0
    7.7734  -14.1910   25.6015 C   0  0  0  0  0  0  0  0  0  0  0  0
    8.8864  -14.7862   24.7604 C   0  0  2  0  0  0  0  0  0  0  0  0
    8.4712  -14.9424   23.3772 N   0  0  0  0  0  0  0  0  0  0  0  0
    9.2886  -16.1241   25.2654 C   0  0  0  0  0  0  0  0  0  0  0  0
    9.4203  -16.3752   26.5008 O   0  0  0  0  0  0  0  0  0  0  0  0
    9.8551  -19.5434   23.7683 C   0  0  0  0  0  0  0  0  0  0  0  0
    9.8534  -18.5503   24.9098 C   0  0  2  0  0  0  0  0  0  0  0  0
    9.5527  -17.2147   24.3779 N   0  0  0  0  0  0  0  0  0  0  0  0
   11.2119  -18.5089   25.4891 C   0  0  0  0  0  0  0  0  0  0  0  0
   11.5476  -19.4475   26.4516 O   0  0  0  0  0  0  0  0  0  0  0  0
   12.0576  -17.6594   25.1385 O   0  0  0  0  0  0  0  0  0  0  0  0
  2  1  1  1
  3  2  1  0
  4  3  1  0
  5  4  1  0
  6  5  1  0
  7  6  1  0
  8  9  2  0
  8  2  1  0
 10 11  1  0
 11 12  1  0
 14 13  1  1
 13 12  1  0
 14 15  1  0
 15  8  1  0
 16 14  1  0
 17 16  2  0
 19 18  1  6
 19 20  1  0
 20 16  1  0
 21 19  1  0
 22 21  1  0
 23 21  2  0
M  END
$$$$
