KMA.pdb
     RDKit          3D

 23 22  0  0  1  0  0  0  0  0999 V2000
    7.5213  -16.8517   21.2298 N   0  0  0  0  0  0  0  0  0  0  0  0
    8.9163  -16.4564   21.1753 C   0  0  1  0  0  0  0  0  0  0  0  0
    9.1292  -15.6454   19.9416 C   0  0  0  0  0  0  0  0  0  0  0  0
    7.9822  -15.9824   18.9847 C   0  0  0  0  0  0  0  0  0  0  0  0
    8.3480  -17.1478   18.0982 C   0  0  0  0  0  0  0  0  0  0  0  0
    7.2186  -17.3167   17.1008 C   0  0  0  0  0  0  0  0  0  0  0  0
    7.4375  -18.5044   16.3182 N   0  0  0  0  0  0  0  0  0  0  0  0
    9.2486  -15.7135   22.4199 C   0  0  0  0  0  0  0  0  0  0  0  0
   10.3998  -15.2414   22.6061 O   0  0  0  0  0  0  0  0  0  0  0  0
    5.9271  -11.1136   25.7991 C   0  0  0  0  0  0  0  0  0  0  0  0
    6.4460  -12.2641   27.0810 S   0  0  0  0  0  0  0  0  0  0  0  0
    7.7544  -13.3533   26.5238 C   0  0  0  0  0  0  0  0  0  0  0  0
    7.4637  -13.9699   25.1756 C   0  0  0  0  0  0  0  0  0  0  0  0
    8.6132  -14.8424   24.7091 C   0  0  2  0  0  0  0  0  0  0  0  0
    8.2959  -15.4993   23.4531 N   0  0  0  0  0  0  0  0  0  0  0  0
    8.9280  -15.8989   25.7049 C   0  0  0  0  0  0  0  0  0  0  0  0
    9.2123  -15.6354   26.9117 O   0  0  0  0  0  0  0  0  0  0  0  0
    8.5091  -19.5865   26.0018 C   0  0  0  0  0  0  0  0  0  0  0  0
    9.2319  -18.3080   26.3652 C   0  0  2  0  0  0  0  0  0  0  0  0
    8.9282  -17.2861   25.3549 N   0  0  0  0  0  0  0  0  0  0  0  0
   10.6855  -18.5690   26.3188 C   0  0  0  0  0  0  0  0  0  0  0  0
   11.2446  -19.3651   27.3054 O   0  0  0  0  0  0  0  0  0  0  0  0
   11.4166  -18.0962   25.4234 O   0  0  0  0  0  0  0  0  0  0  0  0
  2  1  1  1
  3  2  1  0
  4  3  1  0
  5  4  1  0
  6  5  1  0
  7  6  1  0
  8  9  2  0
  8  2  1  0
 10 11  1  0
 11 12  1  0
 14 13  1  1
 13 12  1  0
 14 15  1  0
 15  8  1  0
 16 14  1  0
 17 16  2  0
 19 18  1  6
 19 20  1  0
 20 16  1  0
 21 19  1  0
 22 21  1  0
 23 21  2  0
M  END
$$$$
