KMA.pdb
     RDKit          3D

 23 22  0  0  1  0  0  0  0  0999 V2000
    7.6156  -16.5477   20.8998 N   0  0  0  0  0  0  0  0  0  0  0  0
    8.5375  -15.4294   20.8327 C   0  0  1  0  0  0  0  0  0  0  0  0
    7.9539  -14.3896   19.9363 C   0  0  0  0  0  0  0  0  0  0  0  0
    8.2769  -14.8093   18.4995 C   0  0  0  0  0  0  0  0  0  0  0  0
    8.3910  -13.6021   17.6009 C   0  0  0  0  0  0  0  0  0  0  0  0
    8.6270  -14.1178   16.1948 C   0  0  0  0  0  0  0  0  0  0  0  0
    8.5530  -13.0261   15.2599 N   0  0  0  0  0  0  0  0  0  0  0  0
    8.7822  -14.9317   22.2125 C   0  0  0  0  0  0  0  0  0  0  0  0
    9.6793  -14.0813   22.4462 O   0  0  0  0  0  0  0  0  0  0  0  0
    7.1082  -11.4239   28.1254 C   0  0  0  0  0  0  0  0  0  0  0  0
    6.9810  -12.2194   26.5170 S   0  0  0  0  0  0  0  0  0  0  0  0
    6.8543  -14.0011   26.6511 C   0  0  0  0  0  0  0  0  0  0  0  0
    6.7628  -14.6810   25.3050 C   0  0  0  0  0  0  0  0  0  0  0  0
    8.1271  -14.7988   24.6530 C   0  0  2  0  0  0  0  0  0  0  0  0
    8.0255  -15.3843   23.3276 N   0  0  0  0  0  0  0  0  0  0  0  0
    9.0376  -15.6545   25.4565 C   0  0  0  0  0  0  0  0  0  0  0  0
    9.0574  -16.9174   25.3498 O   0  0  0  0  0  0  0  0  0  0  0  0
   11.6991  -15.1126   28.0882 C   0  0  0  0  0  0  0  0  0  0  0  0
   10.8595  -15.9669   27.1639 C   0  0  2  0  0  0  0  0  0  0  0  0
    9.9519  -15.0965   26.4050 N   0  0  0  0  0  0  0  0  0  0  0  0
   10.0317  -16.8683   27.9916 C   0  0  0  0  0  0  0  0  0  0  0  0
   10.6535  -17.9192   28.6467 O   0  0  0  0  0  0  0  0  0  0  0  0
    8.7990  -16.7106   28.1157 O   0  0  0  0  0  0  0  0  0  0  0  0
  2  1  1  1
  3  2  1  0
  4  3  1  0
  5  4  1  0
  6  5  1  0
  7  6  1  0
  8  9  2  0
  8  2  1  0
 10 11  1  0
 11 12  1  0
 14 13  1  1
 13 12  1  0
 14 15  1  0
 15  8  1  0
 16 14  1  0
 17 16  2  0
 19 18  1  1
 19 20  1  0
 20 16  1  0
 21 19  1  0
 22 21  1  0
 23 21  2  0
M  END
$$$$
