KMA.pdb
     RDKit          3D

 23 22  0  0  1  0  0  0  0  0999 V2000
    9.0376  -18.9182   19.7300 N   0  0  0  0  0  0  0  0  0  0  0  0
   10.2174  -18.1116   19.4794 C   0  0  1  0  0  0  0  0  0  0  0  0
   10.1595  -17.6144   18.0742 C   0  0  0  0  0  0  0  0  0  0  0  0
    8.7968  -18.0289   17.5119 C   0  0  0  0  0  0  0  0  0  0  0  0
    8.6645  -17.6150   16.0666 C   0  0  0  0  0  0  0  0  0  0  0  0
    7.2749  -18.0203   15.6155 C   0  0  0  0  0  0  0  0  0  0  0  0
    7.0602  -17.5868   14.2601 N   0  0  0  0  0  0  0  0  0  0  0  0
   10.2628  -17.0125   20.4800 C   0  0  0  0  0  0  0  0  0  0  0  0
   11.2232  -16.2003   20.5089 O   0  0  0  0  0  0  0  0  0  0  0  0
    7.1648  -12.2527   19.4756 C   0  0  0  0  0  0  0  0  0  0  0  0
    8.0210  -13.1103   20.8051 S   0  0  0  0  0  0  0  0  0  0  0  0
    7.1773  -14.6125   21.2953 C   0  0  0  0  0  0  0  0  0  0  0  0
    7.7531  -15.2193   22.5534 C   0  0  0  0  0  0  0  0  0  0  0  0
    9.1826  -15.6789   22.3395 C   0  0  2  0  0  0  0  0  0  0  0  0
    9.2368  -16.8224   21.4456 N   0  0  0  0  0  0  0  0  0  0  0  0
    9.8195  -16.0765   23.6213 C   0  0  0  0  0  0  0  0  0  0  0  0
    9.8872  -15.2980   24.6193 O   0  0  0  0  0  0  0  0  0  0  0  0
   10.7514  -19.1468   25.4196 C   0  0  0  0  0  0  0  0  0  0  0  0
   11.0771  -17.7136   25.0601 C   0  0  2  0  0  0  0  0  0  0  0  0
   10.3981  -17.3723   23.8033 N   0  0  0  0  0  0  0  0  0  0  0  0
   12.5327  -17.6145   24.8268 C   0  0  0  0  0  0  0  0  0  0  0  0
   13.3882  -17.8294   25.8955 O   0  0  0  0  0  0  0  0  0  0  0  0
   13.0082  -17.3449   23.7040 O   0  0  0  0  0  0  0  0  0  0  0  0
  2  1  1  1
  3  2  1  0
  4  3  1  0
  5  4  1  0
  6  5  1  0
  7  6  1  0
  8  9  2  0
  8  2  1  0
 10 11  1  0
 11 12  1  0
 14 13  1  1
 13 12  1  0
 14 15  1  0
 15  8  1  0
 16 14  1  0
 17 16  2  0
 19 18  1  6
 19 20  1  0
 20 16  1  0
 21 19  1  0
 22 21  1  0
 23 21  2  0
M  END
$$$$
