KMA.pdb
     RDKit          3D

 23 22  0  0  1  0  0  0  0  0999 V2000
    8.1658  -12.8106   19.4571 N   0  0  0  0  0  0  0  0  0  0  0  0
    7.8646  -14.0767   20.0985 C   0  0  1  0  0  0  0  0  0  0  0  0
    8.4522  -15.1739   19.2763 C   0  0  0  0  0  0  0  0  0  0  0  0
    7.7035  -15.1782   17.9406 C   0  0  0  0  0  0  0  0  0  0  0  0
    8.1503  -16.3339   17.0789 C   0  0  0  0  0  0  0  0  0  0  0  0
    7.4394  -16.1936   15.7470 C   0  0  0  0  0  0  0  0  0  0  0  0
    7.7317  -17.3344   14.9198 N   0  0  0  0  0  0  0  0  0  0  0  0
    8.3981  -14.0451   21.4863 C   0  0  0  0  0  0  0  0  0  0  0  0
    9.5296  -13.5551   21.7356 O   0  0  0  0  0  0  0  0  0  0  0  0
    6.1433  -10.3814   26.6574 C   0  0  0  0  0  0  0  0  0  0  0  0
    6.2608  -12.1745   26.5733 S   0  0  0  0  0  0  0  0  0  0  0  0
    6.8776  -12.7389   24.9892 C   0  0  0  0  0  0  0  0  0  0  0  0
    7.1151  -14.2306   24.9550 C   0  0  0  0  0  0  0  0  0  0  0  0
    8.1885  -14.5949   23.9473 C   0  0  2  0  0  0  0  0  0  0  0  0
    7.6677  -14.5603   22.5918 N   0  0  0  0  0  0  0  0  0  0  0  0
    8.7187  -15.9606   24.1931 C   0  0  0  0  0  0  0  0  0  0  0  0
    7.9874  -16.9948   24.1454 O   0  0  0  0  0  0  0  0  0  0  0  0
   12.0382  -17.6351   24.3410 C   0  0  0  0  0  0  0  0  0  0  0  0
   10.5870  -17.5482   24.7600 C   0  0  2  0  0  0  0  0  0  0  0  0
   10.0974  -16.1880   24.5004 N   0  0  0  0  0  0  0  0  0  0  0  0
   10.5110  -17.7837   26.2167 C   0  0  0  0  0  0  0  0  0  0  0  0
    9.9939  -16.7809   27.0210 O   0  0  0  0  0  0  0  0  0  0  0  0
   10.8964  -18.8514   26.7376 O   0  0  0  0  0  0  0  0  0  0  0  0
  2  1  1  6
  3  2  1  0
  4  3  1  0
  5  4  1  0
  6  5  1  0
  7  6  1  0
  8  9  2  0
  8  2  1  0
 10 11  1  0
 11 12  1  0
 14 13  1  1
 13 12  1  0
 14 15  1  0
 15  8  1  0
 16 14  1  0
 17 16  2  0
 19 18  1  1
 19 20  1  0
 20 16  1  0
 21 19  1  0
 22 21  1  0
 23 21  2  0
M  END
$$$$
