KMA.pdb
     RDKit          3D

 23 22  0  0  1  0  0  0  0  0999 V2000
    8.8132  -15.7586   19.0578 N   0  0  0  0  0  0  0  0  0  0  0  0
    7.8932  -16.1066   20.1244 C   0  0  1  0  0  0  0  0  0  0  0  0
    7.6926  -17.5847   20.1111 C   0  0  0  0  0  0  0  0  0  0  0  0
    7.4535  -17.9877   18.6533 C   0  0  0  0  0  0  0  0  0  0  0  0
    7.1750  -19.4670   18.5444 C   0  0  0  0  0  0  0  0  0  0  0  0
    6.8287  -19.7467   17.0950 C   0  0  0  0  0  0  0  0  0  0  0  0
    6.5505  -21.1486   16.9257 N   0  0  0  0  0  0  0  0  0  0  0  0
    8.4483  -15.6102   21.4116 C   0  0  0  0  0  0  0  0  0  0  0  0
    9.6892  -15.5860   21.6169 O   0  0  0  0  0  0  0  0  0  0  0  0
    7.1164  -11.3859   28.0061 C   0  0  0  0  0  0  0  0  0  0  0  0
    6.3815  -12.2822   26.6303 S   0  0  0  0  0  0  0  0  0  0  0  0
    7.5750  -13.3099   25.7771 C   0  0  0  0  0  0  0  0  0  0  0  0
    7.0797  -13.7808   24.4297 C   0  0  0  0  0  0  0  0  0  0  0  0
    8.1346  -14.5990   23.7099 C   0  0  2  0  0  0  0  0  0  0  0  0
    7.6175  -15.1423   22.4660 N   0  0  0  0  0  0  0  0  0  0  0  0
    8.5960  -15.7387   24.5436 C   0  0  0  0  0  0  0  0  0  0  0  0
    7.8193  -16.6676   24.9186 O   0  0  0  0  0  0  0  0  0  0  0  0
   11.8513  -17.3344   25.2881 C   0  0  0  0  0  0  0  0  0  0  0  0
   10.4144  -17.0601   25.6746 C   0  0  2  0  0  0  0  0  0  0  0  0
    9.9554  -15.8534   24.9744 N   0  0  0  0  0  0  0  0  0  0  0  0
   10.3703  -16.7833   27.1253 C   0  0  0  0  0  0  0  0  0  0  0  0
   10.6500  -17.8182   28.0032 O   0  0  0  0  0  0  0  0  0  0  0  0
   10.0905  -15.6532   27.5773 O   0  0  0  0  0  0  0  0  0  0  0  0
  2  1  1  6
  3  2  1  0
  4  3  1  0
  5  4  1  0
  6  5  1  0
  7  6  1  0
  8  9  2  0
  8  2  1  0
 10 11  1  0
 11 12  1  0
 14 13  1  1
 13 12  1  0
 14 15  1  0
 15  8  1  0
 16 14  1  0
 17 16  2  0
 19 18  1  6
 19 20  1  0
 20 16  1  0
 21 19  1  0
 22 21  1  0
 23 21  2  0
M  END
$$$$
