KMA.pdb
     RDKit          3D

 23 22  0  0  1  0  0  0  0  0999 V2000
    7.6323  -16.0916   21.2174 N   0  0  0  0  0  0  0  0  0  0  0  0
    8.7038  -15.1149   21.2735 C   0  0  1  0  0  0  0  0  0  0  0  0
    8.2999  -13.9244   20.4705 C   0  0  0  0  0  0  0  0  0  0  0  0
    8.1089  -14.4046   19.0291 C   0  0  0  0  0  0  0  0  0  0  0  0
    7.9315  -13.2341   18.0928 C   0  0  0  0  0  0  0  0  0  0  0  0
    7.6522  -13.8064   16.7168 C   0  0  0  0  0  0  0  0  0  0  0  0
    7.3554  -12.7381   15.7994 N   0  0  0  0  0  0  0  0  0  0  0  0
    8.9734  -14.7865   22.6985 C   0  0  0  0  0  0  0  0  0  0  0  0
    9.9114  -14.0122   23.0199 O   0  0  0  0  0  0  0  0  0  0  0  0
    7.3784  -11.4824   27.4688 C   0  0  0  0  0  0  0  0  0  0  0  0
    6.0403  -12.0925   26.4328 S   0  0  0  0  0  0  0  0  0  0  0  0
    6.6138  -13.2677   25.2086 C   0  0  0  0  0  0  0  0  0  0  0  0
    7.1344  -14.5443   25.8264 C   0  0  0  0  0  0  0  0  0  0  0  0
    8.4190  -14.9960   25.1586 C   0  0  2  0  0  0  0  0  0  0  0  0
    8.1959  -15.3228   23.7610 N   0  0  0  0  0  0  0  0  0  0  0  0
    8.9770  -16.2027   25.8214 C   0  0  0  0  0  0  0  0  0  0  0  0
    9.1349  -16.2796   27.0768 O   0  0  0  0  0  0  0  0  0  0  0  0
    9.5554  -19.7694   24.8949 C   0  0  0  0  0  0  0  0  0  0  0  0
    9.8432  -18.5646   25.7636 C   0  0  2  0  0  0  0  0  0  0  0  0
    9.3713  -17.3569   25.0736 N   0  0  0  0  0  0  0  0  0  0  0  0
   11.3075  -18.4486   25.9235 C   0  0  0  0  0  0  0  0  0  0  0  0
   11.9592  -17.4014   25.2921 O   0  0  0  0  0  0  0  0  0  0  0  0
   11.9672  -19.2607   26.6054 O   0  0  0  0  0  0  0  0  0  0  0  0
  2  1  1  1
  3  2  1  0
  4  3  1  0
  5  4  1  0
  6  5  1  0
  7  6  1  0
  8  9  2  0
  8  2  1  0
 10 11  1  0
 11 12  1  0
 14 13  1  1
 13 12  1  0
 14 15  1  0
 15  8  1  0
 16 14  1  0
 17 16  2  0
 19 18  1  6
 19 20  1  0
 20 16  1  0
 21 19  1  0
 22 21  1  0
 23 21  2  0
M  END
$$$$
