KMA.pdb
     RDKit          3D

 23 22  0  0  1  0  0  0  0  0999 V2000
    9.9411  -16.2693   20.2200 N   0  0  0  0  0  0  0  0  0  0  0  0
    8.9591  -16.6843   21.2041 C   0  0  1  0  0  0  0  0  0  0  0  0
    9.0987  -18.1537   21.4197 C   0  0  0  0  0  0  0  0  0  0  0  0
    9.9631  -18.6907   20.2754 C   0  0  0  0  0  0  0  0  0  0  0  0
   10.2427  -20.1624   20.4593 C   0  0  0  0  0  0  0  0  0  0  0  0
   11.1330  -20.5908   19.3092 C   0  0  0  0  0  0  0  0  0  0  0  0
   11.5252  -21.9641   19.4862 N   0  0  0  0  0  0  0  0  0  0  0  0
    9.1691  -15.8953   22.4470 C   0  0  0  0  0  0  0  0  0  0  0  0
   10.3214  -15.5338   22.7994 O   0  0  0  0  0  0  0  0  0  0  0  0
    7.4741  -11.2896   28.1966 C   0  0  0  0  0  0  0  0  0  0  0  0
    7.3014  -11.9021   26.5140 S   0  0  0  0  0  0  0  0  0  0  0  0
    7.1213  -13.6833   26.4571 C   0  0  0  0  0  0  0  0  0  0  0  0
    6.9857  -14.2099   25.0475 C   0  0  0  0  0  0  0  0  0  0  0  0
    8.2788  -14.8411   24.5680 C   0  0  2  0  0  0  0  0  0  0  0  0
    8.0930  -15.5117   23.2931 N   0  0  0  0  0  0  0  0  0  0  0  0
    8.7812  -15.8470   25.5389 C   0  0  0  0  0  0  0  0  0  0  0  0
    8.1382  -16.9021   25.8217 O   0  0  0  0  0  0  0  0  0  0  0  0
   12.0211  -16.8390   26.9774 C   0  0  0  0  0  0  0  0  0  0  0  0
   10.5217  -16.7142   27.1360 C   0  0  2  0  0  0  0  0  0  0  0  0
   10.0304  -15.6800   26.2160 N   0  0  0  0  0  0  0  0  0  0  0  0
   10.2381  -16.2625   28.5139 C   0  0  0  0  0  0  0  0  0  0  0  0
   10.5474  -17.1126   29.5636 O   0  0  0  0  0  0  0  0  0  0  0  0
    9.7323  -15.1466   28.7559 O   0  0  0  0  0  0  0  0  0  0  0  0
  2  1  1  6
  3  2  1  0
  4  3  1  0
  5  4  1  0
  6  5  1  0
  7  6  1  0
  8  9  2  0
  8  2  1  0
 10 11  1  0
 11 12  1  0
 14 13  1  1
 13 12  1  0
 14 15  1  0
 15  8  1  0
 16 14  1  0
 17 16  2  0
 19 18  1  1
 19 20  1  0
 20 16  1  0
 21 19  1  0
 22 21  1  0
 23 21  2  0
M  END
$$$$
