KMA.pdb
     RDKit          3D

 23 22  0  0  1  0  0  0  0  0999 V2000
    9.7883  -15.8336   19.5784 N   0  0  0  0  0  0  0  0  0  0  0  0
    9.1069  -16.6812   20.5388 C   0  0  1  0  0  0  0  0  0  0  0  0
    9.5820  -18.0828   20.3520 C   0  0  0  0  0  0  0  0  0  0  0  0
    8.6136  -18.7536   19.3737 C   0  0  0  0  0  0  0  0  0  0  0  0
    9.3269  -19.7873   18.5367 C   0  0  0  0  0  0  0  0  0  0  0  0
    8.2684  -20.5030   17.7205 C   0  0  0  0  0  0  0  0  0  0  0  0
    8.8930  -21.4795   16.8674 N   0  0  0  0  0  0  0  0  0  0  0  0
    9.3716  -16.1586   21.9057 C   0  0  0  0  0  0  0  0  0  0  0  0
   10.4614  -16.3910   22.4896 O   0  0  0  0  0  0  0  0  0  0  0  0
    6.9386  -11.6339   27.9915 C   0  0  0  0  0  0  0  0  0  0  0  0
    6.6655  -12.1616   26.2935 S   0  0  0  0  0  0  0  0  0  0  0  0
    7.6459  -13.5982   25.8651 C   0  0  0  0  0  0  0  0  0  0  0  0
    7.4996  -13.9909   24.4136 C   0  0  0  0  0  0  0  0  0  0  0  0
    8.6336  -14.8951   23.9701 C   0  0  2  0  0  0  0  0  0  0  0  0
    8.4198  -15.3783   22.6172 N   0  0  0  0  0  0  0  0  0  0  0  0
    8.7592  -16.0792   24.8584 C   0  0  0  0  0  0  0  0  0  0  0  0
    7.8294  -16.9295   24.9967 O   0  0  0  0  0  0  0  0  0  0  0  0
   11.3542  -18.2553   26.0577 C   0  0  0  0  0  0  0  0  0  0  0  0
   10.0697  -17.5465   26.4274 C   0  0  2  0  0  0  0  0  0  0  0  0
    9.9474  -16.3289   25.6152 N   0  0  0  0  0  0  0  0  0  0  0  0
   10.1590  -17.1358   27.8439 C   0  0  0  0  0  0  0  0  0  0  0  0
   10.1226  -15.7831   28.1420 O   0  0  0  0  0  0  0  0  0  0  0  0
   10.2652  -17.9663   28.7705 O   0  0  0  0  0  0  0  0  0  0  0  0
  2  1  1  6
  3  2  1  0
  4  3  1  0
  5  4  1  0
  6  5  1  0
  7  6  1  0
  8  9  2  0
  8  2  1  0
 10 11  1  0
 11 12  1  0
 14 13  1  1
 13 12  1  0
 14 15  1  0
 15  8  1  0
 16 14  1  0
 17 16  2  0
 19 18  1  6
 19 20  1  0
 20 16  1  0
 21 19  1  0
 22 21  1  0
 23 21  2  0
M  END
$$$$
