KMA.pdb
     RDKit          3D

 23 22  0  0  1  0  0  0  0  0999 V2000
    7.7518  -14.4350   19.7395 N   0  0  0  0  0  0  0  0  0  0  0  0
    7.5421  -15.5502   20.6436 C   0  0  1  0  0  0  0  0  0  0  0  0
    8.0905  -16.7831   20.0076 C   0  0  0  0  0  0  0  0  0  0  0  0
    7.0079  -17.3160   19.0649 C   0  0  0  0  0  0  0  0  0  0  0  0
    7.4430  -18.6127   18.4269 C   0  0  0  0  0  0  0  0  0  0  0  0
    6.2591  -19.1368   17.6378 C   0  0  0  0  0  0  0  0  0  0  0  0
    6.5939  -20.4066   17.0489 N   0  0  0  0  0  0  0  0  0  0  0  0
    8.1886  -15.2348   21.9452 C   0  0  0  0  0  0  0  0  0  0  0  0
    9.3478  -14.7483   21.9931 O   0  0  0  0  0  0  0  0  0  0  0  0
    7.3748  -11.2855   27.2618 C   0  0  0  0  0  0  0  0  0  0  0  0
    6.1363  -11.9777   26.1559 S   0  0  0  0  0  0  0  0  0  0  0  0
    6.8639  -13.0125   24.8876 C   0  0  0  0  0  0  0  0  0  0  0  0
    7.1317  -14.4198   25.3675 C   0  0  0  0  0  0  0  0  0  0  0  0
    8.1318  -15.1264   24.4726 C   0  0  2  0  0  0  0  0  0  0  0  0
    7.5402  -15.4631   23.1895 N   0  0  0  0  0  0  0  0  0  0  0  0
    8.6148  -16.3871   25.0924 C   0  0  0  0  0  0  0  0  0  0  0  0
    7.8284  -17.3097   25.4628 O   0  0  0  0  0  0  0  0  0  0  0  0
   11.8985  -18.1236   25.6070 C   0  0  0  0  0  0  0  0  0  0  0  0
   10.4507  -17.8700   25.9656 C   0  0  2  0  0  0  0  0  0  0  0  0
   10.0074  -16.6335   25.3086 N   0  0  0  0  0  0  0  0  0  0  0  0
   10.3656  -17.6595   27.4256 C   0  0  0  0  0  0  0  0  0  0  0  0
   10.6863  -18.7151   28.2641 O   0  0  0  0  0  0  0  0  0  0  0  0
   10.0161  -16.5671   27.9196 O   0  0  0  0  0  0  0  0  0  0  0  0
  2  1  1  6
  3  2  1  0
  4  3  1  0
  5  4  1  0
  6  5  1  0
  7  6  1  0
  8  9  2  0
  8  2  1  0
 10 11  1  0
 11 12  1  0
 14 13  1  1
 13 12  1  0
 14 15  1  0
 15  8  1  0
 16 14  1  0
 17 16  2  0
 19 18  1  1
 19 20  1  0
 20 16  1  0
 21 19  1  0
 22 21  1  0
 23 21  2  0
M  END
$$$$
