CSI.pdb
     RDKit          3D

 21 20  0  0  1  0  0  0  0  0999 V2000
    7.9653  -15.5918   17.2888 N   0  0  0  0  0  0  0  0  0  0  0  0
    8.4578  -14.8046   18.3997 C   0  0  1  0  0  0  0  0  0  0  0  0
    7.9857  -13.3729   18.1545 C   0  0  0  0  0  0  0  0  0  0  0  0
    8.4536  -12.3200   19.5551 S   0  0  0  0  0  0  0  0  0  0  0  0
    7.8324  -15.2660   19.6420 C   0  0  0  0  0  0  0  0  0  0  0  0
    6.7088  -15.8584   19.5804 O   0  0  0  0  0  0  0  0  0  0  0  0
    8.9992  -17.6324   22.6430 O   0  0  0  0  0  0  0  0  0  0  0  0
    7.8481  -17.2372   21.9794 C   0  0  0  0  0  0  0  0  0  0  0  0
    7.7910  -15.7109   22.0635 C   0  0  2  0  0  0  0  0  0  0  0  0
    8.3952  -15.0996   20.9353 N   0  0  0  0  0  0  0  0  0  0  0  0
    8.4132  -15.3500   23.3618 C   0  0  0  0  0  0  0  0  0  0  0  0
    9.6525  -15.2364   23.3543 O   0  0  0  0  0  0  0  0  0  0  0  0
    6.9454  -11.0352   27.1479 C   0  0  0  0  0  0  0  0  0  0  0  0
    7.7949  -12.2850   26.9850 C   0  0  0  0  0  0  0  0  0  0  0  0
    7.2131  -13.2346   25.9862 C   0  0  2  0  0  0  0  0  0  0  0  0
    5.8163  -13.6683   26.3256 C   0  0  0  0  0  0  0  0  0  0  0  0
    8.1644  -14.3201   25.6513 C   0  0  2  0  0  0  0  0  0  0  0  0
    7.6861  -15.1410   24.5475 N   0  0  0  0  0  0  0  0  0  0  0  0
    8.6813  -15.1167   26.7762 C   0  0  0  0  0  0  0  0  0  0  0  0
    8.5367  -16.4819   26.8176 O   0  0  0  0  0  0  0  0  0  0  0  0
    9.2733  -14.5721   27.7294 O   0  0  0  0  0  0  0  0  0  0  0  0
  2  3  1  0
  2  1  1  6
  4  3  1  0
  5  2  1  0
  5  6  2  0
  8  7  1  0
  9  8  1  6
  9 11  1  0
  9 10  1  0
 10  5  1  0
 11 12  2  0
 13 14  1  0
 14 15  1  0
 15 16  1  1
 17 15  1  0
 17 18  1  6
 18 11  1  0
 19 17  1  0
 20 19  1  0
 21 19  2  0
M  END
$$$$
