CSI.pdb
     RDKit          3D

 21 20  0  0  1  0  0  0  0  0999 V2000
    7.2994  -16.1747   18.0233 N   0  0  0  0  0  0  0  0  0  0  0  0
    8.2639  -16.2501   19.1005 C   0  0  1  0  0  0  0  0  0  0  0  0
    9.2001  -15.0564   18.9233 C   0  0  0  0  0  0  0  0  0  0  0  0
    8.2682  -13.5100   19.0955 S   0  0  0  0  0  0  0  0  0  0  0  0
    7.5779  -16.0827   20.3845 C   0  0  0  0  0  0  0  0  0  0  0  0
    6.5019  -15.4059   20.4219 O   0  0  0  0  0  0  0  0  0  0  0  0
    7.8670  -18.5906   23.5861 O   0  0  0  0  0  0  0  0  0  0  0  0
    6.7502  -17.8126   23.3232 C   0  0  0  0  0  0  0  0  0  0  0  0
    7.2603  -16.4706   22.7953 C   0  0  2  0  0  0  0  0  0  0  0  0
    8.0306  -16.6288   21.6150 N   0  0  0  0  0  0  0  0  0  0  0  0
    7.9907  -15.8394   23.9229 C   0  0  0  0  0  0  0  0  0  0  0  0
    9.2297  -15.9520   23.8949 O   0  0  0  0  0  0  0  0  0  0  0  0
    5.5564  -11.6789   26.3927 C   0  0  0  0  0  0  0  0  0  0  0  0
    6.4593  -12.7048   25.7276 C   0  0  0  0  0  0  0  0  0  0  0  0
    7.2861  -13.4560   26.7226 C   0  0  2  0  0  0  0  0  0  0  0  0
    8.0336  -12.5602   27.6677 C   0  0  0  0  0  0  0  0  0  0  0  0
    8.0852  -14.5202   26.0711 C   0  0  2  0  0  0  0  0  0  0  0  0
    7.3618  -15.1494   24.9749 N   0  0  0  0  0  0  0  0  0  0  0  0
    8.7390  -15.4943   26.9604 C   0  0  0  0  0  0  0  0  0  0  0  0
    9.9537  -15.2324   27.5456 O   0  0  0  0  0  0  0  0  0  0  0  0
    8.2037  -16.5921   27.2135 O   0  0  0  0  0  0  0  0  0  0  0  0
  2  3  1  0
  2  1  1  6
  4  3  1  0
  5  2  1  0
  5  6  2  0
  8  7  1  0
  9  8  1  1
  9 11  1  0
  9 10  1  0
 10  5  1  0
 11 12  2  0
 13 14  1  0
 14 15  1  0
 15 16  1  6
 17 15  1  0
 17 18  1  6
 18 11  1  0
 19 17  1  0
 20 19  1  0
 21 19  2  0
M  END
$$$$
