CSI.pdb
     RDKit          3D

 21 20  0  0  1  0  0  0  0  0999 V2000
    7.5228  -15.2217   17.8970 N   0  0  0  0  0  0  0  0  0  0  0  0
    8.3829  -14.6305   18.9005 C   0  0  1  0  0  0  0  0  0  0  0  0
    7.9764  -13.1618   19.0035 C   0  0  0  0  0  0  0  0  0  0  0  0
    8.8003  -12.2005   17.7050 S   0  0  0  0  0  0  0  0  0  0  0  0
    8.1168  -15.2515   20.2008 C   0  0  0  0  0  0  0  0  0  0  0  0
    6.9113  -15.4732   20.5400 O   0  0  0  0  0  0  0  0  0  0  0  0
   10.8830  -17.1764   22.6417 O   0  0  0  0  0  0  0  0  0  0  0  0
    9.5375  -17.5098   22.6341 C   0  0  0  0  0  0  0  0  0  0  0  0
    8.7629  -16.2171   22.3718 C   0  0  2  0  0  0  0  0  0  0  0  0
    9.1209  -15.6328   21.1301 N   0  0  0  0  0  0  0  0  0  0  0  0
    9.0076  -15.3484   23.5502 C   0  0  0  0  0  0  0  0  0  0  0  0
   10.0504  -14.6701   23.5147 O   0  0  0  0  0  0  0  0  0  0  0  0
    6.7053  -11.1856   26.9682 C   0  0  0  0  0  0  0  0  0  0  0  0
    7.5710  -12.4316   27.0578 C   0  0  0  0  0  0  0  0  0  0  0  0
    7.2736  -13.4037   25.9603 C   0  0  2  0  0  0  0  0  0  0  0  0
    5.8871  -13.9750   26.0352 C   0  0  0  0  0  0  0  0  0  0  0  0
    8.3702  -14.3861   25.7934 C   0  0  2  0  0  0  0  0  0  0  0  0
    8.1426  -15.2671   24.6564 N   0  0  0  0  0  0  0  0  0  0  0  0
    8.7999  -15.1089   27.0017 C   0  0  0  0  0  0  0  0  0  0  0  0
    8.7855  -16.4809   27.0629 O   0  0  0  0  0  0  0  0  0  0  0  0
    9.1962  -14.4925   28.0111 O   0  0  0  0  0  0  0  0  0  0  0  0
  2  3  1  0
  2  1  1  6
  4  3  1  0
  5  2  1  0
  5  6  2  0
  8  7  1  0
  9  8  1  1
  9 11  1  0
  9 10  1  0
 10  5  1  0
 11 12  2  0
 13 14  1  0
 14 15  1  0
 15 16  1  1
 17 15  1  0
 17 18  1  6
 18 11  1  0
 19 17  1  0
 20 19  1  0
 21 19  2  0
M  END
$$$$
