CSI.pdb
     RDKit          3D

 21 20  0  0  1  0  0  0  0  0999 V2000
    7.5247  -15.3231   17.9039 N   0  0  0  0  0  0  0  0  0  0  0  0
    8.2881  -14.6334   18.9226 C   0  0  1  0  0  0  0  0  0  0  0  0
    7.7761  -13.1946   18.9427 C   0  0  0  0  0  0  0  0  0  0  0  0
    8.5052  -12.2605   17.5697 S   0  0  0  0  0  0  0  0  0  0  0  0
    7.9979  -15.2206   20.2334 C   0  0  0  0  0  0  0  0  0  0  0  0
    6.7873  -15.4481   20.5498 O   0  0  0  0  0  0  0  0  0  0  0  0
   10.5866  -17.3163   22.5349 O   0  0  0  0  0  0  0  0  0  0  0  0
    9.2203  -17.4495   22.7273 C   0  0  0  0  0  0  0  0  0  0  0  0
    8.6004  -16.0765   22.4623 C   0  0  2  0  0  0  0  0  0  0  0  0
    8.9835  -15.5623   21.1972 N   0  0  0  0  0  0  0  0  0  0  0  0
    8.9898  -15.2238   23.6130 C   0  0  0  0  0  0  0  0  0  0  0  0
   10.0614  -14.6034   23.4880 O   0  0  0  0  0  0  0  0  0  0  0  0
    5.8531  -12.4189   27.5406 C   0  0  0  0  0  0  0  0  0  0  0  0
    6.4609  -13.5084   26.6724 C   0  0  0  0  0  0  0  0  0  0  0  0
    7.8246  -13.1403   26.1799 C   0  0  2  0  0  0  0  0  0  0  0  0
    7.7997  -12.1380   25.0622 C   0  0  0  0  0  0  0  0  0  0  0  0
    8.6624  -14.3413   25.9536 C   0  0  2  0  0  0  0  0  0  0  0  0
    8.2263  -15.0967   24.7874 N   0  0  0  0  0  0  0  0  0  0  0  0
    8.9248  -15.1946   27.1241 C   0  0  0  0  0  0  0  0  0  0  0  0
    8.5921  -16.5271   27.1324 O   0  0  0  0  0  0  0  0  0  0  0  0
    9.4642  -14.7303   28.1485 O   0  0  0  0  0  0  0  0  0  0  0  0
  2  3  1  0
  2  1  1  6
  4  3  1  0
  5  2  1  0
  5  6  2  0
  8  7  1  0
  9  8  1  1
  9 11  1  0
  9 10  1  0
 10  5  1  0
 11 12  2  0
 13 14  1  0
 14 15  1  0
 15 16  1  6
 17 15  1  0
 17 18  1  6
 18 11  1  0
 19 17  1  0
 20 19  1  0
 21 19  2  0
M  END
$$$$
