CSI.pdb
     RDKit          3D

 21 20  0  0  1  0  0  0  0  0999 V2000
   10.9400  -15.7823   19.2861 N   0  0  0  0  0  0  0  0  0  0  0  0
   11.8170  -15.6991   20.4351 C   0  0  1  0  0  0  0  0  0  0  0  0
   12.2580  -14.2402   20.5343 C   0  0  0  0  0  0  0  0  0  0  0  0
   13.7390  -13.9726   19.5221 S   0  0  0  0  0  0  0  0  0  0  0  0
   11.0619  -16.0127   21.6511 C   0  0  0  0  0  0  0  0  0  0  0  0
    9.9309  -15.4597   21.8312 O   0  0  0  0  0  0  0  0  0  0  0  0
   11.5557  -19.3398   24.0446 O   0  0  0  0  0  0  0  0  0  0  0  0
   10.3500  -18.6742   23.8868 C   0  0  0  0  0  0  0  0  0  0  0  0
   10.6779  -17.1838   23.7829 C   0  0  2  0  0  0  0  0  0  0  0  0
   11.5041  -16.9042   22.6645 N   0  0  0  0  0  0  0  0  0  0  0  0
   11.2686  -16.8036   25.0905 C   0  0  0  0  0  0  0  0  0  0  0  0
   12.5084  -16.6975   25.1132 O   0  0  0  0  0  0  0  0  0  0  0  0
    9.0419  -13.4027   28.9861 C   0  0  0  0  0  0  0  0  0  0  0  0
    9.3459  -14.7594   28.3721 C   0  0  0  0  0  0  0  0  0  0  0  0
   10.7889  -14.8997   28.0034 C   0  0  2  0  0  0  0  0  0  0  0  0
   11.2849  -13.7909   27.1209 C   0  0  0  0  0  0  0  0  0  0  0  0
   11.1024  -16.2757   27.5518 C   0  0  2  0  0  0  0  0  0  0  0  0
   10.5124  -16.5693   26.2531 N   0  0  0  0  0  0  0  0  0  0  0  0
   10.8988  -17.3556   28.5313 C   0  0  0  0  0  0  0  0  0  0  0  0
   10.0401  -18.3987   28.2844 O   0  0  0  0  0  0  0  0  0  0  0  0
   11.5073  -17.3572   29.6201 O   0  0  0  0  0  0  0  0  0  0  0  0
  2  3  1  0
  2  1  1  6
  4  3  1  0
  5  2  1  0
  5  6  2  0
  8  7  1  0
  9  8  1  1
  9 11  1  0
  9 10  1  0
 10  5  1  0
 11 12  2  0
 13 14  1  0
 14 15  1  0
 15 16  1  6
 17 15  1  0
 17 18  1  6
 18 11  1  0
 19 17  1  0
 20 19  1  0
 21 19  2  0
M  END
$$$$
