CSI.pdb
     RDKit          3D

 21 20  0  0  1  0  0  0  0  0999 V2000
    7.6594  -15.6890   18.1623 N   0  0  0  0  0  0  0  0  0  0  0  0
    8.3654  -14.9293   19.1726 C   0  0  1  0  0  0  0  0  0  0  0  0
    7.8323  -13.5007   19.0866 C   0  0  0  0  0  0  0  0  0  0  0  0
    8.5857  -12.4814   20.3838 S   0  0  0  0  0  0  0  0  0  0  0  0
    8.0243  -15.4457   20.5009 C   0  0  0  0  0  0  0  0  0  0  0  0
    6.8014  -15.6479   20.7854 O   0  0  0  0  0  0  0  0  0  0  0  0
   10.4295  -17.6180   22.9601 O   0  0  0  0  0  0  0  0  0  0  0  0
    9.0454  -17.6644   23.0203 C   0  0  0  0  0  0  0  0  0  0  0  0
    8.5439  -16.2407   22.7727 C   0  0  2  0  0  0  0  0  0  0  0  0
    8.9725  -15.7438   21.5153 N   0  0  0  0  0  0  0  0  0  0  0  0
    9.0004  -15.4391   23.9355 C   0  0  0  0  0  0  0  0  0  0  0  0
   10.1232  -14.9144   23.8230 O   0  0  0  0  0  0  0  0  0  0  0  0
    5.7142  -12.0977   26.2100 C   0  0  0  0  0  0  0  0  0  0  0  0
    6.9121  -12.8759   25.6909 C   0  0  0  0  0  0  0  0  0  0  0  0
    7.6264  -13.6051   26.7845 C   0  0  2  0  0  0  0  0  0  0  0  0
    8.0140  -12.7182   27.9324 C   0  0  0  0  0  0  0  0  0  0  0  0
    8.6996  -14.4738   26.2468 C   0  0  2  0  0  0  0  0  0  0  0  0
    8.2442  -15.2587   25.1077 N   0  0  0  0  0  0  0  0  0  0  0  0
    9.4582  -15.2702   27.2253 C   0  0  0  0  0  0  0  0  0  0  0  0
   10.4770  -14.7213   27.9649 O   0  0  0  0  0  0  0  0  0  0  0  0
    9.1936  -16.4742   27.4156 O   0  0  0  0  0  0  0  0  0  0  0  0
  2  3  1  0
  2  1  1  6
  4  3  1  0
  5  2  1  0
  5  6  2  0
  8  7  1  0
  9  8  1  1
  9 11  1  0
  9 10  1  0
 10  5  1  0
 11 12  2  0
 13 14  1  0
 14 15  1  0
 15 16  1  1
 17 15  1  0
 17 18  1  6
 18 11  1  0
 19 17  1  0
 20 19  1  0
 21 19  2  0
M  END
$$$$
