CSI.pdb
     RDKit          3D

 21 20  0  0  1  0  0  0  0  0999 V2000
    7.9600  -13.2353   18.1097 N   0  0  0  0  0  0  0  0  0  0  0  0
    8.5697  -14.3936   18.7285 C   0  0  1  0  0  0  0  0  0  0  0  0
   10.0066  -13.9966   19.0610 C   0  0  0  0  0  0  0  0  0  0  0  0
   10.0097  -12.5758   20.1881 S   0  0  0  0  0  0  0  0  0  0  0  0
    7.8915  -14.6864   19.9941 C   0  0  0  0  0  0  0  0  0  0  0  0
    7.1468  -13.7950   20.5120 O   0  0  0  0  0  0  0  0  0  0  0  0
    8.3055  -18.1913   22.2761 O   0  0  0  0  0  0  0  0  0  0  0  0
    7.0606  -17.5855   22.2085 C   0  0  0  0  0  0  0  0  0  0  0  0
    7.3051  -16.1032   21.9208 C   0  0  2  0  0  0  0  0  0  0  0  0
    8.0038  -15.9130   20.7012 N   0  0  0  0  0  0  0  0  0  0  0  0
    8.0018  -15.5648   23.1157 C   0  0  0  0  0  0  0  0  0  0  0  0
    9.2345  -15.4318   23.0085 O   0  0  0  0  0  0  0  0  0  0  0  0
    7.2381  -11.4215   27.4436 C   0  0  0  0  0  0  0  0  0  0  0  0
    7.9578  -12.6955   27.0325 C   0  0  0  0  0  0  0  0  0  0  0  0
    7.2029  -13.4567   25.9891 C   0  0  2  0  0  0  0  0  0  0  0  0
    5.8073  -13.8149   26.4115 C   0  0  0  0  0  0  0  0  0  0  0  0
    8.0145  -14.5638   25.4313 C   0  0  2  0  0  0  0  0  0  0  0  0
    7.3491  -15.2151   24.3115 N   0  0  0  0  0  0  0  0  0  0  0  0
    8.5807  -15.5201   26.3967 C   0  0  0  0  0  0  0  0  0  0  0  0
    8.2449  -16.8516   26.3721 O   0  0  0  0  0  0  0  0  0  0  0  0
    9.3906  -15.1474   27.2691 O   0  0  0  0  0  0  0  0  0  0  0  0
  2  3  1  0
  2  1  1  1
  4  3  1  0
  5  2  1  0
  5  6  2  0
  8  7  1  0
  9  8  1  1
  9 11  1  0
  9 10  1  0
 10  5  1  0
 11 12  2  0
 13 14  1  0
 14 15  1  0
 15 16  1  1
 17 15  1  0
 17 18  1  6
 18 11  1  0
 19 17  1  0
 20 19  1  0
 21 19  2  0
M  END
$$$$
