CSI.pdb
     RDKit          3D

 21 20  0  0  1  0  0  0  0  0999 V2000
    7.5792  -15.4164   17.6509 N   0  0  0  0  0  0  0  0  0  0  0  0
    8.2679  -14.7240   18.7198 C   0  0  1  0  0  0  0  0  0  0  0  0
    7.8485  -13.2586   18.6227 C   0  0  0  0  0  0  0  0  0  0  0  0
    8.5430  -12.3241   20.0134 S   0  0  0  0  0  0  0  0  0  0  0  0
    7.7990  -15.2298   20.0127 C   0  0  0  0  0  0  0  0  0  0  0  0
    6.5478  -15.3424   20.2106 O   0  0  0  0  0  0  0  0  0  0  0  0
    9.7650  -17.6683   22.6188 O   0  0  0  0  0  0  0  0  0  0  0  0
    8.3867  -17.5291   22.5706 C   0  0  0  0  0  0  0  0  0  0  0  0
    8.1004  -16.0483   22.3154 C   0  0  2  0  0  0  0  0  0  0  0  0
    8.6506  -15.6115   21.0833 N   0  0  0  0  0  0  0  0  0  0  0  0
    8.6112  -15.3228   23.5053 C   0  0  0  0  0  0  0  0  0  0  0  0
    9.7780  -14.8986   23.4201 O   0  0  0  0  0  0  0  0  0  0  0  0
    5.4641  -11.9073   25.9529 C   0  0  0  0  0  0  0  0  0  0  0  0
    6.6560  -12.6654   25.3920 C   0  0  0  0  0  0  0  0  0  0  0  0
    7.3271  -13.5072   26.4307 C   0  0  2  0  0  0  0  0  0  0  0  0
    7.7482  -12.7277   27.6429 C   0  0  0  0  0  0  0  0  0  0  0  0
    8.3616  -14.3840   25.8335 C   0  0  2  0  0  0  0  0  0  0  0  0
    7.8583  -15.1066   24.6736 N   0  0  0  0  0  0  0  0  0  0  0  0
    9.1162  -15.2428   26.7609 C   0  0  0  0  0  0  0  0  0  0  0  0
    8.8336  -16.5802   26.8947 O   0  0  0  0  0  0  0  0  0  0  0  0
   10.0433  -14.7788   27.4545 O   0  0  0  0  0  0  0  0  0  0  0  0
  2  3  1  0
  2  1  1  6
  4  3  1  0
  5  2  1  0
  5  6  2  0
  8  7  1  0
  9  8  1  1
  9 11  1  0
  9 10  1  0
 10  5  1  0
 11 12  2  0
 13 14  1  0
 14 15  1  0
 15 16  1  1
 17 15  1  0
 17 18  1  6
 18 11  1  0
 19 17  1  0
 20 19  1  0
 21 19  2  0
M  END
$$$$
