CSI.pdb
     RDKit          3D

 21 20  0  0  1  0  0  0  0  0999 V2000
    7.8088  -14.9028   17.7855 N   0  0  0  0  0  0  0  0  0  0  0  0
    8.4107  -14.3186   18.9656 C   0  0  1  0  0  0  0  0  0  0  0  0
    7.8437  -12.9052   19.0823 C   0  0  0  0  0  0  0  0  0  0  0  0
    9.1236  -11.6900   18.6646 S   0  0  0  0  0  0  0  0  0  0  0  0
    7.9820  -15.0626   20.1531 C   0  0  0  0  0  0  0  0  0  0  0  0
    6.7425  -15.2946   20.3178 O   0  0  0  0  0  0  0  0  0  0  0  0
   10.0855  -17.6780   22.4057 O   0  0  0  0  0  0  0  0  0  0  0  0
    8.7043  -17.5931   22.4877 C   0  0  0  0  0  0  0  0  0  0  0  0
    8.3433  -16.1130   22.3507 C   0  0  2  0  0  0  0  0  0  0  0  0
    8.8612  -15.5544   21.1543 N   0  0  0  0  0  0  0  0  0  0  0  0
    8.8275  -15.4581   23.5916 C   0  0  0  0  0  0  0  0  0  0  0  0
   10.0265  -15.1247   23.5944 O   0  0  0  0  0  0  0  0  0  0  0  0
    5.7859  -11.9089   25.9613 C   0  0  0  0  0  0  0  0  0  0  0  0
    6.9023  -12.7896   25.4247 C   0  0  0  0  0  0  0  0  0  0  0  0
    7.5221  -13.6286   26.4970 C   0  0  2  0  0  0  0  0  0  0  0  0
    7.9878  -12.8289   27.6793 C   0  0  0  0  0  0  0  0  0  0  0  0
    8.5034  -14.5872   25.9370 C   0  0  2  0  0  0  0  0  0  0  0  0
    8.0171  -15.2114   24.7144 N   0  0  0  0  0  0  0  0  0  0  0  0
    9.0953  -15.5528   26.8774 C   0  0  0  0  0  0  0  0  0  0  0  0
   10.2202  -15.2514   27.6055 O   0  0  0  0  0  0  0  0  0  0  0  0
    8.5869  -16.6794   27.0448 O   0  0  0  0  0  0  0  0  0  0  0  0
  2  3  1  0
  2  1  1  6
  4  3  1  0
  5  2  1  0
  5  6  2  0
  8  7  1  0
  9  8  1  1
  9 11  1  0
  9 10  1  0
 10  5  1  0
 11 12  2  0
 13 14  1  0
 14 15  1  0
 15 16  1  1
 17 15  1  0
 17 18  1  6
 18 11  1  0
 19 17  1  0
 20 19  1  0
 21 19  2  0
M  END
$$$$
