CSI.pdb
     RDKit          3D

 21 20  0  0  1  0  0  0  0  0999 V2000
    7.6945  -15.4634   17.5420 N   0  0  0  0  0  0  0  0  0  0  0  0
    8.4133  -14.7611   18.5844 C   0  0  1  0  0  0  0  0  0  0  0  0
    8.0589  -13.2835   18.4301 C   0  0  0  0  0  0  0  0  0  0  0  0
    8.8866  -12.3122   19.7189 S   0  0  0  0  0  0  0  0  0  0  0  0
    7.9227  -15.1954   19.8952 C   0  0  0  0  0  0  0  0  0  0  0  0
    6.6701  -15.1885   20.1149 O   0  0  0  0  0  0  0  0  0  0  0  0
    9.7760  -17.7484   22.5512 O   0  0  0  0  0  0  0  0  0  0  0  0
    8.4092  -17.5673   22.4075 C   0  0  0  0  0  0  0  0  0  0  0  0
    8.1825  -16.0716   22.1817 C   0  0  2  0  0  0  0  0  0  0  0  0
    8.7544  -15.6320   20.9604 N   0  0  0  0  0  0  0  0  0  0  0  0
    8.7168  -15.3910   23.3877 C   0  0  0  0  0  0  0  0  0  0  0  0
    9.9172  -15.0662   23.3380 O   0  0  0  0  0  0  0  0  0  0  0  0
    5.5518  -12.4722   27.1235 C   0  0  0  0  0  0  0  0  0  0  0  0
    6.2996  -13.6395   26.5005 C   0  0  0  0  0  0  0  0  0  0  0  0
    7.6922  -13.2669   26.1010 C   0  0  2  0  0  0  0  0  0  0  0  0
    7.7442  -12.1120   25.1430 C   0  0  0  0  0  0  0  0  0  0  0  0
    8.4852  -14.4594   25.7207 C   0  0  2  0  0  0  0  0  0  0  0  0
    7.9505  -15.1121   24.5337 N   0  0  0  0  0  0  0  0  0  0  0  0
    8.8117  -15.4076   26.7983 C   0  0  0  0  0  0  0  0  0  0  0  0
    8.4696  -16.7353   26.7169 O   0  0  0  0  0  0  0  0  0  0  0  0
    9.4161  -15.0315   27.8226 O   0  0  0  0  0  0  0  0  0  0  0  0
  2  3  1  0
  2  1  1  6
  4  3  1  0
  5  2  1  0
  5  6  2  0
  8  7  1  0
  9  8  1  1
  9 11  1  0
  9 10  1  0
 10  5  1  0
 11 12  2  0
 13 14  1  0
 14 15  1  0
 15 16  1  6
 17 15  1  0
 17 18  1  6
 18 11  1  0
 19 17  1  0
 20 19  1  0
 21 19  2  0
M  END
$$$$
