CSI.pdb
     RDKit          3D

 21 20  0  0  1  0  0  0  0  0999 V2000
    7.4902  -15.2824   17.7871 N   0  0  0  0  0  0  0  0  0  0  0  0
    8.3032  -14.6235   18.7877 C   0  0  1  0  0  0  0  0  0  0  0  0
    7.9740  -13.1348   18.6967 C   0  0  0  0  0  0  0  0  0  0  0  0
    8.8534  -12.2273   19.9976 S   0  0  0  0  0  0  0  0  0  0  0  0
    7.9037  -15.0804   20.1215 C   0  0  0  0  0  0  0  0  0  0  0  0
    6.6739  -15.0368   20.4425 O   0  0  0  0  0  0  0  0  0  0  0  0
   10.0997  -17.5294   22.7334 O   0  0  0  0  0  0  0  0  0  0  0  0
    8.7227  -17.5241   22.5746 C   0  0  0  0  0  0  0  0  0  0  0  0
    8.3102  -16.0700   22.3393 C   0  0  2  0  0  0  0  0  0  0  0  0
    8.8015  -15.5780   21.1031 N   0  0  0  0  0  0  0  0  0  0  0  0
    8.7790  -15.3152   23.5282 C   0  0  0  0  0  0  0  0  0  0  0  0
    9.9246  -14.8359   23.4472 O   0  0  0  0  0  0  0  0  0  0  0  0
    5.6594  -11.9263   26.0113 C   0  0  0  0  0  0  0  0  0  0  0  0
    6.8397  -12.7029   25.4510 C   0  0  0  0  0  0  0  0  0  0  0  0
    7.4852  -13.5697   26.4853 C   0  0  2  0  0  0  0  0  0  0  0  0
    7.9128  -12.8123   27.7092 C   0  0  0  0  0  0  0  0  0  0  0  0
    8.5060  -14.4610   25.8863 C   0  0  2  0  0  0  0  0  0  0  0  0
    8.0102  -15.1299   24.6914 N   0  0  0  0  0  0  0  0  0  0  0  0
    9.2081  -15.3730   26.8042 C   0  0  0  0  0  0  0  0  0  0  0  0
    9.0740  -16.7364   26.7063 O   0  0  0  0  0  0  0  0  0  0  0  0
    9.9535  -14.9315   27.7016 O   0  0  0  0  0  0  0  0  0  0  0  0
  2  3  1  0
  2  1  1  6
  4  3  1  0
  5  2  1  0
  5  6  2  0
  8  7  1  0
  9  8  1  1
  9 11  1  0
  9 10  1  0
 10  5  1  0
 11 12  2  0
 13 14  1  0
 14 15  1  0
 15 16  1  1
 17 15  1  0
 17 18  1  6
 18 11  1  0
 19 17  1  0
 20 19  1  0
 21 19  2  0
M  END
$$$$
