CSI.pdb
     RDKit          3D

 21 20  0  0  1  0  0  0  0  0999 V2000
    7.7064  -15.9468   17.7227 N   0  0  0  0  0  0  0  0  0  0  0  0
    8.5180  -15.7005   18.8962 C   0  0  1  0  0  0  0  0  0  0  0  0
    9.1017  -14.2991   18.7285 C   0  0  0  0  0  0  0  0  0  0  0  0
    7.7865  -13.0599   18.8829 S   0  0  0  0  0  0  0  0  0  0  0  0
    7.6639  -15.6804   20.0867 C   0  0  0  0  0  0  0  0  0  0  0  0
    6.4278  -15.9514   19.9601 O   0  0  0  0  0  0  0  0  0  0  0  0
    6.6127  -17.8069   23.5983 O   0  0  0  0  0  0  0  0  0  0  0  0
    7.2961  -17.4145   22.4579 C   0  0  0  0  0  0  0  0  0  0  0  0
    7.4394  -15.8932   22.5296 C   0  0  2  0  0  0  0  0  0  0  0  0
    8.1186  -15.3755   21.3972 N   0  0  0  0  0  0  0  0  0  0  0  0
    8.1034  -15.6064   23.8257 C   0  0  0  0  0  0  0  0  0  0  0  0
    9.3071  -15.9146   23.8963 O   0  0  0  0  0  0  0  0  0  0  0  0
    5.7684  -11.6064   26.5931 C   0  0  0  0  0  0  0  0  0  0  0  0
    6.6557  -12.6106   25.8760 C   0  0  0  0  0  0  0  0  0  0  0  0
    7.3756  -13.5087   26.8315 C   0  0  2  0  0  0  0  0  0  0  0  0
    8.1186  -12.7613   27.9009 C   0  0  0  0  0  0  0  0  0  0  0  0
    8.1461  -14.5541   26.1181 C   0  0  2  0  0  0  0  0  0  0  0  0
    7.4513  -15.0248   24.9279 N   0  0  0  0  0  0  0  0  0  0  0  0
    8.6878  -15.6509   26.9371 C   0  0  0  0  0  0  0  0  0  0  0  0
    8.1463  -16.9125   26.8994 O   0  0  0  0  0  0  0  0  0  0  0  0
    9.6638  -15.4665   27.6917 O   0  0  0  0  0  0  0  0  0  0  0  0
  2  3  1  0
  2  1  1  6
  4  3  1  0
  5  2  1  0
  5  6  2  0
  8  7  1  0
  9  8  1  6
  9 11  1  0
  9 10  1  0
 10  5  1  0
 11 12  2  0
 13 14  1  0
 14 15  1  0
 15 16  1  6
 17 15  1  0
 17 18  1  6
 18 11  1  0
 19 17  1  0
 20 19  1  0
 21 19  2  0
M  END
$$$$
