RDL.pdb
     RDKit          3D

 28 27  0  0  1  0  0  0  0  0999 V2000
   22.8708  -21.0295   -8.0206 N   0  0  0  0  0  0  0  0  0  0  0  0
   22.5186  -20.7029   -9.3653 C   0  0  0  0  0  0  0  0  0  0  0  0
   21.2832  -20.5640   -9.6692 N   0  0  0  0  0  0  0  0  0  0  0  0
   23.5630  -20.5466  -10.3120 N   0  0  0  0  0  0  0  0  0  0  0  0
   24.8050  -21.3181  -10.1189 C   0  0  0  0  0  0  0  0  0  0  0  0
   25.9288  -20.4627  -10.5778 C   0  0  0  0  0  0  0  0  0  0  0  0
   26.2485  -20.4702  -12.0222 C   0  0  0  0  0  0  0  0  0  0  0  0
   25.8189  -21.6748  -12.8061 C   0  0  2  0  0  0  0  0  0  0  0  0
   26.9814  -22.4511  -13.1546 N   0  0  0  0  0  0  0  0  0  0  0  0
   25.2225  -21.1446  -14.0755 C   0  0  0  0  0  0  0  0  0  0  0  0
   25.9755  -21.1345  -15.0925 O   0  0  0  0  0  0  0  0  0  0  0  0
   20.9197  -20.4370  -10.6158 N   0  0  0  0  0  0  0  0  0  0  0  0
   23.8960  -20.6805  -14.1430 C   0  0  2  0  0  0  0  0  0  0  0  0
   23.3397  -20.4358  -15.5128 C   0  0  0  0  0  0  0  0  0  0  0  0
   21.8591  -20.5100  -15.3280 C   0  0  0  0  0  0  0  0  0  0  0  0
   21.2974  -21.7531  -14.8436 O   0  0  0  0  0  0  0  0  0  0  0  0
   20.4305  -21.8482  -13.9503 C   0  0  0  0  0  0  0  0  0  0  0  0
   23.8697  -19.1454  -15.9719 O   0  0  0  0  0  0  0  0  0  0  0  0
   23.6734  -18.1466  -15.1887 O   0  0  0  0  0  0  0  0  0  0  0  0
   21.7084  -23.0012  -15.3700 C   0  0  0  0  0  0  0  0  0  0  0  0
   28.7854  -18.0231  -16.8714 C   0  0  1  0  0  0  0  0  0  0  0  0
   27.3234  -17.9070  -16.5254 C   0  0  0  0  0  0  0  0  0  0  0  0
   27.2415  -16.7954  -15.4608 C   0  0  0  0  0  0  0  0  0  0  0  0
   26.4903  -17.4353  -17.6793 C   0  0  2  0  0  0  0  0  0  0  0  0
   25.0170  -17.4813  -17.4591 N   0  0  0  0  0  0  0  0  0  0  0  0
   24.5709  -18.8521  -17.1532 C   0  0  0  0  0  0  0  0  0  0  0  0
   24.2130  -16.9185  -18.5711 O   0  0  0  0  0  0  0  0  0  0  0  0
   23.3955  -17.6491  -19.1859 O   0  0  0  0  0  0  0  0  0  0  0  0
  2  4  1  0
  2  1  1  0
  3  2  2  0
  5  4  1  0
  6  5  1  0
  7  6  1  0
  8  9  1  6
  8  7  1  0
 10  8  1  0
 11 10  2  0
 12 10  1  0
 13 14  1  1
 13 12  1  0
 15 19  1  0
 15 14  1  0
 16 15  2  0
 17 13  1  0
 18 17  2  0
 21 20  1  1
 22 21  1  0
 23 21  1  0
 24 23  1  1
 24 25  1  0
 25 17  1  0
 26 28  1  0
 26 24  1  0
 27 26  2  0
M  END
$$$$
