RDL.pdb
     RDKit          3D

 28 27  0  0  1  0  0  0  0  0999 V2000
   26.4163  -24.2751  -15.6917 N   0  0  0  0  0  0  0  0  0  0  0  0
   26.8106  -23.6993  -16.9375 C   0  0  0  0  0  0  0  0  0  0  0  0
   27.7827  -24.2224  -17.5852 N   0  0  0  0  0  0  0  0  0  0  0  0
   26.1015  -22.5634  -17.4046 N   0  0  0  0  0  0  0  0  0  0  0  0
   24.8927  -22.1422  -16.6722 C   0  0  0  0  0  0  0  0  0  0  0  0
   25.2290  -20.8850  -15.9567 C   0  0  0  0  0  0  0  0  0  0  0  0
   24.4908  -20.5896  -14.7092 C   0  0  0  0  0  0  0  0  0  0  0  0
   23.2939  -21.4430  -14.4106 C   0  0  2  0  0  0  0  0  0  0  0  0
   22.9042  -22.1456  -15.6064 N   0  0  0  0  0  0  0  0  0  0  0  0
   22.1911  -20.4906  -14.0568 C   0  0  0  0  0  0  0  0  0  0  0  0
   22.3934  -19.7368  -13.0607 O   0  0  0  0  0  0  0  0  0  0  0  0
   28.1112  -23.9171  -18.5035 N   0  0  0  0  0  0  0  0  0  0  0  0
   20.9905  -20.4301  -14.7878 C   0  0  2  0  0  0  0  0  0  0  0  0
   19.9636  -19.4483  -14.3111 C   0  0  0  0  0  0  0  0  0  0  0  0
   20.2090  -18.2281  -15.1373 C   0  0  0  0  0  0  0  0  0  0  0  0
   20.5857  -17.0096  -14.4525 O   0  0  0  0  0  0  0  0  0  0  0  0
   20.6335  -16.8694  -13.2129 C   0  0  0  0  0  0  0  0  0  0  0  0
   18.6492  -20.0835  -14.4713 O   0  0  0  0  0  0  0  0  0  0  0  0
   18.6519  -21.3642  -14.5672 O   0  0  0  0  0  0  0  0  0  0  0  0
   20.9411  -15.8420  -15.1694 C   0  0  0  0  0  0  0  0  0  0  0  0
   15.0769  -23.3063  -15.2311 C   0  0  2  0  0  0  0  0  0  0  0  0
   14.8416  -22.2954  -14.1387 C   0  0  0  0  0  0  0  0  0  0  0  0
   14.6544  -23.1208  -12.8504 C   0  0  0  0  0  0  0  0  0  0  0  0
   16.0318  -21.4164  -13.8961 C   0  0  1  0  0  0  0  0  0  0  0  0
   16.1728  -20.2662  -14.8334 N   0  0  0  0  0  0  0  0  0  0  0  0
   17.3817  -19.4807  -14.5282 C   0  0  0  0  0  0  0  0  0  0  0  0
   14.9875  -19.3768  -14.8951 O   0  0  0  0  0  0  0  0  0  0  0  0
   13.8617  -19.8521  -15.1895 O   0  0  0  0  0  0  0  0  0  0  0  0
  2  4  1  0
  2  1  1  0
  3  2  2  0
  5  4  1  0
  6  5  1  0
  7  6  1  0
  8  9  1  6
  8  7  1  0
 10  8  1  0
 11 10  2  0
 12 10  1  0
 13 14  1  1
 13 12  1  0
 15 19  1  0
 15 14  1  0
 16 15  2  0
 17 13  1  0
 18 17  2  0
 21 20  1  6
 22 21  1  0
 23 21  1  0
 24 23  1  6
 24 25  1  0
 25 17  1  0
 26 28  1  0
 26 24  1  0
 27 26  2  0
M  END
$$$$
