RDL.pdb
     RDKit          3D

 28 27  0  0  1  0  0  0  0  0999 V2000
   28.2422  -25.4877  -17.4038 N   0  0  0  0  0  0  0  0  0  0  0  0
   27.7064  -26.6913  -16.8532 C   0  0  0  0  0  0  0  0  0  0  0  0
   28.4444  -27.7358  -16.8033 N   0  0  0  0  0  0  0  0  0  0  0  0
   26.3684  -26.6751  -16.3829 N   0  0  0  0  0  0  0  0  0  0  0  0
   25.5692  -25.4524  -16.5862 C   0  0  0  0  0  0  0  0  0  0  0  0
   25.9219  -24.5110  -15.4931 C   0  0  0  0  0  0  0  0  0  0  0  0
   25.2362  -23.2004  -15.4713 C   0  0  0  0  0  0  0  0  0  0  0  0
   25.2503  -22.4058  -16.7436 C   0  0  2  0  0  0  0  0  0  0  0  0
   26.3856  -21.5190  -16.7343 N   0  0  0  0  0  0  0  0  0  0  0  0
   24.0094  -21.5646  -16.7135 C   0  0  0  0  0  0  0  0  0  0  0  0
   24.1289  -20.3980  -16.2379 O   0  0  0  0  0  0  0  0  0  0  0  0
   28.1272  -28.6694  -16.5347 N   0  0  0  0  0  0  0  0  0  0  0  0
   22.7720  -22.0382  -17.1870 C   0  0  2  0  0  0  0  0  0  0  0  0
   21.6176  -21.0852  -17.1166 C   0  0  0  0  0  0  0  0  0  0  0  0
   20.8337  -21.3636  -18.3575 C   0  0  0  0  0  0  0  0  0  0  0  0
   20.8602  -20.3734  -19.4131 O   0  0  0  0  0  0  0  0  0  0  0  0
   20.4814  -20.5666  -20.5869 C   0  0  0  0  0  0  0  0  0  0  0  0
   20.9257  -21.3354  -15.8456 O   0  0  0  0  0  0  0  0  0  0  0  0
   20.5452  -22.5450  -15.6415 O   0  0  0  0  0  0  0  0  0  0  0  0
   21.3375  -19.0614  -19.1799 C   0  0  0  0  0  0  0  0  0  0  0  0
   21.0444  -18.3262  -11.0005 C   0  0  1  0  0  0  0  0  0  0  0  0
   21.1290  -19.3884  -12.0661 C   0  0  0  0  0  0  0  0  0  0  0  0
   21.6587  -20.6460  -11.3494 C   0  0  0  0  0  0  0  0  0  0  0  0
   19.7865  -19.7632  -12.6187 C   0  0  2  0  0  0  0  0  0  0  0  0
   19.8038  -20.8309  -13.6583 N   0  0  0  0  0  0  0  0  0  0  0  0
   20.6264  -20.4306  -14.8136 C   0  0  0  0  0  0  0  0  0  0  0  0
   18.4607  -21.2654  -14.1134 O   0  0  0  0  0  0  0  0  0  0  0  0
   17.9005  -20.6721  -15.0696 O   0  0  0  0  0  0  0  0  0  0  0  0
  2  4  1  0
  2  1  1  0
  3  2  2  0
  5  4  1  0
  6  5  1  0
  7  6  1  0
  8  9  1  1
  8  7  1  0
 10  8  1  0
 11 10  2  0
 12 10  1  0
 13 14  1  6
 13 12  1  0
 15 19  1  0
 15 14  1  0
 16 15  2  0
 17 13  1  0
 18 17  2  0
 21 20  1  6
 22 21  1  0
 23 21  1  0
 24 23  1  1
 24 25  1  0
 25 17  1  0
 26 28  1  0
 26 24  1  0
 27 26  2  0
M  END
$$$$
