RDL.pdb
     RDKit          3D

 28 27  0  0  1  0  0  0  0  0999 V2000
   27.1613  -31.3736  -16.5428 N   0  0  0  0  0  0  0  0  0  0  0  0
   25.9789  -30.8006  -15.9838 C   0  0  0  0  0  0  0  0  0  0  0  0
   25.2069  -31.5344  -15.2742 N   0  0  0  0  0  0  0  0  0  0  0  0
   25.7107  -29.4323  -16.2429 N   0  0  0  0  0  0  0  0  0  0  0  0
   26.6654  -28.6766  -17.0750 C   0  0  0  0  0  0  0  0  0  0  0  0
   26.2046  -27.2651  -17.0995 C   0  0  0  0  0  0  0  0  0  0  0  0
   26.8468  -26.3526  -18.0707 C   0  0  0  0  0  0  0  0  0  0  0  0
   27.4214  -25.0781  -17.5271 C   0  0  2  0  0  0  0  0  0  0  0  0
   28.2135  -25.3763  -16.3613 N   0  0  0  0  0  0  0  0  0  0  0  0
   26.2472  -24.2556  -17.0872 C   0  0  0  0  0  0  0  0  0  0  0  0
   25.9848  -24.2621  -15.8493 O   0  0  0  0  0  0  0  0  0  0  0  0
   24.3227  -31.2322  -14.8605 N   0  0  0  0  0  0  0  0  0  0  0  0
   25.4716  -23.5119  -17.9954 C   0  0  2  0  0  0  0  0  0  0  0  0
   24.4166  -22.6249  -17.4072 C   0  0  0  0  0  0  0  0  0  0  0  0
   24.1648  -21.6004  -18.4650 C   0  0  0  0  0  0  0  0  0  0  0  0
   25.0470  -20.4542  -18.5231 O   0  0  0  0  0  0  0  0  0  0  0  0
   25.1118  -19.6469  -19.4731 C   0  0  0  0  0  0  0  0  0  0  0  0
   23.2775  -23.4817  -17.0533 O   0  0  0  0  0  0  0  0  0  0  0  0
   23.4568  -24.7447  -17.2022 O   0  0  0  0  0  0  0  0  0  0  0  0
   25.9360  -20.1551  -17.4630 C   0  0  0  0  0  0  0  0  0  0  0  0
   21.1291  -27.4155  -14.9009 C   0  0  2  0  0  0  0  0  0  0  0  0
   20.8089  -26.0222  -14.4245 C   0  0  0  0  0  0  0  0  0  0  0  0
   21.1205  -26.0240  -12.9149 C   0  0  0  0  0  0  0  0  0  0  0  0
   21.7042  -24.9827  -15.0293 C   0  0  1  0  0  0  0  0  0  0  0  0
   21.0632  -24.1122  -16.0553 N   0  0  0  0  0  0  0  0  0  0  0  0
   22.0140  -23.1088  -16.5659 C   0  0  0  0  0  0  0  0  0  0  0  0
   19.8149  -23.4503  -15.6043 O   0  0  0  0  0  0  0  0  0  0  0  0
   19.8315  -22.2363  -15.2786 O   0  0  0  0  0  0  0  0  0  0  0  0
  2  4  1  0
  2  1  1  0
  3  2  2  0
  5  4  1  0
  6  5  1  0
  7  6  1  0
  8  9  1  1
  8  7  1  0
 10  8  1  0
 11 10  2  0
 12 10  1  0
 13 14  1  6
 13 12  1  0
 15 19  1  0
 15 14  1  0
 16 15  2  0
 17 13  1  0
 18 17  2  0
 21 20  1  1
 22 21  1  0
 23 21  1  0
 24 23  1  6
 24 25  1  0
 25 17  1  0
 26 28  1  0
 26 24  1  0
 27 26  2  0
M  END
$$$$
