RDL.pdb
     RDKit          3D

 28 27  0  0  1  0  0  0  0  0999 V2000
   12.9552  -28.9204   -0.5368 N   0  0  0  0  0  0  0  0  0  0  0  0
   12.1318  -28.0981   -1.3642 C   0  0  0  0  0  0  0  0  0  0  0  0
   11.2699  -28.6518   -2.1313 N   0  0  0  0  0  0  0  0  0  0  0  0
   12.3084  -26.6924   -1.2986 N   0  0  0  0  0  0  0  0  0  0  0  0
   13.2611  -26.1513   -0.3115 C   0  0  0  0  0  0  0  0  0  0  0  0
   13.3178  -24.6815   -0.5164 C   0  0  0  0  0  0  0  0  0  0  0  0
   14.2177  -23.9026    0.3622 C   0  0  0  0  0  0  0  0  0  0  0  0
   14.2981  -22.4256    0.1131 C   0  0  2  0  0  0  0  0  0  0  0  0
   14.7273  -22.1977   -1.2431 N   0  0  0  0  0  0  0  0  0  0  0  0
   15.3715  -21.9151    1.0272 C   0  0  0  0  0  0  0  0  0  0  0  0
   16.5449  -21.8767    0.5547 O   0  0  0  0  0  0  0  0  0  0  0  0
   10.6200  -28.1545   -2.7435 N   0  0  0  0  0  0  0  0  0  0  0  0
   15.0989  -21.4980    2.3429 C   0  0  2  0  0  0  0  0  0  0  0  0
   16.2569  -20.9666    3.1318 C   0  0  0  0  0  0  0  0  0  0  0  0
   15.6484  -19.9468    4.0381 C   0  0  0  0  0  0  0  0  0  0  0  0
   16.5119  -19.2886    4.9955 O   0  0  0  0  0  0  0  0  0  0  0  0
   17.7381  -19.4913    5.1128 C   0  0  0  0  0  0  0  0  0  0  0  0
   16.8976  -22.1138    3.7878 O   0  0  0  0  0  0  0  0  0  0  0  0
   16.1043  -23.0104    4.2526 O   0  0  0  0  0  0  0  0  0  0  0  0
   16.0063  -18.3287    5.9046 C   0  0  0  0  0  0  0  0  0  0  0  0
   20.5485  -25.3396    1.8276 C   0  0  2  0  0  0  0  0  0  0  0  0
   19.3821  -24.8584    2.6514 C   0  0  0  0  0  0  0  0  0  0  0  0
   18.5736  -26.1249    2.9953 C   0  0  0  0  0  0  0  0  0  0  0  0
   19.8035  -24.2690    3.9640 C   0  0  2  0  0  0  0  0  0  0  0  0
   18.7302  -23.5565    4.7136 N   0  0  0  0  0  0  0  0  0  0  0  0
   18.2663  -22.3702    3.9726 C   0  0  0  0  0  0  0  0  0  0  0  0
   19.0967  -23.1814    6.1009 O   0  0  0  0  0  0  0  0  0  0  0  0
   19.4157  -24.0728    6.9279 O   0  0  0  0  0  0  0  0  0  0  0  0
  2  4  1  0
  2  1  1  0
  3  2  2  0
  5  4  1  0
  6  5  1  0
  7  6  1  0
  8  9  1  6
  8  7  1  0
 10  8  1  0
 11 10  2  0
 12 10  1  0
 13 14  1  1
 13 12  1  0
 15 19  1  0
 15 14  1  0
 16 15  2  0
 17 13  1  0
 18 17  2  0
 21 20  1  6
 22 21  1  0
 23 21  1  0
 24 23  1  6
 24 25  1  0
 25 17  1  0
 26 28  1  0
 26 24  1  0
 27 26  2  0
M  END
$$$$
