RDL.pdb
     RDKit          3D

 28 27  0  0  1  0  0  0  0  0999 V2000
   22.6606  -20.7174   -9.0313 N   0  0  0  0  0  0  0  0  0  0  0  0
   23.9148  -20.8768   -8.3675 C   0  0  0  0  0  0  0  0  0  0  0  0
   23.9968  -20.6090   -7.1187 N   0  0  0  0  0  0  0  0  0  0  0  0
   25.0230  -21.3279   -9.1290 N   0  0  0  0  0  0  0  0  0  0  0  0
   24.8400  -21.5345  -10.5777 C   0  0  0  0  0  0  0  0  0  0  0  0
   25.7656  -20.6049  -11.2738 C   0  0  0  0  0  0  0  0  0  0  0  0
   25.6258  -20.4712  -12.7404 C   0  0  0  0  0  0  0  0  0  0  0  0
   24.6779  -21.4141  -13.4206 C   0  0  2  0  0  0  0  0  0  0  0  0
   25.4116  -22.5567  -13.9016 N   0  0  0  0  0  0  0  0  0  0  0  0
   24.1486  -20.6726  -14.6116 C   0  0  0  0  0  0  0  0  0  0  0  0
   24.6638  -20.9604  -15.7311 O   0  0  0  0  0  0  0  0  0  0  0  0
   24.8477  -20.6744   -6.5564 N   0  0  0  0  0  0  0  0  0  0  0  0
   23.1326  -19.7057  -14.5011 C   0  0  2  0  0  0  0  0  0  0  0  0
   22.7020  -19.0368  -15.7711 C   0  0  0  0  0  0  0  0  0  0  0  0
   21.3362  -18.5134  -15.4671 C   0  0  0  0  0  0  0  0  0  0  0  0
   20.2800  -19.4734  -15.2257 O   0  0  0  0  0  0  0  0  0  0  0  0
   20.0490  -20.4775  -15.9306 C   0  0  0  0  0  0  0  0  0  0  0  0
   23.7211  -18.0314  -16.0987 O   0  0  0  0  0  0  0  0  0  0  0  0
   24.1920  -17.3647  -15.1071 O   0  0  0  0  0  0  0  0  0  0  0  0
   19.3971  -19.3360  -14.1278 C   0  0  0  0  0  0  0  0  0  0  0  0
   28.0215  -18.7960  -14.9167 C   0  0  1  0  0  0  0  0  0  0  0  0
   26.8664  -17.9686  -15.4187 C   0  0  0  0  0  0  0  0  0  0  0  0
   27.3084  -16.5019  -15.2476 C   0  0  0  0  0  0  0  0  0  0  0  0
   26.6138  -18.1550  -16.8848 C   0  0  2  0  0  0  0  0  0  0  0  0
   25.6396  -17.2015  -17.4872 N   0  0  0  0  0  0  0  0  0  0  0  0
   24.2595  -17.7006  -17.3532 C   0  0  0  0  0  0  0  0  0  0  0  0
   25.9205  -16.8489  -18.9002 O   0  0  0  0  0  0  0  0  0  0  0  0
   25.3915  -17.5110  -19.8286 O   0  0  0  0  0  0  0  0  0  0  0  0
  2  4  1  0
  2  1  1  0
  3  2  2  0
  5  4  1  0
  6  5  1  0
  7  6  1  0
  8  9  1  6
  8  7  1  0
 10  8  1  0
 11 10  2  0
 12 10  1  0
 13 14  1  6
 13 12  1  0
 15 19  1  0
 15 14  1  0
 16 15  2  0
 17 13  1  0
 18 17  2  0
 21 20  1  1
 22 21  1  0
 23 21  1  0
 24 23  1  1
 24 25  1  0
 25 17  1  0
 26 28  1  0
 26 24  1  0
 27 26  2  0
M  END
$$$$
