RDL.pdb
     RDKit          3D

 28 27  0  0  1  0  0  0  0  0999 V2000
   30.7820  -29.8853  -16.9608 N   0  0  0  0  0  0  0  0  0  0  0  0
   30.9255  -30.1389  -18.3587 C   0  0  0  0  0  0  0  0  0  0  0  0
   31.9026  -29.6067  -18.9910 N   0  0  0  0  0  0  0  0  0  0  0  0
   29.9697  -30.9760  -18.9890 N   0  0  0  0  0  0  0  0  0  0  0  0
   28.7063  -31.2537  -18.2807 C   0  0  0  0  0  0  0  0  0  0  0  0
   28.8737  -32.5508  -17.5771 C   0  0  0  0  0  0  0  0  0  0  0  0
   27.6799  -33.1360  -16.9284 C   0  0  0  0  0  0  0  0  0  0  0  0
   27.2691  -32.5515  -15.6094 C   0  0  2  0  0  0  0  0  0  0  0  0
   28.3698  -32.6502  -14.6853 N   0  0  0  0  0  0  0  0  0  0  0  0
   26.1624  -33.4267  -15.1018 C   0  0  0  0  0  0  0  0  0  0  0  0
   25.1365  -33.5237  -15.8364 O   0  0  0  0  0  0  0  0  0  0  0  0
   32.0989  -29.7319  -19.9861 N   0  0  0  0  0  0  0  0  0  0  0  0
   26.2502  -34.1087  -13.8743 C   0  0  1  0  0  0  0  0  0  0  0  0
   25.0363  -34.8752  -13.4445 C   0  0  0  0  0  0  0  0  0  0  0  0
   25.5615  -36.2276  -13.0881 C   0  0  0  0  0  0  0  0  0  0  0  0
   25.7524  -37.1847  -14.1572 O   0  0  0  0  0  0  0  0  0  0  0  0
   25.3393  -37.0447  -15.3270 C   0  0  0  0  0  0  0  0  0  0  0  0
   24.4088  -34.1178  -12.3540 O   0  0  0  0  0  0  0  0  0  0  0  0
   25.0365  -33.0664  -11.9663 O   0  0  0  0  0  0  0  0  0  0  0  0
   26.4498  -38.3978  -13.9435 C   0  0  0  0  0  0  0  0  0  0  0  0
   23.8700  -33.1460   -7.1000 C   0  0  2  0  0  0  0  0  0  0  0  0
   23.5609  -32.4592   -8.4052 C   0  0  0  0  0  0  0  0  0  0  0  0
   24.5066  -31.2433   -8.4620 C   0  0  0  0  0  0  0  0  0  0  0  0
   23.9000  -33.3017   -9.5981 C   0  0  1  0  0  0  0  0  0  0  0  0
   22.7712  -33.5550  -10.5377 N   0  0  0  0  0  0  0  0  0  0  0  0
   23.2070  -34.3824  -11.6766 C   0  0  0  0  0  0  0  0  0  0  0  0
   22.0933  -32.3297  -11.0261 O   0  0  0  0  0  0  0  0  0  0  0  0
   22.4267  -31.8258  -12.1284 O   0  0  0  0  0  0  0  0  0  0  0  0
  2  4  1  0
  2  1  1  0
  3  2  2  0
  5  4  1  0
  6  5  1  0
  7  6  1  0
  8  9  1  1
  8  7  1  0
 10  8  1  0
 11 10  2  0
 12 10  1  0
 13 14  1  6
 13 12  1  0
 15 19  1  0
 15 14  1  0
 16 15  2  0
 17 13  1  0
 18 17  2  0
 21 20  1  1
 22 21  1  0
 23 21  1  0
 24 23  1  1
 24 25  1  0
 25 17  1  0
 26 28  1  0
 26 24  1  0
 27 26  2  0
M  END
$$$$
