RDL.pdb
     RDKit          3D

 28 27  0  0  1  0  0  0  0  0999 V2000
   28.9404  -22.8459  -16.5541 N   0  0  0  0  0  0  0  0  0  0  0  0
   29.0380  -21.4406  -16.7874 C   0  0  0  0  0  0  0  0  0  0  0  0
   29.2546  -21.0204  -17.9768 N   0  0  0  0  0  0  0  0  0  0  0  0
   28.8900  -20.5661  -15.6807 N   0  0  0  0  0  0  0  0  0  0  0  0
   27.6274  -20.6069  -14.9196 C   0  0  0  0  0  0  0  0  0  0  0  0
   26.7901  -19.4775  -15.3979 C   0  0  0  0  0  0  0  0  0  0  0  0
   25.3275  -19.5787  -15.2003 C   0  0  0  0  0  0  0  0  0  0  0  0
   24.8029  -20.8797  -14.6691 C   0  0  2  0  0  0  0  0  0  0  0  0
   25.2418  -21.9515  -15.5259 N   0  0  0  0  0  0  0  0  0  0  0  0
   23.3096  -20.7906  -14.7721 C   0  0  0  0  0  0  0  0  0  0  0  0
   22.8049  -21.0488  -15.9035 O   0  0  0  0  0  0  0  0  0  0  0  0
   29.4710  -20.0544  -18.2303 N   0  0  0  0  0  0  0  0  0  0  0  0
   22.5028  -20.4393  -13.6743 C   0  0  1  0  0  0  0  0  0  0  0  0
   21.0331  -20.3090  -13.9364 C   0  0  0  0  0  0  0  0  0  0  0  0
   20.3936  -20.6643  -12.6338 C   0  0  0  0  0  0  0  0  0  0  0  0
   18.9514  -20.7824  -12.5960 O   0  0  0  0  0  0  0  0  0  0  0  0
   18.2860  -21.1243  -11.5965 C   0  0  0  0  0  0  0  0  0  0  0  0
   20.7983  -18.9423  -14.4199 O   0  0  0  0  0  0  0  0  0  0  0  0
   21.3290  -18.0015  -13.7251 O   0  0  0  0  0  0  0  0  0  0  0  0
   18.1601  -20.5076  -13.7370 C   0  0  0  0  0  0  0  0  0  0  0  0
   21.0758  -14.2879  -16.8812 C   0  0  2  0  0  0  0  0  0  0  0  0
   20.1576  -15.2790  -17.5485 C   0  0  0  0  0  0  0  0  0  0  0  0
   20.4997  -15.2078  -19.0498 C   0  0  0  0  0  0  0  0  0  0  0  0
   20.4285  -16.6930  -17.1302 C   0  0  1  0  0  0  0  0  0  0  0  0
   19.8440  -17.0898  -15.8180 N   0  0  0  0  0  0  0  0  0  0  0  0
   20.0746  -18.5199  -15.5472 C   0  0  0  0  0  0  0  0  0  0  0  0
   18.4046  -16.7664  -15.6651 O   0  0  0  0  0  0  0  0  0  0  0  0
   17.5350  -17.6306  -15.9430 O   0  0  0  0  0  0  0  0  0  0  0  0
  2  4  1  0
  2  1  1  0
  3  2  2  0
  5  4  1  0
  6  5  1  0
  7  6  1  0
  8  9  1  6
  8  7  1  0
 10  8  1  0
 11 10  2  0
 12 10  1  0
 13 14  1  6
 13 12  1  0
 15 19  1  0
 15 14  1  0
 16 15  2  0
 17 13  1  0
 18 17  2  0
 21 20  1  6
 22 21  1  0
 23 21  1  0
 24 23  1  1
 24 25  1  0
 25 17  1  0
 26 28  1  0
 26 24  1  0
 27 26  2  0
M  END
$$$$
