RDL.pdb
     RDKit          3D

 28 27  0  0  1  0  0  0  0  0999 V2000
   25.4701  -21.1631  -10.4463 N   0  0  0  0  0  0  0  0  0  0  0  0
   25.1661  -21.5119  -11.7972 C   0  0  0  0  0  0  0  0  0  0  0  0
   24.1431  -22.2427  -12.0364 N   0  0  0  0  0  0  0  0  0  0  0  0
   26.0197  -21.0290  -12.8217 N   0  0  0  0  0  0  0  0  0  0  0  0
   27.1076  -20.1053  -12.4499 C   0  0  0  0  0  0  0  0  0  0  0  0
   27.8278  -19.7502  -13.6992 C   0  0  0  0  0  0  0  0  0  0  0  0
   27.2188  -18.7220  -14.5711 C   0  0  0  0  0  0  0  0  0  0  0  0
   27.1214  -19.0431  -16.0331 C   0  0  2  0  0  0  0  0  0  0  0  0
   27.9551  -18.1311  -16.7739 N   0  0  0  0  0  0  0  0  0  0  0  0
   25.6961  -18.7774  -16.4156 C   0  0  0  0  0  0  0  0  0  0  0  0
   25.3705  -17.5650  -16.5750 O   0  0  0  0  0  0  0  0  0  0  0  0
   23.8795  -22.6053  -12.9548 N   0  0  0  0  0  0  0  0  0  0  0  0
   24.7619  -19.8148  -16.5907 C   0  0  2  0  0  0  0  0  0  0  0  0
   23.3394  -19.4043  -16.8225 C   0  0  0  0  0  0  0  0  0  0  0  0
   22.9924  -20.0082  -18.1442 C   0  0  0  0  0  0  0  0  0  0  0  0
   21.6596  -19.7849  -18.6632 O   0  0  0  0  0  0  0  0  0  0  0  0
   20.7726  -19.1138  -18.0962 C   0  0  0  0  0  0  0  0  0  0  0  0
   22.5588  -19.8764  -15.6716 O   0  0  0  0  0  0  0  0  0  0  0  0
   23.1504  -20.7117  -14.8959 O   0  0  0  0  0  0  0  0  0  0  0  0
   21.2501  -20.3347  -19.9015 C   0  0  0  0  0  0  0  0  0  0  0  0
   22.0958  -20.5449  -10.6260 C   0  0  2  0  0  0  0  0  0  0  0  0
   21.0416  -19.9335  -11.5123 C   0  0  0  0  0  0  0  0  0  0  0  0
   20.6689  -18.5961  -10.8425 C   0  0  0  0  0  0  0  0  0  0  0  0
   21.5615  -19.5821  -12.8739 C   0  0  1  0  0  0  0  0  0  0  0  0
   20.6806  -19.9743  -14.0103 N   0  0  0  0  0  0  0  0  0  0  0  0
   21.2492  -19.5337  -15.2964 C   0  0  0  0  0  0  0  0  0  0  0  0
   19.2772  -19.5107  -13.8865 O   0  0  0  0  0  0  0  0  0  0  0  0
   18.5460  -19.9635  -12.9697 O   0  0  0  0  0  0  0  0  0  0  0  0
  2  4  1  0
  2  1  1  0
  3  2  2  0
  5  4  1  0
  6  5  1  0
  7  6  1  0
  8  9  1  6
  8  7  1  0
 10  8  1  0
 11 10  2  0
 12 10  1  0
 13 14  1  6
 13 12  1  0
 15 19  1  0
 15 14  1  0
 16 15  2  0
 17 13  1  0
 18 17  2  0
 21 20  1  1
 22 21  1  0
 23 21  1  0
 24 23  1  6
 24 25  1  0
 25 17  1  0
 26 28  1  0
 26 24  1  0
 27 26  2  0
M  END
$$$$
