RDL.pdb
     RDKit          3D

 28 27  0  0  1  0  0  0  0  0999 V2000
   29.3062  -22.3267  -10.7588 N   0  0  0  0  0  0  0  0  0  0  0  0
   29.3737  -20.9058  -10.6340 C   0  0  0  0  0  0  0  0  0  0  0  0
   30.4503  -20.3016  -10.9712 N   0  0  0  0  0  0  0  0  0  0  0  0
   28.2348  -20.2224  -10.1369 N   0  0  0  0  0  0  0  0  0  0  0  0
   26.9294  -20.9068  -10.1880 C   0  0  0  0  0  0  0  0  0  0  0  0
   26.5080  -20.9420  -11.6116 C   0  0  0  0  0  0  0  0  0  0  0  0
   25.1067  -20.5814  -11.9193 C   0  0  0  0  0  0  0  0  0  0  0  0
   24.2642  -21.6333  -12.5780 C   0  0  2  0  0  0  0  0  0  0  0  0
   25.1246  -22.6020  -13.2078 N   0  0  0  0  0  0  0  0  0  0  0  0
   23.4992  -20.9273  -13.6571 C   0  0  0  0  0  0  0  0  0  0  0  0
   23.8543  -21.1635  -14.8486 O   0  0  0  0  0  0  0  0  0  0  0  0
   30.6235  -19.3004  -10.8615 N   0  0  0  0  0  0  0  0  0  0  0  0
   22.4401  -20.0464  -13.3707 C   0  0  2  0  0  0  0  0  0  0  0  0
   21.7900  -19.3755  -14.5424 C   0  0  0  0  0  0  0  0  0  0  0  0
   20.4912  -18.8704  -14.0038 C   0  0  0  0  0  0  0  0  0  0  0  0
   19.6145  -19.8174  -13.3480 O   0  0  0  0  0  0  0  0  0  0  0  0
   18.9397  -19.5799  -12.3249 C   0  0  0  0  0  0  0  0  0  0  0  0
   22.7263  -18.3560  -15.0328 O   0  0  0  0  0  0  0  0  0  0  0  0
   22.8312  -17.2970  -14.3138 O   0  0  0  0  0  0  0  0  0  0  0  0
   19.4537  -21.1347  -13.8403 C   0  0  0  0  0  0  0  0  0  0  0  0
   27.8459  -18.8094  -15.7352 C   0  0  1  0  0  0  0  0  0  0  0  0
   26.4531  -18.2949  -15.4781 C   0  0  0  0  0  0  0  0  0  0  0  0
   26.6236  -17.1329  -14.4799 C   0  0  0  0  0  0  0  0  0  0  0  0
   25.8204  -17.6996  -16.7001 C   0  0  2  0  0  0  0  0  0  0  0  0
   24.4098  -17.2498  -16.5293 N   0  0  0  0  0  0  0  0  0  0  0  0
   23.5323  -18.3819  -16.1830 C   0  0  0  0  0  0  0  0  0  0  0  0
   23.8569  -16.5113  -17.6906 O   0  0  0  0  0  0  0  0  0  0  0  0
   22.9092  -17.0041  -18.3534 O   0  0  0  0  0  0  0  0  0  0  0  0
  2  4  1  0
  2  1  1  0
  3  2  2  0
  5  4  1  0
  6  5  1  0
  7  6  1  0
  8  9  1  6
  8  7  1  0
 10  8  1  0
 11 10  2  0
 12 10  1  0
 13 14  1  1
 13 12  1  0
 15 19  1  0
 15 14  1  0
 16 15  2  0
 17 13  1  0
 18 17  2  0
 21 20  1  1
 22 21  1  0
 23 21  1  0
 24 23  1  1
 24 25  1  0
 25 17  1  0
 26 28  1  0
 26 24  1  0
 27 26  2  0
M  END
$$$$
