RDL.pdb
     RDKit          3D

 28 27  0  0  1  0  0  0  0  0999 V2000
   24.3332  -21.2975   -7.6612 N   0  0  0  0  0  0  0  0  0  0  0  0
   25.6377  -20.7249   -7.5656 C   0  0  0  0  0  0  0  0  0  0  0  0
   26.1498  -20.5321   -6.4086 N   0  0  0  0  0  0  0  0  0  0  0  0
   26.3128  -20.3921   -8.7677 N   0  0  0  0  0  0  0  0  0  0  0  0
   25.6596  -20.7139  -10.0502 C   0  0  0  0  0  0  0  0  0  0  0  0
   26.6322  -21.4978  -10.8533 C   0  0  0  0  0  0  0  0  0  0  0  0
   27.1869  -20.8609  -12.0679 C   0  0  0  0  0  0  0  0  0  0  0  0
   26.2997  -19.8918  -12.7915 C   0  0  2  0  0  0  0  0  0  0  0  0
   25.0086  -20.4964  -12.9980 N   0  0  0  0  0  0  0  0  0  0  0  0
   26.9312  -19.6854  -14.1358 C   0  0  0  0  0  0  0  0  0  0  0  0
   28.1155  -19.2397  -14.1414 O   0  0  0  0  0  0  0  0  0  0  0  0
   27.0254  -20.0376   -6.2266 N   0  0  0  0  0  0  0  0  0  0  0  0
   26.2510  -19.9695  -15.3343 C   0  0  1  0  0  0  0  0  0  0  0  0
   26.8983  -19.4979  -16.6009 C   0  0  0  0  0  0  0  0  0  0  0  0
   27.2942  -20.7559  -17.3028 C   0  0  0  0  0  0  0  0  0  0  0  0
   28.1589  -20.6446  -18.4584 O   0  0  0  0  0  0  0  0  0  0  0  0
   28.6393  -19.5780  -18.8942 C   0  0  0  0  0  0  0  0  0  0  0  0
   25.9223  -18.6494  -17.2968 O   0  0  0  0  0  0  0  0  0  0  0  0
   24.6859  -18.9271  -17.0873 O   0  0  0  0  0  0  0  0  0  0  0  0
   28.5366  -21.7846  -19.2077 C   0  0  0  0  0  0  0  0  0  0  0  0
   26.8219  -14.0572  -15.1364 C   0  0  2  0  0  0  0  0  0  0  0  0
   26.0295  -15.1626  -15.7853 C   0  0  0  0  0  0  0  0  0  0  0  0
   24.5562  -14.7196  -15.6916 C   0  0  0  0  0  0  0  0  0  0  0  0
   26.3251  -15.3059  -17.2482 C   0  0  2  0  0  0  0  0  0  0  0  0
   25.4627  -16.2783  -17.9776 N   0  0  0  0  0  0  0  0  0  0  0  0
   26.1554  -17.5661  -18.1600 C   0  0  0  0  0  0  0  0  0  0  0  0
   24.9485  -15.7859  -19.2787 O   0  0  0  0  0  0  0  0  0  0  0  0
   25.5280  -16.1116  -20.3456 O   0  0  0  0  0  0  0  0  0  0  0  0
  2  4  1  0
  2  1  1  0
  3  2  2  0
  5  4  1  0
  6  5  1  0
  7  6  1  0
  8  9  1  6
  8  7  1  0
 10  8  1  0
 11 10  2  0
 12 10  1  0
 13 14  1  1
 13 12  1  0
 15 19  1  0
 15 14  1  0
 16 15  2  0
 17 13  1  0
 18 17  2  0
 21 20  1  1
 22 21  1  0
 23 21  1  0
 24 23  1  1
 24 25  1  0
 25 17  1  0
 26 28  1  0
 26 24  1  0
 27 26  2  0
M  END
$$$$
