RDL.pdb
     RDKit          3D

 28 27  0  0  1  0  0  0  0  0999 V2000
   22.1440  -21.6906   -7.7347 N   0  0  0  0  0  0  0  0  0  0  0  0
   23.5415  -21.4202   -7.6214 C   0  0  0  0  0  0  0  0  0  0  0  0
   24.0843  -21.4229   -6.4624 N   0  0  0  0  0  0  0  0  0  0  0  0
   24.2713  -21.1577   -8.8088 N   0  0  0  0  0  0  0  0  0  0  0  0
   23.5275  -21.0417  -10.0770 C   0  0  0  0  0  0  0  0  0  0  0  0
   24.5280  -20.8383  -11.1555 C   0  0  0  0  0  0  0  0  0  0  0  0
   24.0263  -20.7332  -12.5431 C   0  0  0  0  0  0  0  0  0  0  0  0
   22.5579  -20.4802  -12.7165 C   0  0  2  0  0  0  0  0  0  0  0  0
   21.8360  -21.7035  -12.4762 N   0  0  0  0  0  0  0  0  0  0  0  0
   22.3741  -20.1134  -14.1587 C   0  0  0  0  0  0  0  0  0  0  0  0
   21.7578  -20.9504  -14.8805 O   0  0  0  0  0  0  0  0  0  0  0  0
   25.0683  -21.2234   -6.2719 N   0  0  0  0  0  0  0  0  0  0  0  0
   22.8577  -18.9043  -14.6914 C   0  0  2  0  0  0  0  0  0  0  0  0
   22.4163  -18.5595  -16.0814 C   0  0  0  0  0  0  0  0  0  0  0  0
   20.9247  -18.5379  -15.9996 C   0  0  0  0  0  0  0  0  0  0  0  0
   20.1816  -19.3399  -16.9483 O   0  0  0  0  0  0  0  0  0  0  0  0
   20.6891  -20.0287  -17.8574 C   0  0  0  0  0  0  0  0  0  0  0  0
   23.0622  -17.2900  -16.4392 O   0  0  0  0  0  0  0  0  0  0  0  0
   23.0999  -16.3987  -15.5152 O   0  0  0  0  0  0  0  0  0  0  0  0
   18.7680  -19.4025  -16.9114 C   0  0  0  0  0  0  0  0  0  0  0  0
   28.2181  -16.6892  -15.7718 C   0  0  2  0  0  0  0  0  0  0  0  0
   27.2636  -16.0808  -16.7666 C   0  0  0  0  0  0  0  0  0  0  0  0
   27.8902  -16.3455  -18.1498 C   0  0  0  0  0  0  0  0  0  0  0  0
   25.9286  -16.7631  -16.7811 C   0  0  1  0  0  0  0  0  0  0  0  0
   24.9177  -16.1601  -17.6952 N   0  0  0  0  0  0  0  0  0  0  0  0
   23.6532  -16.9161  -17.6573 C   0  0  0  0  0  0  0  0  0  0  0  0
   25.3760  -16.0010  -19.0968 O   0  0  0  0  0  0  0  0  0  0  0  0
   25.3993  -16.9954  -19.8655 O   0  0  0  0  0  0  0  0  0  0  0  0
  2  4  1  0
  2  1  1  0
  3  2  2  0
  5  4  1  0
  6  5  1  0
  7  6  1  0
  8  9  1  6
  8  7  1  0
 10  8  1  0
 11 10  2  0
 12 10  1  0
 13 14  1  6
 13 12  1  0
 15 19  1  0
 15 14  1  0
 16 15  2  0
 17 13  1  0
 18 17  2  0
 21 20  1  1
 22 21  1  0
 23 21  1  0
 24 23  1  1
 24 25  1  0
 25 17  1  0
 26 28  1  0
 26 24  1  0
 27 26  2  0
M  END
$$$$
