SCR.pdb
     RDKit          3D

 24 23  0  0  1  0  0  0  0  0999 V2000
   21.9348  -14.1602  -18.1571 O   0  0  0  0  0  0  0  0  0  0  0  0
   20.5830  -14.2458  -18.3775 C   0  0  0  0  0  0  0  0  0  0  0  0
   19.8600  -12.9077  -18.2364 C   0  0  2  0  0  0  0  0  0  0  0  0
   20.3384  -12.0805  -19.3328 N   0  0  0  0  0  0  0  0  0  0  0  0
   20.1933  -12.3231  -16.9272 C   0  0  0  0  0  0  0  0  0  0  0  0
   19.8845  -12.8752  -15.8191 O   0  0  0  0  0  0  0  0  0  0  0  0
   20.8929  -11.0867  -16.7917 N   0  0  0  0  0  0  0  0  0  0  0  0
   21.2182  -10.5106  -15.5158 C   0  0  1  0  0  0  0  0  0  0  0  0
   22.6221   -9.9283  -15.4976 C   0  0  0  0  0  0  0  0  0  0  0  0
   22.9625   -9.1108  -13.9135 S   0  0  0  0  0  0  0  0  0  0  0  0
   20.2232   -9.5231  -15.0262 C   0  0  0  0  0  0  0  0  0  0  0  0
   19.9321   -8.4943  -15.7297 O   0  0  0  0  0  0  0  0  0  0  0  0
   13.6417   -9.5252   -8.7584 N   0  0  0  0  0  0  0  0  0  0  0  0
   13.3472   -8.6824   -9.8750 C   0  0  0  0  0  0  0  0  0  0  0  0
   12.0958   -8.3731  -10.0973 N   0  0  0  0  0  0  0  0  0  0  0  0
   14.3749   -8.1965  -10.7185 N   0  0  0  0  0  0  0  0  0  0  0  0
   15.5092   -9.0247  -11.0278 C   0  0  0  0  0  0  0  0  0  0  0  0
   16.4977   -8.3737  -11.9647 C   0  0  0  0  0  0  0  0  0  0  0  0
   17.6139   -9.2786  -12.3615 C   0  0  0  0  0  0  0  0  0  0  0  0
   18.5559   -8.6562  -13.3711 C   0  0  2  0  0  0  0  0  0  0  0  0
   19.5382   -9.6297  -13.7910 N   0  0  0  0  0  0  0  0  0  0  0  0
   19.2206   -7.4568  -12.8617 C   0  0  0  0  0  0  0  0  0  0  0  0
   18.6823   -6.3131  -13.0261 O   0  0  0  0  0  0  0  0  0  0  0  0
   20.4320   -7.4476  -12.1885 O   0  0  0  0  0  0  0  0  0  0  0  0
  1  2  1  0
  2  3  1  0
  3  5  1  0
  3  4  1  6
  5  6  2  0
  7  8  1  0
  7  5  1  0
  8 11  1  0
  8  9  1  6
 10  9  1  0
 11 12  2  0
 11 21  1  0
 14 13  1  0
 15 14  2  0
 16 14  1  0
 17 16  1  0
 18 17  1  0
 19 18  1  0
 20 19  1  1
 21 20  1  0
 22 24  1  0
 22 20  1  0
 23 22  2  0
M  END
$$$$
