SCR.pdb
     RDKit          3D

 24 23  0  0  1  0  0  0  0  0999 V2000
   24.1403  -21.8019  -19.3972 O   0  0  0  0  0  0  0  0  0  0  0  0
   23.7920  -21.7576  -18.0706 C   0  0  0  0  0  0  0  0  0  0  0  0
   24.3875  -20.5635  -17.3271 C   0  0  2  0  0  0  0  0  0  0  0  0
   25.8294  -20.7491  -17.3683 N   0  0  0  0  0  0  0  0  0  0  0  0
   23.8777  -20.5612  -15.9462 C   0  0  0  0  0  0  0  0  0  0  0  0
   24.5108  -20.0351  -14.9711 O   0  0  0  0  0  0  0  0  0  0  0  0
   22.6283  -21.1488  -15.5856 N   0  0  0  0  0  0  0  0  0  0  0  0
   22.0586  -21.0249  -14.2719 C   0  0  1  0  0  0  0  0  0  0  0  0
   21.8173  -19.5728  -13.8929 C   0  0  0  0  0  0  0  0  0  0  0  0
   20.4747  -18.8603  -14.8846 S   0  0  0  0  0  0  0  0  0  0  0  0
   20.8368  -21.8424  -14.0625 C   0  0  0  0  0  0  0  0  0  0  0  0
   19.9619  -21.9484  -14.9906 O   0  0  0  0  0  0  0  0  0  0  0  0
   19.8831  -29.2583   -9.7661 N   0  0  0  0  0  0  0  0  0  0  0  0
   20.5771  -28.6905  -10.8795 C   0  0  0  0  0  0  0  0  0  0  0  0
   21.6279  -29.3224  -11.3348 N   0  0  0  0  0  0  0  0  0  0  0  0
   20.1452  -27.4803  -11.4733 N   0  0  0  0  0  0  0  0  0  0  0  0
   18.9657  -26.8163  -10.9871 C   0  0  0  0  0  0  0  0  0  0  0  0
   18.6023  -25.5768  -11.7682 C   0  0  0  0  0  0  0  0  0  0  0  0
   19.7354  -24.6183  -11.9087 C   0  0  0  0  0  0  0  0  0  0  0  0
   19.3889  -23.4038  -12.7447 C   0  0  2  0  0  0  0  0  0  0  0  0
   20.5461  -22.5468  -12.8685 N   0  0  0  0  0  0  0  0  0  0  0  0
   18.2578  -22.6488  -12.2059 C   0  0  0  0  0  0  0  0  0  0  0  0
   18.4667  -21.6327  -11.4651 O   0  0  0  0  0  0  0  0  0  0  0  0
   16.9241  -22.9476  -12.4353 O   0  0  0  0  0  0  0  0  0  0  0  0
  1  2  1  0
  2  3  1  0
  3  5  1  0
  3  4  1  1
  5  6  2  0
  7  8  1  0
  7  5  1  0
  8 11  1  0
  8  9  1  6
 10  9  1  0
 11 12  2  0
 11 21  1  0
 14 13  1  0
 15 14  2  0
 16 14  1  0
 17 16  1  0
 18 17  1  0
 19 18  1  0
 20 19  1  1
 21 20  1  0
 22 24  1  0
 22 20  1  0
 23 22  2  0
M  END
$$$$
