SCR.pdb
     RDKit          3D

 24 23  0  0  1  0  0  0  0  0999 V2000
   27.3617  -20.9098  -12.6161 O   0  0  0  0  0  0  0  0  0  0  0  0
   27.1465  -22.2512  -12.4228 C   0  0  0  0  0  0  0  0  0  0  0  0
   25.7242  -22.5782  -11.9722 C   0  0  2  0  0  0  0  0  0  0  0  0
   25.6548  -24.0291  -11.8985 N   0  0  0  0  0  0  0  0  0  0  0  0
   24.7764  -22.0369  -12.9599 C   0  0  0  0  0  0  0  0  0  0  0  0
   24.6329  -22.5278  -14.1289 O   0  0  0  0  0  0  0  0  0  0  0  0
   23.9373  -20.9153  -12.6876 N   0  0  0  0  0  0  0  0  0  0  0  0
   23.0197  -20.3753  -13.6530 C   0  0  1  0  0  0  0  0  0  0  0  0
   21.6015  -20.3053  -13.1104 C   0  0  0  0  0  0  0  0  0  0  0  0
   21.5597  -19.4287  -11.5218 S   0  0  0  0  0  0  0  0  0  0  0  0
   23.4393  -19.0699  -14.2229 C   0  0  0  0  0  0  0  0  0  0  0  0
   23.7260  -18.0893  -13.4521 O   0  0  0  0  0  0  0  0  0  0  0  0
   30.0875  -17.2329  -18.6347 N   0  0  0  0  0  0  0  0  0  0  0  0
   29.1179  -18.2480  -18.3644 C   0  0  0  0  0  0  0  0  0  0  0  0
   29.4204  -19.4830  -18.6711 N   0  0  0  0  0  0  0  0  0  0  0  0
   27.8661  -17.9309  -17.7846 N   0  0  0  0  0  0  0  0  0  0  0  0
   27.2790  -16.6349  -17.9943 C   0  0  0  0  0  0  0  0  0  0  0  0
   25.9574  -16.4467  -17.2896 C   0  0  0  0  0  0  0  0  0  0  0  0
   25.3731  -17.7230  -16.7875 C   0  0  0  0  0  0  0  0  0  0  0  0
   24.0284  -17.5392  -16.1152 C   0  0  2  0  0  0  0  0  0  0  0  0
   23.5548  -18.8079  -15.6101 N   0  0  0  0  0  0  0  0  0  0  0  0
   23.0282  -16.9446  -17.0017 C   0  0  0  0  0  0  0  0  0  0  0  0
   22.2778  -17.6952  -17.7078 O   0  0  0  0  0  0  0  0  0  0  0  0
   22.8109  -15.5841  -17.1518 O   0  0  0  0  0  0  0  0  0  0  0  0
  1  2  1  0
  2  3  1  0
  3  5  1  0
  3  4  1  6
  5  6  2  0
  7  8  1  0
  7  5  1  0
  8 11  1  0
  8  9  1  1
 10  9  1  0
 11 12  2  0
 11 21  1  0
 14 13  1  0
 15 14  2  0
 16 14  1  0
 17 16  1  0
 18 17  1  0
 19 18  1  0
 20 19  1  6
 21 20  1  0
 22 24  1  0
 22 20  1  0
 23 22  2  0
M  END
$$$$
