SCR.pdb
     RDKit          3D

 24 23  0  0  1  0  0  0  0  0999 V2000
   24.2636  -24.1257  -15.9276 O   0  0  0  0  0  0  0  0  0  0  0  0
   23.7967  -24.9932  -16.8828 C   0  0  0  0  0  0  0  0  0  0  0  0
   22.4416  -24.5877  -17.4594 C   0  0  2  0  0  0  0  0  0  0  0  0
   22.6787  -23.3624  -18.2063 N   0  0  0  0  0  0  0  0  0  0  0  0
   21.4974  -24.3756  -16.3502 C   0  0  0  0  0  0  0  0  0  0  0  0
   20.9897  -23.2375  -16.0760 O   0  0  0  0  0  0  0  0  0  0  0  0
   21.0712  -25.4309  -15.4894 N   0  0  0  0  0  0  0  0  0  0  0  0
   20.1600  -25.2261  -14.3970 C   0  0  1  0  0  0  0  0  0  0  0  0
   18.8641  -24.5760  -14.8535 C   0  0  0  0  0  0  0  0  0  0  0  0
   18.3547  -25.2170  -16.4731 S   0  0  0  0  0  0  0  0  0  0  0  0
   19.8923  -26.4469  -13.5951 C   0  0  0  0  0  0  0  0  0  0  0  0
   20.1857  -27.6032  -14.0588 O   0  0  0  0  0  0  0  0  0  0  0  0
   23.0375  -31.4276   -8.0275 N   0  0  0  0  0  0  0  0  0  0  0  0
   23.3262  -31.5248   -9.4242 C   0  0  0  0  0  0  0  0  0  0  0  0
   23.8638  -32.6330   -9.8642 N   0  0  0  0  0  0  0  0  0  0  0  0
   23.0425  -30.4560  -10.3080 N   0  0  0  0  0  0  0  0  0  0  0  0
   22.5247  -29.2144   -9.7992 C   0  0  0  0  0  0  0  0  0  0  0  0
   21.0758  -28.9736  -10.1477 C   0  0  0  0  0  0  0  0  0  0  0  0
   20.8780  -27.8189  -11.0695 C   0  0  0  0  0  0  0  0  0  0  0  0
   19.4227  -27.5662  -11.4048 C   0  0  2  0  0  0  0  0  0  0  0  0
   19.3144  -26.4382  -12.3019 N   0  0  0  0  0  0  0  0  0  0  0  0
   18.5974  -27.3466  -10.2171 C   0  0  0  0  0  0  0  0  0  0  0  0
   18.0944  -28.3417   -9.5995 O   0  0  0  0  0  0  0  0  0  0  0  0
   18.2989  -26.1052   -9.6779 O   0  0  0  0  0  0  0  0  0  0  0  0
  1  2  1  0
  2  3  1  0
  3  5  1  0
  3  4  1  1
  5  6  2  0
  7  8  1  0
  7  5  1  0
  8 11  1  0
  8  9  1  6
 10  9  1  0
 11 12  2  0
 11 21  1  0
 14 13  1  0
 15 14  2  0
 16 14  1  0
 17 16  1  0
 18 17  1  0
 19 18  1  0
 20 19  1  1
 21 20  1  0
 22 24  1  0
 22 20  1  0
 23 22  2  0
M  END
$$$$
