SCR.pdb
     RDKit          3D

 24 23  0  0  1  0  0  0  0  0999 V2000
   20.2190  -20.1429  -15.3017 O   0  0  0  0  0  0  0  0  0  0  0  0
   19.6732  -20.7104  -14.1778 C   0  0  0  0  0  0  0  0  0  0  0  0
   20.5895  -21.7333  -13.5092 C   0  0  2  0  0  0  0  0  0  0  0  0
   19.8661  -22.2105  -12.3411 N   0  0  0  0  0  0  0  0  0  0  0  0
   21.8497  -21.0703  -13.1362 C   0  0  0  0  0  0  0  0  0  0  0  0
   21.9410  -20.2410  -12.1707 O   0  0  0  0  0  0  0  0  0  0  0  0
   23.0764  -21.3037  -13.8270 N   0  0  0  0  0  0  0  0  0  0  0  0
   24.2943  -20.6098  -13.5096 C   0  0  1  0  0  0  0  0  0  0  0  0
   25.3890  -21.5627  -13.0581 C   0  0  0  0  0  0  0  0  0  0  0  0
   25.4947  -22.9970  -14.1650 S   0  0  0  0  0  0  0  0  0  0  0  0
   24.7784  -19.7120  -14.5888 C   0  0  0  0  0  0  0  0  0  0  0  0
   24.5287  -19.9808  -15.8150 O   0  0  0  0  0  0  0  0  0  0  0  0
   27.3022  -11.1436  -14.8098 N   0  0  0  0  0  0  0  0  0  0  0  0
   27.4142  -11.6051  -16.1582 C   0  0  0  0  0  0  0  0  0  0  0  0
   27.7452  -10.7367  -17.0786 N   0  0  0  0  0  0  0  0  0  0  0  0
   27.1733  -12.9593  -16.4924 N   0  0  0  0  0  0  0  0  0  0  0  0
   26.8082  -13.9029  -15.4702 C   0  0  0  0  0  0  0  0  0  0  0  0
   26.5400  -15.2924  -15.9957 C   0  0  0  0  0  0  0  0  0  0  0  0
   26.1437  -16.2565  -14.9300 C   0  0  0  0  0  0  0  0  0  0  0  0
   25.9384  -17.6653  -15.4469 C   0  0  2  0  0  0  0  0  0  0  0  0
   25.5258  -18.5300  -14.3646 N   0  0  0  0  0  0  0  0  0  0  0  0
   27.1292  -18.2085  -16.1000 C   0  0  0  0  0  0  0  0  0  0  0  0
   27.9354  -18.9448  -15.4419 O   0  0  0  0  0  0  0  0  0  0  0  0
   27.4775  -17.9883  -17.4232 O   0  0  0  0  0  0  0  0  0  0  0  0
  1  2  1  0
  2  3  1  0
  3  5  1  0
  3  4  1  1
  5  6  2  0
  7  8  1  0
  7  5  1  0
  8 11  1  0
  8  9  1  6
 10  9  1  0
 11 12  2  0
 11 21  1  0
 14 13  1  0
 15 14  2  0
 16 14  1  0
 17 16  1  0
 18 17  1  0
 19 18  1  0
 20 19  1  1
 21 20  1  0
 22 24  1  0
 22 20  1  0
 23 22  2  0
M  END
$$$$
