SCR.pdb
     RDKit          3D

 24 23  0  0  1  0  0  0  0  0999 V2000
   16.0584  -11.0306  -16.0485 O   0  0  0  0  0  0  0  0  0  0  0  0
   16.8566  -12.1342  -16.2159 C   0  0  0  0  0  0  0  0  0  0  0  0
   18.3060  -11.7886  -16.5520 C   0  0  2  0  0  0  0  0  0  0  0  0
   19.0128  -13.0582  -16.6139 N   0  0  0  0  0  0  0  0  0  0  0  0
   18.8440  -10.9165  -15.4952 C   0  0  0  0  0  0  0  0  0  0  0  0
   18.8536  -11.2421  -14.2615 O   0  0  0  0  0  0  0  0  0  0  0  0
   19.4017   -9.6314  -15.7671 N   0  0  0  0  0  0  0  0  0  0  0  0
   19.8819   -8.7554  -14.7338 C   0  0  1  0  0  0  0  0  0  0  0  0
   21.3853   -8.8736  -14.5432 C   0  0  0  0  0  0  0  0  0  0  0  0
   21.9421   -7.8554  -13.1479 S   0  0  0  0  0  0  0  0  0  0  0  0
   19.4743   -7.3377  -14.9043 C   0  0  0  0  0  0  0  0  0  0  0  0
   19.6273   -6.7513  -16.0316 O   0  0  0  0  0  0  0  0  0  0  0  0
   14.4109   -5.3977   -9.1032 N   0  0  0  0  0  0  0  0  0  0  0  0
   15.3877   -6.3349   -9.5629 C   0  0  0  0  0  0  0  0  0  0  0  0
   15.6494   -7.3694   -8.8065 N   0  0  0  0  0  0  0  0  0  0  0  0
   16.0555   -6.1522  -10.7975 N   0  0  0  0  0  0  0  0  0  0  0  0
   15.3768   -5.5293  -11.9020 C   0  0  0  0  0  0  0  0  0  0  0  0
   16.1793   -5.5221  -13.1805 C   0  0  0  0  0  0  0  0  0  0  0  0
   17.4642   -4.7755  -13.0628 C   0  0  0  0  0  0  0  0  0  0  0  0
   18.4865   -5.1801  -14.1046 C   0  0  2  0  0  0  0  0  0  0  0  0
   18.9041   -6.5451  -13.8782 N   0  0  0  0  0  0  0  0  0  0  0  0
   19.6505   -4.2946  -14.1301 C   0  0  0  0  0  0  0  0  0  0  0  0
   20.8028   -4.7502  -13.8305 O   0  0  0  0  0  0  0  0  0  0  0  0
   19.6162   -2.9498  -14.4638 O   0  0  0  0  0  0  0  0  0  0  0  0
  1  2  1  0
  2  3  1  0
  3  5  1  0
  3  4  1  1
  5  6  2  0
  7  8  1  0
  7  5  1  0
  8 11  1  0
  8  9  1  6
 10  9  1  0
 11 12  2  0
 11 21  1  0
 14 13  1  0
 15 14  2  0
 16 14  1  0
 17 16  1  0
 18 17  1  0
 19 18  1  0
 20 19  1  1
 21 20  1  0
 22 24  1  0
 22 20  1  0
 23 22  2  0
M  END
$$$$
