SCR.pdb
     RDKit          3D

 24 23  0  0  1  0  0  0  0  0999 V2000
   26.3732  -19.0120  -16.4913 O   0  0  0  0  0  0  0  0  0  0  0  0
   27.5054  -18.5263  -15.8871 C   0  0  0  0  0  0  0  0  0  0  0  0
   28.4429  -19.6230  -15.3855 C   0  0  2  0  0  0  0  0  0  0  0  0
   28.9287  -20.3045  -16.5750 N   0  0  0  0  0  0  0  0  0  0  0  0
   27.6858  -20.5309  -14.5084 C   0  0  0  0  0  0  0  0  0  0  0  0
   27.4148  -21.7375  -14.8226 O   0  0  0  0  0  0  0  0  0  0  0  0
   27.1929  -20.1329  -13.2297 N   0  0  0  0  0  0  0  0  0  0  0  0
   26.4663  -21.0202  -12.3634 C   0  0  1  0  0  0  0  0  0  0  0  0
   26.4726  -20.5371  -10.9222 C   0  0  0  0  0  0  0  0  0  0  0  0
   24.9635  -21.0582  -10.0591 S   0  0  0  0  0  0  0  0  0  0  0  0
   25.0856  -21.3175  -12.8218 C   0  0  0  0  0  0  0  0  0  0  0  0
   24.3221  -20.3750  -13.2304 O   0  0  0  0  0  0  0  0  0  0  0  0
   18.9809  -26.4698  -12.5983 N   0  0  0  0  0  0  0  0  0  0  0  0
   18.9650  -26.6582  -14.0153 C   0  0  0  0  0  0  0  0  0  0  0  0
   17.8230  -26.9481  -14.5832 N   0  0  0  0  0  0  0  0  0  0  0  0
   20.1472  -26.5378  -14.7845 N   0  0  0  0  0  0  0  0  0  0  0  0
   21.3910  -26.1924  -14.1504 C   0  0  0  0  0  0  0  0  0  0  0  0
   21.6250  -24.7049  -14.0445 C   0  0  0  0  0  0  0  0  0  0  0  0
   22.9578  -24.3596  -13.4730 C   0  0  0  0  0  0  0  0  0  0  0  0
   23.2020  -22.8672  -13.3888 C   0  0  2  0  0  0  0  0  0  0  0  0
   24.5178  -22.6149  -12.8465 N   0  0  0  0  0  0  0  0  0  0  0  0
   22.1884  -22.1709  -12.5966 C   0  0  0  0  0  0  0  0  0  0  0  0
   21.1574  -21.6855  -13.1681 O   0  0  0  0  0  0  0  0  0  0  0  0
   22.2466  -21.9817  -11.2249 O   0  0  0  0  0  0  0  0  0  0  0  0
  1  2  1  0
  2  3  1  0
  3  5  1  0
  3  4  1  6
  5  6  2  0
  7  8  1  0
  7  5  1  0
  8 11  1  0
  8  9  1  1
 10  9  1  0
 11 12  2  0
 11 21  1  0
 14 13  1  0
 15 14  2  0
 16 14  1  0
 17 16  1  0
 18 17  1  0
 19 18  1  0
 20 19  1  1
 21 20  1  0
 22 24  1  0
 22 20  1  0
 23 22  2  0
M  END
$$$$
