SCR.pdb
     RDKit          3D

 24 23  0  0  1  0  0  0  0  0999 V2000
   27.0883  -23.6618  -17.7443 O   0  0  0  0  0  0  0  0  0  0  0  0
   28.2467  -23.3639  -18.4170 C   0  0  0  0  0  0  0  0  0  0  0  0
   29.2915  -22.6685  -17.5464 C   0  0  2  0  0  0  0  0  0  0  0  0
   30.0674  -23.7334  -16.9305 N   0  0  0  0  0  0  0  0  0  0  0  0
   28.6003  -21.8460  -16.5401 C   0  0  0  0  0  0  0  0  0  0  0  0
   28.5720  -22.1418  -15.2991 O   0  0  0  0  0  0  0  0  0  0  0  0
   27.9042  -20.6456  -16.8730 N   0  0  0  0  0  0  0  0  0  0  0  0
   27.3261  -19.7792  -15.8826 C   0  0  1  0  0  0  0  0  0  0  0  0
   27.5266  -18.3120  -16.2257 C   0  0  0  0  0  0  0  0  0  0  0  0
   26.8427  -17.9317  -17.8632 S   0  0  0  0  0  0  0  0  0  0  0  0
   25.9007  -20.0684  -15.5832 C   0  0  0  0  0  0  0  0  0  0  0  0
   25.1576  -20.6348  -16.4579 O   0  0  0  0  0  0  0  0  0  0  0  0
   21.3675  -21.6066   -8.4729 N   0  0  0  0  0  0  0  0  0  0  0  0
   22.6645  -21.0814   -8.7656 C   0  0  0  0  0  0  0  0  0  0  0  0
   23.6165  -21.2733   -7.8894 N   0  0  0  0  0  0  0  0  0  0  0  0
   22.9153  -20.3728   -9.9651 N   0  0  0  0  0  0  0  0  0  0  0  0
   21.8278  -20.0179  -10.8367 C   0  0  0  0  0  0  0  0  0  0  0  0
   22.1423  -20.1967  -12.3022 C   0  0  0  0  0  0  0  0  0  0  0  0
   23.5632  -19.8962  -12.6385 C   0  0  0  0  0  0  0  0  0  0  0  0
   23.8745  -20.0587  -14.1118 C   0  0  2  0  0  0  0  0  0  0  0  0
   25.2667  -19.7567  -14.3556 N   0  0  0  0  0  0  0  0  0  0  0  0
   23.0222  -19.2314  -14.9657 C   0  0  0  0  0  0  0  0  0  0  0  0
   23.3758  -18.0412  -15.2546 O   0  0  0  0  0  0  0  0  0  0  0  0
   21.8156  -19.6378  -15.5129 O   0  0  0  0  0  0  0  0  0  0  0  0
  1  2  1  0
  2  3  1  0
  3  5  1  0
  3  4  1  1
  5  6  2  0
  7  8  1  0
  7  5  1  0
  8 11  1  0
  8  9  1  6
 10  9  1  0
 11 12  2  0
 11 21  1  0
 14 13  1  0
 15 14  2  0
 16 14  1  0
 17 16  1  0
 18 17  1  0
 19 18  1  0
 20 19  1  1
 21 20  1  0
 22 24  1  0
 22 20  1  0
 23 22  2  0
M  END
$$$$
