SCR.pdb
     RDKit          3D

 24 23  0  0  1  0  0  0  0  0999 V2000
   21.5047  -21.9430  -15.1400 O   0  0  0  0  0  0  0  0  0  0  0  0
   20.6442  -21.4936  -14.1701 C   0  0  0  0  0  0  0  0  0  0  0  0
   21.2145  -21.6001  -12.7571 C   0  0  2  0  0  0  0  0  0  0  0  0
   20.1965  -21.0505  -11.8757 N   0  0  0  0  0  0  0  0  0  0  0  0
   22.4667  -20.8290  -12.6906 C   0  0  0  0  0  0  0  0  0  0  0  0
   22.4998  -19.5534  -12.6910 O   0  0  0  0  0  0  0  0  0  0  0  0
   23.7499  -21.4491  -12.6189 N   0  0  0  0  0  0  0  0  0  0  0  0
   24.9792  -20.7083  -12.6941 C   0  0  1  0  0  0  0  0  0  0  0  0
   26.1461  -21.4843  -12.1053 C   0  0  0  0  0  0  0  0  0  0  0  0
   27.6768  -20.5130  -12.1898 S   0  0  0  0  0  0  0  0  0  0  0  0
   25.3020  -20.2075  -14.0542 C   0  0  0  0  0  0  0  0  0  0  0  0
   25.2084  -20.9825  -15.0685 O   0  0  0  0  0  0  0  0  0  0  0  0
   23.0577  -13.0644  -17.9430 N   0  0  0  0  0  0  0  0  0  0  0  0
   22.5310  -14.3209  -17.5102 C   0  0  0  0  0  0  0  0  0  0  0  0
   21.2528  -14.3911  -17.2418 N   0  0  0  0  0  0  0  0  0  0  0  0
   23.3640  -15.4572  -17.3728 N   0  0  0  0  0  0  0  0  0  0  0  0
   24.7730  -15.3584  -17.6435 C   0  0  0  0  0  0  0  0  0  0  0  0
   25.5388  -16.6232  -17.3396 C   0  0  0  0  0  0  0  0  0  0  0  0
   25.2645  -17.1625  -15.9771 C   0  0  0  0  0  0  0  0  0  0  0  0
   26.0181  -18.4422  -15.6796 C   0  0  2  0  0  0  0  0  0  0  0  0
   25.7226  -18.8846  -14.3357 N   0  0  0  0  0  0  0  0  0  0  0  0
   27.4633  -18.3034  -15.8581 C   0  0  0  0  0  0  0  0  0  0  0  0
   28.1888  -17.9075  -14.8876 O   0  0  0  0  0  0  0  0  0  0  0  0
   28.1462  -18.5736  -17.0334 O   0  0  0  0  0  0  0  0  0  0  0  0
  1  2  1  0
  2  3  1  0
  3  5  1  0
  3  4  1  1
  5  6  2  0
  7  8  1  0
  7  5  1  0
  8 11  1  0
  8  9  1  6
 10  9  1  0
 11 12  2  0
 11 21  1  0
 14 13  1  0
 15 14  2  0
 16 14  1  0
 17 16  1  0
 18 17  1  0
 19 18  1  0
 20 19  1  1
 21 20  1  0
 22 24  1  0
 22 20  1  0
 23 22  2  0
M  END
$$$$
