SCR.pdb
     RDKit          3D

 24 23  0  0  1  0  0  0  0  0999 V2000
   24.4834  -15.8001  -19.3406 O   0  0  0  0  0  0  0  0  0  0  0  0
   24.8244  -14.6903  -18.6091 C   0  0  0  0  0  0  0  0  0  0  0  0
   26.0126  -14.9202  -17.6772 C   0  0  2  0  0  0  0  0  0  0  0  0
   25.5644  -15.8954  -16.6956 N   0  0  0  0  0  0  0  0  0  0  0  0
   26.3769  -13.6408  -17.0470 C   0  0  0  0  0  0  0  0  0  0  0  0
   25.9380  -13.2769  -15.9054 O   0  0  0  0  0  0  0  0  0  0  0  0
   27.2552  -12.7008  -17.6646 N   0  0  0  0  0  0  0  0  0  0  0  0
   27.4775  -11.3808  -17.1412 C   0  0  1  0  0  0  0  0  0  0  0  0
   28.8695  -10.8668  -17.4709 C   0  0  0  0  0  0  0  0  0  0  0  0
   29.0886   -9.1665  -16.8753 S   0  0  0  0  0  0  0  0  0  0  0  0
   26.4376  -10.3936  -17.5271 C   0  0  0  0  0  0  0  0  0  0  0  0
   26.0341  -10.3189  -18.7395 O   0  0  0  0  0  0  0  0  0  0  0  0
   19.1903   -9.1071  -13.8838 N   0  0  0  0  0  0  0  0  0  0  0  0
   19.5301   -9.6140  -15.1766 C   0  0  0  0  0  0  0  0  0  0  0  0
   18.6608  -10.3802  -15.7834 N   0  0  0  0  0  0  0  0  0  0  0  0
   20.7693   -9.3008  -15.7848 N   0  0  0  0  0  0  0  0  0  0  0  0
   21.2152   -7.9354  -15.8571 C   0  0  0  0  0  0  0  0  0  0  0  0
   22.4861   -7.7539  -16.6512 C   0  0  0  0  0  0  0  0  0  0  0  0
   23.5772   -8.6791  -16.2322 C   0  0  0  0  0  0  0  0  0  0  0  0
   24.8390   -8.5246  -17.0556 C   0  0  2  0  0  0  0  0  0  0  0  0
   25.8269   -9.4880  -16.6254 N   0  0  0  0  0  0  0  0  0  0  0  0
   25.3937   -7.1724  -16.9943 C   0  0  0  0  0  0  0  0  0  0  0  0
   26.4192   -6.9378  -16.2745 O   0  0  0  0  0  0  0  0  0  0  0  0
   24.8869   -6.0764  -17.6746 O   0  0  0  0  0  0  0  0  0  0  0  0
  1  2  1  0
  2  3  1  0
  3  5  1  0
  3  4  1  1
  5  6  2  0
  7  8  1  0
  7  5  1  0
  8 11  1  0
  8  9  1  6
 10  9  1  0
 11 12  2  0
 11 21  1  0
 14 13  1  0
 15 14  2  0
 16 14  1  0
 17 16  1  0
 18 17  1  0
 19 18  1  0
 20 19  1  1
 21 20  1  0
 22 24  1  0
 22 20  1  0
 23 22  2  0
M  END
$$$$
