SCR.pdb
     RDKit          3D

 24 23  0  0  1  0  0  0  0  0999 V2000
   28.5338  -18.0815  -14.3790 O   0  0  0  0  0  0  0  0  0  0  0  0
   27.5353  -18.9121  -13.9363 C   0  0  0  0  0  0  0  0  0  0  0  0
   27.9760  -20.3677  -13.7946 C   0  0  2  0  0  0  0  0  0  0  0  0
   28.3185  -20.8112  -15.1368 N   0  0  0  0  0  0  0  0  0  0  0  0
   26.8630  -21.1486  -13.2303 C   0  0  0  0  0  0  0  0  0  0  0  0
   26.0837  -21.8652  -13.9426 O   0  0  0  0  0  0  0  0  0  0  0  0
   26.5656  -21.1677  -11.8348 N   0  0  0  0  0  0  0  0  0  0  0  0
   25.2889  -21.5745  -11.3151 C   0  0  1  0  0  0  0  0  0  0  0  0
   25.3313  -21.7904   -9.8111 C   0  0  0  0  0  0  0  0  0  0  0  0
   25.8341  -20.2718   -8.9540 S   0  0  0  0  0  0  0  0  0  0  0  0
   24.1673  -20.6788  -11.6954 C   0  0  0  0  0  0  0  0  0  0  0  0
   24.4016  -19.5083  -12.1570 O   0  0  0  0  0  0  0  0  0  0  0  0
   20.9457  -20.8014  -18.1388 N   0  0  0  0  0  0  0  0  0  0  0  0
   20.1398  -19.6783  -17.7742 C   0  0  0  0  0  0  0  0  0  0  0  0
   19.1222  -19.3788  -18.5395 N   0  0  0  0  0  0  0  0  0  0  0  0
   20.4315  -18.9093  -16.6222 N   0  0  0  0  0  0  0  0  0  0  0  0
   21.4620  -19.3317  -15.7121 C   0  0  0  0  0  0  0  0  0  0  0  0
   21.0963  -20.5558  -14.9082 C   0  0  0  0  0  0  0  0  0  0  0  0
   22.1405  -20.9399  -13.9160 C   0  0  0  0  0  0  0  0  0  0  0  0
   21.8015  -20.5199  -12.5008 C   0  0  2  0  0  0  0  0  0  0  0  0
   22.7988  -21.0274  -11.5860 N   0  0  0  0  0  0  0  0  0  0  0  0
   20.4682  -20.9546  -12.0847 C   0  0  0  0  0  0  0  0  0  0  0  0
   20.2911  -22.1427  -11.6580 O   0  0  0  0  0  0  0  0  0  0  0  0
   19.3317  -20.1619  -12.1122 O   0  0  0  0  0  0  0  0  0  0  0  0
  1  2  1  0
  2  3  1  0
  3  5  1  0
  3  4  1  6
  5  6  2  0
  7  8  1  0
  7  5  1  0
  8 11  1  0
  8  9  1  1
 10  9  1  0
 11 12  2  0
 11 21  1  0
 14 13  1  0
 15 14  2  0
 16 14  1  0
 17 16  1  0
 18 17  1  0
 19 18  1  0
 20 19  1  6
 21 20  1  0
 22 24  1  0
 22 20  1  0
 23 22  2  0
M  END
$$$$
