YCH.pdb
     RDKit          3D

 29 30  0  0  1  0  0  0  0  0999 V2000
    5.8748  -16.9574   12.2620 O   0  0  0  0  0  0  0  0  0  0  0  0
    6.6069  -16.5398   13.3639 C   0  0  0  0  0  0  0  0  0  0  0  0
    6.4201  -17.0875   14.6146 C   0  0  0  0  0  0  0  0  0  0  0  0
    7.1739  -16.6431   15.6986 C   0  0  0  0  0  0  0  0  0  0  0  0
    8.1211  -15.6506   15.5535 C   0  0  0  0  0  0  0  0  0  0  0  0
    8.8803  -15.2332   16.7503 C   0  0  0  0  0  0  0  0  0  0  0  0
    8.0870  -14.2554   17.6065 C   0  0  2  0  0  0  0  0  0  0  0  0
    8.0644  -12.9348   17.0100 N   0  0  0  0  0  0  0  0  0  0  0  0
    8.7496  -14.2353   18.9378 C   0  0  0  0  0  0  0  0  0  0  0  0
    9.9999  -14.1020   18.9559 O   0  0  0  0  0  0  0  0  0  0  0  0
    8.3140  -15.1025   14.3225 C   0  0  0  0  0  0  0  0  0  0  0  0
    7.5591  -15.5476   13.2373 C   0  0  0  0  0  0  0  0  0  0  0  0
    8.0745  -14.3545   20.1686 N   0  0  0  0  0  0  0  0  0  0  0  0
    8.7208  -14.3460   21.4563 C   0  0  1  0  0  0  0  0  0  0  0  0
    7.6823  -14.0815   22.5542 C   0  0  0  0  0  0  0  0  0  0  0  0
    6.9356  -15.6453   23.0892 S   0  0  0  0  0  0  0  0  0  0  0  0
    9.4446  -15.6138   21.7139 C   0  0  0  0  0  0  0  0  0  0  0  0
    9.4294  -16.4825   20.8082 O   0  0  0  0  0  0  0  0  0  0  0  0
   10.1344  -15.8539   22.9324 N   0  0  0  0  0  0  0  0  0  0  0  0
   11.5309  -16.1146   23.0591 C   0  0  1  0  0  0  0  0  0  0  0  0
   12.4384  -15.1320   22.3381 C   0  0  0  0  0  0  0  0  0  0  0  0
   12.7368  -15.5258   20.9602 C   0  0  0  0  0  0  0  0  0  0  0  0
   12.3390  -16.6167   20.2493 C   0  0  0  0  0  0  0  0  0  0  0  0
   12.8583  -16.5607   18.9907 N   0  0  0  0  0  0  0  0  0  0  0  0
   13.5808  -15.4338   18.9153 C   0  0  0  0  0  0  0  0  0  0  0  0
   13.5154  -14.8047   20.0906 N   0  0  0  0  0  0  0  0  0  0  0  0
   12.0080  -16.3935   24.4180 C   0  0  0  0  0  0  0  0  0  0  0  0
   13.2925  -16.7757   24.7307 O   0  0  0  0  0  0  0  0  0  0  0  0
   11.1671  -16.2701   25.3654 O   0  0  0  0  0  0  0  0  0  0  0  0
  2  1  1  0
  3  2  2  0
  4  3  1  0
  5  4  2  0
  5 11  1  0
  6  5  1  0
  7  8  1  6
  7  6  1  0
  9  7  1  0
  9 13  1  0
 10  9  2  0
 11 12  2  0
 12  2  1  0
 14 13  1  0
 14 15  1  1
 15 16  1  0
 17 14  1  0
 18 17  2  0
 19 17  1  0
 20 27  1  0
 20 19  1  0
 21 22  1  0
 20 21  1  1
 22 26  1  0
 23 22  2  0
 23 24  1  0
 24 25  1  0
 26 25  2  0
 27 28  1  0
 29 27  2  0
M  END
$$$$
