YCH.pdb
     RDKit          3D

 29 30  0  0  1  0  0  0  0  0999 V2000
   -1.8656  -20.3068   20.7103 O   0  0  0  0  0  0  0  0  0  0  0  0
   -0.5630  -20.0043   21.0796 C   0  0  0  0  0  0  0  0  0  0  0  0
   -0.2209  -19.7235   22.3847 C   0  0  0  0  0  0  0  0  0  0  0  0
    1.0980  -19.4238   22.7189 C   0  0  0  0  0  0  0  0  0  0  0  0
    2.0914  -19.3995   21.7621 C   0  0  0  0  0  0  0  0  0  0  0  0
    3.4660  -19.0731   22.1946 C   0  0  0  0  0  0  0  0  0  0  0  0
    4.3978  -18.8783   21.0062 C   0  0  2  0  0  0  0  0  0  0  0  0
    4.7211  -20.1447   20.3800 N   0  0  0  0  0  0  0  0  0  0  0  0
    5.6167  -18.2122   21.5377 C   0  0  0  0  0  0  0  0  0  0  0  0
    6.6233  -18.9365   21.7462 O   0  0  0  0  0  0  0  0  0  0  0  0
    1.7647  -19.6753   20.4697 C   0  0  0  0  0  0  0  0  0  0  0  0
    0.4442  -19.9753   20.1353 C   0  0  0  0  0  0  0  0  0  0  0  0
    5.7165  -16.8355   21.8203 N   0  0  0  0  0  0  0  0  0  0  0  0
    6.8992  -16.1933   22.3349 C   0  0  1  0  0  0  0  0  0  0  0  0
    6.9418  -14.7341   21.8632 C   0  0  0  0  0  0  0  0  0  0  0  0
    8.3447  -13.8770   22.6291 S   0  0  0  0  0  0  0  0  0  0  0  0
    6.9631  -16.2681   23.8141 C   0  0  0  0  0  0  0  0  0  0  0  0
    5.9257  -15.9677   24.4535 O   0  0  0  0  0  0  0  0  0  0  0  0
    8.1438  -16.6623   24.4987 N   0  0  0  0  0  0  0  0  0  0  0  0
    8.2034  -17.5708   25.5966 C   0  0  1  0  0  0  0  0  0  0  0  0
    7.4343  -18.8670   25.4035 C   0  0  0  0  0  0  0  0  0  0  0  0
    7.5063  -19.7592   26.5618 C   0  0  0  0  0  0  0  0  0  0  0  0
    8.0791  -19.5740   27.7829 C   0  0  0  0  0  0  0  0  0  0  0  0
    7.8892  -20.6817   28.5535 N   0  0  0  0  0  0  0  0  0  0  0  0
    7.1971  -21.5594   27.8132 C   0  0  0  0  0  0  0  0  0  0  0  0
    6.9616  -21.0172   26.6166 N   0  0  0  0  0  0  0  0  0  0  0  0
    9.5387  -17.8129   26.1538 C   0  0  0  0  0  0  0  0  0  0  0  0
    9.8048  -17.9923   27.4919 O   0  0  0  0  0  0  0  0  0  0  0  0
   10.5107  -17.8580   25.3334 O   0  0  0  0  0  0  0  0  0  0  0  0
  2  1  1  0
  3  2  2  0
  4  3  1  0
  5  4  2  0
  5 11  1  0
  6  5  1  0
  7  8  1  1
  7  6  1  0
  9  7  1  0
  9 13  1  0
 10  9  2  0
 11 12  2  0
 12  2  1  0
 14 13  1  0
 14 15  1  1
 15 16  1  0
 17 14  1  0
 18 17  2  0
 19 17  1  0
 20 27  1  0
 20 19  1  0
 21 22  1  0
 20 21  1  6
 22 26  1  0
 23 22  2  0
 23 24  1  0
 24 25  1  0
 26 25  2  0
 27 28  1  0
 29 27  2  0
M  END
$$$$
