YCH.pdb
     RDKit          3D

 29 30  0  0  1  0  0  0  0  0999 V2000
    6.4977  -10.9248   25.5799 O   0  0  0  0  0  0  0  0  0  0  0  0
    6.4993  -12.3063   25.7060 C   0  0  0  0  0  0  0  0  0  0  0  0
    5.3340  -13.0419   25.6936 C   0  0  0  0  0  0  0  0  0  0  0  0
    5.3740  -14.4284   25.8227 C   0  0  0  0  0  0  0  0  0  0  0  0
    6.5705  -15.1001   25.9655 C   0  0  0  0  0  0  0  0  0  0  0  0
    6.5310  -16.5712   26.0969 C   0  0  0  0  0  0  0  0  0  0  0  0
    6.3063  -17.2498   24.7525 C   0  0  2  0  0  0  0  0  0  0  0  0
    6.0350  -18.6639   24.9176 N   0  0  0  0  0  0  0  0  0  0  0  0
    7.5455  -17.0267   23.9611 C   0  0  0  0  0  0  0  0  0  0  0  0
    8.5559  -17.7084   24.2704 O   0  0  0  0  0  0  0  0  0  0  0  0
    7.7278  -14.3836   25.9791 C   0  0  0  0  0  0  0  0  0  0  0  0
    7.6875  -12.9953   25.8498 C   0  0  0  0  0  0  0  0  0  0  0  0
    7.6606  -16.1099   22.8975 N   0  0  0  0  0  0  0  0  0  0  0  0
    8.8206  -15.9844   22.0522 C   0  0  1  0  0  0  0  0  0  0  0  0
    8.4910  -15.0878   20.8518 C   0  0  0  0  0  0  0  0  0  0  0  0
    7.2125  -13.8857   21.3099 S   0  0  0  0  0  0  0  0  0  0  0  0
    9.9867  -15.4539   22.7982 C   0  0  0  0  0  0  0  0  0  0  0  0
   10.0166  -14.2193   23.0223 O   0  0  0  0  0  0  0  0  0  0  0  0
   11.0389  -16.2948   23.2496 N   0  0  0  0  0  0  0  0  0  0  0  0
   11.5865  -16.3061   24.5666 C   0  0  1  0  0  0  0  0  0  0  0  0
   10.5641  -16.3559   25.6896 C   0  0  0  0  0  0  0  0  0  0  0  0
   11.1696  -16.3531   27.0223 C   0  0  0  0  0  0  0  0  0  0  0  0
   12.4781  -16.3097   27.3959 C   0  0  0  0  0  0  0  0  0  0  0  0
   12.5694  -16.3171   28.7555 N   0  0  0  0  0  0  0  0  0  0  0  0
   11.3169  -16.3649   29.2315 C   0  0  0  0  0  0  0  0  0  0  0  0
   10.4687  -16.3869   28.2013 N   0  0  0  0  0  0  0  0  0  0  0  0
   12.6849  -17.2515   24.7937 C   0  0  0  0  0  0  0  0  0  0  0  0
   13.8544  -16.9452   25.4510 O   0  0  0  0  0  0  0  0  0  0  0  0
   12.5348  -18.4339   24.3475 O   0  0  0  0  0  0  0  0  0  0  0  0
  2  1  1  0
  3  2  2  0
  4  3  1  0
  5  4  2  0
  5 11  1  0
  6  5  1  0
  7  8  1  1
  7  6  1  0
  9  7  1  0
  9 13  1  0
 10  9  2  0
 11 12  2  0
 12  2  1  0
 14 13  1  0
 14 15  1  6
 15 16  1  0
 17 14  1  0
 18 17  2  0
 19 17  1  0
 20 27  1  0
 20 19  1  0
 21 22  1  0
 20 21  1  1
 22 26  1  0
 23 22  2  0
 23 24  1  0
 24 25  1  0
 26 25  2  0
 27 28  1  0
 29 27  2  0
M  END
$$$$
