YCH.pdb
     RDKit          3D

 29 30  0  0  1  0  0  0  0  0999 V2000
    9.3866  -14.2012   15.8020 O   0  0  0  0  0  0  0  0  0  0  0  0
    8.8747  -14.2865   17.0885 C   0  0  0  0  0  0  0  0  0  0  0  0
    7.7936  -13.5347   17.4953 C   0  0  0  0  0  0  0  0  0  0  0  0
    7.3064  -13.6465   18.7957 C   0  0  0  0  0  0  0  0  0  0  0  0
    7.8863  -14.5052   19.7064 C   0  0  0  0  0  0  0  0  0  0  0  0
    7.3126  -14.5678   21.0665 C   0  0  0  0  0  0  0  0  0  0  0  0
    6.8685  -15.9795   21.4248 C   0  0  2  0  0  0  0  0  0  0  0  0
    5.5308  -16.2485   20.9363 N   0  0  0  0  0  0  0  0  0  0  0  0
    6.9304  -16.0717   22.9078 C   0  0  0  0  0  0  0  0  0  0  0  0
    5.8413  -16.0117   23.5337 O   0  0  0  0  0  0  0  0  0  0  0  0
    8.9547  -15.2527   19.3154 C   0  0  0  0  0  0  0  0  0  0  0  0
    9.4424  -15.1406   18.0134 C   0  0  0  0  0  0  0  0  0  0  0  0
    8.1183  -16.2203   23.6507 N   0  0  0  0  0  0  0  0  0  0  0  0
    8.1751  -16.3038   25.0879 C   0  0  1  0  0  0  0  0  0  0  0  0
    7.4240  -17.5542   25.5633 C   0  0  0  0  0  0  0  0  0  0  0  0
    8.2421  -19.0447   24.9324 S   0  0  0  0  0  0  0  0  0  0  0  0
    9.5732  -16.3132   25.5808 C   0  0  0  0  0  0  0  0  0  0  0  0
   10.3258  -17.2287   25.1675 O   0  0  0  0  0  0  0  0  0  0  0  0
   10.0601  -15.3325   26.4860 N   0  0  0  0  0  0  0  0  0  0  0  0
   10.1028  -15.4607   27.9058 C   0  0  1  0  0  0  0  0  0  0  0  0
    8.8196  -15.0825   28.6264 C   0  0  0  0  0  0  0  0  0  0  0  0
    8.0950  -13.9876   27.9791 C   0  0  0  0  0  0  0  0  0  0  0  0
    8.4818  -13.1402   26.9862 C   0  0  0  0  0  0  0  0  0  0  0  0
    7.4668  -12.2791   26.6943 N   0  0  0  0  0  0  0  0  0  0  0  0
    6.4453  -12.5891   27.5053 C   0  0  0  0  0  0  0  0  0  0  0  0
    6.8103  -13.6124   28.2805 N   0  0  0  0  0  0  0  0  0  0  0  0
   10.6591  -16.7181   28.4173 C   0  0  0  0  0  0  0  0  0  0  0  0
   10.1033  -17.9594   28.2076 O   0  0  0  0  0  0  0  0  0  0  0  0
   11.7300  -16.6435   29.1010 O   0  0  0  0  0  0  0  0  0  0  0  0
  2  1  1  0
  3  2  2  0
  4  3  1  0
  5  4  2  0
  5 11  1  0
  6  5  1  0
  7  8  1  1
  7  6  1  0
  9  7  1  0
  9 13  1  0
 10  9  2  0
 11 12  2  0
 12  2  1  0
 14 13  1  0
 14 15  1  6
 15 16  1  0
 17 14  1  0
 18 17  2  0
 19 17  1  0
 20 27  1  0
 20 19  1  0
 21 22  1  0
 20 21  1  6
 22 26  1  0
 23 22  2  0
 23 24  1  0
 24 25  1  0
 26 25  2  0
 27 28  1  0
 29 27  2  0
M  END
$$$$
