YCH.pdb
     RDKit          3D

 29 30  0  0  1  0  0  0  0  0999 V2000
   -0.4160  -20.3559   20.3958 O   0  0  0  0  0  0  0  0  0  0  0  0
    0.8001  -19.8908   20.8747 C   0  0  0  0  0  0  0  0  0  0  0  0
    1.4712  -18.8484   20.2728 C   0  0  0  0  0  0  0  0  0  0  0  0
    2.6909  -18.4078   20.7816 C   0  0  0  0  0  0  0  0  0  0  0  0
    3.2580  -18.9965   21.8929 C   0  0  0  0  0  0  0  0  0  0  0  0
    4.5537  -18.4732   22.3725 C   0  0  0  0  0  0  0  0  0  0  0  0
    5.5840  -18.4109   21.2530 C   0  0  2  0  0  0  0  0  0  0  0  0
    5.7148  -19.6924   20.5888 N   0  0  0  0  0  0  0  0  0  0  0  0
    6.8641  -17.9985   21.8877 C   0  0  0  0  0  0  0  0  0  0  0  0
    7.7410  -18.8863   22.0433 O   0  0  0  0  0  0  0  0  0  0  0  0
    2.6038  -20.0271   22.4955 C   0  0  0  0  0  0  0  0  0  0  0  0
    1.3826  -20.4680   21.9859 C   0  0  0  0  0  0  0  0  0  0  0  0
    7.1561  -16.6905   22.3221 N   0  0  0  0  0  0  0  0  0  0  0  0
    8.3891  -16.2989   22.9563 C   0  0  1  0  0  0  0  0  0  0  0  0
    8.3971  -14.7810   23.1781 C   0  0  0  0  0  0  0  0  0  0  0  0
    6.9314  -14.2862   24.1246 S   0  0  0  0  0  0  0  0  0  0  0  0
    8.5984  -17.0168   24.2363 C   0  0  0  0  0  0  0  0  0  0  0  0
    7.6878  -16.9415   25.0969 O   0  0  0  0  0  0  0  0  0  0  0  0
    9.7770  -17.7659   24.4967 N   0  0  0  0  0  0  0  0  0  0  0  0
   10.0941  -18.4151   25.7264 C   0  0  1  0  0  0  0  0  0  0  0  0
    9.2054  -19.5960   26.0800 C   0  0  0  0  0  0  0  0  0  0  0  0
    9.2392  -20.6640   25.0796 C   0  0  0  0  0  0  0  0  0  0  0  0
    9.1952  -20.6003   23.7203 C   0  0  0  0  0  0  0  0  0  0  0  0
    9.2636  -21.8571   23.1979 N   0  0  0  0  0  0  0  0  0  0  0  0
    9.3507  -22.7063   24.2316 C   0  0  0  0  0  0  0  0  0  0  0  0
    9.3370  -22.0023   25.3655 N   0  0  0  0  0  0  0  0  0  0  0  0
   11.5124  -18.7238   25.9388 C   0  0  0  0  0  0  0  0  0  0  0  0
   12.0297  -19.2575   27.0970 O   0  0  0  0  0  0  0  0  0  0  0  0
   12.3104  -18.4767   24.9786 O   0  0  0  0  0  0  0  0  0  0  0  0
  2  1  1  0
  3  2  2  0
  4  3  1  0
  5  4  2  0
  5 11  1  0
  6  5  1  0
  7  8  1  1
  7  6  1  0
  9  7  1  0
  9 13  1  0
 10  9  2  0
 11 12  2  0
 12  2  1  0
 14 13  1  0
 14 15  1  1
 15 16  1  0
 17 14  1  0
 18 17  2  0
 19 17  1  0
 20 27  1  0
 20 19  1  0
 21 22  1  0
 20 21  1  6
 22 26  1  0
 23 22  2  0
 23 24  1  0
 24 25  1  0
 26 25  2  0
 27 28  1  0
 29 27  2  0
M  END
$$$$
