YCH.pdb
     RDKit          3D

 29 30  0  0  1  0  0  0  0  0999 V2000
    6.7743  -10.8103   27.3291 O   0  0  0  0  0  0  0  0  0  0  0  0
    6.7388  -12.0037   26.6227 C   0  0  0  0  0  0  0  0  0  0  0  0
    5.8661  -13.0192   26.9487 C   0  0  0  0  0  0  0  0  0  0  0  0
    5.8586  -14.2044   26.2167 C   0  0  0  0  0  0  0  0  0  0  0  0
    6.7166  -14.3950   25.1534 C   0  0  0  0  0  0  0  0  0  0  0  0
    6.6486  -15.6792   24.4261 C   0  0  0  0  0  0  0  0  0  0  0  0
    7.5077  -16.7472   25.0894 C   0  0  2  0  0  0  0  0  0  0  0  0
    8.2857  -16.1923   26.1790 N   0  0  0  0  0  0  0  0  0  0  0  0
    8.3870  -17.2959   24.0229 C   0  0  0  0  0  0  0  0  0  0  0  0
    7.8272  -17.8756   23.0576 O   0  0  0  0  0  0  0  0  0  0  0  0
    7.5830  -13.3985   24.8226 C   0  0  0  0  0  0  0  0  0  0  0  0
    7.5904  -12.2119   25.5557 C   0  0  0  0  0  0  0  0  0  0  0  0
    9.7933  -17.2095   24.0233 N   0  0  0  0  0  0  0  0  0  0  0  0
   10.5869  -16.8386   22.8793 C   0  0  1  0  0  0  0  0  0  0  0  0
    9.8728  -15.7328   22.0914 C   0  0  0  0  0  0  0  0  0  0  0  0
   10.8987  -15.2105   20.6900 S   0  0  0  0  0  0  0  0  0  0  0  0
   11.9482  -16.4050   23.2748 C   0  0  0  0  0  0  0  0  0  0  0  0
   12.8721  -16.5690   22.4413 O   0  0  0  0  0  0  0  0  0  0  0  0
   12.2157  -15.8246   24.5435 N   0  0  0  0  0  0  0  0  0  0  0  0
   12.8006  -16.4960   25.6577 C   0  0  1  0  0  0  0  0  0  0  0  0
   11.8338  -16.8574   26.7729 C   0  0  0  0  0  0  0  0  0  0  0  0
   11.0554  -15.7153   27.2549 C   0  0  0  0  0  0  0  0  0  0  0  0
   11.0894  -14.4058   26.8840 C   0  0  0  0  0  0  0  0  0  0  0  0
   10.1722  -13.6995   27.6030 N   0  0  0  0  0  0  0  0  0  0  0  0
    9.5648  -14.5686   28.4235 C   0  0  0  0  0  0  0  0  0  0  0  0
   10.0861  -15.7809   28.2237 N   0  0  0  0  0  0  0  0  0  0  0  0
   13.6932  -17.6140   25.3332 C   0  0  0  0  0  0  0  0  0  0  0  0
   13.2683  -18.8676   24.9567 O   0  0  0  0  0  0  0  0  0  0  0  0
   14.9452  -17.3981   25.4086 O   0  0  0  0  0  0  0  0  0  0  0  0
  2  1  1  0
  3  2  2  0
  4  3  1  0
  5  4  2  0
  5 11  1  0
  6  5  1  0
  7  8  1  1
  7  6  1  0
  9  7  1  0
  9 13  1  0
 10  9  2  0
 11 12  2  0
 12  2  1  0
 14 13  1  0
 14 15  1  1
 15 16  1  0
 17 14  1  0
 18 17  2  0
 19 17  1  0
 20 27  1  0
 20 19  1  0
 21 22  1  0
 20 21  1  1
 22 26  1  0
 23 22  2  0
 23 24  1  0
 24 25  1  0
 26 25  2  0
 27 28  1  0
 29 27  2  0
M  END
$$$$
