YCH.pdb
     RDKit          3D

 29 30  0  0  1  0  0  0  0  0999 V2000
    8.2089  -14.5986   11.5861 O   0  0  0  0  0  0  0  0  0  0  0  0
    8.4697  -14.8103   12.9321 C   0  0  0  0  0  0  0  0  0  0  0  0
    7.7053  -14.2335   13.9233 C   0  0  0  0  0  0  0  0  0  0  0  0
    7.9968  -14.4687   15.2651 C   0  0  0  0  0  0  0  0  0  0  0  0
    9.0495  -15.2784   15.6381 C   0  0  0  0  0  0  0  0  0  0  0  0
    9.2953  -15.4794   17.0811 C   0  0  0  0  0  0  0  0  0  0  0  0
    9.1750  -16.9459   17.4728 C   0  0  2  0  0  0  0  0  0  0  0  0
    7.8064  -17.4087   17.3588 N   0  0  0  0  0  0  0  0  0  0  0  0
    9.6631  -17.0439   18.8742 C   0  0  0  0  0  0  0  0  0  0  0  0
    9.0057  -16.4344   19.7561 O   0  0  0  0  0  0  0  0  0  0  0  0
    9.8112  -15.8533   14.6673 C   0  0  0  0  0  0  0  0  0  0  0  0
    9.5193  -15.6178   13.3239 C   0  0  0  0  0  0  0  0  0  0  0  0
   10.8032  -17.7681   19.2749 N   0  0  0  0  0  0  0  0  0  0  0  0
   11.2769  -17.8558   20.6327 C   0  0  1  0  0  0  0  0  0  0  0  0
   10.7152  -19.1202   21.2956 C   0  0  0  0  0  0  0  0  0  0  0  0
   10.9939  -20.5566   20.2240 S   0  0  0  0  0  0  0  0  0  0  0  0
   12.7579  -17.8437   20.6977 C   0  0  0  0  0  0  0  0  0  0  0  0
   13.3851  -18.0367   19.6279 O   0  0  0  0  0  0  0  0  0  0  0  0
   13.4574  -17.6237   21.9145 N   0  0  0  0  0  0  0  0  0  0  0  0
   14.1877  -16.4460   22.2517 C   0  0  1  0  0  0  0  0  0  0  0  0
   13.5297  -15.1394   21.8411 C   0  0  0  0  0  0  0  0  0  0  0  0
   13.8800  -14.7180   20.4837 C   0  0  0  0  0  0  0  0  0  0  0  0
   14.6578  -15.3248   19.5455 C   0  0  0  0  0  0  0  0  0  0  0  0
   14.6937  -14.5646   18.4151 N   0  0  0  0  0  0  0  0  0  0  0  0
   13.9374  -13.4822   18.6475 C   0  0  0  0  0  0  0  0  0  0  0  0
   13.4440  -13.5631   19.8849 N   0  0  0  0  0  0  0  0  0  0  0  0
   14.7016  -16.3840   23.6244 C   0  0  0  0  0  0  0  0  0  0  0  0
   15.8913  -15.7946   23.9861 O   0  0  0  0  0  0  0  0  0  0  0  0
   13.9893  -16.9154   24.5355 O   0  0  0  0  0  0  0  0  0  0  0  0
  2  1  1  0
  3  2  2  0
  4  3  1  0
  5  4  2  0
  5 11  1  0
  6  5  1  0
  7  8  1  1
  7  6  1  0
  9  7  1  0
  9 13  1  0
 10  9  2  0
 11 12  2  0
 12  2  1  0
 14 13  1  0
 14 15  1  6
 15 16  1  0
 17 14  1  0
 18 17  2  0
 19 17  1  0
 20 27  1  0
 20 19  1  0
 21 22  1  0
 20 21  1  1
 22 26  1  0
 23 22  2  0
 23 24  1  0
 24 25  1  0
 26 25  2  0
 27 28  1  0
 29 27  2  0
M  END
$$$$
