YCH.pdb
     RDKit          3D

 29 30  0  0  1  0  0  0  0  0999 V2000
    8.8164  -10.9438   20.0860 O   0  0  0  0  0  0  0  0  0  0  0  0
    8.3772  -12.1729   19.6162 C   0  0  0  0  0  0  0  0  0  0  0  0
    7.6646  -13.0456   20.4099 C   0  0  0  0  0  0  0  0  0  0  0  0
    7.2396  -14.2720   19.9040 C   0  0  0  0  0  0  0  0  0  0  0  0
    7.5168  -14.6460   18.6054 C   0  0  0  0  0  0  0  0  0  0  0  0
    7.0321  -15.9625   18.1420 C   0  0  0  0  0  0  0  0  0  0  0  0
    8.1074  -17.0333   18.2674 C   0  0  2  0  0  0  0  0  0  0  0  0
    7.6190  -18.3220   17.8187 N   0  0  0  0  0  0  0  0  0  0  0  0
    8.4914  -17.0717   19.7036 C   0  0  0  0  0  0  0  0  0  0  0  0
    7.5661  -16.9711   20.5492 O   0  0  0  0  0  0  0  0  0  0  0  0
    8.2200  -13.7917   17.8124 C   0  0  0  0  0  0  0  0  0  0  0  0
    8.6455  -12.5638   18.3191 C   0  0  0  0  0  0  0  0  0  0  0  0
    9.8118  -17.2120   20.1745 N   0  0  0  0  0  0  0  0  0  0  0  0
   10.1708  -17.3536   21.5626 C   0  0  1  0  0  0  0  0  0  0  0  0
    9.4320  -18.5543   22.1678 C   0  0  0  0  0  0  0  0  0  0  0  0
    9.8854  -18.7441   23.9135 S   0  0  0  0  0  0  0  0  0  0  0  0
   11.6359  -17.4974   21.7373 C   0  0  0  0  0  0  0  0  0  0  0  0
   12.2296  -18.3145   20.9920 O   0  0  0  0  0  0  0  0  0  0  0  0
   12.3570  -16.7481   22.7051 N   0  0  0  0  0  0  0  0  0  0  0  0
   13.7386  -16.4027   22.6279 C   0  0  1  0  0  0  0  0  0  0  0  0
   14.0263  -15.0109   22.0902 C   0  0  0  0  0  0  0  0  0  0  0  0
   13.9890  -14.9374   20.6287 C   0  0  0  0  0  0  0  0  0  0  0  0
   13.8186  -15.9189   19.7008 C   0  0  0  0  0  0  0  0  0  0  0  0
   13.8451  -15.3795   18.4496 N   0  0  0  0  0  0  0  0  0  0  0  0
   14.0319  -14.0601   18.5963 C   0  0  0  0  0  0  0  0  0  0  0  0
   14.1197  -13.7830   19.8989 N   0  0  0  0  0  0  0  0  0  0  0  0
   14.5383  -16.6965   23.8221 C   0  0  0  0  0  0  0  0  0  0  0  0
   15.9126  -16.6464   23.8724 O   0  0  0  0  0  0  0  0  0  0  0  0
   13.9066  -17.0188   24.8790 O   0  0  0  0  0  0  0  0  0  0  0  0
  2  1  1  0
  3  2  2  0
  4  3  1  0
  5  4  2  0
  5 11  1  0
  6  5  1  0
  7  8  1  1
  7  6  1  0
  9  7  1  0
  9 13  1  0
 10  9  2  0
 11 12  2  0
 12  2  1  0
 14 13  1  0
 14 15  1  6
 15 16  1  0
 17 14  1  0
 18 17  2  0
 19 17  1  0
 20 27  1  0
 20 19  1  0
 21 22  1  0
 20 21  1  1
 22 26  1  0
 23 22  2  0
 23 24  1  0
 24 25  1  0
 26 25  2  0
 27 28  1  0
 29 27  2  0
M  END
$$$$
