YCH.pdb
     RDKit          3D

 29 30  0  0  1  0  0  0  0  0999 V2000
    8.3476  -12.4590   16.6909 O   0  0  0  0  0  0  0  0  0  0  0  0
    7.9308  -13.1349   17.8284 C   0  0  0  0  0  0  0  0  0  0  0  0
    7.1043  -14.2357   17.7618 C   0  0  0  0  0  0  0  0  0  0  0  0
    6.7059  -14.8896   18.9256 C   0  0  0  0  0  0  0  0  0  0  0  0
    7.1231  -14.4587   20.1679 C   0  0  0  0  0  0  0  0  0  0  0  0
    6.6579  -15.2046   21.3554 C   0  0  0  0  0  0  0  0  0  0  0  0
    7.3767  -16.5394   21.4979 C   0  0  2  0  0  0  0  0  0  0  0  0
    6.8798  -17.5075   20.5406 N   0  0  0  0  0  0  0  0  0  0  0  0
    7.1415  -16.9918   22.8949 C   0  0  0  0  0  0  0  0  0  0  0  0
    6.0499  -17.5674   23.1369 O   0  0  0  0  0  0  0  0  0  0  0  0
    7.9397  -13.3723   20.2455 C   0  0  0  0  0  0  0  0  0  0  0  0
    8.3385  -12.7177   19.0802 C   0  0  0  0  0  0  0  0  0  0  0  0
    8.0532  -16.8195   23.9552 N   0  0  0  0  0  0  0  0  0  0  0  0
    7.8297  -17.2750   25.3037 C   0  0  1  0  0  0  0  0  0  0  0  0
    7.7776  -18.8080   25.3296 C   0  0  0  0  0  0  0  0  0  0  0  0
    7.7656  -19.3978   27.0446 S   0  0  0  0  0  0  0  0  0  0  0  0
    8.8699  -16.7701   26.2315 C   0  0  0  0  0  0  0  0  0  0  0  0
   10.0317  -17.2266   26.1011 O   0  0  0  0  0  0  0  0  0  0  0  0
    8.5816  -15.8071   27.2353 N   0  0  0  0  0  0  0  0  0  0  0  0
    9.5459  -15.1339   28.0422 C   0  0  1  0  0  0  0  0  0  0  0  0
    9.2261  -13.6812   28.3523 C   0  0  0  0  0  0  0  0  0  0  0  0
    8.4546  -13.0218   27.2974 C   0  0  0  0  0  0  0  0  0  0  0  0
    8.6234  -13.0288   25.9465 C   0  0  0  0  0  0  0  0  0  0  0  0
    7.6530  -12.2751   25.3572 N   0  0  0  0  0  0  0  0  0  0  0  0
    6.8774  -11.7973   26.3407 C   0  0  0  0  0  0  0  0  0  0  0  0
    7.3483  -12.2385   27.5090 N   0  0  0  0  0  0  0  0  0  0  0  0
    9.9938  -15.8556   29.2383 C   0  0  0  0  0  0  0  0  0  0  0  0
   10.9623  -15.4035   30.1052 O   0  0  0  0  0  0  0  0  0  0  0  0
    9.4415  -16.9763   29.4810 O   0  0  0  0  0  0  0  0  0  0  0  0
  2  1  1  0
  3  2  2  0
  4  3  1  0
  5  4  2  0
  5 11  1  0
  6  5  1  0
  7  8  1  6
  7  6  1  0
  9  7  1  0
  9 13  1  0
 10  9  2  0
 11 12  2  0
 12  2  1  0
 14 13  1  0
 14 15  1  6
 15 16  1  0
 17 14  1  0
 18 17  2  0
 19 17  1  0
 20 27  1  0
 20 19  1  0
 21 22  1  0
 20 21  1  1
 22 26  1  0
 23 22  2  0
 23 24  1  0
 24 25  1  0
 26 25  2  0
 27 28  1  0
 29 27  2  0
M  END
$$$$
