QFL.pdb
     RDKit          3D

 29 29  0  0  1  0  0  0  0  0999 V2000
   11.8636  -21.5400   21.4981 N   0  0  0  0  0  0  0  0  0  0  0  0
   12.6485  -20.5392   20.8395 C   0  0  0  0  0  0  0  0  0  0  0  0
   13.9006  -20.7379   20.7293 O   0  0  0  0  0  0  0  0  0  0  0  0
   11.9999  -19.3143   20.3089 C   0  0  0  0  0  0  0  0  0  0  0  0
   10.5392  -19.3464   20.6439 C   0  0  0  0  0  0  0  0  0  0  0  0
    9.8475  -18.1176   20.1141 C   0  0  2  0  0  0  0  0  0  0  0  0
   10.4645  -17.5927   18.9195 N   0  0  0  0  0  0  0  0  0  0  0  0
    9.8061  -17.0527   21.1463 C   0  0  0  0  0  0  0  0  0  0  0  0
   10.7131  -16.1857   21.2112 O   0  0  0  0  0  0  0  0  0  0  0  0
    8.7582  -16.9560   22.1008 N   0  0  0  0  0  0  0  0  0  0  0  0
    8.7056  -15.9079   23.1198 C   0  0  1  0  0  0  0  0  0  0  0  0
    7.3221  -15.3536   23.1926 C   0  0  0  0  0  0  0  0  0  0  0  0
    7.1730  -14.2221   24.1396 C   0  0  0  0  0  0  0  0  0  0  0  0
    6.5306  -14.3869   25.3724 C   0  0  0  0  0  0  0  0  0  0  0  0
    6.3878  -13.3465   26.2620 C   0  0  0  0  0  0  0  0  0  0  0  0
    6.8759  -12.0919   25.9706 C   0  0  0  0  0  0  0  0  0  0  0  0
    7.5094  -11.9064   24.7681 C   0  0  0  0  0  0  0  0  0  0  0  0
    7.6413  -12.9501   23.8993 C   0  0  0  0  0  0  0  0  0  0  0  0
    9.2911  -16.3590   24.3783 C   0  0  0  0  0  0  0  0  0  0  0  0
    8.7469  -17.3224   24.9766 O   0  0  0  0  0  0  0  0  0  0  0  0
   11.1003  -14.2829   28.9585 C   0  0  0  0  0  0  0  0  0  0  0  0
    9.7166  -14.8056   28.5899 C   0  0  1  0  0  0  0  0  0  0  0  0
    8.7159  -13.7908   29.1148 C   0  0  0  0  0  0  0  0  0  0  0  0
    9.6343  -14.7677   27.0792 C   0  0  0  0  0  0  0  0  0  0  0  0
   10.5604  -15.7482   26.4187 C   0  0  2  0  0  0  0  0  0  0  0  0
   10.4376  -15.7958   24.9931 N   0  0  0  0  0  0  0  0  0  0  0  0
   10.3210  -17.0762   27.0515 C   0  0  0  0  0  0  0  0  0  0  0  0
    9.1845  -17.4804   27.3775 O   0  0  0  0  0  0  0  0  0  0  0  0
   11.4126  -17.8832   27.2808 O   0  0  0  0  0  0  0  0  0  0  0  0
  2  1  1  0
  2  3  2  0
  4  2  1  0
  5  4  1  0
  6  7  1  6
  6  5  1  0
  8  6  1  0
  8 10  1  0
  9  8  2  0
 11 10  1  0
 12 13  1  0
 11 12  1  1
 13 18  2  0
 14 13  1  0
 14 15  2  0
 15 16  1  0
 16 17  2  0
 18 17  1  0
 19 11  1  0
 20 19  2  0
 22 21  1  6
 22 24  1  0
 23 22  1  0
 25 24  1  1
 25 26  1  0
 25 27  1  0
 26 19  1  0
 27 29  1  0
 28 27  2  0
M  END
$$$$
