QFL.pdb
     RDKit          3D

 29 29  0  0  1  0  0  0  0  0999 V2000
   13.2030  -20.7316   22.1336 N   0  0  0  0  0  0  0  0  0  0  0  0
   12.8796  -20.7712   20.7389 C   0  0  0  0  0  0  0  0  0  0  0  0
   13.2163  -21.8040   20.0761 O   0  0  0  0  0  0  0  0  0  0  0  0
   12.1723  -19.6302   20.1060 C   0  0  0  0  0  0  0  0  0  0  0  0
   11.8700  -18.5982   21.1503 C   0  0  0  0  0  0  0  0  0  0  0  0
   11.0756  -17.4633   20.5586 C   0  0  2  0  0  0  0  0  0  0  0  0
   11.7967  -16.7408   19.5381 N   0  0  0  0  0  0  0  0  0  0  0  0
   10.6500  -16.5136   21.6159 C   0  0  0  0  0  0  0  0  0  0  0  0
   11.4065  -15.5800   21.9829 O   0  0  0  0  0  0  0  0  0  0  0  0
    9.3871  -16.6053   22.2601 N   0  0  0  0  0  0  0  0  0  0  0  0
    9.0148  -15.7702   23.4019 C   0  0  1  0  0  0  0  0  0  0  0  0
    7.6101  -15.2955   23.2343 C   0  0  0  0  0  0  0  0  0  0  0  0
    7.1706  -14.3291   24.2698 C   0  0  0  0  0  0  0  0  0  0  0  0
    6.3761  -14.7328   25.3492 C   0  0  0  0  0  0  0  0  0  0  0  0
    5.9636  -13.8474   26.3188 C   0  0  0  0  0  0  0  0  0  0  0  0
    6.3201  -12.5180   26.2635 C   0  0  0  0  0  0  0  0  0  0  0  0
    7.0986  -12.0991   25.2147 C   0  0  0  0  0  0  0  0  0  0  0  0
    7.4976  -12.9919   24.2632 C   0  0  0  0  0  0  0  0  0  0  0  0
    9.3317  -16.4258   24.6667 C   0  0  0  0  0  0  0  0  0  0  0  0
    9.3509  -17.6832   24.6973 O   0  0  0  0  0  0  0  0  0  0  0  0
   10.5950  -13.4097   29.2175 C   0  0  0  0  0  0  0  0  0  0  0  0
   10.3917  -14.1441   27.8973 C   0  0  1  0  0  0  0  0  0  0  0  0
   11.6521  -13.9226   27.0794 C   0  0  0  0  0  0  0  0  0  0  0  0
   10.3355  -15.6187   28.2332 C   0  0  0  0  0  0  0  0  0  0  0  0
   10.0691  -16.4817   27.0333 C   0  0  2  0  0  0  0  0  0  0  0  0
    9.6240  -15.7567   25.8819 N   0  0  0  0  0  0  0  0  0  0  0  0
    9.0967  -17.5309   27.4516 C   0  0  0  0  0  0  0  0  0  0  0  0
    7.9427  -17.6168   26.9803 O   0  0  0  0  0  0  0  0  0  0  0  0
    9.5039  -18.4398   28.4021 O   0  0  0  0  0  0  0  0  0  0  0  0
  2  1  1  0
  2  3  2  0
  4  2  1  0
  5  4  1  0
  6  7  1  6
  6  5  1  0
  8  6  1  0
  8 10  1  0
  9  8  2  0
 11 10  1  0
 12 13  1  0
 11 12  1  1
 13 18  2  0
 14 13  1  0
 14 15  2  0
 15 16  1  0
 16 17  2  0
 18 17  1  0
 19 11  1  0
 20 19  2  0
 22 21  1  1
 22 24  1  0
 23 22  1  0
 25 24  1  1
 25 26  1  0
 25 27  1  0
 26 19  1  0
 27 29  1  0
 28 27  2  0
M  END
$$$$
