QFL.pdb
     RDKit          3D

 29 29  0  0  1  0  0  0  0  0999 V2000
    9.1338  -13.1251   17.9789 N   0  0  0  0  0  0  0  0  0  0  0  0
    8.5406  -14.3363   17.4969 C   0  0  0  0  0  0  0  0  0  0  0  0
    7.4971  -14.2448   16.7742 O   0  0  0  0  0  0  0  0  0  0  0  0
    9.1417  -15.6486   17.8423 C   0  0  0  0  0  0  0  0  0  0  0  0
   10.3610  -15.4248   18.6850 C   0  0  0  0  0  0  0  0  0  0  0  0
   10.3787  -16.3754   19.8534 C   0  0  2  0  0  0  0  0  0  0  0  0
    9.4339  -17.4579   19.7154 N   0  0  0  0  0  0  0  0  0  0  0  0
   10.1073  -15.6538   21.1210 C   0  0  0  0  0  0  0  0  0  0  0  0
   10.7535  -14.6191   21.4219 O   0  0  0  0  0  0  0  0  0  0  0  0
    9.1202  -16.0845   22.0476 N   0  0  0  0  0  0  0  0  0  0  0  0
    8.8773  -15.4083   23.3217 C   0  0  1  0  0  0  0  0  0  0  0  0
    7.4235  -15.0980   23.4512 C   0  0  0  0  0  0  0  0  0  0  0  0
    7.1065  -14.1208   24.5208 C   0  0  0  0  0  0  0  0  0  0  0  0
    6.4194  -14.5076   25.6773 C   0  0  0  0  0  0  0  0  0  0  0  0
    6.1213  -13.6121   26.6790 C   0  0  0  0  0  0  0  0  0  0  0  0
    6.4911  -12.2889   26.5808 C   0  0  0  0  0  0  0  0  0  0  0  0
    7.1657  -11.8865   25.4562 C   0  0  0  0  0  0  0  0  0  0  0  0
    7.4521  -12.7890   24.4739 C   0  0  0  0  0  0  0  0  0  0  0  0
    9.4882  -16.1309   24.4329 C   0  0  0  0  0  0  0  0  0  0  0  0
   10.1317  -17.1813   24.1781 O   0  0  0  0  0  0  0  0  0  0  0  0
    9.7036  -13.8840   29.5565 C   0  0  0  0  0  0  0  0  0  0  0  0
    9.9784  -14.3418   28.1288 C   0  0  1  0  0  0  0  0  0  0  0  0
   11.3683  -13.8431   27.7736 C   0  0  0  0  0  0  0  0  0  0  0  0
   10.0478  -15.8531   28.1708 C   0  0  0  0  0  0  0  0  0  0  0  0
   10.1237  -16.4728   26.8049 C   0  0  2  0  0  0  0  0  0  0  0  0
    9.4171  -15.7446   25.7950 N   0  0  0  0  0  0  0  0  0  0  0  0
    9.6420  -17.8776   26.9306 C   0  0  0  0  0  0  0  0  0  0  0  0
   10.2279  -18.7395   27.6200 O   0  0  0  0  0  0  0  0  0  0  0  0
    8.4972  -18.2261   26.2498 O   0  0  0  0  0  0  0  0  0  0  0  0
  2  1  1  0
  2  3  2  0
  4  2  1  0
  5  4  1  0
  6  7  1  6
  6  5  1  0
  8  6  1  0
  8 10  1  0
  9  8  2  0
 11 10  1  0
 12 13  1  0
 11 12  1  1
 13 18  2  0
 14 13  1  0
 14 15  2  0
 15 16  1  0
 16 17  2  0
 18 17  1  0
 19 11  1  0
 20 19  2  0
 22 21  1  1
 22 24  1  0
 23 22  1  0
 25 24  1  1
 25 26  1  0
 25 27  1  0
 26 19  1  0
 27 29  1  0
 28 27  2  0
M  END
$$$$
