QFL.pdb
     RDKit          3D

 29 29  0  0  1  0  0  0  0  0999 V2000
    9.9285  -17.2931   15.9527 N   0  0  0  0  0  0  0  0  0  0  0  0
   11.1429  -17.6677   16.6133 C   0  0  0  0  0  0  0  0  0  0  0  0
   12.2446  -17.4094   16.0311 O   0  0  0  0  0  0  0  0  0  0  0  0
   11.0944  -18.3365   17.9374 C   0  0  0  0  0  0  0  0  0  0  0  0
   10.7510  -17.3238   18.9879 C   0  0  0  0  0  0  0  0  0  0  0  0
   10.6216  -17.9829   20.3362 C   0  0  2  0  0  0  0  0  0  0  0  0
    9.5629  -18.9627   20.3868 N   0  0  0  0  0  0  0  0  0  0  0  0
   10.3953  -16.9696   21.3960 C   0  0  0  0  0  0  0  0  0  0  0  0
   11.2862  -16.1318   21.6840 O   0  0  0  0  0  0  0  0  0  0  0  0
    9.1815  -16.8918   22.1302 N   0  0  0  0  0  0  0  0  0  0  0  0
    8.9663  -15.9292   23.2103 C   0  0  1  0  0  0  0  0  0  0  0  0
    7.5537  -15.4498   23.1757 C   0  0  0  0  0  0  0  0  0  0  0  0
    7.2392  -14.4202   24.1956 C   0  0  0  0  0  0  0  0  0  0  0  0
    6.5982  -14.7570   25.3936 C   0  0  0  0  0  0  0  0  0  0  0  0
    6.3030  -13.8124   26.3501 C   0  0  0  0  0  0  0  0  0  0  0  0
    6.6300  -12.4874   26.1633 C   0  0  0  0  0  0  0  0  0  0  0  0
    7.2588  -12.1335   24.9966 C   0  0  0  0  0  0  0  0  0  0  0  0
    7.5431  -13.0843   24.0603 C   0  0  0  0  0  0  0  0  0  0  0  0
    9.4447  -16.4472   24.4882 C   0  0  0  0  0  0  0  0  0  0  0  0
    9.5677  -17.6924   24.6175 O   0  0  0  0  0  0  0  0  0  0  0  0
   10.1759  -14.1305   29.7878 C   0  0  0  0  0  0  0  0  0  0  0  0
    9.7128  -14.6380   28.4271 C   0  0  1  0  0  0  0  0  0  0  0  0
    9.2630  -13.4194   27.6400 C   0  0  0  0  0  0  0  0  0  0  0  0
   10.9424  -15.1836   27.7337 C   0  0  0  0  0  0  0  0  0  0  0  0
   10.6136  -16.1790   26.6582 C   0  0  2  0  0  0  0  0  0  0  0  0
    9.7875  -15.6552   25.6129 N   0  0  0  0  0  0  0  0  0  0  0  0
    9.9996  -17.3621   27.3251 C   0  0  0  0  0  0  0  0  0  0  0  0
   10.5821  -18.0230   28.2111 O   0  0  0  0  0  0  0  0  0  0  0  0
    8.7317  -17.7311   26.9357 O   0  0  0  0  0  0  0  0  0  0  0  0
  2  1  1  0
  2  3  2  0
  4  2  1  0
  5  4  1  0
  6  7  1  6
  6  5  1  0
  8  6  1  0
  8 10  1  0
  9  8  2  0
 11 10  1  0
 12 13  1  0
 11 12  1  1
 13 18  2  0
 14 13  1  0
 14 15  2  0
 15 16  1  0
 16 17  2  0
 18 17  1  0
 19 11  1  0
 20 19  2  0
 22 21  1  1
 22 24  1  0
 23 22  1  0
 25 24  1  1
 25 26  1  0
 25 27  1  0
 26 19  1  0
 27 29  1  0
 28 27  2  0
M  END
$$$$
