QFL.pdb
     RDKit          3D

 29 29  0  0  1  0  0  0  0  0999 V2000
   10.0412  -18.0379   16.3756 N   0  0  0  0  0  0  0  0  0  0  0  0
   11.2526  -17.5711   16.9806 C   0  0  0  0  0  0  0  0  0  0  0  0
   11.8703  -16.6108   16.4186 O   0  0  0  0  0  0  0  0  0  0  0  0
   11.7544  -18.2032   18.2261 C   0  0  0  0  0  0  0  0  0  0  0  0
   11.6970  -17.2046   19.3425 C   0  0  0  0  0  0  0  0  0  0  0  0
   11.1669  -17.8450   20.5987 C   0  0  2  0  0  0  0  0  0  0  0  0
   10.0253  -18.6956   20.3609 N   0  0  0  0  0  0  0  0  0  0  0  0
   10.8020  -16.8128   21.6001 C   0  0  0  0  0  0  0  0  0  0  0  0
   11.6274  -15.9290   21.9412 O   0  0  0  0  0  0  0  0  0  0  0  0
    9.5232  -16.7673   22.2172 N   0  0  0  0  0  0  0  0  0  0  0  0
    9.2032  -15.8569   23.3165 C   0  0  1  0  0  0  0  0  0  0  0  0
    7.7999  -15.3716   23.1685 C   0  0  0  0  0  0  0  0  0  0  0  0
    7.3836  -14.3988   24.2075 C   0  0  0  0  0  0  0  0  0  0  0  0
    6.5630  -14.7829   25.2746 C   0  0  0  0  0  0  0  0  0  0  0  0
    6.1715  -13.8914   26.2473 C   0  0  0  0  0  0  0  0  0  0  0  0
    6.5757  -12.5752   26.2076 C   0  0  0  0  0  0  0  0  0  0  0  0
    7.3804  -12.1757   25.1710 C   0  0  0  0  0  0  0  0  0  0  0  0
    7.7581  -13.0741   24.2162 C   0  0  0  0  0  0  0  0  0  0  0  0
    9.5563  -16.4372   24.6083 C   0  0  0  0  0  0  0  0  0  0  0  0
    9.5166  -17.6886   24.7297 O   0  0  0  0  0  0  0  0  0  0  0  0
   10.1028  -13.7779   29.6400 C   0  0  0  0  0  0  0  0  0  0  0  0
    9.7105  -14.5044   28.3586 C   0  0  1  0  0  0  0  0  0  0  0  0
    9.6526  -13.4527   27.2643 C   0  0  0  0  0  0  0  0  0  0  0  0
   10.8603  -15.4294   28.0230 C   0  0  0  0  0  0  0  0  0  0  0  0
   10.5545  -16.3496   26.8762 C   0  0  2  0  0  0  0  0  0  0  0  0
    9.9459  -15.7001   25.7549 N   0  0  0  0  0  0  0  0  0  0  0  0
    9.7145  -17.4581   27.4120 C   0  0  0  0  0  0  0  0  0  0  0  0
    8.5433  -17.6701   27.0318 O   0  0  0  0  0  0  0  0  0  0  0  0
   10.2690  -18.2774   28.3694 O   0  0  0  0  0  0  0  0  0  0  0  0
  2  1  1  0
  2  3  2  0
  4  2  1  0
  5  4  1  0
  6  7  1  6
  6  5  1  0
  8  6  1  0
  8 10  1  0
  9  8  2  0
 11 10  1  0
 12 13  1  0
 11 12  1  1
 13 18  2  0
 14 13  1  0
 14 15  2  0
 15 16  1  0
 16 17  2  0
 18 17  1  0
 19 11  1  0
 20 19  2  0
 22 21  1  1
 22 24  1  0
 23 22  1  0
 25 24  1  1
 25 26  1  0
 25 27  1  0
 26 19  1  0
 27 29  1  0
 28 27  2  0
M  END
$$$$
