QFL.pdb
     RDKit          3D

 29 29  0  0  1  0  0  0  0  0999 V2000
    9.2966  -13.0250   16.9951 N   0  0  0  0  0  0  0  0  0  0  0  0
    8.4823  -14.1985   16.8899 C   0  0  0  0  0  0  0  0  0  0  0  0
    7.6079  -14.2388   15.9662 O   0  0  0  0  0  0  0  0  0  0  0  0
    8.6699  -15.3225   17.8408 C   0  0  0  0  0  0  0  0  0  0  0  0
    9.7541  -14.9685   18.8134 C   0  0  0  0  0  0  0  0  0  0  0  0
    9.9395  -16.0705   19.8235 C   0  0  2  0  0  0  0  0  0  0  0  0
    8.9725  -17.1330   19.6844 N   0  0  0  0  0  0  0  0  0  0  0  0
    9.8735  -15.5327   21.2047 C   0  0  0  0  0  0  0  0  0  0  0  0
   10.7017  -14.6745   21.5999 O   0  0  0  0  0  0  0  0  0  0  0  0
    8.8886  -15.9505   22.1395 N   0  0  0  0  0  0  0  0  0  0  0  0
    8.7423  -15.3458   23.4634 C   0  0  1  0  0  0  0  0  0  0  0  0
    7.2965  -15.1065   23.7443 C   0  0  0  0  0  0  0  0  0  0  0  0
    7.0444  -14.0834   24.7879 C   0  0  0  0  0  0  0  0  0  0  0  0
    7.6110  -12.8062   24.7045 C   0  0  0  0  0  0  0  0  0  0  0  0
    7.3832  -11.8462   25.6640 C   0  0  0  0  0  0  0  0  0  0  0  0
    6.5814  -12.1080   26.7531 C   0  0  0  0  0  0  0  0  0  0  0  0
    6.0151  -13.3531   26.8562 C   0  0  0  0  0  0  0  0  0  0  0  0
    6.2528  -14.2916   25.8947 C   0  0  0  0  0  0  0  0  0  0  0  0
    9.4851  -16.0917   24.4744 C   0  0  0  0  0  0  0  0  0  0  0  0
   10.3558  -16.9133   24.0881 O   0  0  0  0  0  0  0  0  0  0  0  0
    9.5753  -14.2783   29.7413 C   0  0  0  0  0  0  0  0  0  0  0  0
    9.7210  -14.6195   28.2629 C   0  0  1  0  0  0  0  0  0  0  0  0
   10.9064  -13.8213   27.7485 C   0  0  0  0  0  0  0  0  0  0  0  0
   10.1098  -16.0807   28.1981 C   0  0  0  0  0  0  0  0  0  0  0  0
   10.2083  -16.5975   26.7914 C   0  0  2  0  0  0  0  0  0  0  0  0
    9.3063  -15.9677   25.8752 N   0  0  0  0  0  0  0  0  0  0  0  0
   10.0156  -18.0743   26.8495 C   0  0  0  0  0  0  0  0  0  0  0  0
   10.7953  -18.8396   27.4558 O   0  0  0  0  0  0  0  0  0  0  0  0
    8.9234  -18.6042   26.2002 O   0  0  0  0  0  0  0  0  0  0  0  0
  2  1  1  0
  2  3  2  0
  4  2  1  0
  5  4  1  0
  6  7  1  1
  6  5  1  0
  8  6  1  0
  8 10  1  0
  9  8  2  0
 11 10  1  0
 12 13  1  0
 11 12  1  1
 13 18  2  0
 14 13  1  0
 14 15  2  0
 15 16  1  0
 16 17  2  0
 18 17  1  0
 19 11  1  0
 20 19  2  0
 22 21  1  1
 22 24  1  0
 23 22  1  0
 25 24  1  1
 25 26  1  0
 25 27  1  0
 26 19  1  0
 27 29  1  0
 28 27  2  0
M  END
$$$$
