QFL.pdb
     RDKit          3D

 29 29  0  0  1  0  0  0  0  0999 V2000
   10.9912  -22.1157   21.2571 N   0  0  0  0  0  0  0  0  0  0  0  0
   11.9540  -21.0566   21.3089 C   0  0  0  0  0  0  0  0  0  0  0  0
   13.0624  -21.2841   21.8911 O   0  0  0  0  0  0  0  0  0  0  0  0
   11.6470  -19.7407   20.6951 C   0  0  0  0  0  0  0  0  0  0  0  0
   10.5276  -19.0932   21.4531 C   0  0  0  0  0  0  0  0  0  0  0  0
   10.1455  -17.7827   20.8162 C   0  0  2  0  0  0  0  0  0  0  0  0
   11.0917  -17.3419   19.8194 N   0  0  0  0  0  0  0  0  0  0  0  0
    9.9958  -16.7237   21.8444 C   0  0  0  0  0  0  0  0  0  0  0  0
   10.9188  -15.8974   22.0542 O   0  0  0  0  0  0  0  0  0  0  0  0
    8.8226  -16.5875   22.6339 N   0  0  0  0  0  0  0  0  0  0  0  0
    8.6215  -15.4861   23.5752 C   0  0  1  0  0  0  0  0  0  0  0  0
    7.1611  -15.2997   23.8186 C   0  0  0  0  0  0  0  0  0  0  0  0
    6.8270  -14.0740   24.5837 C   0  0  0  0  0  0  0  0  0  0  0  0
    6.1598  -14.1443   25.8123 C   0  0  0  0  0  0  0  0  0  0  0  0
    5.8462  -13.0153   26.5342 C   0  0  0  0  0  0  0  0  0  0  0  0
    6.1799  -11.7617   26.0713 C   0  0  0  0  0  0  0  0  0  0  0  0
    6.8343  -11.6680   24.8693 C   0  0  0  0  0  0  0  0  0  0  0  0
    7.1366  -12.7987   24.1681 C   0  0  0  0  0  0  0  0  0  0  0  0
    9.4626  -15.6366   24.7584 C   0  0  0  0  0  0  0  0  0  0  0  0
   10.6057  -15.1116   24.7471 O   0  0  0  0  0  0  0  0  0  0  0  0
    9.8166  -13.4023   29.1170 C   0  0  0  0  0  0  0  0  0  0  0  0
   10.2507  -14.2134   27.9017 C   0  0  1  0  0  0  0  0  0  0  0  0
   11.7690  -14.1786   27.8771 C   0  0  0  0  0  0  0  0  0  0  0  0
    9.8452  -15.6453   28.1768 C   0  0  0  0  0  0  0  0  0  0  0  0
   10.0409  -16.5462   26.9913 C   0  0  2  0  0  0  0  0  0  0  0  0
    9.0961  -16.3344   25.9367 N   0  0  0  0  0  0  0  0  0  0  0  0
   10.0210  -17.9488   27.4951 C   0  0  0  0  0  0  0  0  0  0  0  0
   10.8307  -18.3792   28.3438 O   0  0  0  0  0  0  0  0  0  0  0  0
    9.0599  -18.7968   26.9924 O   0  0  0  0  0  0  0  0  0  0  0  0
  2  1  1  0
  2  3  2  0
  4  2  1  0
  5  4  1  0
  6  7  1  6
  6  5  1  0
  8  6  1  0
  8 10  1  0
  9  8  2  0
 11 10  1  0
 12 13  1  0
 11 12  1  1
 13 18  2  0
 14 13  1  0
 14 15  2  0
 15 16  1  0
 16 17  2  0
 18 17  1  0
 19 11  1  0
 20 19  2  0
 22 21  1  1
 22 24  1  0
 23 22  1  0
 25 24  1  1
 25 26  1  0
 25 27  1  0
 26 19  1  0
 27 29  1  0
 28 27  2  0
M  END
$$$$
