QFL.pdb
     RDKit          3D

 29 29  0  0  1  0  0  0  0  0999 V2000
    9.1325  -12.3680   17.9022 N   0  0  0  0  0  0  0  0  0  0  0  0
    8.8199  -13.7013   17.4826 C   0  0  0  0  0  0  0  0  0  0  0  0
    8.6645  -13.9156   16.2380 O   0  0  0  0  0  0  0  0  0  0  0  0
    8.6858  -14.7856   18.4872 C   0  0  0  0  0  0  0  0  0  0  0  0
   10.0423  -15.3482   18.7880 C   0  0  0  0  0  0  0  0  0  0  0  0
    9.9439  -16.4477   19.8129 C   0  0  2  0  0  0  0  0  0  0  0  0
    8.8109  -17.3168   19.6022 N   0  0  0  0  0  0  0  0  0  0  0  0
    9.8733  -15.8829   21.1830 C   0  0  0  0  0  0  0  0  0  0  0  0
   10.7591  -15.0949   21.5991 O   0  0  0  0  0  0  0  0  0  0  0  0
    8.8202  -16.1959   22.0837 N   0  0  0  0  0  0  0  0  0  0  0  0
    8.6604  -15.5364   23.3796 C   0  0  1  0  0  0  0  0  0  0  0  0
    7.2167  -15.2391   23.6120 C   0  0  0  0  0  0  0  0  0  0  0  0
    6.9714  -14.1969   24.6381 C   0  0  0  0  0  0  0  0  0  0  0  0
    7.3183  -12.8597   24.4122 C   0  0  0  0  0  0  0  0  0  0  0  0
    7.0937  -11.8818   25.3542 C   0  0  0  0  0  0  0  0  0  0  0  0
    6.5137  -12.1842   26.5664 C   0  0  0  0  0  0  0  0  0  0  0  0
    6.1653  -13.4883   26.8104 C   0  0  0  0  0  0  0  0  0  0  0  0
    6.3959  -14.4438   25.8641 C   0  0  0  0  0  0  0  0  0  0  0  0
    9.3510  -16.2671   24.4376 C   0  0  0  0  0  0  0  0  0  0  0  0
    9.8048  -17.4102   24.1732 O   0  0  0  0  0  0  0  0  0  0  0  0
    9.8712  -14.1181   29.5823 C   0  0  0  0  0  0  0  0  0  0  0  0
    9.7367  -14.5629   28.1305 C   0  0  1  0  0  0  0  0  0  0  0  0
   10.3275  -13.4517   27.2801 C   0  0  0  0  0  0  0  0  0  0  0  0
   10.6355  -15.7696   27.9685 C   0  0  0  0  0  0  0  0  0  0  0  0
   10.4398  -16.4721   26.6556 C   0  0  2  0  0  0  0  0  0  0  0  0
    9.5570  -15.7918   25.7571 N   0  0  0  0  0  0  0  0  0  0  0  0
    9.9796  -17.8566   26.9604 C   0  0  0  0  0  0  0  0  0  0  0  0
   10.6659  -18.6753   27.6085 O   0  0  0  0  0  0  0  0  0  0  0  0
    8.7389  -18.2356   26.4998 O   0  0  0  0  0  0  0  0  0  0  0  0
  2  1  1  0
  2  3  2  0
  4  2  1  0
  5  4  1  0
  6  7  1  6
  6  5  1  0
  8  6  1  0
  8 10  1  0
  9  8  2  0
 11 10  1  0
 12 13  1  0
 11 12  1  1
 13 18  2  0
 14 13  1  0
 14 15  2  0
 15 16  1  0
 16 17  2  0
 18 17  1  0
 19 11  1  0
 20 19  2  0
 22 21  1  1
 22 24  1  0
 23 22  1  0
 25 24  1  1
 25 26  1  0
 25 27  1  0
 26 19  1  0
 27 29  1  0
 28 27  2  0
M  END
$$$$
