QFL.pdb
     RDKit          3D

 29 29  0  0  1  0  0  0  0  0999 V2000
    9.4815  -21.4827   20.1505 N   0  0  0  0  0  0  0  0  0  0  0  0
   10.8431  -21.1734   20.4694 C   0  0  0  0  0  0  0  0  0  0  0  0
   11.4131  -21.8538   21.3812 O   0  0  0  0  0  0  0  0  0  0  0  0
   11.5491  -20.0872   19.7451 C   0  0  0  0  0  0  0  0  0  0  0  0
   11.5595  -18.8536   20.5967 C   0  0  0  0  0  0  0  0  0  0  0  0
   10.5313  -17.8660   20.1102 C   0  0  2  0  0  0  0  0  0  0  0  0
   10.8867  -17.2540   18.8522 N   0  0  0  0  0  0  0  0  0  0  0  0
   10.3063  -16.8027   21.1201 C   0  0  0  0  0  0  0  0  0  0  0  0
   11.0586  -15.7977   21.1729 O   0  0  0  0  0  0  0  0  0  0  0  0
    9.2477  -16.8606   22.0657 N   0  0  0  0  0  0  0  0  0  0  0  0
    9.0187  -15.8194   23.0672 C   0  0  1  0  0  0  0  0  0  0  0  0
    7.5606  -15.5108   23.1400 C   0  0  0  0  0  0  0  0  0  0  0  0
    7.2092  -14.4851   24.1518 C   0  0  0  0  0  0  0  0  0  0  0  0
    7.5771  -13.1448   23.9851 C   0  0  0  0  0  0  0  0  0  0  0  0
    7.2551  -12.1821   24.9144 C   0  0  0  0  0  0  0  0  0  0  0  0
    6.5521  -12.5035   26.0545 C   0  0  0  0  0  0  0  0  0  0  0  0
    6.1807  -13.8110   26.2395 C   0  0  0  0  0  0  0  0  0  0  0  0
    6.5091  -14.7512   25.3069 C   0  0  0  0  0  0  0  0  0  0  0  0
    9.6779  -16.1404   24.3292 C   0  0  0  0  0  0  0  0  0  0  0  0
    9.5423  -17.3017   24.7933 O   0  0  0  0  0  0  0  0  0  0  0  0
   10.6920  -13.5157   29.6515 C   0  0  0  0  0  0  0  0  0  0  0  0
   10.8010  -14.8069   28.8488 C   0  0  1  0  0  0  0  0  0  0  0  0
    9.6981  -15.7232   29.3497 C   0  0  0  0  0  0  0  0  0  0  0  0
   10.4636  -14.4497   27.4174 C   0  0  0  0  0  0  0  0  0  0  0  0
   10.8222  -15.5357   26.4440 C   0  0  2  0  0  0  0  0  0  0  0  0
   10.4696  -15.2420   25.0879 N   0  0  0  0  0  0  0  0  0  0  0  0
   10.1890  -16.7932   26.9332 C   0  0  0  0  0  0  0  0  0  0  0  0
    8.9604  -17.0094   26.8623 O   0  0  0  0  0  0  0  0  0  0  0  0
   11.0092  -17.7508   27.4860 O   0  0  0  0  0  0  0  0  0  0  0  0
  2  1  1  0
  2  3  2  0
  4  2  1  0
  5  4  1  0
  6  7  1  6
  6  5  1  0
  8  6  1  0
  8 10  1  0
  9  8  2  0
 11 10  1  0
 12 13  1  0
 11 12  1  1
 13 18  2  0
 14 13  1  0
 14 15  2  0
 15 16  1  0
 16 17  2  0
 18 17  1  0
 19 11  1  0
 20 19  2  0
 22 21  1  1
 22 24  1  0
 23 22  1  0
 25 24  1  1
 25 26  1  0
 25 27  1  0
 26 19  1  0
 27 29  1  0
 28 27  2  0
M  END
$$$$
