QFL.pdb
     RDKit          3D

 29 29  0  0  1  0  0  0  0  0999 V2000
   12.2102  -16.3519   16.7075 N   0  0  0  0  0  0  0  0  0  0  0  0
   12.5055  -17.7464   16.8476 C   0  0  0  0  0  0  0  0  0  0  0  0
   13.1118  -18.3282   15.8920 O   0  0  0  0  0  0  0  0  0  0  0  0
   12.1068  -18.4717   18.0796 C   0  0  0  0  0  0  0  0  0  0  0  0
   11.4825  -17.5046   19.0398 C   0  0  0  0  0  0  0  0  0  0  0  0
   11.4817  -18.0707   20.4357 C   0  0  2  0  0  0  0  0  0  0  0  0
   10.5161  -19.1282   20.6159 N   0  0  0  0  0  0  0  0  0  0  0  0
   11.2243  -17.0040   21.4343 C   0  0  0  0  0  0  0  0  0  0  0  0
   12.0863  -16.1197   21.6658 O   0  0  0  0  0  0  0  0  0  0  0  0
   10.0118  -16.9247   22.1703 N   0  0  0  0  0  0  0  0  0  0  0  0
    9.6640  -15.7770   23.0078 C   0  0  1  0  0  0  0  0  0  0  0  0
    8.2102  -15.4753   22.8600 C   0  0  0  0  0  0  0  0  0  0  0  0
    7.8967  -14.5343   21.7575 C   0  0  0  0  0  0  0  0  0  0  0  0
    8.9097  -13.8408   21.0848 C   0  0  0  0  0  0  0  0  0  0  0  0
    8.6334  -12.9670   20.0580 C   0  0  0  0  0  0  0  0  0  0  0  0
    7.3378  -12.7394   19.6493 C   0  0  0  0  0  0  0  0  0  0  0  0
    6.3283  -13.4080   20.2939 C   0  0  0  0  0  0  0  0  0  0  0  0
    6.6220  -14.2703   21.3096 C   0  0  0  0  0  0  0  0  0  0  0  0
   10.1568  -15.9442   24.3714 C   0  0  0  0  0  0  0  0  0  0  0  0
   11.3868  -16.1471   24.5394 O   0  0  0  0  0  0  0  0  0  0  0  0
    8.6876  -12.5508   27.7677 C   0  0  0  0  0  0  0  0  0  0  0  0
    9.7463  -13.4645   27.1611 C   0  0  1  0  0  0  0  0  0  0  0  0
   11.0883  -12.9760   27.6780 C   0  0  0  0  0  0  0  0  0  0  0  0
    9.5164  -14.8375   27.7549 C   0  0  0  0  0  0  0  0  0  0  0  0
    9.9488  -15.9489   26.8421 C   0  0  2  0  0  0  0  0  0  0  0  0
    9.3558  -15.8970   25.5401 N   0  0  0  0  0  0  0  0  0  0  0  0
    9.6621  -17.2324   27.5434 C   0  0  0  0  0  0  0  0  0  0  0  0
   10.1843  -17.5435   28.6350 O   0  0  0  0  0  0  0  0  0  0  0  0
    8.7788  -18.1047   26.9480 O   0  0  0  0  0  0  0  0  0  0  0  0
  2  1  1  0
  2  3  2  0
  4  2  1  0
  5  4  1  0
  6  7  1  6
  6  5  1  0
  8  6  1  0
  8 10  1  0
  9  8  2  0
 11 10  1  0
 12 13  1  0
 11 12  1  1
 13 18  2  0
 14 13  1  0
 14 15  2  0
 15 16  1  0
 16 17  2  0
 18 17  1  0
 19 11  1  0
 20 19  2  0
 22 21  1  1
 22 24  1  0
 23 22  1  0
 25 24  1  1
 25 26  1  0
 25 27  1  0
 26 19  1  0
 27 29  1  0
 28 27  2  0
M  END
$$$$
