QFL.pdb
     RDKit          3D

 29 29  0  0  1  0  0  0  0  0999 V2000
   11.7256  -20.2757   20.8542 N   0  0  0  0  0  0  0  0  0  0  0  0
   12.1820  -20.1345   19.5039 C   0  0  0  0  0  0  0  0  0  0  0  0
   12.3615  -21.1923   18.8196 O   0  0  0  0  0  0  0  0  0  0  0  0
   12.4317  -18.7846   18.9398 C   0  0  0  0  0  0  0  0  0  0  0  0
   12.1401  -17.7521   19.9867 C   0  0  0  0  0  0  0  0  0  0  0  0
   10.6541  -17.5565   20.1376 C   0  0  2  0  0  0  0  0  0  0  0  0
   10.0015  -17.2076   18.8984 N   0  0  0  0  0  0  0  0  0  0  0  0
   10.3626  -16.5117   21.1498 C   0  0  0  0  0  0  0  0  0  0  0  0
   11.0608  -15.4692   21.2160 O   0  0  0  0  0  0  0  0  0  0  0  0
    9.2979  -16.6298   22.0830 N   0  0  0  0  0  0  0  0  0  0  0  0
    8.9902  -15.5975   23.0725 C   0  0  1  0  0  0  0  0  0  0  0  0
    7.5319  -15.2846   23.0284 C   0  0  0  0  0  0  0  0  0  0  0  0
    7.1033  -14.2591   24.0103 C   0  0  0  0  0  0  0  0  0  0  0  0
    6.3553  -14.6052   25.1417 C   0  0  0  0  0  0  0  0  0  0  0  0
    5.9534  -13.6645   26.0625 C   0  0  0  0  0  0  0  0  0  0  0  0
    6.2748  -12.3344   25.9044 C   0  0  0  0  0  0  0  0  0  0  0  0
    7.0074  -11.9715   24.8029 C   0  0  0  0  0  0  0  0  0  0  0  0
    7.3966  -12.9186   23.9011 C   0  0  0  0  0  0  0  0  0  0  0  0
    9.5427  -15.9328   24.3812 C   0  0  0  0  0  0  0  0  0  0  0  0
    9.6844  -17.1480   24.6740 O   0  0  0  0  0  0  0  0  0  0  0  0
   10.5958  -13.7253   29.9988 C   0  0  0  0  0  0  0  0  0  0  0  0
   11.0179  -14.7998   29.0035 C   0  0  1  0  0  0  0  0  0  0  0  0
   10.1846  -16.0308   29.3150 C   0  0  0  0  0  0  0  0  0  0  0  0
   10.5889  -14.3090   27.6376 C   0  0  0  0  0  0  0  0  0  0  0  0
   10.4190  -15.4218   26.6436 C   0  0  2  0  0  0  0  0  0  0  0  0
    9.9388  -14.9923   25.3651 N   0  0  0  0  0  0  0  0  0  0  0  0
    9.5282  -16.4399   27.2692 C   0  0  0  0  0  0  0  0  0  0  0  0
    9.9605  -17.4549   27.8558 O   0  0  0  0  0  0  0  0  0  0  0  0
    8.1687  -16.2383   27.1886 O   0  0  0  0  0  0  0  0  0  0  0  0
  2  1  1  0
  2  3  2  0
  4  2  1  0
  5  4  1  0
  6  7  1  6
  6  5  1  0
  8  6  1  0
  8 10  1  0
  9  8  2  0
 11 10  1  0
 12 13  1  0
 11 12  1  1
 13 18  2  0
 14 13  1  0
 14 15  2  0
 15 16  1  0
 16 17  2  0
 18 17  1  0
 19 11  1  0
 20 19  2  0
 22 21  1  1
 22 24  1  0
 23 22  1  0
 25 24  1  1
 25 26  1  0
 25 27  1  0
 26 19  1  0
 27 29  1  0
 28 27  2  0
M  END
$$$$
