QFL.pdb
     RDKit          3D

 29 29  0  0  1  0  0  0  0  0999 V2000
   12.9910  -19.5475   17.7404 N   0  0  0  0  0  0  0  0  0  0  0  0
   11.9882  -18.5411   17.5586 C   0  0  0  0  0  0  0  0  0  0  0  0
   12.2430  -17.5795   16.7651 O   0  0  0  0  0  0  0  0  0  0  0  0
   10.6972  -18.6369   18.2845 C   0  0  0  0  0  0  0  0  0  0  0  0
   10.8259  -17.9498   19.6104 C   0  0  0  0  0  0  0  0  0  0  0  0
    9.4931  -17.4089   20.0578 C   0  0  2  0  0  0  0  0  0  0  0  0
    8.7351  -16.8142   18.9831 N   0  0  0  0  0  0  0  0  0  0  0  0
    9.6692  -16.4078   21.1386 C   0  0  0  0  0  0  0  0  0  0  0  0
    9.6933  -15.1789   20.8778 O   0  0  0  0  0  0  0  0  0  0  0  0
    9.8177  -16.7761   22.5026 N   0  0  0  0  0  0  0  0  0  0  0  0
    9.3052  -15.9635   23.6056 C   0  0  1  0  0  0  0  0  0  0  0  0
    7.8770  -15.6172   23.3469 C   0  0  0  0  0  0  0  0  0  0  0  0
    7.3059  -14.6458   24.3110 C   0  0  0  0  0  0  0  0  0  0  0  0
    7.5439  -13.2722   24.1849 C   0  0  0  0  0  0  0  0  0  0  0  0
    7.0179  -12.3594   25.0704 C   0  0  0  0  0  0  0  0  0  0  0  0
    6.2299  -12.7664   26.1244 C   0  0  0  0  0  0  0  0  0  0  0  0
    5.9828  -14.1080   26.2683 C   0  0  0  0  0  0  0  0  0  0  0  0
    6.5132  -14.9976   25.3801 C   0  0  0  0  0  0  0  0  0  0  0  0
    9.6013  -16.5730   24.8983 C   0  0  0  0  0  0  0  0  0  0  0  0
    9.7916  -17.8157   24.9410 O   0  0  0  0  0  0  0  0  0  0  0  0
    9.9391  -13.4561   29.5538 C   0  0  0  0  0  0  0  0  0  0  0  0
   10.0335  -14.1753   28.2131 C   0  0  1  0  0  0  0  0  0  0  0  0
   11.3321  -13.7224   27.5686 C   0  0  0  0  0  0  0  0  0  0  0  0
   10.1858  -15.6477   28.5282 C   0  0  0  0  0  0  0  0  0  0  0  0
   10.2224  -16.5080   27.2977 C   0  0  2  0  0  0  0  0  0  0  0  0
    9.6940  -15.8738   26.1280 N   0  0  0  0  0  0  0  0  0  0  0  0
    9.5099  -17.7756   27.6244 C   0  0  0  0  0  0  0  0  0  0  0  0
    8.4450  -18.1210   27.0693 O   0  0  0  0  0  0  0  0  0  0  0  0
   10.0632  -18.5930   28.5842 O   0  0  0  0  0  0  0  0  0  0  0  0
  2  1  1  0
  2  3  2  0
  4  2  1  0
  5  4  1  0
  6  7  1  6
  6  5  1  0
  8  6  1  0
  8 10  1  0
  9  8  2  0
 11 10  1  0
 12 13  1  0
 11 12  1  6
 13 18  2  0
 14 13  1  0
 14 15  2  0
 15 16  1  0
 16 17  2  0
 18 17  1  0
 19 11  1  0
 20 19  2  0
 22 21  1  1
 22 24  1  0
 23 22  1  0
 25 24  1  1
 25 26  1  0
 25 27  1  0
 26 19  1  0
 27 29  1  0
 28 27  2  0
M  END
$$$$
