QFL.pdb
     RDKit          3D

 29 29  0  0  1  0  0  0  0  0999 V2000
    9.3405  -13.5610   17.4614 N   0  0  0  0  0  0  0  0  0  0  0  0
    9.2562  -14.7755   16.7070 C   0  0  0  0  0  0  0  0  0  0  0  0
    8.5589  -14.7711   15.6425 O   0  0  0  0  0  0  0  0  0  0  0  0
    9.9691  -15.9915   17.1716 C   0  0  0  0  0  0  0  0  0  0  0  0
   10.7489  -15.6623   18.4087 C   0  0  0  0  0  0  0  0  0  0  0  0
   10.4254  -16.6347   19.5128 C   0  0  2  0  0  0  0  0  0  0  0  0
    9.2703  -17.4513   19.2259 N   0  0  0  0  0  0  0  0  0  0  0  0
   10.2074  -15.9198   20.7944 C   0  0  0  0  0  0  0  0  0  0  0  0
   11.0312  -15.0618   21.1992 O   0  0  0  0  0  0  0  0  0  0  0  0
    9.0764  -16.1611   21.6196 N   0  0  0  0  0  0  0  0  0  0  0  0
    8.8445  -15.4517   22.8776 C   0  0  1  0  0  0  0  0  0  0  0  0
    7.4047  -15.0731   22.9774 C   0  0  0  0  0  0  0  0  0  0  0  0
    7.0856  -14.2090   24.1397 C   0  0  0  0  0  0  0  0  0  0  0  0
    7.4094  -12.8472   24.1426 C   0  0  0  0  0  0  0  0  0  0  0  0
    7.1166  -12.0331   25.2129 C   0  0  0  0  0  0  0  0  0  0  0  0
    6.4880  -12.5319   26.3326 C   0  0  0  0  0  0  0  0  0  0  0  0
    6.1610  -13.8639   26.3526 C   0  0  0  0  0  0  0  0  0  0  0  0
    6.4595  -14.6550   25.2817 C   0  0  0  0  0  0  0  0  0  0  0  0
    9.4038  -16.1813   24.0112 C   0  0  0  0  0  0  0  0  0  0  0  0
    9.8325  -17.3476   23.8155 O   0  0  0  0  0  0  0  0  0  0  0  0
   10.2377  -15.1260   29.6273 C   0  0  0  0  0  0  0  0  0  0  0  0
    9.8367  -14.7614   28.2026 C   0  0  1  0  0  0  0  0  0  0  0  0
    9.8843  -13.2460   28.1131 C   0  0  0  0  0  0  0  0  0  0  0  0
   10.9308  -15.2925   27.3019 C   0  0  0  0  0  0  0  0  0  0  0  0
   10.4215  -16.2584   26.2707 C   0  0  2  0  0  0  0  0  0  0  0  0
    9.5066  -15.6806   25.3334 N   0  0  0  0  0  0  0  0  0  0  0  0
    9.8272  -17.4125   27.0029 C   0  0  0  0  0  0  0  0  0  0  0  0
    8.6029  -17.6618   27.0028 O   0  0  0  0  0  0  0  0  0  0  0  0
   10.6799  -18.2326   27.7071 O   0  0  0  0  0  0  0  0  0  0  0  0
  2  1  1  0
  2  3  2  0
  4  2  1  0
  5  4  1  0
  6  7  1  6
  6  5  1  0
  8  6  1  0
  8 10  1  0
  9  8  2  0
 11 10  1  0
 12 13  1  0
 11 12  1  1
 13 18  2  0
 14 13  1  0
 14 15  2  0
 15 16  1  0
 16 17  2  0
 18 17  1  0
 19 11  1  0
 20 19  2  0
 22 21  1  1
 22 24  1  0
 23 22  1  0
 25 24  1  1
 25 26  1  0
 25 27  1  0
 26 19  1  0
 27 29  1  0
 28 27  2  0
M  END
$$$$
