KVT.pdb
     RDKit          3D

 24 23  0  0  1  0  0  0  0  0999 V2000
    7.3889  -16.4082   19.4743 N   0  0  0  0  0  0  0  0  0  0  0  0
    7.9715  -15.3930   20.3034 C   0  0  1  0  0  0  0  0  0  0  0  0
    7.3448  -14.0691   19.9884 C   0  0  0  0  0  0  0  0  0  0  0  0
    8.0007  -13.3538   18.8529 C   0  0  0  0  0  0  0  0  0  0  0  0
    7.5993  -13.8636   17.5057 C   0  0  0  0  0  0  0  0  0  0  0  0
    8.3351  -13.1808   16.3724 C   0  0  0  0  0  0  0  0  0  0  0  0
    7.8016  -13.7636   15.1332 N   0  0  0  0  0  0  0  0  0  0  0  0
    7.6874  -15.6671   21.7684 C   0  0  0  0  0  0  0  0  0  0  0  0
    6.5066  -15.8499   22.1385 O   0  0  0  0  0  0  0  0  0  0  0  0
    9.4302  -18.4458   23.4740 C   0  0  0  0  0  0  0  0  0  0  0  0
    9.6102  -17.2503   24.4155 C   0  0  1  0  0  0  0  0  0  0  0  0
   11.0895  -16.8523   24.0820 C   0  0  0  0  0  0  0  0  0  0  0  0
    8.7327  -16.0797   24.0851 C   0  0  2  0  0  0  0  0  0  0  0  0
    8.7378  -15.7123   22.6813 N   0  0  0  0  0  0  0  0  0  0  0  0
    8.8126  -14.9044   24.9438 C   0  0  0  0  0  0  0  0  0  0  0  0
    9.8196  -14.0874   24.8498 O   0  0  0  0  0  0  0  0  0  0  0  0
    6.4043  -11.9428   25.6293 C   0  0  0  0  0  0  0  0  0  0  0  0
    6.7231  -12.6670   26.9220 C   0  0  1  0  0  0  0  0  0  0  0  0
    5.7409  -13.5999   27.1518 O   0  0  0  0  0  0  0  0  0  0  0  0
    8.1072  -13.3167   26.7754 C   0  0  2  0  0  0  0  0  0  0  0  0
    7.8779  -14.4983   25.9295 N   0  0  0  0  0  0  0  0  0  0  0  0
    8.4820  -13.7661   28.1392 C   0  0  0  0  0  0  0  0  0  0  0  0
    8.5516  -14.9908   28.4450 O   0  0  0  0  0  0  0  0  0  0  0  0
    8.7820  -12.8869   29.1733 O   0  0  0  0  0  0  0  0  0  0  0  0
  2  1  1  6
  3  2  1  0
  4  3  1  0
  5  6  1  0
  5  4  1  0
  7  6  1  0
  8 14  1  0
  8  2  1  0
  9  8  2  0
 11 10  1  6
 11 12  1  0
 13 14  1  6
 13 11  1  0
 15 13  1  0
 16 15  2  0
 18 17  1  6
 18 19  1  0
 18 20  1  0
 20 22  1  0
 20 21  1  6
 21 15  1  0
 22 24  1  0
 23 22  2  0
M  END
$$$$
