KVT.pdb
     RDKit          3D

 24 23  0  0  1  0  0  0  0  0999 V2000
    8.0579  -14.0351   20.6813 N   0  0  0  0  0  0  0  0  0  0  0  0
    7.2794  -14.3984   21.8300 C   0  0  1  0  0  0  0  0  0  0  0  0
    6.8652  -15.8340   21.7201 C   0  0  0  0  0  0  0  0  0  0  0  0
    7.8477  -16.6834   20.9823 C   0  0  0  0  0  0  0  0  0  0  0  0
    7.3586  -18.0689   20.7038 C   0  0  0  0  0  0  0  0  0  0  0  0
    8.3579  -18.9041   19.9321 C   0  0  0  0  0  0  0  0  0  0  0  0
    7.7191  -20.2112   19.7242 N   0  0  0  0  0  0  0  0  0  0  0  0
    8.1057  -14.2836   23.0973 C   0  0  0  0  0  0  0  0  0  0  0  0
    9.3403  -14.4763   23.0419 O   0  0  0  0  0  0  0  0  0  0  0  0
    7.2142  -11.4559   25.8577 C   0  0  0  0  0  0  0  0  0  0  0  0
    7.3583  -12.8379   26.5037 C   0  0  1  0  0  0  0  0  0  0  0  0
    5.8505  -13.2525   26.6157 C   0  0  0  0  0  0  0  0  0  0  0  0
    8.0497  -13.8456   25.6340 C   0  0  2  0  0  0  0  0  0  0  0  0
    7.4851  -13.9666   24.3028 N   0  0  0  0  0  0  0  0  0  0  0  0
    8.3456  -15.1523   26.2083 C   0  0  0  0  0  0  0  0  0  0  0  0
    7.3875  -15.9971   26.4511 O   0  0  0  0  0  0  0  0  0  0  0  0
   10.3097  -17.8817   24.8544 C   0  0  0  0  0  0  0  0  0  0  0  0
   10.8779  -17.6646   26.2426 C   0  0  1  0  0  0  0  0  0  0  0  0
   11.9886  -16.8626   26.1376 O   0  0  0  0  0  0  0  0  0  0  0  0
    9.7857  -17.0199   27.1091 C   0  0  2  0  0  0  0  0  0  0  0  0
    9.6201  -15.6666   26.5563 N   0  0  0  0  0  0  0  0  0  0  0  0
   10.3676  -16.9162   28.4704 C   0  0  0  0  0  0  0  0  0  0  0  0
   10.7231  -15.8080   28.9639 O   0  0  0  0  0  0  0  0  0  0  0  0
   10.5644  -18.0154   29.2983 O   0  0  0  0  0  0  0  0  0  0  0  0
  2  1  1  6
  3  2  1  0
  4  3  1  0
  5  6  1  0
  5  4  1  0
  7  6  1  0
  8 14  1  0
  8  2  1  0
  9  8  2  0
 11 10  1  6
 11 12  1  0
 13 14  1  6
 13 11  1  0
 15 13  1  0
 16 15  2  0
 18 17  1  6
 18 19  1  0
 18 20  1  0
 20 22  1  0
 20 21  1  6
 21 15  1  0
 22 24  1  0
 23 22  2  0
M  END
$$$$
