KVT.pdb
     RDKit          3D

 24 23  0  0  1  0  0  0  0  0999 V2000
    8.4011  -15.0602   20.3775 N   0  0  0  0  0  0  0  0  0  0  0  0
    7.3145  -15.0785   21.3138 C   0  0  1  0  0  0  0  0  0  0  0  0
    6.6881  -16.4394   21.3267 C   0  0  0  0  0  0  0  0  0  0  0  0
    6.5689  -17.0542   19.9707 C   0  0  0  0  0  0  0  0  0  0  0  0
    5.9150  -18.3990   19.9728 C   0  0  0  0  0  0  0  0  0  0  0  0
    5.6692  -18.9385   18.5798 C   0  0  0  0  0  0  0  0  0  0  0  0
    5.0456  -20.2570   18.7598 N   0  0  0  0  0  0  0  0  0  0  0  0
    7.8148  -14.8205   22.7227 C   0  0  0  0  0  0  0  0  0  0  0  0
    8.9890  -15.1314   23.0213 O   0  0  0  0  0  0  0  0  0  0  0  0
    6.8188  -12.4025   27.0270 C   0  0  0  0  0  0  0  0  0  0  0  0
    6.3922  -12.8381   25.6213 C   0  0  1  0  0  0  0  0  0  0  0  0
    6.7804  -11.5588   24.8024 C   0  0  0  0  0  0  0  0  0  0  0  0
    7.1825  -13.9909   25.0768 C   0  0  2  0  0  0  0  0  0  0  0  0
    6.9668  -14.2432   23.6642 N   0  0  0  0  0  0  0  0  0  0  0  0
    7.1957  -15.2305   25.8438 C   0  0  0  0  0  0  0  0  0  0  0  0
    6.0976  -15.6966   26.3609 O   0  0  0  0  0  0  0  0  0  0  0  0
    7.2734  -18.4051   24.8360 C   0  0  0  0  0  0  0  0  0  0  0  0
    8.4315  -18.4166   25.8136 C   0  0  1  0  0  0  0  0  0  0  0  0
    9.5942  -18.2024   25.1133 O   0  0  0  0  0  0  0  0  0  0  0  0
    8.1828  -17.3201   26.8599 C   0  0  2  0  0  0  0  0  0  0  0  0
    8.3147  -16.0572   26.1168 N   0  0  0  0  0  0  0  0  0  0  0  0
    9.3044  -17.4300   27.8255 C   0  0  0  0  0  0  0  0  0  0  0  0
    9.4193  -18.4157   28.6087 O   0  0  0  0  0  0  0  0  0  0  0  0
   10.3032  -16.4703   27.9425 O   0  0  0  0  0  0  0  0  0  0  0  0
  2  1  1  6
  3  2  1  0
  4  3  1  0
  5  6  1  0
  5  4  1  0
  7  6  1  0
  8 14  1  0
  8  2  1  0
  9  8  2  0
 11 10  1  1
 11 12  1  0
 13 14  1  6
 13 11  1  0
 15 13  1  0
 16 15  2  0
 18 17  1  6
 18 19  1  0
 18 20  1  0
 20 22  1  0
 20 21  1  6
 21 15  1  0
 22 24  1  0
 23 22  2  0
M  END
$$$$
