KVT.pdb
     RDKit          3D

 24 23  0  0  1  0  0  0  0  0999 V2000
    7.5888  -13.6083   20.2934 N   0  0  0  0  0  0  0  0  0  0  0  0
    7.0223  -14.4842   21.2781 C   0  0  1  0  0  0  0  0  0  0  0  0
    7.2060  -15.9072   20.8468 C   0  0  0  0  0  0  0  0  0  0  0  0
    6.5811  -16.8971   21.7747 C   0  0  0  0  0  0  0  0  0  0  0  0
    5.4738  -17.6890   21.1559 C   0  0  0  0  0  0  0  0  0  0  0  0
    4.8576  -18.6890   22.1110 C   0  0  0  0  0  0  0  0  0  0  0  0
    3.6799  -19.2351   21.4221 N   0  0  0  0  0  0  0  0  0  0  0  0
    7.7435  -14.3390   22.6050 C   0  0  0  0  0  0  0  0  0  0  0  0
    8.9911  -14.4243   22.6355 O   0  0  0  0  0  0  0  0  0  0  0  0
    7.2128  -12.8719   27.4006 C   0  0  0  0  0  0  0  0  0  0  0  0
    6.6445  -13.0908   25.9945 C   0  0  1  0  0  0  0  0  0  0  0  0
    6.7836  -11.6433   25.4085 C   0  0  0  0  0  0  0  0  0  0  0  0
    7.4668  -14.0130   25.1441 C   0  0  2  0  0  0  0  0  0  0  0  0
    7.0138  -14.1135   23.7692 N   0  0  0  0  0  0  0  0  0  0  0  0
    7.8072  -15.3210   25.6901 C   0  0  0  0  0  0  0  0  0  0  0  0
    6.8709  -16.1567   26.0301 O   0  0  0  0  0  0  0  0  0  0  0  0
    9.6863  -18.1001   24.2461 C   0  0  0  0  0  0  0  0  0  0  0  0
   10.3422  -17.8562   25.5905 C   0  0  1  0  0  0  0  0  0  0  0  0
   11.4540  -17.0723   25.3963 O   0  0  0  0  0  0  0  0  0  0  0  0
    9.3140  -17.1750   26.5059 C   0  0  2  0  0  0  0  0  0  0  0  0
    9.1057  -15.8460   25.9105 N   0  0  0  0  0  0  0  0  0  0  0  0
    9.9923  -17.0150   27.8161 C   0  0  0  0  0  0  0  0  0  0  0  0
   10.2305  -18.0003   28.5715 O   0  0  0  0  0  0  0  0  0  0  0  0
   10.4134  -15.7851   28.3085 O   0  0  0  0  0  0  0  0  0  0  0  0
  2  1  1  6
  3  2  1  0
  4  3  1  0
  5  6  1  0
  5  4  1  0
  7  6  1  0
  8 14  1  0
  8  2  1  0
  9  8  2  0
 11 10  1  1
 11 12  1  0
 13 14  1  6
 13 11  1  0
 15 13  1  0
 16 15  2  0
 18 17  1  6
 18 19  1  0
 18 20  1  0
 20 22  1  0
 20 21  1  6
 21 15  1  0
 22 24  1  0
 23 22  2  0
M  END
$$$$
