KVT.pdb
     RDKit          3D

 24 23  0  0  1  0  0  0  0  0999 V2000
    6.4914  -17.2751   21.7509 N   0  0  0  0  0  0  0  0  0  0  0  0
    6.3375  -17.3479   23.1753 C   0  0  1  0  0  0  0  0  0  0  0  0
    6.7541  -18.7047   23.6549 C   0  0  0  0  0  0  0  0  0  0  0  0
    6.1793  -19.8242   22.8503 C   0  0  0  0  0  0  0  0  0  0  0  0
    4.8199  -20.2551   23.3002 C   0  0  0  0  0  0  0  0  0  0  0  0
    4.2772  -21.4234   22.5049 C   0  0  0  0  0  0  0  0  0  0  0  0
    2.9733  -21.7483   23.1000 N   0  0  0  0  0  0  0  0  0  0  0  0
    7.2466  -16.3484   23.8656 C   0  0  0  0  0  0  0  0  0  0  0  0
    8.3875  -16.1355   23.3992 O   0  0  0  0  0  0  0  0  0  0  0  0
    7.2981  -12.6854   27.3647 C   0  0  0  0  0  0  0  0  0  0  0  0
    6.5775  -13.6880   26.4573 C   0  0  1  0  0  0  0  0  0  0  0  0
    6.0764  -12.7284   25.3233 C   0  0  0  0  0  0  0  0  0  0  0  0
    7.4869  -14.7040   25.8324 C   0  0  2  0  0  0  0  0  0  0  0  0
    6.8044  -15.6816   25.0052 N   0  0  0  0  0  0  0  0  0  0  0  0
    8.4916  -15.3325   26.6812 C   0  0  0  0  0  0  0  0  0  0  0  0
    8.1333  -16.0581   27.6989 O   0  0  0  0  0  0  0  0  0  0  0  0
   13.1888  -16.7221   27.4967 C   0  0  0  0  0  0  0  0  0  0  0  0
   12.1853  -15.9145   26.6980 C   0  0  1  0  0  0  0  0  0  0  0  0
   12.2024  -16.3618   25.3988 O   0  0  0  0  0  0  0  0  0  0  0  0
   10.8048  -16.0933   27.3471 C   0  0  2  0  0  0  0  0  0  0  0  0
    9.9003  -15.2626   26.5371 N   0  0  0  0  0  0  0  0  0  0  0  0
   10.9221  -15.4980   28.7015 C   0  0  0  0  0  0  0  0  0  0  0  0
   10.6992  -14.2722   28.9156 O   0  0  0  0  0  0  0  0  0  0  0  0
   11.2813  -16.2324   29.8257 O   0  0  0  0  0  0  0  0  0  0  0  0
  2  1  1  6
  3  2  1  0
  4  3  1  0
  5  6  1  0
  5  4  1  0
  7  6  1  0
  8 14  1  0
  8  2  1  0
  9  8  2  0
 11 10  1  1
 11 12  1  0
 13 14  1  1
 13 11  1  0
 15 13  1  0
 16 15  2  0
 18 17  1  1
 18 19  1  0
 18 20  1  0
 20 22  1  0
 20 21  1  6
 21 15  1  0
 22 24  1  0
 23 22  2  0
M  END
$$$$
