KVT.pdb
     RDKit          3D

 24 23  0  0  1  0  0  0  0  0999 V2000
    8.8916  -16.0458   18.8242 N   0  0  0  0  0  0  0  0  0  0  0  0
    9.5636  -16.1967   20.0825 C   0  0  1  0  0  0  0  0  0  0  0  0
   10.6715  -15.1930   20.1816 C   0  0  0  0  0  0  0  0  0  0  0  0
   11.9103  -15.5981   19.4519 C   0  0  0  0  0  0  0  0  0  0  0  0
   13.0165  -14.5955   19.5376 C   0  0  0  0  0  0  0  0  0  0  0  0
   14.2413  -14.9980   18.7440 C   0  0  0  0  0  0  0  0  0  0  0  0
   15.2094  -13.9050   18.9103 N   0  0  0  0  0  0  0  0  0  0  0  0
    8.6182  -15.9107   21.2342 C   0  0  0  0  0  0  0  0  0  0  0  0
    7.7090  -15.0650   21.0835 O   0  0  0  0  0  0  0  0  0  0  0  0
    6.6740  -17.9174   25.3779 C   0  0  0  0  0  0  0  0  0  0  0  0
    7.5688  -17.9383   24.1342 C   0  0  1  0  0  0  0  0  0  0  0  0
    6.5914  -18.5928   23.0978 C   0  0  0  0  0  0  0  0  0  0  0  0
    7.9337  -16.5751   23.6259 C   0  0  2  0  0  0  0  0  0  0  0  0
    8.7710  -16.5887   22.4408 N   0  0  0  0  0  0  0  0  0  0  0  0
    8.3963  -15.5883   24.5940 C   0  0  0  0  0  0  0  0  0  0  0  0
    9.6630  -15.4742   24.8639 O   0  0  0  0  0  0  0  0  0  0  0  0
    6.7726  -11.8555   25.4392 C   0  0  0  0  0  0  0  0  0  0  0  0
    7.0477  -12.7539   26.6284 C   0  0  1  0  0  0  0  0  0  0  0  0
    5.8975  -13.4433   26.9282 O   0  0  0  0  0  0  0  0  0  0  0  0
    8.2006  -13.6980   26.2558 C   0  0  2  0  0  0  0  0  0  0  0  0
    7.6031  -14.6695   25.3266 N   0  0  0  0  0  0  0  0  0  0  0  0
    8.5653  -14.3961   27.5137 C   0  0  0  0  0  0  0  0  0  0  0  0
    8.2442  -15.5998   27.7286 O   0  0  0  0  0  0  0  0  0  0  0  0
    9.2793  -13.7888   28.5402 O   0  0  0  0  0  0  0  0  0  0  0  0
  2  1  1  6
  3  2  1  0
  4  3  1  0
  5  6  1  0
  5  4  1  0
  7  6  1  0
  8 14  1  0
  8  2  1  0
  9  8  2  0
 11 10  1  1
 11 12  1  0
 13 14  1  6
 13 11  1  0
 15 13  1  0
 16 15  2  0
 18 17  1  6
 18 19  1  0
 18 20  1  0
 20 22  1  0
 20 21  1  6
 21 15  1  0
 22 24  1  0
 23 22  2  0
M  END
$$$$
