KVT.pdb
     RDKit          3D

 24 23  0  0  1  0  0  0  0  0999 V2000
    5.9767  -15.1391   20.3641 N   0  0  0  0  0  0  0  0  0  0  0  0
    6.0329  -15.9653   21.5354 C   0  0  1  0  0  0  0  0  0  0  0  0
    6.4752  -17.3449   21.1538 C   0  0  0  0  0  0  0  0  0  0  0  0
    5.8586  -18.4207   21.9865 C   0  0  0  0  0  0  0  0  0  0  0  0
    4.4061  -18.6418   21.7082 C   0  0  0  0  0  0  0  0  0  0  0  0
    3.7918  -19.7096   22.5881 C   0  0  0  0  0  0  0  0  0  0  0  0
    2.3484  -19.6804   22.3137 N   0  0  0  0  0  0  0  0  0  0  0  0
    7.0633  -15.4377   22.5161 C   0  0  0  0  0  0  0  0  0  0  0  0
    8.1778  -15.0628   22.0897 O   0  0  0  0  0  0  0  0  0  0  0  0
    7.6787  -13.5305   27.1201 C   0  0  0  0  0  0  0  0  0  0  0  0
    6.8193  -14.0400   25.9582 C   0  0  1  0  0  0  0  0  0  0  0  0
    6.4853  -12.6855   25.2429 C   0  0  0  0  0  0  0  0  0  0  0  0
    7.5650  -14.9034   24.9845 C   0  0  2  0  0  0  0  0  0  0  0  0
    6.7599  -15.3763   23.8737 N   0  0  0  0  0  0  0  0  0  0  0  0
    8.4079  -15.9646   25.5216 C   0  0  0  0  0  0  0  0  0  0  0  0
    7.9258  -16.8215   26.3724 O   0  0  0  0  0  0  0  0  0  0  0  0
   11.2082  -17.8309   23.4065 C   0  0  0  0  0  0  0  0  0  0  0  0
   11.6999  -17.5481   24.8120 C   0  0  1  0  0  0  0  0  0  0  0  0
   12.4590  -16.4030   24.7852 O   0  0  0  0  0  0  0  0  0  0  0  0
   10.4738  -17.4013   25.7254 C   0  0  2  0  0  0  0  0  0  0  0  0
    9.7708  -16.2121   25.2194 N   0  0  0  0  0  0  0  0  0  0  0  0
   11.0160  -17.1027   27.0741 C   0  0  0  0  0  0  0  0  0  0  0  0
   10.8665  -15.9726   27.6207 O   0  0  0  0  0  0  0  0  0  0  0  0
   11.7214  -18.0303   27.8320 O   0  0  0  0  0  0  0  0  0  0  0  0
  2  1  1  6
  3  2  1  0
  4  3  1  0
  5  6  1  0
  5  4  1  0
  7  6  1  0
  8 14  1  0
  8  2  1  0
  9  8  2  0
 11 10  1  1
 11 12  1  0
 13 14  1  6
 13 11  1  0
 15 13  1  0
 16 15  2  0
 18 17  1  6
 18 19  1  0
 18 20  1  0
 20 22  1  0
 20 21  1  6
 21 15  1  0
 22 24  1  0
 23 22  2  0
M  END
$$$$
