KVT.pdb
     RDKit          3D

 24 23  0  0  1  0  0  0  0  0999 V2000
    8.2101  -14.5016   20.5570 N   0  0  0  0  0  0  0  0  0  0  0  0
    7.4415  -14.9612   21.6775 C   0  0  1  0  0  0  0  0  0  0  0  0
    7.4097  -16.4591   21.6818 C   0  0  0  0  0  0  0  0  0  0  0  0
    6.9028  -17.0487   20.4065 C   0  0  0  0  0  0  0  0  0  0  0  0
    6.8319  -18.5423   20.4181 C   0  0  0  0  0  0  0  0  0  0  0  0
    6.1570  -19.1112   19.1881 C   0  0  0  0  0  0  0  0  0  0  0  0
    6.2273  -20.5726   19.3264 N   0  0  0  0  0  0  0  0  0  0  0  0
    8.0897  -14.5397   22.9829 C   0  0  0  0  0  0  0  0  0  0  0  0
    9.3372  -14.5369   23.0734 O   0  0  0  0  0  0  0  0  0  0  0  0
    7.2479  -12.1591   27.3361 C   0  0  0  0  0  0  0  0  0  0  0  0
    6.7271  -12.7741   26.0328 C   0  0  1  0  0  0  0  0  0  0  0  0
    6.6656  -11.4966   25.1261 C   0  0  0  0  0  0  0  0  0  0  0  0
    7.6777  -13.7447   25.3971 C   0  0  2  0  0  0  0  0  0  0  0  0
    7.2939  -14.1622   24.0614 N   0  0  0  0  0  0  0  0  0  0  0  0
    8.1352  -14.8738   26.1976 C   0  0  0  0  0  0  0  0  0  0  0  0
    7.2887  -15.7624   26.6270 O   0  0  0  0  0  0  0  0  0  0  0  0
   10.5424  -17.3771   25.2389 C   0  0  0  0  0  0  0  0  0  0  0  0
   11.0002  -16.9812   26.6285 C   0  0  1  0  0  0  0  0  0  0  0  0
   12.0402  -16.0915   26.5070 O   0  0  0  0  0  0  0  0  0  0  0  0
    9.8028  -16.3652   27.3674 C   0  0  2  0  0  0  0  0  0  0  0  0
    9.4660  -15.1598   26.5940 N   0  0  0  0  0  0  0  0  0  0  0  0
   10.3229  -15.9556   28.6956 C   0  0  0  0  0  0  0  0  0  0  0  0
   10.5380  -14.7442   28.9858 O   0  0  0  0  0  0  0  0  0  0  0  0
   10.6101  -16.8604   29.7110 O   0  0  0  0  0  0  0  0  0  0  0  0
  2  1  1  6
  3  2  1  0
  4  3  1  0
  5  6  1  0
  5  4  1  0
  7  6  1  0
  8 14  1  0
  8  2  1  0
  9  8  2  0
 11 10  1  1
 11 12  1  0
 13 14  1  6
 13 11  1  0
 15 13  1  0
 16 15  2  0
 18 17  1  6
 18 19  1  0
 18 20  1  0
 20 22  1  0
 20 21  1  6
 21 15  1  0
 22 24  1  0
 23 22  2  0
M  END
$$$$
