KVT.pdb
     RDKit          3D

 24 23  0  0  1  0  0  0  0  0999 V2000
    8.2259  -14.0705   20.5735 N   0  0  0  0  0  0  0  0  0  0  0  0
    7.7410  -14.8950   21.6425 C   0  0  1  0  0  0  0  0  0  0  0  0
    8.2053  -16.3046   21.4373 C   0  0  0  0  0  0  0  0  0  0  0  0
    7.6301  -16.9509   20.2198 C   0  0  0  0  0  0  0  0  0  0  0  0
    6.8923  -18.2206   20.5017 C   0  0  0  0  0  0  0  0  0  0  0  0
    6.2155  -18.7953   19.2755 C   0  0  0  0  0  0  0  0  0  0  0  0
    5.4406  -19.9525   19.7449 N   0  0  0  0  0  0  0  0  0  0  0  0
    8.3129  -14.4416   22.9726 C   0  0  0  0  0  0  0  0  0  0  0  0
    9.5496  -14.2936   23.0880 O   0  0  0  0  0  0  0  0  0  0  0  0
    7.1492  -12.4657   27.4633 C   0  0  0  0  0  0  0  0  0  0  0  0
    6.7471  -12.9587   26.0693 C   0  0  1  0  0  0  0  0  0  0  0  0
    6.7128  -11.5982   25.2910 C   0  0  0  0  0  0  0  0  0  0  0  0
    7.7731  -13.8369   25.4166 C   0  0  2  0  0  0  0  0  0  0  0  0
    7.4604  -14.1962   24.0459 N   0  0  0  0  0  0  0  0  0  0  0  0
    8.2659  -14.9840   26.1691 C   0  0  0  0  0  0  0  0  0  0  0  0
    7.4498  -15.9218   26.5497 O   0  0  0  0  0  0  0  0  0  0  0  0
   10.9269  -17.3483   25.1822 C   0  0  0  0  0  0  0  0  0  0  0  0
   11.2693  -16.9405   26.6011 C   0  0  1  0  0  0  0  0  0  0  0  0
   12.2183  -15.9479   26.5516 O   0  0  0  0  0  0  0  0  0  0  0  0
    9.9787  -16.4653   27.2851 C   0  0  2  0  0  0  0  0  0  0  0  0
    9.6034  -15.2388   26.5645 N   0  0  0  0  0  0  0  0  0  0  0  0
   10.3713  -16.1086   28.6711 C   0  0  0  0  0  0  0  0  0  0  0  0
   10.4311  -14.9078   29.0620 O   0  0  0  0  0  0  0  0  0  0  0  0
   10.6992  -17.0547   29.6353 O   0  0  0  0  0  0  0  0  0  0  0  0
  2  1  1  6
  3  2  1  0
  4  3  1  0
  5  6  1  0
  5  4  1  0
  7  6  1  0
  8 14  1  0
  8  2  1  0
  9  8  2  0
 11 10  1  1
 11 12  1  0
 13 14  1  6
 13 11  1  0
 15 13  1  0
 16 15  2  0
 18 17  1  6
 18 19  1  0
 18 20  1  0
 20 22  1  0
 20 21  1  6
 21 15  1  0
 22 24  1  0
 23 22  2  0
M  END
$$$$
