KVT.pdb
     RDKit          3D

 24 23  0  0  1  0  0  0  0  0999 V2000
    9.5319  -17.7739   16.3497 N   0  0  0  0  0  0  0  0  0  0  0  0
    8.6365  -17.7294   17.4695 C   0  0  1  0  0  0  0  0  0  0  0  0
    8.5196  -19.0964   18.0713 C   0  0  0  0  0  0  0  0  0  0  0  0
    7.7448  -20.0553   17.2277 C   0  0  0  0  0  0  0  0  0  0  0  0
    6.2826  -20.0881   17.5389 C   0  0  0  0  0  0  0  0  0  0  0  0
    5.5111  -21.0418   16.6518 C   0  0  0  0  0  0  0  0  0  0  0  0
    4.1024  -20.9183   17.0521 N   0  0  0  0  0  0  0  0  0  0  0  0
    9.1820  -16.8241   18.5580 C   0  0  0  0  0  0  0  0  0  0  0  0
   10.4144  -16.7961   18.7696 O   0  0  0  0  0  0  0  0  0  0  0  0
    7.8943  -13.0422   21.6803 C   0  0  0  0  0  0  0  0  0  0  0  0
    7.5455  -14.0643   20.5932 C   0  0  1  0  0  0  0  0  0  0  0  0
    7.5556  -13.1398   19.3270 C   0  0  0  0  0  0  0  0  0  0  0  0
    8.5894  -15.1235   20.3984 C   0  0  2  0  0  0  0  0  0  0  0  0
    8.3102  -16.0376   19.3065 N   0  0  0  0  0  0  0  0  0  0  0  0
    9.0685  -15.8331   21.5782 C   0  0  0  0  0  0  0  0  0  0  0  0
    8.2351  -16.4670   22.3490 O   0  0  0  0  0  0  0  0  0  0  0  0
   11.6775  -18.4694   21.6191 C   0  0  0  0  0  0  0  0  0  0  0  0
   12.0494  -17.5148   22.7360 C   0  0  1  0  0  0  0  0  0  0  0  0
   13.0047  -16.6461   22.2659 O   0  0  0  0  0  0  0  0  0  0  0  0
   10.7754  -16.7801   23.1791 C   0  0  2  0  0  0  0  0  0  0  0  0
   10.4087  -15.9402   22.0283 N   0  0  0  0  0  0  0  0  0  0  0  0
   11.1919  -15.9035   24.3018 C   0  0  0  0  0  0  0  0  0  0  0  0
   11.3820  -14.6632   24.1479 O   0  0  0  0  0  0  0  0  0  0  0  0
   11.4026  -16.3718   25.5936 O   0  0  0  0  0  0  0  0  0  0  0  0
  2  1  1  6
  3  2  1  0
  4  3  1  0
  5  6  1  0
  5  4  1  0
  7  6  1  0
  8 14  1  0
  8  2  1  0
  9  8  2  0
 11 10  1  1
 11 12  1  0
 13 14  1  6
 13 11  1  0
 15 13  1  0
 16 15  2  0
 18 17  1  6
 18 19  1  0
 18 20  1  0
 20 22  1  0
 20 21  1  6
 21 15  1  0
 22 24  1  0
 23 22  2  0
M  END
$$$$
