KVT.pdb
     RDKit          3D

 24 23  0  0  1  0  0  0  0  0999 V2000
    7.6720  -15.7486   20.8127 N   0  0  0  0  0  0  0  0  0  0  0  0
    6.9898  -15.9856   22.0521 C   0  0  1  0  0  0  0  0  0  0  0  0
    6.8132  -17.4598   22.2522 C   0  0  0  0  0  0  0  0  0  0  0  0
    6.6615  -18.2210   20.9759 C   0  0  0  0  0  0  0  0  0  0  0  0
    5.5021  -19.1654   20.9704 C   0  0  0  0  0  0  0  0  0  0  0  0
    5.2702  -19.8081   19.6195 C   0  0  0  0  0  0  0  0  0  0  0  0
    4.0619  -20.6319   19.7645 N   0  0  0  0  0  0  0  0  0  0  0  0
    7.8151  -15.4871   23.2236 C   0  0  0  0  0  0  0  0  0  0  0  0
    9.0532  -15.6647   23.2190 O   0  0  0  0  0  0  0  0  0  0  0  0
    7.5795  -12.6500   27.4181 C   0  0  0  0  0  0  0  0  0  0  0  0
    6.9033  -13.3069   26.2101 C   0  0  1  0  0  0  0  0  0  0  0  0
    6.7847  -12.0724   25.2509 C   0  0  0  0  0  0  0  0  0  0  0  0
    7.7498  -14.3404   25.5281 C   0  0  2  0  0  0  0  0  0  0  0  0
    7.1897  -14.8404   24.2864 N   0  0  0  0  0  0  0  0  0  0  0  0
    8.2923  -15.4215   26.3416 C   0  0  0  0  0  0  0  0  0  0  0  0
    7.5011  -16.3028   26.8781 O   0  0  0  0  0  0  0  0  0  0  0  0
   11.9221  -18.4921   27.5017 C   0  0  0  0  0  0  0  0  0  0  0  0
   11.3842  -17.3015   26.7335 C   0  0  1  0  0  0  0  0  0  0  0  0
   11.1797  -17.6818   25.4290 O   0  0  0  0  0  0  0  0  0  0  0  0
   10.0814  -16.8477   27.4087 C   0  0  2  0  0  0  0  0  0  0  0  0
    9.6559  -15.6652   26.6438 N   0  0  0  0  0  0  0  0  0  0  0  0
   10.4695  -16.4225   28.7765 C   0  0  0  0  0  0  0  0  0  0  0  0
   10.6603  -15.2081   29.0712 O   0  0  0  0  0  0  0  0  0  0  0  0
   10.6509  -17.3149   29.8268 O   0  0  0  0  0  0  0  0  0  0  0  0
  2  1  1  6
  3  2  1  0
  4  3  1  0
  5  6  1  0
  5  4  1  0
  7  6  1  0
  8 14  1  0
  8  2  1  0
  9  8  2  0
 11 10  1  1
 11 12  1  0
 13 14  1  6
 13 11  1  0
 15 13  1  0
 16 15  2  0
 18 17  1  1
 18 19  1  0
 18 20  1  0
 20 22  1  0
 20 21  1  6
 21 15  1  0
 22 24  1  0
 23 22  2  0
M  END
$$$$
