KVT.pdb
     RDKit          3D

 24 23  0  0  1  0  0  0  0  0999 V2000
    7.9889  -15.7691   21.0391 N   0  0  0  0  0  0  0  0  0  0  0  0
    7.3624  -16.1100   22.2836 C   0  0  1  0  0  0  0  0  0  0  0  0
    7.5107  -17.5799   22.5324 C   0  0  0  0  0  0  0  0  0  0  0  0
    6.7649  -18.4285   21.5553 C   0  0  0  0  0  0  0  0  0  0  0  0
    5.5780  -19.1236   22.1420 C   0  0  0  0  0  0  0  0  0  0  0  0
    4.7839  -19.9043   21.1165 C   0  0  0  0  0  0  0  0  0  0  0  0
    3.5717  -20.3655   21.8076 N   0  0  0  0  0  0  0  0  0  0  0  0
    8.0464  -15.4055   23.4403 C   0  0  0  0  0  0  0  0  0  0  0  0
    9.2925  -15.2969   23.4394 O   0  0  0  0  0  0  0  0  0  0  0  0
    7.3004  -12.3682   27.3835 C   0  0  0  0  0  0  0  0  0  0  0  0
    6.7627  -13.1819   26.2017 C   0  0  1  0  0  0  0  0  0  0  0  0
    6.6773  -12.0623   25.1075 C   0  0  0  0  0  0  0  0  0  0  0  0
    7.7095  -14.2358   25.7093 C   0  0  2  0  0  0  0  0  0  0  0  0
    7.2847  -14.8898   24.4855 N   0  0  0  0  0  0  0  0  0  0  0  0
    8.2215  -15.1978   26.6775 C   0  0  0  0  0  0  0  0  0  0  0  0
    7.4104  -16.0015   27.2993 O   0  0  0  0  0  0  0  0  0  0  0  0
   10.6699  -17.8393   26.0692 C   0  0  0  0  0  0  0  0  0  0  0  0
   11.1669  -17.1460   27.3219 C   0  0  1  0  0  0  0  0  0  0  0  0
   12.1399  -16.2444   26.9633 O   0  0  0  0  0  0  0  0  0  0  0  0
    9.9686  -16.4585   27.9934 C   0  0  2  0  0  0  0  0  0  0  0  0
    9.5735  -15.3959   27.0558 N   0  0  0  0  0  0  0  0  0  0  0  0
   10.5078  -15.8357   29.2278 C   0  0  0  0  0  0  0  0  0  0  0  0
   10.6222  -14.5827   29.3504 O   0  0  0  0  0  0  0  0  0  0  0  0
   10.9236  -16.5719   30.3311 O   0  0  0  0  0  0  0  0  0  0  0  0
  2  1  1  6
  3  2  1  0
  4  3  1  0
  5  6  1  0
  5  4  1  0
  7  6  1  0
  8 14  1  0
  8  2  1  0
  9  8  2  0
 11 10  1  1
 11 12  1  0
 13 14  1  6
 13 11  1  0
 15 13  1  0
 16 15  2  0
 18 17  1  6
 18 19  1  0
 18 20  1  0
 20 22  1  0
 20 21  1  6
 21 15  1  0
 22 24  1  0
 23 22  2  0
M  END
$$$$
