KVT.pdb
     RDKit          3D

 24 23  0  0  1  0  0  0  0  0999 V2000
    8.1940  -15.2635   20.5088 N   0  0  0  0  0  0  0  0  0  0  0  0
    7.4195  -15.4611   21.6999 C   0  0  1  0  0  0  0  0  0  0  0  0
    7.0792  -16.9134   21.8402 C   0  0  0  0  0  0  0  0  0  0  0  0
    6.4524  -17.5000   20.6179 C   0  0  0  0  0  0  0  0  0  0  0  0
    6.0910  -18.9442   20.7586 C   0  0  0  0  0  0  0  0  0  0  0  0
    4.6375  -19.1565   21.1248 C   0  0  0  0  0  0  0  0  0  0  0  0
    4.4158  -20.6086   21.0793 N   0  0  0  0  0  0  0  0  0  0  0  0
    8.2221  -15.0851   22.9313 C   0  0  0  0  0  0  0  0  0  0  0  0
    9.4218  -15.4304   23.0083 O   0  0  0  0  0  0  0  0  0  0  0  0
    6.0784  -13.2902   26.5259 C   0  0  0  0  0  0  0  0  0  0  0  0
    7.3803  -12.8124   25.8742 C   0  0  1  0  0  0  0  0  0  0  0  0
    8.1710  -12.3404   27.1430 C   0  0  0  0  0  0  0  0  0  0  0  0
    8.1696  -13.9077   25.2206 C   0  0  2  0  0  0  0  0  0  0  0  0
    7.6187  -14.3633   23.9579 N   0  0  0  0  0  0  0  0  0  0  0  0
    8.5977  -15.0272   26.0503 C   0  0  0  0  0  0  0  0  0  0  0  0
    7.7397  -15.9217   26.4430 O   0  0  0  0  0  0  0  0  0  0  0  0
   11.9886  -18.2259   27.4980 C   0  0  0  0  0  0  0  0  0  0  0  0
   11.5774  -16.9838   26.7331 C   0  0  1  0  0  0  0  0  0  0  0  0
   11.5021  -17.3000   25.3980 O   0  0  0  0  0  0  0  0  0  0  0  0
   10.2254  -16.5092   27.2864 C   0  0  2  0  0  0  0  0  0  0  0  0
    9.9100  -15.2973   26.5142 N   0  0  0  0  0  0  0  0  0  0  0  0
   10.4847  -16.1276   28.6969 C   0  0  0  0  0  0  0  0  0  0  0  0
   10.5901  -16.9901   29.6152 O   0  0  0  0  0  0  0  0  0  0  0  0
   10.6303  -14.8093   29.1129 O   0  0  0  0  0  0  0  0  0  0  0  0
  2  1  1  6
  3  2  1  0
  4  3  1  0
  5  6  1  0
  5  4  1  0
  7  6  1  0
  8 14  1  0
  8  2  1  0
  9  8  2  0
 11 10  1  1
 11 12  1  0
 13 14  1  6
 13 11  1  0
 15 13  1  0
 16 15  2  0
 18 17  1  1
 18 19  1  0
 18 20  1  0
 20 22  1  0
 20 21  1  6
 21 15  1  0
 22 24  1  0
 23 22  2  0
M  END
$$$$
