KVT.pdb
     RDKit          3D

 24 23  0  0  1  0  0  0  0  0999 V2000
    7.7418  -13.6591   20.2762 N   0  0  0  0  0  0  0  0  0  0  0  0
    7.1050  -14.4082   21.3207 C   0  0  1  0  0  0  0  0  0  0  0  0
    7.1591  -15.8691   20.9930 C   0  0  0  0  0  0  0  0  0  0  0  0
    6.3212  -16.2478   19.8159 C   0  0  0  0  0  0  0  0  0  0  0  0
    7.0448  -16.1694   18.5095 C   0  0  0  0  0  0  0  0  0  0  0  0
    7.1639  -17.5112   17.8188 C   0  0  0  0  0  0  0  0  0  0  0  0
    7.8661  -17.2550   16.5535 N   0  0  0  0  0  0  0  0  0  0  0  0
    7.8436  -14.2331   22.6344 C   0  0  0  0  0  0  0  0  0  0  0  0
    9.0944  -14.2294   22.6371 O   0  0  0  0  0  0  0  0  0  0  0  0
    7.3000  -12.8134   27.4420 C   0  0  0  0  0  0  0  0  0  0  0  0
    6.7187  -13.0896   26.0513 C   0  0  1  0  0  0  0  0  0  0  0  0
    6.7045  -11.6373   25.4610 C   0  0  0  0  0  0  0  0  0  0  0  0
    7.6025  -13.9322   25.1803 C   0  0  2  0  0  0  0  0  0  0  0  0
    7.1258  -14.0791   23.8176 N   0  0  0  0  0  0  0  0  0  0  0  0
    8.0793  -15.2005   25.7178 C   0  0  0  0  0  0  0  0  0  0  0  0
    7.2426  -16.1602   25.9814 O   0  0  0  0  0  0  0  0  0  0  0  0
   10.2659  -17.5752   24.1717 C   0  0  0  0  0  0  0  0  0  0  0  0
   10.8801  -17.3831   25.5439 C   0  0  1  0  0  0  0  0  0  0  0  0
   11.9025  -16.4709   25.4392 O   0  0  0  0  0  0  0  0  0  0  0  0
    9.7765  -16.8995   26.4966 C   0  0  2  0  0  0  0  0  0  0  0  0
    9.4204  -15.5589   26.0064 N   0  0  0  0  0  0  0  0  0  0  0  0
   10.4261  -16.7699   27.8246 C   0  0  0  0  0  0  0  0  0  0  0  0
   10.6871  -15.6432   28.3351 O   0  0  0  0  0  0  0  0  0  0  0  0
   10.7933  -17.8631   28.6007 O   0  0  0  0  0  0  0  0  0  0  0  0
  2  1  1  6
  3  2  1  0
  4  3  1  0
  5  6  1  0
  5  4  1  0
  7  6  1  0
  8 14  1  0
  8  2  1  0
  9  8  2  0
 11 10  1  1
 11 12  1  0
 13 14  1  6
 13 11  1  0
 15 13  1  0
 16 15  2  0
 18 17  1  6
 18 19  1  0
 18 20  1  0
 20 22  1  0
 20 21  1  6
 21 15  1  0
 22 24  1  0
 23 22  2  0
M  END
$$$$
