KVT.pdb
     RDKit          3D

 24 23  0  0  1  0  0  0  0  0999 V2000
    8.4076  -14.3061   20.3725 N   0  0  0  0  0  0  0  0  0  0  0  0
    7.5209  -14.5918   21.4633 C   0  0  1  0  0  0  0  0  0  0  0  0
    6.9623  -15.9730   21.3054 C   0  0  0  0  0  0  0  0  0  0  0  0
    7.1162  -16.5245   19.9258 C   0  0  0  0  0  0  0  0  0  0  0  0
    6.5604  -17.9030   19.7612 C   0  0  0  0  0  0  0  0  0  0  0  0
    6.6961  -18.4299   18.3485 C   0  0  0  0  0  0  0  0  0  0  0  0
    6.0523  -19.7509   18.3448 N   0  0  0  0  0  0  0  0  0  0  0  0
    8.2702  -14.5778   22.7825 C   0  0  0  0  0  0  0  0  0  0  0  0
    9.4803  -14.8938   22.8020 O   0  0  0  0  0  0  0  0  0  0  0  0
    7.2082  -11.8011   25.6272 C   0  0  0  0  0  0  0  0  0  0  0  0
    7.3399  -13.2153   26.2022 C   0  0  1  0  0  0  0  0  0  0  0  0
    5.8355  -13.6564   26.2063 C   0  0  0  0  0  0  0  0  0  0  0  0
    8.0951  -14.1624   25.3177 C   0  0  2  0  0  0  0  0  0  0  0  0
    7.6072  -14.2153   23.9521 N   0  0  0  0  0  0  0  0  0  0  0  0
    8.3806  -15.4956   25.8336 C   0  0  0  0  0  0  0  0  0  0  0  0
    7.4194  -16.3533   26.0098 O   0  0  0  0  0  0  0  0  0  0  0  0
   11.3968  -19.2998   26.4524 C   0  0  0  0  0  0  0  0  0  0  0  0
   11.1132  -17.8894   25.9754 C   0  0  1  0  0  0  0  0  0  0  0  0
   11.0173  -17.9047   24.6048 O   0  0  0  0  0  0  0  0  0  0  0  0
    9.8096  -17.4161   26.6355 C   0  0  2  0  0  0  0  0  0  0  0  0
    9.6477  -16.0241   26.1878 N   0  0  0  0  0  0  0  0  0  0  0  0
   10.0770  -17.4245   28.0952 C   0  0  0  0  0  0  0  0  0  0  0  0
   10.0208  -18.4857   28.7800 O   0  0  0  0  0  0  0  0  0  0  0  0
   10.4062  -16.2811   28.8140 O   0  0  0  0  0  0  0  0  0  0  0  0
  2  1  1  6
  3  2  1  0
  4  3  1  0
  5  6  1  0
  5  4  1  0
  7  6  1  0
  8 14  1  0
  8  2  1  0
  9  8  2  0
 11 10  1  6
 11 12  1  0
 13 14  1  6
 13 11  1  0
 15 13  1  0
 16 15  2  0
 18 17  1  1
 18 19  1  0
 18 20  1  0
 20 22  1  0
 20 21  1  6
 21 15  1  0
 22 24  1  0
 23 22  2  0
M  END
$$$$
