KVT.pdb
     RDKit          3D

 24 23  0  0  1  0  0  0  0  0999 V2000
    6.1131  -14.7764   21.9476 N   0  0  0  0  0  0  0  0  0  0  0  0
    7.3451  -15.5024   22.0609 C   0  0  1  0  0  0  0  0  0  0  0  0
    8.1638  -15.2949   20.8234 C   0  0  0  0  0  0  0  0  0  0  0  0
    7.7761  -16.1924   19.6942 C   0  0  0  0  0  0  0  0  0  0  0  0
    8.9162  -16.5673   18.8022 C   0  0  0  0  0  0  0  0  0  0  0  0
    8.5345  -17.5909   17.7542 C   0  0  0  0  0  0  0  0  0  0  0  0
    9.6912  -17.7008   16.8544 N   0  0  0  0  0  0  0  0  0  0  0  0
    8.1732  -14.9782   23.2190 C   0  0  0  0  0  0  0  0  0  0  0  0
    9.4212  -15.0162   23.1450 O   0  0  0  0  0  0  0  0  0  0  0  0
    7.2366  -11.6526   25.2168 C   0  0  0  0  0  0  0  0  0  0  0  0
    7.4093  -12.8193   26.1950 C   0  0  1  0  0  0  0  0  0  0  0  0
    5.9094  -13.2080   26.4339 C   0  0  0  0  0  0  0  0  0  0  0  0
    8.1049  -14.0095   25.6038 C   0  0  2  0  0  0  0  0  0  0  0  0
    7.5394  -14.4629   24.3467 N   0  0  0  0  0  0  0  0  0  0  0  0
    8.4081  -15.1293   26.4864 C   0  0  0  0  0  0  0  0  0  0  0  0
    7.4592  -15.9131   26.9056 O   0  0  0  0  0  0  0  0  0  0  0  0
   10.3082  -18.1234   25.9471 C   0  0  0  0  0  0  0  0  0  0  0  0
   10.9142  -17.5367   27.2063 C   0  0  1  0  0  0  0  0  0  0  0  0
   12.0283  -16.8124   26.8563 O   0  0  0  0  0  0  0  0  0  0  0  0
    9.8504  -16.6597   27.8833 C   0  0  2  0  0  0  0  0  0  0  0  0
    9.6814  -15.5116   26.9791 N   0  0  0  0  0  0  0  0  0  0  0  0
   10.4684  -16.1898   29.1481 C   0  0  0  0  0  0  0  0  0  0  0  0
   10.8306  -14.9896   29.3107 O   0  0  0  0  0  0  0  0  0  0  0  0
   10.6940  -17.0219   30.2385 O   0  0  0  0  0  0  0  0  0  0  0  0
  2  1  1  6
  3  2  1  0
  4  3  1  0
  5  6  1  0
  5  4  1  0
  7  6  1  0
  8 14  1  0
  8  2  1  0
  9  8  2  0
 11 10  1  6
 11 12  1  0
 13 14  1  6
 13 11  1  0
 15 13  1  0
 16 15  2  0
 18 17  1  6
 18 19  1  0
 18 20  1  0
 20 22  1  0
 20 21  1  6
 21 15  1  0
 22 24  1  0
 23 22  2  0
M  END
$$$$
