KVT.pdb
     RDKit          3D

 24 23  0  0  1  0  0  0  0  0999 V2000
    8.6949  -17.7234   16.5773 N   0  0  0  0  0  0  0  0  0  0  0  0
    7.8932  -17.5128   17.7480 C   0  0  1  0  0  0  0  0  0  0  0  0
    7.6622  -18.8222   18.4383 C   0  0  0  0  0  0  0  0  0  0  0  0
    6.6997  -19.7123   17.7224 C   0  0  0  0  0  0  0  0  0  0  0  0
    7.3403  -20.5965   16.7008 C   0  0  0  0  0  0  0  0  0  0  0  0
    6.3788  -21.6017   16.1032 C   0  0  0  0  0  0  0  0  0  0  0  0
    7.1831  -22.4555   15.2178 N   0  0  0  0  0  0  0  0  0  0  0  0
    8.6165  -16.6230   18.7415 C   0  0  0  0  0  0  0  0  0  0  0  0
    9.8603  -16.7061   18.8445 O   0  0  0  0  0  0  0  0  0  0  0  0
    8.0136  -12.6611   21.8416 C   0  0  0  0  0  0  0  0  0  0  0  0
    7.4971  -13.6198   20.7636 C   0  0  1  0  0  0  0  0  0  0  0  0
    7.6675  -12.7240   19.4883 C   0  0  0  0  0  0  0  0  0  0  0  0
    8.3448  -14.8440   20.5831 C   0  0  2  0  0  0  0  0  0  0  0  0
    7.8926  -15.7276   19.5246 N   0  0  0  0  0  0  0  0  0  0  0  0
    8.7247  -15.5915   21.7756 C   0  0  0  0  0  0  0  0  0  0  0  0
    7.8257  -15.9429   22.6467 O   0  0  0  0  0  0  0  0  0  0  0  0
   10.0962  -18.9080   22.1314 C   0  0  0  0  0  0  0  0  0  0  0  0
   11.0468  -18.0281   22.9185 C   0  0  1  0  0  0  0  0  0  0  0  0
   12.1107  -17.7056   22.1109 O   0  0  0  0  0  0  0  0  0  0  0  0
   10.2749  -16.7808   23.3742 C   0  0  2  0  0  0  0  0  0  0  0  0
   10.0256  -16.0230   22.1381 N   0  0  0  0  0  0  0  0  0  0  0  0
   11.2206  -16.0167   24.2252 C   0  0  0  0  0  0  0  0  0  0  0  0
   11.5068  -16.3809   25.4015 O   0  0  0  0  0  0  0  0  0  0  0  0
   11.8573  -14.8562   23.8008 O   0  0  0  0  0  0  0  0  0  0  0  0
  2  1  1  6
  3  2  1  0
  4  3  1  0
  5  6  1  0
  5  4  1  0
  7  6  1  0
  8 14  1  0
  8  2  1  0
  9  8  2  0
 11 10  1  1
 11 12  1  0
 13 14  1  6
 13 11  1  0
 15 13  1  0
 16 15  2  0
 18 17  1  6
 18 19  1  0
 18 20  1  0
 20 22  1  0
 20 21  1  6
 21 15  1  0
 22 24  1  0
 23 22  2  0
M  END
$$$$
