KVT.pdb
     RDKit          3D

 24 23  0  0  1  0  0  0  0  0999 V2000
    8.4756  -14.6211   20.5558 N   0  0  0  0  0  0  0  0  0  0  0  0
    7.5559  -14.9733   21.5988 C   0  0  1  0  0  0  0  0  0  0  0  0
    7.2804  -16.4450   21.5470 C   0  0  0  0  0  0  0  0  0  0  0  0
    6.8894  -16.9314   20.1899 C   0  0  0  0  0  0  0  0  0  0  0  0
    6.5796  -18.3934   20.1386 C   0  0  0  0  0  0  0  0  0  0  0  0
    6.0593  -18.8400   18.7889 C   0  0  0  0  0  0  0  0  0  0  0  0
    5.7650  -20.2736   18.9220 N   0  0  0  0  0  0  0  0  0  0  0  0
    8.1585  -14.6949   22.9631 C   0  0  0  0  0  0  0  0  0  0  0  0
    9.3909  -14.8328   23.1271 O   0  0  0  0  0  0  0  0  0  0  0  0
    7.2152  -12.5111   27.4141 C   0  0  0  0  0  0  0  0  0  0  0  0
    6.7398  -13.0047   26.0435 C   0  0  1  0  0  0  0  0  0  0  0  0
    6.7867  -11.6640   25.2321 C   0  0  0  0  0  0  0  0  0  0  0  0
    7.6788  -13.9731   25.3877 C   0  0  2  0  0  0  0  0  0  0  0  0
    7.3385  -14.2909   24.0134 N   0  0  0  0  0  0  0  0  0  0  0  0
    8.0558  -15.1676   26.1333 C   0  0  0  0  0  0  0  0  0  0  0  0
    7.1509  -16.0224   26.5089 O   0  0  0  0  0  0  0  0  0  0  0  0
    9.9664  -17.9617   25.0893 C   0  0  0  0  0  0  0  0  0  0  0  0
   10.6419  -17.5589   26.3849 C   0  0  1  0  0  0  0  0  0  0  0  0
   11.7256  -16.7696   26.0835 O   0  0  0  0  0  0  0  0  0  0  0  0
    9.6126  -16.8134   27.2474 C   0  0  2  0  0  0  0  0  0  0  0  0
    9.3615  -15.5557   26.5266 N   0  0  0  0  0  0  0  0  0  0  0  0
   10.3087  -16.5074   28.5219 C   0  0  0  0  0  0  0  0  0  0  0  0
   10.6641  -15.3328   28.8253 O   0  0  0  0  0  0  0  0  0  0  0  0
   10.6200  -17.4760   29.4691 O   0  0  0  0  0  0  0  0  0  0  0  0
  2  1  1  6
  3  2  1  0
  4  3  1  0
  5  6  1  0
  5  4  1  0
  7  6  1  0
  8 14  1  0
  8  2  1  0
  9  8  2  0
 11 10  1  1
 11 12  1  0
 13 14  1  6
 13 11  1  0
 15 13  1  0
 16 15  2  0
 18 17  1  6
 18 19  1  0
 18 20  1  0
 20 22  1  0
 20 21  1  6
 21 15  1  0
 22 24  1  0
 23 22  2  0
M  END
$$$$
