KVT.pdb
     RDKit          3D

 24 23  0  0  1  0  0  0  0  0999 V2000
    8.7236  -14.9617   20.6348 N   0  0  0  0  0  0  0  0  0  0  0  0
    7.7313  -15.1710   21.6493 C   0  0  1  0  0  0  0  0  0  0  0  0
    7.3207  -16.6118   21.6578 C   0  0  0  0  0  0  0  0  0  0  0  0
    7.8358  -17.3857   20.4887 C   0  0  0  0  0  0  0  0  0  0  0  0
    6.7599  -17.9443   19.6131 C   0  0  0  0  0  0  0  0  0  0  0  0
    7.2962  -18.8392   18.5162 C   0  0  0  0  0  0  0  0  0  0  0  0
    6.1461  -19.1680   17.6625 N   0  0  0  0  0  0  0  0  0  0  0  0
    8.2989  -14.8760   23.0251 C   0  0  0  0  0  0  0  0  0  0  0  0
    9.5157  -15.0709   23.2394 O   0  0  0  0  0  0  0  0  0  0  0  0
    7.1931  -12.6262   27.4327 C   0  0  0  0  0  0  0  0  0  0  0  0
    6.7978  -13.0875   26.0259 C   0  0  1  0  0  0  0  0  0  0  0  0
    6.8932  -11.7289   25.2494 C   0  0  0  0  0  0  0  0  0  0  0  0
    7.7725  -14.0429   25.4039 C   0  0  2  0  0  0  0  0  0  0  0  0
    7.4644  -14.3939   24.0301 N   0  0  0  0  0  0  0  0  0  0  0  0
    8.1669  -15.2138   26.1776 C   0  0  0  0  0  0  0  0  0  0  0  0
    7.2877  -16.1149   26.5026 O   0  0  0  0  0  0  0  0  0  0  0  0
   10.2300  -17.8773   25.2322 C   0  0  0  0  0  0  0  0  0  0  0  0
   10.8293  -17.4809   26.5666 C   0  0  1  0  0  0  0  0  0  0  0  0
   11.9076  -16.6617   26.3332 O   0  0  0  0  0  0  0  0  0  0  0  0
    9.7401  -16.7742   27.3872 C   0  0  2  0  0  0  0  0  0  0  0  0
    9.4652  -15.5305   26.6510 N   0  0  0  0  0  0  0  0  0  0  0  0
   10.3764  -16.4354   28.6844 C   0  0  0  0  0  0  0  0  0  0  0  0
   10.6981  -15.2498   28.9829 O   0  0  0  0  0  0  0  0  0  0  0  0
   10.6642  -17.3829   29.6600 O   0  0  0  0  0  0  0  0  0  0  0  0
  2  1  1  6
  3  2  1  0
  4  3  1  0
  5  6  1  0
  5  4  1  0
  7  6  1  0
  8 14  1  0
  8  2  1  0
  9  8  2  0
 11 10  1  1
 11 12  1  0
 13 14  1  6
 13 11  1  0
 15 13  1  0
 16 15  2  0
 18 17  1  6
 18 19  1  0
 18 20  1  0
 20 22  1  0
 20 21  1  6
 21 15  1  0
 22 24  1  0
 23 22  2  0
M  END
$$$$
