DLF.pdb
     RDKit          3D

 28 28  0  0  1  0  0  0  0  0999 V2000
   25.0926  -18.9928  -18.8890 N   0  0  0  0  0  0  0  0  0  0  0  0
   24.3050  -20.1968  -18.8759 C   0  0  1  0  0  0  0  0  0  0  0  0
   24.9015  -21.2951  -19.7137 C   0  0  0  0  0  0  0  0  0  0  0  0
   24.7260  -20.9437  -21.1405 C   0  0  0  0  0  0  0  0  0  0  0  0
   24.2299  -19.8343  -21.4289 O   0  0  0  0  0  0  0  0  0  0  0  0
   24.1874  -20.6708  -17.4640 C   0  0  0  0  0  0  0  0  0  0  0  0
   23.6077  -21.7446  -17.1978 O   0  0  0  0  0  0  0  0  0  0  0  0
   25.1004  -21.8173  -22.1147 O   0  0  0  0  0  0  0  0  0  0  0  0
   27.4251  -21.4453  -14.7542 C   0  0  0  0  0  0  0  0  0  0  0  0
   27.0670  -19.9504  -14.5905 C   0  0  2  0  0  0  0  0  0  0  0  0
   28.0699  -19.2747  -13.7313 C   0  0  0  0  0  0  0  0  0  0  0  0
   25.6606  -19.8335  -14.1428 C   0  0  0  0  0  0  0  0  0  0  0  0
   24.6247  -20.3606  -15.0491 C   0  0  2  0  0  0  0  0  0  0  0  0
   24.7279  -19.9185  -16.3940 N   0  0  0  0  0  0  0  0  0  0  0  0
   23.2382  -20.1937  -14.5035 C   0  0  0  0  0  0  0  0  0  0  0  0
   22.9322  -19.1219  -13.9196 O   0  0  0  0  0  0  0  0  0  0  0  0
   22.2371  -21.1902  -14.6094 N   0  0  0  0  0  0  0  0  0  0  0  0
   20.9188  -21.0609  -13.9659 C   0  0  1  0  0  0  0  0  0  0  0  0
   19.8506  -20.9699  -14.9974 C   0  0  0  0  0  0  0  0  0  0  0  0
   19.9853  -19.7191  -15.7574 C   0  0  0  0  0  0  0  0  0  0  0  0
   19.5329  -18.5557  -15.1686 C   0  0  0  0  0  0  0  0  0  0  0  0
   19.6251  -17.3448  -15.7967 C   0  0  0  0  0  0  0  0  0  0  0  0
   20.1870  -17.2878  -17.0550 C   0  0  0  0  0  0  0  0  0  0  0  0
   20.6460  -18.4276  -17.6664 C   0  0  0  0  0  0  0  0  0  0  0  0
   20.5370  -19.6308  -17.0039 C   0  0  0  0  0  0  0  0  0  0  0  0
   20.7398  -22.0784  -12.9363 C   0  0  0  0  0  0  0  0  0  0  0  0
   19.7641  -22.0760  -11.9540 O   0  0  0  0  0  0  0  0  0  0  0  0
   21.5411  -23.0632  -12.9208 O   0  0  0  0  0  0  0  0  0  0  0  0
  2  3  1  0
  2  1  1  1
  4  3  1  0
  5  4  2  0
  6  2  1  0
  7  6  2  0
  8  4  1  0
 10  9  1  1
 10 12  1  0
 10 11  1  0
 13 12  1  1
 13 14  1  0
 14  6  1  0
 15 13  1  0
 15 16  2  0
 17 15  1  0
 18 17  1  0
 18 19  1  6
 19 20  1  0
 20 21  2  0
 20 25  1  0
 21 22  1  0
 22 23  2  0
 24 23  1  0
 25 24  2  0
 26 18  1  0
 27 26  1  0
 28 26  2  0
M  END
$$$$
