DLF.pdb
     RDKit          3D

 28 28  0  0  1  0  0  0  0  0999 V2000
   26.3376  -22.2243  -16.3662 N   0  0  0  0  0  0  0  0  0  0  0  0
   25.7090  -21.0077  -15.9247 C   0  0  1  0  0  0  0  0  0  0  0  0
   25.0012  -20.2789  -17.0346 C   0  0  0  0  0  0  0  0  0  0  0  0
   26.0160  -19.6019  -17.8722 C   0  0  0  0  0  0  0  0  0  0  0  0
   25.8047  -19.4896  -19.0981 O   0  0  0  0  0  0  0  0  0  0  0  0
   24.7209  -21.3454  -14.8563 C   0  0  0  0  0  0  0  0  0  0  0  0
   23.9194  -22.2918  -15.0048 O   0  0  0  0  0  0  0  0  0  0  0  0
   27.1554  -19.1128  -17.3109 O   0  0  0  0  0  0  0  0  0  0  0  0
   25.7859  -22.5144  -11.1064 C   0  0  0  0  0  0  0  0  0  0  0  0
   25.6016  -20.9898  -10.9298 C   0  0  2  0  0  0  0  0  0  0  0  0
   26.0732  -20.5689   -9.5878 C   0  0  0  0  0  0  0  0  0  0  0  0
   24.2039  -20.6277  -11.2577 C   0  0  0  0  0  0  0  0  0  0  0  0
   23.7399  -20.9241  -12.6248 C   0  0  2  0  0  0  0  0  0  0  0  0
   24.6667  -20.6048  -13.6515 N   0  0  0  0  0  0  0  0  0  0  0  0
   22.3736  -20.3740  -12.9049 C   0  0  0  0  0  0  0  0  0  0  0  0
   22.1827  -19.1327  -12.8266 O   0  0  0  0  0  0  0  0  0  0  0  0
   21.2674  -21.1853  -13.2579 N   0  0  0  0  0  0  0  0  0  0  0  0
   19.9464  -20.6244  -13.5883 C   0  0  1  0  0  0  0  0  0  0  0  0
   20.0415  -19.7660  -14.7997 C   0  0  0  0  0  0  0  0  0  0  0  0
   20.1804  -20.5997  -16.0021 C   0  0  0  0  0  0  0  0  0  0  0  0
   19.0568  -21.2534  -16.4659 C   0  0  0  0  0  0  0  0  0  0  0  0
   19.0892  -22.0430  -17.5816 C   0  0  0  0  0  0  0  0  0  0  0  0
   20.2808  -22.1883  -18.2608 C   0  0  0  0  0  0  0  0  0  0  0  0
   21.4151  -21.5508  -17.8240 C   0  0  0  0  0  0  0  0  0  0  0  0
   21.3457  -20.7629  -16.6959 C   0  0  0  0  0  0  0  0  0  0  0  0
   18.9286  -21.6687  -13.6129 C   0  0  0  0  0  0  0  0  0  0  0  0
   19.1650  -23.0329  -13.5951 O   0  0  0  0  0  0  0  0  0  0  0  0
   17.7094  -21.3169  -13.6555 O   0  0  0  0  0  0  0  0  0  0  0  0
  2  3  1  0
  2  1  1  6
  4  3  1  0
  5  4  2  0
  6  2  1  0
  7  6  2  0
  8  4  1  0
 10  9  1  1
 10 12  1  0
 10 11  1  0
 13 12  1  1
 13 14  1  0
 14  6  1  0
 15 13  1  0
 15 16  2  0
 17 15  1  0
 18 17  1  0
 18 19  1  6
 19 20  1  0
 20 21  2  0
 20 25  1  0
 21 22  1  0
 22 23  2  0
 24 23  1  0
 25 24  2  0
 26 18  1  0
 27 26  1  0
 28 26  2  0
M  END
$$$$
