DLF.pdb
     RDKit          3D

 28 28  0  0  1  0  0  0  0  0999 V2000
   15.8421  -12.9091  -16.5726 N   0  0  0  0  0  0  0  0  0  0  0  0
   17.2734  -12.8060  -16.6768 C   0  0  1  0  0  0  0  0  0  0  0  0
   17.8540  -13.7408  -17.7029 C   0  0  0  0  0  0  0  0  0  0  0  0
   17.6868  -15.1293  -17.2193 C   0  0  0  0  0  0  0  0  0  0  0  0
   16.6360  -15.7417  -17.5037 O   0  0  0  0  0  0  0  0  0  0  0  0
   17.6216  -11.4009  -17.0460 C   0  0  0  0  0  0  0  0  0  0  0  0
   18.8119  -11.0619  -17.2146 O   0  0  0  0  0  0  0  0  0  0  0  0
   18.6636  -15.7219  -16.4796 O   0  0  0  0  0  0  0  0  0  0  0  0
   14.7500   -6.1460  -18.5709 C   0  0  0  0  0  0  0  0  0  0  0  0
   16.0903   -6.9157  -18.5404 C   0  0  2  0  0  0  0  0  0  0  0  0
   16.8406   -6.6878  -19.7996 C   0  0  0  0  0  0  0  0  0  0  0  0
   15.8296   -8.3329  -18.2004 C   0  0  0  0  0  0  0  0  0  0  0  0
   16.9339   -9.0851  -17.5784 C   0  0  2  0  0  0  0  0  0  0  0  0
   16.6157  -10.4196  -17.2141 N   0  0  0  0  0  0  0  0  0  0  0  0
   17.5879   -8.3334  -16.4580 C   0  0  0  0  0  0  0  0  0  0  0  0
   16.9927   -8.2351  -15.3538 O   0  0  0  0  0  0  0  0  0  0  0  0
   18.8582   -7.7175  -16.5740 N   0  0  0  0  0  0  0  0  0  0  0  0
   19.5001   -7.0077  -15.4546 C   0  0  1  0  0  0  0  0  0  0  0  0
   20.8382   -7.5943  -15.1743 C   0  0  0  0  0  0  0  0  0  0  0  0
   21.5069   -6.8425  -14.1029 C   0  0  0  0  0  0  0  0  0  0  0  0
   22.2480   -5.7341  -14.4597 C   0  0  0  0  0  0  0  0  0  0  0  0
   22.8970   -4.9693  -13.5306 C   0  0  0  0  0  0  0  0  0  0  0  0
   22.8063   -5.3182  -12.1994 C   0  0  0  0  0  0  0  0  0  0  0  0
   22.0768   -6.4148  -11.8137 C   0  0  0  0  0  0  0  0  0  0  0  0
   21.4357   -7.1628  -12.7770 C   0  0  0  0  0  0  0  0  0  0  0  0
   19.4557   -5.5643  -15.6593 C   0  0  0  0  0  0  0  0  0  0  0  0
   19.2483   -4.6113  -14.6765 O   0  0  0  0  0  0  0  0  0  0  0  0
   19.6187   -5.1205  -16.8377 O   0  0  0  0  0  0  0  0  0  0  0  0
  2  3  1  0
  2  1  1  6
  4  3  1  0
  5  4  2  0
  6  2  1  0
  7  6  2  0
  8  4  1  0
 10  9  1  6
 10 12  1  0
 10 11  1  0
 13 12  1  1
 13 14  1  0
 14  6  1  0
 15 13  1  0
 15 16  2  0
 17 15  1  0
 18 17  1  0
 18 19  1  6
 19 20  1  0
 20 21  2  0
 20 25  1  0
 21 22  1  0
 22 23  2  0
 24 23  1  0
 25 24  2  0
 26 18  1  0
 27 26  1  0
 28 26  2  0
M  END
$$$$
