DLF.pdb
     RDKit          3D

 28 28  0  0  1  0  0  0  0  0999 V2000
   22.4394  -18.2139  -16.4420 N   0  0  0  0  0  0  0  0  0  0  0  0
   22.1573  -19.6178  -16.5825 C   0  0  1  0  0  0  0  0  0  0  0  0
   22.4862  -20.1462  -17.9524 C   0  0  0  0  0  0  0  0  0  0  0  0
   21.5064  -19.5950  -18.9147 C   0  0  0  0  0  0  0  0  0  0  0  0
   21.9175  -18.8527  -19.8313 O   0  0  0  0  0  0  0  0  0  0  0  0
   22.9579  -20.3660  -15.5670 C   0  0  0  0  0  0  0  0  0  0  0  0
   22.8688  -21.6083  -15.4736 O   0  0  0  0  0  0  0  0  0  0  0  0
   20.1841  -19.8954  -18.7976 O   0  0  0  0  0  0  0  0  0  0  0  0
   27.2155  -20.5649  -15.3832 C   0  0  0  0  0  0  0  0  0  0  0  0
   26.7547  -19.3229  -14.5866 C   0  0  2  0  0  0  0  0  0  0  0  0
   27.9203  -18.4702  -14.2478 C   0  0  0  0  0  0  0  0  0  0  0  0
   25.9289  -19.7605  -13.4383 C   0  0  0  0  0  0  0  0  0  0  0  0
   24.6348  -20.3940  -13.7486 C   0  0  2  0  0  0  0  0  0  0  0  0
   23.8357  -19.6895  -14.6867 N   0  0  0  0  0  0  0  0  0  0  0  0
   23.8643  -20.7703  -12.5188 C   0  0  0  0  0  0  0  0  0  0  0  0
   24.4229  -21.4671  -11.6324 O   0  0  0  0  0  0  0  0  0  0  0  0
   22.5212  -20.3798  -12.2944 N   0  0  0  0  0  0  0  0  0  0  0  0
   21.7506  -20.8280  -11.1222 C   0  0  1  0  0  0  0  0  0  0  0  0
   21.2830  -19.6549  -10.3358 C   0  0  0  0  0  0  0  0  0  0  0  0
   20.2049  -18.9606  -11.0541 C   0  0  0  0  0  0  0  0  0  0  0  0
   18.9378  -19.0002  -10.5084 C   0  0  0  0  0  0  0  0  0  0  0  0
   17.8758  -18.3760  -11.1016 C   0  0  0  0  0  0  0  0  0  0  0  0
   18.0802  -17.6877  -12.2791 C   0  0  0  0  0  0  0  0  0  0  0  0
   19.3288  -17.6302  -12.8460 C   0  0  0  0  0  0  0  0  0  0  0  0
   20.3761  -18.2710  -12.2207 C   0  0  0  0  0  0  0  0  0  0  0  0
   20.7311  -21.7968  -11.5086 C   0  0  0  0  0  0  0  0  0  0  0  0
   20.4336  -22.1892  -12.8027 O   0  0  0  0  0  0  0  0  0  0  0  0
   20.0421  -22.3404  -10.5911 O   0  0  0  0  0  0  0  0  0  0  0  0
  2  3  1  0
  2  1  1  6
  4  3  1  0
  5  4  2  0
  6  2  1  0
  7  6  2  0
  8  4  1  0
 10  9  1  1
 10 12  1  0
 10 11  1  0
 13 12  1  1
 13 14  1  0
 14  6  1  0
 15 13  1  0
 15 16  2  0
 17 15  1  0
 18 17  1  0
 18 19  1  6
 19 20  1  0
 20 21  2  0
 20 25  1  0
 21 22  1  0
 22 23  2  0
 24 23  1  0
 25 24  2  0
 26 18  1  0
 27 26  1  0
 28 26  2  0
M  END
$$$$
