DLF.pdb
     RDKit          3D

 28 28  0  0  1  0  0  0  0  0999 V2000
   18.6585  -31.0301   -6.4675 N   0  0  0  0  0  0  0  0  0  0  0  0
   17.3884  -30.4298   -6.7781 C   0  0  1  0  0  0  0  0  0  0  0  0
   16.3085  -30.8069   -5.8005 C   0  0  0  0  0  0  0  0  0  0  0  0
   15.2210  -31.4834   -6.5419 C   0  0  0  0  0  0  0  0  0  0  0  0
   15.5226  -32.3068   -7.4314 O   0  0  0  0  0  0  0  0  0  0  0  0
   17.5522  -28.9449   -6.7735 C   0  0  0  0  0  0  0  0  0  0  0  0
   18.0994  -28.3665   -5.8111 O   0  0  0  0  0  0  0  0  0  0  0  0
   13.9192  -31.2091   -6.2547 O   0  0  0  0  0  0  0  0  0  0  0  0
   19.4964  -25.2749   -8.9455 C   0  0  0  0  0  0  0  0  0  0  0  0
   18.4788  -26.0277   -9.8329 C   0  0  2  0  0  0  0  0  0  0  0  0
   18.4526  -25.4392  -11.1943 C   0  0  0  0  0  0  0  0  0  0  0  0
   17.1735  -26.0831   -9.1363 C   0  0  0  0  0  0  0  0  0  0  0  0
   17.1476  -26.7385   -7.8164 C   0  0  2  0  0  0  0  0  0  0  0  0
   17.0937  -28.1564   -7.8557 N   0  0  0  0  0  0  0  0  0  0  0  0
   16.1113  -26.1581   -6.9016 C   0  0  0  0  0  0  0  0  0  0  0  0
   14.9868  -26.7159   -6.8139 O   0  0  0  0  0  0  0  0  0  0  0  0
   16.3295  -24.9984   -6.1180 N   0  0  0  0  0  0  0  0  0  0  0  0
   15.3172  -24.4669   -5.1897 C   0  0  1  0  0  0  0  0  0  0  0  0
   15.9704  -23.9590   -3.9534 C   0  0  0  0  0  0  0  0  0  0  0  0
   16.6228  -25.0627   -3.2348 C   0  0  0  0  0  0  0  0  0  0  0  0
   15.9497  -25.6239   -2.1684 C   0  0  0  0  0  0  0  0  0  0  0  0
   16.4747  -26.6600   -1.4472 C   0  0  0  0  0  0  0  0  0  0  0  0
   17.7127  -27.1563   -1.7981 C   0  0  0  0  0  0  0  0  0  0  0  0
   18.4062  -26.6192   -2.8537 C   0  0  0  0  0  0  0  0  0  0  0  0
   17.8467  -25.5757   -3.5583 C   0  0  0  0  0  0  0  0  0  0  0  0
   14.4177  -23.5441   -5.8729 C   0  0  0  0  0  0  0  0  0  0  0  0
   13.2881  -22.9584   -5.3269 O   0  0  0  0  0  0  0  0  0  0  0  0
   14.6748  -23.2378   -7.0779 O   0  0  0  0  0  0  0  0  0  0  0  0
  2  3  1  0
  2  1  1  1
  4  3  1  0
  5  4  2  0
  6  2  1  0
  7  6  2  0
  8  4  1  0
 10  9  1  1
 10 12  1  0
 10 11  1  0
 13 12  1  6
 13 14  1  0
 14  6  1  0
 15 13  1  0
 15 16  2  0
 17 15  1  0
 18 17  1  0
 18 19  1  1
 19 20  1  0
 20 21  2  0
 20 25  1  0
 21 22  1  0
 22 23  2  0
 24 23  1  0
 25 24  2  0
 26 18  1  0
 27 26  1  0
 28 26  2  0
M  END
$$$$
