DLF.pdb
     RDKit          3D

 28 28  0  0  1  0  0  0  0  0999 V2000
   27.7886  -23.7848  -17.4802 N   0  0  0  0  0  0  0  0  0  0  0  0
   26.7864  -22.7650  -17.3204 C   0  0  1  0  0  0  0  0  0  0  0  0
   25.3862  -23.3158  -17.3211 C   0  0  0  0  0  0  0  0  0  0  0  0
   24.9069  -23.3750  -18.7199 C   0  0  0  0  0  0  0  0  0  0  0  0
   24.8990  -22.3254  -19.3968 O   0  0  0  0  0  0  0  0  0  0  0  0
   27.0310  -22.0587  -16.0269 C   0  0  0  0  0  0  0  0  0  0  0  0
   27.8686  -22.4958  -15.2098 O   0  0  0  0  0  0  0  0  0  0  0  0
   24.4845  -24.5542  -19.2524 O   0  0  0  0  0  0  0  0  0  0  0  0
   28.9726  -18.5206  -14.9532 C   0  0  0  0  0  0  0  0  0  0  0  0
   27.5604  -18.1272  -15.4436 C   0  0  2  0  0  0  0  0  0  0  0  0
   27.4659  -16.6558  -15.6058 C   0  0  0  0  0  0  0  0  0  0  0  0
   26.5484  -18.7372  -14.5514 C   0  0  0  0  0  0  0  0  0  0  0  0
   26.5367  -20.2083  -14.4613 C   0  0  2  0  0  0  0  0  0  0  0  0
   26.3229  -20.8795  -15.6937 N   0  0  0  0  0  0  0  0  0  0  0  0
   25.6337  -20.7151  -13.3770 C   0  0  0  0  0  0  0  0  0  0  0  0
   24.4143  -20.8978  -13.6278 O   0  0  0  0  0  0  0  0  0  0  0  0
   26.0826  -21.0041  -12.0650 N   0  0  0  0  0  0  0  0  0  0  0  0
   25.1716  -21.4432  -10.9943 C   0  0  1  0  0  0  0  0  0  0  0  0
   25.9461  -22.0459   -9.8762 C   0  0  0  0  0  0  0  0  0  0  0  0
   26.6542  -20.9979   -9.1274 C   0  0  0  0  0  0  0  0  0  0  0  0
   25.9058  -20.1668   -8.3186 C   0  0  0  0  0  0  0  0  0  0  0  0
   26.4794  -19.1704   -7.5787 C   0  0  0  0  0  0  0  0  0  0  0  0
   27.8456  -18.9935   -7.6449 C   0  0  0  0  0  0  0  0  0  0  0  0
   28.6165  -19.8041   -8.4400 C   0  0  0  0  0  0  0  0  0  0  0  0
   28.0047  -20.7982   -9.1720 C   0  0  0  0  0  0  0  0  0  0  0  0
   24.2380  -20.3812  -10.6369 C   0  0  0  0  0  0  0  0  0  0  0  0
   24.4064  -19.0315  -10.8960 O   0  0  0  0  0  0  0  0  0  0  0  0
   23.1685  -20.7013  -10.0322 O   0  0  0  0  0  0  0  0  0  0  0  0
  2  3  1  0
  2  1  1  1
  4  3  1  0
  5  4  2  0
  6  2  1  0
  7  6  2  0
  8  4  1  0
 10  9  1  1
 10 12  1  0
 10 11  1  0
 13 12  1  6
 13 14  1  0
 14  6  1  0
 15 13  1  0
 15 16  2  0
 17 15  1  0
 18 17  1  0
 18 19  1  1
 19 20  1  0
 20 21  2  0
 20 25  1  0
 21 22  1  0
 22 23  2  0
 24 23  1  0
 25 24  2  0
 26 18  1  0
 27 26  1  0
 28 26  2  0
M  END
$$$$
