DLF.pdb
     RDKit          3D

 28 28  0  0  1  0  0  0  0  0999 V2000
   22.9629  -13.0451  -19.2563 N   0  0  0  0  0  0  0  0  0  0  0  0
   23.7076  -11.8973  -19.7015 C   0  0  1  0  0  0  0  0  0  0  0  0
   22.9835  -11.1026  -20.7541 C   0  0  0  0  0  0  0  0  0  0  0  0
   23.0322  -11.8566  -22.0265 C   0  0  0  0  0  0  0  0  0  0  0  0
   24.0032  -11.6802  -22.7921 O   0  0  0  0  0  0  0  0  0  0  0  0
   23.9718  -11.0177  -18.5232 C   0  0  0  0  0  0  0  0  0  0  0  0
   23.2866  -11.1206  -17.4840 O   0  0  0  0  0  0  0  0  0  0  0  0
   22.0349  -12.7244  -22.3498 O   0  0  0  0  0  0  0  0  0  0  0  0
   27.2636  -10.9559  -15.9339 C   0  0  0  0  0  0  0  0  0  0  0  0
   27.6545  -10.0800  -17.1462 C   0  0  2  0  0  0  0  0  0  0  0  0
   29.0953   -9.7326  -17.0838 C   0  0  0  0  0  0  0  0  0  0  0  0
   26.7244   -8.9316  -17.2364 C   0  0  0  0  0  0  0  0  0  0  0  0
   25.2955   -9.2418  -17.4216 C   0  0  2  0  0  0  0  0  0  0  0  0
   25.0019  -10.0477  -18.5527 N   0  0  0  0  0  0  0  0  0  0  0  0
   24.4246   -8.0233  -17.3538 C   0  0  0  0  0  0  0  0  0  0  0  0
   24.3626   -7.2557  -18.3490 O   0  0  0  0  0  0  0  0  0  0  0  0
   23.6556   -7.6812  -16.2145 N   0  0  0  0  0  0  0  0  0  0  0  0
   22.7864   -6.4931  -16.1724 C   0  0  1  0  0  0  0  0  0  0  0  0
   21.3568   -6.9034  -16.1413 C   0  0  0  0  0  0  0  0  0  0  0  0
   21.0618   -7.6182  -14.8913 C   0  0  0  0  0  0  0  0  0  0  0  0
   20.5005   -6.8993  -13.8553 C   0  0  0  0  0  0  0  0  0  0  0  0
   20.1843   -7.4822  -12.6597 C   0  0  0  0  0  0  0  0  0  0  0  0
   20.4346   -8.8274  -12.4872 C   0  0  0  0  0  0  0  0  0  0  0  0
   20.9918   -9.5688  -13.4989 C   0  0  0  0  0  0  0  0  0  0  0  0
   21.2978   -8.9485  -14.6906 C   0  0  0  0  0  0  0  0  0  0  0  0
   23.2178   -5.5690  -15.1297 C   0  0  0  0  0  0  0  0  0  0  0  0
   22.7417   -4.2831  -14.9372 O   0  0  0  0  0  0  0  0  0  0  0  0
   24.1104   -5.9584  -14.3150 O   0  0  0  0  0  0  0  0  0  0  0  0
  2  3  1  0
  2  1  1  1
  4  3  1  0
  5  4  2  0
  6  2  1  0
  7  6  2  0
  8  4  1  0
 10  9  1  1
 10 12  1  0
 10 11  1  0
 13 12  1  6
 13 14  1  0
 14  6  1  0
 15 13  1  0
 15 16  2  0
 17 15  1  0
 18 17  1  0
 18 19  1  1
 19 20  1  0
 20 21  2  0
 20 25  1  0
 21 22  1  0
 22 23  2  0
 24 23  1  0
 25 24  2  0
 26 18  1  0
 27 26  1  0
 28 26  2  0
M  END
$$$$
