DLF.pdb
     RDKit          3D

 28 28  0  0  1  0  0  0  0  0999 V2000
   29.5879  -23.3976  -17.2997 N   0  0  0  0  0  0  0  0  0  0  0  0
   28.2069  -23.5395  -16.9215 C   0  0  1  0  0  0  0  0  0  0  0  0
   27.9392  -24.8015  -16.1472 C   0  0  0  0  0  0  0  0  0  0  0  0
   27.6988  -25.8994  -17.1099 C   0  0  0  0  0  0  0  0  0  0  0  0
   27.8389  -25.6699  -18.3296 O   0  0  0  0  0  0  0  0  0  0  0  0
   27.8218  -22.3637  -16.0841 C   0  0  0  0  0  0  0  0  0  0  0  0
   28.2614  -22.2370  -14.9219 O   0  0  0  0  0  0  0  0  0  0  0  0
   27.3325  -27.1334  -16.6678 O   0  0  0  0  0  0  0  0  0  0  0  0
   26.5095  -16.5039  -16.4670 C   0  0  0  0  0  0  0  0  0  0  0  0
   26.3948  -17.7619  -15.5760 C   0  0  2  0  0  0  0  0  0  0  0  0
   27.0665  -17.5302  -14.2738 C   0  0  0  0  0  0  0  0  0  0  0  0
   26.8667  -18.9412  -16.3367 C   0  0  0  0  0  0  0  0  0  0  0  0
   26.5433  -20.2677  -15.7816 C   0  0  2  0  0  0  0  0  0  0  0  0
   26.9517  -21.3654  -16.5835 N   0  0  0  0  0  0  0  0  0  0  0  0
   25.1114  -20.3826  -15.3523 C   0  0  0  0  0  0  0  0  0  0  0  0
   24.2037  -20.3472  -16.2230 O   0  0  0  0  0  0  0  0  0  0  0  0
   24.7159  -20.5307  -14.0002 N   0  0  0  0  0  0  0  0  0  0  0  0
   23.3027  -20.5693  -13.5874 C   0  0  1  0  0  0  0  0  0  0  0  0
   23.2026  -20.7740  -12.1172 C   0  0  0  0  0  0  0  0  0  0  0  0
   21.7921  -20.8178  -11.7065 C   0  0  0  0  0  0  0  0  0  0  0  0
   21.2451  -19.6752  -11.1584 C   0  0  0  0  0  0  0  0  0  0  0  0
   19.9396  -19.6204  -10.7561 C   0  0  0  0  0  0  0  0  0  0  0  0
   19.1492  -20.7410  -10.9036 C   0  0  0  0  0  0  0  0  0  0  0  0
   19.6646  -21.8919  -11.4454 C   0  0  0  0  0  0  0  0  0  0  0  0
   20.9845  -21.9113  -11.8400 C   0  0  0  0  0  0  0  0  0  0  0  0
   22.5692  -19.4336  -14.1346 C   0  0  0  0  0  0  0  0  0  0  0  0
   22.9964  -18.1166  -14.1366 O   0  0  0  0  0  0  0  0  0  0  0  0
   21.4339  -19.6500  -14.6602 O   0  0  0  0  0  0  0  0  0  0  0  0
  2  3  1  0
  2  1  1  1
  4  3  1  0
  5  4  2  0
  6  2  1  0
  7  6  2  0
  8  4  1  0
 10  9  1  6
 10 12  1  0
 10 11  1  0
 13 12  1  6
 13 14  1  0
 14  6  1  0
 15 13  1  0
 15 16  2  0
 17 15  1  0
 18 17  1  0
 18 19  1  1
 19 20  1  0
 20 21  2  0
 20 25  1  0
 21 22  1  0
 22 23  2  0
 24 23  1  0
 25 24  2  0
 26 18  1  0
 27 26  1  0
 28 26  2  0
M  END
$$$$
