DLF.pdb
     RDKit          3D

 28 28  0  0  1  0  0  0  0  0999 V2000
   20.4727  -10.4041  -15.6398 N   0  0  0  0  0  0  0  0  0  0  0  0
   19.0622  -10.1216  -15.6657 C   0  0  1  0  0  0  0  0  0  0  0  0
   18.2352  -11.2150  -15.0455 C   0  0  0  0  0  0  0  0  0  0  0  0
   18.3823  -12.4368  -15.8673 C   0  0  0  0  0  0  0  0  0  0  0  0
   18.3290  -12.3339  -17.1110 O   0  0  0  0  0  0  0  0  0  0  0  0
   18.8204   -8.8478  -14.9233 C   0  0  0  0  0  0  0  0  0  0  0  0
   19.5862   -8.4902  -14.0037 O   0  0  0  0  0  0  0  0  0  0  0  0
   18.5722  -13.6464  -15.2729 O   0  0  0  0  0  0  0  0  0  0  0  0
   15.6970   -3.6886  -15.5655 C   0  0  0  0  0  0  0  0  0  0  0  0
   16.6884   -4.4319  -14.6412 C   0  0  2  0  0  0  0  0  0  0  0  0
   17.7281   -3.4962  -14.1472 C   0  0  0  0  0  0  0  0  0  0  0  0
   17.1933   -5.6366  -15.3382 C   0  0  0  0  0  0  0  0  0  0  0  0
   17.4532   -6.8280  -14.5104 C   0  0  2  0  0  0  0  0  0  0  0  0
   17.7210   -8.0151  -15.2411 N   0  0  0  0  0  0  0  0  0  0  0  0
   16.4108   -7.0375  -13.4532 C   0  0  0  0  0  0  0  0  0  0  0  0
   15.2590   -7.4144  -13.7916 O   0  0  0  0  0  0  0  0  0  0  0  0
   16.6529   -6.8315  -12.0728 N   0  0  0  0  0  0  0  0  0  0  0  0
   15.6120   -7.0219  -11.0485 C   0  0  1  0  0  0  0  0  0  0  0  0
   16.2003   -7.6316   -9.8257 C   0  0  0  0  0  0  0  0  0  0  0  0
   15.1572   -7.8408   -8.8116 C   0  0  0  0  0  0  0  0  0  0  0  0
   15.0404   -6.9038   -7.8049 C   0  0  0  0  0  0  0  0  0  0  0  0
   14.0940   -7.0113   -6.8241 C   0  0  0  0  0  0  0  0  0  0  0  0
   13.2328   -8.0883   -6.8442 C   0  0  0  0  0  0  0  0  0  0  0  0
   13.3242   -9.0364   -7.8324 C   0  0  0  0  0  0  0  0  0  0  0  0
   14.2900   -8.8961   -8.8049 C   0  0  0  0  0  0  0  0  0  0  0  0
   14.8412   -5.7988  -10.8558 C   0  0  0  0  0  0  0  0  0  0  0  0
   13.4666   -5.7205  -10.7092 O   0  0  0  0  0  0  0  0  0  0  0  0
   15.4676   -4.6951  -10.8169 O   0  0  0  0  0  0  0  0  0  0  0  0
  2  3  1  0
  2  1  1  1
  4  3  1  0
  5  4  2  0
  6  2  1  0
  7  6  2  0
  8  4  1  0
 10  9  1  6
 10 12  1  0
 10 11  1  0
 13 12  1  6
 13 14  1  0
 14  6  1  0
 15 13  1  0
 15 16  2  0
 17 15  1  0
 18 17  1  0
 18 19  1  1
 19 20  1  0
 20 21  2  0
 20 25  1  0
 21 22  1  0
 22 23  2  0
 24 23  1  0
 25 24  2  0
 26 18  1  0
 27 26  1  0
 28 26  2  0
M  END
$$$$
