DLF.pdb
     RDKit          3D

 28 28  0  0  1  0  0  0  0  0999 V2000
   25.5423  -20.5432  -15.5865 N   0  0  0  0  0  0  0  0  0  0  0  0
   25.3635  -20.0818  -14.2354 C   0  0  1  0  0  0  0  0  0  0  0  0
   23.9157  -19.9135  -13.8617 C   0  0  0  0  0  0  0  0  0  0  0  0
   23.3521  -18.8020  -14.6597 C   0  0  0  0  0  0  0  0  0  0  0  0
   23.7335  -18.6569  -15.8402 O   0  0  0  0  0  0  0  0  0  0  0  0
   25.9934  -21.0708  -13.3096 C   0  0  0  0  0  0  0  0  0  0  0  0
   25.6287  -22.2654  -13.3082 O   0  0  0  0  0  0  0  0  0  0  0  0
   22.4358  -17.9579  -14.1117 O   0  0  0  0  0  0  0  0  0  0  0  0
   29.4371  -20.0897  -13.4069 C   0  0  0  0  0  0  0  0  0  0  0  0
   29.7764  -20.4111  -11.9334 C   0  0  2  0  0  0  0  0  0  0  0  0
   31.2466  -20.4169  -11.7358 C   0  0  0  0  0  0  0  0  0  0  0  0
   29.0736  -21.6509  -11.5318 C   0  0  0  0  0  0  0  0  0  0  0  0
   27.6006  -21.6059  -11.5069 C   0  0  2  0  0  0  0  0  0  0  0  0
   27.0168  -20.6819  -12.4126 N   0  0  0  0  0  0  0  0  0  0  0  0
   27.0488  -21.4642  -10.1200 C   0  0  0  0  0  0  0  0  0  0  0  0
   27.4495  -22.2428   -9.2164 O   0  0  0  0  0  0  0  0  0  0  0  0
   26.0862  -20.4880   -9.7636 N   0  0  0  0  0  0  0  0  0  0  0  0
   25.3812  -20.5052   -8.4707 C   0  0  1  0  0  0  0  0  0  0  0  0
   25.7236  -19.2905   -7.6829 C   0  0  0  0  0  0  0  0  0  0  0  0
   26.8302  -19.5802   -6.7601 C   0  0  0  0  0  0  0  0  0  0  0  0
   27.9211  -18.7348   -6.7771 C   0  0  0  0  0  0  0  0  0  0  0  0
   28.9925  -18.9210   -5.9484 C   0  0  0  0  0  0  0  0  0  0  0  0
   28.9794  -19.9852   -5.0712 C   0  0  0  0  0  0  0  0  0  0  0  0
   27.9087  -20.8430   -5.0308 C   0  0  0  0  0  0  0  0  0  0  0  0
   26.8462  -20.6250   -5.8804 C   0  0  0  0  0  0  0  0  0  0  0  0
   23.9604  -20.7778   -8.6559 C   0  0  0  0  0  0  0  0  0  0  0  0
   23.0548  -21.0806   -7.6533 O   0  0  0  0  0  0  0  0  0  0  0  0
   23.4914  -20.7403   -9.8352 O   0  0  0  0  0  0  0  0  0  0  0  0
  2  3  1  0
  2  1  1  6
  4  3  1  0
  5  4  2  0
  6  2  1  0
  7  6  2  0
  8  4  1  0
 10  9  1  6
 10 12  1  0
 10 11  1  0
 13 12  1  1
 13 14  1  0
 14  6  1  0
 15 13  1  0
 15 16  2  0
 17 15  1  0
 18 17  1  0
 18 19  1  6
 19 20  1  0
 20 21  2  0
 20 25  1  0
 21 22  1  0
 22 23  2  0
 24 23  1  0
 25 24  2  0
 26 18  1  0
 27 26  1  0
 28 26  2  0
M  END
$$$$
