DLF.pdb
     RDKit          3D

 28 28  0  0  1  0  0  0  0  0999 V2000
   22.5397  -19.8715  -13.7160 N   0  0  0  0  0  0  0  0  0  0  0  0
   22.8321  -21.2756  -13.6006 C   0  0  1  0  0  0  0  0  0  0  0  0
   22.6789  -22.0139  -14.9026 C   0  0  0  0  0  0  0  0  0  0  0  0
   21.3270  -21.7415  -15.4393 C   0  0  0  0  0  0  0  0  0  0  0  0
   21.2238  -21.1457  -16.5322 O   0  0  0  0  0  0  0  0  0  0  0  0
   24.2371  -21.4288  -13.1164 C   0  0  0  0  0  0  0  0  0  0  0  0
   24.7381  -22.5623  -12.9607 O   0  0  0  0  0  0  0  0  0  0  0  0
   20.2215  -22.1358  -14.7502 O   0  0  0  0  0  0  0  0  0  0  0  0
   28.0097  -21.0499  -14.7591 C   0  0  0  0  0  0  0  0  0  0  0  0
   27.5161  -19.6323  -14.3895 C   0  0  2  0  0  0  0  0  0  0  0  0
   28.3994  -18.6076  -14.9980 C   0  0  0  0  0  0  0  0  0  0  0  0
   27.3515  -19.5423  -12.9209 C   0  0  0  0  0  0  0  0  0  0  0  0
   26.3503  -20.4313  -12.3049 C   0  0  2  0  0  0  0  0  0  0  0  0
   25.0353  -20.2977  -12.8223 N   0  0  0  0  0  0  0  0  0  0  0  0
   26.3764  -20.3828  -10.8066 C   0  0  0  0  0  0  0  0  0  0  0  0
   25.7134  -19.4963  -10.2085 O   0  0  0  0  0  0  0  0  0  0  0  0
   27.1173  -21.2929  -10.0132 N   0  0  0  0  0  0  0  0  0  0  0  0
   27.2138  -21.1713   -8.5487 C   0  0  1  0  0  0  0  0  0  0  0  0
   28.3734  -20.3154   -8.1798 C   0  0  0  0  0  0  0  0  0  0  0  0
   28.4300  -20.1398   -6.7216 C   0  0  0  0  0  0  0  0  0  0  0  0
   27.7924  -19.0422   -6.1798 C   0  0  0  0  0  0  0  0  0  0  0  0
   27.7847  -18.8025   -4.8338 C   0  0  0  0  0  0  0  0  0  0  0  0
   28.4338  -19.6851   -3.9961 C   0  0  0  0  0  0  0  0  0  0  0  0
   29.0767  -20.7857   -4.5051 C   0  0  0  0  0  0  0  0  0  0  0  0
   29.0640  -20.9959   -5.8667 C   0  0  0  0  0  0  0  0  0  0  0  0
   25.9265  -20.8021   -7.9708 C   0  0  0  0  0  0  0  0  0  0  0  0
   25.1384  -19.7329   -8.3616 O   0  0  0  0  0  0  0  0  0  0  0  0
   25.4696  -21.5114   -7.0220 O   0  0  0  0  0  0  0  0  0  0  0  0
  2  3  1  0
  2  1  1  6
  4  3  1  0
  5  4  2  0
  6  2  1  0
  7  6  2  0
  8  4  1  0
 10  9  1  1
 10 12  1  0
 10 11  1  0
 13 12  1  6
 13 14  1  0
 14  6  1  0
 15 13  1  0
 15 16  2  0
 17 15  1  0
 18 17  1  0
 18 19  1  6
 19 20  1  0
 20 21  2  0
 20 25  1  0
 21 22  1  0
 22 23  2  0
 24 23  1  0
 25 24  2  0
 26 18  1  0
 27 26  1  0
 28 26  2  0
M  END
$$$$
