DLF.pdb
     RDKit          3D

 28 28  0  0  1  0  0  0  0  0999 V2000
   22.5570  -12.1009  -19.4259 N   0  0  0  0  0  0  0  0  0  0  0  0
   21.7315  -11.6142  -18.3527 C   0  0  1  0  0  0  0  0  0  0  0  0
   22.2718  -11.9660  -16.9932 C   0  0  0  0  0  0  0  0  0  0  0  0
   22.1281  -13.4255  -16.7955 C   0  0  0  0  0  0  0  0  0  0  0  0
   21.6528  -14.1132  -17.7235 O   0  0  0  0  0  0  0  0  0  0  0  0
   21.6326  -10.1280  -18.4675 C   0  0  0  0  0  0  0  0  0  0  0  0
   22.5933   -9.4561  -18.8984 O   0  0  0  0  0  0  0  0  0  0  0  0
   22.5090  -14.0011  -15.6224 O   0  0  0  0  0  0  0  0  0  0  0  0
   17.5511   -5.7223  -19.2979 C   0  0  0  0  0  0  0  0  0  0  0  0
   19.0423   -6.0824  -19.1067 C   0  0  2  0  0  0  0  0  0  0  0  0
   19.8553   -5.4949  -20.1995 C   0  0  0  0  0  0  0  0  0  0  0  0
   19.1703   -7.5471  -18.9325 C   0  0  0  0  0  0  0  0  0  0  0  0
   20.3487   -8.0315  -18.1916 C   0  0  2  0  0  0  0  0  0  0  0  0
   20.4517   -9.4438  -18.0925 N   0  0  0  0  0  0  0  0  0  0  0  0
   20.5148   -7.3575  -16.8627 C   0  0  0  0  0  0  0  0  0  0  0  0
   19.7869   -7.7106  -15.8990 O   0  0  0  0  0  0  0  0  0  0  0  0
   21.4597   -6.3289  -16.6267 N   0  0  0  0  0  0  0  0  0  0  0  0
   21.6402   -5.7066  -15.3042 C   0  0  1  0  0  0  0  0  0  0  0  0
   23.0353   -5.9075  -14.8282 C   0  0  0  0  0  0  0  0  0  0  0  0
   23.3622   -7.3403  -14.8072 C   0  0  0  0  0  0  0  0  0  0  0  0
   22.7402   -8.1290  -13.8606 C   0  0  0  0  0  0  0  0  0  0  0  0
   22.9759   -9.4728  -13.7720 C   0  0  0  0  0  0  0  0  0  0  0  0
   23.8613  -10.0538  -14.6555 C   0  0  0  0  0  0  0  0  0  0  0  0
   24.4952   -9.2956  -15.6079 C   0  0  0  0  0  0  0  0  0  0  0  0
   24.2337   -7.9442  -15.6683 C   0  0  0  0  0  0  0  0  0  0  0  0
   21.1468   -4.3340  -15.3029 C   0  0  0  0  0  0  0  0  0  0  0  0
   20.8109   -3.5936  -14.1821 O   0  0  0  0  0  0  0  0  0  0  0  0
   21.0039   -3.7471  -16.4196 O   0  0  0  0  0  0  0  0  0  0  0  0
  2  3  1  0
  2  1  1  6
  4  3  1  0
  5  4  2  0
  6  2  1  0
  7  6  2  0
  8  4  1  0
 10  9  1  6
 10 12  1  0
 10 11  1  0
 13 12  1  1
 13 14  1  0
 14  6  1  0
 15 13  1  0
 15 16  2  0
 17 15  1  0
 18 17  1  0
 18 19  1  6
 19 20  1  0
 20 21  2  0
 20 25  1  0
 21 22  1  0
 22 23  2  0
 24 23  1  0
 25 24  2  0
 26 18  1  0
 27 26  1  0
 28 26  2  0
M  END
$$$$
