DLF.pdb
     RDKit          3D

 28 28  0  0  1  0  0  0  0  0999 V2000
   38.3450   -6.7172  -10.7596 N   0  0  0  0  0  0  0  0  0  0  0  0
   39.0125   -6.2935  -11.9617 C   0  0  1  0  0  0  0  0  0  0  0  0
   40.4461   -6.7458  -12.0252 C   0  0  0  0  0  0  0  0  0  0  0  0
   41.2173   -6.0030  -11.0037 C   0  0  0  0  0  0  0  0  0  0  0  0
   40.5958   -5.3958  -10.1064 O   0  0  0  0  0  0  0  0  0  0  0  0
   38.2740   -6.8501  -13.1351 C   0  0  0  0  0  0  0  0  0  0  0  0
   38.6575   -6.6147  -14.3003 O   0  0  0  0  0  0  0  0  0  0  0  0
   42.5775   -5.9863  -11.0468 O   0  0  0  0  0  0  0  0  0  0  0  0
   38.3353  -10.5605  -15.0475 C   0  0  0  0  0  0  0  0  0  0  0  0
   37.5234  -10.5554  -13.7319 C   0  0  2  0  0  0  0  0  0  0  0  0
   37.3009  -11.9447  -13.2620 C   0  0  0  0  0  0  0  0  0  0  0  0
   36.3010   -9.7411  -13.9181 C   0  0  0  0  0  0  0  0  0  0  0  0
   36.4827   -8.2852  -14.0575 C   0  0  2  0  0  0  0  0  0  0  0  0
   37.1243   -7.6562  -12.9586 N   0  0  0  0  0  0  0  0  0  0  0  0
   35.2211   -7.5795  -14.4556 C   0  0  0  0  0  0  0  0  0  0  0  0
   34.3897   -7.2586  -13.5673 O   0  0  0  0  0  0  0  0  0  0  0  0
   34.9068   -7.2485  -15.7966 N   0  0  0  0  0  0  0  0  0  0  0  0
   33.6072   -6.6770  -16.1882 C   0  0  1  0  0  0  0  0  0  0  0  0
   32.4972   -7.4882  -15.6196 C   0  0  0  0  0  0  0  0  0  0  0  0
   32.1243   -8.5611  -16.5524 C   0  0  0  0  0  0  0  0  0  0  0  0
   32.6542   -9.8168  -16.3347 C   0  0  0  0  0  0  0  0  0  0  0  0
   32.3566  -10.8770  -17.1450 C   0  0  0  0  0  0  0  0  0  0  0  0
   31.5018  -10.6826  -18.2097 C   0  0  0  0  0  0  0  0  0  0  0  0
   30.9588   -9.4456  -18.4518 C   0  0  0  0  0  0  0  0  0  0  0  0
   31.2808   -8.3998  -17.6146 C   0  0  0  0  0  0  0  0  0  0  0  0
   33.5661   -5.2442  -15.9188 C   0  0  0  0  0  0  0  0  0  0  0  0
   32.4432   -4.4371  -15.9895 O   0  0  0  0  0  0  0  0  0  0  0  0
   34.6466   -4.6647  -15.5893 O   0  0  0  0  0  0  0  0  0  0  0  0
  2  3  1  0
  2  1  1  1
  4  3  1  0
  5  4  2  0
  6  2  1  0
  7  6  2  0
  8  4  1  0
 10  9  1  6
 10 12  1  0
 10 11  1  0
 13 12  1  1
 13 14  1  0
 14  6  1  0
 15 13  1  0
 15 16  2  0
 17 15  1  0
 18 17  1  0
 18 19  1  1
 19 20  1  0
 20 21  2  0
 20 25  1  0
 21 22  1  0
 22 23  2  0
 24 23  1  0
 25 24  2  0
 26 18  1  0
 27 26  1  0
 28 26  2  0
M  END
$$$$
