DLF.pdb
     RDKit          3D

 28 28  0  0  1  0  0  0  0  0999 V2000
   24.7145  -18.6237  -17.5264 N   0  0  0  0  0  0  0  0  0  0  0  0
   24.7887  -19.9373  -18.1088 C   0  0  1  0  0  0  0  0  0  0  0  0
   25.8151  -20.0341  -19.2048 C   0  0  0  0  0  0  0  0  0  0  0  0
   25.3404  -19.2436  -20.3622 C   0  0  0  0  0  0  0  0  0  0  0  0
   24.2947  -18.5712  -20.2416 O   0  0  0  0  0  0  0  0  0  0  0  0
   25.1326  -20.9143  -17.0321 C   0  0  0  0  0  0  0  0  0  0  0  0
   25.2077  -22.1362  -17.2797 O   0  0  0  0  0  0  0  0  0  0  0  0
   26.0350  -19.2533  -21.5326 O   0  0  0  0  0  0  0  0  0  0  0  0
   29.2337  -20.6548  -13.4836 C   0  0  0  0  0  0  0  0  0  0  0  0
   28.1535  -21.1120  -14.4905 C   0  0  2  0  0  0  0  0  0  0  0  0
   28.2677  -20.3381  -15.7509 C   0  0  0  0  0  0  0  0  0  0  0  0
   26.8273  -21.0697  -13.8336 C   0  0  0  0  0  0  0  0  0  0  0  0
   25.6583  -21.4065  -14.6656 C   0  0  2  0  0  0  0  0  0  0  0  0
   25.3818  -20.4829  -15.7074 N   0  0  0  0  0  0  0  0  0  0  0  0
   24.4396  -21.7224  -13.8514 C   0  0  0  0  0  0  0  0  0  0  0  0
   24.4093  -22.7838  -13.1763 O   0  0  0  0  0  0  0  0  0  0  0  0
   23.3017  -20.8803  -13.7984 N   0  0  0  0  0  0  0  0  0  0  0  0
   22.1451  -21.1643  -12.9321 C   0  0  1  0  0  0  0  0  0  0  0  0
   21.9883  -20.0891  -11.9160 C   0  0  0  0  0  0  0  0  0  0  0  0
   23.1084  -20.1233  -10.9651 C   0  0  0  0  0  0  0  0  0  0  0  0
   22.8739  -20.6528   -9.7122 C   0  0  0  0  0  0  0  0  0  0  0  0
   23.8576  -20.7335   -8.7662 C   0  0  0  0  0  0  0  0  0  0  0  0
   25.1197  -20.2716   -9.0760 C   0  0  0  0  0  0  0  0  0  0  0  0
   25.3837  -19.7399  -10.3135 C   0  0  0  0  0  0  0  0  0  0  0  0
   24.3683  -19.6742  -11.2424 C   0  0  0  0  0  0  0  0  0  0  0  0
   20.9642  -21.4811  -13.7274 C   0  0  0  0  0  0  0  0  0  0  0  0
   20.8854  -21.4538  -15.1095 O   0  0  0  0  0  0  0  0  0  0  0  0
   19.9015  -21.8132  -13.1170 O   0  0  0  0  0  0  0  0  0  0  0  0
  2  3  1  0
  2  1  1  1
  4  3  1  0
  5  4  2  0
  6  2  1  0
  7  6  2  0
  8  4  1  0
 10  9  1  1
 10 12  1  0
 10 11  1  0
 13 12  1  1
 13 14  1  0
 14  6  1  0
 15 13  1  0
 15 16  2  0
 17 15  1  0
 18 17  1  0
 18 19  1  6
 19 20  1  0
 20 21  2  0
 20 25  1  0
 21 22  1  0
 22 23  2  0
 24 23  1  0
 25 24  2  0
 26 18  1  0
 27 26  1  0
 28 26  2  0
M  END
$$$$
