DLF.pdb
     RDKit          3D

 28 28  0  0  1  0  0  0  0  0999 V2000
   26.4811  -38.9453   -6.9101 N   0  0  0  0  0  0  0  0  0  0  0  0
   27.0274  -37.6733   -6.5178 C   0  0  1  0  0  0  0  0  0  0  0  0
   26.5634  -36.5420   -7.3946 C   0  0  0  0  0  0  0  0  0  0  0  0
   27.3255  -35.3262   -7.0328 C   0  0  0  0  0  0  0  0  0  0  0  0
   28.1813  -35.4017   -6.1262 O   0  0  0  0  0  0  0  0  0  0  0  0
   26.6177  -37.3962   -5.1081 C   0  0  0  0  0  0  0  0  0  0  0  0
   25.4152  -37.2302   -4.8141 O   0  0  0  0  0  0  0  0  0  0  0  0
   27.0935  -34.1515   -7.6798 O   0  0  0  0  0  0  0  0  0  0  0  0
   26.6183  -39.5812   -1.3138 C   0  0  0  0  0  0  0  0  0  0  0  0
   28.0583  -39.0984   -1.6018 C   0  0  2  0  0  0  0  0  0  0  0  0
   28.9999  -39.6764   -0.6119 C   0  0  0  0  0  0  0  0  0  0  0  0
   28.0650  -37.6212   -1.7021 C   0  0  0  0  0  0  0  0  0  0  0  0
   27.2038  -37.0176   -2.7348 C   0  0  2  0  0  0  0  0  0  0  0  0
   27.5779  -37.3145   -4.0715 N   0  0  0  0  0  0  0  0  0  0  0  0
   26.9852  -35.5498   -2.5212 C   0  0  0  0  0  0  0  0  0  0  0  0
   27.9534  -34.7578   -2.6576 O   0  0  0  0  0  0  0  0  0  0  0  0
   25.7304  -34.9950   -2.1686 N   0  0  0  0  0  0  0  0  0  0  0  0
   25.5405  -33.5549   -1.9261 C   0  0  1  0  0  0  0  0  0  0  0  0
   24.5478  -32.9993   -2.8848 C   0  0  0  0  0  0  0  0  0  0  0  0
   24.2715  -31.5907   -2.5689 C   0  0  0  0  0  0  0  0  0  0  0  0
   25.1522  -30.6396   -3.0430 C   0  0  0  0  0  0  0  0  0  0  0  0
   24.9710  -29.3053   -2.8062 C   0  0  0  0  0  0  0  0  0  0  0  0
   23.8755  -28.9015   -2.0720 C   0  0  0  0  0  0  0  0  0  0  0  0
   22.9820  -29.8238   -1.5872 C   0  0  0  0  0  0  0  0  0  0  0  0
   23.1960  -31.1602   -1.8452 C   0  0  0  0  0  0  0  0  0  0  0  0
   25.2928  -33.2930   -0.5128 C   0  0  0  0  0  0  0  0  0  0  0  0
   25.7774  -32.2161    0.2100 O   0  0  0  0  0  0  0  0  0  0  0  0
   24.5709  -34.1149    0.1318 O   0  0  0  0  0  0  0  0  0  0  0  0
  2  3  1  0
  2  1  1  6
  4  3  1  0
  5  4  2  0
  6  2  1  0
  7  6  2  0
  8  4  1  0
 10  9  1  1
 10 12  1  0
 10 11  1  0
 13 12  1  1
 13 14  1  0
 14  6  1  0
 15 13  1  0
 15 16  2  0
 17 15  1  0
 18 17  1  0
 18 19  1  6
 19 20  1  0
 20 21  2  0
 20 25  1  0
 21 22  1  0
 22 23  2  0
 24 23  1  0
 25 24  2  0
 26 18  1  0
 27 26  1  0
 28 26  2  0
M  END
$$$$
