DLF.pdb
     RDKit          3D

 28 28  0  0  1  0  0  0  0  0999 V2000
   28.1150  -18.4890  -15.2864 N   0  0  0  0  0  0  0  0  0  0  0  0
   27.1217  -19.4319  -15.7273 C   0  0  1  0  0  0  0  0  0  0  0  0
   27.5767  -20.2544  -16.9022 C   0  0  0  0  0  0  0  0  0  0  0  0
   27.6895  -19.3659  -18.0803 C   0  0  0  0  0  0  0  0  0  0  0  0
   28.7860  -18.8157  -18.3145 O   0  0  0  0  0  0  0  0  0  0  0  0
   26.7974  -20.3451  -14.5902 C   0  0  0  0  0  0  0  0  0  0  0  0
   26.3120  -21.4768  -14.7994 O   0  0  0  0  0  0  0  0  0  0  0  0
   26.6149  -19.1570  -18.8891 O   0  0  0  0  0  0  0  0  0  0  0  0
   29.3158  -22.2619  -12.0326 C   0  0  0  0  0  0  0  0  0  0  0  0
   29.0303  -20.8908  -11.3782 C   0  0  2  0  0  0  0  0  0  0  0  0
   29.9703  -20.6533  -10.2555 C   0  0  0  0  0  0  0  0  0  0  0  0
   27.5924  -20.8055  -11.0357 C   0  0  0  0  0  0  0  0  0  0  0  0
   26.6386  -20.7723  -12.1588 C   0  0  2  0  0  0  0  0  0  0  0  0
   27.0308  -19.9538  -13.2503 N   0  0  0  0  0  0  0  0  0  0  0  0
   25.2335  -20.4915  -11.7175 C   0  0  0  0  0  0  0  0  0  0  0  0
   25.0207  -19.5599  -10.8989 O   0  0  0  0  0  0  0  0  0  0  0  0
   24.1139  -21.2277  -12.1768 N   0  0  0  0  0  0  0  0  0  0  0  0
   22.7297  -20.8659  -11.8272 C   0  0  1  0  0  0  0  0  0  0  0  0
   22.4618  -19.4486  -12.1918 C   0  0  0  0  0  0  0  0  0  0  0  0
   22.2326  -19.3322  -13.6389 C   0  0  0  0  0  0  0  0  0  0  0  0
   23.3147  -19.0284  -14.4400 C   0  0  0  0  0  0  0  0  0  0  0  0
   23.1981  -18.9088  -15.7970 C   0  0  0  0  0  0  0  0  0  0  0  0
   21.9621  -19.0979  -16.3789 C   0  0  0  0  0  0  0  0  0  0  0  0
   20.8673  -19.4012  -15.6086 C   0  0  0  0  0  0  0  0  0  0  0  0
   21.0216  -19.5139  -14.2441 C   0  0  0  0  0  0  0  0  0  0  0  0
   21.7879  -21.8553  -12.3384 C   0  0  0  0  0  0  0  0  0  0  0  0
   20.4536  -21.9638  -11.9852 O   0  0  0  0  0  0  0  0  0  0  0  0
   22.2094  -22.7037  -13.1838 O   0  0  0  0  0  0  0  0  0  0  0  0
  2  3  1  0
  2  1  1  1
  4  3  1  0
  5  4  2  0
  6  2  1  0
  7  6  2  0
  8  4  1  0
 10  9  1  1
 10 12  1  0
 10 11  1  0
 13 12  1  1
 13 14  1  0
 14  6  1  0
 15 13  1  0
 15 16  2  0
 17 15  1  0
 18 17  1  0
 18 19  1  6
 19 20  1  0
 20 21  2  0
 20 25  1  0
 21 22  1  0
 22 23  2  0
 24 23  1  0
 25 24  2  0
 26 18  1  0
 27 26  1  0
 28 26  2  0
M  END
$$$$
