DLF.pdb
     RDKit          3D

 28 28  0  0  1  0  0  0  0  0999 V2000
   15.2613  -21.8411    0.1342 N   0  0  0  0  0  0  0  0  0  0  0  0
   14.2085  -21.2522    0.9185 C   0  0  1  0  0  0  0  0  0  0  0  0
   13.0744  -22.2046    1.1843 C   0  0  0  0  0  0  0  0  0  0  0  0
   12.4413  -22.5512   -0.1076 C   0  0  0  0  0  0  0  0  0  0  0  0
   13.0141  -23.3707   -0.8561 O   0  0  0  0  0  0  0  0  0  0  0  0
   14.7833  -20.8037    2.2225 C   0  0  0  0  0  0  0  0  0  0  0  0
   14.0751  -20.2059    3.0599 O   0  0  0  0  0  0  0  0  0  0  0  0
   11.2572  -21.9843   -0.4668 O   0  0  0  0  0  0  0  0  0  0  0  0
   16.0119  -23.0803    5.8132 C   0  0  0  0  0  0  0  0  0  0  0  0
   16.9555  -23.0897    4.5887 C   0  0  2  0  0  0  0  0  0  0  0  0
   17.9328  -24.1997    4.7037 C   0  0  0  0  0  0  0  0  0  0  0  0
   17.5396  -21.7404    4.4145 C   0  0  0  0  0  0  0  0  0  0  0  0
   16.6734  -20.7093    3.8156 C   0  0  2  0  0  0  0  0  0  0  0  0
   16.1408  -21.0435    2.5430 N   0  0  0  0  0  0  0  0  0  0  0  0
   17.3010  -19.3477    3.8264 C   0  0  0  0  0  0  0  0  0  0  0  0
   18.2121  -19.0841    2.9996 O   0  0  0  0  0  0  0  0  0  0  0  0
   16.9207  -18.3248    4.7295 N   0  0  0  0  0  0  0  0  0  0  0  0
   17.6483  -17.0486    4.8336 C   0  0  1  0  0  0  0  0  0  0  0  0
   17.0827  -16.0558    3.8809 C   0  0  0  0  0  0  0  0  0  0  0  0
   17.8566  -14.8073    3.9310 C   0  0  0  0  0  0  0  0  0  0  0  0
   18.9827  -14.7153    3.1382 C   0  0  0  0  0  0  0  0  0  0  0  0
   19.7586  -13.5899    3.1131 C   0  0  0  0  0  0  0  0  0  0  0  0
   19.4030  -12.5175    3.9040 C   0  0  0  0  0  0  0  0  0  0  0  0
   18.2887  -12.5789    4.7029 C   0  0  0  0  0  0  0  0  0  0  0  0
   17.5299  -13.7290    4.7031 C   0  0  0  0  0  0  0  0  0  0  0  0
   17.7564  -16.6228    6.2244 C   0  0  0  0  0  0  0  0  0  0  0  0
   18.8081  -15.9105    6.7755 O   0  0  0  0  0  0  0  0  0  0  0  0
   16.8124  -16.9230    7.0186 O   0  0  0  0  0  0  0  0  0  0  0  0
  2  3  1  0
  2  1  1  6
  4  3  1  0
  5  4  2  0
  6  2  1  0
  7  6  2  0
  8  4  1  0
 10  9  1  1
 10 12  1  0
 10 11  1  0
 13 12  1  6
 13 14  1  0
 14  6  1  0
 15 13  1  0
 15 16  2  0
 17 15  1  0
 18 17  1  0
 18 19  1  6
 19 20  1  0
 20 21  2  0
 20 25  1  0
 21 22  1  0
 22 23  2  0
 24 23  1  0
 25 24  2  0
 26 18  1  0
 27 26  1  0
 28 26  2  0
M  END
$$$$
