CAN.pdb
     RDKit          3D

 20 19  0  0  1  0  0  0  0  0999 V2000
   21.5134  -16.4159  -17.0470 N   0  0  0  0  0  0  0  0  0  0  0  0
   22.3900  -15.3745  -17.5452 C   0  0  1  0  0  0  0  0  0  0  0  0
   21.9261  -15.0169  -18.9441 C   0  0  0  0  0  0  0  0  0  0  0  0
   22.6459  -16.2645  -20.0765 S   0  0  0  0  0  0  0  0  0  0  0  0
   22.2733  -14.2131  -16.6102 C   0  0  0  0  0  0  0  0  0  0  0  0
   21.1163  -13.8418  -16.2156 O   0  0  0  0  0  0  0  0  0  0  0  0
   24.5488  -12.0022  -14.6825 C   0  0  0  0  0  0  0  0  0  0  0  0
   23.2001  -12.3451  -15.3256 C   0  0  2  0  0  0  0  0  0  0  0  0
   23.4118  -13.5001  -16.1392 N   0  0  0  0  0  0  0  0  0  0  0  0
   22.7168  -11.1751  -16.0956 C   0  0  0  0  0  0  0  0  0  0  0  0
   23.0408  -10.9443  -17.2931 O   0  0  0  0  0  0  0  0  0  0  0  0
   19.8585   -6.9667  -17.4096 N   0  0  0  0  0  0  0  0  0  0  0  0
   19.1428   -7.8562  -16.5645 C   0  0  0  0  0  0  0  0  0  0  0  0
   17.8982   -7.6497  -16.4092 O   0  0  0  0  0  0  0  0  0  0  0  0
   19.7922   -8.9904  -15.8745 C   0  0  0  0  0  0  0  0  0  0  0  0
   21.2705   -9.0991  -16.2310 C   0  0  2  0  0  0  0  0  0  0  0  0
   21.8382  -10.2432  -15.4925 N   0  0  0  0  0  0  0  0  0  0  0  0
   21.9231   -7.8525  -15.8096 C   0  0  0  0  0  0  0  0  0  0  0  0
   21.7710   -6.7533  -16.6500 O   0  0  0  0  0  0  0  0  0  0  0  0
   22.5942   -7.7407  -14.7530 O   0  0  0  0  0  0  0  0  0  0  0  0
  2  5  1  0
  2  1  1  1
  3  2  1  0
  3  4  1  0
  5  6  2  0
  8  7  1  6
  9  8  1  0
  9  5  1  0
 10 11  2  0
 10  8  1  0
 13 15  1  0
 13 12  1  0
 14 13  2  0
 16 15  1  1
 16 18  1  0
 16 17  1  0
 17 10  1  0
 18 19  1  0
 20 18  2  0
M  END
$$$$
