CAN.pdb
     RDKit          3D

 20 19  0  0  1  0  0  0  0  0999 V2000
   17.9782  -13.6666  -16.9215 N   0  0  0  0  0  0  0  0  0  0  0  0
   17.5420  -12.8050  -15.8406 C   0  0  1  0  0  0  0  0  0  0  0  0
   18.2869  -13.2285  -14.5893 C   0  0  0  0  0  0  0  0  0  0  0  0
   17.3879  -14.6678  -13.8985 S   0  0  0  0  0  0  0  0  0  0  0  0
   17.8736  -11.4005  -16.2328 C   0  0  0  0  0  0  0  0  0  0  0  0
   19.0095  -11.1505  -16.7615 O   0  0  0  0  0  0  0  0  0  0  0  0
   16.1162   -8.1405  -16.4586 C   0  0  0  0  0  0  0  0  0  0  0  0
   17.3789   -9.0086  -16.4144 C   0  0  2  0  0  0  0  0  0  0  0  0
   16.9641  -10.3228  -16.0380 N   0  0  0  0  0  0  0  0  0  0  0  0
   18.3463   -8.4123  -15.4639 C   0  0  0  0  0  0  0  0  0  0  0  0
   18.4244   -8.7407  -14.2480 O   0  0  0  0  0  0  0  0  0  0  0  0
   22.1575   -5.3159  -13.5657 N   0  0  0  0  0  0  0  0  0  0  0  0
   22.2895   -5.4106  -14.9768 C   0  0  0  0  0  0  0  0  0  0  0  0
   23.2959   -4.8502  -15.5144 O   0  0  0  0  0  0  0  0  0  0  0  0
   21.3086   -6.1265  -15.8193 C   0  0  0  0  0  0  0  0  0  0  0  0
   20.1852   -6.7353  -14.9878 C   0  0  2  0  0  0  0  0  0  0  0  0
   19.2535   -7.4190  -15.9049 N   0  0  0  0  0  0  0  0  0  0  0  0
   19.4975   -5.6370  -14.2962 C   0  0  0  0  0  0  0  0  0  0  0  0
   19.8549   -5.4137  -12.9695 O   0  0  0  0  0  0  0  0  0  0  0  0
   18.6246   -4.9122  -14.8366 O   0  0  0  0  0  0  0  0  0  0  0  0
  2  5  1  0
  2  1  1  6
  3  2  1  0
  3  4  1  0
  5  6  2  0
  8  7  1  1
  9  8  1  0
  9  5  1  0
 10 11  2  0
 10  8  1  0
 13 15  1  0
 13 12  1  0
 14 13  2  0
 16 15  1  6
 16 18  1  0
 16 17  1  0
 17 10  1  0
 18 19  1  0
 20 18  2  0
M  END
$$$$
