CAN.pdb
     RDKit          3D

 20 19  0  0  1  0  0  0  0  0999 V2000
   17.8050  -13.8038  -15.8825 N   0  0  0  0  0  0  0  0  0  0  0  0
   17.4936  -12.4766  -16.3751 C   0  0  1  0  0  0  0  0  0  0  0  0
   16.4086  -11.9015  -15.4852 C   0  0  0  0  0  0  0  0  0  0  0  0
   14.8458  -12.7403  -15.9448 S   0  0  0  0  0  0  0  0  0  0  0  0
   18.7519  -11.6715  -16.3035 C   0  0  0  0  0  0  0  0  0  0  0  0
   19.4868  -11.7512  -15.2615 O   0  0  0  0  0  0  0  0  0  0  0  0
   20.9105   -9.7567  -18.5847 C   0  0  0  0  0  0  0  0  0  0  0  0
   20.3562  -10.0440  -17.1845 C   0  0  2  0  0  0  0  0  0  0  0  0
   19.1653  -10.8130  -17.3611 N   0  0  0  0  0  0  0  0  0  0  0  0
   20.1184   -8.7611  -16.4826 C   0  0  0  0  0  0  0  0  0  0  0  0
   19.0058   -8.1657  -16.4727 O   0  0  0  0  0  0  0  0  0  0  0  0
   21.1113   -4.3194  -13.8293 N   0  0  0  0  0  0  0  0  0  0  0  0
   22.0029   -5.3401  -13.4042 C   0  0  0  0  0  0  0  0  0  0  0  0
   22.7488   -5.0937  -12.4048 O   0  0  0  0  0  0  0  0  0  0  0  0
   22.0863   -6.6525  -14.0788 C   0  0  0  0  0  0  0  0  0  0  0  0
   21.0343   -6.7949  -15.1729 C   0  0  2  0  0  0  0  0  0  0  0  0
   21.1699   -8.1379  -15.7685 N   0  0  0  0  0  0  0  0  0  0  0  0
   21.3020   -5.7647  -16.1850 C   0  0  0  0  0  0  0  0  0  0  0  0
   20.5732   -4.5833  -16.0811 O   0  0  0  0  0  0  0  0  0  0  0  0
   22.1368   -5.9020  -17.1144 O   0  0  0  0  0  0  0  0  0  0  0  0
  2  5  1  0
  2  1  1  1
  3  2  1  0
  3  4  1  0
  5  6  2  0
  8  7  1  6
  9  8  1  0
  9  5  1  0
 10 11  2  0
 10  8  1  0
 13 15  1  0
 13 12  1  0
 14 13  2  0
 16 15  1  1
 16 18  1  0
 16 17  1  0
 17 10  1  0
 18 19  1  0
 20 18  2  0
M  END
$$$$
