CAN.pdb
     RDKit          3D

 20 19  0  0  1  0  0  0  0  0999 V2000
   24.5642  -12.3558  -17.4310 N   0  0  0  0  0  0  0  0  0  0  0  0
   24.6561  -11.4211  -16.3269 C   0  0  1  0  0  0  0  0  0  0  0  0
   26.1121  -11.0207  -16.1870 C   0  0  0  0  0  0  0  0  0  0  0  0
   26.9556  -12.3873  -15.3049 S   0  0  0  0  0  0  0  0  0  0  0  0
   23.7905  -10.2496  -16.6656 C   0  0  0  0  0  0  0  0  0  0  0  0
   23.9722   -9.6370  -17.7719 O   0  0  0  0  0  0  0  0  0  0  0  0
   20.4916   -9.0877  -15.8828 C   0  0  0  0  0  0  0  0  0  0  0  0
   21.9349   -8.7100  -16.2350 C   0  0  2  0  0  0  0  0  0  0  0  0
   22.7633   -9.7875  -15.7950 N   0  0  0  0  0  0  0  0  0  0  0  0
   22.2717   -7.4197  -15.5894 C   0  0  0  0  0  0  0  0  0  0  0  0
   22.7344   -7.3235  -14.4194 O   0  0  0  0  0  0  0  0  0  0  0  0
   22.4920   -1.3269  -17.1130 N   0  0  0  0  0  0  0  0  0  0  0  0
   22.6210   -2.4903  -16.3084 C   0  0  0  0  0  0  0  0  0  0  0  0
   23.1405   -2.3562  -15.1560 O   0  0  0  0  0  0  0  0  0  0  0  0
   22.1783   -3.8243  -16.7653 C   0  0  0  0  0  0  0  0  0  0  0  0
   22.4062   -4.8920  -15.7013 C   0  0  2  0  0  0  0  0  0  0  0  0
   22.0828   -6.2049  -16.2913 N   0  0  0  0  0  0  0  0  0  0  0  0
   21.5004   -4.6051  -14.5812 C   0  0  0  0  0  0  0  0  0  0  0  0
   22.0932   -4.2230  -13.3810 O   0  0  0  0  0  0  0  0  0  0  0  0
   20.2489   -4.6887  -14.6589 O   0  0  0  0  0  0  0  0  0  0  0  0
  2  5  1  0
  2  1  1  6
  3  2  1  0
  3  4  1  0
  5  6  2  0
  8  7  1  1
  9  8  1  0
  9  5  1  0
 10 11  2  0
 10  8  1  0
 13 15  1  0
 13 12  1  0
 14 13  2  0
 16 15  1  6
 16 18  1  0
 16 17  1  0
 17 10  1  0
 18 19  1  0
 20 18  2  0
M  END
$$$$
