CAN.pdb
     RDKit          3D

 20 19  0  0  1  0  0  0  0  0999 V2000
   14.2972  -10.8012  -10.5188 N   0  0  0  0  0  0  0  0  0  0  0  0
   15.4694  -10.3242   -9.8121 C   0  0  1  0  0  0  0  0  0  0  0  0
   16.6692  -11.0733  -10.3590 C   0  0  0  0  0  0  0  0  0  0  0  0
   16.6044  -12.7641   -9.6559 S   0  0  0  0  0  0  0  0  0  0  0  0
   15.5721   -8.8542  -10.0670 C   0  0  0  0  0  0  0  0  0  0  0  0
   15.4431   -8.4159  -11.2600 O   0  0  0  0  0  0  0  0  0  0  0  0
   15.5075   -5.7205   -8.1609 C   0  0  0  0  0  0  0  0  0  0  0  0
   15.9734   -6.5410   -9.3690 C   0  0  2  0  0  0  0  0  0  0  0  0
   15.8098   -7.9171   -9.0220 N   0  0  0  0  0  0  0  0  0  0  0  0
   17.3766   -6.1867   -9.6861 C   0  0  0  0  0  0  0  0  0  0  0  0
   18.3593   -6.5094   -8.9633 O   0  0  0  0  0  0  0  0  0  0  0  0
   21.6398   -5.1447  -12.4347 N   0  0  0  0  0  0  0  0  0  0  0  0
   21.0205   -6.4113  -12.2622 C   0  0  0  0  0  0  0  0  0  0  0  0
   21.6650   -7.4398  -12.6403 O   0  0  0  0  0  0  0  0  0  0  0  0
   19.6754   -6.5629  -11.6690 C   0  0  0  0  0  0  0  0  0  0  0  0
   19.0578   -5.2151  -11.3139 C   0  0  2  0  0  0  0  0  0  0  0  0
   17.6746   -5.4496  -10.8574 N   0  0  0  0  0  0  0  0  0  0  0  0
   19.0550   -4.3920  -12.5304 C   0  0  0  0  0  0  0  0  0  0  0  0
   20.1184   -3.5076  -12.6882 O   0  0  0  0  0  0  0  0  0  0  0  0
   18.1581   -4.4507  -13.4087 O   0  0  0  0  0  0  0  0  0  0  0  0
  2  5  1  0
  2  1  1  6
  3  2  1  0
  3  4  1  0
  5  6  2  0
  8  7  1  1
  9  8  1  0
  9  5  1  0
 10 11  2  0
 10  8  1  0
 13 15  1  0
 13 12  1  0
 14 13  2  0
 16 15  1  6
 16 18  1  0
 16 17  1  0
 17 10  1  0
 18 19  1  0
 20 18  2  0
M  END
$$$$
