CAN.pdb
     RDKit          3D

 20 19  0  0  1  0  0  0  0  0999 V2000
   13.8101  -10.8815  -10.5489 N   0  0  0  0  0  0  0  0  0  0  0  0
   15.1503  -10.3472  -10.4092 C   0  0  1  0  0  0  0  0  0  0  0  0
   15.9296  -10.7372  -11.6504 C   0  0  0  0  0  0  0  0  0  0  0  0
   16.6816  -12.3733  -11.3121 S   0  0  0  0  0  0  0  0  0  0  0  0
   15.0235   -8.8627  -10.2796 C   0  0  0  0  0  0  0  0  0  0  0  0
   14.2635   -8.2272  -11.0862 O   0  0  0  0  0  0  0  0  0  0  0  0
   15.6446   -6.2339   -7.8424 C   0  0  0  0  0  0  0  0  0  0  0  0
   15.6287   -6.6997   -9.3028 C   0  0  2  0  0  0  0  0  0  0  0  0
   15.7231   -8.1250   -9.2831 N   0  0  0  0  0  0  0  0  0  0  0  0
   16.7464   -6.0554  -10.0313 C   0  0  0  0  0  0  0  0  0  0  0  0
   16.8745   -4.8058  -10.1509 O   0  0  0  0  0  0  0  0  0  0  0  0
   21.3701   -5.4847  -12.4586 N   0  0  0  0  0  0  0  0  0  0  0  0
   21.1429   -6.8698  -12.2409 C   0  0  0  0  0  0  0  0  0  0  0  0
   22.0724   -7.6772  -12.5572 O   0  0  0  0  0  0  0  0  0  0  0  0
   19.8816   -7.3869  -11.6700 C   0  0  0  0  0  0  0  0  0  0  0  0
   18.9062   -6.2627  -11.3399 C   0  0  2  0  0  0  0  0  0  0  0  0
   17.7493   -6.8497  -10.6375 N   0  0  0  0  0  0  0  0  0  0  0  0
   18.4744   -5.6610  -12.6083 C   0  0  0  0  0  0  0  0  0  0  0  0
   19.0926   -4.4693  -12.9764 O   0  0  0  0  0  0  0  0  0  0  0  0
   17.5948   -6.1623  -13.3529 O   0  0  0  0  0  0  0  0  0  0  0  0
  2  5  1  0
  2  1  1  6
  3  2  1  0
  3  4  1  0
  5  6  2  0
  8  7  1  1
  9  8  1  0
  9  5  1  0
 10 11  2  0
 10  8  1  0
 13 15  1  0
 13 12  1  0
 14 13  2  0
 16 15  1  6
 16 18  1  0
 16 17  1  0
 17 10  1  0
 18 19  1  0
 20 18  2  0
M  END
$$$$
