CAN.pdb
     RDKit          3D

 20 19  0  0  1  0  0  0  0  0999 V2000
   18.8953   -8.1066  -15.0479 N   0  0  0  0  0  0  0  0  0  0  0  0
   20.2941   -8.1215  -15.4279 C   0  0  1  0  0  0  0  0  0  0  0  0
   20.6083   -9.5063  -15.9604 C   0  0  0  0  0  0  0  0  0  0  0  0
   20.5734  -10.6464  -14.5265 S   0  0  0  0  0  0  0  0  0  0  0  0
   20.4791   -7.0709  -16.4760 C   0  0  0  0  0  0  0  0  0  0  0  0
   21.6486   -6.8505  -16.9408 O   0  0  0  0  0  0  0  0  0  0  0  0
   18.6326   -5.3724  -19.0335 C   0  0  0  0  0  0  0  0  0  0  0  0
   19.6757   -5.2597  -17.9158 C   0  0  2  0  0  0  0  0  0  0  0  0
   19.3927   -6.3012  -16.9798 N   0  0  0  0  0  0  0  0  0  0  0  0
   19.6023   -3.9068  -17.3163 C   0  0  0  0  0  0  0  0  0  0  0  0
   19.7864   -2.8425  -17.9686 O   0  0  0  0  0  0  0  0  0  0  0  0
   15.5836   -1.7892  -14.7178 N   0  0  0  0  0  0  0  0  0  0  0  0
   16.9682   -1.4792  -14.6535 C   0  0  0  0  0  0  0  0  0  0  0  0
   17.3156   -0.2784  -14.8848 O   0  0  0  0  0  0  0  0  0  0  0  0
   17.9945   -2.4933  -14.3331 C   0  0  0  0  0  0  0  0  0  0  0  0
   19.1713   -2.4336  -15.3004 C   0  0  2  0  0  0  0  0  0  0  0  0
   19.3079   -3.7561  -15.9398 N   0  0  0  0  0  0  0  0  0  0  0  0
   20.3755   -2.1244  -14.5183 C   0  0  0  0  0  0  0  0  0  0  0  0
   21.3254   -3.1360  -14.4086 O   0  0  0  0  0  0  0  0  0  0  0  0
   20.5776   -1.0169  -13.9597 O   0  0  0  0  0  0  0  0  0  0  0  0
  2  5  1  0
  2  1  1  6
  3  2  1  0
  3  4  1  0
  5  6  2  0
  8  7  1  6
  9  8  1  0
  9  5  1  0
 10 11  2  0
 10  8  1  0
 13 15  1  0
 13 12  1  0
 14 13  2  0
 16 15  1  1
 16 18  1  0
 16 17  1  0
 17 10  1  0
 18 19  1  0
 20 18  2  0
M  END
$$$$
