CAN.pdb
     RDKit          3D

 20 19  0  0  1  0  0  0  0  0999 V2000
   19.9933  -14.3405  -16.9028 N   0  0  0  0  0  0  0  0  0  0  0  0
   19.1452  -13.4836  -16.0981 C   0  0  1  0  0  0  0  0  0  0  0  0
   19.4385  -13.7879  -14.6416 C   0  0  0  0  0  0  0  0  0  0  0  0
   18.4734  -15.2837  -14.2076 S   0  0  0  0  0  0  0  0  0  0  0  0
   19.4861  -12.0699  -16.4471 C   0  0  0  0  0  0  0  0  0  0  0  0
   20.7126  -11.7153  -16.4924 O   0  0  0  0  0  0  0  0  0  0  0  0
   17.7128   -9.0928  -17.7548 C   0  0  0  0  0  0  0  0  0  0  0  0
   18.9072   -9.7753  -17.0784 C   0  0  2  0  0  0  0  0  0  0  0  0
   18.4875  -11.0965  -16.7334 N   0  0  0  0  0  0  0  0  0  0  0  0
   19.3237   -8.9747  -15.9033 C   0  0  0  0  0  0  0  0  0  0  0  0
   18.9556   -9.2233  -14.7222 O   0  0  0  0  0  0  0  0  0  0  0  0
   21.8555   -5.3951  -12.9975 N   0  0  0  0  0  0  0  0  0  0  0  0
   22.4289   -5.4293  -14.2965 C   0  0  0  0  0  0  0  0  0  0  0  0
   23.4360   -4.6855  -14.5168 O   0  0  0  0  0  0  0  0  0  0  0  0
   21.8971   -6.2867  -15.3764 C   0  0  0  0  0  0  0  0  0  0  0  0
   20.6497   -7.0444  -14.9359 C   0  0  2  0  0  0  0  0  0  0  0  0
   20.1849   -7.8637  -16.0713 N   0  0  0  0  0  0  0  0  0  0  0  0
   19.6282   -6.0513  -14.5787 C   0  0  0  0  0  0  0  0  0  0  0  0
   19.3984   -5.8530  -13.2202 O   0  0  0  0  0  0  0  0  0  0  0  0
   18.9717   -5.3928  -15.4241 O   0  0  0  0  0  0  0  0  0  0  0  0
  2  5  1  0
  2  1  1  6
  3  2  1  0
  3  4  1  0
  5  6  2  0
  8  7  1  1
  9  8  1  0
  9  5  1  0
 10 11  2  0
 10  8  1  0
 13 15  1  0
 13 12  1  0
 14 13  2  0
 16 15  1  6
 16 18  1  0
 16 17  1  0
 17 10  1  0
 18 19  1  0
 20 18  2  0
M  END
$$$$
