CAN.pdb
     RDKit          3D

 20 19  0  0  1  0  0  0  0  0999 V2000
   16.7338  -12.1768  -16.5328 N   0  0  0  0  0  0  0  0  0  0  0  0
   16.3999  -11.2702  -15.4522 C   0  0  1  0  0  0  0  0  0  0  0  0
   17.1399  -11.7412  -14.2152 C   0  0  0  0  0  0  0  0  0  0  0  0
   16.1683  -13.1259  -13.5111 S   0  0  0  0  0  0  0  0  0  0  0  0
   16.8372   -9.9027  -15.8709 C   0  0  0  0  0  0  0  0  0  0  0  0
   17.9769   -9.7540  -16.4285 O   0  0  0  0  0  0  0  0  0  0  0  0
   15.3848   -6.4858  -16.0125 C   0  0  0  0  0  0  0  0  0  0  0  0
   16.5558   -7.4749  -16.0311 C   0  0  2  0  0  0  0  0  0  0  0  0
   16.0247   -8.7511  -15.6703 N   0  0  0  0  0  0  0  0  0  0  0  0
   17.6075   -7.0015  -15.1011 C   0  0  0  0  0  0  0  0  0  0  0  0
   17.6850   -7.3588  -13.8934 O   0  0  0  0  0  0  0  0  0  0  0  0
   21.9508   -4.8450  -13.2017 N   0  0  0  0  0  0  0  0  0  0  0  0
   22.0768   -5.9029  -14.1410 C   0  0  0  0  0  0  0  0  0  0  0  0
   23.2136   -6.4607  -14.2529 O   0  0  0  0  0  0  0  0  0  0  0  0
   20.9465   -6.3623  -14.9752 C   0  0  0  0  0  0  0  0  0  0  0  0
   19.6676   -5.5903  -14.6711 C   0  0  2  0  0  0  0  0  0  0  0  0
   18.6017   -6.1012  -15.5540 N   0  0  0  0  0  0  0  0  0  0  0  0
   19.9241   -4.1728  -14.9578 C   0  0  0  0  0  0  0  0  0  0  0  0
   20.2491   -3.3651  -13.8716 O   0  0  0  0  0  0  0  0  0  0  0  0
   19.8633   -3.6733  -16.1094 O   0  0  0  0  0  0  0  0  0  0  0  0
  2  5  1  0
  2  1  1  6
  3  2  1  0
  3  4  1  0
  5  6  2  0
  8  7  1  1
  9  8  1  0
  9  5  1  0
 10 11  2  0
 10  8  1  0
 13 15  1  0
 13 12  1  0
 14 13  2  0
 16 15  1  6
 16 18  1  0
 16 17  1  0
 17 10  1  0
 18 19  1  0
 20 18  2  0
M  END
$$$$
