CAN.pdb
     RDKit          3D

 20 19  0  0  1  0  0  0  0  0999 V2000
   17.7328  -13.3184  -13.6406 N   0  0  0  0  0  0  0  0  0  0  0  0
   17.0110  -12.1047  -13.9679 C   0  0  1  0  0  0  0  0  0  0  0  0
   15.5365  -12.4531  -14.0329 C   0  0  0  0  0  0  0  0  0  0  0  0
   15.2414  -13.2053  -15.6774 S   0  0  0  0  0  0  0  0  0  0  0  0
   17.2978  -11.1138  -12.8851 C   0  0  0  0  0  0  0  0  0  0  0  0
   17.2543  -11.4905  -11.6651 O   0  0  0  0  0  0  0  0  0  0  0  0
   18.8417   -7.7998  -12.5805 C   0  0  0  0  0  0  0  0  0  0  0  0
   17.8846   -8.8813  -12.0663 C   0  0  2  0  0  0  0  0  0  0  0  0
   17.6204   -9.7557  -13.1646 N   0  0  0  0  0  0  0  0  0  0  0  0
   16.6623   -8.2358  -11.5330 C   0  0  0  0  0  0  0  0  0  0  0  0
   15.6317   -8.0110  -12.2255 O   0  0  0  0  0  0  0  0  0  0  0  0
   13.3361   -5.9308   -8.1739 N   0  0  0  0  0  0  0  0  0  0  0  0
   14.3331   -6.6270   -7.4399 C   0  0  0  0  0  0  0  0  0  0  0  0
   14.2255   -6.6501   -6.1735 O   0  0  0  0  0  0  0  0  0  0  0  0
   15.4689   -7.3096   -8.0944 C   0  0  0  0  0  0  0  0  0  0  0  0
   15.4433   -7.1277   -9.6078 C   0  0  2  0  0  0  0  0  0  0  0  0
   16.6051   -7.8378  -10.1756 N   0  0  0  0  0  0  0  0  0  0  0  0
   15.5462   -5.6891   -9.8853 C   0  0  0  0  0  0  0  0  0  0  0  0
   14.3572   -5.0198  -10.1612 O   0  0  0  0  0  0  0  0  0  0  0  0
   16.6317   -5.0558   -9.8848 O   0  0  0  0  0  0  0  0  0  0  0  0
  2  5  1  0
  2  1  1  1
  3  2  1  0
  3  4  1  0
  5  6  2  0
  8  7  1  6
  9  8  1  0
  9  5  1  0
 10 11  2  0
 10  8  1  0
 13 15  1  0
 13 12  1  0
 14 13  2  0
 16 15  1  1
 16 18  1  0
 16 17  1  0
 17 10  1  0
 18 19  1  0
 20 18  2  0
M  END
$$$$
