PPI.pdb
     RDKit          3D

 23 24  0  0  1  0  0  0  0  0999 V2000
   24.6113  -17.3330  -15.5737 N   0  0  0  0  0  0  0  0  0  0  0  0
   25.0589  -16.0416  -16.1661 C   0  0  0  0  0  0  0  0  0  0  0  0
   25.7381  -15.4526  -14.9206 C   0  0  0  0  0  0  0  0  0  0  0  0
   26.3883  -16.7081  -14.3161 C   0  0  0  0  0  0  0  0  0  0  0  0
   25.9092  -17.8434  -15.1992 C   0  0  1  0  0  0  0  0  0  0  0  0
   25.9468  -19.1234  -14.5210 C   0  0  0  0  0  0  0  0  0  0  0  0
   24.7861  -19.6948  -14.4580 O   0  0  0  0  0  0  0  0  0  0  0  0
   27.0383  -19.8020  -13.9426 N   0  0  0  0  0  0  0  0  0  0  0  0
   28.4123  -19.4262  -13.7483 C   0  0  0  0  0  0  0  0  0  0  0  0
   29.1070  -20.6208  -14.3885 C   0  0  0  0  0  0  0  0  0  0  0  0
   28.2495  -21.7599  -13.8140 C   0  0  0  0  0  0  0  0  0  0  0  0
   26.9549  -21.1286  -13.3677 C   0  0  1  0  0  0  0  0  0  0  0  0
   26.9169  -21.1399  -11.8919 C   0  0  0  0  0  0  0  0  0  0  0  0
   28.0468  -21.2388  -11.3271 O   0  0  0  0  0  0  0  0  0  0  0  0
   27.6192  -19.2155   -6.8790 C   0  0  0  0  0  0  0  0  0  0  0  0
   26.9734  -20.3968   -7.5490 C   0  0  0  0  0  0  0  0  0  0  0  0
   26.8053  -20.2654   -9.0139 C   0  0  2  0  0  0  0  0  0  0  0  0
   26.4265  -18.8321   -9.4165 C   0  0  0  0  0  0  0  0  0  0  0  0
   25.8516  -21.2234   -9.6642 C   0  0  2  0  0  0  0  0  0  0  0  0
   25.7774  -21.0547  -11.0939 N   0  0  0  0  0  0  0  0  0  0  0  0
   24.5502  -21.2981   -8.9879 C   0  0  0  0  0  0  0  0  0  0  0  0
   24.4686  -21.9447   -7.7539 O   0  0  0  0  0  0  0  0  0  0  0  0
   23.5052  -20.8047   -9.4754 O   0  0  0  0  0  0  0  0  0  0  0  0
  1  5  1  0
  1  2  1  0
  2  3  1  0
  4  3  1  0
  5  4  1  0
  6  8  1  0
  5  6  1  1
  7  6  2  0
  8 12  1  0
  9 10  1  0
  9  8  1  0
 10 11  1  0
 11 12  1  0
 12 13  1  1
 13 14  2  0
 16 15  1  0
 17 16  1  0
 17 18  1  1
 19 17  1  0
 19 20  1  6
 20 13  1  0
 21 19  1  0
 22 21  1  0
 23 21  2  0
M  END
$$$$
