PPI.pdb
     RDKit          3D

 23 24  0  0  1  0  0  0  0  0999 V2000
   26.0985  -19.1859  -14.2491 N   0  0  0  0  0  0  0  0  0  0  0  0
   26.5346  -18.1536  -15.2305 C   0  0  0  0  0  0  0  0  0  0  0  0
   27.1642  -17.1619  -14.2407 C   0  0  0  0  0  0  0  0  0  0  0  0
   27.8239  -18.1229  -13.2378 C   0  0  0  0  0  0  0  0  0  0  0  0
   27.3958  -19.5020  -13.6993 C   0  0  1  0  0  0  0  0  0  0  0  0
   27.4418  -20.4801  -12.6312 C   0  0  0  0  0  0  0  0  0  0  0  0
   26.3292  -21.1288  -12.4934 O   0  0  0  0  0  0  0  0  0  0  0  0
   28.4973  -20.8054  -11.7558 N   0  0  0  0  0  0  0  0  0  0  0  0
   29.8327  -20.2896  -11.6239 C   0  0  0  0  0  0  0  0  0  0  0  0
   30.6265  -21.5874  -11.6941 C   0  0  0  0  0  0  0  0  0  0  0  0
   29.7595  -22.4730  -10.7846 C   0  0  0  0  0  0  0  0  0  0  0  0
   28.4072  -21.8096  -10.7161 C   0  0  1  0  0  0  0  0  0  0  0  0
   28.2307  -21.2530   -9.3601 C   0  0  0  0  0  0  0  0  0  0  0  0
   29.1937  -20.5434   -8.9423 O   0  0  0  0  0  0  0  0  0  0  0  0
   28.6223  -18.3064   -4.9843 C   0  0  0  0  0  0  0  0  0  0  0  0
   28.0204  -19.6476   -5.3016 C   0  0  0  0  0  0  0  0  0  0  0  0
   27.7543  -19.8853   -6.7383 C   0  0  2  0  0  0  0  0  0  0  0  0
   26.8287  -18.8117   -7.3305 C   0  0  0  0  0  0  0  0  0  0  0  0
   27.2257  -21.2409   -7.1031 C   0  0  2  0  0  0  0  0  0  0  0  0
   27.1283  -21.4384   -8.5277 N   0  0  0  0  0  0  0  0  0  0  0  0
   26.0239  -21.6192   -6.3487 C   0  0  0  0  0  0  0  0  0  0  0  0
   24.8829  -22.0095   -7.0511 O   0  0  0  0  0  0  0  0  0  0  0  0
   25.9794  -21.6047   -5.0954 O   0  0  0  0  0  0  0  0  0  0  0  0
  1  5  1  0
  1  2  1  0
  2  3  1  0
  4  3  1  0
  5  4  1  0
  6  8  1  0
  5  6  1  1
  7  6  2  0
  8 12  1  0
  9 10  1  0
  9  8  1  0
 10 11  1  0
 11 12  1  0
 12 13  1  1
 13 14  2  0
 16 15  1  0
 17 16  1  0
 17 18  1  1
 19 17  1  0
 19 20  1  6
 20 13  1  0
 21 19  1  0
 22 21  1  0
 23 21  2  0
M  END
$$$$
