PPI.pdb
     RDKit          3D

 23 24  0  0  1  0  0  0  0  0999 V2000
   27.7514  -19.9205  -17.1308 N   0  0  0  0  0  0  0  0  0  0  0  0
   28.2744  -18.7728  -17.9235 C   0  0  0  0  0  0  0  0  0  0  0  0
   27.6810  -17.6347  -17.0794 C   0  0  0  0  0  0  0  0  0  0  0  0
   27.8474  -18.2011  -15.6596 C   0  0  0  0  0  0  0  0  0  0  0  0
   28.3855  -19.6023  -15.8731 C   0  0  1  0  0  0  0  0  0  0  0  0
   28.1076  -20.4767  -14.7515 C   0  0  0  0  0  0  0  0  0  0  0  0
   27.3688  -21.4907  -15.0738 O   0  0  0  0  0  0  0  0  0  0  0  0
   28.5191  -20.3726  -13.4076 N   0  0  0  0  0  0  0  0  0  0  0  0
   29.3738  -19.4345  -12.7322 C   0  0  0  0  0  0  0  0  0  0  0  0
   30.3473  -20.3962  -12.0639 C   0  0  0  0  0  0  0  0  0  0  0  0
   29.3579  -21.4559  -11.5528 C   0  0  0  0  0  0  0  0  0  0  0  0
   28.0959  -21.2768  -12.3584 C   0  0  1  0  0  0  0  0  0  0  0  0
   27.0542  -20.7200  -11.4726 C   0  0  0  0  0  0  0  0  0  0  0  0
   27.1445  -19.4749  -11.2554 O   0  0  0  0  0  0  0  0  0  0  0  0
   22.4658  -21.1259  -13.2866 C   0  0  0  0  0  0  0  0  0  0  0  0
   23.6971  -20.7270  -12.5209 C   0  0  0  0  0  0  0  0  0  0  0  0
   23.6180  -20.9458  -11.0589 C   0  0  2  0  0  0  0  0  0  0  0  0
   22.5046  -20.1041  -10.4173 C   0  0  0  0  0  0  0  0  0  0  0  0
   24.8877  -20.7470  -10.2853 C   0  0  2  0  0  0  0  0  0  0  0  0
   26.0138  -21.4280  -10.8738 N   0  0  0  0  0  0  0  0  0  0  0  0
   24.7289  -20.9611   -8.8411 C   0  0  0  0  0  0  0  0  0  0  0  0
   25.4393  -21.9961   -8.2316 O   0  0  0  0  0  0  0  0  0  0  0  0
   23.9777  -20.2512   -8.1306 O   0  0  0  0  0  0  0  0  0  0  0  0
  1  5  1  0
  1  2  1  0
  2  3  1  0
  4  3  1  0
  5  4  1  0
  6  8  1  0
  5  6  1  1
  7  6  2  0
  8 12  1  0
  9 10  1  0
  9  8  1  0
 10 11  1  0
 11 12  1  0
 12 13  1  1
 13 14  2  0
 16 15  1  0
 17 16  1  0
 17 18  1  1
 19 17  1  0
 19 20  1  6
 20 13  1  0
 21 19  1  0
 22 21  1  0
 23 21  2  0
M  END
$$$$
