PPI.pdb
     RDKit          3D

 23 24  0  0  1  0  0  0  0  0999 V2000
   27.7568  -22.3183  -17.6338 N   0  0  0  0  0  0  0  0  0  0  0  0
   27.1177  -22.5059  -18.9662 C   0  0  0  0  0  0  0  0  0  0  0  0
   25.6740  -22.7229  -18.4884 C   0  0  0  0  0  0  0  0  0  0  0  0
   25.5939  -21.7222  -17.3237 C   0  0  0  0  0  0  0  0  0  0  0  0
   26.9992  -21.1653  -17.2074 C   0  0  1  0  0  0  0  0  0  0  0  0
   27.2776  -20.6421  -15.8852 C   0  0  0  0  0  0  0  0  0  0  0  0
   28.2006  -21.3057  -15.2645 O   0  0  0  0  0  0  0  0  0  0  0  0
   26.6978  -19.5484  -15.2114 N   0  0  0  0  0  0  0  0  0  0  0  0
   25.6975  -18.5944  -15.6064 C   0  0  0  0  0  0  0  0  0  0  0  0
   26.4334  -17.2966  -15.3009 C   0  0  0  0  0  0  0  0  0  0  0  0
   27.0445  -17.6579  -13.9374 C   0  0  0  0  0  0  0  0  0  0  0  0
   27.0306  -19.1634  -13.8554 C   0  0  1  0  0  0  0  0  0  0  0  0
   26.0222  -19.5651  -12.8547 C   0  0  0  0  0  0  0  0  0  0  0  0
   24.9374  -20.0097  -13.3353 O   0  0  0  0  0  0  0  0  0  0  0  0
   27.7479  -20.2722   -7.6097 C   0  0  0  0  0  0  0  0  0  0  0  0
   27.1118  -20.7890   -8.8706 C   0  0  0  0  0  0  0  0  0  0  0  0
   25.7719  -20.2325   -9.1641 C   0  0  2  0  0  0  0  0  0  0  0  0
   24.6869  -20.8657   -8.2800 C   0  0  0  0  0  0  0  0  0  0  0  0
   25.3271  -20.2850  -10.5958 C   0  0  2  0  0  0  0  0  0  0  0  0
   26.1598  -19.4968  -11.4695 N   0  0  0  0  0  0  0  0  0  0  0  0
   23.8844  -20.0687  -10.7652 C   0  0  0  0  0  0  0  0  0  0  0  0
   23.0192  -21.1541  -10.6216 O   0  0  0  0  0  0  0  0  0  0  0  0
   23.3960  -18.9456  -11.0361 O   0  0  0  0  0  0  0  0  0  0  0  0
  1  5  1  0
  1  2  1  0
  2  3  1  0
  4  3  1  0
  5  4  1  0
  6  8  1  0
  5  6  1  1
  7  6  2  0
  8 12  1  0
  9 10  1  0
  9  8  1  0
 10 11  1  0
 11 12  1  0
 12 13  1  1
 13 14  2  0
 16 15  1  0
 17 16  1  0
 17 18  1  1
 19 17  1  0
 19 20  1  6
 20 13  1  0
 21 19  1  0
 22 21  1  0
 23 21  2  0
M  END
$$$$
