PPI.pdb
     RDKit          3D

 23 24  0  0  1  0  0  0  0  0999 V2000
   25.2934  -18.2951  -15.6732 N   0  0  0  0  0  0  0  0  0  0  0  0
   25.6158  -16.9202  -16.1473 C   0  0  0  0  0  0  0  0  0  0  0  0
   25.7698  -16.2456  -14.7758 C   0  0  0  0  0  0  0  0  0  0  0  0
   26.4628  -17.3597  -13.9739 C   0  0  0  0  0  0  0  0  0  0  0  0
   26.5043  -18.5393  -14.9253 C   0  0  1  0  0  0  0  0  0  0  0  0
   26.6085  -19.8059  -14.2292 C   0  0  0  0  0  0  0  0  0  0  0  0
   25.6790  -20.6434  -14.5646 O   0  0  0  0  0  0  0  0  0  0  0  0
   27.5517  -20.2299  -13.2716 N   0  0  0  0  0  0  0  0  0  0  0  0
   28.6028  -19.5332  -12.5812 C   0  0  0  0  0  0  0  0  0  0  0  0
   29.7780  -20.4503  -12.8930 C   0  0  0  0  0  0  0  0  0  0  0  0
   29.1110  -21.8162  -12.6641 C   0  0  0  0  0  0  0  0  0  0  0  0
   27.6245  -21.5783  -12.7480 C   0  0  1  0  0  0  0  0  0  0  0  0
   27.0530  -21.7265  -11.3948 C   0  0  0  0  0  0  0  0  0  0  0  0
   27.1313  -22.8922  -10.9044 O   0  0  0  0  0  0  0  0  0  0  0  0
   27.1543  -18.6927   -6.7372 C   0  0  0  0  0  0  0  0  0  0  0  0
   26.5675  -19.1205   -8.0542 C   0  0  0  0  0  0  0  0  0  0  0  0
   26.3477  -20.5779   -8.1926 C   0  0  2  0  0  0  0  0  0  0  0  0
   27.6489  -21.3705   -7.9961 C   0  0  0  0  0  0  0  0  0  0  0  0
   25.6840  -21.0348   -9.4579 C   0  0  2  0  0  0  0  0  0  0  0  0
   26.4526  -20.7228  -10.6369 N   0  0  0  0  0  0  0  0  0  0  0  0
   24.2647  -20.6658   -9.5366 C   0  0  0  0  0  0  0  0  0  0  0  0
   23.7965  -20.0317  -10.6882 O   0  0  0  0  0  0  0  0  0  0  0  0
   23.4534  -20.8962   -8.6083 O   0  0  0  0  0  0  0  0  0  0  0  0
  1  5  1  0
  1  2  1  0
  2  3  1  0
  4  3  1  0
  5  4  1  0
  6  8  1  0
  5  6  1  1
  7  6  2  0
  8 12  1  0
  9 10  1  0
  9  8  1  0
 10 11  1  0
 11 12  1  0
 12 13  1  1
 13 14  2  0
 16 15  1  0
 17 16  1  0
 17 18  1  6
 19 17  1  0
 19 20  1  6
 20 13  1  0
 21 19  1  0
 22 21  1  0
 23 21  2  0
M  END
$$$$
