PPI.pdb
     RDKit          3D

 23 24  0  0  1  0  0  0  0  0999 V2000
   28.4383  -21.1222  -18.1559 N   0  0  0  0  0  0  0  0  0  0  0  0
   28.5848  -22.2878  -19.0719 C   0  0  0  0  0  0  0  0  0  0  0  0
   29.7807  -22.9606  -18.3813 C   0  0  0  0  0  0  0  0  0  0  0  0
   29.4431  -22.7177  -16.9010 C   0  0  0  0  0  0  0  0  0  0  0  0
   28.1972  -21.8545  -16.9350 C   0  0  1  0  0  0  0  0  0  0  0  0
   28.0287  -21.0811  -15.7213 C   0  0  0  0  0  0  0  0  0  0  0  0
   28.6670  -21.5820  -14.7116 O   0  0  0  0  0  0  0  0  0  0  0  0
   27.2895  -19.9011  -15.5032 N   0  0  0  0  0  0  0  0  0  0  0  0
   26.4598  -19.1103  -16.3710 C   0  0  0  0  0  0  0  0  0  0  0  0
   27.0888  -17.7392  -16.1621 C   0  0  0  0  0  0  0  0  0  0  0  0
   27.2694  -17.7647  -14.6358 C   0  0  0  0  0  0  0  0  0  0  0  0
   27.2149  -19.2157  -14.2295 C   0  0  1  0  0  0  0  0  0  0  0  0
   25.9530  -19.4466  -13.4987 C   0  0  0  0  0  0  0  0  0  0  0  0
   24.9875  -19.8535  -14.2113 O   0  0  0  0  0  0  0  0  0  0  0  0
   25.9004  -21.4218   -7.6682 C   0  0  0  0  0  0  0  0  0  0  0  0
   25.2447  -21.3785   -9.0209 C   0  0  0  0  0  0  0  0  0  0  0  0
   25.7823  -20.3497   -9.9396 C   0  0  2  0  0  0  0  0  0  0  0  0
   25.7207  -18.9455   -9.3196 C   0  0  0  0  0  0  0  0  0  0  0  0
   25.1819  -20.3035  -11.3135 C   0  0  2  0  0  0  0  0  0  0  0  0
   25.7422  -19.2590  -12.1339 N   0  0  0  0  0  0  0  0  0  0  0  0
   23.7143  -20.3583  -11.3094 C   0  0  0  0  0  0  0  0  0  0  0  0
   22.9985  -19.2737  -11.8179 O   0  0  0  0  0  0  0  0  0  0  0  0
   23.0754  -21.3418  -10.8651 O   0  0  0  0  0  0  0  0  0  0  0  0
  1  5  1  0
  1  2  1  0
  2  3  1  0
  4  3  1  0
  5  4  1  0
  6  8  1  0
  5  6  1  1
  7  6  2  0
  8 12  1  0
  9 10  1  0
  9  8  1  0
 10 11  1  0
 11 12  1  0
 12 13  1  6
 13 14  2  0
 16 15  1  0
 17 16  1  0
 17 18  1  1
 19 17  1  0
 19 20  1  1
 20 13  1  0
 21 19  1  0
 22 21  1  0
 23 21  2  0
M  END
$$$$
