PPI.pdb
     RDKit          3D

 23 24  0  0  1  0  0  0  0  0999 V2000
   25.1950  -21.7738  -12.5354 N   0  0  0  0  0  0  0  0  0  0  0  0
   24.8141  -20.9511  -13.7174 C   0  0  0  0  0  0  0  0  0  0  0  0
   24.9096  -19.5658  -13.0603 C   0  0  0  0  0  0  0  0  0  0  0  0
   26.1401  -19.7506  -12.1569 C   0  0  0  0  0  0  0  0  0  0  0  0
   26.5072  -21.2131  -12.3140 C   0  0  1  0  0  0  0  0  0  0  0  0
   27.2605  -21.7172  -11.1835 C   0  0  0  0  0  0  0  0  0  0  0  0
   26.6289  -22.6380  -10.5271 O   0  0  0  0  0  0  0  0  0  0  0  0
   28.5407  -21.3510  -10.7218 N   0  0  0  0  0  0  0  0  0  0  0  0
   29.5478  -20.4807  -11.2651 C   0  0  0  0  0  0  0  0  0  0  0  0
   30.7467  -21.4196  -11.2485 C   0  0  0  0  0  0  0  0  0  0  0  0
   30.5607  -22.0559   -9.8615 C   0  0  0  0  0  0  0  0  0  0  0  0
   29.1202  -21.8233   -9.4813 C   0  0  1  0  0  0  0  0  0  0  0  0
   29.0825  -20.8322   -8.3876 C   0  0  0  0  0  0  0  0  0  0  0  0
   29.0016  -19.6242   -8.7613 O   0  0  0  0  0  0  0  0  0  0  0  0
   25.1297  -21.3148   -5.2314 C   0  0  0  0  0  0  0  0  0  0  0  0
   26.2682  -20.7310   -6.0217 C   0  0  0  0  0  0  0  0  0  0  0  0
   27.5225  -20.5426   -5.2584 C   0  0  2  0  0  0  0  0  0  0  0  0
   27.3324  -19.5726   -4.0825 C   0  0  0  0  0  0  0  0  0  0  0  0
   28.7268  -20.1225   -6.0480 C   0  0  2  0  0  0  0  0  0  0  0  0
   29.1282  -21.1066   -7.0220 N   0  0  0  0  0  0  0  0  0  0  0  0
   29.8190  -19.6063   -5.2130 C   0  0  0  0  0  0  0  0  0  0  0  0
   30.8559  -20.4677   -4.8522 O   0  0  0  0  0  0  0  0  0  0  0  0
   29.8582  -18.4198   -4.8081 O   0  0  0  0  0  0  0  0  0  0  0  0
  1  5  1  0
  1  2  1  0
  2  3  1  0
  4  3  1  0
  5  4  1  0
  6  8  1  0
  5  6  1  1
  7  6  2  0
  8 12  1  0
  9 10  1  0
  9  8  1  0
 10 11  1  0
 11 12  1  0
 12 13  1  1
 13 14  2  0
 16 15  1  0
 17 16  1  0
 17 18  1  1
 19 17  1  0
 19 20  1  1
 20 13  1  0
 21 19  1  0
 22 21  1  0
 23 21  2  0
M  END
$$$$
