PPI.pdb
     RDKit          3D

 23 24  0  0  1  0  0  0  0  0999 V2000
   23.3374  -21.7674  -12.7603 N   0  0  0  0  0  0  0  0  0  0  0  0
   22.7333  -20.9684  -13.8629 C   0  0  0  0  0  0  0  0  0  0  0  0
   22.7340  -19.5988  -13.1673 C   0  0  0  0  0  0  0  0  0  0  0  0
   24.0696  -19.6534  -12.4072 C   0  0  0  0  0  0  0  0  0  0  0  0
   24.5894  -21.0552  -12.6580 C   0  0  1  0  0  0  0  0  0  0  0  0
   25.5173  -21.4910  -11.6339 C   0  0  0  0  0  0  0  0  0  0  0  0
   25.0488  -22.4546  -10.9062 O   0  0  0  0  0  0  0  0  0  0  0  0
   26.8125  -21.0216  -11.3365 N   0  0  0  0  0  0  0  0  0  0  0  0
   27.6369  -20.0162  -11.9501 C   0  0  0  0  0  0  0  0  0  0  0  0
   28.9079  -20.8219  -12.1838 C   0  0  0  0  0  0  0  0  0  0  0  0
   28.9983  -21.5625  -10.8398 C   0  0  0  0  0  0  0  0  0  0  0  0
   27.6178  -21.5088  -10.2358 C   0  0  1  0  0  0  0  0  0  0  0  0
   27.6543  -20.6001   -9.0728 C   0  0  0  0  0  0  0  0  0  0  0  0
   27.1055  -19.4727   -9.2558 O   0  0  0  0  0  0  0  0  0  0  0  0
   28.0469  -22.3798   -3.6553 C   0  0  0  0  0  0  0  0  0  0  0  0
   27.5486  -21.6942   -4.8977 C   0  0  0  0  0  0  0  0  0  0  0  0
   28.4212  -20.6096   -5.4015 C   0  0  2  0  0  0  0  0  0  0  0  0
   28.6095  -19.4995   -4.3565 C   0  0  0  0  0  0  0  0  0  0  0  0
   28.0253  -19.9881   -6.7081 C   0  0  2  0  0  0  0  0  0  0  0  0
   28.2253  -20.8703   -7.8305 N   0  0  0  0  0  0  0  0  0  0  0  0
   28.5580  -18.6320   -6.8925 C   0  0  0  0  0  0  0  0  0  0  0  0
   27.7289  -17.5410   -6.6286 O   0  0  0  0  0  0  0  0  0  0  0  0
   29.7306  -18.4128   -7.2800 O   0  0  0  0  0  0  0  0  0  0  0  0
  1  5  1  0
  1  2  1  0
  2  3  1  0
  4  3  1  0
  5  4  1  0
  6  8  1  0
  5  6  1  1
  7  6  2  0
  8 12  1  0
  9 10  1  0
  9  8  1  0
 10 11  1  0
 11 12  1  0
 12 13  1  1
 13 14  2  0
 16 15  1  0
 17 16  1  0
 17 18  1  1
 19 17  1  0
 19 20  1  6
 20 13  1  0
 21 19  1  0
 22 21  1  0
 23 21  2  0
M  END
$$$$
