PPI.pdb
     RDKit          3D

 23 24  0  0  1  0  0  0  0  0999 V2000
   28.6088  -20.0202  -13.8603 N   0  0  0  0  0  0  0  0  0  0  0  0
   28.9883  -21.0894  -14.8257 C   0  0  0  0  0  0  0  0  0  0  0  0
   29.7678  -21.9924  -13.8577 C   0  0  0  0  0  0  0  0  0  0  0  0
   28.9162  -21.8657  -12.5837 C   0  0  0  0  0  0  0  0  0  0  0  0
   27.8582  -20.8391  -12.9376 C   0  0  1  0  0  0  0  0  0  0  0  0
   27.3107  -20.1849  -11.7663 C   0  0  0  0  0  0  0  0  0  0  0  0
   27.9107  -19.0724  -11.4835 O   0  0  0  0  0  0  0  0  0  0  0  0
   26.2522  -20.5851  -10.9262 N   0  0  0  0  0  0  0  0  0  0  0  0
   25.3638  -21.7146  -10.9681 C   0  0  0  0  0  0  0  0  0  0  0  0
   24.0215  -20.9992  -10.8919 C   0  0  0  0  0  0  0  0  0  0  0  0
   24.3384  -19.9657   -9.7989 C   0  0  0  0  0  0  0  0  0  0  0  0
   25.8415  -19.8622   -9.7403 C   0  0  1  0  0  0  0  0  0  0  0  0
   26.3006  -20.4740   -8.4775 C   0  0  0  0  0  0  0  0  0  0  0  0
   26.2656  -21.7404   -8.4515 O   0  0  0  0  0  0  0  0  0  0  0  0
   30.0599  -18.0419   -4.9438 C   0  0  0  0  0  0  0  0  0  0  0  0
   28.7012  -18.5639   -5.3220 C   0  0  0  0  0  0  0  0  0  0  0  0
   28.6921  -19.9448   -5.8553 C   0  0  2  0  0  0  0  0  0  0  0  0
   29.6612  -20.1046   -7.0366 C   0  0  0  0  0  0  0  0  0  0  0  0
   27.3540  -20.5011   -6.2429 C   0  0  2  0  0  0  0  0  0  0  0  0
   26.7537  -19.7957   -7.3475 N   0  0  0  0  0  0  0  0  0  0  0  0
   26.4609  -20.7198   -5.0978 C   0  0  0  0  0  0  0  0  0  0  0  0
   26.9105  -21.5013   -4.0327 O   0  0  0  0  0  0  0  0  0  0  0  0
   25.3065  -20.2331   -5.0377 O   0  0  0  0  0  0  0  0  0  0  0  0
  1  5  1  0
  1  2  1  0
  2  3  1  0
  4  3  1  0
  5  4  1  0
  6  8  1  0
  5  6  1  1
  7  6  2  0
  8 12  1  0
  9 10  1  0
  9  8  1  0
 10 11  1  0
 11 12  1  0
 12 13  1  1
 13 14  2  0
 16 15  1  0
 17 16  1  0
 17 18  1  6
 19 17  1  0
 19 20  1  6
 20 13  1  0
 21 19  1  0
 22 21  1  0
 23 21  2  0
M  END
$$$$
