PPI.pdb
     RDKit          3D

 23 24  0  0  1  0  0  0  0  0999 V2000
   27.4722  -22.9087  -14.8712 N   0  0  0  0  0  0  0  0  0  0  0  0
   26.5893  -23.5671  -15.8743 C   0  0  0  0  0  0  0  0  0  0  0  0
   25.6135  -24.2417  -14.8984 C   0  0  0  0  0  0  0  0  0  0  0  0
   25.4860  -23.1607  -13.8123 C   0  0  0  0  0  0  0  0  0  0  0  0
   26.4720  -22.0877  -14.2304 C   0  0  1  0  0  0  0  0  0  0  0  0
   26.9025  -21.2692  -13.1149 C   0  0  0  0  0  0  0  0  0  0  0  0
   28.1151  -21.5267  -12.7392 O   0  0  0  0  0  0  0  0  0  0  0  0
   26.2021  -20.2687  -12.4116 N   0  0  0  0  0  0  0  0  0  0  0  0
   24.8826  -19.7215  -12.5744 C   0  0  0  0  0  0  0  0  0  0  0  0
   25.2180  -18.2377  -12.6471 C   0  0  0  0  0  0  0  0  0  0  0  0
   26.2480  -18.1470  -11.5096 C   0  0  0  0  0  0  0  0  0  0  0  0
   26.7382  -19.5531  -11.2723 C   0  0  1  0  0  0  0  0  0  0  0  0
   26.2115  -20.0158   -9.9730 C   0  0  0  0  0  0  0  0  0  0  0  0
   25.2257  -20.8086  -10.0458 O   0  0  0  0  0  0  0  0  0  0  0  0
   28.8081  -18.9729   -4.8090 C   0  0  0  0  0  0  0  0  0  0  0  0
   27.7088  -19.1440   -5.8208 C   0  0  0  0  0  0  0  0  0  0  0  0
   27.8115  -20.3664   -6.6494 C   0  0  2  0  0  0  0  0  0  0  0  0
   29.1520  -20.4362   -7.3964 C   0  0  0  0  0  0  0  0  0  0  0  0
   26.6966  -20.6071   -7.6237 C   0  0  2  0  0  0  0  0  0  0  0  0
   26.6926  -19.6633   -8.7134 N   0  0  0  0  0  0  0  0  0  0  0  0
   25.3920  -20.8030   -6.9784 C   0  0  0  0  0  0  0  0  0  0  0  0
   25.2285  -21.8770   -6.1025 O   0  0  0  0  0  0  0  0  0  0  0  0
   24.4150  -20.0439   -7.1836 O   0  0  0  0  0  0  0  0  0  0  0  0
  1  5  1  0
  1  2  1  0
  2  3  1  0
  4  3  1  0
  5  4  1  0
  6  8  1  0
  5  6  1  1
  7  6  2  0
  8 12  1  0
  9 10  1  0
  9  8  1  0
 10 11  1  0
 11 12  1  0
 12 13  1  1
 13 14  2  0
 16 15  1  0
 17 16  1  0
 17 18  1  6
 19 17  1  0
 19 20  1  6
 20 13  1  0
 21 19  1  0
 22 21  1  0
 23 21  2  0
M  END
$$$$
