PPI.pdb
     RDKit          3D

 23 24  0  0  1  0  0  0  0  0999 V2000
   15.0750  -25.4007    0.2134 N   0  0  0  0  0  0  0  0  0  0  0  0
   15.1874  -26.8340    0.6032 C   0  0  0  0  0  0  0  0  0  0  0  0
   16.4356  -26.7225    1.4917 C   0  0  0  0  0  0  0  0  0  0  0  0
   16.1841  -25.3748    2.1880 C   0  0  0  0  0  0  0  0  0  0  0  0
   14.9225  -24.8433    1.5367 C   0  0  1  0  0  0  0  0  0  0  0  0
   14.8137  -23.4021    1.6396 C   0  0  0  0  0  0  0  0  0  0  0  0
   15.0235  -22.7989    0.5127 O   0  0  0  0  0  0  0  0  0  0  0  0
   14.5214  -22.6010    2.7617 N   0  0  0  0  0  0  0  0  0  0  0  0
   14.2724  -22.9276    4.1395 C   0  0  0  0  0  0  0  0  0  0  0  0
   12.9473  -22.2064    4.3477 C   0  0  0  0  0  0  0  0  0  0  0  0
   13.2564  -20.8811    3.6328 C   0  0  0  0  0  0  0  0  0  0  0  0
   14.4271  -21.1563    2.7233 C   0  0  1  0  0  0  0  0  0  0  0  0
   15.6119  -20.4645    3.2685 C   0  0  0  0  0  0  0  0  0  0  0  0
   16.3149  -21.1532    4.0666 O   0  0  0  0  0  0  0  0  0  0  0  0
   19.5248  -18.9945    0.3291 C   0  0  0  0  0  0  0  0  0  0  0  0
   18.5564  -19.3787    1.4137 C   0  0  0  0  0  0  0  0  0  0  0  0
   18.2087  -18.2875    2.3517 C   0  0  2  0  0  0  0  0  0  0  0  0
   19.4620  -17.6292    2.9481 C   0  0  0  0  0  0  0  0  0  0  0  0
   17.2659  -18.6396    3.4641 C   0  0  2  0  0  0  0  0  0  0  0  0
   16.0078  -19.1580    2.9880 N   0  0  0  0  0  0  0  0  0  0  0  0
   17.1490  -17.5881    4.4826 C   0  0  0  0  0  0  0  0  0  0  0  0
   18.1826  -17.4273    5.4063 O   0  0  0  0  0  0  0  0  0  0  0  0
   16.1550  -16.8270    4.5581 O   0  0  0  0  0  0  0  0  0  0  0  0
  1  5  1  0
  1  2  1  0
  2  3  1  0
  4  3  1  0
  5  4  1  0
  6  8  1  0
  5  6  1  6
  7  6  2  0
  8 12  1  0
  9 10  1  0
  9  8  1  0
 10 11  1  0
 11 12  1  0
 12 13  1  1
 13 14  2  0
 16 15  1  0
 17 16  1  0
 17 18  1  1
 19 17  1  0
 19 20  1  6
 20 13  1  0
 21 19  1  0
 22 21  1  0
 23 21  2  0
M  END
$$$$
