PPI.pdb
     RDKit          3D

 23 24  0  0  1  0  0  0  0  0999 V2000
   24.3207  -21.9516  -12.3877 N   0  0  0  0  0  0  0  0  0  0  0  0
   23.7989  -21.1743  -13.5464 C   0  0  0  0  0  0  0  0  0  0  0  0
   23.8329  -19.7780  -12.9069 C   0  0  0  0  0  0  0  0  0  0  0  0
   25.1323  -19.8583  -12.0888 C   0  0  0  0  0  0  0  0  0  0  0  0
   25.5983  -21.2907  -12.2606 C   0  0  1  0  0  0  0  0  0  0  0  0
   26.4629  -21.7228  -11.1810 C   0  0  0  0  0  0  0  0  0  0  0  0
   25.9463  -22.6760  -10.4723 O   0  0  0  0  0  0  0  0  0  0  0  0
   27.7424  -21.2596  -10.8144 N   0  0  0  0  0  0  0  0  0  0  0  0
   28.7215  -20.4771  -11.5186 C   0  0  0  0  0  0  0  0  0  0  0  0
   29.9403  -21.3773  -11.3658 C   0  0  0  0  0  0  0  0  0  0  0  0
   29.7910  -21.7698   -9.8870 C   0  0  0  0  0  0  0  0  0  0  0  0
   28.3525  -21.5016   -9.5234 C   0  0  1  0  0  0  0  0  0  0  0  0
   28.3117  -20.3387   -8.6147 C   0  0  0  0  0  0  0  0  0  0  0  0
   27.3849  -19.5071   -8.8494 O   0  0  0  0  0  0  0  0  0  0  0  0
   25.3429  -21.6254   -5.7817 C   0  0  0  0  0  0  0  0  0  0  0  0
   26.3285  -20.6357   -6.3393 C   0  0  0  0  0  0  0  0  0  0  0  0
   27.6711  -20.6777   -5.7171 C   0  0  2  0  0  0  0  0  0  0  0  0
   27.5954  -20.5255   -4.1903 C   0  0  0  0  0  0  0  0  0  0  0  0
   28.6854  -19.7119   -6.2543 C   0  0  2  0  0  0  0  0  0  0  0  0
   29.1811  -20.0873   -7.5549 N   0  0  0  0  0  0  0  0  0  0  0  0
   29.7265  -19.3597   -5.2803 C   0  0  0  0  0  0  0  0  0  0  0  0
   29.7226  -18.0801   -4.7234 O   0  0  0  0  0  0  0  0  0  0  0  0
   30.6229  -20.1631   -4.9280 O   0  0  0  0  0  0  0  0  0  0  0  0
  1  5  1  0
  1  2  1  0
  2  3  1  0
  4  3  1  0
  5  4  1  0
  6  8  1  0
  5  6  1  1
  7  6  2  0
  8 12  1  0
  9 10  1  0
  9  8  1  0
 10 11  1  0
 11 12  1  0
 12 13  1  1
 13 14  2  0
 16 15  1  0
 17 16  1  0
 17 18  1  1
 19 17  1  0
 19 20  1  6
 20 13  1  0
 21 19  1  0
 22 21  1  0
 23 21  2  0
M  END
$$$$
