PPI.pdb
     RDKit          3D

 23 24  0  0  1  0  0  0  0  0999 V2000
   25.9500  -18.4843  -16.4930 N   0  0  0  0  0  0  0  0  0  0  0  0
   26.0803  -17.0507  -16.8765 C   0  0  0  0  0  0  0  0  0  0  0  0
   25.7533  -16.4278  -15.5109 C   0  0  0  0  0  0  0  0  0  0  0  0
   26.4510  -17.4148  -14.5604 C   0  0  0  0  0  0  0  0  0  0  0  0
   26.9682  -18.5123  -15.4694 C   0  0  1  0  0  0  0  0  0  0  0  0
   27.1656  -19.7637  -14.7661 C   0  0  0  0  0  0  0  0  0  0  0  0
   26.5715  -20.7626  -15.3380 O   0  0  0  0  0  0  0  0  0  0  0  0
   27.8907  -20.0267  -13.5865 N   0  0  0  0  0  0  0  0  0  0  0  0
   28.6114  -19.1670  -12.6873 C   0  0  0  0  0  0  0  0  0  0  0  0
   29.9556  -19.8821  -12.6570 C   0  0  0  0  0  0  0  0  0  0  0  0
   29.4744  -21.3376  -12.5421 C   0  0  0  0  0  0  0  0  0  0  0  0
   28.0388  -21.3441  -13.0033 C   0  0  1  0  0  0  0  0  0  0  0  0
   27.1747  -21.5795  -11.8296 C   0  0  0  0  0  0  0  0  0  0  0  0
   27.6312  -22.4062  -10.9848 O   0  0  0  0  0  0  0  0  0  0  0  0
   26.4569  -20.4031   -6.6801 C   0  0  0  0  0  0  0  0  0  0  0  0
   25.5781  -20.8814   -7.8029 C   0  0  0  0  0  0  0  0  0  0  0  0
   26.1442  -20.6949   -9.1579 C   0  0  2  0  0  0  0  0  0  0  0  0
   26.5943  -19.2449   -9.3917 C   0  0  0  0  0  0  0  0  0  0  0  0
   25.2824  -21.1297  -10.3062 C   0  0  2  0  0  0  0  0  0  0  0  0
   25.9374  -20.9875  -11.5824 N   0  0  0  0  0  0  0  0  0  0  0  0
   23.9209  -20.5818  -10.2521 C   0  0  0  0  0  0  0  0  0  0  0  0
   23.0641  -21.0058   -9.2355 O   0  0  0  0  0  0  0  0  0  0  0  0
   23.4942  -19.7469  -11.0851 O   0  0  0  0  0  0  0  0  0  0  0  0
  1  5  1  0
  1  2  1  0
  2  3  1  0
  4  3  1  0
  5  4  1  0
  6  8  1  0
  5  6  1  1
  7  6  2  0
  8 12  1  0
  9 10  1  0
  9  8  1  0
 10 11  1  0
 11 12  1  0
 12 13  1  1
 13 14  2  0
 16 15  1  0
 17 16  1  0
 17 18  1  6
 19 17  1  0
 19 20  1  6
 20 13  1  0
 21 19  1  0
 22 21  1  0
 23 21  2  0
M  END
$$$$
