PPI.pdb
     RDKit          3D

 23 24  0  0  1  0  0  0  0  0999 V2000
   23.0322  -21.6789  -12.6590 N   0  0  0  0  0  0  0  0  0  0  0  0
   22.3997  -20.9350  -13.7840 C   0  0  0  0  0  0  0  0  0  0  0  0
   22.5099  -19.5185  -13.1997 C   0  0  0  0  0  0  0  0  0  0  0  0
   23.8861  -19.5859  -12.5172 C   0  0  0  0  0  0  0  0  0  0  0  0
   24.3211  -21.0283  -12.6867 C   0  0  1  0  0  0  0  0  0  0  0  0
   25.2890  -21.4336  -11.6875 C   0  0  0  0  0  0  0  0  0  0  0  0
   24.9243  -22.4892  -11.0313 O   0  0  0  0  0  0  0  0  0  0  0  0
   26.5273  -20.8522  -11.3483 N   0  0  0  0  0  0  0  0  0  0  0  0
   27.2601  -19.7507  -11.9106 C   0  0  0  0  0  0  0  0  0  0  0  0
   28.6072  -20.4209  -12.1459 C   0  0  0  0  0  0  0  0  0  0  0  0
   28.7467  -21.1968  -10.8262 C   0  0  0  0  0  0  0  0  0  0  0  0
   27.3576  -21.2984  -10.2487 C   0  0  1  0  0  0  0  0  0  0  0  0
   27.2860  -20.4325   -9.0551 C   0  0  0  0  0  0  0  0  0  0  0  0
   26.7178  -19.3146   -9.2369 O   0  0  0  0  0  0  0  0  0  0  0  0
   29.6645  -21.1732   -3.7095 C   0  0  0  0  0  0  0  0  0  0  0  0
   29.3219  -20.5921   -5.0536 C   0  0  0  0  0  0  0  0  0  0  0  0
   27.8728  -20.5154   -5.3465 C   0  0  2  0  0  0  0  0  0  0  0  0
   27.1963  -21.8900   -5.2343 C   0  0  0  0  0  0  0  0  0  0  0  0
   27.4892  -19.8877   -6.6538 C   0  0  2  0  0  0  0  0  0  0  0  0
   27.7771  -20.7327   -7.7858 N   0  0  0  0  0  0  0  0  0  0  0  0
   27.9519  -18.5008   -6.7915 C   0  0  0  0  0  0  0  0  0  0  0  0
   27.4838  -17.5422   -5.8918 O   0  0  0  0  0  0  0  0  0  0  0  0
   28.7519  -18.1404   -7.6877 O   0  0  0  0  0  0  0  0  0  0  0  0
  1  5  1  0
  1  2  1  0
  2  3  1  0
  4  3  1  0
  5  4  1  0
  6  8  1  0
  5  6  1  1
  7  6  2  0
  8 12  1  0
  9 10  1  0
  9  8  1  0
 10 11  1  0
 11 12  1  0
 12 13  1  1
 13 14  2  0
 16 15  1  0
 17 16  1  0
 17 18  1  6
 19 17  1  0
 19 20  1  6
 20 13  1  0
 21 19  1  0
 22 21  1  0
 23 21  2  0
M  END
$$$$
