PPI.pdb
     RDKit          3D

 23 24  0  0  1  0  0  0  0  0999 V2000
   17.9403  -11.4002  -15.0856 N   0  0  0  0  0  0  0  0  0  0  0  0
   18.0156  -11.5495  -16.5659 C   0  0  0  0  0  0  0  0  0  0  0  0
   16.9953  -10.4666  -16.9478 C   0  0  0  0  0  0  0  0  0  0  0  0
   17.3059   -9.3844  -15.9005 C   0  0  0  0  0  0  0  0  0  0  0  0
   18.3494  -10.0179  -15.0016 C   0  0  1  0  0  0  0  0  0  0  0  0
   18.3812   -9.4157  -13.6839 C   0  0  0  0  0  0  0  0  0  0  0  0
   17.9572  -10.2128  -12.7551 O   0  0  0  0  0  0  0  0  0  0  0  0
   18.7963   -8.1262  -13.2952 N   0  0  0  0  0  0  0  0  0  0  0  0
   19.2303   -6.9848  -14.0539 C   0  0  0  0  0  0  0  0  0  0  0  0
   20.5525   -6.6908  -13.3577 C   0  0  0  0  0  0  0  0  0  0  0  0
   20.1196   -6.8618  -11.8926 C   0  0  0  0  0  0  0  0  0  0  0  0
   18.8481   -7.6717  -11.9211 C   0  0  1  0  0  0  0  0  0  0  0  0
   17.7269   -6.7902  -11.5397 C   0  0  0  0  0  0  0  0  0  0  0  0
   17.2168   -6.1287  -12.4925 O   0  0  0  0  0  0  0  0  0  0  0  0
   12.5530   -7.4197   -8.7057 C   0  0  0  0  0  0  0  0  0  0  0  0
   13.5678   -6.4118   -9.1708 C   0  0  0  0  0  0  0  0  0  0  0  0
   14.9099   -6.9674   -9.4560 C   0  0  2  0  0  0  0  0  0  0  0  0
   15.5267   -7.6301   -8.2150 C   0  0  0  0  0  0  0  0  0  0  0  0
   15.9101   -6.0216  -10.0523 C   0  0  2  0  0  0  0  0  0  0  0  0
   17.2006   -6.6296  -10.2592 N   0  0  0  0  0  0  0  0  0  0  0  0
   15.9487   -4.7161   -9.3807 C   0  0  0  0  0  0  0  0  0  0  0  0
   14.9705   -3.7702   -9.6904 O   0  0  0  0  0  0  0  0  0  0  0  0
   16.8279   -4.4142   -8.5388 O   0  0  0  0  0  0  0  0  0  0  0  0
  1  5  1  0
  1  2  1  0
  2  3  1  0
  4  3  1  0
  5  4  1  0
  6  8  1  0
  5  6  1  1
  7  6  2  0
  8 12  1  0
  9 10  1  0
  9  8  1  0
 10 11  1  0
 11 12  1  0
 12 13  1  6
 13 14  2  0
 16 15  1  0
 17 16  1  0
 17 18  1  1
 19 17  1  0
 19 20  1  1
 20 13  1  0
 21 19  1  0
 22 21  1  0
 23 21  2  0
M  END
$$$$
