PPI.pdb
     RDKit          3D

 23 24  0  0  1  0  0  0  0  0999 V2000
   23.0520  -21.7980  -13.0749 N   0  0  0  0  0  0  0  0  0  0  0  0
   22.3503  -20.9302  -14.0617 C   0  0  0  0  0  0  0  0  0  0  0  0
   22.1011  -19.7190  -13.1503 C   0  0  0  0  0  0  0  0  0  0  0  0
   23.4063  -19.6858  -12.3381 C   0  0  0  0  0  0  0  0  0  0  0  0
   24.1623  -20.9203  -12.7884 C   0  0  1  0  0  0  0  0  0  0  0  0
   25.1235  -21.3691  -11.8013 C   0  0  0  0  0  0  0  0  0  0  0  0
   24.7250  -22.4146  -11.1486 O   0  0  0  0  0  0  0  0  0  0  0  0
   26.3862  -20.8377  -11.4704 N   0  0  0  0  0  0  0  0  0  0  0  0
   27.1338  -19.7301  -12.0007 C   0  0  0  0  0  0  0  0  0  0  0  0
   28.4549  -20.4237  -12.3057 C   0  0  0  0  0  0  0  0  0  0  0  0
   28.6086  -21.2656  -11.0287 C   0  0  0  0  0  0  0  0  0  0  0  0
   27.2334  -21.3580  -10.4173 C   0  0  1  0  0  0  0  0  0  0  0  0
   27.2184  -20.5489   -9.1825 C   0  0  0  0  0  0  0  0  0  0  0  0
   26.6406  -19.4258   -9.2844 O   0  0  0  0  0  0  0  0  0  0  0  0
   28.5834  -20.3734   -3.1477 C   0  0  0  0  0  0  0  0  0  0  0  0
   27.5421  -20.2292   -4.2231 C   0  0  0  0  0  0  0  0  0  0  0  0
   27.8774  -20.8889   -5.5052 C   0  0  2  0  0  0  0  0  0  0  0  0
   29.3723  -21.2309   -5.5951 C   0  0  0  0  0  0  0  0  0  0  0  0
   27.4658  -20.1669   -6.7541 C   0  0  2  0  0  0  0  0  0  0  0  0
   27.7704  -20.9061   -7.9537 N   0  0  0  0  0  0  0  0  0  0  0  0
   27.8863  -18.7600   -6.7783 C   0  0  0  0  0  0  0  0  0  0  0  0
   28.8688  -18.3662   -7.6877 O   0  0  0  0  0  0  0  0  0  0  0  0
   27.3986  -17.8950   -6.0121 O   0  0  0  0  0  0  0  0  0  0  0  0
  1  5  1  0
  1  2  1  0
  2  3  1  0
  4  3  1  0
  5  4  1  0
  6  8  1  0
  5  6  1  1
  7  6  2  0
  8 12  1  0
  9 10  1  0
  9  8  1  0
 10 11  1  0
 11 12  1  0
 12 13  1  1
 13 14  2  0
 16 15  1  0
 17 16  1  0
 17 18  1  6
 19 17  1  0
 19 20  1  6
 20 13  1  0
 21 19  1  0
 22 21  1  0
 23 21  2  0
M  END
$$$$
