MTW.pdb
     RDKit          3D

 30 31  0  0  1  0  0  0  0  0999 V2000
   34.5015  -24.0543  -18.3090 C   0  0  0  0  0  0  0  0  0  0  0  0
   33.6417  -23.6456  -19.8459 S   0  0  0  0  0  0  0  0  0  0  0  0
   31.8592  -23.7993  -19.7060 C   0  0  0  0  0  0  0  0  0  0  0  0
   31.3036  -23.0569  -18.4960 C   0  0  0  0  0  0  0  0  0  0  0  0
   29.8370  -23.3116  -18.4479 C   0  0  2  0  0  0  0  0  0  0  0  0
   29.3610  -23.3651  -19.8373 N   0  0  0  0  0  0  0  0  0  0  0  0
   29.0658  -22.3041  -17.7076 C   0  0  0  0  0  0  0  0  0  0  0  0
   28.9568  -21.1409  -18.1842 O   0  0  0  0  0  0  0  0  0  0  0  0
   26.8099  -20.8274  -18.1430 C   0  0  0  0  0  0  0  0  0  0  0  0
   26.3397  -21.3429  -16.8011 C   0  0  1  0  0  0  0  0  0  0  0  0
   25.6487  -22.5442  -16.9227 O   0  0  0  0  0  0  0  0  0  0  0  0
   27.5071  -21.5802  -15.8595 C   0  0  2  0  0  0  0  0  0  0  0  0
   28.4156  -22.5402  -16.4654 N   0  0  0  0  0  0  0  0  0  0  0  0
   26.9704  -22.0841  -14.5686 C   0  0  0  0  0  0  0  0  0  0  0  0
   27.4749  -23.1044  -14.0368 O   0  0  0  0  0  0  0  0  0  0  0  0
   25.8951  -21.4636  -13.8873 N   0  0  0  0  0  0  0  0  0  0  0  0
   25.7634  -21.3827  -12.4551 C   0  0  1  0  0  0  0  0  0  0  0  0
   26.8943  -20.6725  -11.7925 C   0  0  0  0  0  0  0  0  0  0  0  0
   26.6089  -20.5454  -10.3445 C   0  0  0  0  0  0  0  0  0  0  0  0
   25.3873  -20.3152   -9.7185 C   0  0  0  0  0  0  0  0  0  0  0  0
   25.5463  -20.2625   -8.3872 N   0  0  0  0  0  0  0  0  0  0  0  0
   26.8630  -20.4544   -8.0992 C   0  0  0  0  0  0  0  0  0  0  0  0
   27.5784  -20.4991   -6.9243 C   0  0  0  0  0  0  0  0  0  0  0  0
   28.9367  -20.7147   -6.9284 C   0  0  0  0  0  0  0  0  0  0  0  0
   29.6224  -20.8930   -8.1195 C   0  0  0  0  0  0  0  0  0  0  0  0
   28.8948  -20.8458   -9.2841 C   0  0  0  0  0  0  0  0  0  0  0  0
   27.5231  -20.6292   -9.2975 C   0  0  0  0  0  0  0  0  0  0  0  0
   24.4939  -20.6791  -12.1505 C   0  0  0  0  0  0  0  0  0  0  0  0
   23.9971  -19.7700  -12.8563 O   0  0  0  0  0  0  0  0  0  0  0  0
   23.7498  -21.0087  -11.0058 O   0  0  0  0  0  0  0  0  0  0  0  0
  1  2  1  0
  3  2  1  0
  4  3  1  0
  5  6  1  6
  5  4  1  0
  7  8  2  0
  7  5  1  0
 10  9  1  6
 10 12  1  0
 11 10  1  0
 12 13  1  6
 13  7  1  0
 14 12  1  0
 14 16  1  0
 15 14  2  0
 17 16  1  0
 17 28  1  0
 17 18  1  6
 19 18  1  0
 20 19  2  0
 21 20  1  0
 22 21  1  0
 22 27  2  0
 23 24  2  0
 23 22  1  0
 24 25  1  0
 25 26  2  0
 26 27  1  0
 27 19  1  0
 28 29  2  0
 28 30  1  0
M  END
$$$$
