MTW.pdb
     RDKit          3D

 30 31  0  0  1  0  0  0  0  0999 V2000
   30.3472  -18.7751  -19.9456 C   0  0  0  0  0  0  0  0  0  0  0  0
   29.7528  -20.4310  -20.3614 S   0  0  0  0  0  0  0  0  0  0  0  0
   28.8707  -21.2120  -19.0078 C   0  0  0  0  0  0  0  0  0  0  0  0
   28.9600  -20.4100  -17.7145 C   0  0  0  0  0  0  0  0  0  0  0  0
   28.1881  -21.1467  -16.6755 C   0  0  2  0  0  0  0  0  0  0  0  0
   26.8071  -21.2641  -17.1641 N   0  0  0  0  0  0  0  0  0  0  0  0
   28.1835  -20.5100  -15.3516 C   0  0  0  0  0  0  0  0  0  0  0  0
   28.8599  -19.4601  -15.1720 O   0  0  0  0  0  0  0  0  0  0  0  0
   27.0581  -18.1644  -14.4889 C   0  0  0  0  0  0  0  0  0  0  0  0
   26.3966  -18.9830  -13.4027 C   0  0  1  0  0  0  0  0  0  0  0  0
   25.1437  -19.4441  -13.7942 O   0  0  0  0  0  0  0  0  0  0  0  0
   27.2350  -20.1943  -13.0344 C   0  0  2  0  0  0  0  0  0  0  0  0
   27.4599  -20.9942  -14.2276 N   0  0  0  0  0  0  0  0  0  0  0  0
   26.5067  -20.9672  -11.9948 C   0  0  0  0  0  0  0  0  0  0  0  0
   25.8436  -21.9833  -12.3203 O   0  0  0  0  0  0  0  0  0  0  0  0
   26.5184  -20.6137  -10.6235 N   0  0  0  0  0  0  0  0  0  0  0  0
   25.9360  -21.3980   -9.5649 C   0  0  1  0  0  0  0  0  0  0  0  0
   26.8974  -21.7375   -8.4774 C   0  0  0  0  0  0  0  0  0  0  0  0
   27.3373  -20.4912   -7.8087 C   0  0  0  0  0  0  0  0  0  0  0  0
   27.0205  -19.1751   -8.1325 C   0  0  0  0  0  0  0  0  0  0  0  0
   27.6219  -18.3268   -7.2845 N   0  0  0  0  0  0  0  0  0  0  0  0
   28.3450  -19.0504   -6.3863 C   0  0  0  0  0  0  0  0  0  0  0  0
   29.1416  -18.7086   -5.3174 C   0  0  0  0  0  0  0  0  0  0  0  0
   29.7682  -19.6725   -4.5625 C   0  0  0  0  0  0  0  0  0  0  0  0
   29.6131  -21.0172   -4.8597 C   0  0  0  0  0  0  0  0  0  0  0  0
   28.8149  -21.3430   -5.9296 C   0  0  0  0  0  0  0  0  0  0  0  0
   28.1752  -20.3823   -6.7018 C   0  0  0  0  0  0  0  0  0  0  0  0
   24.8010  -20.6308   -8.9971 C   0  0  0  0  0  0  0  0  0  0  0  0
   24.3775  -19.5432   -9.4547 O   0  0  0  0  0  0  0  0  0  0  0  0
   24.1116  -21.1027   -7.8680 O   0  0  0  0  0  0  0  0  0  0  0  0
  1  2  1  0
  3  2  1  0
  4  3  1  0
  5  6  1  6
  5  4  1  0
  7  8  2  0
  7  5  1  0
 10  9  1  6
 10 12  1  0
 11 10  1  0
 12 13  1  6
 13  7  1  0
 14 12  1  0
 14 16  1  0
 15 14  2  0
 17 16  1  0
 17 28  1  0
 17 18  1  1
 19 18  1  0
 20 19  2  0
 21 20  1  0
 22 21  1  0
 22 27  2  0
 23 24  2  0
 23 22  1  0
 24 25  1  0
 25 26  2  0
 26 27  1  0
 27 19  1  0
 28 29  2  0
 28 30  1  0
M  END
$$$$
