MTW.pdb
     RDKit          3D

 30 31  0  0  1  0  0  0  0  0999 V2000
   29.3850  -19.4193  -20.8394 C   0  0  0  0  0  0  0  0  0  0  0  0
   28.5530  -18.2609  -19.7284 S   0  0  0  0  0  0  0  0  0  0  0  0
   29.0199  -18.4896  -18.0109 C   0  0  0  0  0  0  0  0  0  0  0  0
   27.8414  -18.3191  -17.0591 C   0  0  0  0  0  0  0  0  0  0  0  0
   27.8868  -19.4431  -16.0830 C   0  0  2  0  0  0  0  0  0  0  0  0
   27.4809  -20.6583  -16.8028 N   0  0  0  0  0  0  0  0  0  0  0  0
   27.0269  -19.2647  -14.9053 C   0  0  0  0  0  0  0  0  0  0  0  0
   26.0690  -18.4453  -14.9619 O   0  0  0  0  0  0  0  0  0  0  0  0
   24.4465  -19.6037  -14.3492 C   0  0  0  0  0  0  0  0  0  0  0  0
   24.8732  -20.3790  -13.1227 C   0  0  1  0  0  0  0  0  0  0  0  0
   24.9936  -21.7395  -13.3878 O   0  0  0  0  0  0  0  0  0  0  0  0
   26.2142  -19.8945  -12.6006 C   0  0  2  0  0  0  0  0  0  0  0  0
   27.1913  -19.9589  -13.6755 N   0  0  0  0  0  0  0  0  0  0  0  0
   26.6099  -20.7585  -11.4580 C   0  0  0  0  0  0  0  0  0  0  0  0
   27.4742  -21.6554  -11.6217 O   0  0  0  0  0  0  0  0  0  0  0  0
   26.0533  -20.6244  -10.1627 N   0  0  0  0  0  0  0  0  0  0  0  0
   26.4155  -21.4268   -9.0226 C   0  0  1  0  0  0  0  0  0  0  0  0
   27.7892  -21.1516   -8.5132 C   0  0  0  0  0  0  0  0  0  0  0  0
   27.7277  -20.0668   -7.5064 C   0  0  0  0  0  0  0  0  0  0  0  0
   27.0370  -18.8603   -7.5729 C   0  0  0  0  0  0  0  0  0  0  0  0
   27.2375  -18.1440   -6.4561 N   0  0  0  0  0  0  0  0  0  0  0  0
   28.0573  -18.8494   -5.6293 C   0  0  0  0  0  0  0  0  0  0  0  0
   28.5825  -18.6032   -4.3812 C   0  0  0  0  0  0  0  0  0  0  0  0
   29.4047  -19.5170   -3.7644 C   0  0  0  0  0  0  0  0  0  0  0  0
   29.7267  -20.7132   -4.3858 C   0  0  0  0  0  0  0  0  0  0  0  0
   29.1949  -20.9449   -5.6313 C   0  0  0  0  0  0  0  0  0  0  0  0
   28.3633  -20.0330   -6.2679 C   0  0  0  0  0  0  0  0  0  0  0  0
   25.4295  -21.1654   -7.9462 C   0  0  0  0  0  0  0  0  0  0  0  0
   25.4364  -21.7238   -6.8239 O   0  0  0  0  0  0  0  0  0  0  0  0
   24.3913  -20.2385   -8.1361 O   0  0  0  0  0  0  0  0  0  0  0  0
  1  2  1  0
  3  2  1  0
  4  3  1  0
  5  6  1  6
  5  4  1  0
  7  8  2  0
  7  5  1  0
 10  9  1  6
 10 12  1  0
 11 10  1  0
 12 13  1  6
 13  7  1  0
 14 12  1  0
 14 16  1  0
 15 14  2  0
 17 16  1  0
 17 28  1  0
 17 18  1  1
 19 18  1  0
 20 19  2  0
 21 20  1  0
 22 21  1  0
 22 27  2  0
 23 24  2  0
 23 22  1  0
 24 25  1  0
 25 26  2  0
 26 27  1  0
 27 19  1  0
 28 29  2  0
 28 30  1  0
M  END
$$$$
