MTW.pdb
     RDKit          3D

 30 31  0  0  1  0  0  0  0  0999 V2000
   28.6404  -11.6160  -17.4117 C   0  0  0  0  0  0  0  0  0  0  0  0
   27.1301  -12.5668  -17.7000 S   0  0  0  0  0  0  0  0  0  0  0  0
   26.6589  -13.5668  -16.2864 C   0  0  0  0  0  0  0  0  0  0  0  0
   25.4420  -14.4400  -16.5700 C   0  0  0  0  0  0  0  0  0  0  0  0
   25.9390  -15.7663  -17.0303 C   0  0  2  0  0  0  0  0  0  0  0  0
   25.6885  -15.8446  -18.4762 N   0  0  0  0  0  0  0  0  0  0  0  0
   25.3141  -16.9175  -16.3650 C   0  0  0  0  0  0  0  0  0  0  0  0
   24.1428  -17.2547  -16.6912 O   0  0  0  0  0  0  0  0  0  0  0  0
   24.4001  -19.5177  -17.0674 C   0  0  0  0  0  0  0  0  0  0  0  0
   25.2908  -19.9625  -15.9288 C   0  0  1  0  0  0  0  0  0  0  0  0
   26.5959  -20.1908  -16.3530 O   0  0  0  0  0  0  0  0  0  0  0  0
   25.3440  -18.9185  -14.8275 C   0  0  2  0  0  0  0  0  0  0  0  0
   25.9389  -17.7022  -15.3574 N   0  0  0  0  0  0  0  0  0  0  0  0
   26.1458  -19.4670  -13.7030 C   0  0  0  0  0  0  0  0  0  0  0  0
   27.4007  -19.4441  -13.7597 O   0  0  0  0  0  0  0  0  0  0  0  0
   25.5603  -20.0282  -12.5420 N   0  0  0  0  0  0  0  0  0  0  0  0
   26.2920  -20.4872  -11.3892 C   0  0  1  0  0  0  0  0  0  0  0  0
   25.8265  -19.8819  -10.1089 C   0  0  0  0  0  0  0  0  0  0  0  0
   24.4398  -20.3251   -9.8356 C   0  0  0  0  0  0  0  0  0  0  0  0
   23.9521  -21.0149   -8.7295 C   0  0  0  0  0  0  0  0  0  0  0  0
   22.6346  -21.2343   -8.8583 N   0  0  0  0  0  0  0  0  0  0  0  0
   22.2193  -20.7014  -10.0402 C   0  0  0  0  0  0  0  0  0  0  0  0
   20.9981  -20.6346  -10.6714 C   0  0  0  0  0  0  0  0  0  0  0  0
   20.8639  -20.0189  -11.8940 C   0  0  0  0  0  0  0  0  0  0  0  0
   21.9585  -19.4481  -12.5238 C   0  0  0  0  0  0  0  0  0  0  0  0
   23.1708  -19.5226  -11.8815 C   0  0  0  0  0  0  0  0  0  0  0  0
   23.3234  -20.1404  -10.6472 C   0  0  0  0  0  0  0  0  0  0  0  0
   26.1535  -21.9619  -11.3157 C   0  0  0  0  0  0  0  0  0  0  0  0
   25.4442  -22.6494  -12.0875 O   0  0  0  0  0  0  0  0  0  0  0  0
   26.8394  -22.6972  -10.3350 O   0  0  0  0  0  0  0  0  0  0  0  0
  1  2  1  0
  3  2  1  0
  4  3  1  0
  5  6  1  6
  5  4  1  0
  7  8  2  0
  7  5  1  0
 10  9  1  6
 10 12  1  0
 11 10  1  0
 12 13  1  6
 13  7  1  0
 14 12  1  0
 14 16  1  0
 15 14  2  0
 17 16  1  0
 17 28  1  0
 17 18  1  1
 19 18  1  0
 20 19  2  0
 21 20  1  0
 22 21  1  0
 22 27  2  0
 23 24  2  0
 23 22  1  0
 24 25  1  0
 25 26  2  0
 26 27  1  0
 27 19  1  0
 28 29  2  0
 28 30  1  0
M  END
$$$$
