MTW.pdb
     RDKit          3D

 30 31  0  0  1  0  0  0  0  0999 V2000
   29.2025  -31.7564  -15.3023 C   0  0  0  0  0  0  0  0  0  0  0  0
   30.1204  -32.7044  -16.5380 S   0  0  0  0  0  0  0  0  0  0  0  0
   29.6112  -32.3315  -18.2178 C   0  0  0  0  0  0  0  0  0  0  0  0
   28.9000  -30.9875  -18.3263 C   0  0  0  0  0  0  0  0  0  0  0  0
   28.4908  -30.8098  -19.7472 C   0  0  2  0  0  0  0  0  0  0  0  0
   29.1856  -29.6173  -20.2520 N   0  0  0  0  0  0  0  0  0  0  0  0
   27.0445  -30.6535  -19.9516 C   0  0  0  0  0  0  0  0  0  0  0  0
   26.6278  -30.1285  -21.0207 O   0  0  0  0  0  0  0  0  0  0  0  0
   24.5172  -32.7049  -21.0111 C   0  0  0  0  0  0  0  0  0  0  0  0
   24.0472  -32.2603  -19.6440 C   0  0  1  0  0  0  0  0  0  0  0  0
   24.4186  -33.1620  -18.6518 O   0  0  0  0  0  0  0  0  0  0  0  0
   24.6272  -30.9071  -19.2725 C   0  0  2  0  0  0  0  0  0  0  0  0
   26.0509  -31.0566  -19.0179 N   0  0  0  0  0  0  0  0  0  0  0  0
   23.9124  -30.4076  -18.0691 C   0  0  0  0  0  0  0  0  0  0  0  0
   24.4815  -30.4295  -16.9492 O   0  0  0  0  0  0  0  0  0  0  0  0
   22.5928  -29.8956  -18.1148 N   0  0  0  0  0  0  0  0  0  0  0  0
   21.8939  -29.3168  -16.9962 C   0  0  1  0  0  0  0  0  0  0  0  0
   22.1714  -27.8642  -16.8078 C   0  0  0  0  0  0  0  0  0  0  0  0
   21.5863  -27.1054  -17.9374 C   0  0  0  0  0  0  0  0  0  0  0  0
   20.2856  -26.6317  -18.0824 C   0  0  0  0  0  0  0  0  0  0  0  0
   20.1482  -25.9924  -19.2541 N   0  0  0  0  0  0  0  0  0  0  0  0
   21.3412  -26.0254  -19.9091 C   0  0  0  0  0  0  0  0  0  0  0  0
   21.7684  -25.5380  -21.1232 C   0  0  0  0  0  0  0  0  0  0  0  0
   23.0645  -25.7213  -21.5453 C   0  0  0  0  0  0  0  0  0  0  0  0
   23.9767  -26.4039  -20.7562 C   0  0  0  0  0  0  0  0  0  0  0  0
   23.5357  -26.8845  -19.5470 C   0  0  0  0  0  0  0  0  0  0  0  0
   22.2308  -26.7080  -19.1061 C   0  0  0  0  0  0  0  0  0  0  0  0
   20.4401  -29.5166  -17.2108 C   0  0  0  0  0  0  0  0  0  0  0  0
   19.9303  -29.9497  -18.2709 O   0  0  0  0  0  0  0  0  0  0  0  0
   19.5188  -29.2178  -16.1936 O   0  0  0  0  0  0  0  0  0  0  0  0
  1  2  1  0
  3  2  1  0
  4  3  1  0
  5  6  1  1
  5  4  1  0
  7  8  2  0
  7  5  1  0
 10  9  1  6
 10 12  1  0
 11 10  1  0
 12 13  1  1
 13  7  1  0
 14 12  1  0
 14 16  1  0
 15 14  2  0
 17 16  1  0
 17 28  1  0
 17 18  1  6
 19 18  1  0
 20 19  2  0
 21 20  1  0
 22 21  1  0
 22 27  2  0
 23 24  2  0
 23 22  1  0
 24 25  1  0
 25 26  2  0
 26 27  1  0
 27 19  1  0
 28 29  2  0
 28 30  1  0
M  END
$$$$
