MTW.pdb
     RDKit          3D

 30 31  0  0  1  0  0  0  0  0999 V2000
   20.0112   -2.1776  -24.3506 C   0  0  0  0  0  0  0  0  0  0  0  0
   19.3327   -2.2238  -22.6756 S   0  0  0  0  0  0  0  0  0  0  0  0
   19.9856   -3.5806  -21.6994 C   0  0  0  0  0  0  0  0  0  0  0  0
   21.4130   -3.3256  -21.2287 C   0  0  0  0  0  0  0  0  0  0  0  0
   21.8596   -4.5311  -20.4769 C   0  0  2  0  0  0  0  0  0  0  0  0
   22.0535   -5.6069  -21.4592 N   0  0  0  0  0  0  0  0  0  0  0  0
   20.9254   -4.9838  -19.4374 C   0  0  0  0  0  0  0  0  0  0  0  0
   20.5822   -4.1803  -18.5271 O   0  0  0  0  0  0  0  0  0  0  0  0
   17.4208   -6.6226  -19.8546 C   0  0  0  0  0  0  0  0  0  0  0  0
   18.2999   -7.4916  -18.9830 C   0  0  1  0  0  0  0  0  0  0  0  0
   18.8907   -8.5208  -19.7091 O   0  0  0  0  0  0  0  0  0  0  0  0
   19.4156   -6.6844  -18.3432 C   0  0  2  0  0  0  0  0  0  0  0  0
   20.3626   -6.2879  -19.3728 N   0  0  0  0  0  0  0  0  0  0  0  0
   20.0659   -7.5274  -17.3064 C   0  0  0  0  0  0  0  0  0  0  0  0
   20.9817   -8.3237  -17.6313 O   0  0  0  0  0  0  0  0  0  0  0  0
   19.7020   -7.4826  -15.9384 N   0  0  0  0  0  0  0  0  0  0  0  0
   20.2870   -8.2950  -14.9027 C   0  0  1  0  0  0  0  0  0  0  0  0
   21.1628   -7.5303  -13.9696 C   0  0  0  0  0  0  0  0  0  0  0  0
   22.2692   -6.9117  -14.7360 C   0  0  0  0  0  0  0  0  0  0  0  0
   23.2679   -7.5381  -15.4759 C   0  0  0  0  0  0  0  0  0  0  0  0
   24.0877   -6.6267  -16.0214 N   0  0  0  0  0  0  0  0  0  0  0  0
   23.6585   -5.3859  -15.6614 C   0  0  0  0  0  0  0  0  0  0  0  0
   24.1099   -4.1136  -15.9285 C   0  0  0  0  0  0  0  0  0  0  0  0
   23.4647   -3.0104  -15.4202 C   0  0  0  0  0  0  0  0  0  0  0  0
   22.3397   -3.1521  -14.6233 C   0  0  0  0  0  0  0  0  0  0  0  0
   21.9009   -4.4283  -14.3655 C   0  0  0  0  0  0  0  0  0  0  0  0
   22.5406   -5.5525  -14.8708 C   0  0  0  0  0  0  0  0  0  0  0  0
   19.1845   -8.9260  -14.1375 C   0  0  0  0  0  0  0  0  0  0  0  0
   19.3442   -9.7690  -13.2236 O   0  0  0  0  0  0  0  0  0  0  0  0
   17.8459   -8.5981  -14.4085 O   0  0  0  0  0  0  0  0  0  0  0  0
  1  2  1  0
  3  2  1  0
  4  3  1  0
  5  6  1  6
  5  4  1  0
  7  8  2  0
  7  5  1  0
 10  9  1  6
 10 12  1  0
 11 10  1  0
 12 13  1  6
 13  7  1  0
 14 12  1  0
 14 16  1  0
 15 14  2  0
 17 16  1  0
 17 28  1  0
 17 18  1  1
 19 18  1  0
 20 19  2  0
 21 20  1  0
 22 21  1  0
 22 27  2  0
 23 24  2  0
 23 22  1  0
 24 25  1  0
 25 26  2  0
 26 27  1  0
 27 19  1  0
 28 29  2  0
 28 30  1  0
M  END
$$$$
