MTW.pdb
     RDKit          3D

 30 31  0  0  1  0  0  0  0  0999 V2000
   24.0632  -13.5609  -15.5808 C   0  0  0  0  0  0  0  0  0  0  0  0
   25.7024  -13.7957  -16.3059 S   0  0  0  0  0  0  0  0  0  0  0  0
   26.2631  -15.4980  -16.2177 C   0  0  0  0  0  0  0  0  0  0  0  0
   25.6637  -16.2482  -15.0336 C   0  0  0  0  0  0  0  0  0  0  0  0
   26.1133  -17.6650  -15.1261 C   0  0  2  0  0  0  0  0  0  0  0  0
   25.7571  -18.1456  -16.4684 N   0  0  0  0  0  0  0  0  0  0  0  0
   25.5279  -18.5588  -14.1178 C   0  0  0  0  0  0  0  0  0  0  0  0
   24.2753  -18.5793  -13.9674 O   0  0  0  0  0  0  0  0  0  0  0  0
   25.1197  -22.1002  -13.8963 C   0  0  0  0  0  0  0  0  0  0  0  0
   25.8855  -21.7280  -12.6463 C   0  0  1  0  0  0  0  0  0  0  0  0
   27.2553  -21.9115  -12.8060 O   0  0  0  0  0  0  0  0  0  0  0  0
   25.6596  -20.2740  -12.2713 C   0  0  2  0  0  0  0  0  0  0  0  0
   26.2785  -19.4249  -13.2763 N   0  0  0  0  0  0  0  0  0  0  0  0
   26.2514  -20.0412  -10.9281 C   0  0  0  0  0  0  0  0  0  0  0  0
   27.1296  -19.1557  -10.7762 O   0  0  0  0  0  0  0  0  0  0  0  0
   25.8717  -20.7800   -9.7811 N   0  0  0  0  0  0  0  0  0  0  0  0
   26.4458  -20.6194   -8.4698 C   0  0  1  0  0  0  0  0  0  0  0  0
   26.2770  -19.2482   -7.9098 C   0  0  0  0  0  0  0  0  0  0  0  0
   27.4708  -18.8997   -7.1051 C   0  0  0  0  0  0  0  0  0  0  0  0
   28.5630  -18.1172   -7.4683 C   0  0  0  0  0  0  0  0  0  0  0  0
   29.4414  -18.0414   -6.4569 N   0  0  0  0  0  0  0  0  0  0  0  0
   28.9597  -18.7638   -5.4083 C   0  0  0  0  0  0  0  0  0  0  0  0
   29.4336  -19.0282   -4.1436 C   0  0  0  0  0  0  0  0  0  0  0  0
   28.7190  -19.8113   -3.2674 C   0  0  0  0  0  0  0  0  0  0  0  0
   27.4994  -20.3561   -3.6366 C   0  0  0  0  0  0  0  0  0  0  0  0
   27.0393  -20.0834   -4.9022 C   0  0  0  0  0  0  0  0  0  0  0  0
   27.7482  -19.2948   -5.7989 C   0  0  0  0  0  0  0  0  0  0  0  0
   25.8039  -21.6034   -7.5648 C   0  0  0  0  0  0  0  0  0  0  0  0
   24.6121  -21.9815   -7.6551 O   0  0  0  0  0  0  0  0  0  0  0  0
   26.5289  -22.1882   -6.5135 O   0  0  0  0  0  0  0  0  0  0  0  0
  1  2  1  0
  3  2  1  0
  4  3  1  0
  5  6  1  6
  5  4  1  0
  7  8  2  0
  7  5  1  0
 10  9  1  6
 10 12  1  0
 11 10  1  0
 12 13  1  6
 13  7  1  0
 14 12  1  0
 14 16  1  0
 15 14  2  0
 17 16  1  0
 17 28  1  0
 17 18  1  1
 19 18  1  0
 20 19  2  0
 21 20  1  0
 22 21  1  0
 22 27  2  0
 23 24  2  0
 23 22  1  0
 24 25  1  0
 25 26  2  0
 26 27  1  0
 27 19  1  0
 28 29  2  0
 28 30  1  0
M  END
$$$$
