MTW.pdb
     RDKit          3D

 30 31  0  0  1  0  0  0  0  0999 V2000
   25.7597  -18.7949   -6.7771 C   0  0  0  0  0  0  0  0  0  0  0  0
   27.2353  -19.8391   -6.7585 S   0  0  0  0  0  0  0  0  0  0  0  0
   27.2722  -21.0128   -8.1156 C   0  0  0  0  0  0  0  0  0  0  0  0
   26.5990  -20.4721   -9.3719 C   0  0  0  0  0  0  0  0  0  0  0  0
   26.7531  -21.4980  -10.4404 C   0  0  2  0  0  0  0  0  0  0  0  0
   28.1828  -21.8288  -10.5202 N   0  0  0  0  0  0  0  0  0  0  0  0
   26.2761  -21.0775  -11.7647 C   0  0  0  0  0  0  0  0  0  0  0  0
   27.0173  -20.3519  -12.4832 O   0  0  0  0  0  0  0  0  0  0  0  0
   25.4227  -23.3484  -14.4972 C   0  0  0  0  0  0  0  0  0  0  0  0
   24.2514  -22.3965  -14.3998 C   0  0  1  0  0  0  0  0  0  0  0  0
   23.1855  -22.9588  -13.7047 O   0  0  0  0  0  0  0  0  0  0  0  0
   24.6384  -21.1143  -13.6843 C   0  0  2  0  0  0  0  0  0  0  0  0
   25.0143  -21.4313  -12.3160 N   0  0  0  0  0  0  0  0  0  0  0  0
   23.4766  -20.1884  -13.7251 C   0  0  0  0  0  0  0  0  0  0  0  0
   22.8330  -19.9454  -12.6738 O   0  0  0  0  0  0  0  0  0  0  0  0
   23.0432  -19.5489  -14.9120 N   0  0  0  0  0  0  0  0  0  0  0  0
   21.9270  -18.6427  -14.9998 C   0  0  1  0  0  0  0  0  0  0  0  0
   21.9622  -17.7702  -16.2081 C   0  0  0  0  0  0  0  0  0  0  0  0
   23.1159  -16.8465  -16.1092 C   0  0  0  0  0  0  0  0  0  0  0  0
   24.4667  -17.1568  -15.9821 C   0  0  0  0  0  0  0  0  0  0  0  0
   25.2008  -16.0353  -15.9204 N   0  0  0  0  0  0  0  0  0  0  0  0
   24.3649  -14.9641  -16.0042 C   0  0  0  0  0  0  0  0  0  0  0  0
   24.5665  -13.6027  -15.9934 C   0  0  0  0  0  0  0  0  0  0  0  0
   23.5102  -12.7280  -16.0965 C   0  0  0  0  0  0  0  0  0  0  0  0
   22.2112  -13.1964  -16.2143 C   0  0  0  0  0  0  0  0  0  0  0  0
   22.0256  -14.5578  -16.2236 C   0  0  0  0  0  0  0  0  0  0  0  0
   23.0810  -15.4544  -16.1205 C   0  0  0  0  0  0  0  0  0  0  0  0
   20.6821  -19.4484  -15.0103 C   0  0  0  0  0  0  0  0  0  0  0  0
   20.6307  -20.6754  -15.2618 O   0  0  0  0  0  0  0  0  0  0  0  0
   19.4418  -18.8532  -14.7269 O   0  0  0  0  0  0  0  0  0  0  0  0
  1  2  1  0
  3  2  1  0
  4  3  1  0
  5  6  1  6
  5  4  1  0
  7  8  2  0
  7  5  1  0
 10  9  1  1
 10 12  1  0
 11 10  1  0
 12 13  1  1
 13  7  1  0
 14 12  1  0
 14 16  1  0
 15 14  2  0
 17 16  1  0
 17 28  1  0
 17 18  1  6
 19 18  1  0
 20 19  2  0
 21 20  1  0
 22 21  1  0
 22 27  2  0
 23 24  2  0
 23 22  1  0
 24 25  1  0
 25 26  2  0
 26 27  1  0
 27 19  1  0
 28 29  2  0
 28 30  1  0
M  END
$$$$
