MTW.pdb
     RDKit          3D

 30 31  0  0  1  0  0  0  0  0999 V2000
   30.4227  -18.5493  -19.7481 C   0  0  0  0  0  0  0  0  0  0  0  0
   30.0524  -20.2802  -20.1157 S   0  0  0  0  0  0  0  0  0  0  0  0
   29.0346  -21.0547  -18.8569 C   0  0  0  0  0  0  0  0  0  0  0  0
   28.9720  -20.2354  -17.5729 C   0  0  0  0  0  0  0  0  0  0  0  0
   28.1023  -20.9708  -16.6134 C   0  0  2  0  0  0  0  0  0  0  0  0
   26.8210  -21.2155  -17.2902 N   0  0  0  0  0  0  0  0  0  0  0  0
   27.8574  -20.2669  -15.3474 C   0  0  0  0  0  0  0  0  0  0  0  0
   27.9018  -19.0061  -15.3264 O   0  0  0  0  0  0  0  0  0  0  0  0
   25.9626  -18.6399  -14.6253 C   0  0  0  0  0  0  0  0  0  0  0  0
   25.7342  -19.4978  -13.4008 C   0  0  1  0  0  0  0  0  0  0  0  0
   24.7731  -20.4775  -13.6287 O   0  0  0  0  0  0  0  0  0  0  0  0
   27.0100  -20.2000  -12.9712 C   0  0  2  0  0  0  0  0  0  0  0  0
   27.5670  -20.9085  -14.1122 N   0  0  0  0  0  0  0  0  0  0  0  0
   26.6783  -21.1344  -11.8642 C   0  0  0  0  0  0  0  0  0  0  0  0
   26.4996  -22.3540  -12.1072 O   0  0  0  0  0  0  0  0  0  0  0  0
   26.5488  -20.7169  -10.5172 N   0  0  0  0  0  0  0  0  0  0  0  0
   26.1587  -21.5694   -9.4237 C   0  0  1  0  0  0  0  0  0  0  0  0
   27.2323  -21.7636   -8.4078 C   0  0  0  0  0  0  0  0  0  0  0  0
   27.4075  -20.5106   -7.6376 C   0  0  0  0  0  0  0  0  0  0  0  0
   26.9112  -19.2416   -7.9218 C   0  0  0  0  0  0  0  0  0  0  0  0
   27.2941  -18.3674   -6.9786 N   0  0  0  0  0  0  0  0  0  0  0  0
   28.0458  -19.0268   -6.0548 C   0  0  0  0  0  0  0  0  0  0  0  0
   28.6837  -18.6358   -4.8997 C   0  0  0  0  0  0  0  0  0  0  0  0
   29.3914  -19.5377   -4.1398 C   0  0  0  0  0  0  0  0  0  0  0  0
   29.4808  -20.8677   -4.5189 C   0  0  0  0  0  0  0  0  0  0  0  0
   28.8389  -21.2430   -5.6743 C   0  0  0  0  0  0  0  0  0  0  0  0
   28.1203  -20.3453   -6.4528 C   0  0  0  0  0  0  0  0  0  0  0  0
   24.9695  -20.9667   -8.7742 C   0  0  0  0  0  0  0  0  0  0  0  0
   24.4715  -19.8600   -9.0883 O   0  0  0  0  0  0  0  0  0  0  0  0
   24.3106  -21.6330   -7.7279 O   0  0  0  0  0  0  0  0  0  0  0  0
  1  2  1  0
  3  2  1  0
  4  3  1  0
  5  6  1  6
  5  4  1  0
  7  8  2  0
  7  5  1  0
 10  9  1  6
 10 12  1  0
 11 10  1  0
 12 13  1  6
 13  7  1  0
 14 12  1  0
 14 16  1  0
 15 14  2  0
 17 16  1  0
 17 28  1  0
 17 18  1  1
 19 18  1  0
 20 19  2  0
 21 20  1  0
 22 21  1  0
 22 27  2  0
 23 24  2  0
 23 22  1  0
 24 25  1  0
 25 26  2  0
 26 27  1  0
 27 19  1  0
 28 29  2  0
 28 30  1  0
M  END
$$$$
