MTW.pdb
     RDKit          3D

 30 31  0  0  1  0  0  0  0  0999 V2000
   28.3459  -23.1694  -15.5742 C   0  0  0  0  0  0  0  0  0  0  0  0
   29.2638  -22.6745  -17.0509 S   0  0  0  0  0  0  0  0  0  0  0  0
   29.2515  -20.8993  -17.3134 C   0  0  0  0  0  0  0  0  0  0  0  0
   28.9304  -20.1244  -16.0404 C   0  0  0  0  0  0  0  0  0  0  0  0
   27.5726  -19.5348  -16.2045 C   0  0  2  0  0  0  0  0  0  0  0  0
   27.7394  -18.2498  -16.8978 N   0  0  0  0  0  0  0  0  0  0  0  0
   26.8443  -19.3186  -14.9472 C   0  0  0  0  0  0  0  0  0  0  0  0
   26.9356  -18.2013  -14.3681 O   0  0  0  0  0  0  0  0  0  0  0  0
   23.1257  -20.2481  -11.9084 C   0  0  0  0  0  0  0  0  0  0  0  0
   23.8629  -20.3392  -13.2259 C   0  0  1  0  0  0  0  0  0  0  0  0
   23.3629  -19.4383  -14.1608 O   0  0  0  0  0  0  0  0  0  0  0  0
   25.3426  -20.0451  -13.0535 C   0  0  2  0  0  0  0  0  0  0  0  0
   26.0238  -20.2920  -14.3141 N   0  0  0  0  0  0  0  0  0  0  0  0
   25.8695  -20.9199  -11.9739 C   0  0  0  0  0  0  0  0  0  0  0  0
   26.4089  -22.0168  -12.2646 O   0  0  0  0  0  0  0  0  0  0  0  0
   25.7958  -20.5784  -10.6015 N   0  0  0  0  0  0  0  0  0  0  0  0
   26.2306  -21.4215   -9.5176 C   0  0  1  0  0  0  0  0  0  0  0  0
   27.6156  -21.1258   -9.0520 C   0  0  0  0  0  0  0  0  0  0  0  0
   27.5730  -20.0235   -8.0636 C   0  0  0  0  0  0  0  0  0  0  0  0
   26.8167  -18.8556   -8.0993 C   0  0  0  0  0  0  0  0  0  0  0  0
   27.0626  -18.1053   -7.0144 N   0  0  0  0  0  0  0  0  0  0  0  0
   27.9782  -18.7493   -6.2397 C   0  0  0  0  0  0  0  0  0  0  0  0
   28.5820  -18.4489   -5.0400 C   0  0  0  0  0  0  0  0  0  0  0  0
   29.4952  -19.3055   -4.4710 C   0  0  0  0  0  0  0  0  0  0  0  0
   29.8321  -20.4972   -5.0930 C   0  0  0  0  0  0  0  0  0  0  0  0
   29.2212  -20.7835   -6.2900 C   0  0  0  0  0  0  0  0  0  0  0  0
   28.2972  -19.9297   -6.8779 C   0  0  0  0  0  0  0  0  0  0  0  0
   25.2837  -21.2437   -8.3902 C   0  0  0  0  0  0  0  0  0  0  0  0
   25.3670  -21.8393   -7.2903 O   0  0  0  0  0  0  0  0  0  0  0  0
   24.1969  -20.3608   -8.5007 O   0  0  0  0  0  0  0  0  0  0  0  0
  1  2  1  0
  3  2  1  0
  4  3  1  0
  5  6  1  1
  5  4  1  0
  7  8  2  0
  7  5  1  0
 10  9  1  1
 10 12  1  0
 11 10  1  0
 12 13  1  6
 13  7  1  0
 14 12  1  0
 14 16  1  0
 15 14  2  0
 17 16  1  0
 17 28  1  0
 17 18  1  1
 19 18  1  0
 20 19  2  0
 21 20  1  0
 22 21  1  0
 22 27  2  0
 23 24  2  0
 23 22  1  0
 24 25  1  0
 25 26  2  0
 26 27  1  0
 27 19  1  0
 28 29  2  0
 28 30  1  0
M  END
$$$$
