MTW.pdb
     RDKit          3D

 30 31  0  0  1  0  0  0  0  0999 V2000
   31.4022  -22.6410  -21.2656 C   0  0  0  0  0  0  0  0  0  0  0  0
   30.4305  -21.2751  -21.9428 S   0  0  0  0  0  0  0  0  0  0  0  0
   28.9500  -20.9359  -20.9870 C   0  0  0  0  0  0  0  0  0  0  0  0
   29.2655  -20.4301  -19.5840 C   0  0  0  0  0  0  0  0  0  0  0  0
   28.0658  -20.6784  -18.7372 C   0  0  2  0  0  0  0  0  0  0  0  0
   26.9935  -19.8080  -19.2396 N   0  0  0  0  0  0  0  0  0  0  0  0
   28.2664  -20.4258  -17.3040 C   0  0  0  0  0  0  0  0  0  0  0  0
   29.4365  -20.4542  -16.8327 O   0  0  0  0  0  0  0  0  0  0  0  0
   28.2110  -17.5276  -15.4030 C   0  0  0  0  0  0  0  0  0  0  0  0
   27.2065  -18.4094  -14.6952 C   0  0  1  0  0  0  0  0  0  0  0  0
   25.9033  -18.1321  -15.0959 O   0  0  0  0  0  0  0  0  0  0  0  0
   27.4674  -19.8791  -14.9735 C   0  0  2  0  0  0  0  0  0  0  0  0
   27.2216  -20.1446  -16.3817 N   0  0  0  0  0  0  0  0  0  0  0  0
   26.5687  -20.6849  -14.1065 C   0  0  0  0  0  0  0  0  0  0  0  0
   25.5435  -21.2217  -14.5956 O   0  0  0  0  0  0  0  0  0  0  0  0
   26.8088  -20.8865  -12.7255 N   0  0  0  0  0  0  0  0  0  0  0  0
   25.9922  -21.6939  -11.8560 C   0  0  1  0  0  0  0  0  0  0  0  0
   26.6972  -22.1377  -10.6197 C   0  0  0  0  0  0  0  0  0  0  0  0
   26.6321  -21.0586   -9.6071 C   0  0  0  0  0  0  0  0  0  0  0  0
   25.6039  -20.1501   -9.3729 C   0  0  0  0  0  0  0  0  0  0  0  0
   25.9287  -19.3252   -8.3657 N   0  0  0  0  0  0  0  0  0  0  0  0
   27.1670  -19.6616   -7.9110 C   0  0  0  0  0  0  0  0  0  0  0  0
   27.9774  -19.1646   -6.9159 C   0  0  0  0  0  0  0  0  0  0  0  0
   29.2142  -19.7127   -6.6679 C   0  0  0  0  0  0  0  0  0  0  0  0
   29.6778  -20.7832   -7.4162 C   0  0  0  0  0  0  0  0  0  0  0  0
   28.8576  -21.2685   -8.4059 C   0  0  0  0  0  0  0  0  0  0  0  0
   27.6064  -20.7267   -8.6692 C   0  0  0  0  0  0  0  0  0  0  0  0
   24.7963  -20.9003  -11.4829 C   0  0  0  0  0  0  0  0  0  0  0  0
   24.7280  -19.6496  -11.5338 O   0  0  0  0  0  0  0  0  0  0  0  0
   23.6272  -21.5358  -11.0333 O   0  0  0  0  0  0  0  0  0  0  0  0
  1  2  1  0
  3  2  1  0
  4  3  1  0
  5  6  1  6
  5  4  1  0
  7  8  2  0
  7  5  1  0
 10  9  1  6
 10 12  1  0
 11 10  1  0
 12 13  1  6
 13  7  1  0
 14 12  1  0
 14 16  1  0
 15 14  2  0
 17 16  1  0
 17 28  1  0
 17 18  1  1
 19 18  1  0
 20 19  2  0
 21 20  1  0
 22 21  1  0
 22 27  2  0
 23 24  2  0
 23 22  1  0
 24 25  1  0
 25 26  2  0
 26 27  1  0
 27 19  1  0
 28 29  2  0
 28 30  1  0
M  END
$$$$
