MTW.pdb
     RDKit          3D

 30 31  0  0  1  0  0  0  0  0999 V2000
   28.1819  -19.3222   -3.9524 C   0  0  0  0  0  0  0  0  0  0  0  0
   28.4883  -19.6929   -5.6951 S   0  0  0  0  0  0  0  0  0  0  0  0
   27.2818  -18.9376   -6.7878 C   0  0  0  0  0  0  0  0  0  0  0  0
   27.5795  -19.2058   -8.2587 C   0  0  0  0  0  0  0  0  0  0  0  0
   26.6874  -20.3127   -8.7025 C   0  0  2  0  0  0  0  0  0  0  0  0
   27.3501  -21.5739   -8.3419 N   0  0  0  0  0  0  0  0  0  0  0  0
   26.3855  -20.3152  -10.1402 C   0  0  0  0  0  0  0  0  0  0  0  0
   27.3310  -20.4365  -10.9667 O   0  0  0  0  0  0  0  0  0  0  0  0
   26.6763  -21.8119  -12.5275 C   0  0  0  0  0  0  0  0  0  0  0  0
   25.2019  -21.5243  -12.7033 C   0  0  1  0  0  0  0  0  0  0  0  0
   24.4107  -22.4826  -12.0778 O   0  0  0  0  0  0  0  0  0  0  0  0
   24.8286  -20.1724  -12.1212 C   0  0  2  0  0  0  0  0  0  0  0  0
   25.0801  -20.1885  -10.6892 N   0  0  0  0  0  0  0  0  0  0  0  0
   23.3943  -19.9178  -12.4153 C   0  0  0  0  0  0  0  0  0  0  0  0
   22.5106  -20.3263  -11.6212 O   0  0  0  0  0  0  0  0  0  0  0  0
   22.9566  -19.2233  -13.5693 N   0  0  0  0  0  0  0  0  0  0  0  0
   21.5859  -18.8900  -13.8606 C   0  0  1  0  0  0  0  0  0  0  0  0
   21.4169  -18.1151  -15.1229 C   0  0  0  0  0  0  0  0  0  0  0  0
   22.1813  -18.7753  -16.2064 C   0  0  0  0  0  0  0  0  0  0  0  0
   21.7836  -19.8199  -17.0358 C   0  0  0  0  0  0  0  0  0  0  0  0
   22.7667  -20.1381  -17.8918 N   0  0  0  0  0  0  0  0  0  0  0  0
   23.8300  -19.3216  -17.6548 C   0  0  0  0  0  0  0  0  0  0  0  0
   25.0790  -19.2053  -18.2208 C   0  0  0  0  0  0  0  0  0  0  0  0
   25.9774  -18.2662  -17.7708 C   0  0  0  0  0  0  0  0  0  0  0  0
   25.6471  -17.4100  -16.7323 C   0  0  0  0  0  0  0  0  0  0  0  0
   24.3967  -17.5380  -16.1773 C   0  0  0  0  0  0  0  0  0  0  0  0
   23.4780  -18.4806  -16.6198 C   0  0  0  0  0  0  0  0  0  0  0  0
   20.8162  -20.1543  -13.9522 C   0  0  0  0  0  0  0  0  0  0  0  0
   19.5741  -20.2432  -13.8087 O   0  0  0  0  0  0  0  0  0  0  0  0
   21.4669  -21.3709  -14.2156 O   0  0  0  0  0  0  0  0  0  0  0  0
  1  2  1  0
  3  2  1  0
  4  3  1  0
  5  6  1  6
  5  4  1  0
  7  8  2  0
  7  5  1  0
 10  9  1  1
 10 12  1  0
 11 10  1  0
 12 13  1  1
 13  7  1  0
 14 12  1  0
 14 16  1  0
 15 14  2  0
 17 16  1  0
 17 28  1  0
 17 18  1  6
 19 18  1  0
 20 19  2  0
 21 20  1  0
 22 21  1  0
 22 27  2  0
 23 24  2  0
 23 22  1  0
 24 25  1  0
 25 26  2  0
 26 27  1  0
 27 19  1  0
 28 29  2  0
 28 30  1  0
M  END
$$$$
