MTW.pdb
     RDKit          3D

 30 31  0  0  1  0  0  0  0  0999 V2000
   32.1497  -24.1244  -14.8949 C   0  0  0  0  0  0  0  0  0  0  0  0
   31.1927  -24.8753  -16.2323 S   0  0  0  0  0  0  0  0  0  0  0  0
   29.6769  -23.9826  -16.5870 C   0  0  0  0  0  0  0  0  0  0  0  0
   29.3705  -22.9162  -15.5416 C   0  0  0  0  0  0  0  0  0  0  0  0
   28.1590  -22.1783  -15.9951 C   0  0  2  0  0  0  0  0  0  0  0  0
   28.4971  -21.5341  -17.2720 N   0  0  0  0  0  0  0  0  0  0  0  0
   27.6729  -21.1629  -15.0513 C   0  0  0  0  0  0  0  0  0  0  0  0
   27.8551  -19.9422  -15.3139 O   0  0  0  0  0  0  0  0  0  0  0  0
   25.9407  -19.0353  -15.0304 C   0  0  0  0  0  0  0  0  0  0  0  0
   25.3509  -19.6786  -13.7952 C   0  0  1  0  0  0  0  0  0  0  0  0
   24.3527  -20.5932  -14.1159 O   0  0  0  0  0  0  0  0  0  0  0  0
   26.4098  -20.4186  -12.9973 C   0  0  2  0  0  0  0  0  0  0  0  0
   26.9965  -21.4523  -13.8347 N   0  0  0  0  0  0  0  0  0  0  0  0
   25.7639  -21.0010  -11.7923 C   0  0  0  0  0  0  0  0  0  0  0  0
   25.2982  -22.1672  -11.8339 O   0  0  0  0  0  0  0  0  0  0  0  0
   25.6405  -20.2979  -10.5692 N   0  0  0  0  0  0  0  0  0  0  0  0
   25.1106  -20.8518   -9.3496 C   0  0  1  0  0  0  0  0  0  0  0  0
   25.5710  -20.1402   -8.1232 C   0  0  0  0  0  0  0  0  0  0  0  0
   27.0283  -20.3468   -7.9575 C   0  0  0  0  0  0  0  0  0  0  0  0
   27.9187  -20.9766   -8.8223 C   0  0  0  0  0  0  0  0  0  0  0  0
   29.1585  -20.9622   -8.3095 N   0  0  0  0  0  0  0  0  0  0  0  0
   29.1228  -20.3296   -7.1046 C   0  0  0  0  0  0  0  0  0  0  0  0
   30.0806  -20.0345   -6.1615 C   0  0  0  0  0  0  0  0  0  0  0  0
   29.7547  -19.3674   -5.0037 C   0  0  0  0  0  0  0  0  0  0  0  0
   28.4492  -18.9738   -4.7562 C   0  0  0  0  0  0  0  0  0  0  0  0
   27.5041  -19.2753   -5.7068 C   0  0  0  0  0  0  0  0  0  0  0  0
   27.8163  -19.9481   -6.8808 C   0  0  0  0  0  0  0  0  0  0  0  0
   23.6307  -20.7954   -9.4255 C   0  0  0  0  0  0  0  0  0  0  0  0
   22.9864  -20.1575  -10.2912 O   0  0  0  0  0  0  0  0  0  0  0  0
   22.8393  -21.4831   -8.4908 O   0  0  0  0  0  0  0  0  0  0  0  0
  1  2  1  0
  3  2  1  0
  4  3  1  0
  5  6  1  6
  5  4  1  0
  7  8  2  0
  7  5  1  0
 10  9  1  6
 10 12  1  0
 11 10  1  0
 12 13  1  6
 13  7  1  0
 14 12  1  0
 14 16  1  0
 15 14  2  0
 17 16  1  0
 17 28  1  0
 17 18  1  1
 19 18  1  0
 20 19  2  0
 21 20  1  0
 22 21  1  0
 22 27  2  0
 23 24  2  0
 23 22  1  0
 24 25  1  0
 25 26  2  0
 26 27  1  0
 27 19  1  0
 28 29  2  0
 28 30  1  0
M  END
$$$$
