MTW.pdb
     RDKit          3D

 30 31  0  0  1  0  0  0  0  0999 V2000
   28.5948  -18.5093   -5.4873 C   0  0  0  0  0  0  0  0  0  0  0  0
   27.3107  -19.7817   -5.5032 S   0  0  0  0  0  0  0  0  0  0  0  0
   27.7751  -21.2244   -6.4640 C   0  0  0  0  0  0  0  0  0  0  0  0
   26.7815  -21.5255   -7.5803 C   0  0  0  0  0  0  0  0  0  0  0  0
   26.6152  -20.2807   -8.3808 C   0  0  2  0  0  0  0  0  0  0  0  0
   25.2443  -19.8013   -8.1560 N   0  0  0  0  0  0  0  0  0  0  0  0
   26.8426  -20.4463   -9.8226 C   0  0  0  0  0  0  0  0  0  0  0  0
   27.8755  -21.0549  -10.2161 O   0  0  0  0  0  0  0  0  0  0  0  0
   27.1539  -22.4658  -11.4594 C   0  0  0  0  0  0  0  0  0  0  0  0
   26.1164  -21.8363  -12.3620 C   0  0  1  0  0  0  0  0  0  0  0  0
   24.8325  -22.2789  -12.0602 O   0  0  0  0  0  0  0  0  0  0  0  0
   26.1195  -20.3230  -12.2373 C   0  0  2  0  0  0  0  0  0  0  0  0
   25.9703  -19.9637  -10.8363 N   0  0  0  0  0  0  0  0  0  0  0  0
   25.0015  -19.7851  -13.0553 C   0  0  0  0  0  0  0  0  0  0  0  0
   23.9942  -19.2905  -12.4903 O   0  0  0  0  0  0  0  0  0  0  0  0
   25.0076  -19.7992  -14.4714 N   0  0  0  0  0  0  0  0  0  0  0  0
   23.9819  -19.2281  -15.3061 C   0  0  1  0  0  0  0  0  0  0  0  0
   24.4772  -18.7888  -16.6417 C   0  0  0  0  0  0  0  0  0  0  0  0
   25.9178  -19.1132  -16.7584 C   0  0  0  0  0  0  0  0  0  0  0  0
   26.5159  -20.3602  -16.9146 C   0  0  0  0  0  0  0  0  0  0  0  0
   27.8503  -20.2346  -16.9783 N   0  0  0  0  0  0  0  0  0  0  0  0
   28.1680  -18.9154  -16.8673 C   0  0  0  0  0  0  0  0  0  0  0  0
   29.3586  -18.2251  -16.8677 C   0  0  0  0  0  0  0  0  0  0  0  0
   29.3854  -16.8564  -16.7352 C   0  0  0  0  0  0  0  0  0  0  0  0
   28.2103  -16.1347  -16.5976 C   0  0  0  0  0  0  0  0  0  0  0  0
   27.0297  -16.8376  -16.5991 C   0  0  0  0  0  0  0  0  0  0  0  0
   26.9852  -18.2192  -16.7318 C   0  0  0  0  0  0  0  0  0  0  0  0
   22.9179  -20.2454  -15.4857 C   0  0  0  0  0  0  0  0  0  0  0  0
   23.0293  -21.4543  -15.1734 O   0  0  0  0  0  0  0  0  0  0  0  0
   21.6761  -19.8924  -16.0391 O   0  0  0  0  0  0  0  0  0  0  0  0
  1  2  1  0
  3  2  1  0
  4  3  1  0
  5  6  1  6
  5  4  1  0
  7  8  2  0
  7  5  1  0
 10  9  1  1
 10 12  1  0
 11 10  1  0
 12 13  1  1
 13  7  1  0
 14 12  1  0
 14 16  1  0
 15 14  2  0
 17 16  1  0
 17 28  1  0
 17 18  1  6
 19 18  1  0
 20 19  2  0
 21 20  1  0
 22 21  1  0
 22 27  2  0
 23 24  2  0
 23 22  1  0
 24 25  1  0
 25 26  2  0
 26 27  1  0
 27 19  1  0
 28 29  2  0
 28 30  1  0
M  END
$$$$
