VST.pdb
     RDKit          3D

 21 20  0  0  1  0  0  0  0  0999 V2000
    8.4203  -12.8698   18.1059 C   0  0  0  0  0  0  0  0  0  0  0  0
    7.9178  -13.3932   19.4335 C   0  0  2  0  0  0  0  0  0  0  0  0
    8.4887  -12.4946   20.5102 C   0  0  0  0  0  0  0  0  0  0  0  0
    8.4011  -14.8134   19.6342 C   0  0  2  0  0  0  0  0  0  0  0  0
    7.9715  -15.6537   18.5334 N   0  0  0  0  0  0  0  0  0  0  0  0
    7.9727  -15.3634   20.9449 C   0  0  0  0  0  0  0  0  0  0  0  0
    6.7952  -15.7710   21.1167 O   0  0  0  0  0  0  0  0  0  0  0  0
   10.3514  -17.2520   23.7272 O   0  0  0  0  0  0  0  0  0  0  0  0
    8.9812  -17.2046   23.7805 C   0  0  0  0  0  0  0  0  0  0  0  0
    8.4198  -15.8582   23.3847 C   0  0  2  0  0  0  0  0  0  0  0  0
    8.8474  -15.4614   22.0622 N   0  0  0  0  0  0  0  0  0  0  0  0
    8.8161  -14.8791   24.4214 C   0  0  0  0  0  0  0  0  0  0  0  0
    9.9347  -14.3233   24.4460 O   0  0  0  0  0  0  0  0  0  0  0  0
    6.4261  -12.0197   25.7491 C   0  0  0  0  0  0  0  0  0  0  0  0
    6.8066  -12.9952   26.8693 C   0  0  1  0  0  0  0  0  0  0  0  0
    5.8637  -14.0332   26.8283 O   0  0  0  0  0  0  0  0  0  0  0  0
    8.1425  -13.6310   26.5024 C   0  0  2  0  0  0  0  0  0  0  0  0
    7.8638  -14.5687   25.4302 N   0  0  0  0  0  0  0  0  0  0  0  0
    8.5975  -14.4304   27.6755 C   0  0  0  0  0  0  0  0  0  0  0  0
    9.0715  -13.8240   28.8380 O   0  0  0  0  0  0  0  0  0  0  0  0
    8.5780  -15.6981   27.6794 O   0  0  0  0  0  0  0  0  0  0  0  0
  2  1  1  6
  2  4  1  0
  3  2  1  0
  4  5  1  6
  6 11  1  0
  6  4  1  0
  7  6  2  0
  8  9  1  0
 10  9  1  1
 10 11  1  0
 10 12  1  0
 12 18  1  0
 12 13  2  0
 15 16  1  0
 15 14  1  6
 17 15  1  0
 17 18  1  6
 19 17  1  0
 19 20  1  0
 21 19  2  0
M  END
$$$$
