VST.pdb
     RDKit          3D

 21 20  0  0  1  0  0  0  0  0999 V2000
    6.9732  -14.1702   17.9090 C   0  0  0  0  0  0  0  0  0  0  0  0
    7.7242  -14.5644   19.1618 C   0  0  2  0  0  0  0  0  0  0  0  0
    6.9313  -15.6703   19.8258 C   0  0  0  0  0  0  0  0  0  0  0  0
    7.8257  -13.3718   20.0883 C   0  0  2  0  0  0  0  0  0  0  0  0
    8.4365  -12.2498   19.4027 N   0  0  0  0  0  0  0  0  0  0  0  0
    8.5446  -13.7062   21.3435 C   0  0  0  0  0  0  0  0  0  0  0  0
    9.7904  -13.8802   21.3435 O   0  0  0  0  0  0  0  0  0  0  0  0
    6.5021  -14.3476   25.0740 O   0  0  0  0  0  0  0  0  0  0  0  0
    7.7750  -13.8361   25.0443 C   0  0  0  0  0  0  0  0  0  0  0  0
    8.5500  -14.2487   23.8139 C   0  0  2  0  0  0  0  0  0  0  0  0
    7.8843  -13.8471   22.5953 N   0  0  0  0  0  0  0  0  0  0  0  0
    8.7638  -15.7117   23.8821 C   0  0  0  0  0  0  0  0  0  0  0  0
    7.8645  -16.5465   23.6476 O   0  0  0  0  0  0  0  0  0  0  0  0
   10.9777  -17.7336   22.0268 C   0  0  0  0  0  0  0  0  0  0  0  0
   11.5091  -17.8933   23.4563 C   0  0  1  0  0  0  0  0  0  0  0  0
   12.4598  -16.8785   23.6415 O   0  0  0  0  0  0  0  0  0  0  0  0
   10.3690  -17.5768   24.4174 C   0  0  2  0  0  0  0  0  0  0  0  0
   10.0628  -16.1700   24.2331 N   0  0  0  0  0  0  0  0  0  0  0  0
   10.8935  -17.7323   25.8041 C   0  0  0  0  0  0  0  0  0  0  0  0
   11.2618  -18.9764   26.3147 O   0  0  0  0  0  0  0  0  0  0  0  0
   11.0323  -16.7470   26.5899 O   0  0  0  0  0  0  0  0  0  0  0  0
  2  1  1  6
  2  4  1  0
  3  2  1  0
  4  5  1  6
  6 11  1  0
  6  4  1  0
  7  6  2  0
  8  9  1  0
 10  9  1  1
 10 11  1  0
 10 12  1  0
 12 18  1  0
 12 13  2  0
 15 16  1  0
 15 14  1  6
 17 15  1  0
 17 18  1  1
 19 17  1  0
 19 20  1  0
 21 19  2  0
M  END
$$$$
