VST.pdb
     RDKit          3D

 21 20  0  0  1  0  0  0  0  0999 V2000
    6.9728  -14.4620   17.7889 C   0  0  0  0  0  0  0  0  0  0  0  0
    7.7485  -14.7718   19.0503 C   0  0  2  0  0  0  0  0  0  0  0  0
    7.0219  -15.8989   19.7533 C   0  0  0  0  0  0  0  0  0  0  0  0
    7.7844  -13.5460   19.9373 C   0  0  2  0  0  0  0  0  0  0  0  0
    8.3692  -12.4253   19.2271 N   0  0  0  0  0  0  0  0  0  0  0  0
    8.4860  -13.8108   21.2186 C   0  0  0  0  0  0  0  0  0  0  0  0
    9.7422  -13.8574   21.2657 O   0  0  0  0  0  0  0  0  0  0  0  0
    6.3416  -14.6515   24.8101 O   0  0  0  0  0  0  0  0  0  0  0  0
    7.5917  -14.0910   24.8865 C   0  0  0  0  0  0  0  0  0  0  0  0
    8.4504  -14.3931   23.6797 C   0  0  2  0  0  0  0  0  0  0  0  0
    7.7969  -14.0235   22.4446 N   0  0  0  0  0  0  0  0  0  0  0  0
    8.8022  -15.8301   23.7218 C   0  0  0  0  0  0  0  0  0  0  0  0
    8.0313  -16.7350   23.3375 O   0  0  0  0  0  0  0  0  0  0  0  0
   11.4531  -17.5166   22.1069 C   0  0  0  0  0  0  0  0  0  0  0  0
   11.7978  -17.7020   23.5895 C   0  0  1  0  0  0  0  0  0  0  0  0
   12.5996  -16.6086   23.9498 O   0  0  0  0  0  0  0  0  0  0  0  0
   10.5095  -17.5560   24.3912 C   0  0  2  0  0  0  0  0  0  0  0  0
   10.0844  -16.1780   24.2273 N   0  0  0  0  0  0  0  0  0  0  0  0
   10.8520  -17.7401   25.8303 C   0  0  0  0  0  0  0  0  0  0  0  0
   11.2357  -18.9793   26.3412 O   0  0  0  0  0  0  0  0  0  0  0  0
   10.8131  -16.7848   26.6630 O   0  0  0  0  0  0  0  0  0  0  0  0
  2  1  1  6
  2  4  1  0
  3  2  1  0
  4  5  1  6
  6 11  1  0
  6  4  1  0
  7  6  2  0
  8  9  1  0
 10  9  1  1
 10 11  1  0
 10 12  1  0
 12 18  1  0
 12 13  2  0
 15 16  1  0
 15 14  1  6
 17 15  1  0
 17 18  1  1
 19 17  1  0
 19 20  1  0
 21 19  2  0
M  END
$$$$
