VST.pdb
     RDKit          3D

 21 20  0  0  1  0  0  0  0  0999 V2000
    6.3767  -21.6858   19.1400 C   0  0  0  0  0  0  0  0  0  0  0  0
    6.2553  -23.0953   19.6760 C   0  0  2  0  0  0  0  0  0  0  0  0
    5.7164  -23.9537   18.5511 C   0  0  0  0  0  0  0  0  0  0  0  0
    5.2949  -23.1119   20.8458 C   0  0  2  0  0  0  0  0  0  0  0  0
    3.9584  -22.7604   20.4072 N   0  0  0  0  0  0  0  0  0  0  0  0
    5.7573  -22.2382   21.9534 C   0  0  0  0  0  0  0  0  0  0  0  0
    5.4979  -21.0073   21.9519 O   0  0  0  0  0  0  0  0  0  0  0  0
    7.3854  -23.6749   25.6756 O   0  0  0  0  0  0  0  0  0  0  0  0
    6.7807  -22.4587   25.4809 C   0  0  0  0  0  0  0  0  0  0  0  0
    7.0364  -21.8840   24.1064 C   0  0  2  0  0  0  0  0  0  0  0  0
    6.5050  -22.7276   23.0599 N   0  0  0  0  0  0  0  0  0  0  0  0
    8.4943  -21.6683   23.9691 C   0  0  0  0  0  0  0  0  0  0  0  0
    9.2483  -22.4561   23.3596 O   0  0  0  0  0  0  0  0  0  0  0  0
    9.8338  -18.3829   22.7960 C   0  0  0  0  0  0  0  0  0  0  0  0
   10.4693  -18.6374   24.1681 C   0  0  1  0  0  0  0  0  0  0  0  0
    9.6044  -18.0714   25.1167 O   0  0  0  0  0  0  0  0  0  0  0  0
   10.4431  -20.1398   24.4244 C   0  0  2  0  0  0  0  0  0  0  0  0
    9.0449  -20.5021   24.5669 N   0  0  0  0  0  0  0  0  0  0  0  0
   11.0945  -20.3825   25.7432 C   0  0  0  0  0  0  0  0  0  0  0  0
   12.4759  -20.2905   25.9079 O   0  0  0  0  0  0  0  0  0  0  0  0
   10.4310  -20.6841   26.7807 O   0  0  0  0  0  0  0  0  0  0  0  0
  2  1  1  6
  2  4  1  0
  3  2  1  0
  4  5  1  6
  6 11  1  0
  6  4  1  0
  7  6  2  0
  8  9  1  0
 10  9  1  1
 10 11  1  0
 10 12  1  0
 12 18  1  0
 12 13  2  0
 15 16  1  0
 15 14  1  6
 17 15  1  0
 17 18  1  1
 19 17  1  0
 19 20  1  0
 21 19  2  0
M  END
$$$$
