VST.pdb
     RDKit          3D

 21 20  0  0  1  0  0  0  0  0999 V2000
    8.2002  -15.3002   19.3393 C   0  0  0  0  0  0  0  0  0  0  0  0
    7.2797  -14.2015   19.8236 C   0  0  2  0  0  0  0  0  0  0  0  0
    6.5728  -13.6449   18.6058 C   0  0  0  0  0  0  0  0  0  0  0  0
    8.0949  -13.1148   20.4910 C   0  0  2  0  0  0  0  0  0  0  0  0
    9.0432  -12.5464   19.5530 N   0  0  0  0  0  0  0  0  0  0  0  0
    8.7654  -13.6034   21.7221 C   0  0  0  0  0  0  0  0  0  0  0  0
    9.9839  -13.9156   21.7093 O   0  0  0  0  0  0  0  0  0  0  0  0
    6.5603  -14.4043   25.2735 O   0  0  0  0  0  0  0  0  0  0  0  0
    7.8789  -14.0428   25.3885 C   0  0  0  0  0  0  0  0  0  0  0  0
    8.6831  -14.3338   24.1422 C   0  0  2  0  0  0  0  0  0  0  0  0
    8.0870  -13.7456   22.9641 N   0  0  0  0  0  0  0  0  0  0  0  0
    8.8254  -15.8025   24.0270 C   0  0  0  0  0  0  0  0  0  0  0  0
    7.9344  -16.5417   23.5576 O   0  0  0  0  0  0  0  0  0  0  0  0
   10.8357  -17.9080   22.1793 C   0  0  0  0  0  0  0  0  0  0  0  0
   11.3523  -18.1651   23.5999 C   0  0  1  0  0  0  0  0  0  0  0  0
   12.3668  -17.2237   23.8293 O   0  0  0  0  0  0  0  0  0  0  0  0
   10.2331  -17.8175   24.5748 C   0  0  2  0  0  0  0  0  0  0  0  0
   10.0428  -16.3819   24.4776 N   0  0  0  0  0  0  0  0  0  0  0  0
   10.7312  -18.1007   25.9510 C   0  0  0  0  0  0  0  0  0  0  0  0
   10.9837  -17.0787   26.8652 O   0  0  0  0  0  0  0  0  0  0  0  0
   10.9512  -19.2797   26.3621 O   0  0  0  0  0  0  0  0  0  0  0  0
  2  1  1  6
  2  4  1  0
  3  2  1  0
  4  5  1  6
  6 11  1  0
  6  4  1  0
  7  6  2  0
  8  9  1  0
 10  9  1  1
 10 11  1  0
 10 12  1  0
 12 18  1  0
 12 13  2  0
 15 16  1  0
 15 14  1  6
 17 15  1  0
 17 18  1  1
 19 17  1  0
 19 20  1  0
 21 19  2  0
M  END
$$$$
