VST.pdb
     RDKit          3D

 21 20  0  0  1  0  0  0  0  0999 V2000
    7.1111  -20.0807   27.2420 C   0  0  0  0  0  0  0  0  0  0  0  0
    7.7114  -18.9333   26.4597 C   0  0  2  0  0  0  0  0  0  0  0  0
    7.0522  -17.6638   26.9564 C   0  0  0  0  0  0  0  0  0  0  0  0
    7.4272  -19.1216   24.9850 C   0  0  2  0  0  0  0  0  0  0  0  0
    7.8032  -20.4573   24.5646 N   0  0  0  0  0  0  0  0  0  0  0  0
    8.0852  -18.0795   24.1575 C   0  0  0  0  0  0  0  0  0  0  0  0
    9.3246  -18.1152   23.9453 O   0  0  0  0  0  0  0  0  0  0  0  0
    5.8462  -15.2627   21.9836 O   0  0  0  0  0  0  0  0  0  0  0  0
    7.1570  -15.4901   21.6476 C   0  0  0  0  0  0  0  0  0  0  0  0
    8.0002  -15.9338   22.8210 C   0  0  2  0  0  0  0  0  0  0  0  0
    7.3713  -17.0006   23.5665 N   0  0  0  0  0  0  0  0  0  0  0  0
    8.2710  -14.7450   23.6601 C   0  0  0  0  0  0  0  0  0  0  0  0
    8.8281  -13.7141   23.2270 O   0  0  0  0  0  0  0  0  0  0  0  0
    6.2008  -12.3313   25.3657 C   0  0  0  0  0  0  0  0  0  0  0  0
    6.8008  -13.2270   26.4562 C   0  0  1  0  0  0  0  0  0  0  0  0
    5.9787  -14.3611   26.5345 O   0  0  0  0  0  0  0  0  0  0  0  0
    8.1530  -13.7261   25.9601 C   0  0  2  0  0  0  0  0  0  0  0  0
    7.8702  -14.7978   25.0229 N   0  0  0  0  0  0  0  0  0  0  0  0
    8.8610  -14.3361   27.1215 C   0  0  0  0  0  0  0  0  0  0  0  0
    9.2927  -13.5697   28.2033 O   0  0  0  0  0  0  0  0  0  0  0  0
    9.1075  -15.5780   27.1880 O   0  0  0  0  0  0  0  0  0  0  0  0
  2  1  1  1
  2  4  1  0
  3  2  1  0
  4  5  1  6
  6 11  1  0
  6  4  1  0
  7  6  2  0
  8  9  1  0
 10  9  1  6
 10 11  1  0
 10 12  1  0
 12 18  1  0
 12 13  2  0
 15 16  1  0
 15 14  1  6
 17 15  1  0
 17 18  1  6
 19 17  1  0
 19 20  1  0
 21 19  2  0
M  END
$$$$
