VST.pdb
     RDKit          3D

 21 20  0  0  1  0  0  0  0  0999 V2000
    7.0320  -12.8009   20.1475 C   0  0  0  0  0  0  0  0  0  0  0  0
    8.4287  -13.2121   19.7362 C   0  0  2  0  0  0  0  0  0  0  0  0
    8.6811  -12.6193   18.3660 C   0  0  0  0  0  0  0  0  0  0  0  0
    8.5140  -14.7219   19.6710 C   0  0  2  0  0  0  0  0  0  0  0  0
    7.6665  -15.2306   18.6102 N   0  0  0  0  0  0  0  0  0  0  0  0
    8.1959  -15.3508   20.9777 C   0  0  0  0  0  0  0  0  0  0  0  0
    7.0137  -15.6691   21.2667 O   0  0  0  0  0  0  0  0  0  0  0  0
   11.0032  -17.2664   23.4588 O   0  0  0  0  0  0  0  0  0  0  0  0
    9.6439  -17.4080   23.5815 C   0  0  0  0  0  0  0  0  0  0  0  0
    8.8869  -16.1346   23.2810 C   0  0  2  0  0  0  0  0  0  0  0  0
    9.1856  -15.6262   21.9614 N   0  0  0  0  0  0  0  0  0  0  0  0
    9.2040  -15.1566   24.3457 C   0  0  0  0  0  0  0  0  0  0  0  0
   10.2081  -14.4139   24.3158 O   0  0  0  0  0  0  0  0  0  0  0  0
    6.9455  -12.4642   25.7129 C   0  0  0  0  0  0  0  0  0  0  0  0
    7.1861  -13.4910   26.8261 C   0  0  1  0  0  0  0  0  0  0  0  0
    6.2154  -14.4902   26.6603 O   0  0  0  0  0  0  0  0  0  0  0  0
    8.5273  -14.1646   26.5593 C   0  0  2  0  0  0  0  0  0  0  0  0
    8.3104  -15.0728   25.4481 N   0  0  0  0  0  0  0  0  0  0  0  0
    8.8556  -15.0001   27.7494 C   0  0  0  0  0  0  0  0  0  0  0  0
    9.2109  -14.4301   28.9713 O   0  0  0  0  0  0  0  0  0  0  0  0
    8.8297  -16.2672   27.7151 O   0  0  0  0  0  0  0  0  0  0  0  0
  2  1  1  6
  2  4  1  0
  3  2  1  0
  4  5  1  6
  6 11  1  0
  6  4  1  0
  7  6  2  0
  8  9  1  0
 10  9  1  1
 10 11  1  0
 10 12  1  0
 12 18  1  0
 12 13  2  0
 15 16  1  0
 15 14  1  6
 17 15  1  0
 17 18  1  6
 19 17  1  0
 19 20  1  0
 21 19  2  0
M  END
$$$$
