VST.pdb
     RDKit          3D

 21 20  0  0  1  0  0  0  0  0999 V2000
    5.8774  -11.0729   25.5662 C   0  0  0  0  0  0  0  0  0  0  0  0
    6.7956  -12.2676   25.7034 C   0  0  2  0  0  0  0  0  0  0  0  0
    8.0224  -11.9841   24.8623 C   0  0  0  0  0  0  0  0  0  0  0  0
    6.0935  -13.5077   25.1936 C   0  0  2  0  0  0  0  0  0  0  0  0
    4.8150  -13.6733   25.8571 N   0  0  0  0  0  0  0  0  0  0  0  0
    6.9425  -14.7182   25.3268 C   0  0  0  0  0  0  0  0  0  0  0  0
    7.0862  -15.2826   26.4418 O   0  0  0  0  0  0  0  0  0  0  0  0
    9.7774  -15.8060   22.3480 O   0  0  0  0  0  0  0  0  0  0  0  0
    9.1316  -16.8152   23.0168 C   0  0  0  0  0  0  0  0  0  0  0  0
    8.5831  -16.3809   24.3567 C   0  0  2  0  0  0  0  0  0  0  0  0
    7.6303  -15.3017   24.2271 N   0  0  0  0  0  0  0  0  0  0  0  0
    9.7294  -16.0187   25.2201 C   0  0  0  0  0  0  0  0  0  0  0  0
   10.5063  -15.0742   24.9655 O   0  0  0  0  0  0  0  0  0  0  0  0
   11.3880  -14.9982   29.2526 C   0  0  0  0  0  0  0  0  0  0  0  0
   10.3419  -15.8703   28.5480 C   0  0  1  0  0  0  0  0  0  0  0  0
    9.3735  -14.9931   28.0373 O   0  0  0  0  0  0  0  0  0  0  0  0
   11.0066  -16.5095   27.3342 C   0  0  2  0  0  0  0  0  0  0  0  0
    9.9402  -16.7951   26.3920 N   0  0  0  0  0  0  0  0  0  0  0  0
   11.5699  -17.8198   27.7678 C   0  0  0  0  0  0  0  0  0  0  0  0
   11.0133  -19.0304   27.3570 O   0  0  0  0  0  0  0  0  0  0  0  0
   12.5799  -17.9038   28.5296 O   0  0  0  0  0  0  0  0  0  0  0  0
  2  1  1  6
  2  4  1  0
  3  2  1  0
  4  5  1  1
  6 11  1  0
  6  4  1  0
  7  6  2  0
  8  9  1  0
 10  9  1  6
 10 11  1  0
 10 12  1  0
 12 18  1  0
 12 13  2  0
 15 16  1  0
 15 14  1  6
 17 15  1  0
 17 18  1  6
 19 17  1  0
 19 20  1  0
 21 19  2  0
M  END
$$$$
