VST.pdb
     RDKit          3D

 21 20  0  0  1  0  0  0  0  0999 V2000
    6.6733  -14.4195   18.1536 C   0  0  0  0  0  0  0  0  0  0  0  0
    7.4266  -14.7621   19.4201 C   0  0  2  0  0  0  0  0  0  0  0  0
    6.5434  -15.6923   20.2247 C   0  0  0  0  0  0  0  0  0  0  0  0
    7.6985  -13.4975   20.2061 C   0  0  2  0  0  0  0  0  0  0  0  0
    8.3639  -12.5167   19.3709 N   0  0  0  0  0  0  0  0  0  0  0  0
    8.4644  -13.7720   21.4479 C   0  0  0  0  0  0  0  0  0  0  0  0
    9.7068  -13.9651   21.4070 O   0  0  0  0  0  0  0  0  0  0  0  0
    6.6114  -13.9042   25.3215 O   0  0  0  0  0  0  0  0  0  0  0  0
    7.9266  -13.5460   25.1652 C   0  0  0  0  0  0  0  0  0  0  0  0
    8.5675  -14.1653   23.9442 C   0  0  2  0  0  0  0  0  0  0  0  0
    7.8550  -13.8321   22.7316 N   0  0  0  0  0  0  0  0  0  0  0  0
    8.6478  -15.6264   24.1661 C   0  0  0  0  0  0  0  0  0  0  0  0
    7.6726  -16.3946   24.0259 O   0  0  0  0  0  0  0  0  0  0  0  0
   10.6716  -18.0803   22.5414 C   0  0  0  0  0  0  0  0  0  0  0  0
   11.1992  -18.0756   23.9812 C   0  0  1  0  0  0  0  0  0  0  0  0
   12.2084  -17.1023   24.0304 O   0  0  0  0  0  0  0  0  0  0  0  0
   10.0839  -17.5655   24.8865 C   0  0  2  0  0  0  0  0  0  0  0  0
    9.9045  -16.1634   24.5573 N   0  0  0  0  0  0  0  0  0  0  0  0
   10.5817  -17.6250   26.2904 C   0  0  0  0  0  0  0  0  0  0  0  0
   10.7855  -18.8383   26.9465 O   0  0  0  0  0  0  0  0  0  0  0  0
   10.8451  -16.5812   26.9602 O   0  0  0  0  0  0  0  0  0  0  0  0
  2  1  1  6
  2  4  1  0
  3  2  1  0
  4  5  1  6
  6 11  1  0
  6  4  1  0
  7  6  2  0
  8  9  1  0
 10  9  1  1
 10 11  1  0
 10 12  1  0
 12 18  1  0
 12 13  2  0
 15 16  1  0
 15 14  1  6
 17 15  1  0
 17 18  1  6
 19 17  1  0
 19 20  1  0
 21 19  2  0
M  END
$$$$
