VST.pdb
     RDKit          3D

 21 20  0  0  1  0  0  0  0  0999 V2000
    7.4548  -13.1224   20.2389 C   0  0  0  0  0  0  0  0  0  0  0  0
    8.5554  -13.2575   19.2096 C   0  0  2  0  0  0  0  0  0  0  0  0
    8.2118  -12.3255   18.0668 C   0  0  0  0  0  0  0  0  0  0  0  0
    8.6128  -14.6862   18.7134 C   0  0  2  0  0  0  0  0  0  0  0  0
    7.3806  -15.0348   18.0334 N   0  0  0  0  0  0  0  0  0  0  0  0
    8.9251  -15.6396   19.8077 C   0  0  0  0  0  0  0  0  0  0  0  0
    8.0210  -16.0493   20.5804 O   0  0  0  0  0  0  0  0  0  0  0  0
   12.9319  -17.1146   20.6820 O   0  0  0  0  0  0  0  0  0  0  0  0
   11.7976  -17.8811   20.7742 C   0  0  0  0  0  0  0  0  0  0  0  0
   10.5619  -17.0728   21.0977 C   0  0  2  0  0  0  0  0  0  0  0  0
   10.2361  -16.1377   20.0447 N   0  0  0  0  0  0  0  0  0  0  0  0
   10.7871  -16.4007   22.3970 C   0  0  0  0  0  0  0  0  0  0  0  0
   11.4409  -15.3428   22.5161 O   0  0  0  0  0  0  0  0  0  0  0  0
    8.3887  -15.0286   24.7195 C   0  0  0  0  0  0  0  0  0  0  0  0
    9.0025  -16.2314   25.4460 C   0  0  1  0  0  0  0  0  0  0  0  0
    8.2535  -17.3527   25.0591 O   0  0  0  0  0  0  0  0  0  0  0  0
   10.4028  -16.4519   24.8853 C   0  0  2  0  0  0  0  0  0  0  0  0
   10.2239  -17.0034   23.5547 N   0  0  0  0  0  0  0  0  0  0  0  0
   11.0573  -17.5060   25.7115 C   0  0  0  0  0  0  0  0  0  0  0  0
   11.3249  -18.7765   25.2033 O   0  0  0  0  0  0  0  0  0  0  0  0
   11.4040  -17.3054   26.9144 O   0  0  0  0  0  0  0  0  0  0  0  0
  2  1  1  1
  2  4  1  0
  3  2  1  0
  4  5  1  1
  6 11  1  0
  6  4  1  0
  7  6  2  0
  8  9  1  0
 10  9  1  6
 10 11  1  0
 10 12  1  0
 12 18  1  0
 12 13  2  0
 15 16  1  0
 15 14  1  6
 17 15  1  0
 17 18  1  6
 19 17  1  0
 19 20  1  0
 21 19  2  0
M  END
$$$$
