VST.pdb
     RDKit          3D

 21 20  0  0  1  0  0  0  0  0999 V2000
    8.3631  -23.2622   12.2206 C   0  0  0  0  0  0  0  0  0  0  0  0
    7.0762  -23.6789   12.8983 C   0  0  2  0  0  0  0  0  0  0  0  0
    6.1591  -24.2149   11.8193 C   0  0  0  0  0  0  0  0  0  0  0  0
    6.4430  -22.4774   13.5664 C   0  0  2  0  0  0  0  0  0  0  0  0
    5.9453  -21.5491   12.5699 N   0  0  0  0  0  0  0  0  0  0  0  0
    7.3745  -21.8175   14.5155 C   0  0  0  0  0  0  0  0  0  0  0  0
    8.1419  -20.8989   14.1286 O   0  0  0  0  0  0  0  0  0  0  0  0
    7.5429  -22.7496   18.7438 O   0  0  0  0  0  0  0  0  0  0  0  0
    7.8652  -21.5242   18.2175 C   0  0  0  0  0  0  0  0  0  0  0  0
    8.4142  -21.6097   16.8117 C   0  0  2  0  0  0  0  0  0  0  0  0
    7.4550  -22.1747   15.8898 N   0  0  0  0  0  0  0  0  0  0  0  0
    9.6717  -22.3887   16.8626 C   0  0  0  0  0  0  0  0  0  0  0  0
    9.7831  -23.5400   16.3909 O   0  0  0  0  0  0  0  0  0  0  0  0
   12.9289  -20.3458   16.3083 C   0  0  0  0  0  0  0  0  0  0  0  0
   12.7928  -21.8685   16.1889 C   0  0  1  0  0  0  0  0  0  0  0  0
   14.0965  -22.3861   16.2125 O   0  0  0  0  0  0  0  0  0  0  0  0
   12.1187  -22.3788   17.4574 C   0  0  2  0  0  0  0  0  0  0  0  0
   10.7968  -21.7800   17.4826 N   0  0  0  0  0  0  0  0  0  0  0  0
   12.8713  -21.8268   18.6198 C   0  0  0  0  0  0  0  0  0  0  0  0
   14.0486  -22.4158   19.0791 O   0  0  0  0  0  0  0  0  0  0  0  0
   12.4835  -20.7974   19.2503 O   0  0  0  0  0  0  0  0  0  0  0  0
  2  1  1  6
  2  4  1  0
  3  2  1  0
  4  5  1  6
  6 11  1  0
  6  4  1  0
  7  6  2  0
  8  9  1  0
 10  9  1  1
 10 11  1  0
 10 12  1  0
 12 18  1  0
 12 13  2  0
 15 16  1  0
 15 14  1  1
 17 15  1  0
 17 18  1  1
 19 17  1  0
 19 20  1  0
 21 19  2  0
M  END
$$$$
