VST.pdb
     RDKit          3D

 21 20  0  0  1  0  0  0  0  0999 V2000
   14.5422  -16.3448   12.2239 C   0  0  0  0  0  0  0  0  0  0  0  0
   13.4241  -17.3309   12.4814 C   0  0  2  0  0  0  0  0  0  0  0  0
   13.0481  -17.9354   11.1451 C   0  0  0  0  0  0  0  0  0  0  0  0
   12.2353  -16.6059   13.0747 C   0  0  2  0  0  0  0  0  0  0  0  0
   11.7092  -15.6404   12.1296 N   0  0  0  0  0  0  0  0  0  0  0  0
   12.5657  -15.9755   14.3776 C   0  0  0  0  0  0  0  0  0  0  0  0
   13.0948  -14.8352   14.4238 O   0  0  0  0  0  0  0  0  0  0  0  0
   12.0261  -17.9961   18.1365 O   0  0  0  0  0  0  0  0  0  0  0  0
   11.8481  -16.6396   18.0332 C   0  0  0  0  0  0  0  0  0  0  0  0
   12.6431  -16.0227   16.9052 C   0  0  2  0  0  0  0  0  0  0  0  0
   12.3104  -16.6075   15.6259 N   0  0  0  0  0  0  0  0  0  0  0  0
   14.0796  -16.1649   17.2322 C   0  0  0  0  0  0  0  0  0  0  0  0
   14.7797  -17.1216   16.8382 O   0  0  0  0  0  0  0  0  0  0  0  0
   16.6715  -13.7224   16.5585 C   0  0  0  0  0  0  0  0  0  0  0  0
   16.6609  -13.8441   18.0870 C   0  0  1  0  0  0  0  0  0  0  0  0
   15.7458  -12.8889   18.5544 O   0  0  0  0  0  0  0  0  0  0  0  0
   16.0655  -15.2012   18.4442 C   0  0  2  0  0  0  0  0  0  0  0  0
   14.6739  -15.1533   18.0348 N   0  0  0  0  0  0  0  0  0  0  0  0
   16.0806  -15.3220   19.9299 C   0  0  0  0  0  0  0  0  0  0  0  0
   17.2628  -15.5365   20.6373 O   0  0  0  0  0  0  0  0  0  0  0  0
   15.0249  -15.2366   20.6268 O   0  0  0  0  0  0  0  0  0  0  0  0
  2  1  1  6
  2  4  1  0
  3  2  1  0
  4  5  1  6
  6 11  1  0
  6  4  1  0
  7  6  2  0
  8  9  1  0
 10  9  1  1
 10 11  1  0
 10 12  1  0
 12 18  1  0
 12 13  2  0
 15 16  1  0
 15 14  1  6
 17 15  1  0
 17 18  1  1
 19 17  1  0
 19 20  1  0
 21 19  2  0
M  END
$$$$
