VST.pdb
     RDKit          3D

 21 20  0  0  1  0  0  0  0  0999 V2000
    6.6007  -18.7100   17.2130 C   0  0  0  0  0  0  0  0  0  0  0  0
    7.3783  -18.2995   18.4442 C   0  0  2  0  0  0  0  0  0  0  0  0
    6.4029  -18.2871   19.6022 C   0  0  0  0  0  0  0  0  0  0  0  0
    7.9575  -16.9162   18.2401 C   0  0  2  0  0  0  0  0  0  0  0  0
    8.7938  -16.8882   17.0560 N   0  0  0  0  0  0  0  0  0  0  0  0
    8.6892  -16.4402   19.4409 C   0  0  0  0  0  0  0  0  0  0  0  0
    9.8604  -16.8337   19.6775 O   0  0  0  0  0  0  0  0  0  0  0  0
    6.8006  -14.1356   22.5044 O   0  0  0  0  0  0  0  0  0  0  0  0
    8.1143  -13.8870   22.1959 C   0  0  0  0  0  0  0  0  0  0  0  0
    8.8085  -15.0722   21.5650 C   0  0  2  0  0  0  0  0  0  0  0  0
    8.1244  -15.5305   20.3770 N   0  0  0  0  0  0  0  0  0  0  0  0
    8.9217  -16.1313   22.5927 C   0  0  0  0  0  0  0  0  0  0  0  0
    7.9560  -16.8325   22.9621 O   0  0  0  0  0  0  0  0  0  0  0  0
   10.9085  -19.0107   22.4351 C   0  0  0  0  0  0  0  0  0  0  0  0
   11.4997  -18.2834   23.6487 C   0  0  1  0  0  0  0  0  0  0  0  0
   12.5175  -17.4530   23.1560 O   0  0  0  0  0  0  0  0  0  0  0  0
   10.4298  -17.3485   24.2008 C   0  0  2  0  0  0  0  0  0  0  0  0
   10.1999  -16.3463   23.1763 N   0  0  0  0  0  0  0  0  0  0  0  0
   11.0120  -16.6444   25.3787 C   0  0  0  0  0  0  0  0  0  0  0  0
   11.2236  -17.2961   26.5929 O   0  0  0  0  0  0  0  0  0  0  0  0
   11.3445  -15.4215   25.3402 O   0  0  0  0  0  0  0  0  0  0  0  0
  2  1  1  6
  2  4  1  0
  3  2  1  0
  4  5  1  6
  6 11  1  0
  6  4  1  0
  7  6  2  0
  8  9  1  0
 10  9  1  1
 10 11  1  0
 10 12  1  0
 12 18  1  0
 12 13  2  0
 15 16  1  0
 15 14  1  6
 17 15  1  0
 17 18  1  6
 19 17  1  0
 19 20  1  0
 21 19  2  0
M  END
$$$$
