VST.pdb
     RDKit          3D

 21 20  0  0  1  0  0  0  0  0999 V2000
    6.6466  -12.4835   26.6717 C   0  0  0  0  0  0  0  0  0  0  0  0
    7.2374  -13.5581   25.7856 C   0  0  2  0  0  0  0  0  0  0  0  0
    7.0389  -13.1113   24.3525 C   0  0  0  0  0  0  0  0  0  0  0  0
    6.5149  -14.8664   26.0249 C   0  0  2  0  0  0  0  0  0  0  0  0
    6.4298  -15.1441   27.4454 N   0  0  0  0  0  0  0  0  0  0  0  0
    7.1421  -15.9885   25.2823 C   0  0  0  0  0  0  0  0  0  0  0  0
    8.1672  -16.5628   25.7315 O   0  0  0  0  0  0  0  0  0  0  0  0
    5.4955  -17.1723   21.6816 O   0  0  0  0  0  0  0  0  0  0  0  0
    6.2641  -18.1366   22.2833 C   0  0  0  0  0  0  0  0  0  0  0  0
    7.2163  -17.5761   23.3148 C   0  0  2  0  0  0  0  0  0  0  0  0
    6.6343  -16.4729   24.0452 N   0  0  0  0  0  0  0  0  0  0  0  0
    8.4650  -17.1934   22.6185 C   0  0  0  0  0  0  0  0  0  0  0  0
    8.4821  -16.6333   21.5020 O   0  0  0  0  0  0  0  0  0  0  0  0
    9.8163  -15.1688   21.7896 C   0  0  0  0  0  0  0  0  0  0  0  0
   11.0340  -15.6358   22.5961 C   0  0  1  0  0  0  0  0  0  0  0  0
   10.8442  -15.1702   23.9059 O   0  0  0  0  0  0  0  0  0  0  0  0
   10.9822  -17.1568   22.6830 C   0  0  2  0  0  0  0  0  0  0  0  0
    9.6953  -17.4855   23.2681 N   0  0  0  0  0  0  0  0  0  0  0  0
   12.0274  -17.5876   23.6548 C   0  0  0  0  0  0  0  0  0  0  0  0
   13.3849  -17.5471   23.3391 O   0  0  0  0  0  0  0  0  0  0  0  0
   11.7400  -18.0118   24.8145 O   0  0  0  0  0  0  0  0  0  0  0  0
  2  1  1  1
  2  4  1  0
  3  2  1  0
  4  5  1  1
  6 11  1  0
  6  4  1  0
  7  6  2  0
  8  9  1  0
 10  9  1  6
 10 11  1  0
 10 12  1  0
 12 18  1  0
 12 13  2  0
 15 16  1  0
 15 14  1  6
 17 15  1  0
 17 18  1  1
 19 17  1  0
 19 20  1  0
 21 19  2  0
M  END
$$$$
