GKQ.pdb
     RDKit          3D

 23 22  0  0  1  0  0  0  0  0999 V2000
   24.1600  -16.6128  -17.4282 N   0  0  0  0  0  0  0  0  0  0  0  0
   24.4958  -17.2864  -16.2111 C   0  0  0  0  0  0  0  0  0  0  0  0
   23.8904  -18.6610  -16.1765 C   0  0  0  0  0  0  0  0  0  0  0  0
   23.1553  -19.0790  -17.0898 O   0  0  0  0  0  0  0  0  0  0  0  0
   24.1673  -19.5047  -15.0684 N   0  0  0  0  0  0  0  0  0  0  0  0
   23.5372  -20.8404  -14.9304 C   0  0  1  0  0  0  0  0  0  0  0  0
   24.5813  -21.7041  -14.3035 C   0  0  0  0  0  0  0  0  0  0  0  0
   25.3720  -22.5519  -15.2420 C   0  0  0  0  0  0  0  0  0  0  0  0
   26.3076  -21.6878  -16.0892 C   0  0  0  0  0  0  0  0  0  0  0  0
   27.0524  -22.4888  -17.1045 C   0  0  0  0  0  0  0  0  0  0  0  0
   27.8358  -21.6194  -17.9698 N   0  0  0  0  0  0  0  0  0  0  0  0
   22.3083  -20.6505  -14.1621 C   0  0  0  0  0  0  0  0  0  0  0  0
   22.2108  -19.6948  -13.3076 O   0  0  0  0  0  0  0  0  0  0  0  0
   20.4441  -16.7736  -14.7175 N   0  0  0  0  0  0  0  0  0  0  0  0
   19.1001  -17.2196  -14.3915 C   0  0  0  0  0  0  0  0  0  0  0  0
   18.3171  -16.3346  -14.0419 O   0  0  0  0  0  0  0  0  0  0  0  0
   18.7299  -18.6231  -14.4778 C   0  0  0  0  0  0  0  0  0  0  0  0
   19.7542  -19.6139  -14.8434 C   0  0  0  0  0  0  0  0  0  0  0  0
   19.7856  -20.8977  -14.0665 C   0  0  2  0  0  0  0  0  0  0  0  0
   21.1292  -21.4398  -14.2486 N   0  0  0  0  0  0  0  0  0  0  0  0
   18.7005  -21.8291  -14.2526 C   0  0  0  0  0  0  0  0  0  0  0  0
   17.5239  -21.6175  -13.5058 O   0  0  0  0  0  0  0  0  0  0  0  0
   18.7037  -22.8261  -15.0221 O   0  0  0  0  0  0  0  0  0  0  0  0
  2  1  1  0
  3  2  1  0
  4  3  2  0
  5  3  1  0
  6 12  1  0
  6  5  1  0
  6  7  1  1
  8  7  1  0
  9  8  1  0
 10  9  1  0
 11 10  1  0
 12 20  1  0
 13 12  2  0
 15 17  1  0
 15 14  1  0
 16 15  2  0
 18 17  1  0
 19 18  1  6
 20 19  1  0
 21 22  1  0
 21 19  1  0
 23 21  2  0
M  END
$$$$
