GKQ.pdb
     RDKit          3D

 23 22  0  0  1  0  0  0  0  0999 V2000
   28.3407  -21.9710  -15.9106 N   0  0  0  0  0  0  0  0  0  0  0  0
   28.4971  -21.5136  -17.2575 C   0  0  0  0  0  0  0  0  0  0  0  0
   28.1975  -20.0449  -17.3612 C   0  0  0  0  0  0  0  0  0  0  0  0
   27.7734  -19.3902  -16.3914 O   0  0  0  0  0  0  0  0  0  0  0  0
   28.4056  -19.3886  -18.6031 N   0  0  0  0  0  0  0  0  0  0  0  0
   28.0384  -17.9654  -18.8025 C   0  0  1  0  0  0  0  0  0  0  0  0
   28.9532  -17.4703  -19.8735 C   0  0  0  0  0  0  0  0  0  0  0  0
   28.8250  -16.0252  -20.2202 C   0  0  0  0  0  0  0  0  0  0  0  0
   29.8621  -15.6306  -21.2730 C   0  0  0  0  0  0  0  0  0  0  0  0
   29.7712  -14.1877  -21.6432 C   0  0  0  0  0  0  0  0  0  0  0  0
   30.7953  -13.8426  -22.6180 N   0  0  0  0  0  0  0  0  0  0  0  0
   26.6094  -17.9366  -19.1084 C   0  0  0  0  0  0  0  0  0  0  0  0
   26.0842  -18.8293  -19.8701 O   0  0  0  0  0  0  0  0  0  0  0  0
   21.8576  -17.7202  -15.3931 N   0  0  0  0  0  0  0  0  0  0  0  0
   21.2267  -17.5684  -16.6934 C   0  0  0  0  0  0  0  0  0  0  0  0
   19.9960  -17.6301  -16.6970 O   0  0  0  0  0  0  0  0  0  0  0  0
   22.0180  -17.3610  -17.8955 C   0  0  0  0  0  0  0  0  0  0  0  0
   23.4847  -17.3131  -17.7894 C   0  0  0  0  0  0  0  0  0  0  0  0
   24.2594  -16.9847  -19.0323 C   0  0  2  0  0  0  0  0  0  0  0  0
   25.6649  -16.9848  -18.6363 N   0  0  0  0  0  0  0  0  0  0  0  0
   23.8280  -15.8577  -19.8218 C   0  0  0  0  0  0  0  0  0  0  0  0
   24.3925  -14.6003  -19.5267 O   0  0  0  0  0  0  0  0  0  0  0  0
   22.9839  -15.8873  -20.7560 O   0  0  0  0  0  0  0  0  0  0  0  0
  2  1  1  0
  3  2  1  0
  4  3  2  0
  5  3  1  0
  6 12  1  0
  6  5  1  0
  6  7  1  6
  8  7  1  0
  9  8  1  0
 10  9  1  0
 11 10  1  0
 12 20  1  0
 13 12  2  0
 15 17  1  0
 15 14  1  0
 16 15  2  0
 18 17  1  0
 19 18  1  1
 20 19  1  0
 21 22  1  0
 21 19  1  0
 23 21  2  0
M  END
$$$$
