GKQ.pdb
     RDKit          3D

 23 22  0  0  1  0  0  0  0  0999 V2000
   13.3696  -21.6332   -5.6916 N   0  0  0  0  0  0  0  0  0  0  0  0
   12.2914  -22.2547   -4.9851 C   0  0  0  0  0  0  0  0  0  0  0  0
   12.7050  -22.6113   -3.5854 C   0  0  0  0  0  0  0  0  0  0  0  0
   11.8903  -22.6342   -2.6447 O   0  0  0  0  0  0  0  0  0  0  0  0
   14.0653  -22.9308   -3.3326 N   0  0  0  0  0  0  0  0  0  0  0  0
   14.5059  -23.4823   -2.0280 C   0  0  1  0  0  0  0  0  0  0  0  0
   15.7566  -24.2415   -2.3249 C   0  0  0  0  0  0  0  0  0  0  0  0
   15.5692  -25.5832   -2.9492 C   0  0  0  0  0  0  0  0  0  0  0  0
   16.9218  -26.2179   -3.2766 C   0  0  0  0  0  0  0  0  0  0  0  0
   16.7771  -27.5512   -3.9312 C   0  0  0  0  0  0  0  0  0  0  0  0
   18.0804  -28.0905   -4.2904 N   0  0  0  0  0  0  0  0  0  0  0  0
   14.6387  -22.3497   -1.1136 C   0  0  0  0  0  0  0  0  0  0  0  0
   15.2413  -21.2760   -1.4837 O   0  0  0  0  0  0  0  0  0  0  0  0
   10.6265  -18.8361    1.3577 N   0  0  0  0  0  0  0  0  0  0  0  0
   11.8464  -18.3642    1.9906 C   0  0  0  0  0  0  0  0  0  0  0  0
   11.7704  -17.2605    2.5335 O   0  0  0  0  0  0  0  0  0  0  0  0
   13.0635  -19.1595    1.9684 C   0  0  0  0  0  0  0  0  0  0  0  0
   13.0860  -20.4150    1.2019 C   0  0  0  0  0  0  0  0  0  0  0  0
   14.3938  -21.1451    1.1053 C   0  0  2  0  0  0  0  0  0  0  0  0
   14.1508  -22.2805    0.2198 N   0  0  0  0  0  0  0  0  0  0  0  0
   15.0971  -21.4405    2.3291 C   0  0  0  0  0  0  0  0  0  0  0  0
   15.6214  -20.3543    3.0587 O   0  0  0  0  0  0  0  0  0  0  0  0
   15.2942  -22.5868    2.8121 O   0  0  0  0  0  0  0  0  0  0  0  0
  2  1  1  0
  3  2  1  0
  4  3  2  0
  5  3  1  0
  6 12  1  0
  6  5  1  0
  6  7  1  6
  8  7  1  0
  9  8  1  0
 10  9  1  0
 11 10  1  0
 12 20  1  0
 13 12  2  0
 15 17  1  0
 15 14  1  0
 16 15  2  0
 18 17  1  0
 19 18  1  1
 20 19  1  0
 21 22  1  0
 21 19  1  0
 23 21  2  0
M  END
$$$$
