GKQ.pdb
     RDKit          3D

 23 22  0  0  1  0  0  0  0  0999 V2000
   21.5302  -11.2220  -16.0158 N   0  0  0  0  0  0  0  0  0  0  0  0
   22.4656  -12.0137  -15.2769 C   0  0  0  0  0  0  0  0  0  0  0  0
   22.6049  -13.3812  -15.8835 C   0  0  0  0  0  0  0  0  0  0  0  0
   21.6660  -13.9313  -16.4878 O   0  0  0  0  0  0  0  0  0  0  0  0
   23.8448  -14.0624  -15.7619 N   0  0  0  0  0  0  0  0  0  0  0  0
   24.0839  -15.3681  -16.4239 C   0  0  1  0  0  0  0  0  0  0  0  0
   25.5686  -15.5166  -16.4744 C   0  0  0  0  0  0  0  0  0  0  0  0
   26.0753  -16.7539  -17.1356 C   0  0  0  0  0  0  0  0  0  0  0  0
   27.6047  -16.7804  -17.1274 C   0  0  0  0  0  0  0  0  0  0  0  0
   28.1550  -17.9066  -17.9374 C   0  0  0  0  0  0  0  0  0  0  0  0
   29.6035  -17.9700  -17.8103 N   0  0  0  0  0  0  0  0  0  0  0  0
   23.3595  -16.3736  -15.6489 C   0  0  0  0  0  0  0  0  0  0  0  0
   23.1725  -16.2184  -14.3864 O   0  0  0  0  0  0  0  0  0  0  0  0
   18.4903  -19.1914  -14.0706 N   0  0  0  0  0  0  0  0  0  0  0  0
   18.4898  -18.2165  -15.1482 C   0  0  0  0  0  0  0  0  0  0  0  0
   17.4070  -18.0485  -15.7119 O   0  0  0  0  0  0  0  0  0  0  0  0
   19.7007  -17.5019  -15.5187 C   0  0  0  0  0  0  0  0  0  0  0  0
   20.9204  -17.6943  -14.7187 C   0  0  0  0  0  0  0  0  0  0  0  0
   22.0265  -18.5074  -15.3255 C   0  0  2  0  0  0  0  0  0  0  0  0
   22.7964  -17.5793  -16.1490 N   0  0  0  0  0  0  0  0  0  0  0  0
   21.6828  -19.7630  -15.9458 C   0  0  0  0  0  0  0  0  0  0  0  0
   21.2306  -20.8024  -15.1078 O   0  0  0  0  0  0  0  0  0  0  0  0
   21.7524  -20.0254  -17.1756 O   0  0  0  0  0  0  0  0  0  0  0  0
  2  1  1  0
  3  2  1  0
  4  3  2  0
  5  3  1  0
  6 12  1  0
  6  5  1  0
  6  7  1  1
  8  7  1  0
  9  8  1  0
 10  9  1  0
 11 10  1  0
 12 20  1  0
 13 12  2  0
 15 17  1  0
 15 14  1  0
 16 15  2  0
 18 17  1  0
 19 18  1  6
 20 19  1  0
 21 22  1  0
 21 19  1  0
 23 21  2  0
M  END
$$$$
