GKQ.pdb
     RDKit          3D

 23 22  0  0  1  0  0  0  0  0999 V2000
   28.9913  -20.8917  -17.2065 N   0  0  0  0  0  0  0  0  0  0  0  0
   28.2109  -21.1094  -16.0269 C   0  0  0  0  0  0  0  0  0  0  0  0
   26.8619  -21.6718  -16.3748 C   0  0  0  0  0  0  0  0  0  0  0  0
   26.1604  -21.1855  -17.2807 O   0  0  0  0  0  0  0  0  0  0  0  0
   26.3767  -22.7904  -15.6470 N   0  0  0  0  0  0  0  0  0  0  0  0
   25.0659  -23.4117  -15.9570 C   0  0  1  0  0  0  0  0  0  0  0  0
   25.3556  -24.8633  -16.1512 C   0  0  0  0  0  0  0  0  0  0  0  0
   25.1176  -25.3950  -17.5243 C   0  0  0  0  0  0  0  0  0  0  0  0
   26.3834  -26.0564  -18.0721 C   0  0  0  0  0  0  0  0  0  0  0  0
   26.2057  -26.5460  -19.4706 C   0  0  0  0  0  0  0  0  0  0  0  0
   27.4386  -27.1387  -19.9672 N   0  0  0  0  0  0  0  0  0  0  0  0
   24.1670  -23.0735  -14.8552 C   0  0  0  0  0  0  0  0  0  0  0  0
   24.6041  -23.0136  -13.6476 O   0  0  0  0  0  0  0  0  0  0  0  0
   25.0353  -21.4680  -11.4278 N   0  0  0  0  0  0  0  0  0  0  0  0
   23.6707  -21.0038  -11.6119 C   0  0  0  0  0  0  0  0  0  0  0  0
   22.8479  -21.4400  -10.8049 O   0  0  0  0  0  0  0  0  0  0  0  0
   23.3247  -20.0875  -12.6866 C   0  0  0  0  0  0  0  0  0  0  0  0
   23.0444  -20.6266  -14.0265 C   0  0  0  0  0  0  0  0  0  0  0  0
   22.1040  -21.7924  -14.1220 C   0  0  2  0  0  0  0  0  0  0  0  0
   22.7797  -22.7808  -14.9581 N   0  0  0  0  0  0  0  0  0  0  0  0
   20.7256  -21.5260  -14.4517 C   0  0  0  0  0  0  0  0  0  0  0  0
   19.7943  -21.5046  -13.3937 O   0  0  0  0  0  0  0  0  0  0  0  0
   20.2676  -21.3127  -15.6053 O   0  0  0  0  0  0  0  0  0  0  0  0
  2  1  1  0
  3  2  1  0
  4  3  2  0
  5  3  1  0
  6 12  1  0
  6  5  1  0
  6  7  1  1
  8  7  1  0
  9  8  1  0
 10  9  1  0
 11 10  1  0
 12 20  1  0
 13 12  2  0
 15 17  1  0
 15 14  1  0
 16 15  2  0
 18 17  1  0
 19 18  1  6
 20 19  1  0
 21 22  1  0
 21 19  1  0
 23 21  2  0
M  END
$$$$
