GKQ.pdb
     RDKit          3D

 23 22  0  0  1  0  0  0  0  0999 V2000
   27.8823  -24.6057  -16.2678 N   0  0  0  0  0  0  0  0  0  0  0  0
   27.0768  -25.7823  -16.1469 C   0  0  0  0  0  0  0  0  0  0  0  0
   25.6440  -25.4864  -16.4892 C   0  0  0  0  0  0  0  0  0  0  0  0
   25.0153  -24.5609  -15.9439 O   0  0  0  0  0  0  0  0  0  0  0  0
   24.9920  -26.2880  -17.4632 N   0  0  0  0  0  0  0  0  0  0  0  0
   23.5618  -26.0904  -17.8032 C   0  0  1  0  0  0  0  0  0  0  0  0
   23.5340  -25.8901  -19.2825 C   0  0  0  0  0  0  0  0  0  0  0  0
   24.1545  -24.6277  -19.7786 C   0  0  0  0  0  0  0  0  0  0  0  0
   23.2615  -23.4276  -19.4594 C   0  0  0  0  0  0  0  0  0  0  0  0
   23.8664  -22.1382  -19.9052 C   0  0  0  0  0  0  0  0  0  0  0  0
   22.9495  -21.0328  -19.6697 N   0  0  0  0  0  0  0  0  0  0  0  0
   22.8417  -27.2564  -17.2950 C   0  0  0  0  0  0  0  0  0  0  0  0
   23.4649  -28.3516  -17.0399 O   0  0  0  0  0  0  0  0  0  0  0  0
   20.4815  -31.2649  -13.2557 N   0  0  0  0  0  0  0  0  0  0  0  0
   21.1191  -29.9802  -13.0216 C   0  0  0  0  0  0  0  0  0  0  0  0
   21.8284  -29.9148  -12.0160 O   0  0  0  0  0  0  0  0  0  0  0  0
   20.9154  -28.8613  -13.9277 C   0  0  0  0  0  0  0  0  0  0  0  0
   21.6146  -28.8501  -15.2221 C   0  0  0  0  0  0  0  0  0  0  0  0
   20.8090  -28.5117  -16.4424 C   0  0  2  0  0  0  0  0  0  0  0  0
   21.4478  -27.3360  -17.0271 N   0  0  0  0  0  0  0  0  0  0  0  0
   19.3743  -28.4487  -16.3113 C   0  0  0  0  0  0  0  0  0  0  0  0
   18.7713  -27.1751  -16.3476 O   0  0  0  0  0  0  0  0  0  0  0  0
   18.6002  -29.4307  -16.1615 O   0  0  0  0  0  0  0  0  0  0  0  0
  2  1  1  0
  3  2  1  0
  4  3  2  0
  5  3  1  0
  6 12  1  0
  6  5  1  0
  6  7  1  6
  8  7  1  0
  9  8  1  0
 10  9  1  0
 11 10  1  0
 12 20  1  0
 13 12  2  0
 15 17  1  0
 15 14  1  0
 16 15  2  0
 18 17  1  0
 19 18  1  1
 20 19  1  0
 21 22  1  0
 21 19  1  0
 23 21  2  0
M  END
$$$$
