GKQ.pdb
     RDKit          3D

 23 22  0  0  1  0  0  0  0  0999 V2000
   21.1820   -7.4045  -13.3555 N   0  0  0  0  0  0  0  0  0  0  0  0
   20.5212   -8.3985  -12.5662 C   0  0  0  0  0  0  0  0  0  0  0  0
   19.0795   -8.0360  -12.3478 C   0  0  0  0  0  0  0  0  0  0  0  0
   18.5943   -6.9767  -12.7855 O   0  0  0  0  0  0  0  0  0  0  0  0
   18.2501   -8.9302  -11.6208 N   0  0  0  0  0  0  0  0  0  0  0  0
   16.8420   -8.5959  -11.2957 C   0  0  1  0  0  0  0  0  0  0  0  0
   16.1364   -9.9088  -11.2102 C   0  0  0  0  0  0  0  0  0  0  0  0
   14.7116   -9.8531  -10.7723 C   0  0  0  0  0  0  0  0  0  0  0  0
   14.0599  -11.2323  -10.8850 C   0  0  0  0  0  0  0  0  0  0  0  0
   12.6449  -11.2295  -10.4106 C   0  0  0  0  0  0  0  0  0  0  0  0
   12.0871  -12.5731  -10.4527 N   0  0  0  0  0  0  0  0  0  0  0  0
   16.8693   -7.7957  -10.0728 C   0  0  0  0  0  0  0  0  0  0  0  0
   17.9285   -7.7458   -9.3458 O   0  0  0  0  0  0  0  0  0  0  0  0
   17.6591   -2.6742   -7.5859 N   0  0  0  0  0  0  0  0  0  0  0  0
   17.3105   -2.6155   -8.9954 C   0  0  0  0  0  0  0  0  0  0  0  0
   17.3902   -1.5015   -9.5162 O   0  0  0  0  0  0  0  0  0  0  0  0
   16.8956   -3.8061   -9.7196 C   0  0  0  0  0  0  0  0  0  0  0  0
   17.1683   -5.1302   -9.1390 C   0  0  0  0  0  0  0  0  0  0  0  0
   15.9991   -5.9114   -8.6144 C   0  0  2  0  0  0  0  0  0  0  0  0
   15.8027   -7.0121   -9.5537 N   0  0  0  0  0  0  0  0  0  0  0  0
   14.8114   -5.1843   -8.2398 C   0  0  0  0  0  0  0  0  0  0  0  0
   14.7333   -4.6988   -6.9187 O   0  0  0  0  0  0  0  0  0  0  0  0
   13.8251   -4.9423   -8.9845 O   0  0  0  0  0  0  0  0  0  0  0  0
  2  1  1  0
  3  2  1  0
  4  3  2  0
  5  3  1  0
  6 12  1  0
  6  5  1  0
  6  7  1  1
  8  7  1  0
  9  8  1  0
 10  9  1  0
 11 10  1  0
 12 20  1  0
 13 12  2  0
 15 17  1  0
 15 14  1  0
 16 15  2  0
 18 17  1  0
 19 18  1  6
 20 19  1  0
 21 22  1  0
 21 19  1  0
 23 21  2  0
M  END
$$$$
