GKQ.pdb
     RDKit          3D

 23 22  0  0  1  0  0  0  0  0999 V2000
   23.9246  -16.3046  -18.8909 N   0  0  0  0  0  0  0  0  0  0  0  0
   23.7718  -16.4425  -17.4748 C   0  0  0  0  0  0  0  0  0  0  0  0
   22.5943  -17.3162  -17.1469 C   0  0  0  0  0  0  0  0  0  0  0  0
   21.6623  -17.4934  -17.9527 O   0  0  0  0  0  0  0  0  0  0  0  0
   22.5470  -17.9564  -15.8803 N   0  0  0  0  0  0  0  0  0  0  0  0
   21.4571  -18.8974  -15.5240 C   0  0  1  0  0  0  0  0  0  0  0  0
   21.9387  -19.6124  -14.3050 C   0  0  0  0  0  0  0  0  0  0  0  0
   21.0503  -20.6963  -13.7945 C   0  0  0  0  0  0  0  0  0  0  0  0
   20.8297  -21.7620  -14.8693 C   0  0  0  0  0  0  0  0  0  0  0  0
   19.9075  -22.8430  -14.4129 C   0  0  0  0  0  0  0  0  0  0  0  0
   19.6982  -23.8197  -15.4714 N   0  0  0  0  0  0  0  0  0  0  0  0
   20.2433  -18.0982  -15.3677 C   0  0  0  0  0  0  0  0  0  0  0  0
   20.2316  -17.0678  -14.5989 O   0  0  0  0  0  0  0  0  0  0  0  0
   16.8082  -15.4210  -19.5171 N   0  0  0  0  0  0  0  0  0  0  0  0
   15.9599  -15.3064  -18.3429 C   0  0  0  0  0  0  0  0  0  0  0  0
   14.9739  -14.5780  -18.4691 O   0  0  0  0  0  0  0  0  0  0  0  0
   16.2768  -16.0127  -17.1121 C   0  0  0  0  0  0  0  0  0  0  0  0
   17.4959  -16.8341  -17.0500 C   0  0  0  0  0  0  0  0  0  0  0  0
   17.8029  -17.5223  -15.7520 C   0  0  2  0  0  0  0  0  0  0  0  0
   18.9928  -18.3309  -16.0025 N   0  0  0  0  0  0  0  0  0  0  0  0
   16.7231  -18.1872  -15.0655 C   0  0  0  0  0  0  0  0  0  0  0  0
   16.7465  -19.5960  -15.0230 O   0  0  0  0  0  0  0  0  0  0  0  0
   15.7488  -17.6260  -14.4982 O   0  0  0  0  0  0  0  0  0  0  0  0
  2  1  1  0
  3  2  1  0
  4  3  2  0
  5  3  1  0
  6 12  1  0
  6  5  1  0
  6  7  1  1
  8  7  1  0
  9  8  1  0
 10  9  1  0
 11 10  1  0
 12 20  1  0
 13 12  2  0
 15 17  1  0
 15 14  1  0
 16 15  2  0
 18 17  1  0
 19 18  1  6
 20 19  1  0
 21 22  1  0
 21 19  1  0
 23 21  2  0
M  END
$$$$
