GKQ.pdb
     RDKit          3D

 23 22  0  0  1  0  0  0  0  0999 V2000
   27.7343  -22.3038  -15.3813 N   0  0  0  0  0  0  0  0  0  0  0  0
   26.6785  -22.3672  -16.3452 C   0  0  0  0  0  0  0  0  0  0  0  0
   25.8449  -21.1177  -16.3077 C   0  0  0  0  0  0  0  0  0  0  0  0
   26.0602  -20.2080  -15.4859 O   0  0  0  0  0  0  0  0  0  0  0  0
   24.7820  -20.9743  -17.2382 N   0  0  0  0  0  0  0  0  0  0  0  0
   23.8435  -19.8272  -17.1773 C   0  0  1  0  0  0  0  0  0  0  0  0
   23.7351  -19.3336  -18.5822 C   0  0  0  0  0  0  0  0  0  0  0  0
   24.7705  -18.3470  -19.0055 C   0  0  0  0  0  0  0  0  0  0  0  0
   24.6341  -18.0300  -20.4957 C   0  0  0  0  0  0  0  0  0  0  0  0
   25.6422  -17.0303  -20.9558 C   0  0  0  0  0  0  0  0  0  0  0  0
   25.5398  -16.8225  -22.3926 N   0  0  0  0  0  0  0  0  0  0  0  0
   22.6101  -20.3222  -16.5689 C   0  0  0  0  0  0  0  0  0  0  0  0
   22.4196  -21.5834  -16.4070 O   0  0  0  0  0  0  0  0  0  0  0  0
   21.6041  -19.3748  -11.3097 N   0  0  0  0  0  0  0  0  0  0  0  0
   20.7422  -20.5250  -11.5234 C   0  0  0  0  0  0  0  0  0  0  0  0
   20.1711  -20.9545  -10.5193 O   0  0  0  0  0  0  0  0  0  0  0  0
   20.5832  -21.1129  -12.8437 C   0  0  0  0  0  0  0  0  0  0  0  0
   21.3327  -20.5466  -13.9760 C   0  0  0  0  0  0  0  0  0  0  0  0
   20.5411  -20.0133  -15.1343 C   0  0  2  0  0  0  0  0  0  0  0  0
   21.5249  -19.5326  -16.1004 N   0  0  0  0  0  0  0  0  0  0  0  0
   19.4465  -19.1178  -14.8520 C   0  0  0  0  0  0  0  0  0  0  0  0
   18.1490  -19.6671  -14.8084 O   0  0  0  0  0  0  0  0  0  0  0  0
   19.5376  -17.8792  -14.6429 O   0  0  0  0  0  0  0  0  0  0  0  0
  2  1  1  0
  3  2  1  0
  4  3  2  0
  5  3  1  0
  6 12  1  0
  6  5  1  0
  6  7  1  6
  8  7  1  0
  9  8  1  0
 10  9  1  0
 11 10  1  0
 12 20  1  0
 13 12  2  0
 15 17  1  0
 15 14  1  0
 16 15  2  0
 18 17  1  0
 19 18  1  1
 20 19  1  0
 21 22  1  0
 21 19  1  0
 23 21  2  0
M  END
$$$$
