GKQ.pdb
     RDKit          3D

 23 22  0  0  1  0  0  0  0  0999 V2000
   25.3732  -12.5588  -16.2425 N   0  0  0  0  0  0  0  0  0  0  0  0
   24.2429  -12.9836  -17.0104 C   0  0  0  0  0  0  0  0  0  0  0  0
   23.2129  -11.8929  -17.0935 C   0  0  0  0  0  0  0  0  0  0  0  0
   23.5171  -10.7220  -17.3860 O   0  0  0  0  0  0  0  0  0  0  0  0
   21.8543  -12.2111  -16.8300 N   0  0  0  0  0  0  0  0  0  0  0  0
   20.7776  -11.1999  -16.9655 C   0  0  1  0  0  0  0  0  0  0  0  0
   19.5247  -11.9855  -17.1709 C   0  0  0  0  0  0  0  0  0  0  0  0
   18.8334  -11.7758  -18.4759 C   0  0  0  0  0  0  0  0  0  0  0  0
   17.5846  -12.6541  -18.5702 C   0  0  0  0  0  0  0  0  0  0  0  0
   16.9203  -12.5512  -19.9026 C   0  0  0  0  0  0  0  0  0  0  0  0
   15.8345  -13.5143  -20.0102 N   0  0  0  0  0  0  0  0  0  0  0  0
   20.8284  -10.3655  -15.7665 C   0  0  0  0  0  0  0  0  0  0  0  0
   21.0088  -10.8932  -14.6081 O   0  0  0  0  0  0  0  0  0  0  0  0
   22.6986   -4.3100  -15.4830 N   0  0  0  0  0  0  0  0  0  0  0  0
   22.3047   -4.6269  -14.1207 C   0  0  0  0  0  0  0  0  0  0  0  0
   22.5101   -3.7412  -13.2888 O   0  0  0  0  0  0  0  0  0  0  0  0
   21.7120   -5.9121  -13.7870 C   0  0  0  0  0  0  0  0  0  0  0  0
   21.4532   -6.8832  -14.8614 C   0  0  0  0  0  0  0  0  0  0  0  0
   20.7961   -8.1782  -14.4821 C   0  0  2  0  0  0  0  0  0  0  0  0
   20.6974   -8.9508  -15.7173 N   0  0  0  0  0  0  0  0  0  0  0  0
   19.6003   -8.1214  -13.6781 C   0  0  0  0  0  0  0  0  0  0  0  0
   19.7534   -8.1651  -12.2775 O   0  0  0  0  0  0  0  0  0  0  0  0
   18.4202   -8.0402  -14.1102 O   0  0  0  0  0  0  0  0  0  0  0  0
  2  1  1  0
  3  2  1  0
  4  3  2  0
  5  3  1  0
  6 12  1  0
  6  5  1  0
  6  7  1  1
  8  7  1  0
  9  8  1  0
 10  9  1  0
 11 10  1  0
 12 20  1  0
 13 12  2  0
 15 17  1  0
 15 14  1  0
 16 15  2  0
 18 17  1  0
 19 18  1  6
 20 19  1  0
 21 22  1  0
 21 19  1  0
 23 21  2  0
M  END
$$$$
