GKQ.pdb
     RDKit          3D

 23 22  0  0  1  0  0  0  0  0999 V2000
   18.3660  -22.1979  -10.6590 N   0  0  0  0  0  0  0  0  0  0  0  0
   18.5934  -22.5626  -12.0239 C   0  0  0  0  0  0  0  0  0  0  0  0
   19.4041  -21.5127  -12.7296 C   0  0  0  0  0  0  0  0  0  0  0  0
   19.0619  -20.3161  -12.7424 O   0  0  0  0  0  0  0  0  0  0  0  0
   20.5941  -21.9008  -13.4001 N   0  0  0  0  0  0  0  0  0  0  0  0
   21.4548  -20.9116  -14.0935 C   0  0  1  0  0  0  0  0  0  0  0  0
   22.7703  -21.5941  -14.2742 C   0  0  0  0  0  0  0  0  0  0  0  0
   23.8290  -20.7939  -14.9550 C   0  0  0  0  0  0  0  0  0  0  0  0
   25.0949  -21.6305  -15.1484 C   0  0  0  0  0  0  0  0  0  0  0  0
   26.1348  -20.9082  -15.9385 C   0  0  0  0  0  0  0  0  0  0  0  0
   27.3312  -21.7249  -16.0794 N   0  0  0  0  0  0  0  0  0  0  0  0
   20.7535  -20.5251  -15.3163 C   0  0  0  0  0  0  0  0  0  0  0  0
   20.1325  -21.4030  -16.0209 O   0  0  0  0  0  0  0  0  0  0  0  0
   19.0612  -15.1491  -19.7592 N   0  0  0  0  0  0  0  0  0  0  0  0
   18.8965  -15.5165  -18.3630 C   0  0  0  0  0  0  0  0  0  0  0  0
   18.9992  -14.5918  -17.5549 O   0  0  0  0  0  0  0  0  0  0  0  0
   18.6312  -16.8915  -17.9715 C   0  0  0  0  0  0  0  0  0  0  0  0
   19.4127  -17.4892  -16.8775 C   0  0  0  0  0  0  0  0  0  0  0  0
   19.9048  -18.8947  -17.0646 C   0  0  2  0  0  0  0  0  0  0  0  0
   20.6637  -19.2140  -15.8585 N   0  0  0  0  0  0  0  0  0  0  0  0
   20.5402  -19.2295  -18.3151 C   0  0  0  0  0  0  0  0  0  0  0  0
   21.9493  -19.2242  -18.3528 O   0  0  0  0  0  0  0  0  0  0  0  0
   19.9523  -19.5249  -19.3890 O   0  0  0  0  0  0  0  0  0  0  0  0
  2  1  1  0
  3  2  1  0
  4  3  2  0
  5  3  1  0
  6 12  1  0
  6  5  1  0
  6  7  1  6
  8  7  1  0
  9  8  1  0
 10  9  1  0
 11 10  1  0
 12 20  1  0
 13 12  2  0
 15 17  1  0
 15 14  1  0
 16 15  2  0
 18 17  1  0
 19 18  1  6
 20 19  1  0
 21 22  1  0
 21 19  1  0
 23 21  2  0
M  END
$$$$
