GKQ.pdb
     RDKit          3D

 23 22  0  0  1  0  0  0  0  0999 V2000
   27.3024  -16.0138  -16.0276 N   0  0  0  0  0  0  0  0  0  0  0  0
   26.8975  -16.9203  -14.9970 C   0  0  0  0  0  0  0  0  0  0  0  0
   25.7807  -17.8058  -15.4726 C   0  0  0  0  0  0  0  0  0  0  0  0
   25.0116  -17.4599  -16.3880 O   0  0  0  0  0  0  0  0  0  0  0  0
   25.6009  -19.0730  -14.8576 N   0  0  0  0  0  0  0  0  0  0  0  0
   24.5538  -20.0187  -15.3151 C   0  0  1  0  0  0  0  0  0  0  0  0
   25.1308  -21.3784  -15.0978 C   0  0  0  0  0  0  0  0  0  0  0  0
   25.7298  -22.0293  -16.2988 C   0  0  0  0  0  0  0  0  0  0  0  0
   26.3582  -23.3729  -15.9253 C   0  0  0  0  0  0  0  0  0  0  0  0
   27.1362  -23.9660  -17.0523 C   0  0  0  0  0  0  0  0  0  0  0  0
   27.7819  -25.2019  -16.6354 N   0  0  0  0  0  0  0  0  0  0  0  0
   23.3412  -19.7030  -14.5625 C   0  0  0  0  0  0  0  0  0  0  0  0
   23.3810  -19.5614  -13.2853 O   0  0  0  0  0  0  0  0  0  0  0  0
   19.3102  -15.2581  -15.2915 N   0  0  0  0  0  0  0  0  0  0  0  0
   18.7493  -16.0272  -14.1935 C   0  0  0  0  0  0  0  0  0  0  0  0
   17.8473  -15.4726  -13.5630 O   0  0  0  0  0  0  0  0  0  0  0  0
   19.2392  -17.3596  -13.8789 C   0  0  0  0  0  0  0  0  0  0  0  0
   20.4044  -17.8857  -14.6068 C   0  0  0  0  0  0  0  0  0  0  0  0
   20.8566  -19.2785  -14.2776 C   0  0  2  0  0  0  0  0  0  0  0  0
   22.0387  -19.5178  -15.1009 N   0  0  0  0  0  0  0  0  0  0  0  0
   19.8685  -20.3289  -14.2745 C   0  0  0  0  0  0  0  0  0  0  0  0
   19.0258  -20.4284  -13.1490 O   0  0  0  0  0  0  0  0  0  0  0  0
   19.6865  -21.1775  -15.1872 O   0  0  0  0  0  0  0  0  0  0  0  0
  2  1  1  0
  3  2  1  0
  4  3  2  0
  5  3  1  0
  6 12  1  0
  6  5  1  0
  6  7  1  1
  8  7  1  0
  9  8  1  0
 10  9  1  0
 11 10  1  0
 12 20  1  0
 13 12  2  0
 15 17  1  0
 15 14  1  0
 16 15  2  0
 18 17  1  0
 19 18  1  6
 20 19  1  0
 21 22  1  0
 21 19  1  0
 23 21  2  0
M  END
$$$$
