GKQ.pdb
     RDKit          3D

 23 22  0  0  1  0  0  0  0  0999 V2000
   16.4646  -12.3341  -11.5296 N   0  0  0  0  0  0  0  0  0  0  0  0
   16.4746  -11.5787  -10.3143 C   0  0  0  0  0  0  0  0  0  0  0  0
   15.9086  -10.2044  -10.5346 C   0  0  0  0  0  0  0  0  0  0  0  0
   15.5666   -9.8074  -11.6636 O   0  0  0  0  0  0  0  0  0  0  0  0
   15.7613   -9.3367   -9.4204 N   0  0  0  0  0  0  0  0  0  0  0  0
   15.2339   -7.9586   -9.5714 C   0  0  1  0  0  0  0  0  0  0  0  0
   14.6058   -7.6323   -8.2568 C   0  0  0  0  0  0  0  0  0  0  0  0
   13.1734   -7.2195   -8.3061 C   0  0  0  0  0  0  0  0  0  0  0  0
   12.2921   -8.2492   -7.5971 C   0  0  0  0  0  0  0  0  0  0  0  0
   10.8543   -7.8495   -7.5839 C   0  0  0  0  0  0  0  0  0  0  0  0
   10.0316   -8.9118   -7.0244 N   0  0  0  0  0  0  0  0  0  0  0  0
   16.3586   -7.1178   -9.9771 C   0  0  0  0  0  0  0  0  0  0  0  0
   17.4350   -7.0797   -9.2750 O   0  0  0  0  0  0  0  0  0  0  0  0
   20.6633   -8.4947  -12.7498 N   0  0  0  0  0  0  0  0  0  0  0  0
   20.9475   -7.0697  -12.7588 C   0  0  0  0  0  0  0  0  0  0  0  0
   22.0853   -6.7573  -13.1144 O   0  0  0  0  0  0  0  0  0  0  0  0
   19.9396   -6.0975  -12.3671 C   0  0  0  0  0  0  0  0  0  0  0  0
   18.6452   -6.5732  -11.8546 C   0  0  0  0  0  0  0  0  0  0  0  0
   17.6101   -5.5395  -11.5189 C   0  0  2  0  0  0  0  0  0  0  0  0
   16.4167   -6.2843  -11.1272 N   0  0  0  0  0  0  0  0  0  0  0  0
   17.4007   -4.4616  -12.4538 C   0  0  0  0  0  0  0  0  0  0  0  0
   18.2568   -3.3453  -12.3648 O   0  0  0  0  0  0  0  0  0  0  0  0
   16.5152   -4.4184  -13.3484 O   0  0  0  0  0  0  0  0  0  0  0  0
  2  1  1  0
  3  2  1  0
  4  3  2  0
  5  3  1  0
  6 12  1  0
  6  5  1  0
  6  7  1  1
  8  7  1  0
  9  8  1  0
 10  9  1  0
 11 10  1  0
 12 20  1  0
 13 12  2  0
 15 17  1  0
 15 14  1  0
 16 15  2  0
 18 17  1  0
 19 18  1  6
 20 19  1  0
 21 22  1  0
 21 19  1  0
 23 21  2  0
M  END
$$$$
