GKQ.pdb
     RDKit          3D

 23 22  0  0  1  0  0  0  0  0999 V2000
   27.5311  -14.7320  -16.2196 N   0  0  0  0  0  0  0  0  0  0  0  0
   26.7704  -15.3309  -15.1659 C   0  0  0  0  0  0  0  0  0  0  0  0
   25.9048  -16.4392  -15.6951 C   0  0  0  0  0  0  0  0  0  0  0  0
   25.6978  -16.5873  -16.9134 O   0  0  0  0  0  0  0  0  0  0  0  0
   25.3075  -17.3415  -14.7756 N   0  0  0  0  0  0  0  0  0  0  0  0
   24.5322  -18.5201  -15.2337 C   0  0  1  0  0  0  0  0  0  0  0  0
   25.0553  -19.6685  -14.4358 C   0  0  0  0  0  0  0  0  0  0  0  0
   24.4479  -20.9974  -14.7351 C   0  0  0  0  0  0  0  0  0  0  0  0
   25.1706  -22.1047  -13.9661 C   0  0  0  0  0  0  0  0  0  0  0  0
   24.5188  -23.4353  -14.1447 C   0  0  0  0  0  0  0  0  0  0  0  0
   25.1320  -24.4279  -13.2746 N   0  0  0  0  0  0  0  0  0  0  0  0
   23.1193  -18.1944  -15.0486 C   0  0  0  0  0  0  0  0  0  0  0  0
   22.6925  -17.7459  -13.9218 O   0  0  0  0  0  0  0  0  0  0  0  0
   20.6425  -14.0382  -18.8087 N   0  0  0  0  0  0  0  0  0  0  0  0
   20.2044  -15.3848  -18.4823 C   0  0  0  0  0  0  0  0  0  0  0  0
   19.4314  -15.9023  -19.2905 O   0  0  0  0  0  0  0  0  0  0  0  0
   20.6606  -16.0539  -17.2746 C   0  0  0  0  0  0  0  0  0  0  0  0
   20.1275  -17.3857  -16.9477 C   0  0  0  0  0  0  0  0  0  0  0  0
   20.6801  -18.0749  -15.7343 C   0  0  2  0  0  0  0  0  0  0  0  0
   22.0910  -18.3168  -16.0224 N   0  0  0  0  0  0  0  0  0  0  0  0
   19.9463  -19.1945  -15.1978 C   0  0  0  0  0  0  0  0  0  0  0  0
   18.9207  -18.9185  -14.2711 O   0  0  0  0  0  0  0  0  0  0  0  0
   20.1378  -20.4077  -15.4764 O   0  0  0  0  0  0  0  0  0  0  0  0
  2  1  1  0
  3  2  1  0
  4  3  2  0
  5  3  1  0
  6 12  1  0
  6  5  1  0
  6  7  1  1
  8  7  1  0
  9  8  1  0
 10  9  1  0
 11 10  1  0
 12 20  1  0
 13 12  2  0
 15 17  1  0
 15 14  1  0
 16 15  2  0
 18 17  1  0
 19 18  1  6
 20 19  1  0
 21 22  1  0
 21 19  1  0
 23 21  2  0
M  END
$$$$
