GKQ.pdb
     RDKit          3D

 23 22  0  0  1  0  0  0  0  0999 V2000
   27.9088  -16.5090  -18.3354 N   0  0  0  0  0  0  0  0  0  0  0  0
   27.8294  -17.3789  -17.2020 C   0  0  0  0  0  0  0  0  0  0  0  0
   26.6270  -18.2746  -17.2990 C   0  0  0  0  0  0  0  0  0  0  0  0
   25.6591  -17.9990  -18.0313 O   0  0  0  0  0  0  0  0  0  0  0  0
   26.5979  -19.4690  -16.5316 N   0  0  0  0  0  0  0  0  0  0  0  0
   25.4975  -20.4544  -16.6667 C   0  0  1  0  0  0  0  0  0  0  0  0
   26.1170  -21.7787  -16.3644 C   0  0  0  0  0  0  0  0  0  0  0  0
   25.2159  -22.9608  -16.4889 C   0  0  0  0  0  0  0  0  0  0  0  0
   25.9901  -24.2561  -16.2384 C   0  0  0  0  0  0  0  0  0  0  0  0
   25.1276  -25.4661  -16.3769 C   0  0  0  0  0  0  0  0  0  0  0  0
   25.9164  -26.6791  -16.2197 N   0  0  0  0  0  0  0  0  0  0  0  0
   24.4290  -20.0203  -15.7688 C   0  0  0  0  0  0  0  0  0  0  0  0
   24.6853  -19.7075  -14.5484 O   0  0  0  0  0  0  0  0  0  0  0  0
   19.8658  -16.0360  -16.8616 N   0  0  0  0  0  0  0  0  0  0  0  0
   19.4735  -16.6102  -15.5857 C   0  0  0  0  0  0  0  0  0  0  0  0
   18.5148  -16.0688  -15.0320 O   0  0  0  0  0  0  0  0  0  0  0  0
   20.1831  -17.7464  -15.0202 C   0  0  0  0  0  0  0  0  0  0  0  0
   21.3238  -18.3168  -15.7537 C   0  0  0  0  0  0  0  0  0  0  0  0
   22.0319  -19.4861  -15.1339 C   0  0  2  0  0  0  0  0  0  0  0  0
   23.0522  -19.8894  -16.0976 N   0  0  0  0  0  0  0  0  0  0  0  0
   21.2293  -20.5507  -14.5844 C   0  0  0  0  0  0  0  0  0  0  0  0
   21.1827  -21.7665  -15.2962 O   0  0  0  0  0  0  0  0  0  0  0  0
   20.5554  -20.4978  -13.5218 O   0  0  0  0  0  0  0  0  0  0  0  0
  2  1  1  0
  3  2  1  0
  4  3  2  0
  5  3  1  0
  6 12  1  0
  6  5  1  0
  6  7  1  1
  8  7  1  0
  9  8  1  0
 10  9  1  0
 11 10  1  0
 12 20  1  0
 13 12  2  0
 15 17  1  0
 15 14  1  0
 16 15  2  0
 18 17  1  0
 19 18  1  6
 20 19  1  0
 21 22  1  0
 21 19  1  0
 23 21  2  0
M  END
$$$$
