GIH.pdb
     RDKit          3D

 23 23  0  0  1  0  0  0  0  0999 V2000
   20.9758  -28.2324  -11.4441 N   0  0  0  0  0  0  0  0  0  0  0  0
   22.0737  -28.7438  -10.6882 C   0  0  0  0  0  0  0  0  0  0  0  0
   21.9377  -30.2259  -10.4423 C   0  0  0  0  0  0  0  0  0  0  0  0
   21.0188  -30.8867  -10.9651 O   0  0  0  0  0  0  0  0  0  0  0  0
   26.6334  -32.4035   -9.5689 C   0  0  0  0  0  0  0  0  0  0  0  0
   25.3550  -32.7076   -8.8386 C   0  0  0  0  0  0  0  0  0  0  0  0
   24.2448  -32.8731   -9.8589 C   0  0  2  0  0  0  0  0  0  0  0  0
   24.7417  -32.5028  -11.2284 C   0  0  0  0  0  0  0  0  0  0  0  0
   22.9813  -32.2477   -9.4195 C   0  0  2  0  0  0  0  0  0  0  0  0
   22.9108  -30.8171   -9.5872 N   0  0  0  0  0  0  0  0  0  0  0  0
   22.4335  -32.6673   -8.1277 C   0  0  0  0  0  0  0  0  0  0  0  0
   22.4778  -31.9611   -7.0812 O   0  0  0  0  0  0  0  0  0  0  0  0
   21.8115  -33.9284   -7.9833 N   0  0  0  0  0  0  0  0  0  0  0  0
   21.2959  -34.3698   -6.6646 C   0  0  1  0  0  0  0  0  0  0  0  0
   20.2795  -35.4445   -6.8333 C   0  0  0  0  0  0  0  0  0  0  0  0
   19.6713  -35.8092   -5.5589 C   0  0  0  0  0  0  0  0  0  0  0  0
   19.8577  -35.2667   -4.2978 C   0  0  0  0  0  0  0  0  0  0  0  0
   19.1170  -35.9132   -3.3811 N   0  0  0  0  0  0  0  0  0  0  0  0
   18.4555  -36.8673   -4.0402 C   0  0  0  0  0  0  0  0  0  0  0  0
   18.7755  -36.8170   -5.3354 N   0  0  0  0  0  0  0  0  0  0  0  0
   22.4305  -34.8529   -5.8613 C   0  0  0  0  0  0  0  0  0  0  0  0
   22.6138  -34.6272   -4.5079 O   0  0  0  0  0  0  0  0  0  0  0  0
   23.3291  -35.5311   -6.4266 O   0  0  0  0  0  0  0  0  0  0  0  0
  2  1  1  0
  2  3  1  0
  3 10  1  0
  4  3  2  0
  5  6  1  0
  6  7  1  0
  7  8  1  6
  7  9  1  0
  9 11  1  0
  9 10  1  1
 11 12  2  0
 13 11  1  0
 13 14  1  0
 14 21  1  0
 14 15  1  6
 16 15  1  0
 17 16  2  0
 18 19  1  0
 18 17  1  0
 19 20  2  0
 20 16  1  0
 21 23  2  0
 21 22  1  0
M  END
$$$$
