GIH.pdb
     RDKit          3D

 23 23  0  0  1  0  0  0  0  0999 V2000
   20.8769  -22.2631   -6.2554 N   0  0  0  0  0  0  0  0  0  0  0  0
   22.0185  -22.6803   -7.0044 C   0  0  0  0  0  0  0  0  0  0  0  0
   22.6446  -21.5293   -7.7519 C   0  0  0  0  0  0  0  0  0  0  0  0
   21.9448  -20.6356   -8.2675 O   0  0  0  0  0  0  0  0  0  0  0  0
   27.5008  -19.4293   -6.4311 C   0  0  0  0  0  0  0  0  0  0  0  0
   26.0985  -19.8107   -6.8159 C   0  0  0  0  0  0  0  0  0  0  0  0
   26.0874  -20.1876   -8.2852 C   0  0  2  0  0  0  0  0  0  0  0  0
   26.7473  -19.1105   -9.1002 C   0  0  0  0  0  0  0  0  0  0  0  0
   24.7572  -20.6417   -8.7379 C   0  0  2  0  0  0  0  0  0  0  0  0
   24.0663  -21.5255   -7.8318 N   0  0  0  0  0  0  0  0  0  0  0  0
   24.6326  -21.0880  -10.1272 C   0  0  0  0  0  0  0  0  0  0  0  0
   25.0691  -22.1943  -10.5531 O   0  0  0  0  0  0  0  0  0  0  0  0
   24.0003  -20.2722  -11.0930 N   0  0  0  0  0  0  0  0  0  0  0  0
   23.6769  -20.8066  -12.4382 C   0  0  1  0  0  0  0  0  0  0  0  0
   22.3886  -21.5521  -12.4091 C   0  0  0  0  0  0  0  0  0  0  0  0
   22.0561  -22.0954  -13.7211 C   0  0  0  0  0  0  0  0  0  0  0  0
   22.8878  -22.5569  -14.7285 C   0  0  0  0  0  0  0  0  0  0  0  0
   22.1753  -22.9553  -15.7965 N   0  0  0  0  0  0  0  0  0  0  0  0
   20.8924  -22.7544  -15.4863 C   0  0  0  0  0  0  0  0  0  0  0  0
   20.8070  -22.2436  -14.2557 N   0  0  0  0  0  0  0  0  0  0  0  0
   23.5998  -19.6778  -13.3793 C   0  0  0  0  0  0  0  0  0  0  0  0
   22.8765  -18.5137  -13.1842 O   0  0  0  0  0  0  0  0  0  0  0  0
   24.2345  -19.7486  -14.4652 O   0  0  0  0  0  0  0  0  0  0  0  0
  2  1  1  0
  2  3  1  0
  3 10  1  0
  4  3  2  0
  5  6  1  0
  6  7  1  0
  7  8  1  6
  7  9  1  0
  9 11  1  0
  9 10  1  1
 11 12  2  0
 13 11  1  0
 13 14  1  0
 14 21  1  0
 14 15  1  1
 16 15  1  0
 17 16  2  0
 18 19  1  0
 18 17  1  0
 19 20  2  0
 20 16  1  0
 21 23  2  0
 21 22  1  0
M  END
$$$$
