GIH.pdb
     RDKit          3D

 23 23  0  0  1  0  0  0  0  0999 V2000
   28.7664  -21.2351  -16.0172 N   0  0  0  0  0  0  0  0  0  0  0  0
   28.1427  -20.3440  -15.0924 C   0  0  0  0  0  0  0  0  0  0  0  0
   26.8763  -20.9317  -14.5211 C   0  0  0  0  0  0  0  0  0  0  0  0
   26.2510  -21.8281  -15.1211 O   0  0  0  0  0  0  0  0  0  0  0  0
   25.1430  -20.0630   -8.9434 C   0  0  0  0  0  0  0  0  0  0  0  0
   25.2463  -19.7696  -10.4142 C   0  0  0  0  0  0  0  0  0  0  0  0
   25.3606  -21.0849  -11.1612 C   0  0  2  0  0  0  0  0  0  0  0  0
   26.5417  -21.8655  -10.6559 C   0  0  0  0  0  0  0  0  0  0  0  0
   25.2568  -20.9102  -12.6238 C   0  0  2  0  0  0  0  0  0  0  0  0
   26.4435  -20.4067  -13.2702 N   0  0  0  0  0  0  0  0  0  0  0  0
   24.0464  -20.2700  -13.1433 C   0  0  0  0  0  0  0  0  0  0  0  0
   23.8401  -19.0240  -13.1121 O   0  0  0  0  0  0  0  0  0  0  0  0
   23.0127  -21.0423  -13.7204 N   0  0  0  0  0  0  0  0  0  0  0  0
   21.7736  -20.3956  -14.2167 C   0  0  1  0  0  0  0  0  0  0  0  0
   21.4189  -20.9119  -15.5673 C   0  0  0  0  0  0  0  0  0  0  0  0
   20.2161  -20.2702  -16.0855 C   0  0  0  0  0  0  0  0  0  0  0  0
   19.5901  -19.1009  -15.6851 C   0  0  0  0  0  0  0  0  0  0  0  0
   18.4845  -18.8725  -16.4148 N   0  0  0  0  0  0  0  0  0  0  0  0
   18.3925  -19.8841  -17.2811 C   0  0  0  0  0  0  0  0  0  0  0  0
   19.4152  -20.7223  -17.0965 N   0  0  0  0  0  0  0  0  0  0  0  0
   20.6914  -20.6700  -13.2578 C   0  0  0  0  0  0  0  0  0  0  0  0
   20.7302  -21.6155  -12.2474 O   0  0  0  0  0  0  0  0  0  0  0  0
   19.6249  -20.0045  -13.3397 O   0  0  0  0  0  0  0  0  0  0  0  0
  2  1  1  0
  2  3  1  0
  3 10  1  0
  4  3  2  0
  5  6  1  0
  6  7  1  0
  7  8  1  6
  7  9  1  0
  9 11  1  0
  9 10  1  1
 11 12  2  0
 13 11  1  0
 13 14  1  0
 14 21  1  0
 14 15  1  6
 16 15  1  0
 17 16  2  0
 18 19  1  0
 18 17  1  0
 19 20  2  0
 20 16  1  0
 21 23  2  0
 21 22  1  0
M  END
$$$$
