GIH.pdb
     RDKit          3D

 23 23  0  0  1  0  0  0  0  0999 V2000
   28.4255  -21.5541  -15.5781 N   0  0  0  0  0  0  0  0  0  0  0  0
   27.7919  -20.5661  -14.7652 C   0  0  0  0  0  0  0  0  0  0  0  0
   26.5384  -21.0991  -14.1170 C   0  0  0  0  0  0  0  0  0  0  0  0
   25.8403  -21.9679  -14.6759 O   0  0  0  0  0  0  0  0  0  0  0  0
   26.7012  -20.4818   -9.0442 C   0  0  0  0  0  0  0  0  0  0  0  0
   26.1398  -21.4112  -10.0839 C   0  0  0  0  0  0  0  0  0  0  0  0
   24.9432  -20.7420  -10.7330 C   0  0  2  0  0  0  0  0  0  0  0  0
   23.6792  -21.1443  -10.0258 C   0  0  0  0  0  0  0  0  0  0  0  0
   24.9535  -20.8783  -12.2034 C   0  0  2  0  0  0  0  0  0  0  0  0
   26.2050  -20.5564  -12.8435 N   0  0  0  0  0  0  0  0  0  0  0  0
   23.8133  -20.3291  -12.9404 C   0  0  0  0  0  0  0  0  0  0  0  0
   23.6307  -19.0947  -13.1373 O   0  0  0  0  0  0  0  0  0  0  0  0
   22.8254  -21.1830  -13.4818 N   0  0  0  0  0  0  0  0  0  0  0  0
   21.7184  -20.6330  -14.3016 C   0  0  1  0  0  0  0  0  0  0  0  0
   21.7039  -21.2624  -15.6507 C   0  0  0  0  0  0  0  0  0  0  0  0
   20.6090  -20.7506  -16.4670 C   0  0  0  0  0  0  0  0  0  0  0  0
   19.6817  -19.7594  -16.1893 C   0  0  0  0  0  0  0  0  0  0  0  0
   18.8191  -19.6077  -17.2091 N   0  0  0  0  0  0  0  0  0  0  0  0
   19.1821  -20.4922  -18.1408 C   0  0  0  0  0  0  0  0  0  0  0  0
   20.2446  -21.1783  -17.7129 N   0  0  0  0  0  0  0  0  0  0  0  0
   20.4506  -20.8873  -13.5988 C   0  0  0  0  0  0  0  0  0  0  0  0
   19.3362  -20.0664  -13.6244 O   0  0  0  0  0  0  0  0  0  0  0  0
   20.3406  -21.9328  -12.9048 O   0  0  0  0  0  0  0  0  0  0  0  0
  2  1  1  0
  2  3  1  0
  3 10  1  0
  4  3  2  0
  5  6  1  0
  6  7  1  0
  7  8  1  1
  7  9  1  0
  9 11  1  0
  9 10  1  6
 11 12  2  0
 13 11  1  0
 13 14  1  0
 14 21  1  0
 14 15  1  6
 16 15  1  0
 17 16  2  0
 18 19  1  0
 18 17  1  0
 19 20  2  0
 20 16  1  0
 21 23  2  0
 21 22  1  0
M  END
$$$$
