GIH.pdb
     RDKit          3D

 23 23  0  0  1  0  0  0  0  0999 V2000
   23.2594  -13.3321  -19.6747 N   0  0  0  0  0  0  0  0  0  0  0  0
   23.2444  -11.9542  -19.3014 C   0  0  0  0  0  0  0  0  0  0  0  0
   23.6287  -11.7653  -17.8550 C   0  0  0  0  0  0  0  0  0  0  0  0
   22.8623  -12.1054  -16.9323 O   0  0  0  0  0  0  0  0  0  0  0  0
   28.0168  -13.1909  -15.9856 C   0  0  0  0  0  0  0  0  0  0  0  0
   27.2239  -12.2019  -15.1772 C   0  0  0  0  0  0  0  0  0  0  0  0
   26.8321  -11.0465  -16.0786 C   0  0  2  0  0  0  0  0  0  0  0  0
   27.5416   -9.7926  -15.6498 C   0  0  0  0  0  0  0  0  0  0  0  0
   25.3703  -10.9515  -16.2653 C   0  0  2  0  0  0  0  0  0  0  0  0
   24.9045  -11.1820  -17.6104 N   0  0  0  0  0  0  0  0  0  0  0  0
   24.6823   -9.8185  -15.6425 C   0  0  0  0  0  0  0  0  0  0  0  0
   24.8124   -9.4970  -14.4278 O   0  0  0  0  0  0  0  0  0  0  0  0
   23.8055   -9.0046  -16.3954 N   0  0  0  0  0  0  0  0  0  0  0  0
   23.1067   -7.8598  -15.7623 C   0  0  1  0  0  0  0  0  0  0  0  0
   23.3934   -6.5990  -16.5002 C   0  0  0  0  0  0  0  0  0  0  0  0
   22.6515   -5.4736  -15.9432 C   0  0  0  0  0  0  0  0  0  0  0  0
   21.2845   -5.2836  -15.8213 C   0  0  0  0  0  0  0  0  0  0  0  0
   21.0119   -4.0892  -15.2682 N   0  0  0  0  0  0  0  0  0  0  0  0
   22.1905   -3.5081  -15.0330 C   0  0  0  0  0  0  0  0  0  0  0  0
   23.1737   -4.3198  -15.4295 N   0  0  0  0  0  0  0  0  0  0  0  0
   21.6622   -8.1413  -15.7616 C   0  0  0  0  0  0  0  0  0  0  0  0
   21.0510   -9.2206  -16.3764 O   0  0  0  0  0  0  0  0  0  0  0  0
   20.8898   -7.3488  -15.1597 O   0  0  0  0  0  0  0  0  0  0  0  0
  2  1  1  0
  2  3  1  0
  3 10  1  0
  4  3  2  0
  5  6  1  0
  6  7  1  0
  7  8  1  1
  7  9  1  0
  9 11  1  0
  9 10  1  6
 11 12  2  0
 13 11  1  0
 13 14  1  0
 14 21  1  0
 14 15  1  6
 16 15  1  0
 17 16  2  0
 18 19  1  0
 18 17  1  0
 19 20  2  0
 20 16  1  0
 21 23  2  0
 21 22  1  0
M  END
$$$$
