GIH.pdb
     RDKit          3D

 23 23  0  0  1  0  0  0  0  0999 V2000
   28.1040  -21.5732  -15.5724 N   0  0  0  0  0  0  0  0  0  0  0  0
   27.7685  -20.7237  -14.4751 C   0  0  0  0  0  0  0  0  0  0  0  0
   26.5381  -21.2102  -13.7506 C   0  0  0  0  0  0  0  0  0  0  0  0
   25.8186  -22.1089  -14.2291 O   0  0  0  0  0  0  0  0  0  0  0  0
   26.7025  -20.5973   -8.4206 C   0  0  0  0  0  0  0  0  0  0  0  0
   26.4739  -21.2390   -9.7608 C   0  0  0  0  0  0  0  0  0  0  0  0
   25.1433  -20.7560  -10.3059 C   0  0  2  0  0  0  0  0  0  0  0  0
   24.0142  -21.3271   -9.4944 C   0  0  0  0  0  0  0  0  0  0  0  0
   25.0497  -20.9065  -11.7719 C   0  0  2  0  0  0  0  0  0  0  0  0
   26.2517  -20.5880  -12.5022 N   0  0  0  0  0  0  0  0  0  0  0  0
   23.8585  -20.3672  -12.4314 C   0  0  0  0  0  0  0  0  0  0  0  0
   23.6387  -19.1332  -12.5889 O   0  0  0  0  0  0  0  0  0  0  0  0
   22.8604  -21.2311  -12.9370 N   0  0  0  0  0  0  0  0  0  0  0  0
   21.6774  -20.6854  -13.6459 C   0  0  1  0  0  0  0  0  0  0  0  0
   21.4769  -21.3852  -14.9446 C   0  0  0  0  0  0  0  0  0  0  0  0
   22.4729  -20.9789  -15.9295 C   0  0  0  0  0  0  0  0  0  0  0  0
   23.2258  -19.8183  -16.0051 C   0  0  0  0  0  0  0  0  0  0  0  0
   24.0172  -19.8278  -17.0917 N   0  0  0  0  0  0  0  0  0  0  0  0
   23.7807  -20.9835  -17.7166 C   0  0  0  0  0  0  0  0  0  0  0  0
   22.8649  -21.6775  -17.0368 N   0  0  0  0  0  0  0  0  0  0  0  0
   20.4993  -20.8548  -12.7802 C   0  0  0  0  0  0  0  0  0  0  0  0
   20.4607  -21.5862  -11.6055 O   0  0  0  0  0  0  0  0  0  0  0  0
   19.4180  -20.2998  -13.1115 O   0  0  0  0  0  0  0  0  0  0  0  0
  2  1  1  0
  2  3  1  0
  3 10  1  0
  4  3  2  0
  5  6  1  0
  6  7  1  0
  7  8  1  1
  7  9  1  0
  9 11  1  0
  9 10  1  6
 11 12  2  0
 13 11  1  0
 13 14  1  0
 14 21  1  0
 14 15  1  6
 16 15  1  0
 17 16  2  0
 18 19  1  0
 18 17  1  0
 19 20  2  0
 20 16  1  0
 21 23  2  0
 21 22  1  0
M  END
$$$$
