GIH.pdb
     RDKit          3D

 23 23  0  0  1  0  0  0  0  0999 V2000
   18.7875  -13.9818  -17.1411 N   0  0  0  0  0  0  0  0  0  0  0  0
   19.5879  -12.9367  -17.6938 C   0  0  0  0  0  0  0  0  0  0  0  0
   19.7746  -11.8028  -16.7167 C   0  0  0  0  0  0  0  0  0  0  0  0
   18.8287  -11.3880  -16.0185 O   0  0  0  0  0  0  0  0  0  0  0  0
   24.5757  -11.6032  -15.2570 C   0  0  0  0  0  0  0  0  0  0  0  0
   23.2439  -11.2370  -14.6635 C   0  0  0  0  0  0  0  0  0  0  0  0
   22.7466   -9.9728  -15.3384 C   0  0  2  0  0  0  0  0  0  0  0  0
   23.0713   -8.7733  -14.4927 C   0  0  0  0  0  0  0  0  0  0  0  0
   21.3513  -10.0979  -15.8054 C   0  0  2  0  0  0  0  0  0  0  0  0
   21.0812  -11.2416  -16.6411 N   0  0  0  0  0  0  0  0  0  0  0  0
   20.6993   -8.8901  -16.3162 C   0  0  0  0  0  0  0  0  0  0  0  0
   20.7363   -8.5280  -17.5259 O   0  0  0  0  0  0  0  0  0  0  0  0
   19.9760   -8.0393  -15.4496 N   0  0  0  0  0  0  0  0  0  0  0  0
   19.2829   -6.8380  -15.9753 C   0  0  1  0  0  0  0  0  0  0  0  0
   18.0884   -7.2302  -16.7726 C   0  0  0  0  0  0  0  0  0  0  0  0
   17.3603   -6.0617  -17.2539 C   0  0  0  0  0  0  0  0  0  0  0  0
   17.6610   -4.7149  -17.1313 C   0  0  0  0  0  0  0  0  0  0  0  0
   16.7093   -3.9553  -17.7008 N   0  0  0  0  0  0  0  0  0  0  0  0
   15.7984   -4.8005  -18.1888 C   0  0  0  0  0  0  0  0  0  0  0  0
   16.1727   -6.0558  -17.9302 N   0  0  0  0  0  0  0  0  0  0  0  0
   18.8894   -5.9940  -14.8357 C   0  0  0  0  0  0  0  0  0  0  0  0
   18.5960   -4.6425  -14.8970 O   0  0  0  0  0  0  0  0  0  0  0  0
   18.8055   -6.5177  -13.6931 O   0  0  0  0  0  0  0  0  0  0  0  0
  2  1  1  0
  2  3  1  0
  3 10  1  0
  4  3  2  0
  5  6  1  0
  6  7  1  0
  7  8  1  1
  7  9  1  0
  9 11  1  0
  9 10  1  6
 11 12  2  0
 13 11  1  0
 13 14  1  0
 14 21  1  0
 14 15  1  1
 16 15  1  0
 17 16  2  0
 18 19  1  0
 18 17  1  0
 19 20  2  0
 20 16  1  0
 21 23  2  0
 21 22  1  0
M  END
$$$$
