GIH.pdb
     RDKit          3D

 23 23  0  0  1  0  0  0  0  0999 V2000
   17.2752  -13.9961  -14.9849 N   0  0  0  0  0  0  0  0  0  0  0  0
   17.8035  -13.5999  -16.2507 C   0  0  0  0  0  0  0  0  0  0  0  0
   17.7205  -12.1063  -16.4454 C   0  0  0  0  0  0  0  0  0  0  0  0
   18.6179  -11.4810  -17.0437 O   0  0  0  0  0  0  0  0  0  0  0  0
   14.4662  -10.0217  -18.7382 C   0  0  0  0  0  0  0  0  0  0  0  0
   14.1688  -10.5856  -17.3767 C   0  0  0  0  0  0  0  0  0  0  0  0
   14.8668   -9.7292  -16.3373 C   0  0  2  0  0  0  0  0  0  0  0  0
   14.5411   -8.2786  -16.5593 C   0  0  0  0  0  0  0  0  0  0  0  0
   16.2953  -10.0744  -16.1935 C   0  0  2  0  0  0  0  0  0  0  0  0
   16.5687  -11.4618  -15.9107 N   0  0  0  0  0  0  0  0  0  0  0  0
   17.1268   -9.1839  -15.3808 C   0  0  0  0  0  0  0  0  0  0  0  0
   17.0441   -9.0964  -14.1232 O   0  0  0  0  0  0  0  0  0  0  0  0
   18.0922   -8.3470  -15.9855 N   0  0  0  0  0  0  0  0  0  0  0  0
   18.8686   -7.3794  -15.1727 C   0  0  1  0  0  0  0  0  0  0  0  0
   20.1866   -7.1023  -15.8069 C   0  0  0  0  0  0  0  0  0  0  0  0
   20.9519   -6.1235  -15.0430 C   0  0  0  0  0  0  0  0  0  0  0  0
   21.8051   -6.3066  -13.9668 C   0  0  0  0  0  0  0  0  0  0  0  0
   22.2955   -5.1316  -13.5359 N   0  0  0  0  0  0  0  0  0  0  0  0
   21.7657   -4.1935  -14.3243 C   0  0  0  0  0  0  0  0  0  0  0  0
   20.9651   -4.7690  -15.2245 N   0  0  0  0  0  0  0  0  0  0  0  0
   18.0831   -6.1409  -15.0506 C   0  0  0  0  0  0  0  0  0  0  0  0
   18.0727   -5.2978  -13.9527 O   0  0  0  0  0  0  0  0  0  0  0  0
   17.3456   -5.7929  -16.0109 O   0  0  0  0  0  0  0  0  0  0  0  0
  2  1  1  0
  2  3  1  0
  3 10  1  0
  4  3  2  0
  5  6  1  0
  6  7  1  0
  7  8  1  6
  7  9  1  0
  9 11  1  0
  9 10  1  1
 11 12  2  0
 13 11  1  0
 13 14  1  0
 14 21  1  0
 14 15  1  6
 16 15  1  0
 17 16  2  0
 18 19  1  0
 18 17  1  0
 19 20  2  0
 20 16  1  0
 21 23  2  0
 21 22  1  0
M  END
$$$$
