GIH.pdb
     RDKit          3D

 23 23  0  0  1  0  0  0  0  0999 V2000
   20.7070  -13.5827  -17.3492 N   0  0  0  0  0  0  0  0  0  0  0  0
   20.2805  -12.2277  -17.4924 C   0  0  0  0  0  0  0  0  0  0  0  0
   20.7210  -11.3794  -16.3255 C   0  0  0  0  0  0  0  0  0  0  0  0
   20.0725  -11.3565  -15.2610 O   0  0  0  0  0  0  0  0  0  0  0  0
   26.2083  -10.1832  -15.3405 C   0  0  0  0  0  0  0  0  0  0  0  0
   24.8690  -10.0044  -15.9995 C   0  0  0  0  0  0  0  0  0  0  0  0
   23.7868  -10.2305  -14.9610 C   0  0  2  0  0  0  0  0  0  0  0  0
   23.8995  -11.6165  -14.3901 C   0  0  0  0  0  0  0  0  0  0  0  0
   22.4531   -9.8169  -15.4414 C   0  0  2  0  0  0  0  0  0  0  0  0
   21.9083  -10.6155  -16.5114 N   0  0  0  0  0  0  0  0  0  0  0  0
   22.2303   -8.3872  -15.6677 C   0  0  0  0  0  0  0  0  0  0  0  0
   22.4689   -7.8019  -16.7615 O   0  0  0  0  0  0  0  0  0  0  0  0
   21.7243   -7.5638  -14.6361 N   0  0  0  0  0  0  0  0  0  0  0  0
   21.5837   -6.1011  -14.8375 C   0  0  1  0  0  0  0  0  0  0  0  0
   20.1586   -5.6900  -14.7095 C   0  0  0  0  0  0  0  0  0  0  0  0
   19.4100   -5.9704  -15.9294 C   0  0  0  0  0  0  0  0  0  0  0  0
   19.8425   -6.4959  -17.1361 C   0  0  0  0  0  0  0  0  0  0  0  0
   18.8307   -6.5732  -18.0178 N   0  0  0  0  0  0  0  0  0  0  0  0
   17.7508   -6.1020  -17.3901 C   0  0  0  0  0  0  0  0  0  0  0  0
   18.0808   -5.7401  -16.1481 N   0  0  0  0  0  0  0  0  0  0  0  0
   22.4123   -5.4132  -13.8344 C   0  0  0  0  0  0  0  0  0  0  0  0
   22.8229   -4.0927  -13.8966 O   0  0  0  0  0  0  0  0  0  0  0  0
   22.7980   -6.0559  -12.8220 O   0  0  0  0  0  0  0  0  0  0  0  0
  2  1  1  0
  2  3  1  0
  3 10  1  0
  4  3  2  0
  5  6  1  0
  6  7  1  0
  7  8  1  6
  7  9  1  0
  9 11  1  0
  9 10  1  6
 11 12  2  0
 13 11  1  0
 13 14  1  0
 14 21  1  0
 14 15  1  1
 16 15  1  0
 17 16  2  0
 18 19  1  0
 18 17  1  0
 19 20  2  0
 20 16  1  0
 21 23  2  0
 21 22  1  0
M  END
$$$$
