GIH.pdb
     RDKit          3D

 23 23  0  0  1  0  0  0  0  0999 V2000
   28.6437  -18.9622  -15.9202 N   0  0  0  0  0  0  0  0  0  0  0  0
   27.8416  -18.5633  -14.8085 C   0  0  0  0  0  0  0  0  0  0  0  0
   26.9945  -19.7016  -14.2965 C   0  0  0  0  0  0  0  0  0  0  0  0
   26.7925  -20.7194  -14.9876 O   0  0  0  0  0  0  0  0  0  0  0  0
   26.7396  -20.5686   -8.9295 C   0  0  0  0  0  0  0  0  0  0  0  0
   26.8232  -20.7916  -10.4138 C   0  0  0  0  0  0  0  0  0  0  0  0
   25.4395  -20.6081  -11.0076 C   0  0  2  0  0  0  0  0  0  0  0  0
   24.4943  -21.6308  -10.4418 C   0  0  0  0  0  0  0  0  0  0  0  0
   25.4729  -20.4767  -12.4780 C   0  0  2  0  0  0  0  0  0  0  0  0
   26.4463  -19.5449  -12.9916 N   0  0  0  0  0  0  0  0  0  0  0  0
   24.1902  -20.3560  -13.1745 C   0  0  0  0  0  0  0  0  0  0  0  0
   23.5419  -19.2763  -13.2741 O   0  0  0  0  0  0  0  0  0  0  0  0
   23.5928  -21.4816  -13.7862 N   0  0  0  0  0  0  0  0  0  0  0  0
   22.3488  -21.3381  -14.5810 C   0  0  1  0  0  0  0  0  0  0  0  0
   22.2306  -22.4429  -15.5718 C   0  0  0  0  0  0  0  0  0  0  0  0
   21.0185  -22.3148  -16.3727 C   0  0  0  0  0  0  0  0  0  0  0  0
   19.7277  -22.7416  -16.1054 C   0  0  0  0  0  0  0  0  0  0  0  0
   18.9017  -22.4440  -17.1233 N   0  0  0  0  0  0  0  0  0  0  0  0
   19.6486  -21.8300  -18.0438 C   0  0  0  0  0  0  0  0  0  0  0  0
   20.9088  -21.7465  -17.6107 N   0  0  0  0  0  0  0  0  0  0  0  0
   21.2040  -21.3484  -13.6562 C   0  0  0  0  0  0  0  0  0  0  0  0
   20.0165  -20.6600  -13.8359 O   0  0  0  0  0  0  0  0  0  0  0  0
   21.2826  -22.0317  -12.6009 O   0  0  0  0  0  0  0  0  0  0  0  0
  2  1  1  0
  2  3  1  0
  3 10  1  0
  4  3  2  0
  5  6  1  0
  6  7  1  0
  7  8  1  6
  7  9  1  0
  9 11  1  0
  9 10  1  1
 11 12  2  0
 13 11  1  0
 13 14  1  0
 14 21  1  0
 14 15  1  6
 16 15  1  0
 17 16  2  0
 18 19  1  0
 18 17  1  0
 19 20  2  0
 20 16  1  0
 21 23  2  0
 21 22  1  0
M  END
$$$$
