GIH.pdb
     RDKit          3D

 23 23  0  0  1  0  0  0  0  0999 V2000
   13.4149  -12.1947  -18.8561 N   0  0  0  0  0  0  0  0  0  0  0  0
   13.8171  -11.6539  -17.5975 C   0  0  0  0  0  0  0  0  0  0  0  0
   14.7719  -10.4985  -17.7679 C   0  0  0  0  0  0  0  0  0  0  0  0
   15.5656  -10.4514  -18.7282 O   0  0  0  0  0  0  0  0  0  0  0  0
   13.6009   -5.2724  -15.7823 C   0  0  0  0  0  0  0  0  0  0  0  0
   14.2013   -6.6421  -15.6295 C   0  0  0  0  0  0  0  0  0  0  0  0
   14.8742   -7.0219  -16.9349 C   0  0  2  0  0  0  0  0  0  0  0  0
   13.9182   -6.8415  -18.0808 C   0  0  0  0  0  0  0  0  0  0  0  0
   15.5709   -8.3210  -16.8497 C   0  0  2  0  0  0  0  0  0  0  0  0
   14.7123   -9.4773  -16.7773 N   0  0  0  0  0  0  0  0  0  0  0  0
   16.6954   -8.4244  -15.9171 C   0  0  0  0  0  0  0  0  0  0  0  0
   16.6166   -8.9606  -14.7759 O   0  0  0  0  0  0  0  0  0  0  0  0
   17.9658   -7.9073  -16.2586 N   0  0  0  0  0  0  0  0  0  0  0  0
   19.1074   -8.0267  -15.3194 C   0  0  1  0  0  0  0  0  0  0  0  0
   20.1022   -9.0109  -15.8276 C   0  0  0  0  0  0  0  0  0  0  0  0
   21.2336   -9.1455  -14.9172 C   0  0  0  0  0  0  0  0  0  0  0  0
   21.4534   -8.5607  -13.6805 C   0  0  0  0  0  0  0  0  0  0  0  0
   22.6428   -8.9327  -13.1766 N   0  0  0  0  0  0  0  0  0  0  0  0
   23.1911   -9.7514  -14.0774 C   0  0  0  0  0  0  0  0  0  0  0  0
   22.3643   -9.8867  -15.1170 N   0  0  0  0  0  0  0  0  0  0  0  0
   19.7244   -6.6992  -15.1684 C   0  0  0  0  0  0  0  0  0  0  0  0
   20.4219   -6.2562  -14.0577 O   0  0  0  0  0  0  0  0  0  0  0  0
   19.6244   -5.8724  -16.1135 O   0  0  0  0  0  0  0  0  0  0  0  0
  2  1  1  0
  2  3  1  0
  3 10  1  0
  4  3  2  0
  5  6  1  0
  6  7  1  0
  7  8  1  6
  7  9  1  0
  9 11  1  0
  9 10  1  1
 11 12  2  0
 13 11  1  0
 13 14  1  0
 14 21  1  0
 14 15  1  6
 16 15  1  0
 17 16  2  0
 18 19  1  0
 18 17  1  0
 19 20  2  0
 20 16  1  0
 21 23  2  0
 21 22  1  0
M  END
$$$$
