GIH.pdb
     RDKit          3D

 23 23  0  0  1  0  0  0  0  0999 V2000
   27.8437  -17.4204  -16.5406 N   0  0  0  0  0  0  0  0  0  0  0  0
   27.3224  -17.2981  -15.2171 C   0  0  0  0  0  0  0  0  0  0  0  0
   26.6937  -18.5856  -14.7455 C   0  0  0  0  0  0  0  0  0  0  0  0
   26.4897  -19.5318  -15.5314 O   0  0  0  0  0  0  0  0  0  0  0  0
   28.2789  -21.4181  -12.6368 C   0  0  0  0  0  0  0  0  0  0  0  0
   27.8610  -20.3651  -11.6486 C   0  0  0  0  0  0  0  0  0  0  0  0
   26.3460  -20.3485  -11.5737 C   0  0  2  0  0  0  0  0  0  0  0  0
   25.8389  -21.6697  -11.0670 C   0  0  0  0  0  0  0  0  0  0  0  0
   25.7288  -19.8309  -12.8113 C   0  0  2  0  0  0  0  0  0  0  0  0
   26.3514  -18.6539  -13.3650 N   0  0  0  0  0  0  0  0  0  0  0  0
   24.2678  -19.7373  -12.8492 C   0  0  0  0  0  0  0  0  0  0  0  0
   23.5829  -19.0753  -12.0194 O   0  0  0  0  0  0  0  0  0  0  0  0
   23.5274  -20.4100  -13.8479 N   0  0  0  0  0  0  0  0  0  0  0  0
   22.0619  -20.2131  -13.9634 C   0  0  1  0  0  0  0  0  0  0  0  0
   21.6653  -20.0611  -15.3903 C   0  0  0  0  0  0  0  0  0  0  0  0
   20.2250  -19.8773  -15.5276 C   0  0  0  0  0  0  0  0  0  0  0  0
   19.4582  -18.7319  -15.3880 C   0  0  0  0  0  0  0  0  0  0  0  0
   18.1543  -18.9995  -15.5761 N   0  0  0  0  0  0  0  0  0  0  0  0
   18.0744  -20.3066  -15.8352 C   0  0  0  0  0  0  0  0  0  0  0  0
   19.2977  -20.8409  -15.8095 N   0  0  0  0  0  0  0  0  0  0  0  0
   21.3892  -21.3750  -13.3608 C   0  0  0  0  0  0  0  0  0  0  0  0
   20.1609  -21.3538  -12.7226 O   0  0  0  0  0  0  0  0  0  0  0  0
   21.9560  -22.4988  -13.4128 O   0  0  0  0  0  0  0  0  0  0  0  0
  2  1  1  0
  2  3  1  0
  3 10  1  0
  4  3  2  0
  5  6  1  0
  6  7  1  0
  7  8  1  6
  7  9  1  0
  9 11  1  0
  9 10  1  1
 11 12  2  0
 13 11  1  0
 13 14  1  0
 14 21  1  0
 14 15  1  6
 16 15  1  0
 17 16  2  0
 18 19  1  0
 18 17  1  0
 19 20  2  0
 20 16  1  0
 21 23  2  0
 21 22  1  0
M  END
$$$$
