LHV.pdb
     RDKit          3D

 26 26  0  0  1  0  0  0  0  0999 V2000
    7.2793  -12.7304   17.9809 C   0  0  0  0  0  0  0  0  0  0  0  0
    8.0551  -13.7564   18.7073 C   0  0  1  0  0  0  0  0  0  0  0  0
    9.4558  -13.2031   18.9589 C   0  0  0  0  0  0  0  0  0  0  0  0
    7.4979  -14.1630   20.0364 C   0  0  0  0  0  0  0  0  0  0  0  0
    8.3583  -15.1303   20.7893 C   0  0  2  0  0  0  0  0  0  0  0  0
    8.3632  -16.3813   20.0773 N   0  0  0  0  0  0  0  0  0  0  0  0
    7.7288  -15.3702   22.1143 C   0  0  0  0  0  0  0  0  0  0  0  0
    6.7421  -14.6936   22.5252 O   0  0  0  0  0  0  0  0  0  0  0  0
    8.2365  -16.3828   22.9542 N   0  0  0  0  0  0  0  0  0  0  0  0
    7.7406  -16.6176   24.2964 C   0  0  1  0  0  0  0  0  0  0  0  0
    7.9653  -18.0670   24.6808 C   0  0  0  0  0  0  0  0  0  0  0  0
    7.1240  -18.9831   23.8852 C   0  0  0  0  0  0  0  0  0  0  0  0
    5.8096  -18.6654   23.5596 C   0  0  0  0  0  0  0  0  0  0  0  0
    5.2830  -19.6682   22.8364 N   0  0  0  0  0  0  0  0  0  0  0  0
    6.2537  -20.5799   22.7218 C   0  0  0  0  0  0  0  0  0  0  0  0
    7.3629  -20.1765   23.3487 N   0  0  0  0  0  0  0  0  0  0  0  0
    8.4614  -15.7128   25.2160 C   0  0  0  0  0  0  0  0  0  0  0  0
    9.6961  -15.7148   25.2519 O   0  0  0  0  0  0  0  0  0  0  0  0
    7.1719  -11.9703   25.8940 C   0  0  0  0  0  0  0  0  0  0  0  0
    7.4899  -12.6921   27.1596 C   0  0  1  0  0  0  0  0  0  0  0  0
    6.2311  -12.9998   27.8999 C   0  0  0  0  0  0  0  0  0  0  0  0
    8.3712  -13.8990   26.9578 C   0  0  2  0  0  0  0  0  0  0  0  0
    7.7178  -14.8299   26.0690 N   0  0  0  0  0  0  0  0  0  0  0  0
    8.8112  -14.5094   28.2168 C   0  0  0  0  0  0  0  0  0  0  0  0
    9.6472  -13.8172   29.0613 O   0  0  0  0  0  0  0  0  0  0  0  0
    8.4399  -15.6527   28.5403 O   0  0  0  0  0  0  0  0  0  0  0  0
  2  1  1  1
  2  3  1  0
  4  2  1  0
  5  6  1  6
  5  4  1  0
  7  5  1  0
  8  7  2  0
  9  7  1  0
 10  9  1  0
 11 12  1  0
 10 11  1  1
 12 16  1  0
 13 12  2  0
 13 14  1  0
 14 15  1  0
 16 15  2  0
 17 10  1  0
 17 18  2  0
 20 19  1  6
 20 22  1  0
 20 21  1  0
 22 23  1  6
 23 17  1  0
 24 22  1  0
 25 24  1  0
 26 24  2  0
M  END
$$$$
