LHV.pdb
     RDKit          3D

 26 26  0  0  1  0  0  0  0  0999 V2000
    7.3419  -12.2168   19.4457 C   0  0  0  0  0  0  0  0  0  0  0  0
    8.3014  -13.3400   19.4624 C   0  0  1  0  0  0  0  0  0  0  0  0
    9.7101  -12.7630   19.3436 C   0  0  0  0  0  0  0  0  0  0  0  0
    8.2766  -14.1889   20.6956 C   0  0  0  0  0  0  0  0  0  0  0  0
    9.2639  -15.3149   20.6819 C   0  0  2  0  0  0  0  0  0  0  0  0
    8.9132  -16.2116   19.6118 N   0  0  0  0  0  0  0  0  0  0  0  0
    9.1250  -16.0634   21.9585 C   0  0  0  0  0  0  0  0  0  0  0  0
    8.0194  -16.5432   22.3427 O   0  0  0  0  0  0  0  0  0  0  0  0
   10.2543  -16.2541   22.7813 N   0  0  0  0  0  0  0  0  0  0  0  0
   10.1964  -16.9482   24.0530 C   0  0  1  0  0  0  0  0  0  0  0  0
   11.0667  -18.1887   24.0012 C   0  0  0  0  0  0  0  0  0  0  0  0
   10.4430  -19.2647   23.2054 C   0  0  0  0  0  0  0  0  0  0  0  0
   10.2904  -19.1549   21.8273 C   0  0  0  0  0  0  0  0  0  0  0  0
    9.6983  -20.2680   21.3623 N   0  0  0  0  0  0  0  0  0  0  0  0
    9.4928  -21.0423   22.4323 C   0  0  0  0  0  0  0  0  0  0  0  0
    9.9371  -20.4474   23.5435 N   0  0  0  0  0  0  0  0  0  0  0  0
   10.6662  -16.0207   25.1032 C   0  0  0  0  0  0  0  0  0  0  0  0
   11.7144  -15.3856   24.9503 O   0  0  0  0  0  0  0  0  0  0  0  0
    9.2905  -13.0227   26.5675 C   0  0  0  0  0  0  0  0  0  0  0  0
    9.4518  -13.9593   27.7167 C   0  0  1  0  0  0  0  0  0  0  0  0
    8.1123  -14.4019   28.2040 C   0  0  0  0  0  0  0  0  0  0  0  0
   10.3891  -15.1055   27.4307 C   0  0  2  0  0  0  0  0  0  0  0  0
    9.8965  -15.8615   26.3042 N   0  0  0  0  0  0  0  0  0  0  0  0
   10.6652  -15.9333   28.6096 C   0  0  0  0  0  0  0  0  0  0  0  0
   11.3711  -15.4098   29.6673 O   0  0  0  0  0  0  0  0  0  0  0  0
   10.2698  -17.1120   28.6735 O   0  0  0  0  0  0  0  0  0  0  0  0
  2  1  1  1
  2  3  1  0
  4  2  1  0
  5  6  1  6
  5  4  1  0
  7  5  1  0
  8  7  2  0
  9  7  1  0
 10  9  1  0
 11 12  1  0
 10 11  1  6
 12 16  1  0
 13 12  2  0
 13 14  1  0
 14 15  1  0
 16 15  2  0
 17 10  1  0
 17 18  2  0
 20 19  1  6
 20 22  1  0
 20 21  1  0
 22 23  1  6
 23 17  1  0
 24 22  1  0
 25 24  1  0
 26 24  2  0
M  END
$$$$
