LHV.pdb
     RDKit          3D

 26 26  0  0  1  0  0  0  0  0999 V2000
    6.7313  -13.0171   17.7577 C   0  0  0  0  0  0  0  0  0  0  0  0
    7.7768  -13.6956   18.5507 C   0  0  1  0  0  0  0  0  0  0  0  0
    8.9940  -12.7760   18.6176 C   0  0  0  0  0  0  0  0  0  0  0  0
    7.3997  -14.0289   19.9610 C   0  0  0  0  0  0  0  0  0  0  0  0
    8.5154  -14.6165   20.7689 C   0  0  2  0  0  0  0  0  0  0  0  0
    8.9408  -15.8363   20.1338 N   0  0  0  0  0  0  0  0  0  0  0  0
    7.9757  -14.9719   22.1074 C   0  0  0  0  0  0  0  0  0  0  0  0
    7.0495  -14.3102   22.6591 O   0  0  0  0  0  0  0  0  0  0  0  0
    8.5029  -16.0817   22.7996 N   0  0  0  0  0  0  0  0  0  0  0  0
    8.0592  -16.4694   24.1244 C   0  0  1  0  0  0  0  0  0  0  0  0
    8.3853  -17.9300   24.3683 C   0  0  0  0  0  0  0  0  0  0  0  0
    7.5704  -18.8238   23.5214 C   0  0  0  0  0  0  0  0  0  0  0  0
    6.1807  -18.8084   23.5746 C   0  0  0  0  0  0  0  0  0  0  0  0
    5.6993  -19.7143   22.7066 N   0  0  0  0  0  0  0  0  0  0  0  0
    6.7708  -20.2721   22.1345 C   0  0  0  0  0  0  0  0  0  0  0  0
    7.8988  -19.7431   22.6181 N   0  0  0  0  0  0  0  0  0  0  0  0
    8.7459  -15.6069   25.1084 C   0  0  0  0  0  0  0  0  0  0  0  0
    9.9776  -15.5143   25.1039 O   0  0  0  0  0  0  0  0  0  0  0  0
    7.6878  -11.9432   25.9858 C   0  0  0  0  0  0  0  0  0  0  0  0
    7.7716  -12.7685   27.2250 C   0  0  1  0  0  0  0  0  0  0  0  0
    6.4015  -13.0280   27.7569 C   0  0  0  0  0  0  0  0  0  0  0  0
    8.5918  -14.0227   27.0574 C   0  0  2  0  0  0  0  0  0  0  0  0
    7.9725  -14.8757   26.0714 N   0  0  0  0  0  0  0  0  0  0  0  0
    8.8672  -14.7060   28.3257 C   0  0  0  0  0  0  0  0  0  0  0  0
    9.6467  -14.0959   29.2803 O   0  0  0  0  0  0  0  0  0  0  0  0
    8.4055  -15.8384   28.5585 O   0  0  0  0  0  0  0  0  0  0  0  0
  2  1  1  1
  2  3  1  0
  4  2  1  0
  5  6  1  6
  5  4  1  0
  7  5  1  0
  8  7  2  0
  9  7  1  0
 10  9  1  0
 11 12  1  0
 10 11  1  1
 12 16  1  0
 13 12  2  0
 13 14  1  0
 14 15  1  0
 16 15  2  0
 17 10  1  0
 17 18  2  0
 20 19  1  6
 20 22  1  0
 20 21  1  0
 22 23  1  6
 23 17  1  0
 24 22  1  0
 25 24  1  0
 26 24  2  0
M  END
$$$$
