LHV.pdb
     RDKit          3D

 26 26  0  0  1  0  0  0  0  0999 V2000
    6.8470  -12.9560   17.4204 C   0  0  0  0  0  0  0  0  0  0  0  0
    7.9776  -13.5154   18.1892 C   0  0  1  0  0  0  0  0  0  0  0  0
    9.0506  -12.4357   18.3097 C   0  0  0  0  0  0  0  0  0  0  0  0
    7.6499  -13.9665   19.5789 C   0  0  0  0  0  0  0  0  0  0  0  0
    8.8461  -14.3482   20.3951 C   0  0  2  0  0  0  0  0  0  0  0  0
    9.5983  -15.3333   19.6630 N   0  0  0  0  0  0  0  0  0  0  0  0
    8.3632  -14.9903   21.6456 C   0  0  0  0  0  0  0  0  0  0  0  0
    7.2712  -14.6633   22.1940 O   0  0  0  0  0  0  0  0  0  0  0  0
    9.1366  -16.0001   22.2545 N   0  0  0  0  0  0  0  0  0  0  0  0
    8.7916  -16.5981   23.5296 C   0  0  1  0  0  0  0  0  0  0  0  0
    9.5763  -17.8807   23.7245 C   0  0  0  0  0  0  0  0  0  0  0  0
    9.1597  -18.9298   22.7725 C   0  0  0  0  0  0  0  0  0  0  0  0
    7.8502  -19.0151   22.3116 C   0  0  0  0  0  0  0  0  0  0  0  0
    7.7511  -20.0530   21.4639 N   0  0  0  0  0  0  0  0  0  0  0  0
    8.9732  -20.5915   21.4071 C   0  0  0  0  0  0  0  0  0  0  0  0
    9.8254  -19.9230   22.1900 N   0  0  0  0  0  0  0  0  0  0  0  0
    9.1075  -15.6226   24.5937 C   0  0  0  0  0  0  0  0  0  0  0  0
   10.2186  -15.0848   24.6364 O   0  0  0  0  0  0  0  0  0  0  0  0
    7.2040  -12.3237   27.6815 C   0  0  0  0  0  0  0  0  0  0  0  0
    7.0837  -13.4213   26.6792 C   0  0  1  0  0  0  0  0  0  0  0  0
    6.6284  -12.8672   25.3703 C   0  0  0  0  0  0  0  0  0  0  0  0
    8.3247  -14.2704   26.5661 C   0  0  2  0  0  0  0  0  0  0  0  0
    8.1144  -15.3025   25.5793 N   0  0  0  0  0  0  0  0  0  0  0  0
    8.7897  -14.7877   27.8574 C   0  0  0  0  0  0  0  0  0  0  0  0
    9.4314  -13.9527   28.7419 O   0  0  0  0  0  0  0  0  0  0  0  0
    8.6139  -15.9791   28.1729 O   0  0  0  0  0  0  0  0  0  0  0  0
  2  1  1  1
  2  3  1  0
  4  2  1  0
  5  6  1  6
  5  4  1  0
  7  5  1  0
  8  7  2  0
  9  7  1  0
 10  9  1  0
 11 12  1  0
 10 11  1  1
 12 16  1  0
 13 12  2  0
 13 14  1  0
 14 15  1  0
 16 15  2  0
 17 10  1  0
 17 18  2  0
 20 19  1  1
 20 22  1  0
 20 21  1  0
 22 23  1  6
 23 17  1  0
 24 22  1  0
 25 24  1  0
 26 24  2  0
M  END
$$$$
