LHV.pdb
     RDKit          3D

 26 26  0  0  1  0  0  0  0  0999 V2000
    8.1933  -12.1673   18.5802 C   0  0  0  0  0  0  0  0  0  0  0  0
    8.4637  -13.6136   18.7127 C   0  0  1  0  0  0  0  0  0  0  0  0
    9.9303  -13.7891   19.0999 C   0  0  0  0  0  0  0  0  0  0  0  0
    7.6479  -14.3286   19.7449 C   0  0  0  0  0  0  0  0  0  0  0  0
    8.2187  -15.6466   20.1689 C   0  0  2  0  0  0  0  0  0  0  0  0
    7.6602  -16.6734   19.3286 N   0  0  0  0  0  0  0  0  0  0  0  0
    7.7725  -15.9140   21.5613 C   0  0  0  0  0  0  0  0  0  0  0  0
    6.5603  -15.8226   21.9109 O   0  0  0  0  0  0  0  0  0  0  0  0
    8.7201  -16.2832   22.5382 N   0  0  0  0  0  0  0  0  0  0  0  0
    8.3622  -16.5868   23.9102 C   0  0  1  0  0  0  0  0  0  0  0  0
    9.0329  -17.8761   24.3426 C   0  0  0  0  0  0  0  0  0  0  0  0
    8.3511  -19.0628   23.7885 C   0  0  0  0  0  0  0  0  0  0  0  0
    6.9651  -19.1259   23.6914 C   0  0  0  0  0  0  0  0  0  0  0  0
    6.6170  -20.3083   23.1560 N   0  0  0  0  0  0  0  0  0  0  0  0
    7.7649  -20.9550   22.9303 C   0  0  0  0  0  0  0  0  0  0  0  0
    8.8113  -20.2141   23.3073 N   0  0  0  0  0  0  0  0  0  0  0  0
    8.7985  -15.4580   24.7582 C   0  0  0  0  0  0  0  0  0  0  0  0
    9.9827  -15.1068   24.7677 O   0  0  0  0  0  0  0  0  0  0  0  0
    5.7798  -13.2263   26.9052 C   0  0  0  0  0  0  0  0  0  0  0  0
    7.0574  -12.6452   26.4011 C   0  0  1  0  0  0  0  0  0  0  0  0
    7.3752  -11.3917   27.1464 C   0  0  0  0  0  0  0  0  0  0  0  0
    8.1988  -13.6305   26.3806 C   0  0  2  0  0  0  0  0  0  0  0  0
    7.8371  -14.7704   25.5725 N   0  0  0  0  0  0  0  0  0  0  0  0
    8.6709  -13.9948   27.7206 C   0  0  0  0  0  0  0  0  0  0  0  0
    8.5310  -15.2865   28.1713 O   0  0  0  0  0  0  0  0  0  0  0  0
    9.2012  -13.1506   28.4662 O   0  0  0  0  0  0  0  0  0  0  0  0
  2  1  1  1
  2  3  1  0
  4  2  1  0
  5  6  1  6
  5  4  1  0
  7  5  1  0
  8  7  2  0
  9  7  1  0
 10  9  1  0
 11 12  1  0
 10 11  1  1
 12 16  1  0
 13 12  2  0
 13 14  1  0
 14 15  1  0
 16 15  2  0
 17 10  1  0
 17 18  2  0
 20 19  1  1
 20 22  1  0
 20 21  1  0
 22 23  1  1
 23 17  1  0
 24 22  1  0
 25 24  1  0
 26 24  2  0
M  END
$$$$
