LHV.pdb
     RDKit          3D

 26 26  0  0  1  0  0  0  0  0999 V2000
    7.1366  -12.6506   19.2174 C   0  0  0  0  0  0  0  0  0  0  0  0
    8.2802  -13.5003   19.6078 C   0  0  1  0  0  0  0  0  0  0  0  0
    9.5459  -12.6478   19.5526 C   0  0  0  0  0  0  0  0  0  0  0  0
    8.2054  -14.0874   20.9833 C   0  0  0  0  0  0  0  0  0  0  0  0
    9.4253  -14.8572   21.3859 C   0  0  2  0  0  0  0  0  0  0  0  0
    9.6355  -15.9079   20.4245 N   0  0  0  0  0  0  0  0  0  0  0  0
    9.1515  -15.4981   22.6987 C   0  0  0  0  0  0  0  0  0  0  0  0
    8.2931  -15.0405   23.5073 O   0  0  0  0  0  0  0  0  0  0  0  0
    9.8643  -16.6565   23.0711 N   0  0  0  0  0  0  0  0  0  0  0  0
    9.6852  -17.3169   24.3495 C   0  0  1  0  0  0  0  0  0  0  0  0
   10.1113  -18.7680   24.2422 C   0  0  0  0  0  0  0  0  0  0  0  0
    9.1870  -19.5511   23.3979 C   0  0  0  0  0  0  0  0  0  0  0  0
    8.0046  -19.0029   22.9121 C   0  0  0  0  0  0  0  0  0  0  0  0
    7.3619  -19.9279   22.1792 N   0  0  0  0  0  0  0  0  0  0  0  0
    8.1340  -21.0184   22.2153 C   0  0  0  0  0  0  0  0  0  0  0  0
    9.2322  -20.8009   22.9452 N   0  0  0  0  0  0  0  0  0  0  0  0
   10.5021  -16.6027   25.3527 C   0  0  0  0  0  0  0  0  0  0  0  0
   11.6354  -16.2048   25.0647 O   0  0  0  0  0  0  0  0  0  0  0  0
    9.9673  -13.4854   27.0069 C   0  0  0  0  0  0  0  0  0  0  0  0
   10.1145  -14.4602   28.1257 C   0  0  1  0  0  0  0  0  0  0  0  0
    8.8037  -14.6453   28.8150 C   0  0  0  0  0  0  0  0  0  0  0  0
   10.7565  -15.7598   27.7099 C   0  0  2  0  0  0  0  0  0  0  0  0
    9.9707  -16.3733   26.6661 N   0  0  0  0  0  0  0  0  0  0  0  0
   11.0256  -16.6576   28.8381 C   0  0  0  0  0  0  0  0  0  0  0  0
   11.9531  -16.3060   29.7906 O   0  0  0  0  0  0  0  0  0  0  0  0
   10.4259  -17.7425   28.9527 O   0  0  0  0  0  0  0  0  0  0  0  0
  2  1  1  1
  2  3  1  0
  4  2  1  0
  5  6  1  6
  5  4  1  0
  7  5  1  0
  8  7  2  0
  9  7  1  0
 10  9  1  0
 11 12  1  0
 10 11  1  6
 12 16  1  0
 13 12  2  0
 13 14  1  0
 14 15  1  0
 16 15  2  0
 17 10  1  0
 17 18  2  0
 20 19  1  6
 20 22  1  0
 20 21  1  0
 22 23  1  6
 23 17  1  0
 24 22  1  0
 25 24  1  0
 26 24  2  0
M  END
$$$$
