LHV.pdb
     RDKit          3D

 26 26  0  0  1  0  0  0  0  0999 V2000
    7.8268  -12.2576   18.6636 C   0  0  0  0  0  0  0  0  0  0  0  0
    8.1198  -13.6892   18.8809 C   0  0  1  0  0  0  0  0  0  0  0  0
    9.4151  -13.7925   19.6829 C   0  0  0  0  0  0  0  0  0  0  0  0
    7.0747  -14.4526   19.6338 C   0  0  0  0  0  0  0  0  0  0  0  0
    7.4796  -15.8484   19.9953 C   0  0  2  0  0  0  0  0  0  0  0  0
    6.7254  -16.7643   19.1802 N   0  0  0  0  0  0  0  0  0  0  0  0
    7.0951  -16.0862   21.4112 C   0  0  0  0  0  0  0  0  0  0  0  0
    5.8875  -16.1159   21.7868 O   0  0  0  0  0  0  0  0  0  0  0  0
    8.0982  -16.2876   22.3817 N   0  0  0  0  0  0  0  0  0  0  0  0
    7.8055  -16.6145   23.7637 C   0  0  1  0  0  0  0  0  0  0  0  0
    8.2379  -18.0378   24.0574 C   0  0  0  0  0  0  0  0  0  0  0  0
    8.0518  -18.3861   25.4802 C   0  0  0  0  0  0  0  0  0  0  0  0
    7.1216  -17.7246   26.2751 C   0  0  0  0  0  0  0  0  0  0  0  0
    7.1621  -18.2385   27.5161 N   0  0  0  0  0  0  0  0  0  0  0  0
    8.0965  -19.1937   27.4818 C   0  0  0  0  0  0  0  0  0  0  0  0
    8.6360  -19.2890   26.2627 N   0  0  0  0  0  0  0  0  0  0  0  0
    8.5308  -15.6572   24.6247 C   0  0  0  0  0  0  0  0  0  0  0  0
    9.7503  -15.5065   24.4997 O   0  0  0  0  0  0  0  0  0  0  0  0
    7.4873  -11.9590   25.4635 C   0  0  0  0  0  0  0  0  0  0  0  0
    7.6428  -12.7635   26.7095 C   0  0  1  0  0  0  0  0  0  0  0  0
    6.3035  -13.0385   27.3079 C   0  0  0  0  0  0  0  0  0  0  0  0
    8.4770  -14.0058   26.5224 C   0  0  2  0  0  0  0  0  0  0  0  0
    7.8092  -14.9018   25.6090 N   0  0  0  0  0  0  0  0  0  0  0  0
    8.8556  -14.6428   27.7882 C   0  0  0  0  0  0  0  0  0  0  0  0
    9.6815  -13.9847   28.6691 O   0  0  0  0  0  0  0  0  0  0  0  0
    8.4407  -15.7783   28.0849 O   0  0  0  0  0  0  0  0  0  0  0  0
  2  1  1  1
  2  3  1  0
  4  2  1  0
  5  6  1  6
  5  4  1  0
  7  5  1  0
  8  7  2  0
  9  7  1  0
 10  9  1  0
 11 12  1  0
 10 11  1  1
 12 16  1  0
 13 12  2  0
 13 14  1  0
 14 15  1  0
 16 15  2  0
 17 10  1  0
 17 18  2  0
 20 19  1  6
 20 22  1  0
 20 21  1  0
 22 23  1  6
 23 17  1  0
 24 22  1  0
 25 24  1  0
 26 24  2  0
M  END
$$$$
