LHV.pdb
     RDKit          3D

 26 26  0  0  1  0  0  0  0  0999 V2000
    6.5583  -13.3948   19.6243 C   0  0  0  0  0  0  0  0  0  0  0  0
    7.9923  -13.2150   19.3184 C   0  0  1  0  0  0  0  0  0  0  0  0
    8.3138  -11.7249   19.4074 C   0  0  0  0  0  0  0  0  0  0  0  0
    8.9396  -13.9246   20.2356 C   0  0  0  0  0  0  0  0  0  0  0  0
    8.8352  -15.4177   20.1853 C   0  0  2  0  0  0  0  0  0  0  0  0
    7.6247  -15.7638   19.4875 N   0  0  0  0  0  0  0  0  0  0  0  0
    8.7080  -15.9166   21.5796 C   0  0  0  0  0  0  0  0  0  0  0  0
    7.6060  -15.9106   22.2007 O   0  0  0  0  0  0  0  0  0  0  0  0
    9.8447  -16.4170   22.2475 N   0  0  0  0  0  0  0  0  0  0  0  0
    9.7935  -16.9707   23.5866 C   0  0  1  0  0  0  0  0  0  0  0  0
   10.9132  -17.9766   23.7696 C   0  0  0  0  0  0  0  0  0  0  0  0
   10.6677  -19.2169   23.0071 C   0  0  0  0  0  0  0  0  0  0  0  0
    9.3789  -19.6878   22.7798 C   0  0  0  0  0  0  0  0  0  0  0  0
    9.4474  -20.8242   22.0659 N   0  0  0  0  0  0  0  0  0  0  0  0
   10.7497  -21.0443   21.8606 C   0  0  0  0  0  0  0  0  0  0  0  0
   11.4898  -20.0838   22.4226 N   0  0  0  0  0  0  0  0  0  0  0  0
    9.9261  -15.8568   24.5486 C   0  0  0  0  0  0  0  0  0  0  0  0
   10.2444  -14.7295   24.1568 O   0  0  0  0  0  0  0  0  0  0  0  0
    7.1701  -14.7354   26.4898 C   0  0  0  0  0  0  0  0  0  0  0  0
    8.5058  -14.0740   26.5379 C   0  0  1  0  0  0  0  0  0  0  0  0
    8.4439  -12.8655   27.4115 C   0  0  0  0  0  0  0  0  0  0  0  0
    9.6286  -15.0130   26.9004 C   0  0  2  0  0  0  0  0  0  0  0  0
    9.6826  -16.0921   25.9434 N   0  0  0  0  0  0  0  0  0  0  0  0
    9.5695  -15.4733   28.2918 C   0  0  0  0  0  0  0  0  0  0  0  0
    9.9636  -14.6370   29.3100 O   0  0  0  0  0  0  0  0  0  0  0  0
    9.1661  -16.6168   28.5734 O   0  0  0  0  0  0  0  0  0  0  0  0
  2  1  1  1
  2  3  1  0
  4  2  1  0
  5  6  1  6
  5  4  1  0
  7  5  1  0
  8  7  2  0
  9  7  1  0
 10  9  1  0
 11 12  1  0
 10 11  1  6
 12 16  1  0
 13 12  2  0
 13 14  1  0
 14 15  1  0
 16 15  2  0
 17 10  1  0
 17 18  2  0
 20 19  1  1
 20 22  1  0
 20 21  1  0
 22 23  1  6
 23 17  1  0
 24 22  1  0
 25 24  1  0
 26 24  2  0
M  END
$$$$
