LHV.pdb
     RDKit          3D

 26 26  0  0  1  0  0  0  0  0999 V2000
    7.4395  -12.0035   19.0646 C   0  0  0  0  0  0  0  0  0  0  0  0
    8.1478  -13.2998   19.0814 C   0  0  1  0  0  0  0  0  0  0  0  0
    9.6409  -13.0274   18.9130 C   0  0  0  0  0  0  0  0  0  0  0  0
    7.9864  -14.1049   20.3336 C   0  0  0  0  0  0  0  0  0  0  0  0
    8.7779  -15.3762   20.3485 C   0  0  2  0  0  0  0  0  0  0  0  0
    8.1989  -16.2814   19.3906 N   0  0  0  0  0  0  0  0  0  0  0  0
    8.6323  -15.9923   21.6933 C   0  0  0  0  0  0  0  0  0  0  0  0
    7.5109  -16.3578   22.1504 O   0  0  0  0  0  0  0  0  0  0  0  0
    9.7731  -16.1830   22.5000 N   0  0  0  0  0  0  0  0  0  0  0  0
    9.7206  -16.8108   23.8060 C   0  0  1  0  0  0  0  0  0  0  0  0
   10.8075  -17.8624   23.9144 C   0  0  0  0  0  0  0  0  0  0  0  0
   10.5033  -19.0534   23.0964 C   0  0  0  0  0  0  0  0  0  0  0  0
    9.4621  -19.9149   23.4252 C   0  0  0  0  0  0  0  0  0  0  0  0
    9.4107  -20.9056   22.5188 N   0  0  0  0  0  0  0  0  0  0  0  0
   10.3988  -20.6561   21.6539 C   0  0  0  0  0  0  0  0  0  0  0  0
   11.0601  -19.5455   21.9933 N   0  0  0  0  0  0  0  0  0  0  0  0
    9.9039  -15.7591   24.8278 C   0  0  0  0  0  0  0  0  0  0  0  0
   10.9355  -15.0801   24.8454 O   0  0  0  0  0  0  0  0  0  0  0  0
    7.7104  -12.6218   27.8770 C   0  0  0  0  0  0  0  0  0  0  0  0
    7.6932  -13.7194   26.8677 C   0  0  1  0  0  0  0  0  0  0  0  0
    7.2549  -13.1867   25.5442 C   0  0  0  0  0  0  0  0  0  0  0  0
    8.9860  -14.4927   26.7989 C   0  0  2  0  0  0  0  0  0  0  0  0
    8.8747  -15.5302   25.8018 N   0  0  0  0  0  0  0  0  0  0  0  0
    9.4324  -14.9882   28.1053 C   0  0  0  0  0  0  0  0  0  0  0  0
   10.0495  -14.1352   28.9900 O   0  0  0  0  0  0  0  0  0  0  0  0
    9.2625  -16.1770   28.4334 O   0  0  0  0  0  0  0  0  0  0  0  0
  2  1  1  1
  2  3  1  0
  4  2  1  0
  5  6  1  6
  5  4  1  0
  7  5  1  0
  8  7  2  0
  9  7  1  0
 10  9  1  0
 11 12  1  0
 10 11  1  6
 12 16  1  0
 13 12  2  0
 13 14  1  0
 14 15  1  0
 16 15  2  0
 17 10  1  0
 17 18  2  0
 20 19  1  1
 20 22  1  0
 20 21  1  0
 22 23  1  6
 23 17  1  0
 24 22  1  0
 25 24  1  0
 26 24  2  0
M  END
$$$$
