LHV.pdb
     RDKit          3D

 26 26  0  0  1  0  0  0  0  0999 V2000
    7.7070  -11.9163   18.8995 C   0  0  0  0  0  0  0  0  0  0  0  0
    8.3737  -13.2327   18.9694 C   0  0  1  0  0  0  0  0  0  0  0  0
    9.8692  -12.9977   19.1693 C   0  0  0  0  0  0  0  0  0  0  0  0
    7.9170  -14.1269   20.0803 C   0  0  0  0  0  0  0  0  0  0  0  0
    8.6911  -15.4039   20.1939 C   0  0  2  0  0  0  0  0  0  0  0  0
    8.1213  -16.3615   19.2826 N   0  0  0  0  0  0  0  0  0  0  0  0
    8.5082  -15.9311   21.5715 C   0  0  0  0  0  0  0  0  0  0  0  0
    7.3742  -16.2662   22.0209 O   0  0  0  0  0  0  0  0  0  0  0  0
    9.6264  -16.0687   22.4196 N   0  0  0  0  0  0  0  0  0  0  0  0
    9.5419  -16.6339   23.7522 C   0  0  1  0  0  0  0  0  0  0  0  0
   10.7091  -17.5727   23.9869 C   0  0  0  0  0  0  0  0  0  0  0  0
   10.5281  -18.8602   23.2870 C   0  0  0  0  0  0  0  0  0  0  0  0
    9.3868  -19.6335   23.4707 C   0  0  0  0  0  0  0  0  0  0  0  0
    9.4842  -20.7433   22.7192 N   0  0  0  0  0  0  0  0  0  0  0  0
   10.6595  -20.6513   22.0891 C   0  0  0  0  0  0  0  0  0  0  0  0
   11.2930  -19.5234   22.4245 N   0  0  0  0  0  0  0  0  0  0  0  0
    9.5597  -15.5208   24.7241 C   0  0  0  0  0  0  0  0  0  0  0  0
   10.5117  -14.7344   24.7537 O   0  0  0  0  0  0  0  0  0  0  0  0
    6.8373  -12.5540   27.5348 C   0  0  0  0  0  0  0  0  0  0  0  0
    7.0263  -13.6435   26.5343 C   0  0  1  0  0  0  0  0  0  0  0  0
    6.6286  -13.1635   25.1782 C   0  0  0  0  0  0  0  0  0  0  0  0
    8.4031  -14.2577   26.5675 C   0  0  2  0  0  0  0  0  0  0  0  0
    8.4628  -15.3580   25.6354 N   0  0  0  0  0  0  0  0  0  0  0  0
    8.8419  -14.6179   27.9199 C   0  0  0  0  0  0  0  0  0  0  0  0
    9.0961  -15.9326   28.2330 O   0  0  0  0  0  0  0  0  0  0  0  0
    8.9906  -13.7495   28.7994 O   0  0  0  0  0  0  0  0  0  0  0  0
  2  1  1  1
  2  3  1  0
  4  2  1  0
  5  6  1  6
  5  4  1  0
  7  5  1  0
  8  7  2  0
  9  7  1  0
 10  9  1  0
 11 12  1  0
 10 11  1  1
 12 16  1  0
 13 12  2  0
 13 14  1  0
 14 15  1  0
 16 15  2  0
 17 10  1  0
 17 18  2  0
 20 19  1  1
 20 22  1  0
 20 21  1  0
 22 23  1  6
 23 17  1  0
 24 22  1  0
 25 24  1  0
 26 24  2  0
M  END
$$$$
