LHV.pdb
     RDKit          3D

 26 26  0  0  1  0  0  0  0  0999 V2000
    9.8603  -12.6186   19.8674 C   0  0  0  0  0  0  0  0  0  0  0  0
    8.4993  -13.1900   19.9259 C   0  0  1  0  0  0  0  0  0  0  0  0
    7.5181  -12.1319   19.4267 C   0  0  0  0  0  0  0  0  0  0  0  0
    8.2809  -14.4178   19.0970 C   0  0  0  0  0  0  0  0  0  0  0  0
    8.9751  -15.6381   19.6185 C   0  0  2  0  0  0  0  0  0  0  0  0
    8.6624  -16.7428   18.7501 N   0  0  0  0  0  0  0  0  0  0  0  0
    8.4138  -15.9483   20.9594 C   0  0  0  0  0  0  0  0  0  0  0  0
    7.1702  -16.0620   21.1607 O   0  0  0  0  0  0  0  0  0  0  0  0
    9.2835  -16.1247   22.0553 N   0  0  0  0  0  0  0  0  0  0  0  0
    8.8230  -16.5144   23.3739 C   0  0  1  0  0  0  0  0  0  0  0  0
    9.5567  -17.7618   23.8263 C   0  0  0  0  0  0  0  0  0  0  0  0
    8.9705  -18.9856   23.2443 C   0  0  0  0  0  0  0  0  0  0  0  0
    7.8806  -18.9308   22.3820 C   0  0  0  0  0  0  0  0  0  0  0  0
    7.5563  -20.1796   22.0062 N   0  0  0  0  0  0  0  0  0  0  0  0
    8.4286  -20.9815   22.6249 C   0  0  0  0  0  0  0  0  0  0  0  0
    9.2816  -20.2726   23.3706 N   0  0  0  0  0  0  0  0  0  0  0  0
    9.0781  -15.3907   24.2991 C   0  0  0  0  0  0  0  0  0  0  0  0
   10.2067  -14.8958   24.3824 O   0  0  0  0  0  0  0  0  0  0  0  0
    5.7772  -13.8308   26.6672 C   0  0  0  0  0  0  0  0  0  0  0  0
    6.9375  -13.0168   26.2034 C   0  0  1  0  0  0  0  0  0  0  0  0
    7.0937  -11.8128   27.0715 C   0  0  0  0  0  0  0  0  0  0  0  0
    8.2096  -13.8130   26.0565 C   0  0  2  0  0  0  0  0  0  0  0  0
    8.0053  -14.8763   25.1021 N   0  0  0  0  0  0  0  0  0  0  0  0
    8.7503  -14.2788   27.3379 C   0  0  0  0  0  0  0  0  0  0  0  0
    9.3338  -13.3840   28.2039 O   0  0  0  0  0  0  0  0  0  0  0  0
    8.6915  -15.4795   27.6613 O   0  0  0  0  0  0  0  0  0  0  0  0
  2  1  1  6
  2  3  1  0
  4  2  1  0
  5  6  1  6
  5  4  1  0
  7  5  1  0
  8  7  2  0
  9  7  1  0
 10  9  1  0
 11 12  1  0
 10 11  1  1
 12 16  1  0
 13 12  2  0
 13 14  1  0
 14 15  1  0
 16 15  2  0
 17 10  1  0
 17 18  2  0
 20 19  1  1
 20 22  1  0
 20 21  1  0
 22 23  1  6
 23 17  1  0
 24 22  1  0
 25 24  1  0
 26 24  2  0
M  END
$$$$
