LHV.pdb
     RDKit          3D

 26 26  0  0  1  0  0  0  0  0999 V2000
    7.2756  -11.9416   19.0873 C   0  0  0  0  0  0  0  0  0  0  0  0
    8.0845  -13.1715   19.2109 C   0  0  1  0  0  0  0  0  0  0  0  0
    9.5256  -12.7642   19.5090 C   0  0  0  0  0  0  0  0  0  0  0  0
    7.6610  -14.1139   20.2947 C   0  0  0  0  0  0  0  0  0  0  0  0
    8.5712  -15.2899   20.4717 C   0  0  2  0  0  0  0  0  0  0  0  0
    8.1831  -16.3086   19.5317 N   0  0  0  0  0  0  0  0  0  0  0  0
    8.3574  -15.8348   21.8380 C   0  0  0  0  0  0  0  0  0  0  0  0
    7.2116  -16.1620   22.2625 O   0  0  0  0  0  0  0  0  0  0  0  0
    9.4588  -15.9989   22.7033 N   0  0  0  0  0  0  0  0  0  0  0  0
    9.3346  -16.5280   24.0476 C   0  0  1  0  0  0  0  0  0  0  0  0
   10.3088  -17.6737   24.2406 C   0  0  0  0  0  0  0  0  0  0  0  0
    9.8997  -18.8757   23.4869 C   0  0  0  0  0  0  0  0  0  0  0  0
    8.5626  -19.2403   23.3695 C   0  0  0  0  0  0  0  0  0  0  0  0
    8.4779  -20.3641   22.6375 N   0  0  0  0  0  0  0  0  0  0  0  0
    9.7356  -20.6806   22.3139 C   0  0  0  0  0  0  0  0  0  0  0  0
   10.5959  -19.7919   22.8200 N   0  0  0  0  0  0  0  0  0  0  0  0
    9.6168  -15.4330   24.9990 C   0  0  0  0  0  0  0  0  0  0  0  0
   10.7266  -14.8910   25.0141 O   0  0  0  0  0  0  0  0  0  0  0  0
    7.5728  -12.2821   25.6432 C   0  0  0  0  0  0  0  0  0  0  0  0
    7.7327  -13.0005   26.9402 C   0  0  1  0  0  0  0  0  0  0  0  0
    6.4218  -13.5685   27.3720 C   0  0  0  0  0  0  0  0  0  0  0  0
    8.8469  -14.0166   26.9310 C   0  0  2  0  0  0  0  0  0  0  0  0
    8.5925  -15.0017   25.9073 N   0  0  0  0  0  0  0  0  0  0  0  0
    9.1040  -14.6032   28.2504 C   0  0  0  0  0  0  0  0  0  0  0  0
    9.5898  -13.8177   29.2694 O   0  0  0  0  0  0  0  0  0  0  0  0
    8.8895  -15.8097   28.4696 O   0  0  0  0  0  0  0  0  0  0  0  0
  2  1  1  1
  2  3  1  0
  4  2  1  0
  5  6  1  6
  5  4  1  0
  7  5  1  0
  8  7  2  0
  9  7  1  0
 10  9  1  0
 11 12  1  0
 10 11  1  6
 12 16  1  0
 13 12  2  0
 13 14  1  0
 14 15  1  0
 16 15  2  0
 17 10  1  0
 17 18  2  0
 20 19  1  6
 20 22  1  0
 20 21  1  0
 22 23  1  6
 23 17  1  0
 24 22  1  0
 25 24  1  0
 26 24  2  0
M  END
$$$$
