KYV.pdb
     RDKit          3D

 29 29  0  0  1  0  0  0  0  0999 V2000
    9.7924  -18.1142   20.2649 N   0  0  0  0  0  0  0  0  0  0  0  0
   10.9722  -17.5030   20.7954 C   0  0  1  0  0  0  0  0  0  0  0  0
   11.7620  -16.8836   19.6692 C   0  0  0  0  0  0  0  0  0  0  0  0
   12.0598  -17.9153   18.6087 C   0  0  0  0  0  0  0  0  0  0  0  0
   13.3931  -17.7323   17.9577 C   0  0  0  0  0  0  0  0  0  0  0  0
   13.6441  -18.7777   16.8843 C   0  0  0  0  0  0  0  0  0  0  0  0
   14.9205  -18.6243   16.2454 N   0  0  0  0  0  0  0  0  0  0  0  0
   10.6012  -16.5042   21.8267 C   0  0  0  0  0  0  0  0  0  0  0  0
   11.3610  -15.5386   22.0451 O   0  0  0  0  0  0  0  0  0  0  0  0
    5.8146  -11.5887   27.3322 O   0  0  0  0  0  0  0  0  0  0  0  0
    6.2274  -12.5441   26.4183 C   0  0  0  0  0  0  0  0  0  0  0  0
    6.8665  -12.1809   25.2530 C   0  0  0  0  0  0  0  0  0  0  0  0
    7.2701  -13.1483   24.3550 C   0  0  0  0  0  0  0  0  0  0  0  0
    7.0649  -14.4919   24.5627 C   0  0  0  0  0  0  0  0  0  0  0  0
    7.5102  -15.5064   23.5791 C   0  0  0  0  0  0  0  0  0  0  0  0
    9.0216  -15.6841   23.6190 C   0  0  2  0  0  0  0  0  0  0  0  0
    9.3991  -16.6019   22.5879 N   0  0  0  0  0  0  0  0  0  0  0  0
    9.4633  -16.1357   24.9690 C   0  0  0  0  0  0  0  0  0  0  0  0
    9.7420  -17.3493   25.2051 O   0  0  0  0  0  0  0  0  0  0  0  0
    6.4167  -14.8519   25.7457 C   0  0  0  0  0  0  0  0  0  0  0  0
    6.0060  -13.8992   26.6552 C   0  0  0  0  0  0  0  0  0  0  0  0
   10.7412  -13.2210   27.8643 C   0  0  0  0  0  0  0  0  0  0  0  0
   10.1231  -14.5326   28.3537 C   0  0  2  0  0  0  0  0  0  0  0  0
   10.9390  -14.9568   29.5533 C   0  0  0  0  0  0  0  0  0  0  0  0
   10.2159  -15.6062   27.3144 C   0  0  2  0  0  0  0  0  0  0  0  0
    9.5975  -15.2390   26.0641 N   0  0  0  0  0  0  0  0  0  0  0  0
    9.5676  -16.8255   27.8508 C   0  0  0  0  0  0  0  0  0  0  0  0
    8.3316  -16.9674   27.6856 O   0  0  0  0  0  0  0  0  0  0  0  0
   10.2546  -17.8182   28.5256 O   0  0  0  0  0  0  0  0  0  0  0  0
  2  1  1  6
  3  2  1  0
  4  3  1  0
  5  4  1  0
  6  5  1  0
  7  6  1  0
  8  9  2  0
  8  2  1  0
 10 11  1  0
 11 12  2  0
 12 13  1  0
 14 13  2  0
 14 15  1  0
 16 15  1  1
 16 17  1  0
 17  8  1  0
 18 26  1  0
 18 16  1  0
 19 18  2  0
 20 14  1  0
 21 11  1  0
 21 20  2  0
 23 22  1  6
 23 25  1  0
 23 24  1  0
 25 27  1  0
 25 26  1  6
 27 29  1  0
 28 27  2  0
M  END
$$$$
