KYV.pdb
     RDKit          3D

 29 29  0  0  1  0  0  0  0  0999 V2000
    8.4093  -17.8948   19.6876 N   0  0  0  0  0  0  0  0  0  0  0  0
    9.7710  -17.6494   20.0511 C   0  0  1  0  0  0  0  0  0  0  0  0
   10.5048  -17.0654   18.8695 C   0  0  0  0  0  0  0  0  0  0  0  0
   10.7182  -18.1204   17.8116 C   0  0  0  0  0  0  0  0  0  0  0  0
   12.1581  -18.3491   17.4808 C   0  0  0  0  0  0  0  0  0  0  0  0
   12.3250  -19.3675   16.3658 C   0  0  0  0  0  0  0  0  0  0  0  0
   13.7013  -19.6555   16.0764 N   0  0  0  0  0  0  0  0  0  0  0  0
    9.8230  -16.7550   21.2327 C   0  0  0  0  0  0  0  0  0  0  0  0
   10.9307  -16.4364   21.7111 O   0  0  0  0  0  0  0  0  0  0  0  0
    7.0860  -11.4292   27.7682 O   0  0  0  0  0  0  0  0  0  0  0  0
    7.1571  -12.2022   26.6212 C   0  0  0  0  0  0  0  0  0  0  0  0
    6.5790  -13.4519   26.5716 C   0  0  0  0  0  0  0  0  0  0  0  0
    6.6609  -14.2066   25.4188 C   0  0  0  0  0  0  0  0  0  0  0  0
    7.3047  -13.7703   24.2850 C   0  0  0  0  0  0  0  0  0  0  0  0
    7.3752  -14.6046   23.0627 C   0  0  0  0  0  0  0  0  0  0  0  0
    8.6466  -15.4416   23.0414 C   0  0  2  0  0  0  0  0  0  0  0  0
    8.6471  -16.2379   21.8523 N   0  0  0  0  0  0  0  0  0  0  0  0
    8.7536  -16.2684   24.2769 C   0  0  0  0  0  0  0  0  0  0  0  0
    7.8807  -17.1389   24.5711 O   0  0  0  0  0  0  0  0  0  0  0  0
    7.8878  -12.5031   24.3431 C   0  0  0  0  0  0  0  0  0  0  0  0
    7.8163  -11.7342   25.4864 C   0  0  0  0  0  0  0  0  0  0  0  0
   11.9124  -18.7902   26.9408 C   0  0  0  0  0  0  0  0  0  0  0  0
   11.5372  -17.7577   25.8753 C   0  0  2  0  0  0  0  0  0  0  0  0
   12.5805  -16.6677   25.9642 C   0  0  0  0  0  0  0  0  0  0  0  0
   10.1951  -17.1516   26.1450 C   0  0  2  0  0  0  0  0  0  0  0  0
    9.8328  -16.1311   25.1922 N   0  0  0  0  0  0  0  0  0  0  0  0
   10.2150  -16.5739   27.5091 C   0  0  0  0  0  0  0  0  0  0  0  0
   10.3734  -15.3349   27.6315 O   0  0  0  0  0  0  0  0  0  0  0  0
   10.0676  -17.3302   28.6576 O   0  0  0  0  0  0  0  0  0  0  0  0
  2  1  1  6
  3  2  1  0
  4  3  1  0
  5  4  1  0
  6  5  1  0
  7  6  1  0
  8  9  2  0
  8  2  1  0
 10 11  1  0
 11 12  2  0
 12 13  1  0
 14 13  2  0
 14 15  1  0
 16 15  1  1
 16 17  1  0
 17  8  1  0
 18 26  1  0
 18 16  1  0
 19 18  2  0
 20 14  1  0
 21 11  1  0
 21 20  2  0
 23 22  1  1
 23 25  1  0
 23 24  1  0
 25 27  1  0
 25 26  1  6
 27 29  1  0
 28 27  2  0
M  END
$$$$
