KYV.pdb
     RDKit          3D

 29 29  0  0  1  0  0  0  0  0999 V2000
    8.0761  -16.8309   20.5079 N   0  0  0  0  0  0  0  0  0  0  0  0
    7.5968  -15.6688   21.1908 C   0  0  1  0  0  0  0  0  0  0  0  0
    6.2893  -15.2337   20.5767 C   0  0  0  0  0  0  0  0  0  0  0  0
    6.4565  -15.0071   19.0940 C   0  0  0  0  0  0  0  0  0  0  0  0
    7.4883  -13.9777   18.7616 C   0  0  0  0  0  0  0  0  0  0  0  0
    7.6254  -13.7814   17.2613 C   0  0  0  0  0  0  0  0  0  0  0  0
    8.7034  -12.9005   16.9113 N   0  0  0  0  0  0  0  0  0  0  0  0
    7.4601  -15.9567   22.6389 C   0  0  0  0  0  0  0  0  0  0  0  0
    6.7783  -15.1936   23.3532 O   0  0  0  0  0  0  0  0  0  0  0  0
    4.0565  -21.9428   22.2946 O   0  0  0  0  0  0  0  0  0  0  0  0
    5.0595  -21.2070   22.9034 C   0  0  0  0  0  0  0  0  0  0  0  0
    6.2326  -20.9222   22.2393 C   0  0  0  0  0  0  0  0  0  0  0  0
    7.2202  -20.1874   22.8637 C   0  0  0  0  0  0  0  0  0  0  0  0
    7.0967  -19.7096   24.1470 C   0  0  0  0  0  0  0  0  0  0  0  0
    8.1754  -18.9233   24.7897 C   0  0  0  0  0  0  0  0  0  0  0  0
    7.9315  -17.4284   24.6369 C   0  0  2  0  0  0  0  0  0  0  0  0
    8.0820  -17.0818   23.2566 N   0  0  0  0  0  0  0  0  0  0  0  0
    8.8483  -16.6523   25.5193 C   0  0  0  0  0  0  0  0  0  0  0  0
   10.0962  -16.6056   25.3034 O   0  0  0  0  0  0  0  0  0  0  0  0
    5.9053  -20.0022   24.8133 C   0  0  0  0  0  0  0  0  0  0  0  0
    4.9069  -20.7353   24.2056 C   0  0  0  0  0  0  0  0  0  0  0  0
    8.0170  -12.9728   26.9680 C   0  0  0  0  0  0  0  0  0  0  0  0
    8.5308  -13.9200   28.0547 C   0  0  2  0  0  0  0  0  0  0  0  0
    9.5258  -13.1233   28.8668 C   0  0  0  0  0  0  0  0  0  0  0  0
    9.2378  -15.1010   27.4659 C   0  0  2  0  0  0  0  0  0  0  0  0
    8.3813  -15.9235   26.6471 N   0  0  0  0  0  0  0  0  0  0  0  0
    9.7897  -15.9101   28.5775 C   0  0  0  0  0  0  0  0  0  0  0  0
    9.0999  -16.8570   29.0276 O   0  0  0  0  0  0  0  0  0  0  0  0
   11.0284  -15.6762   29.1466 O   0  0  0  0  0  0  0  0  0  0  0  0
  2  1  1  6
  3  2  1  0
  4  3  1  0
  5  4  1  0
  6  5  1  0
  7  6  1  0
  8  9  2  0
  8  2  1  0
 10 11  1  0
 11 12  2  0
 12 13  1  0
 14 13  2  0
 14 15  1  0
 16 15  1  6
 16 17  1  0
 17  8  1  0
 18 26  1  0
 18 16  1  0
 19 18  2  0
 20 14  1  0
 21 11  1  0
 21 20  2  0
 23 22  1  6
 23 25  1  0
 23 24  1  0
 25 27  1  0
 25 26  1  1
 27 29  1  0
 28 27  2  0
M  END
$$$$
