KYV.pdb
     RDKit          3D

 29 29  0  0  1  0  0  0  0  0999 V2000
    9.6664  -18.6173   20.5906 N   0  0  0  0  0  0  0  0  0  0  0  0
   10.8207  -17.7922   20.7740 C   0  0  1  0  0  0  0  0  0  0  0  0
   11.1627  -17.1167   19.4692 C   0  0  0  0  0  0  0  0  0  0  0  0
   11.1867  -18.1258   18.3472 C   0  0  0  0  0  0  0  0  0  0  0  0
   11.6377  -17.5540   17.0417 C   0  0  0  0  0  0  0  0  0  0  0  0
   11.5804  -18.5835   15.9259 C   0  0  0  0  0  0  0  0  0  0  0  0
   12.1193  -18.0941   14.6886 N   0  0  0  0  0  0  0  0  0  0  0  0
   10.5706  -16.8108   21.8571 C   0  0  0  0  0  0  0  0  0  0  0  0
   11.4767  -16.0184   22.1864 O   0  0  0  0  0  0  0  0  0  0  0  0
    5.9983  -11.4076   27.1379 O   0  0  0  0  0  0  0  0  0  0  0  0
    6.3626  -12.4091   26.2532 C   0  0  0  0  0  0  0  0  0  0  0  0
    7.0280  -12.1141   25.0834 C   0  0  0  0  0  0  0  0  0  0  0  0
    7.3822  -13.1267   24.2149 C   0  0  0  0  0  0  0  0  0  0  0  0
    7.1011  -14.4506   24.4573 C   0  0  0  0  0  0  0  0  0  0  0  0
    7.4950  -15.5148   23.5048 C   0  0  0  0  0  0  0  0  0  0  0  0
    9.0014  -15.7340   23.5179 C   0  0  2  0  0  0  0  0  0  0  0  0
    9.3241  -16.7335   22.5458 N   0  0  0  0  0  0  0  0  0  0  0  0
    9.4682  -16.1017   24.8848 C   0  0  0  0  0  0  0  0  0  0  0  0
    9.4659  -17.3037   25.2865 O   0  0  0  0  0  0  0  0  0  0  0  0
    6.4268  -14.7414   25.6446 C   0  0  0  0  0  0  0  0  0  0  0  0
    6.0645  -13.7428   26.5250 C   0  0  0  0  0  0  0  0  0  0  0  0
   11.5490  -14.7007   29.2304 C   0  0  0  0  0  0  0  0  0  0  0  0
   10.8771  -14.2916   27.9178 C   0  0  2  0  0  0  0  0  0  0  0  0
    9.5610  -13.6559   28.3027 C   0  0  0  0  0  0  0  0  0  0  0  0
   10.5938  -15.4791   27.0512 C   0  0  2  0  0  0  0  0  0  0  0  0
    9.9404  -15.1334   25.8126 N   0  0  0  0  0  0  0  0  0  0  0  0
    9.7417  -16.4176   27.8180 C   0  0  0  0  0  0  0  0  0  0  0  0
    8.4955  -16.3262   27.7003 O   0  0  0  0  0  0  0  0  0  0  0  0
   10.2487  -17.3916   28.6589 O   0  0  0  0  0  0  0  0  0  0  0  0
  2  1  1  6
  3  2  1  0
  4  3  1  0
  5  4  1  0
  6  5  1  0
  7  6  1  0
  8  9  2  0
  8  2  1  0
 10 11  1  0
 11 12  2  0
 12 13  1  0
 14 13  2  0
 14 15  1  0
 16 15  1  1
 16 17  1  0
 17  8  1  0
 18 26  1  0
 18 16  1  0
 19 18  2  0
 20 14  1  0
 21 11  1  0
 21 20  2  0
 23 22  1  1
 23 25  1  0
 23 24  1  0
 25 27  1  0
 25 26  1  6
 27 29  1  0
 28 27  2  0
M  END
$$$$
