KYV.pdb
     RDKit          3D

 29 29  0  0  1  0  0  0  0  0999 V2000
    4.1846  -20.8002   23.1444 N   0  0  0  0  0  0  0  0  0  0  0  0
    5.5259  -20.3196   23.0157 C   0  0  1  0  0  0  0  0  0  0  0  0
    6.0383  -20.6365   21.6327 C   0  0  0  0  0  0  0  0  0  0  0  0
    6.9805  -21.8145   21.6801 C   0  0  0  0  0  0  0  0  0  0  0  0
    7.5499  -22.1756   20.3459 C   0  0  0  0  0  0  0  0  0  0  0  0
    8.5223  -23.3387   20.4445 C   0  0  0  0  0  0  0  0  0  0  0  0
    9.2099  -23.5956   19.2108 N   0  0  0  0  0  0  0  0  0  0  0  0
    5.5690  -18.8654   23.3028 C   0  0  0  0  0  0  0  0  0  0  0  0
    4.6648  -18.1272   22.8617 O   0  0  0  0  0  0  0  0  0  0  0  0
    7.1326  -11.1005   27.0286 O   0  0  0  0  0  0  0  0  0  0  0  0
    7.1524  -12.4479   26.7089 C   0  0  0  0  0  0  0  0  0  0  0  0
    5.9946  -13.1947   26.7137 C   0  0  0  0  0  0  0  0  0  0  0  0
    6.0355  -14.5364   26.3921 C   0  0  0  0  0  0  0  0  0  0  0  0
    7.1986  -15.1888   26.0576 C   0  0  0  0  0  0  0  0  0  0  0  0
    7.2096  -16.6306   25.7171 C   0  0  0  0  0  0  0  0  0  0  0  0
    6.7509  -16.8602   24.2837 C   0  0  2  0  0  0  0  0  0  0  0  0
    6.6123  -18.2685   24.0705 N   0  0  0  0  0  0  0  0  0  0  0  0
    7.6990  -16.2320   23.3204 C   0  0  0  0  0  0  0  0  0  0  0  0
    8.8003  -16.7816   23.0183 O   0  0  0  0  0  0  0  0  0  0  0  0
    8.3675  -14.4254   26.0550 C   0  0  0  0  0  0  0  0  0  0  0  0
    8.3464  -13.0832   26.3737 C   0  0  0  0  0  0  0  0  0  0  0  0
    6.2190  -13.1985   20.6610 C   0  0  0  0  0  0  0  0  0  0  0  0
    7.6942  -13.1666   21.0667 C   0  0  2  0  0  0  0  0  0  0  0  0
    8.4638  -12.8096   19.8157 C   0  0  0  0  0  0  0  0  0  0  0  0
    8.1626  -14.5058   21.5447 C   0  0  2  0  0  0  0  0  0  0  0  0
    7.4267  -14.9883   22.6876 N   0  0  0  0  0  0  0  0  0  0  0  0
    9.5996  -14.3968   21.8881 C   0  0  0  0  0  0  0  0  0  0  0  0
    9.9129  -14.1514   23.0784 O   0  0  0  0  0  0  0  0  0  0  0  0
   10.6165  -14.5520   20.9636 O   0  0  0  0  0  0  0  0  0  0  0  0
  2  1  1  6
  3  2  1  0
  4  3  1  0
  5  4  1  0
  6  5  1  0
  7  6  1  0
  8  9  2  0
  8  2  1  0
 10 11  1  0
 11 12  2  0
 12 13  1  0
 14 13  2  0
 14 15  1  0
 16 15  1  1
 16 17  1  0
 17  8  1  0
 18 26  1  0
 18 16  1  0
 19 18  2  0
 20 14  1  0
 21 11  1  0
 21 20  2  0
 23 22  1  6
 23 25  1  0
 23 24  1  0
 25 27  1  0
 25 26  1  1
 27 29  1  0
 28 27  2  0
M  END
$$$$
