KYV.pdb
     RDKit          3D

 29 29  0  0  1  0  0  0  0  0999 V2000
    6.7302  -18.0152   20.6302 N   0  0  0  0  0  0  0  0  0  0  0  0
    7.3571  -16.7959   21.0387 C   0  0  1  0  0  0  0  0  0  0  0  0
    6.5622  -15.6264   20.5131 C   0  0  0  0  0  0  0  0  0  0  0  0
    7.2351  -15.0401   19.2960 C   0  0  0  0  0  0  0  0  0  0  0  0
    7.7195  -13.6406   19.4998 C   0  0  0  0  0  0  0  0  0  0  0  0
    8.1640  -13.0027   18.1945 C   0  0  0  0  0  0  0  0  0  0  0  0
    8.4936  -11.6129   18.3380 N   0  0  0  0  0  0  0  0  0  0  0  0
    7.4793  -16.7634   22.5161 C   0  0  0  0  0  0  0  0  0  0  0  0
    6.4544  -16.8826   23.2180 O   0  0  0  0  0  0  0  0  0  0  0  0
   11.0030  -16.0614   30.5999 O   0  0  0  0  0  0  0  0  0  0  0  0
   10.8112  -16.2681   29.2439 C   0  0  0  0  0  0  0  0  0  0  0  0
   11.2366  -15.3404   28.3183 C   0  0  0  0  0  0  0  0  0  0  0  0
   11.0360  -15.5652   26.9713 C   0  0  0  0  0  0  0  0  0  0  0  0
   10.4183  -16.6938   26.4866 C   0  0  0  0  0  0  0  0  0  0  0  0
   10.2177  -16.9059   25.0341 C   0  0  0  0  0  0  0  0  0  0  0  0
    8.8791  -16.3437   24.5764 C   0  0  2  0  0  0  0  0  0  0  0  0
    8.7331  -16.5999   23.1760 N   0  0  0  0  0  0  0  0  0  0  0  0
    8.7790  -14.8923   24.9003 C   0  0  0  0  0  0  0  0  0  0  0  0
    9.5218  -14.0334   24.3375 O   0  0  0  0  0  0  0  0  0  0  0  0
    9.9901  -17.6290   27.4307 C   0  0  0  0  0  0  0  0  0  0  0  0
   10.1818  -17.4218   28.7812 C   0  0  0  0  0  0  0  0  0  0  0  0
    5.2442  -12.8876   26.1329 C   0  0  0  0  0  0  0  0  0  0  0  0
    6.5082  -12.6641   26.9662 C   0  0  2  0  0  0  0  0  0  0  0  0
    6.5302  -11.1912   27.3047 C   0  0  0  0  0  0  0  0  0  0  0  0
    7.7450  -12.9896   26.1881 C   0  0  2  0  0  0  0  0  0  0  0  0
    7.8514  -14.3884   25.8526 N   0  0  0  0  0  0  0  0  0  0  0  0
    8.9188  -12.5808   26.9943 C   0  0  0  0  0  0  0  0  0  0  0  0
    9.5214  -13.4575   27.6602 O   0  0  0  0  0  0  0  0  0  0  0  0
    9.3867  -11.2805   27.0516 O   0  0  0  0  0  0  0  0  0  0  0  0
  2  1  1  1
  3  2  1  0
  4  3  1  0
  5  4  1  0
  6  5  1  0
  7  6  1  0
  8  9  2  0
  8  2  1  0
 10 11  1  0
 11 12  2  0
 12 13  1  0
 14 13  2  0
 14 15  1  0
 16 15  1  6
 16 17  1  0
 17  8  1  0
 18 26  1  0
 18 16  1  0
 19 18  2  0
 20 14  1  0
 21 11  1  0
 21 20  2  0
 23 22  1  6
 23 25  1  0
 23 24  1  0
 25 27  1  0
 25 26  1  1
 27 29  1  0
 28 27  2  0
M  END
$$$$
