KYV.pdb
     RDKit          3D

 29 29  0  0  1  0  0  0  0  0999 V2000
    6.8803  -16.9221   19.9696 N   0  0  0  0  0  0  0  0  0  0  0  0
    7.5137  -15.7953   20.5825 C   0  0  1  0  0  0  0  0  0  0  0  0
    6.7485  -14.5428   20.2338 C   0  0  0  0  0  0  0  0  0  0  0  0
    7.5726  -13.6602   19.3284 C   0  0  0  0  0  0  0  0  0  0  0  0
    7.9436  -14.3140   18.0363 C   0  0  0  0  0  0  0  0  0  0  0  0
    8.7098  -13.3689   17.1263 C   0  0  0  0  0  0  0  0  0  0  0  0
    9.0406  -13.9606   15.8609 N   0  0  0  0  0  0  0  0  0  0  0  0
    7.5996  -16.0020   22.0483 C   0  0  0  0  0  0  0  0  0  0  0  0
    6.5512  -16.1577   22.7071 O   0  0  0  0  0  0  0  0  0  0  0  0
   10.9758  -17.6626   30.0506 O   0  0  0  0  0  0  0  0  0  0  0  0
   10.7993  -17.4862   28.6883 C   0  0  0  0  0  0  0  0  0  0  0  0
   11.5792  -16.5968   27.9817 C   0  0  0  0  0  0  0  0  0  0  0  0
   11.3875  -16.4356   26.6243 C   0  0  0  0  0  0  0  0  0  0  0  0
   10.4358  -17.1315   25.9169 C   0  0  0  0  0  0  0  0  0  0  0  0
   10.2546  -16.9358   24.4595 C   0  0  0  0  0  0  0  0  0  0  0  0
    8.9704  -16.1741   24.1629 C   0  0  2  0  0  0  0  0  0  0  0  0
    8.8439  -16.0307   22.7446 N   0  0  0  0  0  0  0  0  0  0  0  0
    8.9620  -14.8610   24.8680 C   0  0  0  0  0  0  0  0  0  0  0  0
    9.8130  -13.9598   24.6038 O   0  0  0  0  0  0  0  0  0  0  0  0
    9.6497  -18.0306   26.6399 C   0  0  0  0  0  0  0  0  0  0  0  0
    9.8266  -18.2054   27.9969 C   0  0  0  0  0  0  0  0  0  0  0  0
    5.8660  -12.4786   25.4502 C   0  0  0  0  0  0  0  0  0  0  0  0
    6.5779  -12.7651   26.7743 C   0  0  2  0  0  0  0  0  0  0  0  0
    6.6618  -11.4410   27.4984 C   0  0  0  0  0  0  0  0  0  0  0  0
    7.9689  -13.2724   26.5526 C   0  0  2  0  0  0  0  0  0  0  0  0
    8.0063  -14.5434   25.8716 N   0  0  0  0  0  0  0  0  0  0  0  0
    8.6313  -13.3955   27.8721 C   0  0  0  0  0  0  0  0  0  0  0  0
    8.8513  -12.3499   28.5304 O   0  0  0  0  0  0  0  0  0  0  0  0
    9.0208  -14.6051   28.4178 O   0  0  0  0  0  0  0  0  0  0  0  0
  2  1  1  6
  3  2  1  0
  4  3  1  0
  5  4  1  0
  6  5  1  0
  7  6  1  0
  8  9  2  0
  8  2  1  0
 10 11  1  0
 11 12  2  0
 12 13  1  0
 14 13  2  0
 14 15  1  0
 16 15  1  6
 16 17  1  0
 17  8  1  0
 18 26  1  0
 18 16  1  0
 19 18  2  0
 20 14  1  0
 21 11  1  0
 21 20  2  0
 23 22  1  6
 23 25  1  0
 23 24  1  0
 25 27  1  0
 25 26  1  1
 27 29  1  0
 28 27  2  0
M  END
$$$$
