KYV.pdb
     RDKit          3D

 29 29  0  0  1  0  0  0  0  0999 V2000
    5.5186  -18.3705   20.9741 N   0  0  0  0  0  0  0  0  0  0  0  0
    6.3981  -17.2896   21.2977 C   0  0  1  0  0  0  0  0  0  0  0  0
    5.9979  -16.0680   20.5082 C   0  0  0  0  0  0  0  0  0  0  0  0
    7.0930  -15.0306   20.5570 C   0  0  0  0  0  0  0  0  0  0  0  0
    7.3864  -14.4117   19.2282 C   0  0  0  0  0  0  0  0  0  0  0  0
    8.4001  -13.2858   19.3427 C   0  0  0  0  0  0  0  0  0  0  0  0
    8.9376  -12.8893   18.0720 N   0  0  0  0  0  0  0  0  0  0  0  0
    6.3703  -17.0385   22.7589 C   0  0  0  0  0  0  0  0  0  0  0  0
    5.2716  -16.9380   23.3420 O   0  0  0  0  0  0  0  0  0  0  0  0
    5.9200  -22.6001   26.8625 O   0  0  0  0  0  0  0  0  0  0  0  0
    6.5610  -21.4141   26.5446 C   0  0  0  0  0  0  0  0  0  0  0  0
    7.2302  -21.2684   25.3491 C   0  0  0  0  0  0  0  0  0  0  0  0
    7.8627  -20.0783   25.0511 C   0  0  0  0  0  0  0  0  0  0  0  0
    7.8630  -18.9992   25.9032 C   0  0  0  0  0  0  0  0  0  0  0  0
    8.5515  -17.7347   25.5541 C   0  0  0  0  0  0  0  0  0  0  0  0
    7.5802  -16.7276   24.9542 C   0  0  2  0  0  0  0  0  0  0  0  0
    7.5598  -16.9055   23.5344 N   0  0  0  0  0  0  0  0  0  0  0  0
    7.9528  -15.3387   25.3460 C   0  0  0  0  0  0  0  0  0  0  0  0
    8.9806  -14.7682   24.8722 O   0  0  0  0  0  0  0  0  0  0  0  0
    7.1828  -19.1547   27.1125 C   0  0  0  0  0  0  0  0  0  0  0  0
    6.5448  -20.3366   27.4278 C   0  0  0  0  0  0  0  0  0  0  0  0
    5.3272  -12.2274   26.2926 C   0  0  0  0  0  0  0  0  0  0  0  0
    6.4319  -12.4915   27.3183 C   0  0  2  0  0  0  0  0  0  0  0  0
    6.9448  -11.1333   27.7387 C   0  0  0  0  0  0  0  0  0  0  0  0
    7.5671  -13.2613   26.7184 C   0  0  2  0  0  0  0  0  0  0  0  0
    7.1836  -14.5766   26.2673 N   0  0  0  0  0  0  0  0  0  0  0  0
    8.6361  -13.3770   27.7374 C   0  0  0  0  0  0  0  0  0  0  0  0
    8.5992  -14.3449   28.5355 O   0  0  0  0  0  0  0  0  0  0  0  0
    9.6754  -12.4721   27.8558 O   0  0  0  0  0  0  0  0  0  0  0  0
  2  1  1  1
  3  2  1  0
  4  3  1  0
  5  4  1  0
  6  5  1  0
  7  6  1  0
  8  9  2  0
  8  2  1  0
 10 11  1  0
 11 12  2  0
 12 13  1  0
 14 13  2  0
 14 15  1  0
 16 15  1  1
 16 17  1  0
 17  8  1  0
 18 26  1  0
 18 16  1  0
 19 18  2  0
 20 14  1  0
 21 11  1  0
 21 20  2  0
 23 22  1  6
 23 25  1  0
 23 24  1  0
 25 27  1  0
 25 26  1  1
 27 29  1  0
 28 27  2  0
M  END
$$$$
