KYV.pdb
     RDKit          3D

 29 29  0  0  1  0  0  0  0  0999 V2000
   12.4215  -19.0370   20.3960 N   0  0  0  0  0  0  0  0  0  0  0  0
   11.5391  -18.2261   21.1773 C   0  0  1  0  0  0  0  0  0  0  0  0
   10.1604  -18.8386   21.1683 C   0  0  0  0  0  0  0  0  0  0  0  0
    9.6504  -18.9605   19.7531 C   0  0  0  0  0  0  0  0  0  0  0  0
    8.1682  -19.1357   19.6675 C   0  0  0  0  0  0  0  0  0  0  0  0
    7.7092  -19.3589   18.2365 C   0  0  0  0  0  0  0  0  0  0  0  0
    6.3144  -19.6857   18.1439 N   0  0  0  0  0  0  0  0  0  0  0  0
   12.0729  -18.0833   22.5533 C   0  0  0  0  0  0  0  0  0  0  0  0
   12.7621  -19.0022   23.0410 O   0  0  0  0  0  0  0  0  0  0  0  0
   17.9457  -15.3034   22.2234 O   0  0  0  0  0  0  0  0  0  0  0  0
   16.7205  -15.3336   22.8684 C   0  0  0  0  0  0  0  0  0  0  0  0
   16.6193  -15.7459   24.1791 C   0  0  0  0  0  0  0  0  0  0  0  0
   15.3888  -15.7688   24.8040 C   0  0  0  0  0  0  0  0  0  0  0  0
   14.2252  -15.3930   24.1754 C   0  0  0  0  0  0  0  0  0  0  0  0
   12.9191  -15.4287   24.8739 C   0  0  0  0  0  0  0  0  0  0  0  0
   12.2468  -16.7851   24.7130 C   0  0  2  0  0  0  0  0  0  0  0  0
   11.8290  -16.9269   23.3517 N   0  0  0  0  0  0  0  0  0  0  0  0
   11.1142  -16.9285   25.6712 C   0  0  0  0  0  0  0  0  0  0  0  0
   10.4072  -15.9352   26.0172 O   0  0  0  0  0  0  0  0  0  0  0  0
   14.3359  -14.9766   22.8475 C   0  0  0  0  0  0  0  0  0  0  0  0
   15.5571  -14.9470   22.2062 C   0  0  0  0  0  0  0  0  0  0  0  0
    7.2866  -19.0284   27.5366 C   0  0  0  0  0  0  0  0  0  0  0  0
    8.4128  -18.8320   26.5192 C   0  0  2  0  0  0  0  0  0  0  0  0
    8.6854  -20.1966   25.9293 C   0  0  0  0  0  0  0  0  0  0  0  0
    9.6662  -18.3402   27.1739 C   0  0  2  0  0  0  0  0  0  0  0  0
   10.7618  -18.1784   26.2498 N   0  0  0  0  0  0  0  0  0  0  0  0
   10.0452  -19.3071   28.2304 C   0  0  0  0  0  0  0  0  0  0  0  0
    9.2858  -19.4386   29.2209 O   0  0  0  0  0  0  0  0  0  0  0  0
   11.1950  -20.0744   28.1824 O   0  0  0  0  0  0  0  0  0  0  0  0
  2  1  1  6
  3  2  1  0
  4  3  1  0
  5  4  1  0
  6  5  1  0
  7  6  1  0
  8  9  2  0
  8  2  1  0
 10 11  1  0
 11 12  2  0
 12 13  1  0
 14 13  2  0
 14 15  1  0
 16 15  1  6
 16 17  1  0
 17  8  1  0
 18 26  1  0
 18 16  1  0
 19 18  2  0
 20 14  1  0
 21 11  1  0
 21 20  2  0
 23 22  1  1
 23 25  1  0
 23 24  1  0
 25 27  1  0
 25 26  1  6
 27 29  1  0
 28 27  2  0
M  END
$$$$
