KYV.pdb
     RDKit          3D

 29 29  0  0  1  0  0  0  0  0999 V2000
   10.5215  -18.4856   20.8641 N   0  0  0  0  0  0  0  0  0  0  0  0
   11.3848  -17.3450   20.8842 C   0  0  1  0  0  0  0  0  0  0  0  0
   11.4763  -16.7648   19.4946 C   0  0  0  0  0  0  0  0  0  0  0  0
   11.8288  -17.8427   18.4988 C   0  0  0  0  0  0  0  0  0  0  0  0
   10.7055  -18.1910   17.5759 C   0  0  0  0  0  0  0  0  0  0  0  0
   11.1212  -19.2319   16.5503 C   0  0  0  0  0  0  0  0  0  0  0  0
   10.0480  -19.6112   15.6756 N   0  0  0  0  0  0  0  0  0  0  0  0
   10.8855  -16.3532   21.8669 C   0  0  0  0  0  0  0  0  0  0  0  0
   11.5553  -15.3249   22.0932 O   0  0  0  0  0  0  0  0  0  0  0  0
    5.5634  -11.7235   27.1229 O   0  0  0  0  0  0  0  0  0  0  0  0
    6.0768  -12.6469   26.2273 C   0  0  0  0  0  0  0  0  0  0  0  0
    5.8118  -13.9918   26.3658 C   0  0  0  0  0  0  0  0  0  0  0  0
    6.3329  -14.8961   25.4626 C   0  0  0  0  0  0  0  0  0  0  0  0
    7.1239  -14.5209   24.4024 C   0  0  0  0  0  0  0  0  0  0  0  0
    7.6685  -15.5162   23.4497 C   0  0  0  0  0  0  0  0  0  0  0  0
    9.1795  -15.6394   23.5875 C   0  0  2  0  0  0  0  0  0  0  0  0
    9.6580  -16.5271   22.5720 N   0  0  0  0  0  0  0  0  0  0  0  0
    9.5480  -16.0950   24.9579 C   0  0  0  0  0  0  0  0  0  0  0  0
    9.7508  -17.3185   25.2189 O   0  0  0  0  0  0  0  0  0  0  0  0
    7.3879  -13.1565   24.2689 C   0  0  0  0  0  0  0  0  0  0  0  0
    6.8759  -12.2377   25.1617 C   0  0  0  0  0  0  0  0  0  0  0  0
   10.5712  -13.1990   28.0174 C   0  0  0  0  0  0  0  0  0  0  0  0
    9.9801  -14.5582   28.3984 C   0  0  2  0  0  0  0  0  0  0  0  0
   10.7075  -14.9941   29.6495 C   0  0  0  0  0  0  0  0  0  0  0  0
   10.2189  -15.5807   27.3313 C   0  0  2  0  0  0  0  0  0  0  0  0
    9.6930  -15.1914   26.0459 N   0  0  0  0  0  0  0  0  0  0  0  0
    9.5912  -16.8520   27.7612 C   0  0  0  0  0  0  0  0  0  0  0  0
    8.3624  -17.0099   27.5604 O   0  0  0  0  0  0  0  0  0  0  0  0
   10.2900  -17.8765   28.3735 O   0  0  0  0  0  0  0  0  0  0  0  0
  2  1  1  6
  3  2  1  0
  4  3  1  0
  5  4  1  0
  6  5  1  0
  7  6  1  0
  8  9  2  0
  8  2  1  0
 10 11  1  0
 11 12  2  0
 12 13  1  0
 14 13  2  0
 14 15  1  0
 16 15  1  1
 16 17  1  0
 17  8  1  0
 18 26  1  0
 18 16  1  0
 19 18  2  0
 20 14  1  0
 21 11  1  0
 21 20  2  0
 23 22  1  6
 23 25  1  0
 23 24  1  0
 25 27  1  0
 25 26  1  6
 27 29  1  0
 28 27  2  0
M  END
$$$$
