KYV.pdb
     RDKit          3D

 29 29  0  0  1  0  0  0  0  0999 V2000
    9.3084  -18.4561   19.9166 N   0  0  0  0  0  0  0  0  0  0  0  0
    8.7606  -18.7169   21.2122 C   0  0  1  0  0  0  0  0  0  0  0  0
    9.4181  -19.9439   21.7934 C   0  0  0  0  0  0  0  0  0  0  0  0
    8.6730  -21.1870   21.3721 C   0  0  0  0  0  0  0  0  0  0  0  0
    7.9538  -21.8599   22.4967 C   0  0  0  0  0  0  0  0  0  0  0  0
    7.3271  -23.1729   22.0590 C   0  0  0  0  0  0  0  0  0  0  0  0
    6.0853  -22.9919   21.3619 N   0  0  0  0  0  0  0  0  0  0  0  0
    8.9378  -17.5289   22.0818 C   0  0  0  0  0  0  0  0  0  0  0  0
   10.0377  -16.9395   22.0964 O   0  0  0  0  0  0  0  0  0  0  0  0
    6.9041  -11.1455   27.9087 O   0  0  0  0  0  0  0  0  0  0  0  0
    6.8456  -12.1594   26.9670 C   0  0  0  0  0  0  0  0  0  0  0  0
    6.3769  -13.4112   27.3013 C   0  0  0  0  0  0  0  0  0  0  0  0
    6.3265  -14.4082   26.3481 C   0  0  0  0  0  0  0  0  0  0  0  0
    6.7287  -14.2183   25.0471 C   0  0  0  0  0  0  0  0  0  0  0  0
    6.6622  -15.3093   24.0469 C   0  0  0  0  0  0  0  0  0  0  0  0
    8.0363  -15.9191   23.8069 C   0  0  2  0  0  0  0  0  0  0  0  0
    7.8924  -17.0262   22.9115 N   0  0  0  0  0  0  0  0  0  0  0  0
    8.6705  -16.3127   25.0970 C   0  0  0  0  0  0  0  0  0  0  0  0
    8.2240  -17.2751   25.7902 O   0  0  0  0  0  0  0  0  0  0  0  0
    7.2023  -12.9474   24.7162 C   0  0  0  0  0  0  0  0  0  0  0  0
    7.2601  -11.9382   25.6553 C   0  0  0  0  0  0  0  0  0  0  0  0
   12.6248  -16.5232   25.1339 C   0  0  0  0  0  0  0  0  0  0  0  0
   12.1066  -15.8992   26.4316 C   0  0  2  0  0  0  0  0  0  0  0  0
   12.8961  -16.5423   27.5486 C   0  0  0  0  0  0  0  0  0  0  0  0
   10.6552  -16.1981   26.6447 C   0  0  2  0  0  0  0  0  0  0  0  0
    9.8055  -15.6371   25.6230 N   0  0  0  0  0  0  0  0  0  0  0  0
   10.2626  -15.6608   27.9684 C   0  0  0  0  0  0  0  0  0  0  0  0
    9.8904  -14.4645   28.0416 O   0  0  0  0  0  0  0  0  0  0  0  0
   10.2847  -16.4104   29.1305 O   0  0  0  0  0  0  0  0  0  0  0  0
  2  1  1  6
  3  2  1  0
  4  3  1  0
  5  4  1  0
  6  5  1  0
  7  6  1  0
  8  9  2  0
  8  2  1  0
 10 11  1  0
 11 12  2  0
 12 13  1  0
 14 13  2  0
 14 15  1  0
 16 15  1  1
 16 17  1  0
 17  8  1  0
 18 26  1  0
 18 16  1  0
 19 18  2  0
 20 14  1  0
 21 11  1  0
 21 20  2  0
 23 22  1  6
 23 25  1  0
 23 24  1  0
 25 27  1  0
 25 26  1  6
 27 29  1  0
 28 27  2  0
M  END
$$$$
