KYV.pdb
     RDKit          3D

 29 29  0  0  1  0  0  0  0  0999 V2000
    9.9570  -16.9378   18.5068 N   0  0  0  0  0  0  0  0  0  0  0  0
    8.9063  -17.1916   19.4439 C   0  0  1  0  0  0  0  0  0  0  0  0
    8.8074  -18.6764   19.6918 C   0  0  0  0  0  0  0  0  0  0  0  0
    8.3226  -19.3838   18.4500 C   0  0  0  0  0  0  0  0  0  0  0  0
    7.2844  -20.4239   18.7242 C   0  0  0  0  0  0  0  0  0  0  0  0
    6.8613  -21.1456   17.4560 C   0  0  0  0  0  0  0  0  0  0  0  0
    7.9252  -21.9101   16.8692 N   0  0  0  0  0  0  0  0  0  0  0  0
    9.1551  -16.4363   20.6955 C   0  0  0  0  0  0  0  0  0  0  0  0
   10.3227  -16.3256   21.1219 O   0  0  0  0  0  0  0  0  0  0  0  0
    7.3206  -11.9615   28.1470 O   0  0  0  0  0  0  0  0  0  0  0  0
    7.2492  -12.5446   26.8927 C   0  0  0  0  0  0  0  0  0  0  0  0
    6.5497  -13.7148   26.6938 C   0  0  0  0  0  0  0  0  0  0  0  0
    6.4906  -14.2801   25.4359 C   0  0  0  0  0  0  0  0  0  0  0  0
    7.1074  -13.7263   24.3389 C   0  0  0  0  0  0  0  0  0  0  0  0
    7.0252  -14.3577   23.0011 C   0  0  0  0  0  0  0  0  0  0  0  0
    8.2904  -15.1433   22.6856 C   0  0  2  0  0  0  0  0  0  0  0  0
    8.1043  -15.8243   21.4407 N   0  0  0  0  0  0  0  0  0  0  0  0
    8.6214  -16.0777   23.7986 C   0  0  0  0  0  0  0  0  0  0  0  0
    7.8559  -17.0391   24.1085 O   0  0  0  0  0  0  0  0  0  0  0  0
    7.8141  -12.5407   24.5486 C   0  0  0  0  0  0  0  0  0  0  0  0
    7.8844  -11.9609   25.7985 C   0  0  0  0  0  0  0  0  0  0  0  0
   12.2316  -17.6505   24.0658 C   0  0  0  0  0  0  0  0  0  0  0  0
   11.7628  -17.1512   25.4343 C   0  0  2  0  0  0  0  0  0  0  0  0
   12.1401  -18.2294   26.4241 C   0  0  0  0  0  0  0  0  0  0  0  0
   10.2772  -16.9703   25.4747 C   0  0  2  0  0  0  0  0  0  0  0  0
    9.8064  -15.9475   24.5732 N   0  0  0  0  0  0  0  0  0  0  0  0
    9.8915  -16.6256   26.8630 C   0  0  0  0  0  0  0  0  0  0  0  0
    9.8723  -15.4155   27.1952 O   0  0  0  0  0  0  0  0  0  0  0  0
    9.5506  -17.5697   27.8145 O   0  0  0  0  0  0  0  0  0  0  0  0
  2  1  1  6
  3  2  1  0
  4  3  1  0
  5  4  1  0
  6  5  1  0
  7  6  1  0
  8  9  2  0
  8  2  1  0
 10 11  1  0
 11 12  2  0
 12 13  1  0
 14 13  2  0
 14 15  1  0
 16 15  1  1
 16 17  1  0
 17  8  1  0
 18 26  1  0
 18 16  1  0
 19 18  2  0
 20 14  1  0
 21 11  1  0
 21 20  2  0
 23 22  1  6
 23 25  1  0
 23 24  1  0
 25 27  1  0
 25 26  1  6
 27 29  1  0
 28 27  2  0
M  END
$$$$
