KYV.pdb
     RDKit          3D

 29 29  0  0  1  0  0  0  0  0999 V2000
    9.5435  -18.1200   19.9413 N   0  0  0  0  0  0  0  0  0  0  0  0
   10.8144  -17.7379   20.4758 C   0  0  1  0  0  0  0  0  0  0  0  0
   11.6078  -17.0217   19.4112 C   0  0  0  0  0  0  0  0  0  0  0  0
   12.4480  -18.0050   18.6333 C   0  0  0  0  0  0  0  0  0  0  0  0
   11.7580  -18.5528   17.4255 C   0  0  0  0  0  0  0  0  0  0  0  0
   12.6788  -19.4394   16.6044 C   0  0  0  0  0  0  0  0  0  0  0  0
   12.0578  -19.9285   15.4061 N   0  0  0  0  0  0  0  0  0  0  0  0
   10.6209  -16.8975   21.6820 C   0  0  0  0  0  0  0  0  0  0  0  0
   11.6191  -16.4710   22.2976 O   0  0  0  0  0  0  0  0  0  0  0  0
    6.5789  -11.8376   27.7220 O   0  0  0  0  0  0  0  0  0  0  0  0
    6.8782  -12.6010   26.6058 C   0  0  0  0  0  0  0  0  0  0  0  0
    6.2689  -13.8188   26.3957 C   0  0  0  0  0  0  0  0  0  0  0  0
    6.5810  -14.5645   25.2769 C   0  0  0  0  0  0  0  0  0  0  0  0
    7.4910  -14.1498   24.3333 C   0  0  0  0  0  0  0  0  0  0  0  0
    7.8044  -14.9736   23.1425 C   0  0  0  0  0  0  0  0  0  0  0  0
    9.0947  -15.7568   23.3403 C   0  0  2  0  0  0  0  0  0  0  0  0
    9.3273  -16.5523   22.1737 N   0  0  0  0  0  0  0  0  0  0  0  0
    9.0271  -16.5784   24.5820 C   0  0  0  0  0  0  0  0  0  0  0  0
    8.0841  -17.4008   24.7837 O   0  0  0  0  0  0  0  0  0  0  0  0
    8.1040  -12.9149   24.5533 C   0  0  0  0  0  0  0  0  0  0  0  0
    7.8050  -12.1555   25.6656 C   0  0  0  0  0  0  0  0  0  0  0  0
   12.5483  -17.6495   26.5683 C   0  0  0  0  0  0  0  0  0  0  0  0
   11.1983  -18.3661   26.6458 C   0  0  2  0  0  0  0  0  0  0  0  0
   11.0654  -19.1469   25.3585 C   0  0  0  0  0  0  0  0  0  0  0  0
   10.0632  -17.3936   26.7290 C   0  0  2  0  0  0  0  0  0  0  0  0
   10.0087  -16.4893   25.6066 N   0  0  0  0  0  0  0  0  0  0  0  0
   10.2087  -16.6203   27.9842 C   0  0  0  0  0  0  0  0  0  0  0  0
   10.4313  -15.3877   27.9047 O   0  0  0  0  0  0  0  0  0  0  0  0
   10.1118  -17.1867   29.2423 O   0  0  0  0  0  0  0  0  0  0  0  0
  2  1  1  6
  3  2  1  0
  4  3  1  0
  5  4  1  0
  6  5  1  0
  7  6  1  0
  8  9  2  0
  8  2  1  0
 10 11  1  0
 11 12  2  0
 12 13  1  0
 14 13  2  0
 14 15  1  0
 16 15  1  6
 16 17  1  0
 17  8  1  0
 18 26  1  0
 18 16  1  0
 19 18  2  0
 20 14  1  0
 21 11  1  0
 21 20  2  0
 23 22  1  6
 23 25  1  0
 23 24  1  0
 25 27  1  0
 25 26  1  6
 27 29  1  0
 28 27  2  0
M  END
$$$$
