VLF.pdb
     RDKit          3D

 27 27  0  0  1  0  0  0  0  0999 V2000
   20.2666  -19.7188  -12.8402 C   0  0  0  0  0  0  0  0  0  0  0  0
   21.3919  -20.2675  -11.9846 C   0  0  1  0  0  0  0  0  0  0  0  0
   20.9055  -21.5064  -11.3029 C   0  0  0  0  0  0  0  0  0  0  0  0
   22.5633  -20.5230  -12.9149 C   0  0  2  0  0  0  0  0  0  0  0  0
   22.1405  -21.4204  -13.9492 N   0  0  0  0  0  0  0  0  0  0  0  0
   23.7696  -20.9689  -12.2122 C   0  0  0  0  0  0  0  0  0  0  0  0
   23.8435  -22.2084  -11.9094 O   0  0  0  0  0  0  0  0  0  0  0  0
   28.6886  -19.8254  -13.9909 C   0  0  0  0  0  0  0  0  0  0  0  0
   27.4299  -20.5757  -13.4121 C   0  0  1  0  0  0  0  0  0  0  0  0
   27.8740  -22.0264  -13.3900 C   0  0  0  0  0  0  0  0  0  0  0  0
   27.1679  -19.9672  -12.1021 C   0  0  0  0  0  0  0  0  0  0  0  0
   26.0796  -20.5438  -11.2710 C   0  0  2  0  0  0  0  0  0  0  0  0
   24.7914  -20.0698  -11.8907 N   0  0  0  0  0  0  0  0  0  0  0  0
   26.0462  -20.0859   -9.8942 C   0  0  0  0  0  0  0  0  0  0  0  0
   25.6006  -18.9027   -9.6134 O   0  0  0  0  0  0  0  0  0  0  0  0
   26.4472  -20.8123   -8.7387 N   0  0  0  0  0  0  0  0  0  0  0  0
   26.7283  -20.1047   -7.4799 C   0  0  1  0  0  0  0  0  0  0  0  0
   27.2142  -21.2400   -6.5528 C   0  0  0  0  0  0  0  0  0  0  0  0
   27.9452  -20.6512   -5.4332 C   0  0  0  0  0  0  0  0  0  0  0  0
   29.3169  -20.4362   -5.5613 C   0  0  0  0  0  0  0  0  0  0  0  0
   30.0427  -19.8737   -4.5311 C   0  0  0  0  0  0  0  0  0  0  0  0
   29.3707  -19.5380   -3.3891 C   0  0  0  0  0  0  0  0  0  0  0  0
   28.0073  -19.7474   -3.2513 C   0  0  0  0  0  0  0  0  0  0  0  0
   27.2878  -20.3087   -4.2819 C   0  0  0  0  0  0  0  0  0  0  0  0
   27.7612  -19.1141   -7.6893 C   0  0  0  0  0  0  0  0  0  0  0  0
   27.7190  -18.0196   -7.0694 O   0  0  0  0  0  0  0  0  0  0  0  0
   28.8144  -19.3029   -8.5445 O   0  0  0  0  0  0  0  0  0  0  0  0
  2  1  1  6
  3  2  1  0
  4  5  1  6
  4  2  1  0
  6  4  1  0
  7  6  2  0
  9  8  1  1
  9 11  1  0
 10  9  1  0
 12 11  1  6
 12 13  1  0
 13  6  1  0
 14 16  1  0
 14 12  1  0
 15 14  2  0
 17 25  1  0
 17 16  1  0
 17 18  1  1
 19 18  1  0
 19 24  2  0
 20 19  1  0
 21 20  2  0
 21 22  1  0
 22 23  2  0
 23 24  1  0
 25 27  1  0
 26 25  2  0
M  END
$$$$
