VLF.pdb
     RDKit          3D

 27 27  0  0  1  0  0  0  0  0999 V2000
   13.7216  -27.7354    0.4112 C   0  0  0  0  0  0  0  0  0  0  0  0
   14.7971  -27.8823    1.4700 C   0  0  1  0  0  0  0  0  0  0  0  0
   14.6738  -29.2407    2.0827 C   0  0  0  0  0  0  0  0  0  0  0  0
   16.1279  -27.6636    0.7743 C   0  0  2  0  0  0  0  0  0  0  0  0
   16.2124  -28.5549   -0.3448 N   0  0  0  0  0  0  0  0  0  0  0  0
   17.2742  -27.7566    1.6825 C   0  0  0  0  0  0  0  0  0  0  0  0
   17.8758  -28.8823    1.7490 O   0  0  0  0  0  0  0  0  0  0  0  0
   21.0633  -24.2479    1.4439 C   0  0  0  0  0  0  0  0  0  0  0  0
   20.2020  -25.5617    1.5638 C   0  0  1  0  0  0  0  0  0  0  0  0
   21.1593  -26.6443    1.1012 C   0  0  0  0  0  0  0  0  0  0  0  0
   19.7808  -25.6381    2.9680 C   0  0  0  0  0  0  0  0  0  0  0  0
   18.8720  -26.7450    3.3637 C   0  0  2  0  0  0  0  0  0  0  0  0
   17.6857  -26.6555    2.4403 N   0  0  0  0  0  0  0  0  0  0  0  0
   18.3330  -26.6500    4.7079 C   0  0  0  0  0  0  0  0  0  0  0  0
   19.1175  -26.7643    5.7321 O   0  0  0  0  0  0  0  0  0  0  0  0
   16.9783  -26.4183    5.0745 N   0  0  0  0  0  0  0  0  0  0  0  0
   16.5864  -26.4074    6.4925 C   0  0  1  0  0  0  0  0  0  0  0  0
   15.7618  -25.1069    6.6074 C   0  0  0  0  0  0  0  0  0  0  0  0
   16.6809  -23.9748    6.6970 C   0  0  0  0  0  0  0  0  0  0  0  0
   17.1926  -23.6181    7.9440 C   0  0  0  0  0  0  0  0  0  0  0  0
   18.0707  -22.5610    8.0708 C   0  0  0  0  0  0  0  0  0  0  0  0
   18.4171  -21.8824    6.9359 C   0  0  0  0  0  0  0  0  0  0  0  0
   17.9144  -22.2287    5.6914 C   0  0  0  0  0  0  0  0  0  0  0  0
   17.0387  -23.2840    5.5701 C   0  0  0  0  0  0  0  0  0  0  0  0
   15.7826  -27.5718    6.7926 C   0  0  0  0  0  0  0  0  0  0  0  0
   15.5913  -28.4492    5.9109 O   0  0  0  0  0  0  0  0  0  0  0  0
   15.2029  -27.7837    8.0154 O   0  0  0  0  0  0  0  0  0  0  0  0
  2  1  1  6
  3  2  1  0
  4  5  1  6
  4  2  1  0
  6  4  1  0
  7  6  2  0
  9  8  1  1
  9 11  1  0
 10  9  1  0
 12 11  1  6
 12 13  1  0
 13  6  1  0
 14 16  1  0
 14 12  1  0
 15 14  2  0
 17 25  1  0
 17 16  1  0
 17 18  1  6
 19 18  1  0
 19 24  2  0
 20 19  1  0
 21 20  2  0
 21 22  1  0
 22 23  2  0
 23 24  1  0
 25 27  1  0
 26 25  2  0
M  END
$$$$
