VLF.pdb
     RDKit          3D

 27 27  0  0  1  0  0  0  0  0999 V2000
   29.0455  -18.7054  -16.5638 C   0  0  0  0  0  0  0  0  0  0  0  0
   28.3841  -19.8501  -15.8210 C   0  0  1  0  0  0  0  0  0  0  0  0
   29.3827  -20.4400  -14.8772 C   0  0  0  0  0  0  0  0  0  0  0  0
   27.1714  -19.2708  -15.1161 C   0  0  2  0  0  0  0  0  0  0  0  0
   27.5962  -18.1706  -14.3019 N   0  0  0  0  0  0  0  0  0  0  0  0
   26.3979  -20.2759  -14.3819 C   0  0  0  0  0  0  0  0  0  0  0  0
   25.8563  -21.2094  -15.0665 O   0  0  0  0  0  0  0  0  0  0  0  0
   24.0038  -21.0773   -9.4337 C   0  0  0  0  0  0  0  0  0  0  0  0
   25.3137  -20.3238   -9.8795 C   0  0  1  0  0  0  0  0  0  0  0  0
   26.0467  -20.1032   -8.5694 C   0  0  0  0  0  0  0  0  0  0  0  0
   25.9781  -21.2105  -10.8425 C   0  0  0  0  0  0  0  0  0  0  0  0
   25.4630  -21.2368  -12.2359 C   0  0  2  0  0  0  0  0  0  0  0  0
   26.2632  -20.2087  -12.9915 N   0  0  0  0  0  0  0  0  0  0  0  0
   24.0740  -20.8442  -12.3876 C   0  0  0  0  0  0  0  0  0  0  0  0
   23.7180  -19.6178  -12.1713 O   0  0  0  0  0  0  0  0  0  0  0  0
   22.9865  -21.6724  -12.7813 N   0  0  0  0  0  0  0  0  0  0  0  0
   21.6308  -21.1118  -12.8911 C   0  0  1  0  0  0  0  0  0  0  0  0
   21.2344  -21.4623  -14.3418 C   0  0  0  0  0  0  0  0  0  0  0  0
   21.6698  -20.3803  -15.2217 C   0  0  0  0  0  0  0  0  0  0  0  0
   22.8428  -20.5404  -15.9583 C   0  0  0  0  0  0  0  0  0  0  0  0
   23.2841  -19.5465  -16.8081 C   0  0  0  0  0  0  0  0  0  0  0  0
   22.5332  -18.4080  -16.8992 C   0  0  0  0  0  0  0  0  0  0  0  0
   21.3656  -18.2386  -16.1715 C   0  0  0  0  0  0  0  0  0  0  0  0
   20.9296  -19.2330  -15.3252 C   0  0  0  0  0  0  0  0  0  0  0  0
   20.7530  -21.7488  -11.9342 C   0  0  0  0  0  0  0  0  0  0  0  0
   21.0297  -22.8935  -11.4905 O   0  0  0  0  0  0  0  0  0  0  0  0
   19.6069  -21.1622  -11.4667 O   0  0  0  0  0  0  0  0  0  0  0  0
  2  1  1  1
  3  2  1  0
  4  5  1  1
  4  2  1  0
  6  4  1  0
  7  6  2  0
  9  8  1  1
  9 11  1  0
 10  9  1  0
 12 11  1  1
 12 13  1  0
 13  6  1  0
 14 16  1  0
 14 12  1  0
 15 14  2  0
 17 25  1  0
 17 16  1  0
 17 18  1  6
 19 18  1  0
 19 24  2  0
 20 19  1  0
 21 20  2  0
 21 22  1  0
 22 23  2  0
 23 24  1  0
 25 27  1  0
 26 25  2  0
M  END
$$$$
