VLF.pdb
     RDKit          3D

 27 27  0  0  1  0  0  0  0  0999 V2000
   28.8956  -21.5002  -17.5958 C   0  0  0  0  0  0  0  0  0  0  0  0
   27.4654  -21.0126  -17.7227 C   0  0  1  0  0  0  0  0  0  0  0  0
   26.7728  -21.8447  -18.7541 C   0  0  0  0  0  0  0  0  0  0  0  0
   26.8393  -21.1320  -16.3455 C   0  0  2  0  0  0  0  0  0  0  0  0
   26.9557  -22.4908  -15.9049 N   0  0  0  0  0  0  0  0  0  0  0  0
   25.4690  -20.6156  -16.2895 C   0  0  0  0  0  0  0  0  0  0  0  0
   25.3064  -19.3677  -16.5129 O   0  0  0  0  0  0  0  0  0  0  0  0
   21.4034  -22.2417  -19.2596 C   0  0  0  0  0  0  0  0  0  0  0  0
   22.2640  -21.2224  -18.4213 C   0  0  1  0  0  0  0  0  0  0  0  0
   21.5464  -19.9037  -18.6412 C   0  0  0  0  0  0  0  0  0  0  0  0
   22.2590  -21.7312  -17.0443 C   0  0  0  0  0  0  0  0  0  0  0  0
   22.9759  -20.9439  -16.0080 C   0  0  2  0  0  0  0  0  0  0  0  0
   24.3909  -21.4592  -16.0031 N   0  0  0  0  0  0  0  0  0  0  0  0
   22.4879  -21.1198  -14.6524 C   0  0  0  0  0  0  0  0  0  0  0  0
   22.6021  -22.2682  -14.0646 O   0  0  0  0  0  0  0  0  0  0  0  0
   21.8777  -20.1359  -13.8260 N   0  0  0  0  0  0  0  0  0  0  0  0
   21.5445  -20.4469  -12.4273 C   0  0  1  0  0  0  0  0  0  0  0  0
   22.2473  -19.3128  -11.6499 C   0  0  0  0  0  0  0  0  0  0  0  0
   23.1121  -19.9067  -10.6331 C   0  0  0  0  0  0  0  0  0  0  0  0
   22.5282  -20.5272   -9.5294 C   0  0  0  0  0  0  0  0  0  0  0  0
   23.3090  -21.1085   -8.5511 C   0  0  0  0  0  0  0  0  0  0  0  0
   24.6661  -21.0533   -8.7043 C   0  0  0  0  0  0  0  0  0  0  0  0
   25.2569  -20.4390   -9.7976 C   0  0  0  0  0  0  0  0  0  0  0  0
   24.4737  -19.8605  -10.7707 C   0  0  0  0  0  0  0  0  0  0  0  0
   20.1109  -20.4074  -12.2395 C   0  0  0  0  0  0  0  0  0  0  0  0
   19.3813  -19.8231  -13.0822 O   0  0  0  0  0  0  0  0  0  0  0  0
   19.4819  -20.9872  -11.1698 O   0  0  0  0  0  0  0  0  0  0  0  0
  2  1  1  1
  3  2  1  0
  4  5  1  6
  4  2  1  0
  6  4  1  0
  7  6  2  0
  9  8  1  6
  9 11  1  0
 10  9  1  0
 12 11  1  6
 12 13  1  0
 13  6  1  0
 14 16  1  0
 14 12  1  0
 15 14  2  0
 17 25  1  0
 17 16  1  0
 17 18  1  1
 19 18  1  0
 19 24  2  0
 20 19  1  0
 21 20  2  0
 21 22  1  0
 22 23  2  0
 23 24  1  0
 25 27  1  0
 26 25  2  0
M  END
$$$$
