VLF.pdb
     RDKit          3D

 27 27  0  0  1  0  0  0  0  0999 V2000
   20.6584  -20.1865  -17.2168 C   0  0  0  0  0  0  0  0  0  0  0  0
   20.0089  -21.4796  -16.7637 C   0  0  1  0  0  0  0  0  0  0  0  0
   20.4203  -22.5686  -17.7021 C   0  0  0  0  0  0  0  0  0  0  0  0
   20.4658  -21.7216  -15.3369 C   0  0  2  0  0  0  0  0  0  0  0  0
   21.8855  -21.5373  -15.2724 N   0  0  0  0  0  0  0  0  0  0  0  0
   20.0194  -23.0102  -14.8004 C   0  0  0  0  0  0  0  0  0  0  0  0
   18.7612  -23.1737  -14.6469 O   0  0  0  0  0  0  0  0  0  0  0  0
   22.6290  -28.4806  -14.5662 C   0  0  0  0  0  0  0  0  0  0  0  0
   21.2722  -27.7465  -14.2462 C   0  0  1  0  0  0  0  0  0  0  0  0
   20.9041  -28.2853  -12.8764 C   0  0  0  0  0  0  0  0  0  0  0  0
   21.5689  -26.3102  -14.3098 C   0  0  0  0  0  0  0  0  0  0  0  0
   20.4783  -25.3579  -13.9757 C   0  0  2  0  0  0  0  0  0  0  0  0
   20.9379  -24.0127  -14.4729 N   0  0  0  0  0  0  0  0  0  0  0  0
   20.2216  -25.1871  -12.5575 C   0  0  0  0  0  0  0  0  0  0  0  0
   21.1032  -24.6131  -11.8020 O   0  0  0  0  0  0  0  0  0  0  0  0
   19.0535  -25.5750  -11.8444 N   0  0  0  0  0  0  0  0  0  0  0  0
   18.9731  -25.3732  -10.3894 C   0  0  1  0  0  0  0  0  0  0  0  0
   18.3812  -23.9515  -10.2754 C   0  0  0  0  0  0  0  0  0  0  0  0
   17.0300  -23.9598  -10.8309 C   0  0  0  0  0  0  0  0  0  0  0  0
   16.8575  -23.6990  -12.1897 C   0  0  0  0  0  0  0  0  0  0  0  0
   15.5989  -23.7064  -12.7559 C   0  0  0  0  0  0  0  0  0  0  0  0
   14.5362  -23.9772  -11.9400 C   0  0  0  0  0  0  0  0  0  0  0  0
   14.6965  -24.2379  -10.5880 C   0  0  0  0  0  0  0  0  0  0  0  0
   15.9540  -24.2293  -10.0280 C   0  0  0  0  0  0  0  0  0  0  0  0
   18.0951  -26.3605   -9.8007 C   0  0  0  0  0  0  0  0  0  0  0  0
   17.8043  -26.2954   -8.5780 O   0  0  0  0  0  0  0  0  0  0  0  0
   17.5433  -27.3900  -10.5161 O   0  0  0  0  0  0  0  0  0  0  0  0
  2  1  1  6
  3  2  1  0
  4  5  1  6
  4  2  1  0
  6  4  1  0
  7  6  2  0
  9  8  1  1
  9 11  1  0
 10  9  1  0
 12 11  1  1
 12 13  1  0
 13  6  1  0
 14 16  1  0
 14 12  1  0
 15 14  2  0
 17 25  1  0
 17 16  1  0
 17 18  1  6
 19 18  1  0
 19 24  2  0
 20 19  1  0
 21 20  2  0
 21 22  1  0
 22 23  2  0
 23 24  1  0
 25 27  1  0
 26 25  2  0
M  END
$$$$
