VLF.pdb
     RDKit          3D

 27 27  0  0  1  0  0  0  0  0999 V2000
   25.0277  -15.7190  -14.5488 C   0  0  0  0  0  0  0  0  0  0  0  0
   24.0962  -15.5590  -15.7346 C   0  0  1  0  0  0  0  0  0  0  0  0
   23.9024  -14.0982  -15.9887 C   0  0  0  0  0  0  0  0  0  0  0  0
   24.7442  -16.2832  -16.9001 C   0  0  2  0  0  0  0  0  0  0  0  0
   23.9515  -16.0647  -18.0739 N   0  0  0  0  0  0  0  0  0  0  0  0
   25.0029  -17.6993  -16.6257 C   0  0  0  0  0  0  0  0  0  0  0  0
   23.9898  -18.4762  -16.5654 O   0  0  0  0  0  0  0  0  0  0  0  0
   27.3218  -22.2760  -17.4309 C   0  0  0  0  0  0  0  0  0  0  0  0
   28.3682  -21.3139  -16.7516 C   0  0  1  0  0  0  0  0  0  0  0  0
   29.6459  -21.5977  -17.5193 C   0  0  0  0  0  0  0  0  0  0  0  0
   27.8215  -19.9593  -16.8985 C   0  0  0  0  0  0  0  0  0  0  0  0
   26.5741  -19.6278  -16.1624 C   0  0  2  0  0  0  0  0  0  0  0  0
   26.3058  -18.1720  -16.4391 N   0  0  0  0  0  0  0  0  0  0  0  0
   26.6604  -19.7451  -14.7184 C   0  0  0  0  0  0  0  0  0  0  0  0
   27.3381  -18.8781  -14.0354 O   0  0  0  0  0  0  0  0  0  0  0  0
   26.0503  -20.7359  -13.9002 N   0  0  0  0  0  0  0  0  0  0  0  0
   26.3624  -20.8053  -12.4642 C   0  0  1  0  0  0  0  0  0  0  0  0
   25.4204  -19.7415  -11.8597 C   0  0  0  0  0  0  0  0  0  0  0  0
   25.4640  -19.8494  -10.4034 C   0  0  0  0  0  0  0  0  0  0  0  0
   26.4648  -19.1737   -9.7063 C   0  0  0  0  0  0  0  0  0  0  0  0
   26.5358  -19.2418   -8.3298 C   0  0  0  0  0  0  0  0  0  0  0  0
   25.5947  -19.9912   -7.6808 C   0  0  0  0  0  0  0  0  0  0  0  0
   24.5955  -20.6669   -8.3639 C   0  0  0  0  0  0  0  0  0  0  0  0
   24.5290  -20.5957   -9.7371 C   0  0  0  0  0  0  0  0  0  0  0  0
   26.0638  -22.1263  -11.9563 C   0  0  0  0  0  0  0  0  0  0  0  0
   25.1511  -22.8128  -12.4849 O   0  0  0  0  0  0  0  0  0  0  0  0
   26.7367  -22.6917  -10.9057 O   0  0  0  0  0  0  0  0  0  0  0  0
  2  1  1  1
  3  2  1  0
  4  5  1  6
  4  2  1  0
  6  4  1  0
  7  6  2  0
  9  8  1  6
  9 11  1  0
 10  9  1  0
 12 11  1  6
 12 13  1  0
 13  6  1  0
 14 16  1  0
 14 12  1  0
 15 14  2  0
 17 25  1  0
 17 16  1  0
 17 18  1  1
 19 18  1  0
 19 24  2  0
 20 19  1  0
 21 20  2  0
 21 22  1  0
 22 23  2  0
 23 24  1  0
 25 27  1  0
 26 25  2  0
M  END
$$$$
