VLF.pdb
     RDKit          3D

 27 27  0  0  1  0  0  0  0  0999 V2000
   21.9562  -17.5224  -13.4937 C   0  0  0  0  0  0  0  0  0  0  0  0
   20.5863  -18.0876  -13.8149 C   0  0  1  0  0  0  0  0  0  0  0  0
   19.8090  -17.0480  -14.5572 C   0  0  0  0  0  0  0  0  0  0  0  0
   20.8136  -19.3501  -14.6256 C   0  0  2  0  0  0  0  0  0  0  0  0
   19.5401  -19.8957  -14.9919 N   0  0  0  0  0  0  0  0  0  0  0  0
   21.6908  -20.3141  -13.9556 C   0  0  0  0  0  0  0  0  0  0  0  0
   21.2018  -20.9575  -12.9654 O   0  0  0  0  0  0  0  0  0  0  0  0
   24.8970  -24.4735  -14.0078 C   0  0  0  0  0  0  0  0  0  0  0  0
   25.6589  -23.1897  -14.5112 C   0  0  1  0  0  0  0  0  0  0  0  0
   26.4847  -23.7124  -15.6719 C   0  0  0  0  0  0  0  0  0  0  0  0
   24.6170  -22.2146  -14.8557 C   0  0  0  0  0  0  0  0  0  0  0  0
   23.8872  -21.5525  -13.7437 C   0  0  2  0  0  0  0  0  0  0  0  0
   23.0055  -20.5154  -14.3879 N   0  0  0  0  0  0  0  0  0  0  0  0
   24.7221  -20.8298  -12.8019 C   0  0  0  0  0  0  0  0  0  0  0  0
   25.2724  -19.7095  -13.1480 O   0  0  0  0  0  0  0  0  0  0  0  0
   25.0235  -21.2010  -11.4622 N   0  0  0  0  0  0  0  0  0  0  0  0
   26.1111  -20.5289  -10.7344 C   0  0  1  0  0  0  0  0  0  0  0  0
   25.9237  -21.0443   -9.2909 C   0  0  0  0  0  0  0  0  0  0  0  0
   26.9464  -20.4400   -8.4404 C   0  0  0  0  0  0  0  0  0  0  0  0
   26.6590  -19.2425   -7.7864 C   0  0  0  0  0  0  0  0  0  0  0  0
   27.5938  -18.6437   -6.9666 C   0  0  0  0  0  0  0  0  0  0  0  0
   28.8029  -19.2645   -6.8214 C   0  0  0  0  0  0  0  0  0  0  0  0
   29.0990  -20.4550   -7.4668 C   0  0  0  0  0  0  0  0  0  0  0  0
   28.1631  -21.0484   -8.2835 C   0  0  0  0  0  0  0  0  0  0  0  0
   27.3907  -20.9291  -11.2770 C   0  0  0  0  0  0  0  0  0  0  0  0
   27.6327  -22.1460  -11.4874 O   0  0  0  0  0  0  0  0  0  0  0  0
   28.3823  -20.0363  -11.5870 O   0  0  0  0  0  0  0  0  0  0  0  0
  2  1  1  6
  3  2  1  0
  4  5  1  1
  4  2  1  0
  6  4  1  0
  7  6  2  0
  9  8  1  6
  9 11  1  0
 10  9  1  0
 12 11  1  6
 12 13  1  0
 13  6  1  0
 14 16  1  0
 14 12  1  0
 15 14  2  0
 17 25  1  0
 17 16  1  0
 17 18  1  1
 19 18  1  0
 19 24  2  0
 20 19  1  0
 21 20  2  0
 21 22  1  0
 22 23  2  0
 23 24  1  0
 25 27  1  0
 26 25  2  0
M  END
$$$$
