VLF.pdb
     RDKit          3D

 27 27  0  0  1  0  0  0  0  0999 V2000
   26.8847  -15.9770  -17.3651 C   0  0  0  0  0  0  0  0  0  0  0  0
   26.0422  -17.0202  -16.6572 C   0  0  1  0  0  0  0  0  0  0  0  0
   25.0009  -17.5124  -17.6108 C   0  0  0  0  0  0  0  0  0  0  0  0
   26.9918  -18.1121  -16.2001 C   0  0  2  0  0  0  0  0  0  0  0  0
   27.7126  -18.5995  -17.3388 N   0  0  0  0  0  0  0  0  0  0  0  0
   26.3269  -19.1695  -15.4337 C   0  0  0  0  0  0  0  0  0  0  0  0
   26.0058  -20.2334  -16.0650 O   0  0  0  0  0  0  0  0  0  0  0  0
   25.8457  -22.4749  -11.3584 C   0  0  0  0  0  0  0  0  0  0  0  0
   25.4260  -21.0154  -10.9388 C   0  0  1  0  0  0  0  0  0  0  0  0
   26.0055  -20.8784   -9.5433 C   0  0  0  0  0  0  0  0  0  0  0  0
   25.9959  -20.1258  -11.9581 C   0  0  0  0  0  0  0  0  0  0  0  0
   25.3388  -20.0809  -13.2899 C   0  0  2  0  0  0  0  0  0  0  0  0
   26.0588  -19.0128  -14.0700 N   0  0  0  0  0  0  0  0  0  0  0  0
   23.9425  -19.6849  -13.2758 C   0  0  0  0  0  0  0  0  0  0  0  0
   23.6069  -18.5012  -12.8711 O   0  0  0  0  0  0  0  0  0  0  0  0
   22.8256  -20.4640  -13.6868 N   0  0  0  0  0  0  0  0  0  0  0  0
   21.4588  -19.9490  -13.5115 C   0  0  1  0  0  0  0  0  0  0  0  0
   21.4006  -18.7866  -14.5264 C   0  0  0  0  0  0  0  0  0  0  0  0
   21.4386  -19.3411  -15.8776 C   0  0  0  0  0  0  0  0  0  0  0  0
   22.6044  -19.9669  -16.3176 C   0  0  0  0  0  0  0  0  0  0  0  0
   22.6786  -20.5120  -17.5832 C   0  0  0  0  0  0  0  0  0  0  0  0
   21.5742  -20.4158  -18.3828 C   0  0  0  0  0  0  0  0  0  0  0  0
   20.4103  -19.7959  -17.9554 C   0  0  0  0  0  0  0  0  0  0  0  0
   20.3413  -19.2537  -16.6920 C   0  0  0  0  0  0  0  0  0  0  0  0
   20.4965  -20.9801  -13.8323 C   0  0  0  0  0  0  0  0  0  0  0  0
   19.2642  -20.7313  -13.7747 O   0  0  0  0  0  0  0  0  0  0  0  0
   20.8573  -22.2468  -14.2085 O   0  0  0  0  0  0  0  0  0  0  0  0
  2  1  1  6
  3  2  1  0
  4  5  1  6
  4  2  1  0
  6  4  1  0
  7  6  2  0
  9  8  1  6
  9 11  1  0
 10  9  1  0
 12 11  1  1
 12 13  1  0
 13  6  1  0
 14 16  1  0
 14 12  1  0
 15 14  2  0
 17 25  1  0
 17 16  1  0
 17 18  1  6
 19 18  1  0
 19 24  2  0
 20 19  1  0
 21 20  2  0
 21 22  1  0
 22 23  2  0
 23 24  1  0
 25 27  1  0
 26 25  2  0
M  END
$$$$
