VLF.pdb
     RDKit          3D

 27 27  0  0  1  0  0  0  0  0999 V2000
   23.9823  -18.2558  -16.3052 C   0  0  0  0  0  0  0  0  0  0  0  0
   23.9866  -19.1043  -17.5620 C   0  0  1  0  0  0  0  0  0  0  0  0
   23.6089  -18.2358  -18.7191 C   0  0  0  0  0  0  0  0  0  0  0  0
   25.3811  -19.6893  -17.6893 C   0  0  2  0  0  0  0  0  0  0  0  0
   25.4397  -20.4796  -18.8834 N   0  0  0  0  0  0  0  0  0  0  0  0
   25.8142  -20.4111  -16.4898 C   0  0  0  0  0  0  0  0  0  0  0  0
   25.2603  -21.5389  -16.2559 O   0  0  0  0  0  0  0  0  0  0  0  0
   29.3685  -22.0259  -12.7655 C   0  0  0  0  0  0  0  0  0  0  0  0
   29.1000  -20.4739  -12.7270 C   0  0  1  0  0  0  0  0  0  0  0  0
   30.4669  -19.8958  -12.4113 C   0  0  0  0  0  0  0  0  0  0  0  0
   28.5487  -20.1298  -14.0433 C   0  0  0  0  0  0  0  0  0  0  0  0
   27.1640  -20.5691  -14.3553 C   0  0  2  0  0  0  0  0  0  0  0  0
   26.7925  -19.8811  -15.6424 N   0  0  0  0  0  0  0  0  0  0  0  0
   26.1574  -20.1684  -13.3896 C   0  0  0  0  0  0  0  0  0  0  0  0
   25.7767  -18.9322  -13.3227 O   0  0  0  0  0  0  0  0  0  0  0  0
   25.4794  -21.0048  -12.4600 N   0  0  0  0  0  0  0  0  0  0  0  0
   24.5852  -20.4171  -11.4504 C   0  0  1  0  0  0  0  0  0  0  0  0
   23.2399  -21.1184  -11.7381 C   0  0  0  0  0  0  0  0  0  0  0  0
   22.2409  -20.6225  -10.7944 C   0  0  0  0  0  0  0  0  0  0  0  0
   22.0813  -21.2782   -9.5742 C   0  0  0  0  0  0  0  0  0  0  0  0
   21.1555  -20.8364   -8.6510 C   0  0  0  0  0  0  0  0  0  0  0  0
   20.4069  -19.7399   -8.9759 C   0  0  0  0  0  0  0  0  0  0  0  0
   20.5575  -19.0805  -10.1859 C   0  0  0  0  0  0  0  0  0  0  0  0
   21.4824  -19.5251  -11.1035 C   0  0  0  0  0  0  0  0  0  0  0  0
   25.0687  -20.7247  -10.1223 C   0  0  0  0  0  0  0  0  0  0  0  0
   25.0004  -19.8593   -9.2112 O   0  0  0  0  0  0  0  0  0  0  0  0
   25.6093  -21.9378   -9.7871 O   0  0  0  0  0  0  0  0  0  0  0  0
  2  1  1  1
  3  2  1  0
  4  5  1  6
  4  2  1  0
  6  4  1  0
  7  6  2  0
  9  8  1  6
  9 11  1  0
 10  9  1  0
 12 11  1  1
 12 13  1  0
 13  6  1  0
 14 16  1  0
 14 12  1  0
 15 14  2  0
 17 25  1  0
 17 16  1  0
 17 18  1  1
 19 18  1  0
 19 24  2  0
 20 19  1  0
 21 20  2  0
 21 22  1  0
 22 23  2  0
 23 24  1  0
 25 27  1  0
 26 25  2  0
M  END
$$$$
