VLF.pdb
     RDKit          3D

 27 27  0  0  1  0  0  0  0  0999 V2000
   19.9333  -18.2907  -12.3079 C   0  0  0  0  0  0  0  0  0  0  0  0
   21.1759  -18.9633  -11.7575 C   0  0  1  0  0  0  0  0  0  0  0  0
   20.8544  -19.5149  -10.4054 C   0  0  0  0  0  0  0  0  0  0  0  0
   21.5718  -20.0346  -12.7568 C   0  0  2  0  0  0  0  0  0  0  0  0
   20.4485  -20.8978  -12.9731 N   0  0  0  0  0  0  0  0  0  0  0  0
   22.7937  -20.7502  -12.3794 C   0  0  0  0  0  0  0  0  0  0  0  0
   22.6607  -21.7759  -11.6287 O   0  0  0  0  0  0  0  0  0  0  0  0
   28.1332  -21.4006  -15.0654 C   0  0  0  0  0  0  0  0  0  0  0  0
   27.4970  -21.6136  -13.6399 C   0  0  1  0  0  0  0  0  0  0  0  0
   28.5035  -20.9587  -12.7124 C   0  0  0  0  0  0  0  0  0  0  0  0
   26.1724  -20.9829  -13.6939 C   0  0  0  0  0  0  0  0  0  0  0  0
   25.2975  -21.0961  -12.4984 C   0  0  2  0  0  0  0  0  0  0  0  0
   24.0479  -20.3221  -12.8262 N   0  0  0  0  0  0  0  0  0  0  0  0
   25.8267  -20.4955  -11.2877 C   0  0  0  0  0  0  0  0  0  0  0  0
   25.9394  -19.2084  -11.1965 O   0  0  0  0  0  0  0  0  0  0  0  0
   26.2496  -21.1706  -10.1092 N   0  0  0  0  0  0  0  0  0  0  0  0
   27.0525  -20.4643   -9.0990 C   0  0  1  0  0  0  0  0  0  0  0  0
   26.3498  -20.8465   -7.7781 C   0  0  0  0  0  0  0  0  0  0  0  0
   27.1103  -20.2873   -6.6631 C   0  0  0  0  0  0  0  0  0  0  0  0
   27.8498  -21.1473   -5.8520 C   0  0  0  0  0  0  0  0  0  0  0  0
   28.5893  -20.6586   -4.7942 C   0  0  0  0  0  0  0  0  0  0  0  0
   28.5694  -19.3098   -4.5737 C   0  0  0  0  0  0  0  0  0  0  0  0
   27.8378  -18.4460   -5.3738 C   0  0  0  0  0  0  0  0  0  0  0  0
   27.1018  -18.9383   -6.4278 C   0  0  0  0  0  0  0  0  0  0  0  0
   28.4174  -20.9418   -9.1294 C   0  0  0  0  0  0  0  0  0  0  0  0
   28.6594  -22.1380   -9.4366 O   0  0  0  0  0  0  0  0  0  0  0  0
   29.4934  -20.1458   -8.8381 O   0  0  0  0  0  0  0  0  0  0  0  0
  2  1  1  6
  3  2  1  0
  4  5  1  1
  4  2  1  0
  6  4  1  0
  7  6  2  0
  9  8  1  6
  9 11  1  0
 10  9  1  0
 12 11  1  6
 12 13  1  0
 13  6  1  0
 14 16  1  0
 14 12  1  0
 15 14  2  0
 17 25  1  0
 17 16  1  0
 17 18  1  1
 19 18  1  0
 19 24  2  0
 20 19  1  0
 21 20  2  0
 21 22  1  0
 22 23  2  0
 23 24  1  0
 25 27  1  0
 26 25  2  0
M  END
$$$$
