VLF.pdb
     RDKit          3D

 27 27  0  0  1  0  0  0  0  0999 V2000
   12.8955  -25.9455   -3.4446 C   0  0  0  0  0  0  0  0  0  0  0  0
   13.6293  -26.4748   -2.2278 C   0  0  1  0  0  0  0  0  0  0  0  0
   12.7630  -27.4951   -1.5610 C   0  0  0  0  0  0  0  0  0  0  0  0
   14.9442  -27.0465   -2.7250 C   0  0  2  0  0  0  0  0  0  0  0  0
   14.6665  -28.0248   -3.7348 N   0  0  0  0  0  0  0  0  0  0  0  0
   15.7985  -27.5484   -1.6452 C   0  0  0  0  0  0  0  0  0  0  0  0
   15.5937  -28.7458   -1.2482 O   0  0  0  0  0  0  0  0  0  0  0  0
   21.0655  -27.2312   -1.6815 C   0  0  0  0  0  0  0  0  0  0  0  0
   19.6197  -27.8023   -1.4254 C   0  0  1  0  0  0  0  0  0  0  0  0
   19.8796  -29.2586   -1.0881 C   0  0  0  0  0  0  0  0  0  0  0  0
   19.0524  -26.9870   -0.3444 C   0  0  0  0  0  0  0  0  0  0  0  0
   17.6453  -27.2444    0.0575 C   0  0  2  0  0  0  0  0  0  0  0  0
   16.7930  -26.7445   -1.0790 N   0  0  0  0  0  0  0  0  0  0  0  0
   17.1976  -26.5210    1.2334 C   0  0  0  0  0  0  0  0  0  0  0  0
   17.1633  -25.2262    1.2259 O   0  0  0  0  0  0  0  0  0  0  0  0
   16.7487  -27.0770    2.4634 N   0  0  0  0  0  0  0  0  0  0  0  0
   16.3036  -26.1971    3.5550 C   0  0  1  0  0  0  0  0  0  0  0  0
   15.2092  -27.0394    4.2460 C   0  0  0  0  0  0  0  0  0  0  0  0
   14.7213  -26.3084    5.4131 C   0  0  0  0  0  0  0  0  0  0  0  0
   13.6887  -25.3861    5.2484 C   0  0  0  0  0  0  0  0  0  0  0  0
   13.1926  -24.6816    6.3265 C   0  0  0  0  0  0  0  0  0  0  0  0
   13.7479  -24.9207    7.5524 C   0  0  0  0  0  0  0  0  0  0  0  0
   14.7748  -25.8354    7.7272 C   0  0  0  0  0  0  0  0  0  0  0  0
   15.2661  -26.5356    6.6487 C   0  0  0  0  0  0  0  0  0  0  0  0
   17.4056  -25.9240    4.4512 C   0  0  0  0  0  0  0  0  0  0  0  0
   17.3689  -24.9177    5.2060 O   0  0  0  0  0  0  0  0  0  0  0  0
   18.5174  -26.7200    4.5312 O   0  0  0  0  0  0  0  0  0  0  0  0
  2  1  1  6
  3  2  1  0
  4  5  1  6
  4  2  1  0
  6  4  1  0
  7  6  2  0
  9  8  1  1
  9 11  1  0
 10  9  1  0
 12 11  1  6
 12 13  1  0
 13  6  1  0
 14 16  1  0
 14 12  1  0
 15 14  2  0
 17 25  1  0
 17 16  1  0
 17 18  1  1
 19 18  1  0
 19 24  2  0
 20 19  1  0
 21 20  2  0
 21 22  1  0
 22 23  2  0
 23 24  1  0
 25 27  1  0
 26 25  2  0
M  END
$$$$
