VLF.pdb
     RDKit          3D

 27 27  0  0  1  0  0  0  0  0999 V2000
   21.6571  -19.1353  -11.3084 C   0  0  0  0  0  0  0  0  0  0  0  0
   21.0888  -20.2909  -12.1090 C   0  0  1  0  0  0  0  0  0  0  0  0
   19.8544  -19.8186  -12.8084 C   0  0  0  0  0  0  0  0  0  0  0  0
   22.1788  -20.7375  -13.0657 C   0  0  2  0  0  0  0  0  0  0  0  0
   21.6380  -21.7308  -13.9459 N   0  0  0  0  0  0  0  0  0  0  0  0
   23.4030  -21.1663  -12.3836 C   0  0  0  0  0  0  0  0  0  0  0  0
   23.3655  -22.2848  -11.7664 O   0  0  0  0  0  0  0  0  0  0  0  0
   28.6754  -21.9588  -12.2163 C   0  0  0  0  0  0  0  0  0  0  0  0
   28.3086  -20.4349  -12.0574 C   0  0  1  0  0  0  0  0  0  0  0  0
   29.3891  -19.7352  -12.8606 C   0  0  0  0  0  0  0  0  0  0  0  0
   26.9399  -20.2965  -12.5700 C   0  0  0  0  0  0  0  0  0  0  0  0
   25.8287  -20.8353  -11.7439 C   0  0  2  0  0  0  0  0  0  0  0  0
   24.5585  -20.3789  -12.4119 N   0  0  0  0  0  0  0  0  0  0  0  0
   25.7654  -20.3249  -10.3867 C   0  0  0  0  0  0  0  0  0  0  0  0
   25.2893  -19.1421  -10.1588 O   0  0  0  0  0  0  0  0  0  0  0  0
   26.1659  -20.9962   -9.1982 N   0  0  0  0  0  0  0  0  0  0  0  0
   26.1159  -20.3011   -7.9026 C   0  0  1  0  0  0  0  0  0  0  0  0
   26.5077  -21.4128   -6.9050 C   0  0  0  0  0  0  0  0  0  0  0  0
   27.4805  -20.8723   -5.9584 C   0  0  0  0  0  0  0  0  0  0  0  0
   27.0433  -20.4716   -4.6964 C   0  0  0  0  0  0  0  0  0  0  0  0
   27.9313  -19.9645   -3.7697 C   0  0  0  0  0  0  0  0  0  0  0  0
   29.2456  -19.8709   -4.1332 C   0  0  0  0  0  0  0  0  0  0  0  0
   29.6909  -20.2663   -5.3850 C   0  0  0  0  0  0  0  0  0  0  0  0
   28.8011  -20.7715   -6.3060 C   0  0  0  0  0  0  0  0  0  0  0  0
   27.0712  -19.2152   -7.8865 C   0  0  0  0  0  0  0  0  0  0  0  0
   28.1094  -19.2792   -8.5949 O   0  0  0  0  0  0  0  0  0  0  0  0
   26.9069  -18.0877   -7.1263 O   0  0  0  0  0  0  0  0  0  0  0  0
  2  1  1  6
  3  2  1  0
  4  5  1  1
  4  2  1  0
  6  4  1  0
  7  6  2  0
  9  8  1  6
  9 11  1  0
 10  9  1  0
 12 11  1  6
 12 13  1  0
 13  6  1  0
 14 16  1  0
 14 12  1  0
 15 14  2  0
 17 25  1  0
 17 16  1  0
 17 18  1  1
 19 18  1  0
 19 24  2  0
 20 19  1  0
 21 20  2  0
 21 22  1  0
 22 23  2  0
 23 24  1  0
 25 27  1  0
 26 25  2  0
M  END
$$$$
