VLF.pdb
     RDKit          3D

 27 27  0  0  1  0  0  0  0  0999 V2000
   21.6545  -17.8230  -17.8017 C   0  0  0  0  0  0  0  0  0  0  0  0
   22.1796  -18.5461  -16.5766 C   0  0  1  0  0  0  0  0  0  0  0  0
   21.2482  -18.2816  -15.4371 C   0  0  0  0  0  0  0  0  0  0  0  0
   22.2682  -20.0164  -16.9416 C   0  0  2  0  0  0  0  0  0  0  0  0
   20.9732  -20.4637  -17.3618 N   0  0  0  0  0  0  0  0  0  0  0  0
   22.8536  -20.8388  -15.8793 C   0  0  0  0  0  0  0  0  0  0  0  0
   22.0650  -21.2583  -14.9651 O   0  0  0  0  0  0  0  0  0  0  0  0
   26.7150  -24.7842  -16.5176 C   0  0  0  0  0  0  0  0  0  0  0  0
   25.4062  -24.0239  -16.0805 C   0  0  1  0  0  0  0  0  0  0  0  0
   24.6852  -25.0458  -15.2214 C   0  0  0  0  0  0  0  0  0  0  0  0
   25.8594  -22.8116  -15.3876 C   0  0  0  0  0  0  0  0  0  0  0  0
   24.8315  -21.9456  -14.7543 C   0  0  2  0  0  0  0  0  0  0  0  0
   24.2178  -21.1467  -15.8738 N   0  0  0  0  0  0  0  0  0  0  0  0
   25.3438  -20.9704  -13.8093 C   0  0  0  0  0  0  0  0  0  0  0  0
   26.0426  -19.9638  -14.2287 O   0  0  0  0  0  0  0  0  0  0  0  0
   25.1570  -20.9622  -12.3991 N   0  0  0  0  0  0  0  0  0  0  0  0
   26.0396  -20.1577  -11.5400 C   0  0  1  0  0  0  0  0  0  0  0  0
   25.0400  -19.3001  -10.7339 C   0  0  0  0  0  0  0  0  0  0  0  0
   24.0811  -20.1874  -10.0800 C   0  0  0  0  0  0  0  0  0  0  0  0
   22.9847  -20.6495  -10.8071 C   0  0  0  0  0  0  0  0  0  0  0  0
   22.0608  -21.4965  -10.2297 C   0  0  0  0  0  0  0  0  0  0  0  0
   22.2600  -21.8624   -8.9279 C   0  0  0  0  0  0  0  0  0  0  0  0
   23.3464  -21.4089   -8.1959 C   0  0  0  0  0  0  0  0  0  0  0  0
   24.2653  -20.5641   -8.7765 C   0  0  0  0  0  0  0  0  0  0  0  0
   26.8116  -21.0230  -10.6755 C   0  0  0  0  0  0  0  0  0  0  0  0
   26.6309  -22.2680  -10.7067 O   0  0  0  0  0  0  0  0  0  0  0  0
   27.7567  -20.5545   -9.8018 O   0  0  0  0  0  0  0  0  0  0  0  0
  2  1  1  6
  3  2  1  0
  4  5  1  1
  4  2  1  0
  6  4  1  0
  7  6  2  0
  9  8  1  1
  9 11  1  0
 10  9  1  0
 12 11  1  6
 12 13  1  0
 13  6  1  0
 14 16  1  0
 14 12  1  0
 15 14  2  0
 17 25  1  0
 17 16  1  0
 17 18  1  1
 19 18  1  0
 19 24  2  0
 20 19  1  0
 21 20  2  0
 21 22  1  0
 22 23  2  0
 23 24  1  0
 25 27  1  0
 26 25  2  0
M  END
$$$$
