VLF.pdb
     RDKit          3D

 27 27  0  0  1  0  0  0  0  0999 V2000
   21.0340  -19.4306  -11.9150 C   0  0  0  0  0  0  0  0  0  0  0  0
   22.3061  -20.2370  -11.7394 C   0  0  1  0  0  0  0  0  0  0  0  0
   21.9301  -21.6585  -11.4674 C   0  0  0  0  0  0  0  0  0  0  0  0
   23.1093  -20.0695  -13.0160 C   0  0  2  0  0  0  0  0  0  0  0  0
   22.3082  -20.5033  -14.1223 N   0  0  0  0  0  0  0  0  0  0  0  0
   24.4234  -20.7154  -12.9581 C   0  0  0  0  0  0  0  0  0  0  0  0
   24.4678  -21.9699  -13.1988 O   0  0  0  0  0  0  0  0  0  0  0  0
   28.6522  -18.1760  -14.8860 C   0  0  0  0  0  0  0  0  0  0  0  0
   27.5077  -19.1909  -14.5088 C   0  0  1  0  0  0  0  0  0  0  0  0
   27.5088  -20.1602  -15.6761 C   0  0  0  0  0  0  0  0  0  0  0  0
   27.8861  -19.7562  -13.2079 C   0  0  0  0  0  0  0  0  0  0  0  0
   26.9167  -20.6556  -12.5305 C   0  0  2  0  0  0  0  0  0  0  0  0
   25.5747  -19.9829  -12.6518 N   0  0  0  0  0  0  0  0  0  0  0  0
   27.1372  -20.8410  -11.1080 C   0  0  0  0  0  0  0  0  0  0  0  0
   28.1427  -21.5438  -10.6925 O   0  0  0  0  0  0  0  0  0  0  0  0
   26.3590  -20.3090  -10.0427 N   0  0  0  0  0  0  0  0  0  0  0  0
   26.7109  -20.6103   -8.6465 C   0  0  1  0  0  0  0  0  0  0  0  0
   27.4121  -19.3141   -8.1852 C   0  0  0  0  0  0  0  0  0  0  0  0
   27.8505  -19.4845   -6.8020 C   0  0  0  0  0  0  0  0  0  0  0  0
   28.9395  -20.3139   -6.5366 C   0  0  0  0  0  0  0  0  0  0  0  0
   29.3913  -20.4945   -5.2451 C   0  0  0  0  0  0  0  0  0  0  0  0
   28.7355  -19.8344   -4.2439 C   0  0  0  0  0  0  0  0  0  0  0  0
   27.6520  -19.0075   -4.4966 C   0  0  0  0  0  0  0  0  0  0  0  0
   27.2052  -18.8306   -5.7866 C   0  0  0  0  0  0  0  0  0  0  0  0
   25.5123  -20.8655   -7.8781 C   0  0  0  0  0  0  0  0  0  0  0  0
   24.4060  -20.4087   -8.2668 O   0  0  0  0  0  0  0  0  0  0  0  0
   25.5094  -21.5983   -6.7209 O   0  0  0  0  0  0  0  0  0  0  0  0
  2  1  1  6
  3  2  1  0
  4  5  1  6
  4  2  1  0
  6  4  1  0
  7  6  2  0
  9  8  1  6
  9 11  1  0
 10  9  1  0
 12 11  1  1
 12 13  1  0
 13  6  1  0
 14 16  1  0
 14 12  1  0
 15 14  2  0
 17 25  1  0
 17 16  1  0
 17 18  1  1
 19 18  1  0
 19 24  2  0
 20 19  1  0
 21 20  2  0
 21 22  1  0
 22 23  2  0
 23 24  1  0
 25 27  1  0
 26 25  2  0
M  END
$$$$
