VLF.pdb
     RDKit          3D

 27 27  0  0  1  0  0  0  0  0999 V2000
   21.5988  -19.3266  -16.6062 C   0  0  0  0  0  0  0  0  0  0  0  0
   22.9856  -19.8803  -16.3421 C   0  0  1  0  0  0  0  0  0  0  0  0
   23.9912  -18.8836  -16.8229 C   0  0  0  0  0  0  0  0  0  0  0  0
   23.0751  -20.1410  -14.8498 C   0  0  2  0  0  0  0  0  0  0  0  0
   22.7561  -18.9303  -14.1527 N   0  0  0  0  0  0  0  0  0  0  0  0
   24.3548  -20.7285  -14.4440 C   0  0  0  0  0  0  0  0  0  0  0  0
   24.6090  -21.9124  -14.8532 O   0  0  0  0  0  0  0  0  0  0  0  0
   28.8485  -18.2053  -14.9966 C   0  0  0  0  0  0  0  0  0  0  0  0
   27.6421  -19.2160  -14.9232 C   0  0  1  0  0  0  0  0  0  0  0  0
   27.9846  -20.2389  -15.9902 C   0  0  0  0  0  0  0  0  0  0  0  0
   27.6206  -19.7147  -13.5427 C   0  0  0  0  0  0  0  0  0  0  0  0
   26.5314  -20.6485  -13.1561 C   0  0  2  0  0  0  0  0  0  0  0  0
   25.2538  -20.0171  -13.6430 N   0  0  0  0  0  0  0  0  0  0  0  0
   26.3583  -20.8366  -11.7274 C   0  0  0  0  0  0  0  0  0  0  0  0
   27.3912  -20.8720  -10.9468 O   0  0  0  0  0  0  0  0  0  0  0  0
   25.1305  -20.9806  -11.0236 N   0  0  0  0  0  0  0  0  0  0  0  0
   25.1206  -21.0231   -9.5531 C   0  0  1  0  0  0  0  0  0  0  0  0
   25.6363  -19.6192   -9.1688 C   0  0  0  0  0  0  0  0  0  0  0  0
   26.6954  -19.7648   -8.1731 C   0  0  0  0  0  0  0  0  0  0  0  0
   26.8042  -20.9665   -7.4744 C   0  0  0  0  0  0  0  0  0  0  0  0
   27.7962  -21.1482   -6.5323 C   0  0  0  0  0  0  0  0  0  0  0  0
   28.6613  -20.1132   -6.3120 C   0  0  0  0  0  0  0  0  0  0  0  0
   28.5621  -18.9143   -7.0009 C   0  0  0  0  0  0  0  0  0  0  0  0
   27.5709  -18.7380   -7.9397 C   0  0  0  0  0  0  0  0  0  0  0  0
   23.7736  -21.2414   -9.0736 C   0  0  0  0  0  0  0  0  0  0  0  0
   22.7952  -21.0778   -9.8480 O   0  0  0  0  0  0  0  0  0  0  0  0
   23.4917  -21.6296   -7.7905 O   0  0  0  0  0  0  0  0  0  0  0  0
  2  1  1  1
  3  2  1  0
  4  5  1  1
  4  2  1  0
  6  4  1  0
  7  6  2  0
  9  8  1  1
  9 11  1  0
 10  9  1  0
 12 11  1  1
 12 13  1  0
 13  6  1  0
 14 16  1  0
 14 12  1  0
 15 14  2  0
 17 25  1  0
 17 16  1  0
 17 18  1  1
 19 18  1  0
 19 24  2  0
 20 19  1  0
 21 20  2  0
 21 22  1  0
 22 23  2  0
 23 24  1  0
 25 27  1  0
 26 25  2  0
M  END
$$$$
