VLF.pdb
     RDKit          3D

 27 27  0  0  1  0  0  0  0  0999 V2000
   34.3610  -27.8988  -18.7832 C   0  0  0  0  0  0  0  0  0  0  0  0
   33.3515  -29.0231  -18.6565 C   0  0  1  0  0  0  0  0  0  0  0  0
   32.1733  -28.5154  -17.8884 C   0  0  0  0  0  0  0  0  0  0  0  0
   32.9986  -29.4545  -20.0680 C   0  0  2  0  0  0  0  0  0  0  0  0
   32.5379  -28.3093  -20.7960 N   0  0  0  0  0  0  0  0  0  0  0  0
   32.0672  -30.5852  -20.1083 C   0  0  0  0  0  0  0  0  0  0  0  0
   30.8504  -30.3284  -20.4031 O   0  0  0  0  0  0  0  0  0  0  0  0
   33.4499  -35.7889  -21.8302 C   0  0  0  0  0  0  0  0  0  0  0  0
   32.5967  -34.4674  -21.7409 C   0  0  1  0  0  0  0  0  0  0  0  0
   31.3556  -34.8039  -22.5463 C   0  0  0  0  0  0  0  0  0  0  0  0
   32.3832  -34.2243  -20.3089 C   0  0  0  0  0  0  0  0  0  0  0  0
   31.5538  -33.0556  -19.9167 C   0  0  2  0  0  0  0  0  0  0  0  0
   32.4999  -31.8867  -19.8344 N   0  0  0  0  0  0  0  0  0  0  0  0
   30.9318  -33.1517  -18.6089 C   0  0  0  0  0  0  0  0  0  0  0  0
   31.6655  -33.2212  -17.5439 O   0  0  0  0  0  0  0  0  0  0  0  0
   29.5389  -33.1650  -18.3204 N   0  0  0  0  0  0  0  0  0  0  0  0
   29.0719  -33.2726  -16.9295 C   0  0  1  0  0  0  0  0  0  0  0  0
   27.6803  -32.6057  -16.9855 C   0  0  0  0  0  0  0  0  0  0  0  0
   26.9307  -32.9829  -15.7896 C   0  0  0  0  0  0  0  0  0  0  0  0
   26.1771  -34.1559  -15.8075 C   0  0  0  0  0  0  0  0  0  0  0  0
   25.4621  -34.5530  -14.6959 C   0  0  0  0  0  0  0  0  0  0  0  0
   25.5205  -33.7585  -13.5852 C   0  0  0  0  0  0  0  0  0  0  0  0
   26.2665  -32.5905  -13.5565 C   0  0  0  0  0  0  0  0  0  0  0  0
   26.9780  -32.1988  -14.6680 C   0  0  0  0  0  0  0  0  0  0  0  0
   28.9767  -34.6639  -16.5457 C   0  0  0  0  0  0  0  0  0  0  0  0
   29.2264  -35.0090  -15.3615 O   0  0  0  0  0  0  0  0  0  0  0  0
   28.6179  -35.6563  -17.4191 O   0  0  0  0  0  0  0  0  0  0  0  0
  2  1  1  6
  3  2  1  0
  4  5  1  6
  4  2  1  0
  6  4  1  0
  7  6  2  0
  9  8  1  1
  9 11  1  0
 10  9  1  0
 12 11  1  1
 12 13  1  0
 13  6  1  0
 14 16  1  0
 14 12  1  0
 15 14  2  0
 17 25  1  0
 17 16  1  0
 17 18  1  6
 19 18  1  0
 19 24  2  0
 20 19  1  0
 21 20  2  0
 21 22  1  0
 22 23  2  0
 23 24  1  0
 25 27  1  0
 26 25  2  0
M  END
$$$$
