VLF.pdb
     RDKit          3D

 27 27  0  0  1  0  0  0  0  0999 V2000
   23.6181  -16.5646  -16.6030 C   0  0  0  0  0  0  0  0  0  0  0  0
   23.9821  -17.8513  -15.8880 C   0  0  1  0  0  0  0  0  0  0  0  0
   22.9801  -18.8973  -16.2592 C   0  0  0  0  0  0  0  0  0  0  0  0
   25.3947  -18.2043  -16.3158 C   0  0  2  0  0  0  0  0  0  0  0  0
   25.4203  -18.3456  -17.7417 N   0  0  0  0  0  0  0  0  0  0  0  0
   25.9385  -19.3643  -15.6044 C   0  0  0  0  0  0  0  0  0  0  0  0
   25.8236  -20.5034  -16.1725 O   0  0  0  0  0  0  0  0  0  0  0  0
   29.6685  -21.9314  -12.9494 C   0  0  0  0  0  0  0  0  0  0  0  0
   28.9267  -20.9374  -11.9778 C   0  0  1  0  0  0  0  0  0  0  0  0
   30.0533  -20.3853  -11.1244 C   0  0  0  0  0  0  0  0  0  0  0  0
   28.2444  -19.9665  -12.8421 C   0  0  0  0  0  0  0  0  0  0  0  0
   27.0425  -20.4214  -13.5879 C   0  0  2  0  0  0  0  0  0  0  0  0
   26.5553  -19.2220  -14.3573 N   0  0  0  0  0  0  0  0  0  0  0  0
   25.9253  -20.8395  -12.7611 C   0  0  0  0  0  0  0  0  0  0  0  0
   26.1100  -21.6870  -11.7993 O   0  0  0  0  0  0  0  0  0  0  0  0
   24.5744  -20.4051  -12.8611 N   0  0  0  0  0  0  0  0  0  0  0  0
   23.6050  -20.7536  -11.8108 C   0  0  1  0  0  0  0  0  0  0  0  0
   23.6697  -19.5314  -10.8692 C   0  0  0  0  0  0  0  0  0  0  0  0
   24.5298  -19.8583   -9.7344 C   0  0  0  0  0  0  0  0  0  0  0  0
   25.7037  -19.1300   -9.5456 C   0  0  0  0  0  0  0  0  0  0  0  0
   26.5391  -19.4007   -8.4810 C   0  0  0  0  0  0  0  0  0  0  0  0
   26.1746  -20.4023   -7.6253 C   0  0  0  0  0  0  0  0  0  0  0  0
   25.0099  -21.1325   -7.8036 C   0  0  0  0  0  0  0  0  0  0  0  0
   24.1798  -20.8586   -8.8672 C   0  0  0  0  0  0  0  0  0  0  0  0
   22.2870  -20.9091  -12.3859 C   0  0  0  0  0  0  0  0  0  0  0  0
   22.0909  -20.6269  -13.5965 O   0  0  0  0  0  0  0  0  0  0  0  0
   21.2094  -21.3610  -11.6712 O   0  0  0  0  0  0  0  0  0  0  0  0
  2  1  1  6
  3  2  1  0
  4  5  1  6
  4  2  1  0
  6  4  1  0
  7  6  2  0
  9  8  1  6
  9 11  1  0
 10  9  1  0
 12 11  1  1
 12 13  1  0
 13  6  1  0
 14 16  1  0
 14 12  1  0
 15 14  2  0
 17 25  1  0
 17 16  1  0
 17 18  1  1
 19 18  1  0
 19 24  2  0
 20 19  1  0
 21 20  2  0
 21 22  1  0
 22 23  2  0
 23 24  1  0
 25 27  1  0
 26 25  2  0
M  END
$$$$
