FDV.pdb
     RDKit          3D

 27 27  0  0  1  0  0  0  0  0999 V2000
    7.5557  -15.6820   20.5865 N   0  0  0  0  0  0  0  0  0  0  0  0
    7.8515  -15.0008   21.8440 C   0  0  1  0  0  0  0  0  0  0  0  0
    6.5975  -14.4412   22.4194 C   0  0  0  0  0  0  0  0  0  0  0  0
    6.8311  -13.7481   23.6877 C   0  0  0  0  0  0  0  0  0  0  0  0
    6.5449  -14.3340   24.9246 C   0  0  0  0  0  0  0  0  0  0  0  0
    6.7695  -13.6863   26.1160 C   0  0  0  0  0  0  0  0  0  0  0  0
    7.2953  -12.4114   26.1321 C   0  0  0  0  0  0  0  0  0  0  0  0
    7.5869  -11.8102   24.9269 C   0  0  0  0  0  0  0  0  0  0  0  0
    7.3548  -12.4775   23.7203 C   0  0  0  0  0  0  0  0  0  0  0  0
    8.5853  -15.9317   22.7305 C   0  0  0  0  0  0  0  0  0  0  0  0
    8.1112  -17.0435   23.0796 O   0  0  0  0  0  0  0  0  0  0  0  0
    9.8819  -15.6300   23.2495 N   0  0  0  0  0  0  0  0  0  0  0  0
   10.6390  -16.5654   24.0443 C   0  0  1  0  0  0  0  0  0  0  0  0
   11.8100  -17.1285   23.2889 C   0  0  0  0  0  0  0  0  0  0  0  0
   12.5402  -18.1615   24.0386 C   0  0  0  0  0  0  0  0  0  0  0  0
   13.6591  -18.0036   24.5893 O   0  0  0  0  0  0  0  0  0  0  0  0
   11.0321  -15.9726   25.3460 C   0  0  0  0  0  0  0  0  0  0  0  0
   11.5965  -14.8507   25.3345 O   0  0  0  0  0  0  0  0  0  0  0  0
   11.9559  -19.4153   24.1534 O   0  0  0  0  0  0  0  0  0  0  0  0
    9.0579  -15.0365   28.2424 C   0  0  0  0  0  0  0  0  0  0  0  0
   10.5341  -14.7658   28.0134 C   0  0  2  0  0  0  0  0  0  0  0  0
   10.6969  -13.8982   26.7983 C   0  0  0  0  0  0  0  0  0  0  0  0
   11.1995  -16.1180   27.8545 C   0  0  2  0  0  0  0  0  0  0  0  0
   10.7805  -16.6481   26.5696 N   0  0  0  0  0  0  0  0  0  0  0  0
   10.7977  -17.0492   28.9624 C   0  0  0  0  0  0  0  0  0  0  0  0
   10.0412  -18.0332   28.7660 O   0  0  0  0  0  0  0  0  0  0  0  0
   11.2500  -16.8584   30.2594 O   0  0  0  0  0  0  0  0  0  0  0  0
  2  1  1  6
  2 10  1  0
  3  4  1  0
  3  2  1  0
  4  9  2  0
  5  4  1  0
  5  6  2  0
  6  7  1  0
  7  8  2  0
  9  8  1  0
 10 11  2  0
 12 10  1  0
 12 13  1  0
 13 17  1  0
 13 14  1  6
 15 14  1  0
 15 19  1  0
 16 15  2  0
 17 24  1  0
 18 17  2  0
 21 20  1  6
 21 22  1  0
 23 21  1  0
 23 24  1  6
 25 23  1  0
 25 27  1  0
 26 25  2  0
M  END
$$$$
