FDV.pdb
     RDKit          3D

 27 27  0  0  1  0  0  0  0  0999 V2000
    6.2447  -17.9989   23.2727 N   0  0  0  0  0  0  0  0  0  0  0  0
    6.8364  -16.7408   23.7196 C   0  0  1  0  0  0  0  0  0  0  0  0
    5.9630  -16.1122   24.7486 C   0  0  0  0  0  0  0  0  0  0  0  0
    6.3067  -14.7087   24.9844 C   0  0  0  0  0  0  0  0  0  0  0  0
    7.0297  -13.9496   24.0590 C   0  0  0  0  0  0  0  0  0  0  0  0
    7.3477  -12.6302   24.2768 C   0  0  0  0  0  0  0  0  0  0  0  0
    6.9567  -11.9978   25.4385 C   0  0  0  0  0  0  0  0  0  0  0  0
    6.2427  -12.7228   26.3678 C   0  0  0  0  0  0  0  0  0  0  0  0
    5.9241  -14.0645   26.1369 C   0  0  0  0  0  0  0  0  0  0  0  0
    8.2290  -16.9948   24.1520 C   0  0  0  0  0  0  0  0  0  0  0  0
    8.5242  -17.8995   24.9749 O   0  0  0  0  0  0  0  0  0  0  0  0
    9.3322  -16.2292   23.6635 N   0  0  0  0  0  0  0  0  0  0  0  0
   10.7040  -16.5735   23.9457 C   0  0  1  0  0  0  0  0  0  0  0  0
   11.6142  -16.2522   22.7937 C   0  0  0  0  0  0  0  0  0  0  0  0
   13.0012  -16.6891   23.0121 C   0  0  0  0  0  0  0  0  0  0  0  0
   14.0248  -15.9976   22.7792 O   0  0  0  0  0  0  0  0  0  0  0  0
   11.1610  -15.9668   25.2198 C   0  0  0  0  0  0  0  0  0  0  0  0
   11.7321  -14.8495   25.1673 O   0  0  0  0  0  0  0  0  0  0  0  0
   13.2080  -17.9659   23.5157 O   0  0  0  0  0  0  0  0  0  0  0  0
    9.5208  -14.8667   28.1091 C   0  0  0  0  0  0  0  0  0  0  0  0
   11.0226  -14.7414   27.9253 C   0  0  2  0  0  0  0  0  0  0  0  0
   11.3064  -13.8302   26.7656 C   0  0  0  0  0  0  0  0  0  0  0  0
   11.5469  -16.1456   27.7019 C   0  0  2  0  0  0  0  0  0  0  0  0
   10.9617  -16.6244   26.4627 N   0  0  0  0  0  0  0  0  0  0  0  0
   11.1715  -17.0481   28.8424 C   0  0  0  0  0  0  0  0  0  0  0  0
   10.3887  -18.0199   28.6949 O   0  0  0  0  0  0  0  0  0  0  0  0
   11.6790  -16.8430   30.1166 O   0  0  0  0  0  0  0  0  0  0  0  0
  2  1  1  1
  2 10  1  0
  3  4  1  0
  3  2  1  0
  4  9  2  0
  5  4  1  0
  5  6  2  0
  6  7  1  0
  7  8  2  0
  9  8  1  0
 10 11  2  0
 12 10  1  0
 12 13  1  0
 13 17  1  0
 13 14  1  6
 15 14  1  0
 15 19  1  0
 16 15  2  0
 17 24  1  0
 18 17  2  0
 21 20  1  6
 21 22  1  0
 23 21  1  0
 23 24  1  6
 25 23  1  0
 25 27  1  0
 26 25  2  0
M  END
$$$$
