FDV.pdb
     RDKit          3D

 27 27  0  0  1  0  0  0  0  0999 V2000
    6.4819  -15.2056   21.6701 N   0  0  0  0  0  0  0  0  0  0  0  0
    7.9009  -15.0510   21.9787 C   0  0  1  0  0  0  0  0  0  0  0  0
    8.1924  -13.6274   22.3029 C   0  0  0  0  0  0  0  0  0  0  0  0
    7.7974  -13.2784   23.6688 C   0  0  0  0  0  0  0  0  0  0  0  0
    8.6632  -13.4199   24.7576 C   0  0  0  0  0  0  0  0  0  0  0  0
    8.2953  -13.0869   26.0394 C   0  0  0  0  0  0  0  0  0  0  0  0
    7.0347  -12.5920   26.3002 C   0  0  0  0  0  0  0  0  0  0  0  0
    6.1609  -12.4422   25.2451 C   0  0  0  0  0  0  0  0  0  0  0  0
    6.5448  -12.7838   23.9448 C   0  0  0  0  0  0  0  0  0  0  0  0
    8.2685  -16.0208   23.0347 C   0  0  0  0  0  0  0  0  0  0  0  0
    7.4064  -16.6471   23.7035 O   0  0  0  0  0  0  0  0  0  0  0  0
    9.6279  -16.3110   23.3656 N   0  0  0  0  0  0  0  0  0  0  0  0
    9.9954  -17.2980   24.3508 C   0  0  1  0  0  0  0  0  0  0  0  0
   10.6487  -18.4999   23.7282 C   0  0  0  0  0  0  0  0  0  0  0  0
   10.9418  -19.5666   24.6968 C   0  0  0  0  0  0  0  0  0  0  0  0
   10.6950  -20.7876   24.5282 O   0  0  0  0  0  0  0  0  0  0  0  0
   10.8148  -16.7005   25.4333 C   0  0  0  0  0  0  0  0  0  0  0  0
   11.9646  -16.2884   25.1409 O   0  0  0  0  0  0  0  0  0  0  0  0
   11.5391  -19.2075   25.8972 O   0  0  0  0  0  0  0  0  0  0  0  0
    9.0172  -15.2170   28.7165 C   0  0  0  0  0  0  0  0  0  0  0  0
   10.4341  -14.8171   28.3457 C   0  0  2  0  0  0  0  0  0  0  0  0
   10.3884  -13.7399   27.3002 C   0  0  0  0  0  0  0  0  0  0  0  0
   11.1208  -16.0751   27.8534 C   0  0  2  0  0  0  0  0  0  0  0  0
   10.3196  -16.5951   26.7601 N   0  0  0  0  0  0  0  0  0  0  0  0
   11.2322  -17.0929   28.9524 C   0  0  0  0  0  0  0  0  0  0  0  0
   10.5038  -18.1161   28.9910 O   0  0  0  0  0  0  0  0  0  0  0  0
   12.1526  -16.9427   29.9788 O   0  0  0  0  0  0  0  0  0  0  0  0
  2  1  1  1
  2 10  1  0
  3  4  1  0
  3  2  1  0
  4  9  2  0
  5  4  1  0
  5  6  2  0
  6  7  1  0
  7  8  2  0
  9  8  1  0
 10 11  2  0
 12 10  1  0
 12 13  1  0
 13 17  1  0
 13 14  1  6
 15 14  1  0
 15 19  1  0
 16 15  2  0
 17 24  1  0
 18 17  2  0
 21 20  1  6
 21 22  1  0
 23 21  1  0
 23 24  1  6
 25 23  1  0
 25 27  1  0
 26 25  2  0
M  END
$$$$
