FDV.pdb
     RDKit          3D

 27 27  0  0  1  0  0  0  0  0999 V2000
    6.8116  -18.0001   20.5065 N   0  0  0  0  0  0  0  0  0  0  0  0
    7.4362  -16.7683   20.9812 C   0  0  1  0  0  0  0  0  0  0  0  0
    6.3845  -15.7947   21.3846 C   0  0  0  0  0  0  0  0  0  0  0  0
    6.9521  -14.5307   21.8577 C   0  0  0  0  0  0  0  0  0  0  0  0
    6.9675  -14.1769   23.2103 C   0  0  0  0  0  0  0  0  0  0  0  0
    7.5055  -12.9931   23.6560 C   0  0  0  0  0  0  0  0  0  0  0  0
    8.0593  -12.0965   22.7664 C   0  0  0  0  0  0  0  0  0  0  0  0
    8.0575  -12.4201   21.4269 C   0  0  0  0  0  0  0  0  0  0  0  0
    7.5078  -13.6269   20.9836 C   0  0  0  0  0  0  0  0  0  0  0  0
    8.4148  -17.1059   22.0392 C   0  0  0  0  0  0  0  0  0  0  0  0
    8.1276  -17.8560   23.0075 O   0  0  0  0  0  0  0  0  0  0  0  0
    9.7520  -16.6024   22.0318 N   0  0  0  0  0  0  0  0  0  0  0  0
   10.6989  -16.8933   23.0799 C   0  0  1  0  0  0  0  0  0  0  0  0
   12.0741  -17.1648   22.5376 C   0  0  0  0  0  0  0  0  0  0  0  0
   13.0410  -17.5491   23.5767 C   0  0  0  0  0  0  0  0  0  0  0  0
   12.8133  -18.3488   24.5195 O   0  0  0  0  0  0  0  0  0  0  0  0
   10.6947  -15.8352   24.1194 C   0  0  0  0  0  0  0  0  0  0  0  0
   11.3545  -14.7899   23.8969 O   0  0  0  0  0  0  0  0  0  0  0  0
   14.3100  -16.9896   23.5216 O   0  0  0  0  0  0  0  0  0  0  0  0
    9.1935  -13.1927   27.6227 C   0  0  0  0  0  0  0  0  0  0  0  0
    9.0182  -14.0941   26.4136 C   0  0  2  0  0  0  0  0  0  0  0  0
    7.6619  -14.7371   26.4664 C   0  0  0  0  0  0  0  0  0  0  0  0
   10.1435  -15.1077   26.4664 C   0  0  2  0  0  0  0  0  0  0  0  0
    9.9693  -15.9940   25.3299 N   0  0  0  0  0  0  0  0  0  0  0  0
   10.1063  -15.8870   27.7499 C   0  0  0  0  0  0  0  0  0  0  0  0
    9.7547  -17.0928   27.7888 O   0  0  0  0  0  0  0  0  0  0  0  0
   10.4619  -15.3012   28.9556 O   0  0  0  0  0  0  0  0  0  0  0  0
  2  1  1  1
  2 10  1  0
  3  4  1  0
  3  2  1  0
  4  9  2  0
  5  4  1  0
  5  6  2  0
  6  7  1  0
  7  8  2  0
  9  8  1  0
 10 11  2  0
 12 10  1  0
 12 13  1  0
 13 17  1  0
 13 14  1  6
 15 14  1  0
 15 19  1  0
 16 15  2  0
 17 24  1  0
 18 17  2  0
 21 20  1  1
 21 22  1  0
 23 21  1  0
 23 24  1  6
 25 23  1  0
 25 27  1  0
 26 25  2  0
M  END
$$$$
