FDV.pdb
     RDKit          3D

 27 27  0  0  1  0  0  0  0  0999 V2000
    9.6402  -16.0978   21.1034 N   0  0  0  0  0  0  0  0  0  0  0  0
    9.1429  -15.3583   22.2603 C   0  0  1  0  0  0  0  0  0  0  0  0
    7.7246  -14.9659   22.0342 C   0  0  0  0  0  0  0  0  0  0  0  0
    7.5765  -14.0546   20.8979 C   0  0  0  0  0  0  0  0  0  0  0  0
    8.1949  -12.8011   20.8583 C   0  0  0  0  0  0  0  0  0  0  0  0
    8.0612  -11.9473   19.7894 C   0  0  0  0  0  0  0  0  0  0  0  0
    7.2975  -12.3052   18.6982 C   0  0  0  0  0  0  0  0  0  0  0  0
    6.6767  -13.5354   18.7110 C   0  0  0  0  0  0  0  0  0  0  0  0
    6.8189  -14.3968   19.8031 C   0  0  0  0  0  0  0  0  0  0  0  0
    9.3825  -16.1619   23.4800 C   0  0  0  0  0  0  0  0  0  0  0  0
    8.6035  -16.1356   24.4675 O   0  0  0  0  0  0  0  0  0  0  0  0
   10.5152  -17.0220   23.6178 N   0  0  0  0  0  0  0  0  0  0  0  0
   10.8291  -17.7043   24.8490 C   0  0  1  0  0  0  0  0  0  0  0  0
   11.7862  -18.8430   24.6342 C   0  0  0  0  0  0  0  0  0  0  0  0
   11.2592  -19.8811   23.7360 C   0  0  0  0  0  0  0  0  0  0  0  0
   10.0736  -20.2989   23.7268 O   0  0  0  0  0  0  0  0  0  0  0  0
   11.2970  -16.7545   25.8878 C   0  0  0  0  0  0  0  0  0  0  0  0
   12.5171  -16.4572   25.9056 O   0  0  0  0  0  0  0  0  0  0  0  0
   12.1326  -20.4523   22.8208 O   0  0  0  0  0  0  0  0  0  0  0  0
    8.5694  -14.8214   28.4998 C   0  0  0  0  0  0  0  0  0  0  0  0
    9.9672  -14.3006   28.2168 C   0  0  2  0  0  0  0  0  0  0  0  0
    9.9336  -13.4274   26.9952 C   0  0  0  0  0  0  0  0  0  0  0  0
   10.8510  -15.5181   28.0358 C   0  0  2  0  0  0  0  0  0  0  0  0
   10.3980  -16.1961   26.8347 N   0  0  0  0  0  0  0  0  0  0  0  0
   10.7556  -16.4338   29.2226 C   0  0  0  0  0  0  0  0  0  0  0  0
   10.1130  -17.5129   29.1832 O   0  0  0  0  0  0  0  0  0  0  0  0
   11.3792  -16.1219   30.4215 O   0  0  0  0  0  0  0  0  0  0  0  0
  2  1  1  6
  2 10  1  0
  3  4  1  0
  3  2  1  0
  4  9  2  0
  5  4  1  0
  5  6  2  0
  6  7  1  0
  7  8  2  0
  9  8  1  0
 10 11  2  0
 12 10  1  0
 12 13  1  0
 13 17  1  0
 13 14  1  6
 15 14  1  0
 15 19  1  0
 16 15  2  0
 17 24  1  0
 18 17  2  0
 21 20  1  6
 21 22  1  0
 23 21  1  0
 23 24  1  6
 25 23  1  0
 25 27  1  0
 26 25  2  0
M  END
$$$$
