FDV.pdb
     RDKit          3D

 27 27  0  0  1  0  0  0  0  0999 V2000
    7.3707  -16.9297   21.6000 N   0  0  0  0  0  0  0  0  0  0  0  0
    7.6705  -16.0042   22.6893 C   0  0  1  0  0  0  0  0  0  0  0  0
    6.4466  -15.7757   23.5058 C   0  0  0  0  0  0  0  0  0  0  0  0
    6.6878  -14.8572   24.6201 C   0  0  0  0  0  0  0  0  0  0  0  0
    7.1967  -13.5686   24.4312 C   0  0  0  0  0  0  0  0  0  0  0  0
    7.4178  -12.7035   25.4761 C   0  0  0  0  0  0  0  0  0  0  0  0
    7.1396  -13.0846   26.7721 C   0  0  0  0  0  0  0  0  0  0  0  0
    6.6370  -14.3496   26.9869 C   0  0  0  0  0  0  0  0  0  0  0  0
    6.4155  -15.2223   25.9171 C   0  0  0  0  0  0  0  0  0  0  0  0
    8.8382  -16.5148   23.4421 C   0  0  0  0  0  0  0  0  0  0  0  0
    8.8756  -17.6785   23.9188 O   0  0  0  0  0  0  0  0  0  0  0  0
   10.0018  -15.7199   23.6782 N   0  0  0  0  0  0  0  0  0  0  0  0
   11.2892  -16.2954   23.9804 C   0  0  1  0  0  0  0  0  0  0  0  0
   12.3825  -15.7074   23.1331 C   0  0  0  0  0  0  0  0  0  0  0  0
   13.6810  -16.3713   23.3204 C   0  0  0  0  0  0  0  0  0  0  0  0
   14.7642  -15.7871   23.5769 O   0  0  0  0  0  0  0  0  0  0  0  0
   11.5879  -16.2170   25.4313 C   0  0  0  0  0  0  0  0  0  0  0  0
   12.6022  -16.8235   25.8563 O   0  0  0  0  0  0  0  0  0  0  0  0
   13.7257  -17.7540   23.2072 O   0  0  0  0  0  0  0  0  0  0  0  0
    8.8276  -14.3635   28.0887 C   0  0  0  0  0  0  0  0  0  0  0  0
   10.3244  -14.1907   28.2753 C   0  0  2  0  0  0  0  0  0  0  0  0
   10.7784  -12.9644   27.5365 C   0  0  0  0  0  0  0  0  0  0  0  0
   10.9718  -15.4568   27.7516 C   0  0  2  0  0  0  0  0  0  0  0  0
   10.7563  -15.4806   26.3162 N   0  0  0  0  0  0  0  0  0  0  0  0
   10.3695  -16.6743   28.3927 C   0  0  0  0  0  0  0  0  0  0  0  0
    9.5816  -17.4335   27.7747 O   0  0  0  0  0  0  0  0  0  0  0  0
   10.6617  -17.0127   29.7055 O   0  0  0  0  0  0  0  0  0  0  0  0
  2  1  1  6
  2 10  1  0
  3  4  1  0
  3  2  1  0
  4  9  2  0
  5  4  1  0
  5  6  2  0
  6  7  1  0
  7  8  2  0
  9  8  1  0
 10 11  2  0
 12 10  1  0
 12 13  1  0
 13 17  1  0
 13 14  1  6
 15 14  1  0
 15 19  1  0
 16 15  2  0
 17 24  1  0
 18 17  2  0
 21 20  1  6
 21 22  1  0
 23 21  1  0
 23 24  1  6
 25 23  1  0
 25 27  1  0
 26 25  2  0
M  END
$$$$
