FDV.pdb
     RDKit          3D

 27 27  0  0  1  0  0  0  0  0999 V2000
    6.4779  -17.8755   22.6947 N   0  0  0  0  0  0  0  0  0  0  0  0
    7.3967  -16.7404   22.7091 C   0  0  1  0  0  0  0  0  0  0  0  0
    6.6634  -15.5051   23.1002 C   0  0  0  0  0  0  0  0  0  0  0  0
    7.0190  -14.3604   22.2597 C   0  0  0  0  0  0  0  0  0  0  0  0
    6.8460  -14.3682   20.8722 C   0  0  0  0  0  0  0  0  0  0  0  0
    7.1740  -13.2917   20.0829 C   0  0  0  0  0  0  0  0  0  0  0  0
    7.6951  -12.1446   20.6439 C   0  0  0  0  0  0  0  0  0  0  0  0
    7.8760  -12.1098   22.0096 C   0  0  0  0  0  0  0  0  0  0  0  0
    7.5391  -13.2101   22.8039 C   0  0  0  0  0  0  0  0  0  0  0  0
    8.5572  -17.0761   23.5645 C   0  0  0  0  0  0  0  0  0  0  0  0
    8.4332  -17.6811   24.6605 O   0  0  0  0  0  0  0  0  0  0  0  0
    9.8968  -16.7352   23.2026 N   0  0  0  0  0  0  0  0  0  0  0  0
   11.0190  -16.9488   24.0829 C   0  0  1  0  0  0  0  0  0  0  0  0
   12.3271  -16.9311   23.3431 C   0  0  0  0  0  0  0  0  0  0  0  0
   12.3107  -17.7440   22.1179 C   0  0  0  0  0  0  0  0  0  0  0  0
   11.7976  -18.8867   22.0122 O   0  0  0  0  0  0  0  0  0  0  0  0
   10.9968  -16.0018   25.2244 C   0  0  0  0  0  0  0  0  0  0  0  0
   11.6456  -14.9322   25.1135 O   0  0  0  0  0  0  0  0  0  0  0  0
   12.9069  -17.2166   20.9808 O   0  0  0  0  0  0  0  0  0  0  0  0
    8.0230  -15.5456   27.7569 C   0  0  0  0  0  0  0  0  0  0  0  0
    9.2431  -14.6431   27.7958 C   0  0  2  0  0  0  0  0  0  0  0  0
    9.1416  -13.6235   26.6977 C   0  0  0  0  0  0  0  0  0  0  0  0
   10.4505  -15.5456   27.6400 C   0  0  2  0  0  0  0  0  0  0  0  0
   10.2665  -16.2906   26.4076 N   0  0  0  0  0  0  0  0  0  0  0  0
   10.5754  -16.4837   28.8064 C   0  0  0  0  0  0  0  0  0  0  0  0
   10.8044  -16.0731   29.9717 O   0  0  0  0  0  0  0  0  0  0  0  0
   10.4418  -17.8542   28.6423 O   0  0  0  0  0  0  0  0  0  0  0  0
  2  1  1  1
  2 10  1  0
  3  4  1  0
  3  2  1  0
  4  9  2  0
  5  4  1  0
  5  6  2  0
  6  7  1  0
  7  8  2  0
  9  8  1  0
 10 11  2  0
 12 10  1  0
 12 13  1  0
 13 17  1  0
 13 14  1  6
 15 14  1  0
 15 19  1  0
 16 15  2  0
 17 24  1  0
 18 17  2  0
 21 20  1  6
 21 22  1  0
 23 21  1  0
 23 24  1  6
 25 23  1  0
 25 27  1  0
 26 25  2  0
M  END
$$$$
