FDV.pdb
     RDKit          3D

 27 27  0  0  1  0  0  0  0  0999 V2000
    7.1288  -17.7078   21.2255 N   0  0  0  0  0  0  0  0  0  0  0  0
    7.8544  -16.5707   21.7851 C   0  0  1  0  0  0  0  0  0  0  0  0
    6.9045  -15.4612   22.0739 C   0  0  0  0  0  0  0  0  0  0  0  0
    7.2448  -14.2372   21.3464 C   0  0  0  0  0  0  0  0  0  0  0  0
    7.8926  -13.1590   21.9572 C   0  0  0  0  0  0  0  0  0  0  0  0
    8.2178  -12.0118   21.2735 C   0  0  0  0  0  0  0  0  0  0  0  0
    7.9101  -11.8827   19.9352 C   0  0  0  0  0  0  0  0  0  0  0  0
    7.2715  -12.9306   19.3082 C   0  0  0  0  0  0  0  0  0  0  0  0
    6.9450  -14.0935   20.0125 C   0  0  0  0  0  0  0  0  0  0  0  0
    8.6464  -17.0342   22.9465 C   0  0  0  0  0  0  0  0  0  0  0  0
    8.1176  -17.5914   23.9429 O   0  0  0  0  0  0  0  0  0  0  0  0
   10.0653  -16.8798   23.0141 N   0  0  0  0  0  0  0  0  0  0  0  0
   10.8417  -17.3109   24.1504 C   0  0  1  0  0  0  0  0  0  0  0  0
   12.1636  -17.8968   23.7403 C   0  0  0  0  0  0  0  0  0  0  0  0
   12.7059  -18.8469   24.7229 C   0  0  0  0  0  0  0  0  0  0  0  0
   13.5897  -19.7091   24.4872 O   0  0  0  0  0  0  0  0  0  0  0  0
   10.9854  -16.2236   25.1492 C   0  0  0  0  0  0  0  0  0  0  0  0
   11.8218  -15.3166   24.9144 O   0  0  0  0  0  0  0  0  0  0  0  0
   12.2088  -18.7961   26.0179 O   0  0  0  0  0  0  0  0  0  0  0  0
    8.1051  -15.3301   27.8881 C   0  0  0  0  0  0  0  0  0  0  0  0
    9.2883  -14.4168   27.6215 C   0  0  2  0  0  0  0  0  0  0  0  0
    9.0089  -13.5857   26.4021 C   0  0  0  0  0  0  0  0  0  0  0  0
   10.4950  -15.3167   27.4467 C   0  0  2  0  0  0  0  0  0  0  0  0
   10.2044  -16.2041   26.3351 N   0  0  0  0  0  0  0  0  0  0  0  0
   10.7610  -16.1090   28.6947 C   0  0  0  0  0  0  0  0  0  0  0  0
   10.5758  -17.3506   28.7494 O   0  0  0  0  0  0  0  0  0  0  0  0
   11.2264  -15.4957   29.8482 O   0  0  0  0  0  0  0  0  0  0  0  0
  2  1  1  1
  2 10  1  0
  3  4  1  0
  3  2  1  0
  4  9  2  0
  5  4  1  0
  5  6  2  0
  6  7  1  0
  7  8  2  0
  9  8  1  0
 10 11  2  0
 12 10  1  0
 12 13  1  0
 13 17  1  0
 13 14  1  6
 15 14  1  0
 15 19  1  0
 16 15  2  0
 17 24  1  0
 18 17  2  0
 21 20  1  6
 21 22  1  0
 23 21  1  0
 23 24  1  6
 25 23  1  0
 25 27  1  0
 26 25  2  0
M  END
$$$$
