FDV.pdb
     RDKit          3D

 27 27  0  0  1  0  0  0  0  0999 V2000
    6.1313  -16.3519   23.3768 N   0  0  0  0  0  0  0  0  0  0  0  0
    7.3486  -15.7226   22.8721 C   0  0  1  0  0  0  0  0  0  0  0  0
    7.1916  -14.2421   22.8850 C   0  0  0  0  0  0  0  0  0  0  0  0
    6.8654  -13.7314   24.2178 C   0  0  0  0  0  0  0  0  0  0  0  0
    7.0371  -12.3885   24.5674 C   0  0  0  0  0  0  0  0  0  0  0  0
    6.7256  -11.9069   25.8166 C   0  0  0  0  0  0  0  0  0  0  0  0
    6.2232  -12.7486   26.7867 C   0  0  0  0  0  0  0  0  0  0  0  0
    6.0438  -14.0775   26.4689 C   0  0  0  0  0  0  0  0  0  0  0  0
    6.3637  -14.5576   25.1953 C   0  0  0  0  0  0  0  0  0  0  0  0
    8.5053  -16.2355   23.6402 C   0  0  0  0  0  0  0  0  0  0  0  0
    8.3688  -16.9617   24.6584 O   0  0  0  0  0  0  0  0  0  0  0  0
    9.8552  -15.9400   23.2767 N   0  0  0  0  0  0  0  0  0  0  0  0
   10.9860  -16.6032   23.8779 C   0  0  1  0  0  0  0  0  0  0  0  0
   12.1707  -16.6465   22.9541 C   0  0  0  0  0  0  0  0  0  0  0  0
   13.2504  -17.5200   23.4373 C   0  0  0  0  0  0  0  0  0  0  0  0
   14.3567  -17.1258   23.8857 O   0  0  0  0  0  0  0  0  0  0  0  0
   11.3151  -16.0164   25.1999 C   0  0  0  0  0  0  0  0  0  0  0  0
   11.8560  -14.8831   25.2217 O   0  0  0  0  0  0  0  0  0  0  0  0
   13.0416  -18.8917   23.3998 O   0  0  0  0  0  0  0  0  0  0  0  0
    9.3967  -15.0369   27.9978 C   0  0  0  0  0  0  0  0  0  0  0  0
   10.9016  -14.8588   27.9045 C   0  0  2  0  0  0  0  0  0  0  0  0
   11.2219  -13.9274   26.7707 C   0  0  0  0  0  0  0  0  0  0  0  0
   11.4863  -16.2421   27.7021 C   0  0  2  0  0  0  0  0  0  0  0  0
   11.0297  -16.7098   26.4059 N   0  0  0  0  0  0  0  0  0  0  0  0
   11.0376  -17.1801   28.7861 C   0  0  0  0  0  0  0  0  0  0  0  0
   11.3635  -17.0155   29.9885 O   0  0  0  0  0  0  0  0  0  0  0  0
   10.2378  -18.2764   28.5004 O   0  0  0  0  0  0  0  0  0  0  0  0
  2  1  1  1
  2 10  1  0
  3  4  1  0
  3  2  1  0
  4  9  2  0
  5  4  1  0
  5  6  2  0
  6  7  1  0
  7  8  2  0
  9  8  1  0
 10 11  2  0
 12 10  1  0
 12 13  1  0
 13 17  1  0
 13 14  1  6
 15 14  1  0
 15 19  1  0
 16 15  2  0
 17 24  1  0
 18 17  2  0
 21 20  1  6
 21 22  1  0
 23 21  1  0
 23 24  1  6
 25 23  1  0
 25 27  1  0
 26 25  2  0
M  END
$$$$
