FDV.pdb
     RDKit          3D

 27 27  0  0  1  0  0  0  0  0999 V2000
    5.8440  -17.7088   23.8913 N   0  0  0  0  0  0  0  0  0  0  0  0
    6.8902  -16.7752   24.2997 C   0  0  1  0  0  0  0  0  0  0  0  0
    6.5316  -16.1591   25.6068 C   0  0  0  0  0  0  0  0  0  0  0  0
    6.6724  -14.7019   25.5894 C   0  0  0  0  0  0  0  0  0  0  0  0
    7.7287  -14.0597   24.9360 C   0  0  0  0  0  0  0  0  0  0  0  0
    7.8584  -12.6915   24.9141 C   0  0  0  0  0  0  0  0  0  0  0  0
    6.9328  -11.8898   25.5485 C   0  0  0  0  0  0  0  0  0  0  0  0
    5.8812  -12.4967   26.2004 C   0  0  0  0  0  0  0  0  0  0  0  0
    5.7581  -13.8894   26.2168 C   0  0  0  0  0  0  0  0  0  0  0  0
    8.1930  -17.4773   24.2757 C   0  0  0  0  0  0  0  0  0  0  0  0
    8.3250  -18.6652   24.6686 O   0  0  0  0  0  0  0  0  0  0  0  0
    9.3887  -16.8529   23.8046 N   0  0  0  0  0  0  0  0  0  0  0  0
   10.7026  -17.3785   24.0825 C   0  0  1  0  0  0  0  0  0  0  0  0
   11.6102  -17.2883   22.8879 C   0  0  0  0  0  0  0  0  0  0  0  0
   11.4577  -16.0327   22.1381 C   0  0  0  0  0  0  0  0  0  0  0  0
   10.6677  -15.1012   22.4358 O   0  0  0  0  0  0  0  0  0  0  0  0
   11.2892  -16.7521   25.2925 C   0  0  0  0  0  0  0  0  0  0  0  0
   12.5393  -16.6485   25.3535 O   0  0  0  0  0  0  0  0  0  0  0  0
   12.2445  -15.8509   21.0092 O   0  0  0  0  0  0  0  0  0  0  0  0
   10.1276  -13.6512   27.0743 C   0  0  0  0  0  0  0  0  0  0  0  0
   10.1103  -14.7385   28.1338 C   0  0  2  0  0  0  0  0  0  0  0  0
   10.5835  -14.1668   29.4395 C   0  0  0  0  0  0  0  0  0  0  0  0
   11.0094  -15.8476   27.6260 C   0  0  2  0  0  0  0  0  0  0  0  0
   10.4675  -16.2825   26.3513 N   0  0  0  0  0  0  0  0  0  0  0  0
   11.0514  -16.9934   28.5964 C   0  0  0  0  0  0  0  0  0  0  0  0
   10.1848  -17.9033   28.5928 O   0  0  0  0  0  0  0  0  0  0  0  0
   12.0583  -17.0939   29.5447 O   0  0  0  0  0  0  0  0  0  0  0  0
  2  1  1  1
  2 10  1  0
  3  4  1  0
  3  2  1  0
  4  9  2  0
  5  4  1  0
  5  6  2  0
  6  7  1  0
  7  8  2  0
  9  8  1  0
 10 11  2  0
 12 10  1  0
 12 13  1  0
 13 17  1  0
 13 14  1  6
 15 14  1  0
 15 19  1  0
 16 15  2  0
 17 24  1  0
 18 17  2  0
 21 20  1  6
 21 22  1  0
 23 21  1  0
 23 24  1  6
 25 23  1  0
 25 27  1  0
 26 25  2  0
M  END
$$$$
