FDV.pdb
     RDKit          3D

 27 27  0  0  1  0  0  0  0  0999 V2000
    6.2231  -18.2460   22.5642 N   0  0  0  0  0  0  0  0  0  0  0  0
    7.0822  -17.0673   22.4913 C   0  0  1  0  0  0  0  0  0  0  0  0
    6.3289  -15.8673   22.9490 C   0  0  0  0  0  0  0  0  0  0  0  0
    6.8589  -14.6288   22.3758 C   0  0  0  0  0  0  0  0  0  0  0  0
    6.9832  -14.4356   20.9965 C   0  0  0  0  0  0  0  0  0  0  0  0
    7.4750  -13.2709   20.4573 C   0  0  0  0  0  0  0  0  0  0  0  0
    7.8705  -12.2327   21.2745 C   0  0  0  0  0  0  0  0  0  0  0  0
    7.7586  -12.3964   22.6382 C   0  0  0  0  0  0  0  0  0  0  0  0
    7.2570  -13.5851   23.1770 C   0  0  0  0  0  0  0  0  0  0  0  0
    8.3331  -17.3412   23.2338 C   0  0  0  0  0  0  0  0  0  0  0  0
    8.3349  -17.8351   24.3908 O   0  0  0  0  0  0  0  0  0  0  0  0
    9.6230  -17.0630   22.6859 N   0  0  0  0  0  0  0  0  0  0  0  0
   10.8313  -17.1227   23.4711 C   0  0  1  0  0  0  0  0  0  0  0  0
   12.0623  -17.1567   22.6095 C   0  0  0  0  0  0  0  0  0  0  0  0
   12.0929  -18.3021   21.6880 C   0  0  0  0  0  0  0  0  0  0  0  0
   11.5613  -19.4207   21.9031 O   0  0  0  0  0  0  0  0  0  0  0  0
   10.8723  -16.0371   24.4811 C   0  0  0  0  0  0  0  0  0  0  0  0
   11.3581  -14.9315   24.1364 O   0  0  0  0  0  0  0  0  0  0  0  0
   12.7596  -18.1464   20.4805 O   0  0  0  0  0  0  0  0  0  0  0  0
    9.9517  -13.1169   27.7446 C   0  0  0  0  0  0  0  0  0  0  0  0
    9.7385  -14.0801   26.5905 C   0  0  2  0  0  0  0  0  0  0  0  0
    8.2814  -14.4328   26.5011 C   0  0  0  0  0  0  0  0  0  0  0  0
   10.6116  -15.2866   26.8708 C   0  0  2  0  0  0  0  0  0  0  0  0
   10.3790  -16.2365   25.7979 N   0  0  0  0  0  0  0  0  0  0  0  0
   10.2708  -15.9010   28.1984 C   0  0  0  0  0  0  0  0  0  0  0  0
   10.4190  -15.2784   29.2798 O   0  0  0  0  0  0  0  0  0  0  0  0
    9.7741  -17.1929   28.2847 O   0  0  0  0  0  0  0  0  0  0  0  0
  2  1  1  1
  2 10  1  0
  3  4  1  0
  3  2  1  0
  4  9  2  0
  5  4  1  0
  5  6  2  0
  6  7  1  0
  7  8  2  0
  9  8  1  0
 10 11  2  0
 12 10  1  0
 12 13  1  0
 13 17  1  0
 13 14  1  6
 15 14  1  0
 15 19  1  0
 16 15  2  0
 17 24  1  0
 18 17  2  0
 21 20  1  1
 21 22  1  0
 23 21  1  0
 23 24  1  6
 25 23  1  0
 25 27  1  0
 26 25  2  0
M  END
$$$$
