FDV.pdb
     RDKit          3D

 27 27  0  0  1  0  0  0  0  0999 V2000
    6.0501  -16.8349   25.0806 N   0  0  0  0  0  0  0  0  0  0  0  0
    6.9523  -16.5341   23.9724 C   0  0  1  0  0  0  0  0  0  0  0  0
    6.6176  -15.2012   23.3995 C   0  0  0  0  0  0  0  0  0  0  0  0
    6.8566  -14.1139   24.3505 C   0  0  0  0  0  0  0  0  0  0  0  0
    7.8047  -13.1124   24.1195 C   0  0  0  0  0  0  0  0  0  0  0  0
    8.0255  -12.0879   25.0089 C   0  0  0  0  0  0  0  0  0  0  0  0
    7.3051  -12.0115   26.1824 C   0  0  0  0  0  0  0  0  0  0  0  0
    6.3638  -12.9858   26.4353 C   0  0  0  0  0  0  0  0  0  0  0  0
    6.1466  -14.0239   25.5242 C   0  0  0  0  0  0  0  0  0  0  0  0
    8.3490  -16.6809   24.4400 C   0  0  0  0  0  0  0  0  0  0  0  0
    8.6353  -17.1747   25.5612 O   0  0  0  0  0  0  0  0  0  0  0  0
    9.4664  -16.2715   23.6491 N   0  0  0  0  0  0  0  0  0  0  0  0
   10.8193  -16.6727   23.9469 C   0  0  1  0  0  0  0  0  0  0  0  0
   11.7493  -16.4185   22.7940 C   0  0  0  0  0  0  0  0  0  0  0  0
   13.0861  -16.9992   22.9893 C   0  0  0  0  0  0  0  0  0  0  0  0
   14.1706  -16.4439   22.6798 O   0  0  0  0  0  0  0  0  0  0  0  0
   11.2974  -16.0608   25.2107 C   0  0  0  0  0  0  0  0  0  0  0  0
   12.2933  -15.2976   25.1543 O   0  0  0  0  0  0  0  0  0  0  0  0
   13.1684  -18.2616   23.5604 O   0  0  0  0  0  0  0  0  0  0  0  0
    9.1219  -15.6813   28.8485 C   0  0  0  0  0  0  0  0  0  0  0  0
   10.3695  -14.9547   28.3788 C   0  0  2  0  0  0  0  0  0  0  0  0
    9.9779  -13.8590   27.4292 C   0  0  0  0  0  0  0  0  0  0  0  0
   11.2550  -15.9980   27.7278 C   0  0  2  0  0  0  0  0  0  0  0  0
   10.6531  -16.3261   26.4481 N   0  0  0  0  0  0  0  0  0  0  0  0
   11.3621  -17.2253   28.5871 C   0  0  0  0  0  0  0  0  0  0  0  0
   10.8744  -18.3294   28.2379 O   0  0  0  0  0  0  0  0  0  0  0  0
   12.0101  -17.1886   29.8127 O   0  0  0  0  0  0  0  0  0  0  0  0
  2  1  1  1
  2 10  1  0
  3  4  1  0
  3  2  1  0
  4  9  2  0
  5  4  1  0
  5  6  2  0
  6  7  1  0
  7  8  2  0
  9  8  1  0
 10 11  2  0
 12 10  1  0
 12 13  1  0
 13 17  1  0
 13 14  1  6
 15 14  1  0
 15 19  1  0
 16 15  2  0
 17 24  1  0
 18 17  2  0
 21 20  1  6
 21 22  1  0
 23 21  1  0
 23 24  1  6
 25 23  1  0
 25 27  1  0
 26 25  2  0
M  END
$$$$
