FDV.pdb
     RDKit          3D

 27 27  0  0  1  0  0  0  0  0999 V2000
    6.5135  -17.9860   22.9811 N   0  0  0  0  0  0  0  0  0  0  0  0
    7.0508  -16.7509   23.5455 C   0  0  1  0  0  0  0  0  0  0  0  0
    6.1167  -16.2217   24.5771 C   0  0  0  0  0  0  0  0  0  0  0  0
    6.5417  -14.9191   25.0931 C   0  0  0  0  0  0  0  0  0  0  0  0
    6.5927  -14.6367   26.4616 C   0  0  0  0  0  0  0  0  0  0  0  0
    6.9972  -13.4160   26.9472 C   0  0  0  0  0  0  0  0  0  0  0  0
    7.3741  -12.4086   26.0840 C   0  0  0  0  0  0  0  0  0  0  0  0
    7.3334  -12.6602   24.7297 C   0  0  0  0  0  0  0  0  0  0  0  0
    6.9205  -13.9052   24.2457 C   0  0  0  0  0  0  0  0  0  0  0  0
    8.4297  -17.0032   24.0210 C   0  0  0  0  0  0  0  0  0  0  0  0
    8.7529  -18.0624   24.6179 O   0  0  0  0  0  0  0  0  0  0  0  0
    9.4868  -16.0602   23.8338 N   0  0  0  0  0  0  0  0  0  0  0  0
   10.8793  -16.4230   23.9298 C   0  0  1  0  0  0  0  0  0  0  0  0
   11.7201  -15.7058   22.9111 C   0  0  0  0  0  0  0  0  0  0  0  0
   13.1281  -16.1296   22.9204 C   0  0  0  0  0  0  0  0  0  0  0  0
   14.1107  -15.3775   23.1418 O   0  0  0  0  0  0  0  0  0  0  0  0
   11.3877  -16.2496   25.3125 C   0  0  0  0  0  0  0  0  0  0  0  0
   12.5929  -16.5242   25.5343 O   0  0  0  0  0  0  0  0  0  0  0  0
   13.4057  -17.4655   22.6653 O   0  0  0  0  0  0  0  0  0  0  0  0
    8.7602  -14.9110   28.3221 C   0  0  0  0  0  0  0  0  0  0  0  0
   10.2346  -14.5522   28.3727 C   0  0  2  0  0  0  0  0  0  0  0  0
   10.4554  -13.2568   27.6456 C   0  0  0  0  0  0  0  0  0  0  0  0
   10.9804  -15.7086   27.7379 C   0  0  2  0  0  0  0  0  0  0  0  0
   10.5424  -15.7879   26.3561 N   0  0  0  0  0  0  0  0  0  0  0  0
   10.6890  -16.9958   28.4552 C   0  0  0  0  0  0  0  0  0  0  0  0
    9.9899  -17.9038   27.9397 O   0  0  0  0  0  0  0  0  0  0  0  0
   11.1849  -17.2360   29.7279 O   0  0  0  0  0  0  0  0  0  0  0  0
  2  1  1  1
  2 10  1  0
  3  4  1  0
  3  2  1  0
  4  9  2  0
  5  4  1  0
  5  6  2  0
  6  7  1  0
  7  8  2  0
  9  8  1  0
 10 11  2  0
 12 10  1  0
 12 13  1  0
 13 17  1  0
 13 14  1  6
 15 14  1  0
 15 19  1  0
 16 15  2  0
 17 24  1  0
 18 17  2  0
 21 20  1  6
 21 22  1  0
 23 21  1  0
 23 24  1  6
 25 23  1  0
 25 27  1  0
 26 25  2  0
M  END
$$$$
