GIW.pdb
     RDKit          3D

 27 28  0  0  1  0  0  0  0  0999 V2000
   12.8622  -16.5440   18.2563 N   0  0  0  0  0  0  0  0  0  0  0  0
   11.6475  -17.1228   18.7536 C   0  0  0  0  0  0  0  0  0  0  0  0
   11.1266  -16.2928   19.8563 C   0  0  0  0  0  0  0  0  0  0  0  0
   11.9161  -15.9190   20.7749 O   0  0  0  0  0  0  0  0  0  0  0  0
    6.9581  -12.7141   19.2237 C   0  0  0  0  0  0  0  0  0  0  0  0
    8.2375  -13.3634   19.6689 C   0  0  0  0  0  0  0  0  0  0  0  0
    8.0031  -14.3898   20.7606 C   0  0  2  0  0  0  0  0  0  0  0  0
    7.4556  -13.7406   22.0126 C   0  0  0  0  0  0  0  0  0  0  0  0
    9.2716  -15.1242   21.1149 C   0  0  2  0  0  0  0  0  0  0  0  0
    9.7782  -15.8758   19.9629 N   0  0  0  0  0  0  0  0  0  0  0  0
    8.9834  -16.0656   22.2256 C   0  0  0  0  0  0  0  0  0  0  0  0
    8.7047  -17.2551   21.9554 O   0  0  0  0  0  0  0  0  0  0  0  0
    9.0247  -15.6234   23.5545 N   0  0  0  0  0  0  0  0  0  0  0  0
    9.0324  -16.6101   24.6513 C   0  0  1  0  0  0  0  0  0  0  0  0
    8.9825  -15.7983   25.9185 C   0  0  0  0  0  0  0  0  0  0  0  0
    7.7538  -15.0448   26.1470 C   0  0  0  0  0  0  0  0  0  0  0  0
    6.4356  -15.5356   26.0659 C   0  0  0  0  0  0  0  0  0  0  0  0
    5.5761  -14.5531   26.3061 N   0  0  0  0  0  0  0  0  0  0  0  0
    6.2333  -13.4218   26.5468 C   0  0  0  0  0  0  0  0  0  0  0  0
    5.8263  -12.1524   26.8572 C   0  0  0  0  0  0  0  0  0  0  0  0
    6.7219  -11.1311   27.0846 C   0  0  0  0  0  0  0  0  0  0  0  0
    8.0518  -11.4220   26.9908 C   0  0  0  0  0  0  0  0  0  0  0  0
    8.4995  -12.6786   26.6821 C   0  0  0  0  0  0  0  0  0  0  0  0
    7.5900  -13.7006   26.4541 C   0  0  0  0  0  0  0  0  0  0  0  0
    7.9464  -17.5468   24.4478 C   0  0  0  0  0  0  0  0  0  0  0  0
    7.9854  -18.8048   25.0347 O   0  0  0  0  0  0  0  0  0  0  0  0
    6.9548  -17.2720   23.7546 O   0  0  0  0  0  0  0  0  0  0  0  0
  2  3  1  0
  2  1  1  0
  3  4  2  0
  6  5  1  0
  7  6  1  0
  7  9  1  0
  7  8  1  1
  9 10  1  6
 10  3  1  0
 11  9  1  0
 12 11  2  0
 13 11  1  0
 14 13  1  0
 14 25  1  0
 14 15  1  1
 16 15  1  0
 17 16  2  0
 18 17  1  0
 19 18  1  0
 19 24  2  0
 20 21  2  0
 20 19  1  0
 21 22  1  0
 22 23  2  0
 23 24  1  0
 24 16  1  0
 25 26  1  0
 27 25  2  0
M  END
$$$$
