GIW.pdb
     RDKit          3D

 27 28  0  0  1  0  0  0  0  0999 V2000
    6.2026  -19.8494   20.3397 N   0  0  0  0  0  0  0  0  0  0  0  0
    6.0178  -18.8474   21.3495 C   0  0  0  0  0  0  0  0  0  0  0  0
    7.1137  -17.8632   21.2675 C   0  0  0  0  0  0  0  0  0  0  0  0
    8.3134  -18.2726   21.2668 O   0  0  0  0  0  0  0  0  0  0  0  0
    8.3468  -11.9375   19.7862 C   0  0  0  0  0  0  0  0  0  0  0  0
    8.7647  -13.2424   20.4018 C   0  0  0  0  0  0  0  0  0  0  0  0
    7.6028  -14.2091   20.5262 C   0  0  2  0  0  0  0  0  0  0  0  0
    6.4800  -13.6116   21.3455 C   0  0  0  0  0  0  0  0  0  0  0  0
    8.0260  -15.5079   21.1652 C   0  0  2  0  0  0  0  0  0  0  0  0
    6.9152  -16.4641   21.1881 N   0  0  0  0  0  0  0  0  0  0  0  0
    8.4654  -15.2342   22.5562 C   0  0  0  0  0  0  0  0  0  0  0  0
    7.7944  -14.4472   23.2604 O   0  0  0  0  0  0  0  0  0  0  0  0
    9.6149  -15.8510   23.0677 N   0  0  0  0  0  0  0  0  0  0  0  0
   10.0861  -15.5056   24.4224 C   0  0  1  0  0  0  0  0  0  0  0  0
    9.1524  -16.2195   25.3636 C   0  0  0  0  0  0  0  0  0  0  0  0
    7.8745  -15.5620   25.6173 C   0  0  0  0  0  0  0  0  0  0  0  0
    6.5909  -16.1088   25.4215 C   0  0  0  0  0  0  0  0  0  0  0  0
    5.6677  -15.2061   25.7293 N   0  0  0  0  0  0  0  0  0  0  0  0
    6.2490  -14.0766   26.1241 C   0  0  0  0  0  0  0  0  0  0  0  0
    5.7580  -12.8736   26.5542 C   0  0  0  0  0  0  0  0  0  0  0  0
    6.5840  -11.8391   26.9347 C   0  0  0  0  0  0  0  0  0  0  0  0
    7.9310  -12.0476   26.8706 C   0  0  0  0  0  0  0  0  0  0  0  0
    8.4618  -13.2360   26.4454 C   0  0  0  0  0  0  0  0  0  0  0  0
    7.6221  -14.2717   26.0637 C   0  0  0  0  0  0  0  0  0  0  0  0
   11.4898  -15.8459   24.5323 C   0  0  0  0  0  0  0  0  0  0  0  0
   12.1321  -16.5170   23.5001 O   0  0  0  0  0  0  0  0  0  0  0  0
   12.1652  -15.5588   25.5326 O   0  0  0  0  0  0  0  0  0  0  0  0
  2  3  1  0
  2  1  1  0
  3  4  2  0
  6  5  1  0
  7  6  1  0
  7  9  1  0
  7  8  1  1
  9 10  1  1
 10  3  1  0
 11  9  1  0
 12 11  2  0
 13 11  1  0
 14 13  1  0
 14 25  1  0
 14 15  1  1
 16 15  1  0
 17 16  2  0
 18 17  1  0
 19 18  1  0
 19 24  2  0
 20 21  2  0
 20 19  1  0
 21 22  1  0
 22 23  2  0
 23 24  1  0
 24 16  1  0
 25 26  1  0
 27 25  2  0
M  END
$$$$
