GIW.pdb
     RDKit          3D

 27 28  0  0  1  0  0  0  0  0999 V2000
    8.2297  -20.5895   20.0065 N   0  0  0  0  0  0  0  0  0  0  0  0
    7.6409  -19.5327   20.7774 C   0  0  0  0  0  0  0  0  0  0  0  0
    8.4396  -18.3035   20.6112 C   0  0  0  0  0  0  0  0  0  0  0  0
    9.6414  -18.3955   20.2186 O   0  0  0  0  0  0  0  0  0  0  0  0
    8.0264  -12.1100   20.1324 C   0  0  0  0  0  0  0  0  0  0  0  0
    8.8438  -13.3460   20.3792 C   0  0  0  0  0  0  0  0  0  0  0  0
    7.9725  -14.5655   20.6116 C   0  0  2  0  0  0  0  0  0  0  0  0
    7.0802  -14.3777   21.8187 C   0  0  0  0  0  0  0  0  0  0  0  0
    8.8002  -15.8097   20.8142 C   0  0  2  0  0  0  0  0  0  0  0  0
    7.9475  -17.0008   20.8648 N   0  0  0  0  0  0  0  0  0  0  0  0
    9.5438  -15.6849   22.0927 C   0  0  0  0  0  0  0  0  0  0  0  0
   10.4685  -14.8463   22.1771 O   0  0  0  0  0  0  0  0  0  0  0  0
    9.2105  -16.4965   23.1853 N   0  0  0  0  0  0  0  0  0  0  0  0
    9.8957  -16.2979   24.4767 C   0  0  1  0  0  0  0  0  0  0  0  0
    9.5567  -14.8921   24.8960 C   0  0  0  0  0  0  0  0  0  0  0  0
    8.2381  -14.7031   25.4922 C   0  0  0  0  0  0  0  0  0  0  0  0
    7.2459  -15.6867   25.6744 C   0  0  0  0  0  0  0  0  0  0  0  0
    6.1666  -15.1385   26.2189 N   0  0  0  0  0  0  0  0  0  0  0  0
    6.3672  -13.8388   26.4185 C   0  0  0  0  0  0  0  0  0  0  0  0
    5.5933  -12.8451   26.9543 C   0  0  0  0  0  0  0  0  0  0  0  0
    6.0438  -11.5488   27.0722 C   0  0  0  0  0  0  0  0  0  0  0  0
    7.3062  -11.2744   26.6326 C   0  0  0  0  0  0  0  0  0  0  0  0
    8.1114  -12.2399   26.0901 C   0  0  0  0  0  0  0  0  0  0  0  0
    7.6488  -13.5424   25.9749 C   0  0  0  0  0  0  0  0  0  0  0  0
    9.4963  -17.3515   25.3870 C   0  0  0  0  0  0  0  0  0  0  0  0
   10.1464  -17.5115   26.6037 O   0  0  0  0  0  0  0  0  0  0  0  0
    8.5756  -18.1407   25.1248 O   0  0  0  0  0  0  0  0  0  0  0  0
  2  3  1  0
  2  1  1  0
  3  4  2  0
  6  5  1  0
  7  6  1  0
  7  9  1  0
  7  8  1  1
  9 10  1  1
 10  3  1  0
 11  9  1  0
 12 11  2  0
 13 11  1  0
 14 13  1  0
 14 25  1  0
 14 15  1  1
 16 15  1  0
 17 16  2  0
 18 17  1  0
 19 18  1  0
 19 24  2  0
 20 21  2  0
 20 19  1  0
 21 22  1  0
 22 23  2  0
 23 24  1  0
 24 16  1  0
 25 26  1  0
 27 25  2  0
M  END
$$$$
