GIW.pdb
     RDKit          3D

 27 28  0  0  1  0  0  0  0  0999 V2000
    6.0363  -19.5027   20.8040 N   0  0  0  0  0  0  0  0  0  0  0  0
    5.9794  -18.3894   21.7069 C   0  0  0  0  0  0  0  0  0  0  0  0
    7.1355  -17.5053   21.4658 C   0  0  0  0  0  0  0  0  0  0  0  0
    8.1763  -17.9832   20.9223 O   0  0  0  0  0  0  0  0  0  0  0  0
    6.6747  -12.4702   19.6764 C   0  0  0  0  0  0  0  0  0  0  0  0
    7.1745  -13.8531   19.9837 C   0  0  0  0  0  0  0  0  0  0  0  0
    7.9889  -13.8910   21.2626 C   0  0  2  0  0  0  0  0  0  0  0  0
    9.2566  -13.0765   21.1277 C   0  0  0  0  0  0  0  0  0  0  0  0
    8.3619  -15.3019   21.6426 C   0  0  2  0  0  0  0  0  0  0  0  0
    7.1647  -16.1318   21.8060 N   0  0  0  0  0  0  0  0  0  0  0  0
    9.1131  -15.2685   22.9223 C   0  0  0  0  0  0  0  0  0  0  0  0
    9.6892  -14.2103   23.2598 O   0  0  0  0  0  0  0  0  0  0  0  0
    9.1723  -16.4076   23.7361 N   0  0  0  0  0  0  0  0  0  0  0  0
    9.9124  -16.3549   25.0112 C   0  0  1  0  0  0  0  0  0  0  0  0
    8.8691  -16.5168   26.0849 C   0  0  0  0  0  0  0  0  0  0  0  0
    7.7393  -15.5952   26.0224 C   0  0  0  0  0  0  0  0  0  0  0  0
    6.4211  -15.9018   25.6310 C   0  0  0  0  0  0  0  0  0  0  0  0
    5.6759  -14.8040   25.6681 N   0  0  0  0  0  0  0  0  0  0  0  0
    6.4108  -13.7679   26.0629 C   0  0  0  0  0  0  0  0  0  0  0  0
    6.1248  -12.4465   26.2762 C   0  0  0  0  0  0  0  0  0  0  0  0
    7.0768  -11.5523   26.7136 C   0  0  0  0  0  0  0  0  0  0  0  0
    8.3375  -12.0262   26.9333 C   0  0  0  0  0  0  0  0  0  0  0  0
    8.6640  -13.3405   26.7313 C   0  0  0  0  0  0  0  0  0  0  0  0
    7.6987  -14.2334   26.2901 C   0  0  0  0  0  0  0  0  0  0  0  0
   10.9642  -17.3505   24.9852 C   0  0  0  0  0  0  0  0  0  0  0  0
   11.9247  -17.3830   25.9878 O   0  0  0  0  0  0  0  0  0  0  0  0
   11.0514  -18.1996   24.0849 O   0  0  0  0  0  0  0  0  0  0  0  0
  2  3  1  0
  2  1  1  0
  3  4  2  0
  6  5  1  0
  7  6  1  0
  7  9  1  0
  7  8  1  6
  9 10  1  1
 10  3  1  0
 11  9  1  0
 12 11  2  0
 13 11  1  0
 14 13  1  0
 14 25  1  0
 14 15  1  1
 16 15  1  0
 17 16  2  0
 18 17  1  0
 19 18  1  0
 19 24  2  0
 20 21  2  0
 20 19  1  0
 21 22  1  0
 22 23  2  0
 23 24  1  0
 24 16  1  0
 25 26  1  0
 27 25  2  0
M  END
$$$$
