GIW.pdb
     RDKit          3D

 27 28  0  0  1  0  0  0  0  0999 V2000
    6.8006  -19.9890   19.6868 N   0  0  0  0  0  0  0  0  0  0  0  0
    6.4534  -18.9193   20.5774 C   0  0  0  0  0  0  0  0  0  0  0  0
    7.5923  -17.9884   20.6901 C   0  0  0  0  0  0  0  0  0  0  0  0
    8.7212  -18.3341   20.2287 O   0  0  0  0  0  0  0  0  0  0  0  0
    6.7064  -12.7734   19.8368 C   0  0  0  0  0  0  0  0  0  0  0  0
    7.3935  -14.1089   19.8653 C   0  0  0  0  0  0  0  0  0  0  0  0
    8.1268  -14.3421   21.1722 C   0  0  2  0  0  0  0  0  0  0  0  0
    9.3034  -13.4018   21.3141 C   0  0  0  0  0  0  0  0  0  0  0  0
    8.6282  -15.7600   21.2831 C   0  0  2  0  0  0  0  0  0  0  0  0
    7.5111  -16.7091   21.2901 N   0  0  0  0  0  0  0  0  0  0  0  0
    9.3954  -15.8973   22.5463 C   0  0  0  0  0  0  0  0  0  0  0  0
   10.5001  -15.3192   22.6506 O   0  0  0  0  0  0  0  0  0  0  0  0
    8.8850  -16.6636   23.6025 N   0  0  0  0  0  0  0  0  0  0  0  0
    9.6388  -16.7551   24.8674 C   0  0  1  0  0  0  0  0  0  0  0  0
    9.5674  -15.3792   25.4748 C   0  0  0  0  0  0  0  0  0  0  0  0
    8.2285  -14.8798   25.7709 C   0  0  0  0  0  0  0  0  0  0  0  0
    7.0272  -15.6152   25.7371 C   0  0  0  0  0  0  0  0  0  0  0  0
    6.0067  -14.8199   26.0335 N   0  0  0  0  0  0  0  0  0  0  0  0
    6.4442  -13.5857   26.2679 C   0  0  0  0  0  0  0  0  0  0  0  0
    5.8151  -12.4224   26.6205 C   0  0  0  0  0  0  0  0  0  0  0  0
    6.5069  -11.2497   26.8291 C   0  0  0  0  0  0  0  0  0  0  0  0
    7.8622  -11.2772   26.6722 C   0  0  0  0  0  0  0  0  0  0  0  0
    8.5287  -12.4201   26.3198 C   0  0  0  0  0  0  0  0  0  0  0  0
    7.8234  -13.5961   26.1112 C   0  0  0  0  0  0  0  0  0  0  0  0
    9.0920  -17.8352   25.6628 C   0  0  0  0  0  0  0  0  0  0  0  0
    9.6799  -18.1838   26.8717 O   0  0  0  0  0  0  0  0  0  0  0  0
    8.0956  -18.4827   25.3061 O   0  0  0  0  0  0  0  0  0  0  0  0
  2  3  1  0
  2  1  1  0
  3  4  2  0
  6  5  1  0
  7  6  1  0
  7  9  1  0
  7  8  1  6
  9 10  1  1
 10  3  1  0
 11  9  1  0
 12 11  2  0
 13 11  1  0
 14 13  1  0
 14 25  1  0
 14 15  1  1
 16 15  1  0
 17 16  2  0
 18 17  1  0
 19 18  1  0
 19 24  2  0
 20 21  2  0
 20 19  1  0
 21 22  1  0
 22 23  2  0
 23 24  1  0
 24 16  1  0
 25 26  1  0
 27 25  2  0
M  END
$$$$
