GIW.pdb
     RDKit          3D

 27 28  0  0  1  0  0  0  0  0999 V2000
   12.9858  -17.0395   18.4087 N   0  0  0  0  0  0  0  0  0  0  0  0
   11.6544  -17.3990   18.8037 C   0  0  0  0  0  0  0  0  0  0  0  0
   11.2014  -16.4924   19.8757 C   0  0  0  0  0  0  0  0  0  0  0  0
   12.0558  -16.0056   20.6758 O   0  0  0  0  0  0  0  0  0  0  0  0
    7.1342  -12.9573   19.2322 C   0  0  0  0  0  0  0  0  0  0  0  0
    8.4017  -13.6315   19.6746 C   0  0  0  0  0  0  0  0  0  0  0  0
    8.1792  -14.5218   20.8821 C   0  0  2  0  0  0  0  0  0  0  0  0
    7.7777  -13.7095   22.0935 C   0  0  0  0  0  0  0  0  0  0  0  0
    9.4155  -15.3152   21.2231 C   0  0  2  0  0  0  0  0  0  0  0  0
    9.8509  -16.1201   20.0780 N   0  0  0  0  0  0  0  0  0  0  0  0
    9.1064  -16.2132   22.3637 C   0  0  0  0  0  0  0  0  0  0  0  0
    8.8759  -17.4222   22.1385 O   0  0  0  0  0  0  0  0  0  0  0  0
    9.0750  -15.7091   23.6707 N   0  0  0  0  0  0  0  0  0  0  0  0
    9.4360  -16.5875   24.7997 C   0  0  1  0  0  0  0  0  0  0  0  0
    9.2900  -15.7340   26.0316 C   0  0  0  0  0  0  0  0  0  0  0  0
    8.0182  -15.0330   26.1765 C   0  0  0  0  0  0  0  0  0  0  0  0
    6.7295  -15.5909   26.0619 C   0  0  0  0  0  0  0  0  0  0  0  0
    5.8149  -14.6427   26.2240 N   0  0  0  0  0  0  0  0  0  0  0  0
    6.4067  -13.4717   26.4431 C   0  0  0  0  0  0  0  0  0  0  0  0
    5.9270  -12.2122   26.6818 C   0  0  0  0  0  0  0  0  0  0  0  0
    6.7626  -11.1397   26.9023 C   0  0  0  0  0  0  0  0  0  0  0  0
    8.1076  -11.3686   26.8762 C   0  0  0  0  0  0  0  0  0  0  0  0
    8.6272  -12.6132   26.6403 C   0  0  0  0  0  0  0  0  0  0  0  0
    7.7779  -13.6871   26.4188 C   0  0  0  0  0  0  0  0  0  0  0  0
    8.6168  -17.7809   24.7468 C   0  0  0  0  0  0  0  0  0  0  0  0
    7.5055  -17.8330   23.9155 O   0  0  0  0  0  0  0  0  0  0  0  0
    8.8667  -18.7874   25.4277 O   0  0  0  0  0  0  0  0  0  0  0  0
  2  3  1  0
  2  1  1  0
  3  4  2  0
  6  5  1  0
  7  6  1  0
  7  9  1  0
  7  8  1  1
  9 10  1  6
 10  3  1  0
 11  9  1  0
 12 11  2  0
 13 11  1  0
 14 13  1  0
 14 25  1  0
 14 15  1  1
 16 15  1  0
 17 16  2  0
 18 17  1  0
 19 18  1  0
 19 24  2  0
 20 21  2  0
 20 19  1  0
 21 22  1  0
 22 23  2  0
 23 24  1  0
 24 16  1  0
 25 26  1  0
 27 25  2  0
M  END
$$$$
