GIW.pdb
     RDKit          3D

 27 28  0  0  1  0  0  0  0  0999 V2000
    5.6348  -18.9204   19.2388 N   0  0  0  0  0  0  0  0  0  0  0  0
    5.5617  -18.0408   20.3696 C   0  0  0  0  0  0  0  0  0  0  0  0
    6.8057  -17.2525   20.4564 C   0  0  0  0  0  0  0  0  0  0  0  0
    7.9177  -17.8291   20.2623 O   0  0  0  0  0  0  0  0  0  0  0  0
    6.7594  -12.1770   18.8528 C   0  0  0  0  0  0  0  0  0  0  0  0
    7.1942  -13.5851   19.1437 C   0  0  0  0  0  0  0  0  0  0  0  0
    7.9293  -13.6904   20.4661 C   0  0  2  0  0  0  0  0  0  0  0  0
    9.2948  -13.0442   20.3853 C   0  0  0  0  0  0  0  0  0  0  0  0
    8.1011  -15.1262   20.8939 C   0  0  2  0  0  0  0  0  0  0  0  0
    6.8453  -15.8679   20.7475 N   0  0  0  0  0  0  0  0  0  0  0  0
    8.5226  -15.1528   22.3168 C   0  0  0  0  0  0  0  0  0  0  0  0
    7.8164  -14.5698   23.1694 O   0  0  0  0  0  0  0  0  0  0  0  0
    9.6943  -15.8225   22.6936 N   0  0  0  0  0  0  0  0  0  0  0  0
   10.0999  -15.8402   24.1119 C   0  0  1  0  0  0  0  0  0  0  0  0
    8.9087  -16.3764   24.8607 C   0  0  0  0  0  0  0  0  0  0  0  0
    8.4660  -15.5881   26.0063 C   0  0  0  0  0  0  0  0  0  0  0  0
    8.5173  -15.9679   27.3621 C   0  0  0  0  0  0  0  0  0  0  0  0
    7.9964  -15.0077   28.1162 N   0  0  0  0  0  0  0  0  0  0  0  0
    7.5942  -13.9960   27.3519 C   0  0  0  0  0  0  0  0  0  0  0  0
    7.0177  -12.7862   27.6301 C   0  0  0  0  0  0  0  0  0  0  0  0
    6.7039  -11.8797   26.6417 C   0  0  0  0  0  0  0  0  0  0  0  0
    6.9878  -12.2248   25.3524 C   0  0  0  0  0  0  0  0  0  0  0  0
    7.5634  -13.4252   25.0325 C   0  0  0  0  0  0  0  0  0  0  0  0
    7.8752  -14.3319   26.0347 C   0  0  0  0  0  0  0  0  0  0  0  0
   11.3294  -16.5954   24.2394 C   0  0  0  0  0  0  0  0  0  0  0  0
   12.2196  -16.3185   25.2687 O   0  0  0  0  0  0  0  0  0  0  0  0
   11.6345  -17.5034   23.4510 O   0  0  0  0  0  0  0  0  0  0  0  0
  2  3  1  0
  2  1  1  0
  3  4  2  0
  6  5  1  0
  7  6  1  0
  7  9  1  0
  7  8  1  6
  9 10  1  1
 10  3  1  0
 11  9  1  0
 12 11  2  0
 13 11  1  0
 14 13  1  0
 14 25  1  0
 14 15  1  1
 16 15  1  0
 17 16  2  0
 18 17  1  0
 19 18  1  0
 19 24  2  0
 20 21  2  0
 20 19  1  0
 21 22  1  0
 22 23  2  0
 23 24  1  0
 24 16  1  0
 25 26  1  0
 27 25  2  0
M  END
$$$$
