GIW.pdb
     RDKit          3D

 27 28  0  0  1  0  0  0  0  0999 V2000
   13.2278  -16.2128   18.4014 N   0  0  0  0  0  0  0  0  0  0  0  0
   11.9231  -16.7407   18.6787 C   0  0  0  0  0  0  0  0  0  0  0  0
   11.3168  -15.9851   19.7912 C   0  0  0  0  0  0  0  0  0  0  0  0
   12.0695  -15.3551   20.5933 O   0  0  0  0  0  0  0  0  0  0  0  0
    6.7586  -13.1588   19.1353 C   0  0  0  0  0  0  0  0  0  0  0  0
    8.1061  -13.6578   19.5733 C   0  0  0  0  0  0  0  0  0  0  0  0
    8.0071  -14.5813   20.7722 C   0  0  2  0  0  0  0  0  0  0  0  0
    7.4390  -13.8583   21.9736 C   0  0  0  0  0  0  0  0  0  0  0  0
    9.3516  -15.1529   21.1462 C   0  0  2  0  0  0  0  0  0  0  0  0
    9.9237  -15.9129   20.0310 N   0  0  0  0  0  0  0  0  0  0  0  0
    9.1794  -16.0521   22.3145 C   0  0  0  0  0  0  0  0  0  0  0  0
    8.9358  -17.2633   22.1166 O   0  0  0  0  0  0  0  0  0  0  0  0
    9.2894  -15.5467   23.6167 N   0  0  0  0  0  0  0  0  0  0  0  0
    9.5156  -16.4737   24.7418 C   0  0  1  0  0  0  0  0  0  0  0  0
    9.3100  -15.6497   25.9851 C   0  0  0  0  0  0  0  0  0  0  0  0
    8.0188  -14.9798   26.1017 C   0  0  0  0  0  0  0  0  0  0  0  0
    6.7471  -15.5659   25.9452 C   0  0  0  0  0  0  0  0  0  0  0  0
    5.8065  -14.6408   26.0917 N   0  0  0  0  0  0  0  0  0  0  0  0
    6.3645  -13.4591   26.3396 C   0  0  0  0  0  0  0  0  0  0  0  0
    5.8491  -12.2137   26.5780 C   0  0  0  0  0  0  0  0  0  0  0  0
    6.6530  -11.1248   26.8331 C   0  0  0  0  0  0  0  0  0  0  0  0
    8.0032  -11.3224   26.8423 C   0  0  0  0  0  0  0  0  0  0  0  0
    8.5581  -12.5520   26.6080 C   0  0  0  0  0  0  0  0  0  0  0  0
    7.7405  -13.6426   26.3514 C   0  0  0  0  0  0  0  0  0  0  0  0
    8.6483  -17.6232   24.5848 C   0  0  0  0  0  0  0  0  0  0  0  0
    7.6068  -17.5963   23.6665 O   0  0  0  0  0  0  0  0  0  0  0  0
    8.7947  -18.6601   25.2501 O   0  0  0  0  0  0  0  0  0  0  0  0
  2  3  1  0
  2  1  1  0
  3  4  2  0
  6  5  1  0
  7  6  1  0
  7  9  1  0
  7  8  1  1
  9 10  1  6
 10  3  1  0
 11  9  1  0
 12 11  2  0
 13 11  1  0
 14 13  1  0
 14 25  1  0
 14 15  1  1
 16 15  1  0
 17 16  2  0
 18 17  1  0
 19 18  1  0
 19 24  2  0
 20 21  2  0
 20 19  1  0
 21 22  1  0
 22 23  2  0
 23 24  1  0
 24 16  1  0
 25 26  1  0
 27 25  2  0
M  END
$$$$
