GIW.pdb
     RDKit          3D

 27 28  0  0  1  0  0  0  0  0999 V2000
    5.3740  -19.0785   20.3194 N   0  0  0  0  0  0  0  0  0  0  0  0
    5.2530  -17.8212   20.9994 C   0  0  0  0  0  0  0  0  0  0  0  0
    6.5690  -17.1553   21.0326 C   0  0  0  0  0  0  0  0  0  0  0  0
    7.6199  -17.8581   20.9404 O   0  0  0  0  0  0  0  0  0  0  0  0
    7.3473  -12.3022   18.8172 C   0  0  0  0  0  0  0  0  0  0  0  0
    7.5054  -13.7060   19.3280 C   0  0  0  0  0  0  0  0  0  0  0  0
    8.0618  -13.7372   20.7385 C   0  0  2  0  0  0  0  0  0  0  0  0
    9.4745  -13.1974   20.7809 C   0  0  0  0  0  0  0  0  0  0  0  0
    8.0639  -15.1350   21.3045 C   0  0  2  0  0  0  0  0  0  0  0  0
    6.7441  -15.7569   21.1631 N   0  0  0  0  0  0  0  0  0  0  0  0
    8.4215  -15.0665   22.7434 C   0  0  0  0  0  0  0  0  0  0  0  0
    7.9336  -14.1538   23.4467 O   0  0  0  0  0  0  0  0  0  0  0  0
    9.2923  -16.0125   23.3003 N   0  0  0  0  0  0  0  0  0  0  0  0
    9.9618  -15.7213   24.5823 C   0  0  1  0  0  0  0  0  0  0  0  0
    9.0385  -16.2560   25.6448 C   0  0  0  0  0  0  0  0  0  0  0  0
    7.7861  -15.5296   25.8280 C   0  0  0  0  0  0  0  0  0  0  0  0
    6.4842  -16.0275   25.6223 C   0  0  0  0  0  0  0  0  0  0  0  0
    5.5959  -15.0696   25.8577 N   0  0  0  0  0  0  0  0  0  0  0  0
    6.2181  -13.9487   26.2125 C   0  0  0  0  0  0  0  0  0  0  0  0
    5.7720  -12.7045   26.5677 C   0  0  0  0  0  0  0  0  0  0  0  0
    6.6346  -11.6901   26.9201 C   0  0  0  0  0  0  0  0  0  0  0  0
    7.9717  -11.9619   26.9059 C   0  0  0  0  0  0  0  0  0  0  0  0
    8.4581  -13.1931   26.5561 C   0  0  0  0  0  0  0  0  0  0  0  0
    7.5818  -14.2082   26.2021 C   0  0  0  0  0  0  0  0  0  0  0  0
   11.2970  -16.2821   24.5529 C   0  0  0  0  0  0  0  0  0  0  0  0
   11.7260  -17.0158   23.4546 O   0  0  0  0  0  0  0  0  0  0  0  0
   12.0988  -16.1347   25.4881 O   0  0  0  0  0  0  0  0  0  0  0  0
  2  3  1  0
  2  1  1  0
  3  4  2  0
  6  5  1  0
  7  6  1  0
  7  9  1  0
  7  8  1  6
  9 10  1  1
 10  3  1  0
 11  9  1  0
 12 11  2  0
 13 11  1  0
 14 13  1  0
 14 25  1  0
 14 15  1  1
 16 15  1  0
 17 16  2  0
 18 17  1  0
 19 18  1  0
 19 24  2  0
 20 21  2  0
 20 19  1  0
 21 22  1  0
 22 23  2  0
 23 24  1  0
 24 16  1  0
 25 26  1  0
 27 25  2  0
M  END
$$$$
