GIW.pdb
     RDKit          3D

 27 28  0  0  1  0  0  0  0  0999 V2000
    6.5500  -19.6799   19.9374 N   0  0  0  0  0  0  0  0  0  0  0  0
    6.3604  -18.6771   20.9455 C   0  0  0  0  0  0  0  0  0  0  0  0
    7.4472  -17.6835   20.8566 C   0  0  0  0  0  0  0  0  0  0  0  0
    8.5012  -17.9758   20.2159 O   0  0  0  0  0  0  0  0  0  0  0  0
    6.4138  -12.5132   19.9959 C   0  0  0  0  0  0  0  0  0  0  0  0
    7.0909  -13.8540   20.0158 C   0  0  0  0  0  0  0  0  0  0  0  0
    7.9689  -14.0282   21.2402 C   0  0  2  0  0  0  0  0  0  0  0  0
    9.1432  -13.0748   21.2107 C   0  0  0  0  0  0  0  0  0  0  0  0
    8.4957  -15.4369   21.3507 C   0  0  2  0  0  0  0  0  0  0  0  0
    7.3944  -16.3992   21.4493 N   0  0  0  0  0  0  0  0  0  0  0  0
    9.3426  -15.5355   22.5656 C   0  0  0  0  0  0  0  0  0  0  0  0
   10.4217  -14.9035   22.6055 O   0  0  0  0  0  0  0  0  0  0  0  0
    8.9345  -16.3257   23.6484 N   0  0  0  0  0  0  0  0  0  0  0  0
    9.7271  -16.3227   24.8927 C   0  0  1  0  0  0  0  0  0  0  0  0
    8.7211  -16.4416   26.0067 C   0  0  0  0  0  0  0  0  0  0  0  0
    7.6119  -15.4939   25.9702 C   0  0  0  0  0  0  0  0  0  0  0  0
    6.2732  -15.7746   25.6324 C   0  0  0  0  0  0  0  0  0  0  0  0
    5.5561  -14.6585   25.6783 N   0  0  0  0  0  0  0  0  0  0  0  0
    6.3294  -13.6344   26.0286 C   0  0  0  0  0  0  0  0  0  0  0  0
    6.0830  -12.3032   26.2299 C   0  0  0  0  0  0  0  0  0  0  0  0
    7.0714  -11.4256   26.6171 C   0  0  0  0  0  0  0  0  0  0  0  0
    8.3277  -11.9265   26.7985 C   0  0  0  0  0  0  0  0  0  0  0  0
    8.6153  -13.2513   26.6068 C   0  0  0  0  0  0  0  0  0  0  0  0
    7.6135  -14.1274   26.2163 C   0  0  0  0  0  0  0  0  0  0  0  0
   10.7248  -17.3701   24.8165 C   0  0  0  0  0  0  0  0  0  0  0  0
   11.7505  -17.4316   25.7507 O   0  0  0  0  0  0  0  0  0  0  0  0
   10.7071  -18.2395   23.9317 O   0  0  0  0  0  0  0  0  0  0  0  0
  2  3  1  0
  2  1  1  0
  3  4  2  0
  6  5  1  0
  7  6  1  0
  7  9  1  0
  7  8  1  6
  9 10  1  1
 10  3  1  0
 11  9  1  0
 12 11  2  0
 13 11  1  0
 14 13  1  0
 14 25  1  0
 14 15  1  1
 16 15  1  0
 17 16  2  0
 18 17  1  0
 19 18  1  0
 19 24  2  0
 20 21  2  0
 20 19  1  0
 21 22  1  0
 22 23  2  0
 23 24  1  0
 24 16  1  0
 25 26  1  0
 27 25  2  0
M  END
$$$$
