GIW.pdb
     RDKit          3D

 27 28  0  0  1  0  0  0  0  0999 V2000
    4.8590  -19.1475   20.1507 N   0  0  0  0  0  0  0  0  0  0  0  0
    4.9231  -17.8975   20.8517 C   0  0  0  0  0  0  0  0  0  0  0  0
    6.2985  -17.3685   20.7821 C   0  0  0  0  0  0  0  0  0  0  0  0
    7.2037  -18.0697   20.2384 O   0  0  0  0  0  0  0  0  0  0  0  0
    7.5782  -12.0237   20.1776 C   0  0  0  0  0  0  0  0  0  0  0  0
    7.3477  -13.2933   20.9467 C   0  0  0  0  0  0  0  0  0  0  0  0
    8.2584  -14.4127   20.4801 C   0  0  2  0  0  0  0  0  0  0  0  0
    7.9979  -14.7612   19.0312 C   0  0  0  0  0  0  0  0  0  0  0  0
    8.0816  -15.6571   21.3134 C   0  0  2  0  0  0  0  0  0  0  0  0
    6.6864  -16.1059   21.2909 N   0  0  0  0  0  0  0  0  0  0  0  0
    8.4764  -15.3548   22.7119 C   0  0  0  0  0  0  0  0  0  0  0  0
    7.7317  -14.6303   23.4091 O   0  0  0  0  0  0  0  0  0  0  0  0
    9.6660  -15.8760   23.2380 N   0  0  0  0  0  0  0  0  0  0  0  0
   10.0290  -15.5925   24.6395 C   0  0  1  0  0  0  0  0  0  0  0  0
    8.9558  -16.2456   25.4695 C   0  0  0  0  0  0  0  0  0  0  0  0
    7.7503  -15.4540   25.6933 C   0  0  0  0  0  0  0  0  0  0  0  0
    6.4180  -15.8794   25.5230 C   0  0  0  0  0  0  0  0  0  0  0  0
    5.5901  -14.8767   25.7896 N   0  0  0  0  0  0  0  0  0  0  0  0
    6.2821  -13.7935   26.1323 C   0  0  0  0  0  0  0  0  0  0  0  0
    5.9144  -12.5296   26.5072 C   0  0  0  0  0  0  0  0  0  0  0  0
    6.8404  -11.5657   26.8399 C   0  0  0  0  0  0  0  0  0  0  0  0
    8.1599  -11.9092   26.7850 C   0  0  0  0  0  0  0  0  0  0  0  0
    8.5686  -13.1623   26.4143 C   0  0  0  0  0  0  0  0  0  0  0  0
    7.6288  -14.1262   26.0805 C   0  0  0  0  0  0  0  0  0  0  0  0
   11.3847  -16.0456   24.8743 C   0  0  0  0  0  0  0  0  0  0  0  0
   12.0843  -16.7127   23.8773 O   0  0  0  0  0  0  0  0  0  0  0  0
   11.9676  -15.8615   25.9539 O   0  0  0  0  0  0  0  0  0  0  0  0
  2  3  1  0
  2  1  1  0
  3  4  2  0
  6  5  1  0
  7  6  1  0
  7  9  1  0
  7  8  1  6
  9 10  1  1
 10  3  1  0
 11  9  1  0
 12 11  2  0
 13 11  1  0
 14 13  1  0
 14 25  1  0
 14 15  1  1
 16 15  1  0
 17 16  2  0
 18 17  1  0
 19 18  1  0
 19 24  2  0
 20 21  2  0
 20 19  1  0
 21 22  1  0
 22 23  2  0
 23 24  1  0
 24 16  1  0
 25 26  1  0
 27 25  2  0
M  END
$$$$
