GIW.pdb
     RDKit          3D

 27 28  0  0  1  0  0  0  0  0999 V2000
    5.1998  -19.1739   22.7702 N   0  0  0  0  0  0  0  0  0  0  0  0
    5.6916  -18.6244   24.0006 C   0  0  0  0  0  0  0  0  0  0  0  0
    6.4688  -17.4036   23.7143 C   0  0  0  0  0  0  0  0  0  0  0  0
    7.0006  -17.2631   22.5722 O   0  0  0  0  0  0  0  0  0  0  0  0
    5.6975  -13.0314   26.9258 C   0  0  0  0  0  0  0  0  0  0  0  0
    5.9177  -13.7464   25.6231 C   0  0  0  0  0  0  0  0  0  0  0  0
    7.3683  -14.1465   25.4335 C   0  0  2  0  0  0  0  0  0  0  0  0
    8.2203  -12.9530   25.0615 C   0  0  0  0  0  0  0  0  0  0  0  0
    7.5196  -15.1979   24.3631 C   0  0  2  0  0  0  0  0  0  0  0  0
    6.6667  -16.3561   24.6454 N   0  0  0  0  0  0  0  0  0  0  0  0
    8.9379  -15.6332   24.3191 C   0  0  0  0  0  0  0  0  0  0  0  0
    9.7784  -14.9045   23.7461 O   0  0  0  0  0  0  0  0  0  0  0  0
    9.3239  -16.8425   24.9123 N   0  0  0  0  0  0  0  0  0  0  0  0
   10.7094  -17.3235   24.7522 C   0  0  1  0  0  0  0  0  0  0  0  0
   11.5692  -16.3022   25.4487 C   0  0  0  0  0  0  0  0  0  0  0  0
   11.4775  -16.2757   26.9049 C   0  0  0  0  0  0  0  0  0  0  0  0
   11.6744  -17.3602   27.7825 C   0  0  0  0  0  0  0  0  0  0  0  0
   11.4765  -16.9652   29.0342 N   0  0  0  0  0  0  0  0  0  0  0  0
   11.1571  -15.6741   29.0592 C   0  0  0  0  0  0  0  0  0  0  0  0
   10.8761  -14.8004   30.0746 C   0  0  0  0  0  0  0  0  0  0  0  0
   10.5858  -13.4745   29.8407 C   0  0  0  0  0  0  0  0  0  0  0  0
   10.5852  -13.0450   28.5455 C   0  0  0  0  0  0  0  0  0  0  0  0
   10.8604  -13.8874   27.5017 C   0  0  0  0  0  0  0  0  0  0  0  0
   11.1510  -15.2212   27.7470 C   0  0  0  0  0  0  0  0  0  0  0  0
   10.7960  -18.6806   25.2511 C   0  0  0  0  0  0  0  0  0  0  0  0
   11.9935  -19.3800   25.1783 O   0  0  0  0  0  0  0  0  0  0  0  0
    9.8243  -19.2653   25.7544 O   0  0  0  0  0  0  0  0  0  0  0  0
  2  3  1  0
  2  1  1  0
  3  4  2  0
  6  5  1  0
  7  6  1  0
  7  9  1  0
  7  8  1  6
  9 10  1  1
 10  3  1  0
 11  9  1  0
 12 11  2  0
 13 11  1  0
 14 13  1  0
 14 25  1  0
 14 15  1  1
 16 15  1  0
 17 16  2  0
 18 17  1  0
 19 18  1  0
 19 24  2  0
 20 21  2  0
 20 19  1  0
 21 22  1  0
 22 23  2  0
 23 24  1  0
 24 16  1  0
 25 26  1  0
 27 25  2  0
M  END
$$$$
