GIW.pdb
     RDKit          3D

 27 28  0  0  1  0  0  0  0  0999 V2000
   13.8581  -14.2754   18.5878 N   0  0  0  0  0  0  0  0  0  0  0  0
   12.9976  -15.3102   19.0843 C   0  0  0  0  0  0  0  0  0  0  0  0
   12.0635  -14.7369   20.0717 C   0  0  0  0  0  0  0  0  0  0  0  0
   12.5130  -13.9687   20.9743 O   0  0  0  0  0  0  0  0  0  0  0  0
    7.1627  -12.6957   19.0425 C   0  0  0  0  0  0  0  0  0  0  0  0
    8.5053  -13.0171   19.6347 C   0  0  0  0  0  0  0  0  0  0  0  0
    8.4295  -14.1656   20.6225 C   0  0  2  0  0  0  0  0  0  0  0  0
    7.5259  -13.8259   21.7873 C   0  0  0  0  0  0  0  0  0  0  0  0
    9.7913  -14.5275   21.1597 C   0  0  2  0  0  0  0  0  0  0  0  0
   10.6710  -14.9900   20.0823 N   0  0  0  0  0  0  0  0  0  0  0  0
    9.6359  -15.6096   22.1637 C   0  0  0  0  0  0  0  0  0  0  0  0
    9.7460  -16.7999   21.7942 O   0  0  0  0  0  0  0  0  0  0  0  0
    9.3702  -15.2967   23.5034 N   0  0  0  0  0  0  0  0  0  0  0  0
    9.5227  -16.3365   24.5389 C   0  0  1  0  0  0  0  0  0  0  0  0
    9.3260  -15.6246   25.8510 C   0  0  0  0  0  0  0  0  0  0  0  0
    8.0036  -15.0492   26.0742 C   0  0  0  0  0  0  0  0  0  0  0  0
    6.7639  -15.7034   25.9321 C   0  0  0  0  0  0  0  0  0  0  0  0
    5.7769  -14.8536   26.1880 N   0  0  0  0  0  0  0  0  0  0  0  0
    6.2734  -13.6588   26.4969 C   0  0  0  0  0  0  0  0  0  0  0  0
    5.6953  -12.4691   26.8490 C   0  0  0  0  0  0  0  0  0  0  0  0
    6.4429  -11.3514   27.1472 C   0  0  0  0  0  0  0  0  0  0  0  0
    7.8014  -11.4618   27.0815 C   0  0  0  0  0  0  0  0  0  0  0  0
    8.4181  -12.6335   26.7328 C   0  0  0  0  0  0  0  0  0  0  0  0
    7.6569  -13.7536   26.4336 C   0  0  0  0  0  0  0  0  0  0  0  0
    8.6047  -17.4204   24.2547 C   0  0  0  0  0  0  0  0  0  0  0  0
    7.5817  -17.2498   23.3311 O   0  0  0  0  0  0  0  0  0  0  0  0
    8.6904  -18.5253   24.8124 O   0  0  0  0  0  0  0  0  0  0  0  0
  2  3  1  0
  2  1  1  0
  3  4  2  0
  6  5  1  0
  7  6  1  0
  7  9  1  0
  7  8  1  1
  9 10  1  6
 10  3  1  0
 11  9  1  0
 12 11  2  0
 13 11  1  0
 14 13  1  0
 14 25  1  0
 14 15  1  1
 16 15  1  0
 17 16  2  0
 18 17  1  0
 19 18  1  0
 19 24  2  0
 20 21  2  0
 20 19  1  0
 21 22  1  0
 22 23  2  0
 23 24  1  0
 24 16  1  0
 25 26  1  0
 27 25  2  0
M  END
$$$$
