TWL.pdb
     RDKit          3D

 30 31  0  0  1  0  0  0  0  0999 V2000
   27.5844  -18.4362  -14.4897 C   0  0  0  0  0  0  0  0  0  0  0  0
   27.7084  -19.6457  -15.3733 C   0  0  1  0  0  0  0  0  0  0  0  0
   28.5464  -19.3594  -16.4423 O   0  0  0  0  0  0  0  0  0  0  0  0
   28.2881  -20.8350  -14.6350 C   0  0  2  0  0  0  0  0  0  0  0  0
   28.2916  -22.0155  -15.5155 N   0  0  0  0  0  0  0  0  0  0  0  0
   27.4732  -21.2025  -13.4576 C   0  0  0  0  0  0  0  0  0  0  0  0
   26.4720  -21.9995  -13.5577 O   0  0  0  0  0  0  0  0  0  0  0  0
   27.7815  -20.6787  -12.1756 N   0  0  0  0  0  0  0  0  0  0  0  0
   26.9339  -20.9389  -11.0006 C   0  0  1  0  0  0  0  0  0  0  0  0
   27.7810  -20.6257   -9.8182 C   0  0  0  0  0  0  0  0  0  0  0  0
   27.0830  -20.6106   -8.5154 C   0  0  0  0  0  0  0  0  0  0  0  0
   25.7608  -21.0426   -8.2925 C   0  0  0  0  0  0  0  0  0  0  0  0
   25.4640  -20.9210   -7.0118 N   0  0  0  0  0  0  0  0  0  0  0  0
   26.5162  -20.4254   -6.3385 C   0  0  0  0  0  0  0  0  0  0  0  0
   26.7188  -20.1090   -5.0043 C   0  0  0  0  0  0  0  0  0  0  0  0
   27.9323  -19.6022   -4.6383 C   0  0  0  0  0  0  0  0  0  0  0  0
   28.9421  -19.4003   -5.5418 C   0  0  0  0  0  0  0  0  0  0  0  0
   28.7377  -19.7140   -6.8555 C   0  0  0  0  0  0  0  0  0  0  0  0
   27.5247  -20.2335   -7.2862 C   0  0  0  0  0  0  0  0  0  0  0  0
   25.6591  -20.2327  -11.1369 C   0  0  0  0  0  0  0  0  0  0  0  0
   25.6168  -18.9509  -11.1252 O   0  0  0  0  0  0  0  0  0  0  0  0
   22.5522  -21.7497  -14.2014 C   0  0  0  0  0  0  0  0  0  0  0  0
   23.4333  -20.5929  -13.8644 C   0  0  1  0  0  0  0  0  0  0  0  0
   23.8715  -19.8380  -15.1213 C   0  0  0  0  0  0  0  0  0  0  0  0
   23.0193  -19.7049  -12.7755 C   0  0  0  0  0  0  0  0  0  0  0  0
   23.1281  -20.0980  -11.3527 C   0  0  2  0  0  0  0  0  0  0  0  0
   24.4081  -20.8720  -11.2960 N   0  0  0  0  0  0  0  0  0  0  0  0
   22.0590  -20.8249  -10.7250 C   0  0  0  0  0  0  0  0  0  0  0  0
   20.9366  -20.3622  -10.4422 O   0  0  0  0  0  0  0  0  0  0  0  0
   22.2300  -22.1674  -10.3801 O   0  0  0  0  0  0  0  0  0  0  0  0
  2  1  1  1
  2  3  1  0
  4  2  1  0
  4  5  1  6
  6  7  2  0
  6  4  1  0
  8  6  1  0
  9  8  1  0
 10 11  1  0
  9 10  1  1
 11 19  1  0
 11 12  2  0
 12 13  1  0
 14 13  1  0
 14 15  2  0
 16 15  1  0
 17 16  2  0
 18 19  2  0
 18 17  1  0
 19 14  1  0
 20 21  2  0
 20  9  1  0
 23 25  1  0
 23 22  1  6
 24 23  1  0
 26 25  1  6
 26 27  1  0
 27 20  1  0
 28 26  1  0
 29 28  2  0
 30 28  1  0
M  END
$$$$
