TWL.pdb
     RDKit          3D

 30 31  0  0  1  0  0  0  0  0999 V2000
   24.1926  -16.1264  -16.7515 C   0  0  0  0  0  0  0  0  0  0  0  0
   24.9815  -16.7255  -17.8819 C   0  0  1  0  0  0  0  0  0  0  0  0
   25.3032  -15.7375  -18.8023 O   0  0  0  0  0  0  0  0  0  0  0  0
   26.2750  -17.3541  -17.4050 C   0  0  2  0  0  0  0  0  0  0  0  0
   27.0209  -17.8939  -18.5545 N   0  0  0  0  0  0  0  0  0  0  0  0
   26.0306  -18.4971  -16.4999 C   0  0  0  0  0  0  0  0  0  0  0  0
   25.7220  -19.6575  -16.9537 O   0  0  0  0  0  0  0  0  0  0  0  0
   26.1331  -18.3379  -15.0938 N   0  0  0  0  0  0  0  0  0  0  0  0
   25.8303  -19.4341  -14.1591 C   0  0  1  0  0  0  0  0  0  0  0  0
   26.7073  -19.2078  -12.9787 C   0  0  0  0  0  0  0  0  0  0  0  0
   26.6827  -20.2679  -11.9491 C   0  0  0  0  0  0  0  0  0  0  0  0
   26.9961  -21.6241  -12.1660 C   0  0  0  0  0  0  0  0  0  0  0  0
   26.9028  -22.2887  -11.0290 N   0  0  0  0  0  0  0  0  0  0  0  0
   26.5397  -21.4583  -10.0367 C   0  0  0  0  0  0  0  0  0  0  0  0
   26.3025  -21.6504   -8.6846 C   0  0  0  0  0  0  0  0  0  0  0  0
   25.9302  -20.5719   -7.9352 C   0  0  0  0  0  0  0  0  0  0  0  0
   25.7861  -19.3214   -8.4758 C   0  0  0  0  0  0  0  0  0  0  0  0
   26.0212  -19.1372   -9.8088 C   0  0  0  0  0  0  0  0  0  0  0  0
   26.4034  -20.1963  -10.6205 C   0  0  0  0  0  0  0  0  0  0  0  0
   24.3862  -19.5157  -13.9345 C   0  0  0  0  0  0  0  0  0  0  0  0
   23.6867  -18.4516  -13.7822 O   0  0  0  0  0  0  0  0  0  0  0  0
   21.6820  -19.8626   -9.8499 C   0  0  0  0  0  0  0  0  0  0  0  0
   21.8983  -20.6942  -11.0705 C   0  0  1  0  0  0  0  0  0  0  0  0
   20.9366  -21.8837  -11.1153 C   0  0  0  0  0  0  0  0  0  0  0  0
   22.0248  -20.0085  -12.3587 C   0  0  0  0  0  0  0  0  0  0  0  0
   22.1802  -20.7457  -13.6327 C   0  0  2  0  0  0  0  0  0  0  0  0
   23.6572  -20.7257  -13.8755 N   0  0  0  0  0  0  0  0  0  0  0  0
   21.4608  -20.3192  -14.8014 C   0  0  0  0  0  0  0  0  0  0  0  0
   21.7873  -19.3770  -15.5494 O   0  0  0  0  0  0  0  0  0  0  0  0
   20.2902  -20.9773  -15.1848 O   0  0  0  0  0  0  0  0  0  0  0  0
  2  1  1  1
  2  3  1  0
  4  2  1  0
  4  5  1  6
  6  7  2  0
  6  4  1  0
  8  6  1  0
  9  8  1  0
 10 11  1  0
  9 10  1  1
 11 19  1  0
 11 12  2  0
 12 13  1  0
 14 13  1  0
 14 15  2  0
 16 15  1  0
 17 16  2  0
 18 19  2  0
 18 17  1  0
 19 14  1  0
 20 21  2  0
 20  9  1  0
 23 25  1  0
 23 22  1  1
 24 23  1  0
 26 25  1  1
 26 27  1  0
 27 20  1  0
 28 26  1  0
 29 28  2  0
 30 28  1  0
M  END
$$$$
