TWL.pdb
     RDKit          3D

 30 31  0  0  1  0  0  0  0  0999 V2000
   28.2369  -24.2281  -18.2079 C   0  0  0  0  0  0  0  0  0  0  0  0
   27.2732  -23.4996  -17.3139 C   0  0  1  0  0  0  0  0  0  0  0  0
   26.2515  -22.9509  -18.0768 O   0  0  0  0  0  0  0  0  0  0  0  0
   26.6430  -24.4171  -16.2859 C   0  0  2  0  0  0  0  0  0  0  0  0
   25.8300  -25.4415  -16.9632 N   0  0  0  0  0  0  0  0  0  0  0  0
   25.7217  -23.6879  -15.3886 C   0  0  0  0  0  0  0  0  0  0  0  0
   24.4481  -23.7660  -15.5284 O   0  0  0  0  0  0  0  0  0  0  0  0
   26.2278  -22.8769  -14.3404 N   0  0  0  0  0  0  0  0  0  0  0  0
   25.3457  -22.0725  -13.4792 C   0  0  1  0  0  0  0  0  0  0  0  0
   26.0451  -21.9743  -12.1696 C   0  0  0  0  0  0  0  0  0  0  0  0
   25.2512  -21.4064  -11.0597 C   0  0  0  0  0  0  0  0  0  0  0  0
   25.7794  -20.8714   -9.8684 C   0  0  0  0  0  0  0  0  0  0  0  0
   24.7967  -20.4242   -9.1085 N   0  0  0  0  0  0  0  0  0  0  0  0
   23.6148  -20.6245   -9.7161 C   0  0  0  0  0  0  0  0  0  0  0  0
   22.3067  -20.3493   -9.3496 C   0  0  0  0  0  0  0  0  0  0  0  0
   21.3079  -20.6967  -10.2130 C   0  0  0  0  0  0  0  0  0  0  0  0
   21.5598  -21.3021  -11.4157 C   0  0  0  0  0  0  0  0  0  0  0  0
   22.8508  -21.5711  -11.7725 C   0  0  0  0  0  0  0  0  0  0  0  0
   23.9076  -21.2397  -10.9358 C   0  0  0  0  0  0  0  0  0  0  0  0
   24.9836  -20.8272  -14.1578 C   0  0  0  0  0  0  0  0  0  0  0  0
   24.1552  -20.0074  -13.6224 O   0  0  0  0  0  0  0  0  0  0  0  0
   28.7784  -18.6895  -17.2393 C   0  0  0  0  0  0  0  0  0  0  0  0
   27.6265  -18.7739  -16.2938 C   0  0  1  0  0  0  0  0  0  0  0  0
   27.8040  -17.8223  -15.1086 C   0  0  0  0  0  0  0  0  0  0  0  0
   26.2725  -18.7502  -16.8523 C   0  0  0  0  0  0  0  0  0  0  0  0
   25.0854  -19.1405  -16.0592 C   0  0  2  0  0  0  0  0  0  0  0  0
   25.4989  -20.4252  -15.4115 N   0  0  0  0  0  0  0  0  0  0  0  0
   23.8065  -19.2761  -16.7006 C   0  0  0  0  0  0  0  0  0  0  0  0
   23.4861  -20.1830  -17.4936 O   0  0  0  0  0  0  0  0  0  0  0  0
   22.7946  -18.3457  -16.4536 O   0  0  0  0  0  0  0  0  0  0  0  0
  2  1  1  6
  2  3  1  0
  4  2  1  0
  4  5  1  6
  6  7  2  0
  6  4  1  0
  8  6  1  0
  9  8  1  0
 10 11  1  0
  9 10  1  1
 11 19  1  0
 11 12  2  0
 12 13  1  0
 14 13  1  0
 14 15  2  0
 16 15  1  0
 17 16  2  0
 18 19  2  0
 18 17  1  0
 19 14  1  0
 20 21  2  0
 20  9  1  0
 23 25  1  0
 23 22  1  6
 24 23  1  0
 26 25  1  6
 26 27  1  0
 27 20  1  0
 28 26  1  0
 29 28  2  0
 30 28  1  0
M  END
$$$$
