TWL.pdb
     RDKit          3D

 30 31  0  0  1  0  0  0  0  0999 V2000
   26.7491  -25.6922  -18.3705 C   0  0  0  0  0  0  0  0  0  0  0  0
   26.5839  -24.5320  -17.4295 C   0  0  1  0  0  0  0  0  0  0  0  0
   26.4605  -24.9996  -16.1283 O   0  0  0  0  0  0  0  0  0  0  0  0
   27.7687  -23.5885  -17.4729 C   0  0  2  0  0  0  0  0  0  0  0  0
   28.9827  -24.2911  -17.0239 N   0  0  0  0  0  0  0  0  0  0  0  0
   27.5937  -22.4426  -16.5556 C   0  0  0  0  0  0  0  0  0  0  0  0
   28.2827  -22.3353  -15.4779 O   0  0  0  0  0  0  0  0  0  0  0  0
   26.6513  -21.4230  -16.8474 N   0  0  0  0  0  0  0  0  0  0  0  0
   26.4040  -20.3008  -15.9274 C   0  0  1  0  0  0  0  0  0  0  0  0
   26.2015  -19.1089  -16.7947 C   0  0  0  0  0  0  0  0  0  0  0  0
   25.8860  -17.8489  -16.0893 C   0  0  0  0  0  0  0  0  0  0  0  0
   26.7221  -17.2038  -15.1570 C   0  0  0  0  0  0  0  0  0  0  0  0
   26.1487  -16.0887  -14.7435 N   0  0  0  0  0  0  0  0  0  0  0  0
   24.9567  -15.9318  -15.3440 C   0  0  0  0  0  0  0  0  0  0  0  0
   23.9771  -14.9551  -15.2562 C   0  0  0  0  0  0  0  0  0  0  0  0
   22.8503  -15.1014  -16.0127 C   0  0  0  0  0  0  0  0  0  0  0  0
   22.6635  -16.1732  -16.8453 C   0  0  0  0  0  0  0  0  0  0  0  0
   23.6320  -17.1330  -16.9286 C   0  0  0  0  0  0  0  0  0  0  0  0
   24.7995  -17.0371  -16.1838 C   0  0  0  0  0  0  0  0  0  0  0  0
   25.3405  -20.6513  -14.9849 C   0  0  0  0  0  0  0  0  0  0  0  0
   24.3906  -21.4391  -15.3338 O   0  0  0  0  0  0  0  0  0  0  0  0
   26.4008  -20.8099   -9.5775 C   0  0  0  0  0  0  0  0  0  0  0  0
   25.8892  -21.0770  -10.9541 C   0  0  1  0  0  0  0  0  0  0  0  0
   25.8398  -22.5773  -11.2519 C   0  0  0  0  0  0  0  0  0  0  0  0
   24.6877  -20.3638  -11.3939 C   0  0  0  0  0  0  0  0  0  0  0  0
   24.1258  -20.5288  -12.7532 C   0  0  2  0  0  0  0  0  0  0  0  0
   25.2694  -20.1797  -13.6539 N   0  0  0  0  0  0  0  0  0  0  0  0
   22.9372  -19.8144  -13.1303 C   0  0  0  0  0  0  0  0  0  0  0  0
   22.8884  -18.8622  -13.9333 O   0  0  0  0  0  0  0  0  0  0  0  0
   21.7011  -20.1711  -12.5870 O   0  0  0  0  0  0  0  0  0  0  0  0
  2  1  1  6
  2  3  1  0
  4  2  1  0
  4  5  1  1
  6  7  2  0
  6  4  1  0
  8  6  1  0
  9  8  1  0
 10 11  1  0
  9 10  1  6
 11 19  1  0
 11 12  2  0
 12 13  1  0
 14 13  1  0
 14 15  2  0
 16 15  1  0
 17 16  2  0
 18 19  2  0
 18 17  1  0
 19 14  1  0
 20 21  2  0
 20  9  1  0
 23 25  1  0
 23 22  1  1
 24 23  1  0
 26 25  1  1
 26 27  1  0
 27 20  1  0
 28 26  1  0
 29 28  2  0
 30 28  1  0
M  END
$$$$
