TWL.pdb
     RDKit          3D

 30 31  0  0  1  0  0  0  0  0999 V2000
   28.2630  -19.0636  -15.8857 C   0  0  0  0  0  0  0  0  0  0  0  0
   27.3757  -19.4419  -14.7332 C   0  0  1  0  0  0  0  0  0  0  0  0
   26.0478  -19.4124  -15.1365 O   0  0  0  0  0  0  0  0  0  0  0  0
   27.6730  -20.8352  -14.2173 C   0  0  2  0  0  0  0  0  0  0  0  0
   27.2189  -21.8372  -15.1965 N   0  0  0  0  0  0  0  0  0  0  0  0
   26.9444  -21.1252  -12.9641 C   0  0  0  0  0  0  0  0  0  0  0  0
   25.8919  -21.8599  -12.9553 O   0  0  0  0  0  0  0  0  0  0  0  0
   27.3957  -20.5940  -11.7284 N   0  0  0  0  0  0  0  0  0  0  0  0
   26.6733  -20.8269  -10.4672 C   0  0  1  0  0  0  0  0  0  0  0  0
   27.6396  -20.4968   -9.3850 C   0  0  0  0  0  0  0  0  0  0  0  0
   27.0956  -20.5189   -8.0110 C   0  0  0  0  0  0  0  0  0  0  0  0
   25.8602  -21.0790   -7.6309 C   0  0  0  0  0  0  0  0  0  0  0  0
   25.6987  -20.9544   -6.3265 N   0  0  0  0  0  0  0  0  0  0  0  0
   26.7618  -20.3348   -5.7863 C   0  0  0  0  0  0  0  0  0  0  0  0
   27.0792  -19.9634   -4.4891 C   0  0  0  0  0  0  0  0  0  0  0  0
   28.2659  -19.3243   -4.2728 C   0  0  0  0  0  0  0  0  0  0  0  0
   29.1402  -19.0435   -5.2894 C   0  0  0  0  0  0  0  0  0  0  0  0
   28.8230  -19.4118   -6.5661 C   0  0  0  0  0  0  0  0  0  0  0  0
   27.6309  -20.0652   -6.8465 C   0  0  0  0  0  0  0  0  0  0  0  0
   25.3942  -20.1156  -10.4843 C   0  0  0  0  0  0  0  0  0  0  0  0
   25.3494  -18.8557  -10.7203 O   0  0  0  0  0  0  0  0  0  0  0  0
   21.4078  -20.9321  -13.9667 C   0  0  0  0  0  0  0  0  0  0  0  0
   22.3527  -19.8961  -13.4550 C   0  0  1  0  0  0  0  0  0  0  0  0
   21.6362  -18.5728  -13.1773 C   0  0  0  0  0  0  0  0  0  0  0  0
   23.2860  -20.2785  -12.3926 C   0  0  0  0  0  0  0  0  0  0  0  0
   22.9007  -20.2694  -10.9635 C   0  0  2  0  0  0  0  0  0  0  0  0
   24.1399  -20.7281  -10.2599 N   0  0  0  0  0  0  0  0  0  0  0  0
   21.7537  -21.0156  -10.5245 C   0  0  0  0  0  0  0  0  0  0  0  0
   21.7202  -22.2469  -10.3332 O   0  0  0  0  0  0  0  0  0  0  0  0
   20.5453  -20.3624  -10.2721 O   0  0  0  0  0  0  0  0  0  0  0  0
  2  1  1  6
  2  3  1  0
  4  2  1  0
  4  5  1  6
  6  7  2  0
  6  4  1  0
  8  6  1  0
  9  8  1  0
 10 11  1  0
  9 10  1  1
 11 19  1  0
 11 12  2  0
 12 13  1  0
 14 13  1  0
 14 15  2  0
 16 15  1  0
 17 16  2  0
 18 19  2  0
 18 17  1  0
 19 14  1  0
 20 21  2  0
 20  9  1  0
 23 25  1  0
 23 22  1  1
 24 23  1  0
 26 25  1  6
 26 27  1  0
 27 20  1  0
 28 26  1  0
 29 28  2  0
 30 28  1  0
M  END
$$$$
