TWL.pdb
     RDKit          3D

 30 31  0  0  1  0  0  0  0  0999 V2000
   23.9559  -22.9210  -13.0889 C   0  0  0  0  0  0  0  0  0  0  0  0
   22.9332  -21.8447  -13.3226 C   0  0  1  0  0  0  0  0  0  0  0  0
   21.7994  -22.3958  -13.9039 O   0  0  0  0  0  0  0  0  0  0  0  0
   22.5117  -21.1684  -12.0340 C   0  0  2  0  0  0  0  0  0  0  0  0
   21.4823  -20.1537  -12.3166 N   0  0  0  0  0  0  0  0  0  0  0  0
   23.6349  -20.4484  -11.3973 C   0  0  0  0  0  0  0  0  0  0  0  0
   24.0241  -19.3020  -11.8238 O   0  0  0  0  0  0  0  0  0  0  0  0
   24.3162  -21.0122  -10.2879 N   0  0  0  0  0  0  0  0  0  0  0  0
   25.5312  -20.4015   -9.7243 C   0  0  1  0  0  0  0  0  0  0  0  0
   25.5180  -20.7453   -8.2767 C   0  0  0  0  0  0  0  0  0  0  0  0
   26.4101  -19.9384   -7.4179 C   0  0  0  0  0  0  0  0  0  0  0  0
   26.7389  -18.5845   -7.6264 C   0  0  0  0  0  0  0  0  0  0  0  0
   27.5322  -18.1660   -6.6576 N   0  0  0  0  0  0  0  0  0  0  0  0
   27.7685  -19.1646   -5.7898 C   0  0  0  0  0  0  0  0  0  0  0  0
   28.5238  -19.2486   -4.6307 C   0  0  0  0  0  0  0  0  0  0  0  0
   28.5626  -20.4430   -3.9708 C   0  0  0  0  0  0  0  0  0  0  0  0
   27.8846  -21.5465   -4.4173 C   0  0  0  0  0  0  0  0  0  0  0  0
   27.1413  -21.4586   -5.5601 C   0  0  0  0  0  0  0  0  0  0  0  0
   27.0635  -20.2699   -6.2727 C   0  0  0  0  0  0  0  0  0  0  0  0
   26.7007  -20.7951  -10.5116 C   0  0  0  0  0  0  0  0  0  0  0  0
   26.9124  -22.0274  -10.7972 O   0  0  0  0  0  0  0  0  0  0  0  0
   31.8597  -21.0808  -12.1082 C   0  0  0  0  0  0  0  0  0  0  0  0
   30.8851  -21.7991  -11.2351 C   0  0  1  0  0  0  0  0  0  0  0  0
   31.5850  -22.4812  -10.0576 C   0  0  0  0  0  0  0  0  0  0  0  0
   29.6592  -21.0974  -10.8470 C   0  0  0  0  0  0  0  0  0  0  0  0
   28.8342  -20.3520  -11.8240 C   0  0  2  0  0  0  0  0  0  0  0  0
   27.6614  -19.8892  -11.0169 N   0  0  0  0  0  0  0  0  0  0  0  0
   28.4040  -20.9920  -13.0366 C   0  0  0  0  0  0  0  0  0  0  0  0
   29.0713  -21.8090  -13.7008 O   0  0  0  0  0  0  0  0  0  0  0  0
   27.1406  -20.7183  -13.5654 O   0  0  0  0  0  0  0  0  0  0  0  0
  2  1  1  1
  2  3  1  0
  4  2  1  0
  4  5  1  6
  6  7  2  0
  6  4  1  0
  8  6  1  0
  9  8  1  0
 10 11  1  0
  9 10  1  1
 11 19  1  0
 11 12  2  0
 12 13  1  0
 14 13  1  0
 14 15  2  0
 16 15  1  0
 17 16  2  0
 18 19  2  0
 18 17  1  0
 19 14  1  0
 20 21  2  0
 20  9  1  0
 23 25  1  0
 23 22  1  1
 24 23  1  0
 26 25  1  1
 26 27  1  0
 27 20  1  0
 28 26  1  0
 29 28  2  0
 30 28  1  0
M  END
$$$$
