TWL.pdb
     RDKit          3D

 30 31  0  0  1  0  0  0  0  0999 V2000
   28.7752  -19.1122  -16.0126 C   0  0  0  0  0  0  0  0  0  0  0  0
   27.8255  -19.5372  -14.9280 C   0  0  1  0  0  0  0  0  0  0  0  0
   26.5313  -19.5754  -15.4287 O   0  0  0  0  0  0  0  0  0  0  0  0
   28.1547  -20.9141  -14.3882 C   0  0  2  0  0  0  0  0  0  0  0  0
   27.8206  -21.9372  -15.3935 N   0  0  0  0  0  0  0  0  0  0  0  0
   27.3556  -21.2403  -13.1880 C   0  0  0  0  0  0  0  0  0  0  0  0
   26.2618  -21.9067  -13.2719 O   0  0  0  0  0  0  0  0  0  0  0  0
   27.7829  -20.8214  -11.9016 N   0  0  0  0  0  0  0  0  0  0  0  0
   26.9370  -20.9794  -10.7073 C   0  0  1  0  0  0  0  0  0  0  0  0
   27.7975  -20.6010   -9.5540 C   0  0  0  0  0  0  0  0  0  0  0  0
   27.1103  -20.4913   -8.2501 C   0  0  0  0  0  0  0  0  0  0  0  0
   25.7601  -20.8131   -8.0092 C   0  0  0  0  0  0  0  0  0  0  0  0
   25.4808  -20.6288   -6.7321 N   0  0  0  0  0  0  0  0  0  0  0  0
   26.5717  -20.1947   -6.0783 C   0  0  0  0  0  0  0  0  0  0  0  0
   26.8056  -19.8530   -4.7555 C   0  0  0  0  0  0  0  0  0  0  0  0
   28.0566  -19.4298   -4.4098 C   0  0  0  0  0  0  0  0  0  0  0  0
   29.0737  -19.3347   -5.3225 C   0  0  0  0  0  0  0  0  0  0  0  0
   28.8384  -19.6729   -6.6249 C   0  0  0  0  0  0  0  0  0  0  0  0
   27.5865  -20.1108   -7.0349 C   0  0  0  0  0  0  0  0  0  0  0  0
   25.6765  -20.2575  -10.8878 C   0  0  0  0  0  0  0  0  0  0  0  0
   25.6719  -19.0391  -11.2882 O   0  0  0  0  0  0  0  0  0  0  0  0
   22.1866  -18.2763  -13.7981 C   0  0  0  0  0  0  0  0  0  0  0  0
   22.5269  -19.7276  -13.7200 C   0  0  1  0  0  0  0  0  0  0  0  0
   22.7997  -20.3143  -15.1067 C   0  0  0  0  0  0  0  0  0  0  0  0
   23.5017  -20.1542  -12.7133 C   0  0  0  0  0  0  0  0  0  0  0  0
   23.1625  -20.2444  -11.2754 C   0  0  2  0  0  0  0  0  0  0  0  0
   24.3990  -20.8167  -10.6551 N   0  0  0  0  0  0  0  0  0  0  0  0
   21.9943  -20.9696  -10.8575 C   0  0  0  0  0  0  0  0  0  0  0  0
   21.9324  -22.2015  -10.6769 O   0  0  0  0  0  0  0  0  0  0  0  0
   20.7967  -20.2931  -10.6154 O   0  0  0  0  0  0  0  0  0  0  0  0
  2  1  1  6
  2  3  1  0
  4  2  1  0
  4  5  1  6
  6  7  2  0
  6  4  1  0
  8  6  1  0
  9  8  1  0
 10 11  1  0
  9 10  1  1
 11 19  1  0
 11 12  2  0
 12 13  1  0
 14 13  1  0
 14 15  2  0
 16 15  1  0
 17 16  2  0
 18 19  2  0
 18 17  1  0
 19 14  1  0
 20 21  2  0
 20  9  1  0
 23 25  1  0
 23 22  1  6
 24 23  1  0
 26 25  1  6
 26 27  1  0
 27 20  1  0
 28 26  1  0
 29 28  2  0
 30 28  1  0
M  END
$$$$
