TWL.pdb
     RDKit          3D

 30 31  0  0  1  0  0  0  0  0999 V2000
   28.4304  -17.7398  -14.8914 C   0  0  0  0  0  0  0  0  0  0  0  0
   27.4675  -18.5878  -14.1087 C   0  0  1  0  0  0  0  0  0  0  0  0
   26.5628  -19.1875  -14.9742 O   0  0  0  0  0  0  0  0  0  0  0  0
   28.1705  -19.6867  -13.3382 C   0  0  2  0  0  0  0  0  0  0  0  0
   28.7779  -20.6447  -14.2776 N   0  0  0  0  0  0  0  0  0  0  0  0
   27.2281  -20.4663  -12.5078 C   0  0  0  0  0  0  0  0  0  0  0  0
   26.8577  -21.6483  -12.8445 O   0  0  0  0  0  0  0  0  0  0  0  0
   26.7057  -19.9219  -11.3063 N   0  0  0  0  0  0  0  0  0  0  0  0
   25.7055  -20.6351  -10.4953 C   0  0  1  0  0  0  0  0  0  0  0  0
   25.8943  -20.1442   -9.1035 C   0  0  0  0  0  0  0  0  0  0  0  0
   27.1441  -20.5682   -8.4380 C   0  0  0  0  0  0  0  0  0  0  0  0
   28.1253  -21.4070   -9.0021 C   0  0  0  0  0  0  0  0  0  0  0  0
   29.1233  -21.5574   -8.1509 N   0  0  0  0  0  0  0  0  0  0  0  0
   28.8797  -20.8641   -7.0258 C   0  0  0  0  0  0  0  0  0  0  0  0
   29.5904  -20.6974   -5.8474 C   0  0  0  0  0  0  0  0  0  0  0  0
   29.0457  -19.9147   -4.8706 C   0  0  0  0  0  0  0  0  0  0  0  0
   27.8318  -19.2978   -5.0209 C   0  0  0  0  0  0  0  0  0  0  0  0
   27.1354  -19.4650   -6.1841 C   0  0  0  0  0  0  0  0  0  0  0  0
   27.6396  -20.2485   -7.2130 C   0  0  0  0  0  0  0  0  0  0  0  0
   24.3792  -20.4934  -11.0981 C   0  0  0  0  0  0  0  0  0  0  0  0
   23.8759  -19.3323  -11.3064 O   0  0  0  0  0  0  0  0  0  0  0  0
   20.8510  -21.4254  -15.0594 C   0  0  0  0  0  0  0  0  0  0  0  0
   21.1175  -22.5847  -14.1576 C   0  0  1  0  0  0  0  0  0  0  0  0
   21.1500  -23.9027  -14.9347 C   0  0  0  0  0  0  0  0  0  0  0  0
   22.2046  -22.4650  -13.1832 C   0  0  0  0  0  0  0  0  0  0  0  0
   22.2548  -21.3705  -12.1881 C   0  0  2  0  0  0  0  0  0  0  0  0
   23.5667  -21.5792  -11.4980 N   0  0  0  0  0  0  0  0  0  0  0  0
   21.1904  -21.2179  -11.2346 C   0  0  0  0  0  0  0  0  0  0  0  0
   21.1541  -21.7341  -10.1005 O   0  0  0  0  0  0  0  0  0  0  0  0
   20.0759  -20.4357  -11.5451 O   0  0  0  0  0  0  0  0  0  0  0  0
  2  1  1  6
  2  3  1  0
  4  2  1  0
  4  5  1  6
  6  7  2  0
  6  4  1  0
  8  6  1  0
  9  8  1  0
 10 11  1  0
  9 10  1  1
 11 19  1  0
 11 12  2  0
 12 13  1  0
 14 13  1  0
 14 15  2  0
 16 15  1  0
 17 16  2  0
 18 19  2  0
 18 17  1  0
 19 14  1  0
 20 21  2  0
 20  9  1  0
 23 25  1  0
 23 22  1  6
 24 23  1  0
 26 25  1  6
 26 27  1  0
 27 20  1  0
 28 26  1  0
 29 28  2  0
 30 28  1  0
M  END
$$$$
