TWL.pdb
     RDKit          3D

 30 31  0  0  1  0  0  0  0  0999 V2000
   28.5165  -19.3498  -16.4149 C   0  0  0  0  0  0  0  0  0  0  0  0
   27.5889  -19.8140  -15.3273 C   0  0  1  0  0  0  0  0  0  0  0  0
   26.3463  -20.1130  -15.8690 O   0  0  0  0  0  0  0  0  0  0  0  0
   28.1028  -21.0577  -14.6310 C   0  0  2  0  0  0  0  0  0  0  0  0
   27.9739  -22.2200  -15.5263 N   0  0  0  0  0  0  0  0  0  0  0  0
   27.3124  -21.3789  -13.4237 C   0  0  0  0  0  0  0  0  0  0  0  0
   26.3369  -22.2122  -13.4632 O   0  0  0  0  0  0  0  0  0  0  0  0
   27.6165  -20.7685  -12.1796 N   0  0  0  0  0  0  0  0  0  0  0  0
   26.7711  -20.9570  -10.9893 C   0  0  1  0  0  0  0  0  0  0  0  0
   27.5952  -20.5031   -9.8366 C   0  0  0  0  0  0  0  0  0  0  0  0
   26.9072  -20.4737   -8.5288 C   0  0  0  0  0  0  0  0  0  0  0  0
   25.5752  -20.8698   -8.2979 C   0  0  0  0  0  0  0  0  0  0  0  0
   25.2909  -20.7449   -7.0147 N   0  0  0  0  0  0  0  0  0  0  0  0
   26.3613  -20.2814   -6.3472 C   0  0  0  0  0  0  0  0  0  0  0  0
   26.5820  -19.9759   -5.0133 C   0  0  0  0  0  0  0  0  0  0  0  0
   27.8118  -19.5045   -4.6542 C   0  0  0  0  0  0  0  0  0  0  0  0
   28.8204  -19.3271   -5.5642 C   0  0  0  0  0  0  0  0  0  0  0  0
   28.5980  -19.6299   -6.8776 C   0  0  0  0  0  0  0  0  0  0  0  0
   27.3679  -20.1138   -7.3014 C   0  0  0  0  0  0  0  0  0  0  0  0
   25.4693  -20.3201  -11.1941 C   0  0  0  0  0  0  0  0  0  0  0  0
   25.3852  -19.0593  -11.4138 O   0  0  0  0  0  0  0  0  0  0  0  0
   22.9208  -21.0383  -15.3312 C   0  0  0  0  0  0  0  0  0  0  0  0
   23.1884  -20.3153  -14.0530 C   0  0  1  0  0  0  0  0  0  0  0  0
   23.0104  -18.8043  -14.2164 C   0  0  0  0  0  0  0  0  0  0  0  0
   22.5813  -20.8362  -12.8258 C   0  0  0  0  0  0  0  0  0  0  0  0
   22.9424  -20.3198  -11.4866 C   0  0  2  0  0  0  0  0  0  0  0  0
   24.2349  -21.0092  -11.1779 N   0  0  0  0  0  0  0  0  0  0  0  0
   22.0173  -20.4479  -10.3943 C   0  0  0  0  0  0  0  0  0  0  0  0
   21.1261  -19.6276  -10.0997 O   0  0  0  0  0  0  0  0  0  0  0  0
   22.0691  -21.5645   -9.5571 O   0  0  0  0  0  0  0  0  0  0  0  0
  2  1  1  6
  2  3  1  0
  4  2  1  0
  4  5  1  6
  6  7  2  0
  6  4  1  0
  8  6  1  0
  9  8  1  0
 10 11  1  0
  9 10  1  1
 11 19  1  0
 11 12  2  0
 12 13  1  0
 14 13  1  0
 14 15  2  0
 16 15  1  0
 17 16  2  0
 18 19  2  0
 18 17  1  0
 19 14  1  0
 20 21  2  0
 20  9  1  0
 23 25  1  0
 23 22  1  6
 24 23  1  0
 26 25  1  6
 26 27  1  0
 27 20  1  0
 28 26  1  0
 29 28  2  0
 30 28  1  0
M  END
$$$$
