TWL.pdb
     RDKit          3D

 30 31  0  0  1  0  0  0  0  0999 V2000
   29.0223  -20.1229  -16.8252 C   0  0  0  0  0  0  0  0  0  0  0  0
   28.0830  -20.4007  -15.6852 C   0  0  1  0  0  0  0  0  0  0  0  0
   26.8111  -20.6562  -16.1794 O   0  0  0  0  0  0  0  0  0  0  0  0
   28.5141  -21.6031  -14.8704 C   0  0  2  0  0  0  0  0  0  0  0  0
   28.2864  -22.8366  -15.6422 N   0  0  0  0  0  0  0  0  0  0  0  0
   27.7205  -21.7412  -13.6308 C   0  0  0  0  0  0  0  0  0  0  0  0
   26.6650  -22.4704  -13.5884 O   0  0  0  0  0  0  0  0  0  0  0  0
   28.1105  -21.0652  -12.4460 N   0  0  0  0  0  0  0  0  0  0  0  0
   27.2984  -21.1070  -11.2190 C   0  0  1  0  0  0  0  0  0  0  0  0
   28.1606  -20.5377  -10.1483 C   0  0  0  0  0  0  0  0  0  0  0  0
   27.4984  -20.3057   -8.8475 C   0  0  0  0  0  0  0  0  0  0  0  0
   26.1164  -20.1079   -8.6586 C   0  0  0  0  0  0  0  0  0  0  0  0
   25.8607  -19.9612   -7.3717 N   0  0  0  0  0  0  0  0  0  0  0  0
   26.9984  -20.0474   -6.6616 C   0  0  0  0  0  0  0  0  0  0  0  0
   27.2740  -19.9576   -5.3062 C   0  0  0  0  0  0  0  0  0  0  0  0
   28.5717  -20.0839   -4.9017 C   0  0  0  0  0  0  0  0  0  0  0  0
   29.5956  -20.2940   -5.7872 C   0  0  0  0  0  0  0  0  0  0  0  0
   29.3189  -20.3820   -7.1221 C   0  0  0  0  0  0  0  0  0  0  0  0
   28.0183  -20.2624   -7.5920 C   0  0  0  0  0  0  0  0  0  0  0  0
   25.9979  -20.4794  -11.4579 C   0  0  0  0  0  0  0  0  0  0  0  0
   25.9227  -19.2865  -11.9229 O   0  0  0  0  0  0  0  0  0  0  0  0
   22.9866  -21.4134  -15.3511 C   0  0  0  0  0  0  0  0  0  0  0  0
   23.3777  -20.6106  -14.1550 C   0  0  1  0  0  0  0  0  0  0  0  0
   22.9883  -19.1394  -14.3163 C   0  0  0  0  0  0  0  0  0  0  0  0
   23.0593  -21.1475  -12.8298 C   0  0  0  0  0  0  0  0  0  0  0  0
   23.4573  -20.4570  -11.5827 C   0  0  2  0  0  0  0  0  0  0  0  0
   24.7546  -21.1078  -11.2161 N   0  0  0  0  0  0  0  0  0  0  0  0
   22.5605  -20.4289  -10.4600 C   0  0  0  0  0  0  0  0  0  0  0  0
   22.5474  -21.2503   -9.5225 O   0  0  0  0  0  0  0  0  0  0  0  0
   21.6012  -19.4197  -10.3523 O   0  0  0  0  0  0  0  0  0  0  0  0
  2  1  1  6
  2  3  1  0
  4  2  1  0
  4  5  1  6
  6  7  2  0
  6  4  1  0
  8  6  1  0
  9  8  1  0
 10 11  1  0
  9 10  1  1
 11 19  1  0
 11 12  2  0
 12 13  1  0
 14 13  1  0
 14 15  2  0
 16 15  1  0
 17 16  2  0
 18 19  2  0
 18 17  1  0
 19 14  1  0
 20 21  2  0
 20  9  1  0
 23 25  1  0
 23 22  1  6
 24 23  1  0
 26 25  1  6
 26 27  1  0
 27 20  1  0
 28 26  1  0
 29 28  2  0
 30 28  1  0
M  END
$$$$
