TWL.pdb
     RDKit          3D

 30 31  0  0  1  0  0  0  0  0999 V2000
   26.1480  -23.5895  -18.8160 C   0  0  0  0  0  0  0  0  0  0  0  0
   25.1737  -23.2964  -17.7097 C   0  0  1  0  0  0  0  0  0  0  0  0
   24.4356  -24.4366  -17.4229 O   0  0  0  0  0  0  0  0  0  0  0  0
   25.8700  -22.8619  -16.4361 C   0  0  2  0  0  0  0  0  0  0  0  0
   26.7889  -23.9203  -15.9838 N   0  0  0  0  0  0  0  0  0  0  0  0
   24.9121  -22.6488  -15.3304 C   0  0  0  0  0  0  0  0  0  0  0  0
   24.8702  -23.4375  -14.3185 O   0  0  0  0  0  0  0  0  0  0  0  0
   24.0076  -21.5562  -15.3608 N   0  0  0  0  0  0  0  0  0  0  0  0
   23.0322  -21.3191  -14.2841 C   0  0  1  0  0  0  0  0  0  0  0  0
   22.8511  -19.8434  -14.2254 C   0  0  0  0  0  0  0  0  0  0  0  0
   21.8787  -19.3561  -13.2246 C   0  0  0  0  0  0  0  0  0  0  0  0
   20.7378  -18.5791  -13.5058 C   0  0  0  0  0  0  0  0  0  0  0  0
   20.0738  -18.3450  -12.3889 N   0  0  0  0  0  0  0  0  0  0  0  0
   20.7002  -18.9218  -11.3492 C   0  0  0  0  0  0  0  0  0  0  0  0
   20.4265  -18.9702   -9.9913 C   0  0  0  0  0  0  0  0  0  0  0  0
   21.2907  -19.6505   -9.1826 C   0  0  0  0  0  0  0  0  0  0  0  0
   22.4066  -20.2781   -9.6701 C   0  0  0  0  0  0  0  0  0  0  0  0
   22.6719  -20.2278  -11.0092 C   0  0  0  0  0  0  0  0  0  0  0  0
   21.8286  -19.5518  -11.8802 C   0  0  0  0  0  0  0  0  0  0  0  0
   21.8439  -22.1476  -14.4938 C   0  0  0  0  0  0  0  0  0  0  0  0
   21.4406  -22.4248  -15.6793 O   0  0  0  0  0  0  0  0  0  0  0  0
   18.9830  -26.6173  -14.1317 C   0  0  0  0  0  0  0  0  0  0  0  0
   19.1360  -25.8646  -12.8518 C   0  0  1  0  0  0  0  0  0  0  0  0
   19.3374  -26.8110  -11.6662 C   0  0  0  0  0  0  0  0  0  0  0  0
   20.0450  -24.7162  -12.8315 C   0  0  0  0  0  0  0  0  0  0  0  0
   19.8663  -23.5530  -13.7291 C   0  0  2  0  0  0  0  0  0  0  0  0
   21.0674  -22.7036  -13.4513 N   0  0  0  0  0  0  0  0  0  0  0  0
   18.6598  -22.7749  -13.6643 C   0  0  0  0  0  0  0  0  0  0  0  0
   18.4020  -21.9079  -12.8066 O   0  0  0  0  0  0  0  0  0  0  0  0
   17.6540  -22.9580  -14.6158 O   0  0  0  0  0  0  0  0  0  0  0  0
  2  1  1  6
  2  3  1  0
  4  2  1  0
  4  5  1  1
  6  7  2  0
  6  4  1  0
  8  6  1  0
  9  8  1  0
 10 11  1  0
  9 10  1  6
 11 19  1  0
 11 12  2  0
 12 13  1  0
 14 13  1  0
 14 15  2  0
 16 15  1  0
 17 16  2  0
 18 19  2  0
 18 17  1  0
 19 14  1  0
 20 21  2  0
 20  9  1  0
 23 25  1  0
 23 22  1  6
 24 23  1  0
 26 25  1  1
 26 27  1  0
 27 20  1  0
 28 26  1  0
 29 28  2  0
 30 28  1  0
M  END
$$$$
