TWL.pdb
     RDKit          3D

 30 31  0  0  1  0  0  0  0  0999 V2000
   28.6371  -19.1106  -16.4939 C   0  0  0  0  0  0  0  0  0  0  0  0
   27.7392  -19.6065  -15.3954 C   0  0  1  0  0  0  0  0  0  0  0  0
   26.5127  -19.9801  -15.9273 O   0  0  0  0  0  0  0  0  0  0  0  0
   28.3212  -20.8098  -14.6819 C   0  0  2  0  0  0  0  0  0  0  0  0
   28.3066  -21.9773  -15.5795 N   0  0  0  0  0  0  0  0  0  0  0  0
   27.5191  -21.1898  -13.4997 C   0  0  0  0  0  0  0  0  0  0  0  0
   26.6236  -22.1072  -13.5639 O   0  0  0  0  0  0  0  0  0  0  0  0
   27.7222  -20.5440  -12.2529 N   0  0  0  0  0  0  0  0  0  0  0  0
   26.8965  -20.8465  -11.0725 C   0  0  1  0  0  0  0  0  0  0  0  0
   27.6407  -20.2912   -9.9099 C   0  0  0  0  0  0  0  0  0  0  0  0
   26.9620  -20.4026   -8.6016 C   0  0  0  0  0  0  0  0  0  0  0  0
   25.6094  -20.7467   -8.4103 C   0  0  0  0  0  0  0  0  0  0  0  0
   25.3394  -20.7844   -7.1185 N   0  0  0  0  0  0  0  0  0  0  0  0
   26.4390  -20.4825   -6.4074 C   0  0  0  0  0  0  0  0  0  0  0  0
   26.6843  -20.3787   -5.0471 C   0  0  0  0  0  0  0  0  0  0  0  0
   27.9421  -20.0357   -4.6425 C   0  0  0  0  0  0  0  0  0  0  0  0
   28.9553  -19.7943   -5.5324 C   0  0  0  0  0  0  0  0  0  0  0  0
   28.7087  -19.8981   -6.8720 C   0  0  0  0  0  0  0  0  0  0  0  0
   27.4495  -20.2445   -7.3424 C   0  0  0  0  0  0  0  0  0  0  0  0
   25.5241  -20.3867  -11.2906 C   0  0  0  0  0  0  0  0  0  0  0  0
   25.2921  -19.2020  -11.7238 O   0  0  0  0  0  0  0  0  0  0  0  0
   21.2924  -22.3310  -14.6257 C   0  0  0  0  0  0  0  0  0  0  0  0
   21.4574  -21.4893  -13.4041 C   0  0  1  0  0  0  0  0  0  0  0  0
   20.2324  -21.5805  -12.4915 C   0  0  0  0  0  0  0  0  0  0  0  0
   22.7250  -21.5732  -12.6748 C   0  0  0  0  0  0  0  0  0  0  0  0
   23.0117  -20.7306  -11.4922 C   0  0  2  0  0  0  0  0  0  0  0  0
   24.3742  -21.1768  -11.0614 N   0  0  0  0  0  0  0  0  0  0  0  0
   22.0996  -20.7176  -10.3818 C   0  0  0  0  0  0  0  0  0  0  0  0
   21.2613  -19.8264  -10.1432 O   0  0  0  0  0  0  0  0  0  0  0  0
   22.1026  -21.7650   -9.4579 O   0  0  0  0  0  0  0  0  0  0  0  0
  2  1  1  6
  2  3  1  0
  4  2  1  0
  4  5  1  6
  6  7  2  0
  6  4  1  0
  8  6  1  0
  9  8  1  0
 10 11  1  0
  9 10  1  1
 11 19  1  0
 11 12  2  0
 12 13  1  0
 14 13  1  0
 14 15  2  0
 16 15  1  0
 17 16  2  0
 18 19  2  0
 18 17  1  0
 19 14  1  0
 20 21  2  0
 20  9  1  0
 23 25  1  0
 23 22  1  6
 24 23  1  0
 26 25  1  6
 26 27  1  0
 27 20  1  0
 28 26  1  0
 29 28  2  0
 30 28  1  0
M  END
$$$$
