TWL.pdb
     RDKit          3D

 30 31  0  0  1  0  0  0  0  0999 V2000
   28.4906  -20.3753  -18.3641 C   0  0  0  0  0  0  0  0  0  0  0  0
   27.7560  -20.9819  -17.2016 C   0  0  1  0  0  0  0  0  0  0  0  0
   28.6672  -21.5109  -16.2977 O   0  0  0  0  0  0  0  0  0  0  0  0
   26.9110  -19.9623  -16.4654 C   0  0  2  0  0  0  0  0  0  0  0  0
   27.7670  -18.8741  -15.9632 N   0  0  0  0  0  0  0  0  0  0  0  0
   26.2513  -20.5477  -15.2790 C   0  0  0  0  0  0  0  0  0  0  0  0
   25.4012  -21.5032  -15.3880 O   0  0  0  0  0  0  0  0  0  0  0  0
   26.5454  -20.0635  -13.9783 N   0  0  0  0  0  0  0  0  0  0  0  0
   25.8589  -20.5742  -12.7806 C   0  0  1  0  0  0  0  0  0  0  0  0
   26.7681  -20.2781  -11.6407 C   0  0  0  0  0  0  0  0  0  0  0  0
   26.2562  -20.6387  -10.3018 C   0  0  0  0  0  0  0  0  0  0  0  0
   25.3932  -21.7160  -10.0207 C   0  0  0  0  0  0  0  0  0  0  0  0
   25.1593  -21.7703   -8.7224 N   0  0  0  0  0  0  0  0  0  0  0  0
   25.8180  -20.7828   -8.0924 C   0  0  0  0  0  0  0  0  0  0  0  0
   25.9017  -20.4031   -6.7619 C   0  0  0  0  0  0  0  0  0  0  0  0
   26.6704  -19.3199   -6.4470 C   0  0  0  0  0  0  0  0  0  0  0  0
   27.3523  -18.6070   -7.3976 C   0  0  0  0  0  0  0  0  0  0  0  0
   27.2668  -18.9852   -8.7074 C   0  0  0  0  0  0  0  0  0  0  0  0
   26.5013  -20.0791   -9.0873 C   0  0  0  0  0  0  0  0  0  0  0  0
   24.4942  -20.0481  -12.7233 C   0  0  0  0  0  0  0  0  0  0  0  0
   24.2610  -18.8080  -12.9529 O   0  0  0  0  0  0  0  0  0  0  0  0
   20.4566  -21.6673  -14.9631 C   0  0  0  0  0  0  0  0  0  0  0  0
   21.6489  -20.7923  -14.7610 C   0  0  1  0  0  0  0  0  0  0  0  0
   22.1190  -20.1730  -16.0790 C   0  0  0  0  0  0  0  0  0  0  0  0
   21.6215  -19.8341  -13.6533 C   0  0  0  0  0  0  0  0  0  0  0  0
   21.9962  -20.2139  -12.2726 C   0  0  2  0  0  0  0  0  0  0  0  0
   23.3522  -20.8283  -12.4300 N   0  0  0  0  0  0  0  0  0  0  0  0
   21.1317  -21.0653  -11.5026 C   0  0  0  0  0  0  0  0  0  0  0  0
   20.0037  -20.7542  -11.0727 O   0  0  0  0  0  0  0  0  0  0  0  0
   21.5319  -22.3633  -11.1775 O   0  0  0  0  0  0  0  0  0  0  0  0
  2  1  1  6
  2  3  1  0
  4  2  1  0
  4  5  1  1
  6  7  2  0
  6  4  1  0
  8  6  1  0
  9  8  1  0
 10 11  1  0
  9 10  1  1
 11 19  1  0
 11 12  2  0
 12 13  1  0
 14 13  1  0
 14 15  2  0
 16 15  1  0
 17 16  2  0
 18 19  2  0
 18 17  1  0
 19 14  1  0
 20 21  2  0
 20  9  1  0
 23 25  1  0
 23 22  1  6
 24 23  1  0
 26 25  1  6
 26 27  1  0
 27 20  1  0
 28 26  1  0
 29 28  2  0
 30 28  1  0
M  END
$$$$
