TWL.pdb
     RDKit          3D

 30 31  0  0  1  0  0  0  0  0999 V2000
   21.6576  -18.2440  -13.8369 C   0  0  0  0  0  0  0  0  0  0  0  0
   22.7838  -19.0891  -13.3112 C   0  0  1  0  0  0  0  0  0  0  0  0
   22.2753  -20.2646  -12.7758 O   0  0  0  0  0  0  0  0  0  0  0  0
   23.7717  -19.4634  -14.3973 C   0  0  2  0  0  0  0  0  0  0  0  0
   23.0794  -20.1978  -15.4699 N   0  0  0  0  0  0  0  0  0  0  0  0
   24.8266  -20.3684  -13.8937 C   0  0  0  0  0  0  0  0  0  0  0  0
   24.8354  -21.6175  -14.1891 O   0  0  0  0  0  0  0  0  0  0  0  0
   25.8656  -19.8732  -13.0643 N   0  0  0  0  0  0  0  0  0  0  0  0
   26.9198  -20.7482  -12.5259 C   0  0  1  0  0  0  0  0  0  0  0  0
   28.2068  -20.1179  -12.9260 C   0  0  0  0  0  0  0  0  0  0  0  0
   28.4721  -20.0685  -14.3791 C   0  0  0  0  0  0  0  0  0  0  0  0
   29.0331  -21.1112  -15.1425 C   0  0  0  0  0  0  0  0  0  0  0  0
   29.1030  -20.7459  -16.4093 N   0  0  0  0  0  0  0  0  0  0  0  0
   28.6183  -19.5014  -16.5589 C   0  0  0  0  0  0  0  0  0  0  0  0
   28.4751  -18.6703  -17.6590 C   0  0  0  0  0  0  0  0  0  0  0  0
   27.9405  -17.4293  -17.4649 C   0  0  0  0  0  0  0  0  0  0  0  0
   27.5471  -16.9886  -16.2290 C   0  0  0  0  0  0  0  0  0  0  0  0
   27.6900  -17.8115  -15.1480 C   0  0  0  0  0  0  0  0  0  0  0  0
   28.2263  -19.0845  -15.2844 C   0  0  0  0  0  0  0  0  0  0  0  0
   26.6894  -20.9910  -11.1010 C   0  0  0  0  0  0  0  0  0  0  0  0
   27.4518  -21.7832  -10.4406 O   0  0  0  0  0  0  0  0  0  0  0  0
   27.7848  -18.5897   -7.1423 C   0  0  0  0  0  0  0  0  0  0  0  0
   27.2878  -19.7707   -7.9081 C   0  0  1  0  0  0  0  0  0  0  0  0
   27.9944  -21.0569   -7.4745 C   0  0  0  0  0  0  0  0  0  0  0  0
   25.8402  -19.9337   -8.0614 C   0  0  0  0  0  0  0  0  0  0  0  0
   25.2522  -20.9122   -9.0035 C   0  0  2  0  0  0  0  0  0  0  0  0
   25.6522  -20.3925  -10.3493 N   0  0  0  0  0  0  0  0  0  0  0  0
   23.8439  -21.1949   -8.9589 C   0  0  0  0  0  0  0  0  0  0  0  0
   23.2288  -21.6591   -7.9791 O   0  0  0  0  0  0  0  0  0  0  0  0
   23.0422  -20.9482  -10.0756 O   0  0  0  0  0  0  0  0  0  0  0  0
  2  1  1  6
  2  3  1  0
  4  2  1  0
  4  5  1  6
  6  7  2  0
  6  4  1  0
  8  6  1  0
  9  8  1  0
 10 11  1  0
  9 10  1  1
 11 19  1  0
 11 12  2  0
 12 13  1  0
 14 13  1  0
 14 15  2  0
 16 15  1  0
 17 16  2  0
 18 19  2  0
 18 17  1  0
 19 14  1  0
 20 21  2  0
 20  9  1  0
 23 25  1  0
 23 22  1  1
 24 23  1  0
 26 25  1  1
 26 27  1  0
 27 20  1  0
 28 26  1  0
 29 28  2  0
 30 28  1  0
M  END
$$$$
