TWL.pdb
     RDKit          3D

 30 31  0  0  1  0  0  0  0  0999 V2000
   28.9285  -21.6661  -19.1181 C   0  0  0  0  0  0  0  0  0  0  0  0
   27.7598  -21.1600  -18.3201 C   0  0  1  0  0  0  0  0  0  0  0  0
   27.4868  -22.0399  -17.2817 O   0  0  0  0  0  0  0  0  0  0  0  0
   28.0291  -19.7974  -17.7147 C   0  0  2  0  0  0  0  0  0  0  0  0
   29.2404  -19.8533  -16.8789 N   0  0  0  0  0  0  0  0  0  0  0  0
   26.9329  -19.3654  -16.8218 C   0  0  0  0  0  0  0  0  0  0  0  0
   27.1422  -19.1001  -15.5835 O   0  0  0  0  0  0  0  0  0  0  0  0
   25.6101  -19.2315  -17.3169 N   0  0  0  0  0  0  0  0  0  0  0  0
   24.5010  -18.7675  -16.4676 C   0  0  1  0  0  0  0  0  0  0  0  0
   23.4876  -18.2079  -17.4023 C   0  0  0  0  0  0  0  0  0  0  0  0
   22.2303  -17.7418  -16.7806 C   0  0  0  0  0  0  0  0  0  0  0  0
   22.1226  -17.1295  -15.5164 C   0  0  0  0  0  0  0  0  0  0  0  0
   20.8626  -16.8116  -15.2830 N   0  0  0  0  0  0  0  0  0  0  0  0
   20.0939  -17.1747  -16.3238 C   0  0  0  0  0  0  0  0  0  0  0  0
   18.7340  -17.0746  -16.5728 C   0  0  0  0  0  0  0  0  0  0  0  0
   18.2571  -17.5612  -17.7557 C   0  0  0  0  0  0  0  0  0  0  0  0
   19.0749  -18.1384  -18.6910 C   0  0  0  0  0  0  0  0  0  0  0  0
   20.4144  -18.2345  -18.4410 C   0  0  0  0  0  0  0  0  0  0  0  0
   20.9567  -17.7562  -17.2561 C   0  0  0  0  0  0  0  0  0  0  0  0
   24.0813  -19.8389  -15.5630 C   0  0  0  0  0  0  0  0  0  0  0  0
   24.0344  -21.0553  -15.9669 O   0  0  0  0  0  0  0  0  0  0  0  0
   25.9448  -20.4802  -10.5447 C   0  0  0  0  0  0  0  0  0  0  0  0
   25.3550  -20.7247  -11.8940 C   0  0  1  0  0  0  0  0  0  0  0  0
   25.8651  -22.0345  -12.4991 C   0  0  0  0  0  0  0  0  0  0  0  0
   23.9115  -20.5386  -12.0598 C   0  0  0  0  0  0  0  0  0  0  0  0
   23.2302  -20.7686  -13.3534 C   0  0  2  0  0  0  0  0  0  0  0  0
   23.7119  -19.6413  -14.2126 N   0  0  0  0  0  0  0  0  0  0  0  0
   21.7979  -20.8762  -13.4013 C   0  0  0  0  0  0  0  0  0  0  0  0
   21.1308  -21.8501  -13.0008 O   0  0  0  0  0  0  0  0  0  0  0  0
   21.0322  -19.8337  -13.9280 O   0  0  0  0  0  0  0  0  0  0  0  0
  2  1  1  1
  2  3  1  0
  4  2  1  0
  4  5  1  1
  6  7  2  0
  6  4  1  0
  8  6  1  0
  9  8  1  0
 10 11  1  0
  9 10  1  6
 11 19  1  0
 11 12  2  0
 12 13  1  0
 14 13  1  0
 14 15  2  0
 16 15  1  0
 17 16  2  0
 18 19  2  0
 18 17  1  0
 19 14  1  0
 20 21  2  0
 20  9  1  0
 23 25  1  0
 23 22  1  1
 24 23  1  0
 26 25  1  1
 26 27  1  0
 27 20  1  0
 28 26  1  0
 29 28  2  0
 30 28  1  0
M  END
$$$$
