HHS.pdb
     RDKit          3D

 27 28  0  0  1  0  0  0  0  0999 V2000
   16.4669   -9.9297  -14.8748 N   0  0  0  0  0  0  0  0  0  0  0  0
   16.8941   -8.9964  -15.8878 C   0  0  1  0  0  0  0  0  0  0  0  0
   15.8608   -7.8847  -15.9278 C   0  0  0  0  0  0  0  0  0  0  0  0
   14.5617   -8.3501  -16.4681 C   0  0  0  0  0  0  0  0  0  0  0  0
   14.3809   -9.3547  -17.4156 C   0  0  0  0  0  0  0  0  0  0  0  0
   13.0783   -9.4876  -17.6484 N   0  0  0  0  0  0  0  0  0  0  0  0
   12.4001   -8.6063  -16.8877 C   0  0  0  0  0  0  0  0  0  0  0  0
   13.3197   -7.9236  -16.1769 N   0  0  0  0  0  0  0  0  0  0  0  0
   18.2015   -8.3702  -15.5469 C   0  0  0  0  0  0  0  0  0  0  0  0
   18.4241   -8.0296  -14.3509 O   0  0  0  0  0  0  0  0  0  0  0  0
   19.2278   -8.1279  -16.4908 N   0  0  0  0  0  0  0  0  0  0  0  0
   20.5211   -7.5980  -16.2205 C   0  0  1  0  0  0  0  0  0  0  0  0
   21.6617   -8.1937  -16.9552 C   0  0  0  0  0  0  0  0  0  0  0  0
   22.9816   -7.5825  -16.7001 C   0  0  0  0  0  0  0  0  0  0  0  0
   23.3629   -6.5612  -15.8587 C   0  0  0  0  0  0  0  0  0  0  0  0
   24.7031   -6.3635  -16.0015 N   0  0  0  0  0  0  0  0  0  0  0  0
   25.1637   -7.2370  -16.9115 C   0  0  0  0  0  0  0  0  0  0  0  0
   24.1402   -7.9595  -17.3248 N   0  0  0  0  0  0  0  0  0  0  0  0
   20.4494   -6.1091  -16.4311 C   0  0  0  0  0  0  0  0  0  0  0  0
   21.4324   -5.3500  -16.2339 O   0  0  0  0  0  0  0  0  0  0  0  0
   18.1205   -2.4348  -18.5983 O   0  0  0  0  0  0  0  0  0  0  0  0
   18.3226   -3.7710  -18.3636 C   0  0  0  0  0  0  0  0  0  0  0  0
   19.1432   -4.0538  -17.1266 C   0  0  2  0  0  0  0  0  0  0  0  0
   19.2535   -5.4780  -16.8684 N   0  0  0  0  0  0  0  0  0  0  0  0
   18.7265   -3.2871  -15.9637 C   0  0  0  0  0  0  0  0  0  0  0  0
   17.8757   -3.7417  -15.1729 O   0  0  0  0  0  0  0  0  0  0  0  0
   19.2644   -2.0421  -15.7127 O   0  0  0  0  0  0  0  0  0  0  0  0
  2  1  1  1
  3  2  1  0
  4  3  1  0
  5  4  2  0
  6  7  1  0
  6  5  1  0
  7  8  2  0
  8  4  1  0
  9  2  1  0
  9 10  2  0
 11  9  1  0
 12 11  1  0
 12 13  1  6
 13 14  1  0
 14 18  1  0
 14 15  2  0
 15 16  1  0
 17 16  1  0
 18 17  2  0
 19 12  1  0
 20 19  2  0
 22 21  1  0
 23 22  1  6
 23 24  1  0
 24 19  1  0
 25 23  1  0
 25 27  1  0
 26 25  2  0
M  END
$$$$
