HHS.pdb
     RDKit          3D

 27 28  0  0  1  0  0  0  0  0999 V2000
   21.4359  -13.3357  -18.7392 N   0  0  0  0  0  0  0  0  0  0  0  0
   20.3460  -12.5640  -18.1950 C   0  0  1  0  0  0  0  0  0  0  0  0
   20.0005  -13.1761  -16.8492 C   0  0  0  0  0  0  0  0  0  0  0  0
   19.4116  -14.5290  -16.9866 C   0  0  0  0  0  0  0  0  0  0  0  0
   18.1729  -14.8304  -17.5473 C   0  0  0  0  0  0  0  0  0  0  0  0
   17.9924  -16.1469  -17.4923 N   0  0  0  0  0  0  0  0  0  0  0  0
   19.0681  -16.7179  -16.9159 C   0  0  0  0  0  0  0  0  0  0  0  0
   19.9202  -15.7176  -16.6154 N   0  0  0  0  0  0  0  0  0  0  0  0
   20.7394  -11.1493  -17.9473 C   0  0  0  0  0  0  0  0  0  0  0  0
   21.7652  -10.9121  -17.2491 O   0  0  0  0  0  0  0  0  0  0  0  0
   20.0275  -10.0348  -18.4515 N   0  0  0  0  0  0  0  0  0  0  0  0
   20.3589   -8.6627  -18.2674 C   0  0  1  0  0  0  0  0  0  0  0  0
   19.9717   -7.7241  -19.3467 C   0  0  0  0  0  0  0  0  0  0  0  0
   20.2890   -6.3018  -19.1075 C   0  0  0  0  0  0  0  0  0  0  0  0
   19.4779   -5.2235  -18.8320 C   0  0  0  0  0  0  0  0  0  0  0  0
   20.2615   -4.1163  -18.7069 N   0  0  0  0  0  0  0  0  0  0  0  0
   21.5398   -4.4805  -18.8982 C   0  0  0  0  0  0  0  0  0  0  0  0
   21.5538   -5.7780  -19.1358 N   0  0  0  0  0  0  0  0  0  0  0  0
   19.7906   -8.2376  -16.9397 C   0  0  0  0  0  0  0  0  0  0  0  0
   18.6443   -8.5811  -16.5534 O   0  0  0  0  0  0  0  0  0  0  0  0
   20.8415   -8.8416  -13.4630 O   0  0  0  0  0  0  0  0  0  0  0  0
   20.8785   -7.4792  -13.6180 C   0  0  0  0  0  0  0  0  0  0  0  0
   20.0250   -6.9734  -14.7578 C   0  0  2  0  0  0  0  0  0  0  0  0
   20.5290   -7.4168  -16.0449 N   0  0  0  0  0  0  0  0  0  0  0  0
   19.7656   -5.5440  -14.7010 C   0  0  0  0  0  0  0  0  0  0  0  0
   20.4237   -4.7492  -15.4018 O   0  0  0  0  0  0  0  0  0  0  0  0
   18.7866   -5.0395  -13.8709 O   0  0  0  0  0  0  0  0  0  0  0  0
  2  1  1  1
  3  2  1  0
  4  3  1  0
  5  4  2  0
  6  7  1  0
  6  5  1  0
  7  8  2  0
  8  4  1  0
  9  2  1  0
  9 10  2  0
 11  9  1  0
 12 11  1  0
 12 13  1  6
 13 14  1  0
 14 18  1  0
 14 15  2  0
 15 16  1  0
 17 16  1  0
 18 17  2  0
 19 12  1  0
 20 19  2  0
 22 21  1  0
 23 22  1  1
 23 24  1  0
 24 19  1  0
 25 23  1  0
 25 27  1  0
 26 25  2  0
M  END
$$$$
