HHS.pdb
     RDKit          3D

 27 28  0  0  1  0  0  0  0  0999 V2000
   28.7126  -32.6002  -15.8148 N   0  0  0  0  0  0  0  0  0  0  0  0
   28.8359  -31.6896  -16.9263 C   0  0  1  0  0  0  0  0  0  0  0  0
   28.2030  -32.3702  -18.1269 C   0  0  0  0  0  0  0  0  0  0  0  0
   28.9917  -33.5379  -18.5859 C   0  0  0  0  0  0  0  0  0  0  0  0
   28.5879  -34.8698  -18.5369 C   0  0  0  0  0  0  0  0  0  0  0  0
   29.5612  -35.6259  -19.0366 N   0  0  0  0  0  0  0  0  0  0  0  0
   30.5873  -34.8369  -19.4109 C   0  0  0  0  0  0  0  0  0  0  0  0
   30.2219  -33.5705  -19.1287 N   0  0  0  0  0  0  0  0  0  0  0  0
   28.0859  -30.4249  -16.6911 C   0  0  0  0  0  0  0  0  0  0  0  0
   27.5742  -30.2185  -15.5546 O   0  0  0  0  0  0  0  0  0  0  0  0
   27.9060  -29.4223  -17.6737 N   0  0  0  0  0  0  0  0  0  0  0  0
   27.2862  -28.1543  -17.4882 C   0  0  1  0  0  0  0  0  0  0  0  0
   27.8085  -27.3012  -16.3951 C   0  0  0  0  0  0  0  0  0  0  0  0
   27.1239  -26.0064  -16.2058 C   0  0  0  0  0  0  0  0  0  0  0  0
   25.8472  -25.7061  -15.7858 C   0  0  0  0  0  0  0  0  0  0  0  0
   25.6992  -24.3520  -15.7925 N   0  0  0  0  0  0  0  0  0  0  0  0
   26.8529  -23.8036  -16.2067 C   0  0  0  0  0  0  0  0  0  0  0  0
   27.6970  -24.7874  -16.4515 N   0  0  0  0  0  0  0  0  0  0  0  0
   27.3258  -27.4372  -18.8113 C   0  0  0  0  0  0  0  0  0  0  0  0
   28.4028  -27.1598  -19.3984 O   0  0  0  0  0  0  0  0  0  0  0  0
   25.8628  -24.1488  -19.5142 O   0  0  0  0  0  0  0  0  0  0  0  0
   25.3598  -24.9487  -20.5086 C   0  0  0  0  0  0  0  0  0  0  0  0
   26.1185  -26.2428  -20.6901 C   0  0  2  0  0  0  0  0  0  0  0  0
   26.1345  -27.0322  -19.4720 N   0  0  0  0  0  0  0  0  0  0  0  0
   27.4350  -26.0678  -21.2817 C   0  0  0  0  0  0  0  0  0  0  0  0
   28.4557  -26.4849  -20.6983 O   0  0  0  0  0  0  0  0  0  0  0  0
   27.5805  -25.4371  -22.4996 O   0  0  0  0  0  0  0  0  0  0  0  0
  2  1  1  1
  3  2  1  0
  4  3  1  0
  5  4  2  0
  6  7  1  0
  6  5  1  0
  7  8  2  0
  8  4  1  0
  9  2  1  0
  9 10  2  0
 11  9  1  0
 12 11  1  0
 12 13  1  1
 13 14  1  0
 14 18  1  0
 14 15  2  0
 15 16  1  0
 17 16  1  0
 18 17  2  0
 19 12  1  0
 20 19  2  0
 22 21  1  0
 23 22  1  1
 23 24  1  0
 24 19  1  0
 25 23  1  0
 25 27  1  0
 26 25  2  0
M  END
$$$$
