HHS.pdb
     RDKit          3D

 27 28  0  0  1  0  0  0  0  0999 V2000
   21.6979  -11.5646  -18.5521 N   0  0  0  0  0  0  0  0  0  0  0  0
   22.3842  -10.4499  -17.9469 C   0  0  1  0  0  0  0  0  0  0  0  0
   23.0414   -9.6721  -19.0730 C   0  0  0  0  0  0  0  0  0  0  0  0
   24.0766  -10.4698  -19.7719 C   0  0  0  0  0  0  0  0  0  0  0  0
   24.1069  -10.7596  -21.1337 C   0  0  0  0  0  0  0  0  0  0  0  0
   25.1849  -11.4966  -21.3857 N   0  0  0  0  0  0  0  0  0  0  0  0
   25.8610  -11.6995  -20.2381 C   0  0  0  0  0  0  0  0  0  0  0  0
   25.1712  -11.0673  -19.2679 N   0  0  0  0  0  0  0  0  0  0  0  0
   21.4395   -9.5231  -17.2644 C   0  0  0  0  0  0  0  0  0  0  0  0
   20.3498   -9.2311  -17.8329 O   0  0  0  0  0  0  0  0  0  0  0  0
   21.6866   -8.9385  -15.9993 N   0  0  0  0  0  0  0  0  0  0  0  0
   20.8307   -8.0444  -15.2963 C   0  0  1  0  0  0  0  0  0  0  0  0
   20.0762   -8.5962  -14.1465 C   0  0  0  0  0  0  0  0  0  0  0  0
   18.9943   -9.5437  -14.4816 C   0  0  0  0  0  0  0  0  0  0  0  0
   18.5817  -10.0623  -15.6888 C   0  0  0  0  0  0  0  0  0  0  0  0
   17.5244  -10.8908  -15.4626 N   0  0  0  0  0  0  0  0  0  0  0  0
   17.2698  -10.8995  -14.1441 C   0  0  0  0  0  0  0  0  0  0  0  0
   18.1434  -10.0993  -13.5638 N   0  0  0  0  0  0  0  0  0  0  0  0
   21.6598   -6.8555  -14.8896 C   0  0  0  0  0  0  0  0  0  0  0  0
   22.9113   -6.9095  -14.7792 O   0  0  0  0  0  0  0  0  0  0  0  0
   23.2671   -2.9422  -15.8852 O   0  0  0  0  0  0  0  0  0  0  0  0
   22.6181   -4.1495  -15.8329 C   0  0  0  0  0  0  0  0  0  0  0  0
   21.7997   -4.3461  -14.5779 C   0  0  2  0  0  0  0  0  0  0  0  0
   21.0637   -5.5969  -14.6063 N   0  0  0  0  0  0  0  0  0  0  0  0
   20.9750   -3.1989  -14.2351 C   0  0  0  0  0  0  0  0  0  0  0  0
   19.7644   -3.1727  -14.5348 O   0  0  0  0  0  0  0  0  0  0  0  0
   21.5156   -2.1173  -13.5717 O   0  0  0  0  0  0  0  0  0  0  0  0
  2  1  1  6
  3  2  1  0
  4  3  1  0
  5  4  2  0
  6  7  1  0
  6  5  1  0
  7  8  2  0
  8  4  1  0
  9  2  1  0
  9 10  2  0
 11  9  1  0
 12 11  1  0
 12 13  1  1
 13 14  1  0
 14 18  1  0
 14 15  2  0
 15 16  1  0
 17 16  1  0
 18 17  2  0
 19 12  1  0
 20 19  2  0
 22 21  1  0
 23 22  1  6
 23 24  1  0
 24 19  1  0
 25 23  1  0
 25 27  1  0
 26 25  2  0
M  END
$$$$
