HHS.pdb
     RDKit          3D

 27 28  0  0  1  0  0  0  0  0999 V2000
   22.4822  -13.0919  -19.3123 N   0  0  0  0  0  0  0  0  0  0  0  0
   21.9120  -11.7686  -19.2535 C   0  0  1  0  0  0  0  0  0  0  0  0
   20.7510  -11.8312  -18.2771 C   0  0  0  0  0  0  0  0  0  0  0  0
   19.5992  -12.5837  -18.8277 C   0  0  0  0  0  0  0  0  0  0  0  0
   19.5179  -13.1408  -20.1014 C   0  0  0  0  0  0  0  0  0  0  0  0
   18.3345  -13.7344  -20.2291 N   0  0  0  0  0  0  0  0  0  0  0  0
   17.6386  -13.5857  -19.0850 C   0  0  0  0  0  0  0  0  0  0  0  0
   18.4245  -12.8832  -18.2449 N   0  0  0  0  0  0  0  0  0  0  0  0
   22.8816  -10.7716  -18.7214 C   0  0  0  0  0  0  0  0  0  0  0  0
   23.7226  -11.1382  -17.8528 O   0  0  0  0  0  0  0  0  0  0  0  0
   22.9235   -9.4178  -19.1320 N   0  0  0  0  0  0  0  0  0  0  0  0
   23.8709   -8.4367  -18.7246 C   0  0  1  0  0  0  0  0  0  0  0  0
   24.7691   -7.8910  -19.7692 C   0  0  0  0  0  0  0  0  0  0  0  0
   25.6699   -8.8655  -20.4170 C   0  0  0  0  0  0  0  0  0  0  0  0
   25.9118  -10.1952  -20.1523 C   0  0  0  0  0  0  0  0  0  0  0  0
   26.8467  -10.6465  -21.0343 N   0  0  0  0  0  0  0  0  0  0  0  0
   27.1918   -9.6294  -21.8404 C   0  0  0  0  0  0  0  0  0  0  0  0
   26.4921   -8.5734  -21.4722 N   0  0  0  0  0  0  0  0  0  0  0  0
   23.1107   -7.3408  -18.0265 C   0  0  0  0  0  0  0  0  0  0  0  0
   21.8678   -7.1950  -18.1502 O   0  0  0  0  0  0  0  0  0  0  0  0
   21.5115   -5.2932  -14.4947 O   0  0  0  0  0  0  0  0  0  0  0  0
   22.1520   -6.1499  -15.3535 C   0  0  0  0  0  0  0  0  0  0  0  0
   23.0656   -5.4551  -16.3364 C   0  0  2  0  0  0  0  0  0  0  0  0
   23.7663   -6.4040  -17.1825 N   0  0  0  0  0  0  0  0  0  0  0  0
   23.9433   -4.4727  -15.7213 C   0  0  0  0  0  0  0  0  0  0  0  0
   23.4734   -3.5213  -15.0657 O   0  0  0  0  0  0  0  0  0  0  0  0
   25.3126   -4.5743  -15.8511 O   0  0  0  0  0  0  0  0  0  0  0  0
  2  1  1  1
  3  2  1  0
  4  3  1  0
  5  4  2  0
  6  7  1  0
  6  5  1  0
  7  8  2  0
  8  4  1  0
  9  2  1  0
  9 10  2  0
 11  9  1  0
 12 11  1  0
 12 13  1  6
 13 14  1  0
 14 18  1  0
 14 15  2  0
 15 16  1  0
 17 16  1  0
 18 17  2  0
 19 12  1  0
 20 19  2  0
 22 21  1  0
 23 22  1  1
 23 24  1  0
 24 19  1  0
 25 23  1  0
 25 27  1  0
 26 25  2  0
M  END
$$$$
