HHS.pdb
     RDKit          3D

 27 28  0  0  1  0  0  0  0  0999 V2000
   27.7735  -22.0095  -17.5500 N   0  0  0  0  0  0  0  0  0  0  0  0
   26.8471  -23.0610  -17.2099 C   0  0  1  0  0  0  0  0  0  0  0  0
   25.6130  -22.8576  -18.0706 C   0  0  0  0  0  0  0  0  0  0  0  0
   24.9178  -21.5869  -17.7574 C   0  0  0  0  0  0  0  0  0  0  0  0
   24.8842  -20.4512  -18.5628 C   0  0  0  0  0  0  0  0  0  0  0  0
   24.1653  -19.5169  -17.9472 N   0  0  0  0  0  0  0  0  0  0  0  0
   23.7273  -20.0001  -16.7682 C   0  0  0  0  0  0  0  0  0  0  0  0
   24.1954  -21.2603  -16.6708 N   0  0  0  0  0  0  0  0  0  0  0  0
   27.3942  -24.4071  -17.5357 C   0  0  0  0  0  0  0  0  0  0  0  0
   28.0941  -24.5478  -18.5780 O   0  0  0  0  0  0  0  0  0  0  0  0
   27.1780  -25.5579  -16.7408 N   0  0  0  0  0  0  0  0  0  0  0  0
   27.7917  -26.8315  -16.9074 C   0  0  1  0  0  0  0  0  0  0  0  0
   28.8876  -27.1801  -15.9731 C   0  0  0  0  0  0  0  0  0  0  0  0
   30.1370  -26.4085  -16.1296 C   0  0  0  0  0  0  0  0  0  0  0  0
   30.5153  -25.4713  -17.0651 C   0  0  0  0  0  0  0  0  0  0  0  0
   31.7818  -25.0615  -16.7760 N   0  0  0  0  0  0  0  0  0  0  0  0
   32.1997  -25.7215  -15.6837 C   0  0  0  0  0  0  0  0  0  0  0  0
   31.2219  -26.5204  -15.3018 N   0  0  0  0  0  0  0  0  0  0  0  0
   26.6970  -27.8645  -16.8800 C   0  0  0  0  0  0  0  0  0  0  0  0
   25.7306  -27.8049  -16.0775 O   0  0  0  0  0  0  0  0  0  0  0  0
   26.9248  -31.6928  -18.9560 O   0  0  0  0  0  0  0  0  0  0  0  0
   25.8020  -30.9055  -18.9840 C   0  0  0  0  0  0  0  0  0  0  0  0
   25.6683  -29.9941  -17.7861 C   0  0  2  0  0  0  0  0  0  0  0  0
   26.6997  -28.9728  -17.7697 N   0  0  0  0  0  0  0  0  0  0  0  0
   25.5407  -30.7056  -16.5246 C   0  0  0  0  0  0  0  0  0  0  0  0
   26.4866  -30.7354  -15.7120 O   0  0  0  0  0  0  0  0  0  0  0  0
   24.3709  -31.3613  -16.2024 O   0  0  0  0  0  0  0  0  0  0  0  0
  2  1  1  6
  3  2  1  0
  4  3  1  0
  5  4  2  0
  6  7  1  0
  6  5  1  0
  7  8  2  0
  8  4  1  0
  9  2  1  0
  9 10  2  0
 11  9  1  0
 12 11  1  0
 12 13  1  1
 13 14  1  0
 14 18  1  0
 14 15  2  0
 15 16  1  0
 17 16  1  0
 18 17  2  0
 19 12  1  0
 20 19  2  0
 22 21  1  0
 23 22  1  6
 23 24  1  0
 24 19  1  0
 25 23  1  0
 25 27  1  0
 26 25  2  0
M  END
$$$$
