HHS.pdb
     RDKit          3D

 27 28  0  0  1  0  0  0  0  0999 V2000
   28.9217  -28.2069  -21.1865 N   0  0  0  0  0  0  0  0  0  0  0  0
   27.5000  -28.3881  -21.0272 C   0  0  1  0  0  0  0  0  0  0  0  0
   27.0715  -29.4321  -22.0428 C   0  0  0  0  0  0  0  0  0  0  0  0
   27.1171  -28.9125  -23.4299 C   0  0  0  0  0  0  0  0  0  0  0  0
   28.0320  -29.2809  -24.4132 C   0  0  0  0  0  0  0  0  0  0  0  0
   27.7559  -28.6030  -25.5236 N   0  0  0  0  0  0  0  0  0  0  0  0
   26.6935  -27.8044  -25.3025 C   0  0  0  0  0  0  0  0  0  0  0  0
   26.3193  -28.0067  -24.0235 N   0  0  0  0  0  0  0  0  0  0  0  0
   27.1576  -28.9190  -19.6787 C   0  0  0  0  0  0  0  0  0  0  0  0
   27.9054  -29.7933  -19.1568 O   0  0  0  0  0  0  0  0  0  0  0  0
   26.0308  -28.5011  -18.9313 N   0  0  0  0  0  0  0  0  0  0  0  0
   25.7107  -28.8787  -17.5967 C   0  0  1  0  0  0  0  0  0  0  0  0
   25.9037  -27.8566  -16.5413 C   0  0  0  0  0  0  0  0  0  0  0  0
   27.2603  -27.2816  -16.4425 C   0  0  0  0  0  0  0  0  0  0  0  0
   28.4871  -27.8755  -16.2451 C   0  0  0  0  0  0  0  0  0  0  0  0
   29.4380  -26.9005  -16.2183 N   0  0  0  0  0  0  0  0  0  0  0  0
   28.8318  -25.7151  -16.3940 C   0  0  0  0  0  0  0  0  0  0  0  0
   27.5394  -25.9438  -16.5269 N   0  0  0  0  0  0  0  0  0  0  0  0
   24.2987  -29.4008  -17.6040 C   0  0  0  0  0  0  0  0  0  0  0  0
   23.4468  -29.0355  -18.4539 O   0  0  0  0  0  0  0  0  0  0  0  0
   23.4351  -33.0207  -15.8979 O   0  0  0  0  0  0  0  0  0  0  0  0
   22.4238  -32.1120  -15.7164 C   0  0  0  0  0  0  0  0  0  0  0  0
   22.5147  -30.9107  -16.6286 C   0  0  2  0  0  0  0  0  0  0  0  0
   23.8509  -30.3438  -16.6396 N   0  0  0  0  0  0  0  0  0  0  0  0
   21.4714  -29.9246  -16.3983 C   0  0  0  0  0  0  0  0  0  0  0  0
   20.2675  -30.2441  -16.4652 O   0  0  0  0  0  0  0  0  0  0  0  0
   21.7932  -28.6168  -16.1014 O   0  0  0  0  0  0  0  0  0  0  0  0
  2  1  1  1
  3  2  1  0
  4  3  1  0
  5  4  2  0
  6  7  1  0
  6  5  1  0
  7  8  2  0
  8  4  1  0
  9  2  1  0
  9 10  2  0
 11  9  1  0
 12 11  1  0
 12 13  1  1
 13 14  1  0
 14 18  1  0
 14 15  2  0
 15 16  1  0
 17 16  1  0
 18 17  2  0
 19 12  1  0
 20 19  2  0
 22 21  1  0
 23 22  1  1
 23 24  1  0
 24 19  1  0
 25 23  1  0
 25 27  1  0
 26 25  2  0
M  END
$$$$
