HHS.pdb
     RDKit          3D

 27 28  0  0  1  0  0  0  0  0999 V2000
   39.0477  -10.9902   -6.1806 N   0  0  0  0  0  0  0  0  0  0  0  0
   40.1171  -10.5055   -7.0178 C   0  0  1  0  0  0  0  0  0  0  0  0
   39.6506   -9.1883   -7.6116 C   0  0  0  0  0  0  0  0  0  0  0  0
   39.1314   -9.3509   -8.9901 C   0  0  0  0  0  0  0  0  0  0  0  0
   39.0035  -10.5533   -9.6810 C   0  0  0  0  0  0  0  0  0  0  0  0
   38.5032  -10.2977  -10.8865 N   0  0  0  0  0  0  0  0  0  0  0  0
   38.2992   -8.9715  -11.0094 C   0  0  0  0  0  0  0  0  0  0  0  0
   38.6873   -8.4129   -9.8457 N   0  0  0  0  0  0  0  0  0  0  0  0
   41.3498  -10.2221   -6.2319 C   0  0  0  0  0  0  0  0  0  0  0  0
   41.2388   -9.7150   -5.0802 O   0  0  0  0  0  0  0  0  0  0  0  0
   42.6592  -10.4883   -6.6987 N   0  0  0  0  0  0  0  0  0  0  0  0
   43.8760  -10.2195   -6.0106 C   0  0  1  0  0  0  0  0  0  0  0  0
   44.9262  -11.2634   -6.0635 C   0  0  0  0  0  0  0  0  0  0  0  0
   46.1891  -10.9419   -5.3690 C   0  0  0  0  0  0  0  0  0  0  0  0
   46.5737   -9.8325   -4.6494 C   0  0  0  0  0  0  0  0  0  0  0  0
   47.8526  -10.0204   -4.2194 N   0  0  0  0  0  0  0  0  0  0  0  0
   48.2720  -11.2195   -4.6547 C   0  0  0  0  0  0  0  0  0  0  0  0
   47.2832  -11.7646   -5.3368 N   0  0  0  0  0  0  0  0  0  0  0  0
   44.3913   -8.8960   -6.5099 C   0  0  0  0  0  0  0  0  0  0  0  0
   44.2364   -8.5145   -7.6982 O   0  0  0  0  0  0  0  0  0  0  0  0
   44.1701   -4.5717   -6.6291 O   0  0  0  0  0  0  0  0  0  0  0  0
   44.0193   -5.9091   -6.3639 C   0  0  0  0  0  0  0  0  0  0  0  0
   45.3029   -6.5977   -5.9616 C   0  0  2  0  0  0  0  0  0  0  0  0
   45.0874   -7.9999   -5.6542 N   0  0  0  0  0  0  0  0  0  0  0  0
   46.0458   -5.8889   -4.9323 C   0  0  0  0  0  0  0  0  0  0  0  0
   45.8466   -6.1282   -3.7244 O   0  0  0  0  0  0  0  0  0  0  0  0
   46.9855   -4.9382   -5.2720 O   0  0  0  0  0  0  0  0  0  0  0  0
  2  1  1  1
  3  2  1  0
  4  3  1  0
  5  4  2  0
  6  7  1  0
  6  5  1  0
  7  8  2  0
  8  4  1  0
  9  2  1  0
  9 10  2  0
 11  9  1  0
 12 11  1  0
 12 13  1  6
 13 14  1  0
 14 18  1  0
 14 15  2  0
 15 16  1  0
 17 16  1  0
 18 17  2  0
 19 12  1  0
 20 19  2  0
 22 21  1  0
 23 22  1  1
 23 24  1  0
 24 19  1  0
 25 23  1  0
 25 27  1  0
 26 25  2  0
M  END
$$$$
