HHS.pdb
     RDKit          3D

 27 28  0  0  1  0  0  0  0  0999 V2000
   21.2120  -12.4371  -17.1458 N   0  0  0  0  0  0  0  0  0  0  0  0
   20.4269  -11.2763  -17.4859 C   0  0  1  0  0  0  0  0  0  0  0  0
   18.9708  -11.7057  -17.4621 C   0  0  0  0  0  0  0  0  0  0  0  0
   18.6296  -12.5839  -18.6060 C   0  0  0  0  0  0  0  0  0  0  0  0
   19.4965  -12.9814  -19.6209 C   0  0  0  0  0  0  0  0  0  0  0  0
   18.8297  -13.7638  -20.4648 N   0  0  0  0  0  0  0  0  0  0  0  0
   17.5580  -13.8927  -20.0387 C   0  0  0  0  0  0  0  0  0  0  0  0
   17.4559  -13.1678  -18.9069 N   0  0  0  0  0  0  0  0  0  0  0  0
   20.5820  -10.1894  -16.4799 C   0  0  0  0  0  0  0  0  0  0  0  0
   20.3669  -10.4469  -15.2620 O   0  0  0  0  0  0  0  0  0  0  0  0
   20.9611   -8.8650  -16.8044 N   0  0  0  0  0  0  0  0  0  0  0  0
   21.1146   -7.7799  -15.8960 C   0  0  1  0  0  0  0  0  0  0  0  0
   22.4963   -7.4263  -15.4942 C   0  0  0  0  0  0  0  0  0  0  0  0
   23.2961   -8.5203  -14.9075 C   0  0  0  0  0  0  0  0  0  0  0  0
   24.4011   -9.1927  -15.3799 C   0  0  0  0  0  0  0  0  0  0  0  0
   24.7595  -10.1316  -14.4603 N   0  0  0  0  0  0  0  0  0  0  0  0
   23.9037  -10.0591  -13.4280 C   0  0  0  0  0  0  0  0  0  0  0  0
   23.0360   -9.1021  -13.6956 N   0  0  0  0  0  0  0  0  0  0  0  0
   20.3937   -6.5964  -16.4841 C   0  0  0  0  0  0  0  0  0  0  0  0
   20.2821   -6.4202  -17.7243 O   0  0  0  0  0  0  0  0  0  0  0  0
   16.8734   -4.2051  -17.3990 O   0  0  0  0  0  0  0  0  0  0  0  0
   17.7958   -5.1384  -16.9993 C   0  0  0  0  0  0  0  0  0  0  0  0
   18.9137   -4.5672  -16.1583 C   0  0  2  0  0  0  0  0  0  0  0  0
   19.7956   -5.6062  -15.6585 N   0  0  0  0  0  0  0  0  0  0  0  0
   18.4560   -3.6526  -15.1250 C   0  0  0  0  0  0  0  0  0  0  0  0
   18.6386   -3.9120  -13.9186 O   0  0  0  0  0  0  0  0  0  0  0  0
   17.8108   -2.4802  -15.4591 O   0  0  0  0  0  0  0  0  0  0  0  0
  2  1  1  1
  3  2  1  0
  4  3  1  0
  5  4  2  0
  6  7  1  0
  6  5  1  0
  7  8  2  0
  8  4  1  0
  9  2  1  0
  9 10  2  0
 11  9  1  0
 12 11  1  0
 12 13  1  6
 13 14  1  0
 14 18  1  0
 14 15  2  0
 15 16  1  0
 17 16  1  0
 18 17  2  0
 19 12  1  0
 20 19  2  0
 22 21  1  0
 23 22  1  1
 23 24  1  0
 24 19  1  0
 25 23  1  0
 25 27  1  0
 26 25  2  0
M  END
$$$$
