REW.pdb
     RDKit          3D

 35 36  0  0  1  0  0  0  0  0999 V2000
   10.1100  -13.9422   19.3285 N   0  0  0  0  0  0  0  0  0  0  0  0
    9.1373  -12.9963   18.9067 C   0  0  0  0  0  0  0  0  0  0  0  0
    9.5241  -11.8308   18.5234 N   0  0  0  0  0  0  0  0  0  0  0  0
    7.7548  -13.3335   18.9091 N   0  0  0  0  0  0  0  0  0  0  0  0
    7.2835  -14.6600   19.3166 C   0  0  0  0  0  0  0  0  0  0  0  0
    6.5221  -14.5289   20.5992 C   0  0  0  0  0  0  0  0  0  0  0  0
    7.1354  -15.2735   21.7187 C   0  0  0  0  0  0  0  0  0  0  0  0
    7.4615  -16.6809   21.4138 C   0  0  2  0  0  0  0  0  0  0  0  0
    6.3392  -17.5523   21.2393 N   0  0  0  0  0  0  0  0  0  0  0  0
    8.3583  -17.2341   22.4734 C   0  0  0  0  0  0  0  0  0  0  0  0
    7.8814  -17.9226   23.4355 O   0  0  0  0  0  0  0  0  0  0  0  0
    8.8191  -11.1199   18.2874 N   0  0  0  0  0  0  0  0  0  0  0  0
    9.7392  -17.0306   22.4686 C   0  0  2  0  0  0  0  0  0  0  0  0
   10.6108  -17.6607   23.4727 C   0  0  0  0  0  0  0  0  0  0  0  0
   11.9525  -17.8951   22.9231 C   0  0  0  0  0  0  0  0  0  0  0  0
   13.0172  -18.4397   23.8041 C   0  0  0  0  0  0  0  0  0  0  0  0
   14.3168  -18.5865   23.1344 O   0  0  0  0  0  0  0  0  0  0  0  0
   14.8407  -17.6916   22.4422 C   0  0  0  0  0  0  0  0  0  0  0  0
   10.4952  -16.8236   24.6720 O   0  0  0  0  0  0  0  0  0  0  0  0
   10.7426  -15.5671   24.6923 O   0  0  0  0  0  0  0  0  0  0  0  0
   15.0037  -19.7931   23.2848 N   0  0  0  0  0  0  0  0  0  0  0  0
   10.0873  -17.3429   25.9463 C   0  0  1  0  0  0  0  0  0  0  0  0
   10.3377  -16.6047   27.2003 C   0  0  0  0  0  0  0  0  0  0  0  0
    9.0423  -16.4777   27.9508 C   0  0  0  0  0  0  0  0  0  0  0  0
    7.9756  -15.8802   27.1591 C   0  0  0  0  0  0  0  0  0  0  0  0
    7.0351  -16.5758   26.3791 N   0  0  0  0  0  0  0  0  0  0  0  0
    6.2352  -15.7076   25.7516 C   0  0  0  0  0  0  0  0  0  0  0  0
    6.5788  -14.4440   26.0627 C   0  0  0  0  0  0  0  0  0  0  0  0
    6.0517  -13.2186   25.6930 C   0  0  0  0  0  0  0  0  0  0  0  0
    6.6400  -12.0938   26.2296 C   0  0  0  0  0  0  0  0  0  0  0  0
    7.6977  -12.1595   27.0902 C   0  0  0  0  0  0  0  0  0  0  0  0
    8.2002  -13.3928   27.4377 C   0  0  0  0  0  0  0  0  0  0  0  0
    7.6565  -14.5515   26.9346 C   0  0  0  0  0  0  0  0  0  0  0  0
   11.3944  -17.1779   28.0114 O   0  0  0  0  0  0  0  0  0  0  0  0
   12.5865  -16.5554   28.2971 O   0  0  0  0  0  0  0  0  0  0  0  0
  2  3  2  0
  2  1  1  0
  4  2  1  0
  5  4  1  0
  6  5  1  0
  7  6  1  0
  8  7  1  0
  8  9  1  1
 10  8  1  0
 10 11  2  0
 12 10  1  0
 13 12  1  0
 13 18  1  0
 13 14  1  6
 15 14  1  0
 16 17  2  0
 16 15  1  0
 18 21  1  0
 18 19  2  0
 20 16  1  0
 21 22  1  0
 22 23  1  1
 23 24  1  0
 24 32  1  0
 25 26  1  0
 25 24  2  0
 26 27  1  0
 27 32  2  0
 27 28  1  0
 28 29  2  0
 29 30  1  0
 31 30  2  0
 32 31  1  0
 33 22  1  0
 33 34  1  0
 35 33  2  0
M  END
$$$$
