REW.pdb
     RDKit          3D

 35 36  0  0  1  0  0  0  0  0999 V2000
    8.8984  -15.2005   15.2827 N   0  0  0  0  0  0  0  0  0  0  0  0
    8.3423  -13.8930   15.2809 C   0  0  0  0  0  0  0  0  0  0  0  0
    8.8543  -12.9972   14.5127 N   0  0  0  0  0  0  0  0  0  0  0  0
    7.2348  -13.5792   16.1177 N   0  0  0  0  0  0  0  0  0  0  0  0
    6.9605  -14.3253   17.3488 C   0  0  0  0  0  0  0  0  0  0  0  0
    8.0111  -13.9895   18.3613 C   0  0  0  0  0  0  0  0  0  0  0  0
    7.7776  -14.6250   19.6749 C   0  0  0  0  0  0  0  0  0  0  0  0
    8.7998  -14.3181   20.6953 C   0  0  2  0  0  0  0  0  0  0  0  0
   10.0427  -13.8147   20.1941 N   0  0  0  0  0  0  0  0  0  0  0  0
    9.0572  -15.5277   21.5341 C   0  0  0  0  0  0  0  0  0  0  0  0
    8.0895  -16.1863   22.0410 O   0  0  0  0  0  0  0  0  0  0  0  0
    8.4885  -12.0363   14.5481 N   0  0  0  0  0  0  0  0  0  0  0  0
   10.3453  -15.9929   21.8040 C   0  0  1  0  0  0  0  0  0  0  0  0
   10.5759  -17.1325   22.7058 C   0  0  0  0  0  0  0  0  0  0  0  0
   11.7464  -17.9080   22.2751 C   0  0  0  0  0  0  0  0  0  0  0  0
   12.1195  -19.1394   23.0172 C   0  0  0  0  0  0  0  0  0  0  0  0
   13.2886  -19.8316   22.4580 O   0  0  0  0  0  0  0  0  0  0  0  0
   14.4011  -19.8698   23.0195 C   0  0  0  0  0  0  0  0  0  0  0  0
   10.5863  -16.5653   24.0588 O   0  0  0  0  0  0  0  0  0  0  0  0
   11.4330  -15.6923   24.4605 O   0  0  0  0  0  0  0  0  0  0  0  0
   13.1442  -20.4853   21.2323 N   0  0  0  0  0  0  0  0  0  0  0  0
    9.6355  -16.9401   25.0664 C   0  0  1  0  0  0  0  0  0  0  0  0
    9.7719  -16.4909   26.4663 C   0  0  0  0  0  0  0  0  0  0  0  0
    8.4009  -16.3732   27.0696 C   0  0  0  0  0  0  0  0  0  0  0  0
    7.5142  -15.4979   26.3152 C   0  0  0  0  0  0  0  0  0  0  0  0
    6.5445  -15.9068   25.3829 N   0  0  0  0  0  0  0  0  0  0  0  0
    5.9495  -14.8359   24.8477 C   0  0  0  0  0  0  0  0  0  0  0  0
    6.4624  -13.7055   25.3681 C   0  0  0  0  0  0  0  0  0  0  0  0
    6.1706  -12.3687   25.1583 C   0  0  0  0  0  0  0  0  0  0  0  0
    6.8830  -11.4470   25.8947 C   0  0  0  0  0  0  0  0  0  0  0  0
    7.8398  -11.8118   26.7976 C   0  0  0  0  0  0  0  0  0  0  0  0
    8.1079  -13.1490   26.9828 C   0  0  0  0  0  0  0  0  0  0  0  0
    7.4312  -14.1160   26.2770 C   0  0  0  0  0  0  0  0  0  0  0  0
   10.6573  -17.3212   27.2598 O   0  0  0  0  0  0  0  0  0  0  0  0
   11.0551  -17.0357   28.5446 O   0  0  0  0  0  0  0  0  0  0  0  0
  2  3  2  0
  2  1  1  0
  4  2  1  0
  5  4  1  0
  6  5  1  0
  7  6  1  0
  8  7  1  0
  8  9  1  6
 10  8  1  0
 10 11  2  0
 12 10  1  0
 13 12  1  0
 13 18  1  0
 13 14  1  6
 15 14  1  0
 16 17  2  0
 16 15  1  0
 18 21  1  0
 18 19  2  0
 20 16  1  0
 21 22  1  0
 22 23  1  1
 23 24  1  0
 24 32  1  0
 25 26  1  0
 25 24  2  0
 26 27  1  0
 27 32  2  0
 27 28  1  0
 28 29  2  0
 29 30  1  0
 31 30  2  0
 32 31  1  0
 33 22  1  0
 33 34  1  0
 35 33  2  0
M  END
$$$$
