REW.pdb
     RDKit          3D

 35 36  0  0  1  0  0  0  0  0999 V2000
    7.6110  -13.5911   14.7919 N   0  0  0  0  0  0  0  0  0  0  0  0
    8.0464  -14.7661   15.4617 C   0  0  0  0  0  0  0  0  0  0  0  0
    7.7921  -15.9138   14.9393 N   0  0  0  0  0  0  0  0  0  0  0  0
    8.7533  -14.6741   16.6934 N   0  0  0  0  0  0  0  0  0  0  0  0
    8.5417  -13.5626   17.6247 C   0  0  0  0  0  0  0  0  0  0  0  0
    7.2864  -13.8152   18.4010 C   0  0  0  0  0  0  0  0  0  0  0  0
    7.4948  -14.6854   19.5771 C   0  0  0  0  0  0  0  0  0  0  0  0
    8.3740  -14.1126   20.6160 C   0  0  2  0  0  0  0  0  0  0  0  0
    9.5130  -13.3917   20.1339 N   0  0  0  0  0  0  0  0  0  0  0  0
    8.8272  -15.1904   21.5466 C   0  0  0  0  0  0  0  0  0  0  0  0
    7.9798  -15.9361   22.1408 O   0  0  0  0  0  0  0  0  0  0  0  0
    8.1619  -16.7628   15.3873 N   0  0  0  0  0  0  0  0  0  0  0  0
   10.1758  -15.4343   21.8117 C   0  0  1  0  0  0  0  0  0  0  0  0
   10.6016  -16.5823   22.6276 C   0  0  0  0  0  0  0  0  0  0  0  0
   11.9619  -17.0016   22.2657 C   0  0  0  0  0  0  0  0  0  0  0  0
   12.6052  -18.1142   23.0102 C   0  0  0  0  0  0  0  0  0  0  0  0
   13.9157  -18.5024   22.4712 O   0  0  0  0  0  0  0  0  0  0  0  0
   14.9992  -18.0846   22.9251 C   0  0  0  0  0  0  0  0  0  0  0  0
   10.3500  -16.1890   24.0184 O   0  0  0  0  0  0  0  0  0  0  0  0
   10.6098  -15.0268   24.4899 O   0  0  0  0  0  0  0  0  0  0  0  0
   13.9490  -19.3907   21.3940 N   0  0  0  0  0  0  0  0  0  0  0  0
    9.7810  -17.0811   24.9880 C   0  0  1  0  0  0  0  0  0  0  0  0
    9.7463  -16.7441   26.4251 C   0  0  0  0  0  0  0  0  0  0  0  0
    8.3231  -16.8139   26.9016 C   0  0  0  0  0  0  0  0  0  0  0  0
    7.4753  -15.7746   26.3335 C   0  0  0  0  0  0  0  0  0  0  0  0
    6.4610  -15.9645   25.3785 N   0  0  0  0  0  0  0  0  0  0  0  0
    5.9213  -14.7865   25.0495 C   0  0  0  0  0  0  0  0  0  0  0  0
    6.5150  -13.7912   25.7341 C   0  0  0  0  0  0  0  0  0  0  0  0
    6.3017  -12.4236   25.7600 C   0  0  0  0  0  0  0  0  0  0  0  0
    7.0865  -11.6815   26.6160 C   0  0  0  0  0  0  0  0  0  0  0  0
    8.0393  -12.2474   27.4133 C   0  0  0  0  0  0  0  0  0  0  0  0
    8.2283  -13.6097   27.3638 C   0  0  0  0  0  0  0  0  0  0  0  0
    7.4770  -14.4037   26.5292 C   0  0  0  0  0  0  0  0  0  0  0  0
   10.6416  -17.5497   27.2330 O   0  0  0  0  0  0  0  0  0  0  0  0
   10.8646  -17.3626   28.5768 O   0  0  0  0  0  0  0  0  0  0  0  0
  2  3  2  0
  2  1  1  0
  4  2  1  0
  5  4  1  0
  6  5  1  0
  7  6  1  0
  8  7  1  0
  8  9  1  6
 10  8  1  0
 10 11  2  0
 12 10  1  0
 13 12  1  0
 13 18  1  0
 13 14  1  1
 15 14  1  0
 16 17  2  0
 16 15  1  0
 18 21  1  0
 18 19  2  0
 20 16  1  0
 21 22  1  0
 22 23  1  1
 23 24  1  0
 24 32  1  0
 25 26  1  0
 25 24  2  0
 26 27  1  0
 27 32  2  0
 27 28  1  0
 28 29  2  0
 29 30  1  0
 31 30  2  0
 32 31  1  0
 33 22  1  0
 33 34  1  0
 35 33  2  0
M  END
$$$$
