REW.pdb
     RDKit          3D

 35 36  0  0  1  0  0  0  0  0999 V2000
    9.4388  -12.5906   19.1076 N   0  0  0  0  0  0  0  0  0  0  0  0
    8.5097  -12.9493   18.0943 C   0  0  0  0  0  0  0  0  0  0  0  0
    8.8731  -12.8851   16.8620 N   0  0  0  0  0  0  0  0  0  0  0  0
    7.1953  -13.3730   18.4382 N   0  0  0  0  0  0  0  0  0  0  0  0
    6.8895  -13.9582   19.7465 C   0  0  0  0  0  0  0  0  0  0  0  0
    8.0919  -14.7055   20.2342 C   0  0  0  0  0  0  0  0  0  0  0  0
    7.8501  -15.4374   21.4951 C   0  0  0  0  0  0  0  0  0  0  0  0
    8.1295  -16.8858   21.4270 C   0  0  2  0  0  0  0  0  0  0  0  0
    6.9903  -17.7262   21.2135 N   0  0  0  0  0  0  0  0  0  0  0  0
    8.8426  -17.3228   22.6653 C   0  0  0  0  0  0  0  0  0  0  0  0
    8.2431  -18.0189   23.5504 O   0  0  0  0  0  0  0  0  0  0  0  0
    8.1931  -13.1147   16.1250 N   0  0  0  0  0  0  0  0  0  0  0  0
   10.1769  -16.9988   22.9162 C   0  0  2  0  0  0  0  0  0  0  0  0
   10.8776  -17.5029   24.1079 C   0  0  0  0  0  0  0  0  0  0  0  0
   12.3075  -17.6903   23.8301 C   0  0  0  0  0  0  0  0  0  0  0  0
   13.1967  -18.2115   24.8996 C   0  0  0  0  0  0  0  0  0  0  0  0
   14.5904  -18.3910   24.4704 O   0  0  0  0  0  0  0  0  0  0  0  0
   14.9975  -18.1270   23.3219 C   0  0  0  0  0  0  0  0  0  0  0  0
   10.5014  -16.5944   25.1967 O   0  0  0  0  0  0  0  0  0  0  0  0
   10.5106  -15.3176   25.0966 O   0  0  0  0  0  0  0  0  0  0  0  0
   15.5093  -18.8807   25.4011 N   0  0  0  0  0  0  0  0  0  0  0  0
   10.0819  -17.0599   26.4879 C   0  0  1  0  0  0  0  0  0  0  0  0
   10.1534  -16.1970   27.6839 C   0  0  0  0  0  0  0  0  0  0  0  0
    8.7658  -16.0168   28.2309 C   0  0  0  0  0  0  0  0  0  0  0  0
    7.8422  -15.4260   27.2719 C   0  0  0  0  0  0  0  0  0  0  0  0
    6.9567  -16.1282   26.4355 N   0  0  0  0  0  0  0  0  0  0  0  0
    6.2959  -15.2699   25.6519 C   0  0  0  0  0  0  0  0  0  0  0  0
    6.6831  -14.0067   25.9090 C   0  0  0  0  0  0  0  0  0  0  0  0
    6.2855  -12.7875   25.3878 C   0  0  0  0  0  0  0  0  0  0  0  0
    6.8792  -11.6580   25.9085 C   0  0  0  0  0  0  0  0  0  0  0  0
    7.8209  -11.7135   26.8954 C   0  0  0  0  0  0  0  0  0  0  0  0
    8.1960  -12.9410   27.3920 C   0  0  0  0  0  0  0  0  0  0  0  0
    7.6404  -14.1039   26.9125 C   0  0  0  0  0  0  0  0  0  0  0  0
   11.0878  -16.6699   28.6871 O   0  0  0  0  0  0  0  0  0  0  0  0
   11.8047  -17.8399   28.5989 O   0  0  0  0  0  0  0  0  0  0  0  0
  2  3  2  0
  2  1  1  0
  4  2  1  0
  5  4  1  0
  6  5  1  0
  7  6  1  0
  8  7  1  0
  8  9  1  1
 10  8  1  0
 10 11  2  0
 12 10  1  0
 13 12  1  0
 13 18  1  0
 13 14  1  6
 15 14  1  0
 16 17  2  0
 16 15  1  0
 18 21  1  0
 18 19  2  0
 20 16  1  0
 21 22  1  0
 22 23  1  1
 23 24  1  0
 24 32  1  0
 25 26  1  0
 25 24  2  0
 26 27  1  0
 27 32  2  0
 27 28  1  0
 28 29  2  0
 29 30  1  0
 31 30  2  0
 32 31  1  0
 33 22  1  0
 33 34  1  0
 35 33  2  0
M  END
$$$$
