REW.pdb
     RDKit          3D

 35 36  0  0  1  0  0  0  0  0999 V2000
    8.8523  -11.7214   18.6317 N   0  0  0  0  0  0  0  0  0  0  0  0
    8.6526  -13.1072   18.3901 C   0  0  0  0  0  0  0  0  0  0  0  0
    9.5862  -13.7828   17.8184 N   0  0  0  0  0  0  0  0  0  0  0  0
    7.4366  -13.7385   18.7747 N   0  0  0  0  0  0  0  0  0  0  0  0
    7.4113  -14.8512   19.7280 C   0  0  0  0  0  0  0  0  0  0  0  0
    7.2682  -14.2982   21.1121 C   0  0  0  0  0  0  0  0  0  0  0  0
    6.9844  -15.3348   22.1264 C   0  0  0  0  0  0  0  0  0  0  0  0
    7.4263  -16.6939   21.7549 C   0  0  2  0  0  0  0  0  0  0  0  0
    6.4022  -17.6940   21.7361 N   0  0  0  0  0  0  0  0  0  0  0  0
    8.5308  -17.1327   22.6607 C   0  0  0  0  0  0  0  0  0  0  0  0
    8.2875  -17.8653   23.6763 O   0  0  0  0  0  0  0  0  0  0  0  0
    9.4650  -14.7959   17.6870 N   0  0  0  0  0  0  0  0  0  0  0  0
    9.8624  -16.7711   22.4495 C   0  0  2  0  0  0  0  0  0  0  0  0
   10.9405  -17.2749   23.3149 C   0  0  0  0  0  0  0  0  0  0  0  0
   12.2340  -17.2164   22.6219 C   0  0  0  0  0  0  0  0  0  0  0  0
   13.4627  -17.6564   23.3311 C   0  0  0  0  0  0  0  0  0  0  0  0
   14.6528  -17.7053   22.4709 O   0  0  0  0  0  0  0  0  0  0  0  0
   15.3793  -18.7119   22.3555 C   0  0  0  0  0  0  0  0  0  0  0  0
   10.8030  -16.5420   24.5784 O   0  0  0  0  0  0  0  0  0  0  0  0
   11.2199  -15.3443   24.7581 O   0  0  0  0  0  0  0  0  0  0  0  0
   14.9858  -16.5626   21.7402 N   0  0  0  0  0  0  0  0  0  0  0  0
   10.1794  -17.1068   25.7411 C   0  0  1  0  0  0  0  0  0  0  0  0
   10.6626  -16.8056   27.1034 C   0  0  0  0  0  0  0  0  0  0  0  0
   10.0109  -15.5369   27.5756 C   0  0  0  0  0  0  0  0  0  0  0  0
    8.6412  -15.3843   27.1039 C   0  0  0  0  0  0  0  0  0  0  0  0
    7.7294  -16.4262   26.8597 N   0  0  0  0  0  0  0  0  0  0  0  0
    6.5824  -15.9246   26.3903 C   0  0  0  0  0  0  0  0  0  0  0  0
    6.6592  -14.5838   26.2999 C   0  0  0  0  0  0  0  0  0  0  0  0
    5.7453  -13.6246   25.8989 C   0  0  0  0  0  0  0  0  0  0  0  0
    6.1496  -12.3083   25.9573 C   0  0  0  0  0  0  0  0  0  0  0  0
    7.3921  -11.9416   26.3878 C   0  0  0  0  0  0  0  0  0  0  0  0
    8.2788  -12.9189   26.7787 C   0  0  0  0  0  0  0  0  0  0  0  0
    7.9342  -14.2497   26.7423 C   0  0  0  0  0  0  0  0  0  0  0  0
   10.4867  -17.9003   28.0381 O   0  0  0  0  0  0  0  0  0  0  0  0
   10.9556  -17.9086   29.3306 O   0  0  0  0  0  0  0  0  0  0  0  0
  2  3  2  0
  2  1  1  0
  4  2  1  0
  5  4  1  0
  6  5  1  0
  7  6  1  0
  8  7  1  0
  8  9  1  1
 10  8  1  0
 10 11  2  0
 12 10  1  0
 13 12  1  0
 13 18  1  0
 13 14  1  6
 15 14  1  0
 16 17  2  0
 16 15  1  0
 18 21  1  0
 18 19  2  0
 20 16  1  0
 21 22  1  0
 22 23  1  1
 23 24  1  0
 24 32  1  0
 25 26  1  0
 25 24  2  0
 26 27  1  0
 27 32  2  0
 27 28  1  0
 28 29  2  0
 29 30  1  0
 31 30  2  0
 32 31  1  0
 33 22  1  0
 33 34  1  0
 35 33  2  0
M  END
$$$$
