REW.pdb
     RDKit          3D

 35 36  0  0  1  0  0  0  0  0999 V2000
    7.7392  -12.9669   17.1069 N   0  0  0  0  0  0  0  0  0  0  0  0
    8.7601  -12.8502   18.0881 C   0  0  0  0  0  0  0  0  0  0  0  0
    9.9911  -12.9111   17.7195 N   0  0  0  0  0  0  0  0  0  0  0  0
    8.4253  -12.6690   19.4593 N   0  0  0  0  0  0  0  0  0  0  0  0
    7.0773  -12.9375   19.9677 C   0  0  0  0  0  0  0  0  0  0  0  0
    6.8747  -14.4193   20.0400 C   0  0  0  0  0  0  0  0  0  0  0  0
    7.7155  -15.0722   21.0650 C   0  0  0  0  0  0  0  0  0  0  0  0
    7.5305  -16.5334   21.1706 C   0  0  2  0  0  0  0  0  0  0  0  0
    6.2057  -16.9674   21.4960 N   0  0  0  0  0  0  0  0  0  0  0  0
    8.4943  -17.0954   22.1646 C   0  0  0  0  0  0  0  0  0  0  0  0
    8.0788  -17.6054   23.2576 O   0  0  0  0  0  0  0  0  0  0  0  0
   10.7320  -12.8528   18.4307 N   0  0  0  0  0  0  0  0  0  0  0  0
    9.8744  -17.0922   21.9557 C   0  0  2  0  0  0  0  0  0  0  0  0
   10.8003  -17.6764   22.9389 C   0  0  0  0  0  0  0  0  0  0  0  0
   12.1017  -17.9629   22.3214 C   0  0  0  0  0  0  0  0  0  0  0  0
   13.2014  -18.5099   23.1568 C   0  0  0  0  0  0  0  0  0  0  0  0
   14.2191  -19.2377   22.3864 O   0  0  0  0  0  0  0  0  0  0  0  0
   15.0903  -18.6771   21.6928 C   0  0  0  0  0  0  0  0  0  0  0  0
   10.7705  -16.7695   24.0918 O   0  0  0  0  0  0  0  0  0  0  0  0
   11.2956  -15.6013   24.0950 O   0  0  0  0  0  0  0  0  0  0  0  0
   14.2116  -20.6333   22.4372 N   0  0  0  0  0  0  0  0  0  0  0  0
   10.1407  -17.1126   25.3349 C   0  0  1  0  0  0  0  0  0  0  0  0
   10.7098  -16.6980   26.6327 C   0  0  0  0  0  0  0  0  0  0  0  0
   10.2247  -15.3119   26.9501 C   0  0  0  0  0  0  0  0  0  0  0  0
    8.8004  -15.1312   26.7045 C   0  0  0  0  0  0  0  0  0  0  0  0
    7.8554  -16.1564   26.5235 N   0  0  0  0  0  0  0  0  0  0  0  0
    6.6538  -15.6267   26.2727 C   0  0  0  0  0  0  0  0  0  0  0  0
    6.7245  -14.2826   26.2731 C   0  0  0  0  0  0  0  0  0  0  0  0
    5.7664  -13.3006   26.0888 C   0  0  0  0  0  0  0  0  0  0  0  0
    6.1833  -11.9904   26.1842 C   0  0  0  0  0  0  0  0  0  0  0  0
    7.4790  -11.6508   26.4478 C   0  0  0  0  0  0  0  0  0  0  0  0
    8.4085  -12.6502   26.6248 C   0  0  0  0  0  0  0  0  0  0  0  0
    8.0539  -13.9763   26.5408 C   0  0  0  0  0  0  0  0  0  0  0  0
   10.4503  -17.6360   27.7077 O   0  0  0  0  0  0  0  0  0  0  0  0
   10.9533  -17.5238   28.9825 O   0  0  0  0  0  0  0  0  0  0  0  0
  2  3  2  0
  2  1  1  0
  4  2  1  0
  5  4  1  0
  6  5  1  0
  7  6  1  0
  8  7  1  0
  8  9  1  1
 10  8  1  0
 10 11  2  0
 12 10  1  0
 13 12  1  0
 13 18  1  0
 13 14  1  6
 15 14  1  0
 16 17  2  0
 16 15  1  0
 18 21  1  0
 18 19  2  0
 20 16  1  0
 21 22  1  0
 22 23  1  1
 23 24  1  0
 24 32  1  0
 25 26  1  0
 25 24  2  0
 26 27  1  0
 27 32  2  0
 27 28  1  0
 28 29  2  0
 29 30  1  0
 31 30  2  0
 32 31  1  0
 33 22  1  0
 33 34  1  0
 35 33  2  0
M  END
$$$$
