REW.pdb
     RDKit          3D

 35 36  0  0  1  0  0  0  0  0999 V2000
    1.8790  -20.1130   18.6948 N   0  0  0  0  0  0  0  0  0  0  0  0
    3.2372  -19.7942   18.4258 C   0  0  0  0  0  0  0  0  0  0  0  0
    3.6912  -19.9504   17.2324 N   0  0  0  0  0  0  0  0  0  0  0  0
    4.0832  -19.3095   19.4624 N   0  0  0  0  0  0  0  0  0  0  0  0
    3.5486  -18.8705   20.7544 C   0  0  0  0  0  0  0  0  0  0  0  0
    3.3992  -20.0641   21.6459 C   0  0  0  0  0  0  0  0  0  0  0  0
    4.6909  -20.6799   22.0152 C   0  0  0  0  0  0  0  0  0  0  0  0
    5.2698  -20.1803   23.2784 C   0  0  2  0  0  0  0  0  0  0  0  0
    4.5776  -19.0840   23.8853 N   0  0  0  0  0  0  0  0  0  0  0  0
    6.7010  -19.8065   23.0667 C   0  0  0  0  0  0  0  0  0  0  0  0
    7.4771  -20.5592   22.3895 O   0  0  0  0  0  0  0  0  0  0  0  0
    4.6798  -19.7411   17.0395 N   0  0  0  0  0  0  0  0  0  0  0  0
    7.2559  -18.6369   23.5888 C   0  0  2  0  0  0  0  0  0  0  0  0
    8.6652  -18.2852   23.3539 C   0  0  0  0  0  0  0  0  0  0  0  0
    8.9606  -18.2540   21.9156 C   0  0  0  0  0  0  0  0  0  0  0  0
   10.3167  -17.8571   21.4574 C   0  0  0  0  0  0  0  0  0  0  0  0
   10.4473  -17.7900   19.9955 O   0  0  0  0  0  0  0  0  0  0  0  0
    9.7598  -18.4715   19.2098 C   0  0  0  0  0  0  0  0  0  0  0  0
    8.8984  -17.0628   24.1309 O   0  0  0  0  0  0  0  0  0  0  0  0
    8.8607  -15.8829   23.6341 O   0  0  0  0  0  0  0  0  0  0  0  0
   11.3909  -16.9122   19.4572 N   0  0  0  0  0  0  0  0  0  0  0  0
    9.1915  -17.0785   25.5358 C   0  0  1  0  0  0  0  0  0  0  0  0
   10.4884  -16.6087   26.0625 C   0  0  0  0  0  0  0  0  0  0  0  0
   10.4114  -15.1235   26.2762 C   0  0  0  0  0  0  0  0  0  0  0  0
    9.0722  -14.6600   26.6127 C   0  0  0  0  0  0  0  0  0  0  0  0
    8.1640  -15.3061   27.4697 N   0  0  0  0  0  0  0  0  0  0  0  0
    7.0146  -14.6245   27.5098 C   0  0  0  0  0  0  0  0  0  0  0  0
    7.0869  -13.5363   26.7209 C   0  0  0  0  0  0  0  0  0  0  0  0
    6.1837  -12.5234   26.4480 C   0  0  0  0  0  0  0  0  0  0  0  0
    6.6001  -11.5229   25.5966 C   0  0  0  0  0  0  0  0  0  0  0  0
    7.8440  -11.5095   25.0342 C   0  0  0  0  0  0  0  0  0  0  0  0
    8.7189  -12.5316   25.3241 C   0  0  0  0  0  0  0  0  0  0  0  0
    8.3614  -13.5586   26.1658 C   0  0  0  0  0  0  0  0  0  0  0  0
   10.9252  -17.3178   27.2496 O   0  0  0  0  0  0  0  0  0  0  0  0
   10.1757  -18.2542   27.9218 O   0  0  0  0  0  0  0  0  0  0  0  0
  2  3  2  0
  2  1  1  0
  4  2  1  0
  5  4  1  0
  6  5  1  0
  7  6  1  0
  8  7  1  0
  8  9  1  6
 10  8  1  0
 10 11  2  0
 12 10  1  0
 13 12  1  0
 13 18  1  0
 13 14  1  1
 15 14  1  0
 16 17  2  0
 16 15  1  0
 18 21  1  0
 18 19  2  0
 20 16  1  0
 21 22  1  0
 22 23  1  1
 23 24  1  0
 24 32  1  0
 25 26  1  0
 25 24  2  0
 26 27  1  0
 27 32  2  0
 27 28  1  0
 28 29  2  0
 29 30  1  0
 31 30  2  0
 32 31  1  0
 33 22  1  0
 33 34  1  0
 35 33  2  0
M  END
$$$$
