REW.pdb
     RDKit          3D

 35 36  0  0  1  0  0  0  0  0999 V2000
    8.4465  -14.9937   16.6583 N   0  0  0  0  0  0  0  0  0  0  0  0
    8.0738  -13.6285   16.7850 C   0  0  0  0  0  0  0  0  0  0  0  0
    7.8157  -12.9500   15.7229 N   0  0  0  0  0  0  0  0  0  0  0  0
    7.9881  -13.0204   18.0688 N   0  0  0  0  0  0  0  0  0  0  0  0
    8.4388  -13.7086   19.2815 C   0  0  0  0  0  0  0  0  0  0  0  0
    7.2532  -13.9678   20.1586 C   0  0  0  0  0  0  0  0  0  0  0  0
    7.5639  -14.8316   21.3167 C   0  0  0  0  0  0  0  0  0  0  0  0
    8.0720  -16.1723   20.9633 C   0  0  2  0  0  0  0  0  0  0  0  0
    7.1019  -17.0816   20.4328 N   0  0  0  0  0  0  0  0  0  0  0  0
    8.7349  -16.7919   22.1505 C   0  0  0  0  0  0  0  0  0  0  0  0
    8.1127  -17.6366   22.8763 O   0  0  0  0  0  0  0  0  0  0  0  0
    7.5606  -11.9573   15.8106 N   0  0  0  0  0  0  0  0  0  0  0  0
   10.0447  -16.4855   22.5231 C   0  0  2  0  0  0  0  0  0  0  0  0
   10.7009  -17.1668   23.6501 C   0  0  0  0  0  0  0  0  0  0  0  0
   12.1160  -17.4219   23.3510 C   0  0  0  0  0  0  0  0  0  0  0  0
   12.9403  -18.1882   24.3203 C   0  0  0  0  0  0  0  0  0  0  0  0
   14.3404  -18.3484   23.9043 O   0  0  0  0  0  0  0  0  0  0  0  0
   15.1588  -19.0739   24.5028 C   0  0  0  0  0  0  0  0  0  0  0  0
   10.3823  -16.3611   24.8340 O   0  0  0  0  0  0  0  0  0  0  0  0
   10.5357  -15.0910   24.8956 O   0  0  0  0  0  0  0  0  0  0  0  0
   14.7766  -17.6523   22.7748 N   0  0  0  0  0  0  0  0  0  0  0  0
    9.8613  -16.9296   26.0444 C   0  0  1  0  0  0  0  0  0  0  0  0
   10.1850  -16.3632   27.3690 C   0  0  0  0  0  0  0  0  0  0  0  0
    8.9203  -15.8447   27.9927 C   0  0  0  0  0  0  0  0  0  0  0  0
    7.9666  -15.3329   27.0179 C   0  0  0  0  0  0  0  0  0  0  0  0
    7.0945  -16.1043   26.2298 N   0  0  0  0  0  0  0  0  0  0  0  0
    6.3969  -15.3082   25.4132 C   0  0  0  0  0  0  0  0  0  0  0  0
    6.7458  -14.0219   25.6015 C   0  0  0  0  0  0  0  0  0  0  0  0
    6.3026  -12.8439   25.0252 C   0  0  0  0  0  0  0  0  0  0  0  0
    6.8654  -11.6712   25.4805 C   0  0  0  0  0  0  0  0  0  0  0  0
    7.8202  -11.6467   26.4560 C   0  0  0  0  0  0  0  0  0  0  0  0
    8.2409  -12.8349   27.0085 C   0  0  0  0  0  0  0  0  0  0  0  0
    7.7177  -14.0378   26.5955 C   0  0  0  0  0  0  0  0  0  0  0  0
   10.8947  -17.2829   28.2370 O   0  0  0  0  0  0  0  0  0  0  0  0
   11.4027  -16.9583   29.4727 O   0  0  0  0  0  0  0  0  0  0  0  0
  2  3  2  0
  2  1  1  0
  4  2  1  0
  5  4  1  0
  6  5  1  0
  7  6  1  0
  8  7  1  0
  8  9  1  1
 10  8  1  0
 10 11  2  0
 12 10  1  0
 13 12  1  0
 13 18  1  0
 13 14  1  6
 15 14  1  0
 16 17  2  0
 16 15  1  0
 18 21  1  0
 18 19  2  0
 20 16  1  0
 21 22  1  0
 22 23  1  1
 23 24  1  0
 24 32  1  0
 25 26  1  0
 25 24  2  0
 26 27  1  0
 27 32  2  0
 27 28  1  0
 28 29  2  0
 29 30  1  0
 31 30  2  0
 32 31  1  0
 33 22  1  0
 33 34  1  0
 35 33  2  0
M  END
$$$$
