REW.pdb
     RDKit          3D

 35 36  0  0  1  0  0  0  0  0999 V2000
    7.1103  -12.1986   18.1623 N   0  0  0  0  0  0  0  0  0  0  0  0
    7.6758  -13.4264   17.7248 C   0  0  0  0  0  0  0  0  0  0  0  0
    7.8915  -13.6028   16.4689 N   0  0  0  0  0  0  0  0  0  0  0  0
    7.9984  -14.4467   18.6629 N   0  0  0  0  0  0  0  0  0  0  0  0
    7.6797  -14.3157   20.0873 C   0  0  0  0  0  0  0  0  0  0  0  0
    7.0035  -15.5696   20.5482 C   0  0  0  0  0  0  0  0  0  0  0  0
    7.8538  -16.4004   21.4260 C   0  0  0  0  0  0  0  0  0  0  0  0
    8.5361  -17.5167   20.7415 C   0  0  2  0  0  0  0  0  0  0  0  0
    7.6790  -18.4527   20.0790 N   0  0  0  0  0  0  0  0  0  0  0  0
    9.4114  -18.2451   21.7090 C   0  0  0  0  0  0  0  0  0  0  0  0
    9.9618  -19.3494   21.3851 O   0  0  0  0  0  0  0  0  0  0  0  0
    8.2263  -14.5183   16.1403 N   0  0  0  0  0  0  0  0  0  0  0  0
    9.6686  -17.7666   22.9948 C   0  0  2  0  0  0  0  0  0  0  0  0
   10.9730  -17.1861   23.3505 C   0  0  0  0  0  0  0  0  0  0  0  0
   11.3353  -16.1106   22.4184 C   0  0  0  0  0  0  0  0  0  0  0  0
   12.1323  -16.4322   21.2069 C   0  0  0  0  0  0  0  0  0  0  0  0
   13.3807  -15.6644   21.1032 O   0  0  0  0  0  0  0  0  0  0  0  0
   13.4191  -14.4254   20.9704 C   0  0  0  0  0  0  0  0  0  0  0  0
   10.8794  -16.8576   24.7773 O   0  0  0  0  0  0  0  0  0  0  0  0
   11.8138  -16.2861   25.4412 O   0  0  0  0  0  0  0  0  0  0  0  0
   14.5900  -16.3608   21.1601 N   0  0  0  0  0  0  0  0  0  0  0  0
    9.7172  -17.1483   25.5676 C   0  0  1  0  0  0  0  0  0  0  0  0
    9.6522  -16.8116   27.0038 C   0  0  0  0  0  0  0  0  0  0  0  0
    8.2340  -16.4577   27.3514 C   0  0  0  0  0  0  0  0  0  0  0  0
    7.6532  -15.4662   26.4563 C   0  0  0  0  0  0  0  0  0  0  0  0
    6.8712  -15.7353   25.3193 N   0  0  0  0  0  0  0  0  0  0  0  0
    6.5481  -14.5903   24.7095 C   0  0  0  0  0  0  0  0  0  0  0  0
    7.0698  -13.5420   25.3734 C   0  0  0  0  0  0  0  0  0  0  0  0
    7.0010  -12.1764   25.1574 C   0  0  0  0  0  0  0  0  0  0  0  0
    7.6416  -11.3634   26.0673 C   0  0  0  0  0  0  0  0  0  0  0  0
    8.3210  -11.8595   27.1425 C   0  0  0  0  0  0  0  0  0  0  0  0
    8.3723  -13.2221   27.3292 C   0  0  0  0  0  0  0  0  0  0  0  0
    7.7538  -14.0850   26.4551 C   0  0  0  0  0  0  0  0  0  0  0  0
   10.1941  -17.8425   27.8678 O   0  0  0  0  0  0  0  0  0  0  0  0
   10.3340  -17.7273   29.2307 O   0  0  0  0  0  0  0  0  0  0  0  0
  2  3  2  0
  2  1  1  0
  4  2  1  0
  5  4  1  0
  6  5  1  0
  7  6  1  0
  8  7  1  0
  8  9  1  1
 10  8  1  0
 10 11  2  0
 12 10  1  0
 13 12  1  0
 13 18  1  0
 13 14  1  6
 15 14  1  0
 16 17  2  0
 16 15  1  0
 18 21  1  0
 18 19  2  0
 20 16  1  0
 21 22  1  0
 22 23  1  1
 23 24  1  0
 24 32  1  0
 25 26  1  0
 25 24  2  0
 26 27  1  0
 27 32  2  0
 27 28  1  0
 28 29  2  0
 29 30  1  0
 31 30  2  0
 32 31  1  0
 33 22  1  0
 33 34  1  0
 35 33  2  0
M  END
$$$$
