SHN.pdb
     RDKit          3D

 25 25  0  0  1  0  0  0  0  0999 V2000
    3.3492  -19.8294   23.3151 O   0  0  0  0  0  0  0  0  0  0  0  0
    2.6354  -18.8897   22.6064 C   0  0  0  0  0  0  0  0  0  0  0  0
    3.2500  -18.6914   21.2597 C   0  0  2  0  0  0  0  0  0  0  0  0
    3.3879  -19.9850   20.5579 N   0  0  0  0  0  0  0  0  0  0  0  0
    4.5718  -18.0390   21.2984 C   0  0  0  0  0  0  0  0  0  0  0  0
    5.6316  -18.7494   21.2378 O   0  0  0  0  0  0  0  0  0  0  0  0
    4.7148  -16.6475   21.3977 N   0  0  0  0  0  0  0  0  0  0  0  0
    6.0721  -16.0764   21.3699 C   0  0  1  0  0  0  0  0  0  0  0  0
    6.0005  -14.6071   21.0071 C   0  0  0  0  0  0  0  0  0  0  0  0
    7.3309  -14.0902   20.6324 C   0  0  0  0  0  0  0  0  0  0  0  0
    8.5351  -14.7460   20.6580 C   0  0  0  0  0  0  0  0  0  0  0  0
    9.5023  -13.9034   20.2510 N   0  0  0  0  0  0  0  0  0  0  0  0
    8.8954  -12.7272   19.9740 C   0  0  0  0  0  0  0  0  0  0  0  0
    7.5798  -12.8241   20.2000 N   0  0  0  0  0  0  0  0  0  0  0  0
    6.6729  -16.3274   22.6921 C   0  0  0  0  0  0  0  0  0  0  0  0
    5.9206  -16.2333   23.6936 O   0  0  0  0  0  0  0  0  0  0  0  0
    9.3699  -17.7102   26.8099 N   0  0  0  0  0  0  0  0  0  0  0  0
    8.7583  -18.6879   25.9461 C   0  0  0  0  0  0  0  0  0  0  0  0
    8.7322  -19.8562   26.3941 O   0  0  0  0  0  0  0  0  0  0  0  0
    8.2134  -18.3054   24.6372 C   0  0  0  0  0  0  0  0  0  0  0  0
    8.4906  -16.8776   24.2900 C   0  0  2  0  0  0  0  0  0  0  0  0
    8.0237  -16.6646   22.9227 N   0  0  0  0  0  0  0  0  0  0  0  0
    9.8847  -16.4547   24.4571 C   0  0  0  0  0  0  0  0  0  0  0  0
   10.5510  -16.2012   23.3914 O   0  0  0  0  0  0  0  0  0  0  0  0
   10.5710  -16.2955   25.6421 O   0  0  0  0  0  0  0  0  0  0  0  0
  1  2  1  0
  2  3  1  0
  3  5  1  0
  3  4  1  1
  5  6  2  0
  7  5  1  0
  7  8  1  0
  8 15  1  0
  8  9  1  1
 10  9  1  0
 11 10  2  0
 12 13  1  0
 12 11  1  0
 13 14  2  0
 14 10  1  0
 15 16  2  0
 18 17  1  0
 19 18  2  0
 20 18  1  0
 21 20  1  6
 21 23  1  0
 22 21  1  0
 22 15  1  0
 23 25  1  0
 24 23  2  0
M  END
$$$$
