SHN.pdb
     RDKit          3D

 25 25  0  0  1  0  0  0  0  0999 V2000
    7.7677  -21.1209   22.3967 O   0  0  0  0  0  0  0  0  0  0  0  0
    6.6330  -21.0002   21.6268 C   0  0  0  0  0  0  0  0  0  0  0  0
    6.9982  -20.5670   20.2450 C   0  0  2  0  0  0  0  0  0  0  0  0
    7.7619  -21.6276   19.5545 N   0  0  0  0  0  0  0  0  0  0  0  0
    7.7856  -19.3212   20.1998 C   0  0  0  0  0  0  0  0  0  0  0  0
    9.0414  -19.3726   19.9721 O   0  0  0  0  0  0  0  0  0  0  0  0
    7.2017  -18.0614   20.3970 N   0  0  0  0  0  0  0  0  0  0  0  0
    8.0487  -16.8645   20.2587 C   0  0  1  0  0  0  0  0  0  0  0  0
    7.1775  -15.6462   20.0303 C   0  0  0  0  0  0  0  0  0  0  0  0
    8.0007  -14.4493   19.7707 C   0  0  0  0  0  0  0  0  0  0  0  0
    9.3670  -14.3348   19.8027 C   0  0  0  0  0  0  0  0  0  0  0  0
    9.7076  -13.0640   19.5199 N   0  0  0  0  0  0  0  0  0  0  0  0
    8.5516  -12.3935   19.3133 C   0  0  0  0  0  0  0  0  0  0  0  0
    7.5085  -13.2189   19.4615 N   0  0  0  0  0  0  0  0  0  0  0  0
    8.8746  -16.7774   21.4762 C   0  0  0  0  0  0  0  0  0  0  0  0
    8.3499  -17.1481   22.5556 O   0  0  0  0  0  0  0  0  0  0  0  0
   12.3904  -17.0922   25.0805 N   0  0  0  0  0  0  0  0  0  0  0  0
   11.6923  -18.1471   24.3907 C   0  0  0  0  0  0  0  0  0  0  0  0
   11.8339  -19.2909   24.8783 O   0  0  0  0  0  0  0  0  0  0  0  0
   10.8795  -17.8641   23.2008 C   0  0  0  0  0  0  0  0  0  0  0  0
   10.9671  -16.4359   22.7664 C   0  0  2  0  0  0  0  0  0  0  0  0
   10.2058  -16.3117   21.5263 N   0  0  0  0  0  0  0  0  0  0  0  0
   12.3286  -15.9115   22.6197 C   0  0  0  0  0  0  0  0  0  0  0  0
   12.7981  -15.8273   21.4295 O   0  0  0  0  0  0  0  0  0  0  0  0
   13.1733  -15.4926   23.6255 O   0  0  0  0  0  0  0  0  0  0  0  0
  1  2  1  0
  2  3  1  0
  3  5  1  0
  3  4  1  1
  5  6  2  0
  7  5  1  0
  7  8  1  0
  8 15  1  0
  8  9  1  1
 10  9  1  0
 11 10  2  0
 12 13  1  0
 12 11  1  0
 13 14  2  0
 14 10  1  0
 15 16  2  0
 18 17  1  0
 19 18  2  0
 20 18  1  0
 21 20  1  6
 21 23  1  0
 22 21  1  0
 22 15  1  0
 23 25  1  0
 24 23  2  0
M  END
$$$$
