SHN.pdb
     RDKit          3D

 25 25  0  0  1  0  0  0  0  0999 V2000
   14.8514  -16.8200   18.3883 O   0  0  0  0  0  0  0  0  0  0  0  0
   13.9773  -16.5964   17.3486 C   0  0  0  0  0  0  0  0  0  0  0  0
   13.4976  -15.1825   17.3809 C   0  0  2  0  0  0  0  0  0  0  0  0
   14.6077  -14.2521   17.0862 N   0  0  0  0  0  0  0  0  0  0  0  0
   12.8884  -14.7893   18.6648 C   0  0  0  0  0  0  0  0  0  0  0  0
   13.5395  -14.0463   19.4745 O   0  0  0  0  0  0  0  0  0  0  0  0
   11.6011  -15.2022   19.0377 N   0  0  0  0  0  0  0  0  0  0  0  0
   11.1284  -14.8888   20.3970 C   0  0  1  0  0  0  0  0  0  0  0  0
    9.6221  -15.0385   20.4609 C   0  0  0  0  0  0  0  0  0  0  0  0
    8.9531  -13.9947   19.6604 C   0  0  0  0  0  0  0  0  0  0  0  0
    9.5252  -12.9586   18.9675 C   0  0  0  0  0  0  0  0  0  0  0  0
    8.5541  -12.2300   18.3869 N   0  0  0  0  0  0  0  0  0  0  0  0
    7.3823  -12.8161   18.7211 C   0  0  0  0  0  0  0  0  0  0  0  0
    7.6071  -13.8866   19.4924 N   0  0  0  0  0  0  0  0  0  0  0  0
   11.8483  -15.7833   21.3210 C   0  0  0  0  0  0  0  0  0  0  0  0
   11.9547  -16.9899   20.9884 O   0  0  0  0  0  0  0  0  0  0  0  0
   15.6068  -14.1764   22.2211 N   0  0  0  0  0  0  0  0  0  0  0  0
   15.2852  -15.5315   22.5901 C   0  0  0  0  0  0  0  0  0  0  0  0
   15.7775  -16.4174   21.8559 O   0  0  0  0  0  0  0  0  0  0  0  0
   14.4355  -15.8173   23.7532 C   0  0  0  0  0  0  0  0  0  0  0  0
   13.1067  -16.3880   23.3729 C   0  0  2  0  0  0  0  0  0  0  0  0
   12.4270  -15.3932   22.5476 N   0  0  0  0  0  0  0  0  0  0  0  0
   12.2698  -16.8212   24.4964 C   0  0  0  0  0  0  0  0  0  0  0  0
   11.1289  -16.2514   24.6300 O   0  0  0  0  0  0  0  0  0  0  0  0
   12.5706  -17.7825   25.4376 O   0  0  0  0  0  0  0  0  0  0  0  0
  1  2  1  0
  2  3  1  0
  3  5  1  0
  3  4  1  1
  5  6  2  0
  7  5  1  0
  7  8  1  0
  8 15  1  0
  8  9  1  6
 10  9  1  0
 11 10  2  0
 12 13  1  0
 12 11  1  0
 13 14  2  0
 14 10  1  0
 15 16  2  0
 18 17  1  0
 19 18  2  0
 20 18  1  0
 21 20  1  1
 21 23  1  0
 22 21  1  0
 22 15  1  0
 23 25  1  0
 24 23  2  0
M  END
$$$$
