SHN.pdb
     RDKit          3D

 25 25  0  0  1  0  0  0  0  0999 V2000
    7.8581  -18.8505   17.0952 O   0  0  0  0  0  0  0  0  0  0  0  0
    9.1945  -18.5656   17.2617 C   0  0  0  0  0  0  0  0  0  0  0  0
    9.5565  -18.6453   18.7084 C   0  0  2  0  0  0  0  0  0  0  0  0
    8.3993  -19.1005   19.5076 N   0  0  0  0  0  0  0  0  0  0  0  0
   10.0402  -17.3717   19.2724 C   0  0  0  0  0  0  0  0  0  0  0  0
   11.0703  -16.8066   18.7711 O   0  0  0  0  0  0  0  0  0  0  0  0
    9.4032  -16.7438   20.3526 N   0  0  0  0  0  0  0  0  0  0  0  0
    9.9393  -15.4598   20.8352 C   0  0  1  0  0  0  0  0  0  0  0  0
    8.8032  -14.4805   21.0497 C   0  0  0  0  0  0  0  0  0  0  0  0
    8.2335  -14.0420   19.7609 C   0  0  0  0  0  0  0  0  0  0  0  0
    8.6890  -14.3107   18.4955 C   0  0  0  0  0  0  0  0  0  0  0  0
    7.8849  -13.7056   17.6020 N   0  0  0  0  0  0  0  0  0  0  0  0
    6.9327  -13.0631   18.3157 C   0  0  0  0  0  0  0  0  0  0  0  0
    7.1301  -13.2573   19.6251 N   0  0  0  0  0  0  0  0  0  0  0  0
   10.7082  -15.7462   22.0595 C   0  0  0  0  0  0  0  0  0  0  0  0
   10.1855  -15.4263   23.1558 O   0  0  0  0  0  0  0  0  0  0  0  0
   12.2169  -18.1681   26.3819 N   0  0  0  0  0  0  0  0  0  0  0  0
   12.8690  -18.3355   25.1080 C   0  0  0  0  0  0  0  0  0  0  0  0
   14.0152  -18.8358   25.1551 O   0  0  0  0  0  0  0  0  0  0  0  0
   12.2056  -17.9358   23.8604 C   0  0  0  0  0  0  0  0  0  0  0  0
   12.6316  -16.5833   23.3860 C   0  0  2  0  0  0  0  0  0  0  0  0
   11.9830  -16.3505   22.0984 N   0  0  0  0  0  0  0  0  0  0  0  0
   14.0815  -16.3791   23.3056 C   0  0  0  0  0  0  0  0  0  0  0  0
   14.6215  -16.4681   22.1460 O   0  0  0  0  0  0  0  0  0  0  0  0
   14.9426  -16.0985   24.3449 O   0  0  0  0  0  0  0  0  0  0  0  0
  1  2  1  0
  2  3  1  0
  3  5  1  0
  3  4  1  1
  5  6  2  0
  7  5  1  0
  7  8  1  0
  8 15  1  0
  8  9  1  1
 10  9  1  0
 11 10  2  0
 12 13  1  0
 12 11  1  0
 13 14  2  0
 14 10  1  0
 15 16  2  0
 18 17  1  0
 19 18  2  0
 20 18  1  0
 21 20  1  6
 21 23  1  0
 22 21  1  0
 22 15  1  0
 23 25  1  0
 24 23  2  0
M  END
$$$$
