SHN.pdb
     RDKit          3D

 25 25  0  0  1  0  0  0  0  0999 V2000
    6.1648  -19.5759   19.2755 O   0  0  0  0  0  0  0  0  0  0  0  0
    6.0652  -19.5475   20.6482 C   0  0  0  0  0  0  0  0  0  0  0  0
    5.3669  -20.7749   21.1343 C   0  0  2  0  0  0  0  0  0  0  0  0
    3.9056  -20.6456   20.9529 N   0  0  0  0  0  0  0  0  0  0  0  0
    5.6346  -21.0916   22.5493 C   0  0  0  0  0  0  0  0  0  0  0  0
    4.9919  -20.4804   23.4685 O   0  0  0  0  0  0  0  0  0  0  0  0
    6.5795  -22.0543   22.9329 N   0  0  0  0  0  0  0  0  0  0  0  0
    6.7095  -22.3808   24.3632 C   0  0  1  0  0  0  0  0  0  0  0  0
    6.5229  -23.8707   24.5657 C   0  0  0  0  0  0  0  0  0  0  0  0
    5.0969  -24.2407   24.4813 C   0  0  0  0  0  0  0  0  0  0  0  0
    4.0365  -23.6961   25.1595 C   0  0  0  0  0  0  0  0  0  0  0  0
    2.9094  -24.3371   24.7993 N   0  0  0  0  0  0  0  0  0  0  0  0
    3.2737  -25.2777   23.8986 C   0  0  0  0  0  0  0  0  0  0  0  0
    4.5958  -25.2320   23.6953 N   0  0  0  0  0  0  0  0  0  0  0  0
    8.0281  -21.8882   24.7999 C   0  0  0  0  0  0  0  0  0  0  0  0
    8.9539  -21.8909   23.9510 O   0  0  0  0  0  0  0  0  0  0  0  0
   11.4033  -20.1878   29.3408 N   0  0  0  0  0  0  0  0  0  0  0  0
   10.9778  -19.7010   28.0531 C   0  0  0  0  0  0  0  0  0  0  0  0
   11.8108  -18.9897   27.4478 O   0  0  0  0  0  0  0  0  0  0  0  0
    9.6518  -20.0360   27.5184 C   0  0  0  0  0  0  0  0  0  0  0  0
    9.7093  -21.0523   26.4231 C   0  0  2  0  0  0  0  0  0  0  0  0
    8.3333  -21.4142   26.0937 N   0  0  0  0  0  0  0  0  0  0  0  0
   10.5248  -22.2360   26.7134 C   0  0  0  0  0  0  0  0  0  0  0  0
   11.7840  -22.1488   26.4875 O   0  0  0  0  0  0  0  0  0  0  0  0
   10.0897  -23.4471   27.2077 O   0  0  0  0  0  0  0  0  0  0  0  0
  1  2  1  0
  2  3  1  0
  3  5  1  0
  3  4  1  1
  5  6  2  0
  7  5  1  0
  7  8  1  0
  8 15  1  0
  8  9  1  6
 10  9  1  0
 11 10  2  0
 12 13  1  0
 12 11  1  0
 13 14  2  0
 14 10  1  0
 15 16  2  0
 18 17  1  0
 19 18  2  0
 20 18  1  0
 21 20  1  1
 21 23  1  0
 22 21  1  0
 22 15  1  0
 23 25  1  0
 24 23  2  0
M  END
$$$$
