SHN.pdb
     RDKit          3D

 25 25  0  0  1  0  0  0  0  0999 V2000
   13.9679  -17.9936   14.9234 O   0  0  0  0  0  0  0  0  0  0  0  0
   12.8074  -17.8546   14.1963 C   0  0  0  0  0  0  0  0  0  0  0  0
   12.5327  -16.4081   13.9461 C   0  0  2  0  0  0  0  0  0  0  0  0
   13.7301  -15.7418   13.3917 N   0  0  0  0  0  0  0  0  0  0  0  0
   12.1009  -15.6675   15.1458 C   0  0  0  0  0  0  0  0  0  0  0  0
   12.9382  -14.9366   15.7754 O   0  0  0  0  0  0  0  0  0  0  0  0
   10.7863  -15.7319   15.6299 N   0  0  0  0  0  0  0  0  0  0  0  0
   10.4467  -14.9729   16.8456 C   0  0  1  0  0  0  0  0  0  0  0  0
    8.9447  -14.9722   17.0441 C   0  0  0  0  0  0  0  0  0  0  0  0
    8.5641  -14.1275   18.1927 C   0  0  0  0  0  0  0  0  0  0  0  0
    9.3836  -13.5282   19.1147 C   0  0  0  0  0  0  0  0  0  0  0  0
    8.6274  -12.8604   20.0054 N   0  0  0  0  0  0  0  0  0  0  0  0
    7.3408  -13.0473   19.6335 C   0  0  0  0  0  0  0  0  0  0  0  0
    7.2858  -13.8128   18.5370 N   0  0  0  0  0  0  0  0  0  0  0  0
   11.1873  -15.5901   17.9604 C   0  0  0  0  0  0  0  0  0  0  0  0
   11.8512  -16.6259   17.7071 O   0  0  0  0  0  0  0  0  0  0  0  0
   15.0045  -16.7541   20.8366 N   0  0  0  0  0  0  0  0  0  0  0  0
   14.7279  -15.3958   20.4433 C   0  0  0  0  0  0  0  0  0  0  0  0
   15.5352  -14.5400   20.8701 O   0  0  0  0  0  0  0  0  0  0  0  0
   13.5701  -15.0736   19.5993 C   0  0  0  0  0  0  0  0  0  0  0  0
   12.2768  -15.5372   20.1897 C   0  0  2  0  0  0  0  0  0  0  0  0
   11.2102  -15.1112   19.2876 N   0  0  0  0  0  0  0  0  0  0  0  0
   12.0275  -15.0988   21.5666 C   0  0  0  0  0  0  0  0  0  0  0  0
   12.9320  -15.3607   22.4369 O   0  0  0  0  0  0  0  0  0  0  0  0
   10.9198  -14.4287   22.0403 O   0  0  0  0  0  0  0  0  0  0  0  0
  1  2  1  0
  2  3  1  0
  3  5  1  0
  3  4  1  1
  5  6  2  0
  7  5  1  0
  7  8  1  0
  8 15  1  0
  8  9  1  1
 10  9  1  0
 11 10  2  0
 12 13  1  0
 12 11  1  0
 13 14  2  0
 14 10  1  0
 15 16  2  0
 18 17  1  0
 19 18  2  0
 20 18  1  0
 21 20  1  6
 21 23  1  0
 22 21  1  0
 22 15  1  0
 23 25  1  0
 24 23  2  0
M  END
$$$$
