SHN.pdb
     RDKit          3D

 25 25  0  0  1  0  0  0  0  0999 V2000
    2.5983  -19.8234   22.9490 O   0  0  0  0  0  0  0  0  0  0  0  0
    2.6459  -18.8142   22.0140 C   0  0  0  0  0  0  0  0  0  0  0  0
    3.7578  -19.0652   21.0490 C   0  0  2  0  0  0  0  0  0  0  0  0
    3.6716  -20.4369   20.5050 N   0  0  0  0  0  0  0  0  0  0  0  0
    5.1014  -18.8763   21.6261 C   0  0  0  0  0  0  0  0  0  0  0  0
    5.8552  -19.8885   21.8228 O   0  0  0  0  0  0  0  0  0  0  0  0
    5.5945  -17.6094   21.9706 N   0  0  0  0  0  0  0  0  0  0  0  0
    6.9761  -17.5047   22.4702 C   0  0  1  0  0  0  0  0  0  0  0  0
    7.5324  -16.1324   22.1494 C   0  0  0  0  0  0  0  0  0  0  0  0
    7.8414  -16.0107   20.7115 C   0  0  0  0  0  0  0  0  0  0  0  0
    8.7428  -16.7332   19.9723 C   0  0  0  0  0  0  0  0  0  0  0  0
    8.7222  -16.2914   18.7014 N   0  0  0  0  0  0  0  0  0  0  0  0
    7.8081  -15.2959   18.6556 C   0  0  0  0  0  0  0  0  0  0  0  0
    7.2657  -15.1138   19.8655 N   0  0  0  0  0  0  0  0  0  0  0  0
    6.9364  -17.8009   23.9134 C   0  0  0  0  0  0  0  0  0  0  0  0
    6.1584  -17.1142   24.6210 O   0  0  0  0  0  0  0  0  0  0  0  0
    5.3741  -20.0877   24.9029 N   0  0  0  0  0  0  0  0  0  0  0  0
    6.2378  -20.9109   25.7105 C   0  0  0  0  0  0  0  0  0  0  0  0
    5.8854  -22.1063   25.8239 O   0  0  0  0  0  0  0  0  0  0  0  0
    7.4405  -20.3531   26.3422 C   0  0  0  0  0  0  0  0  0  0  0  0
    7.6473  -18.9081   26.0178 C   0  0  2  0  0  0  0  0  0  0  0  0
    7.7015  -18.7931   24.5629 N   0  0  0  0  0  0  0  0  0  0  0  0
    8.8142  -18.2875   26.6529 C   0  0  0  0  0  0  0  0  0  0  0  0
    9.7580  -17.8900   25.8813 O   0  0  0  0  0  0  0  0  0  0  0  0
    9.0171  -18.0786   28.0004 O   0  0  0  0  0  0  0  0  0  0  0  0
  1  2  1  0
  2  3  1  0
  3  5  1  0
  3  4  1  1
  5  6  2  0
  7  5  1  0
  7  8  1  0
  8 15  1  0
  8  9  1  1
 10  9  1  0
 11 10  2  0
 12 13  1  0
 12 11  1  0
 13 14  2  0
 14 10  1  0
 15 16  2  0
 18 17  1  0
 19 18  2  0
 20 18  1  0
 21 20  1  6
 21 23  1  0
 22 21  1  0
 22 15  1  0
 23 25  1  0
 24 23  2  0
M  END
$$$$
