SHN.pdb
     RDKit          3D

 25 25  0  0  1  0  0  0  0  0999 V2000
    3.9572  -19.9267   21.5122 O   0  0  0  0  0  0  0  0  0  0  0  0
    5.2009  -19.4727   21.8890 C   0  0  0  0  0  0  0  0  0  0  0  0
    5.5984  -18.3106   21.0394 C   0  0  2  0  0  0  0  0  0  0  0  0
    5.8358  -18.7445   19.6464 N   0  0  0  0  0  0  0  0  0  0  0  0
    6.8013  -17.6057   21.5193 C   0  0  0  0  0  0  0  0  0  0  0  0
    7.9592  -18.0770   21.2573 O   0  0  0  0  0  0  0  0  0  0  0  0
    6.7245  -16.4181   22.2611 N   0  0  0  0  0  0  0  0  0  0  0  0
    7.9779  -15.7758   22.6918 C   0  0  1  0  0  0  0  0  0  0  0  0
    7.7600  -14.2846   22.8482 C   0  0  0  0  0  0  0  0  0  0  0  0
    7.7730  -13.6086   21.5365 C   0  0  0  0  0  0  0  0  0  0  0  0
    8.0168  -14.1541   20.3021 C   0  0  0  0  0  0  0  0  0  0  0  0
    7.9462  -13.1841   19.3720 N   0  0  0  0  0  0  0  0  0  0  0  0
    7.6587  -12.0394   20.0320 C   0  0  0  0  0  0  0  0  0  0  0  0
    7.5506  -12.2799   21.3441 N   0  0  0  0  0  0  0  0  0  0  0  0
    8.3986  -16.4427   23.9370 C   0  0  0  0  0  0  0  0  0  0  0  0
    7.5808  -16.4514   24.8902 O   0  0  0  0  0  0  0  0  0  0  0  0
    9.9993  -20.5037   23.2425 N   0  0  0  0  0  0  0  0  0  0  0  0
    9.7826  -20.0085   24.5781 C   0  0  0  0  0  0  0  0  0  0  0  0
    8.8158  -20.5184   25.1877 O   0  0  0  0  0  0  0  0  0  0  0  0
   10.6549  -18.9765   25.1529 C   0  0  0  0  0  0  0  0  0  0  0  0
    9.9323  -17.6974   25.4315 C   0  0  2  0  0  0  0  0  0  0  0  0
    9.6450  -17.0716   24.1436 N   0  0  0  0  0  0  0  0  0  0  0  0
   10.6239  -16.7755   26.3381 C   0  0  0  0  0  0  0  0  0  0  0  0
   11.1256  -15.7141   25.8225 O   0  0  0  0  0  0  0  0  0  0  0  0
   10.7993  -16.9187   27.6979 O   0  0  0  0  0  0  0  0  0  0  0  0
  1  2  1  0
  2  3  1  0
  3  5  1  0
  3  4  1  6
  5  6  2  0
  7  5  1  0
  7  8  1  0
  8 15  1  0
  8  9  1  1
 10  9  1  0
 11 10  2  0
 12 13  1  0
 12 11  1  0
 13 14  2  0
 14 10  1  0
 15 16  2  0
 18 17  1  0
 19 18  2  0
 20 18  1  0
 21 20  1  6
 21 23  1  0
 22 21  1  0
 22 15  1  0
 23 25  1  0
 24 23  2  0
M  END
$$$$
