SHN.pdb
     RDKit          3D

 25 25  0  0  1  0  0  0  0  0999 V2000
    2.0945  -21.8635   19.9628 O   0  0  0  0  0  0  0  0  0  0  0  0
    2.8554  -23.0082   20.0382 C   0  0  0  0  0  0  0  0  0  0  0  0
    4.2118  -22.7575   19.4656 C   0  0  2  0  0  0  0  0  0  0  0  0
    4.1872  -22.8993   17.9945 N   0  0  0  0  0  0  0  0  0  0  0  0
    5.2584  -23.6468   20.0020 C   0  0  0  0  0  0  0  0  0  0  0  0
    5.3816  -24.8316   19.5408 O   0  0  0  0  0  0  0  0  0  0  0  0
    6.1404  -23.2370   21.0124 N   0  0  0  0  0  0  0  0  0  0  0  0
    7.1202  -24.2088   21.5271 C   0  0  1  0  0  0  0  0  0  0  0  0
    8.5247  -23.6953   21.2836 C   0  0  0  0  0  0  0  0  0  0  0  0
    8.8755  -23.7748   19.8524 C   0  0  0  0  0  0  0  0  0  0  0  0
    9.0905  -22.7453   18.9722 C   0  0  0  0  0  0  0  0  0  0  0  0
    9.3716  -23.2565   17.7594 N   0  0  0  0  0  0  0  0  0  0  0  0
    9.3301  -24.6017   17.8907 C   0  0  0  0  0  0  0  0  0  0  0  0
    9.0308  -24.9315   19.1528 N   0  0  0  0  0  0  0  0  0  0  0  0
    6.8099  -24.4205   22.9522 C   0  0  0  0  0  0  0  0  0  0  0  0
    6.5532  -23.4034   23.6430 O   0  0  0  0  0  0  0  0  0  0  0  0
    3.9557  -28.2218   24.0006 N   0  0  0  0  0  0  0  0  0  0  0  0
    4.4302  -27.0705   24.7256 C   0  0  0  0  0  0  0  0  0  0  0  0
    3.6103  -26.1314   24.8348 O   0  0  0  0  0  0  0  0  0  0  0  0
    5.7878  -27.0354   25.2844 C   0  0  0  0  0  0  0  0  0  0  0  0
    6.4843  -25.7367   25.0311 C   0  0  2  0  0  0  0  0  0  0  0  0
    6.7781  -25.6730   23.6019 N   0  0  0  0  0  0  0  0  0  0  0  0
    7.6850  -25.5051   25.8405 C   0  0  0  0  0  0  0  0  0  0  0  0
    8.8148  -25.7930   25.3069 O   0  0  0  0  0  0  0  0  0  0  0  0
    7.7411  -25.0071   27.1247 O   0  0  0  0  0  0  0  0  0  0  0  0
  1  2  1  0
  2  3  1  0
  3  5  1  0
  3  4  1  6
  5  6  2  0
  7  5  1  0
  7  8  1  0
  8 15  1  0
  8  9  1  1
 10  9  1  0
 11 10  2  0
 12 13  1  0
 12 11  1  0
 13 14  2  0
 14 10  1  0
 15 16  2  0
 18 17  1  0
 19 18  2  0
 20 18  1  0
 21 20  1  6
 21 23  1  0
 22 21  1  0
 22 15  1  0
 23 25  1  0
 24 23  2  0
M  END
$$$$
