SHN.pdb
     RDKit          3D

 25 25  0  0  1  0  0  0  0  0999 V2000
   11.8075  -17.4847   14.0421 O   0  0  0  0  0  0  0  0  0  0  0  0
   11.6900  -17.0653   15.3479 C   0  0  0  0  0  0  0  0  0  0  0  0
   12.2211  -15.6764   15.4871 C   0  0  2  0  0  0  0  0  0  0  0  0
   13.5307  -15.5528   14.8126 N   0  0  0  0  0  0  0  0  0  0  0  0
   12.3736  -15.2344   16.8855 C   0  0  0  0  0  0  0  0  0  0  0  0
   13.5225  -15.2764   17.4422 O   0  0  0  0  0  0  0  0  0  0  0  0
   11.2915  -14.7591   17.6403 N   0  0  0  0  0  0  0  0  0  0  0  0
   11.5514  -14.2463   18.9963 C   0  0  1  0  0  0  0  0  0  0  0  0
   10.6617  -13.0507   19.2692 C   0  0  0  0  0  0  0  0  0  0  0  0
    9.2505  -13.4616   19.4007 C   0  0  0  0  0  0  0  0  0  0  0  0
    8.7156  -14.7175   19.2683 C   0  0  0  0  0  0  0  0  0  0  0  0
    7.3842  -14.6489   19.4517 N   0  0  0  0  0  0  0  0  0  0  0  0
    7.0967  -13.3506   19.6973 C   0  0  0  0  0  0  0  0  0  0  0  0
    8.2168  -12.6185   19.6699 N   0  0  0  0  0  0  0  0  0  0  0  0
   11.3351  -15.3661   19.9298 C   0  0  0  0  0  0  0  0  0  0  0  0
   10.7861  -16.3991   19.4724 O   0  0  0  0  0  0  0  0  0  0  0  0
   14.3908  -18.4265   22.4769 N   0  0  0  0  0  0  0  0  0  0  0  0
   14.7097  -17.5365   21.3896 C   0  0  0  0  0  0  0  0  0  0  0  0
   15.8001  -17.7596   20.8174 O   0  0  0  0  0  0  0  0  0  0  0  0
   13.7956  -16.4530   21.0061 C   0  0  0  0  0  0  0  0  0  0  0  0
   12.5376  -16.4440   21.8144 C   0  0  2  0  0  0  0  0  0  0  0  0
   11.6949  -15.3706   21.2944 N   0  0  0  0  0  0  0  0  0  0  0  0
   12.7287  -16.3273   23.2636 C   0  0  0  0  0  0  0  0  0  0  0  0
   12.5722  -17.3913   23.9620 O   0  0  0  0  0  0  0  0  0  0  0  0
   13.0617  -15.1923   23.9716 O   0  0  0  0  0  0  0  0  0  0  0  0
  1  2  1  0
  2  3  1  0
  3  5  1  0
  3  4  1  1
  5  6  2  0
  7  5  1  0
  7  8  1  0
  8 15  1  0
  8  9  1  1
 10  9  1  0
 11 10  2  0
 12 13  1  0
 12 11  1  0
 13 14  2  0
 14 10  1  0
 15 16  2  0
 18 17  1  0
 19 18  2  0
 20 18  1  0
 21 20  1  6
 21 23  1  0
 22 21  1  0
 22 15  1  0
 23 25  1  0
 24 23  2  0
M  END
$$$$
