SHN.pdb
     RDKit          3D

 25 25  0  0  1  0  0  0  0  0999 V2000
   11.9081  -19.2593   15.9444 O   0  0  0  0  0  0  0  0  0  0  0  0
   12.4780  -18.3371   16.7927 C   0  0  0  0  0  0  0  0  0  0  0  0
   11.8406  -17.0009   16.5958 C   0  0  2  0  0  0  0  0  0  0  0  0
   12.4545  -16.2981   15.4493 N   0  0  0  0  0  0  0  0  0  0  0  0
   11.9204  -16.1228   17.7776 C   0  0  0  0  0  0  0  0  0  0  0  0
   12.8735  -15.2782   17.8769 O   0  0  0  0  0  0  0  0  0  0  0  0
   10.9754  -16.1761   18.8124 N   0  0  0  0  0  0  0  0  0  0  0  0
   11.1106  -15.2350   19.9372 C   0  0  1  0  0  0  0  0  0  0  0  0
    9.7379  -14.8629   20.4594 C   0  0  0  0  0  0  0  0  0  0  0  0
    8.9567  -14.1500   19.4302 C   0  0  0  0  0  0  0  0  0  0  0  0
    8.9665  -12.8113   19.1322 C   0  0  0  0  0  0  0  0  0  0  0  0
    8.0931  -12.5773   18.1355 N   0  0  0  0  0  0  0  0  0  0  0  0
    7.5438  -13.7715   17.8180 C   0  0  0  0  0  0  0  0  0  0  0  0
    8.0566  -14.7343   18.5935 N   0  0  0  0  0  0  0  0  0  0  0  0
   11.9666  -15.8867   20.9445 C   0  0  0  0  0  0  0  0  0  0  0  0
   11.8688  -17.1333   21.0635 O   0  0  0  0  0  0  0  0  0  0  0  0
   16.4478  -15.3751   24.7899 N   0  0  0  0  0  0  0  0  0  0  0  0
   16.0934  -15.9408   23.5131 C   0  0  0  0  0  0  0  0  0  0  0  0
   16.6827  -17.0043   23.2166 O   0  0  0  0  0  0  0  0  0  0  0  0
   15.1051  -15.2882   22.6448 C   0  0  0  0  0  0  0  0  0  0  0  0
   13.7930  -16.0051   22.6208 C   0  0  2  0  0  0  0  0  0  0  0  0
   12.8862  -15.2233   21.7847 N   0  0  0  0  0  0  0  0  0  0  0  0
   13.2102  -16.2826   23.9375 C   0  0  0  0  0  0  0  0  0  0  0  0
   12.1944  -15.5826   24.2871 O   0  0  0  0  0  0  0  0  0  0  0  0
   13.6324  -17.2211   24.8548 O   0  0  0  0  0  0  0  0  0  0  0  0
  1  2  1  0
  2  3  1  0
  3  5  1  0
  3  4  1  6
  5  6  2  0
  7  5  1  0
  7  8  1  0
  8 15  1  0
  8  9  1  1
 10  9  1  0
 11 10  2  0
 12 13  1  0
 12 11  1  0
 13 14  2  0
 14 10  1  0
 15 16  2  0
 18 17  1  0
 19 18  2  0
 20 18  1  0
 21 20  1  1
 21 23  1  0
 22 21  1  0
 22 15  1  0
 23 25  1  0
 24 23  2  0
M  END
$$$$
