SHN.pdb
     RDKit          3D

 25 25  0  0  1  0  0  0  0  0999 V2000
   12.9244  -19.8425   18.1913 O   0  0  0  0  0  0  0  0  0  0  0  0
   11.6210  -19.7548   17.7574 C   0  0  0  0  0  0  0  0  0  0  0  0
   11.4267  -18.4960   16.9777 C   0  0  2  0  0  0  0  0  0  0  0  0
   12.5561  -18.2829   16.0482 N   0  0  0  0  0  0  0  0  0  0  0  0
   11.2802  -17.2923   17.8167 C   0  0  0  0  0  0  0  0  0  0  0  0
   12.2216  -16.4300   17.8585 O   0  0  0  0  0  0  0  0  0  0  0  0
   10.1293  -17.0505   18.5808 N   0  0  0  0  0  0  0  0  0  0  0  0
   10.1148  -15.8842   19.4802 C   0  0  1  0  0  0  0  0  0  0  0  0
    8.7034  -15.3451   19.5942 C   0  0  0  0  0  0  0  0  0  0  0  0
    8.2606  -14.7503   18.3183 C   0  0  0  0  0  0  0  0  0  0  0  0
    7.5815  -15.3532   17.2906 C   0  0  0  0  0  0  0  0  0  0  0  0
    7.3887  -14.4560   16.3062 N   0  0  0  0  0  0  0  0  0  0  0  0
    7.9488  -13.2990   16.7260 C   0  0  0  0  0  0  0  0  0  0  0  0
    8.4812  -13.4610   17.9432 N   0  0  0  0  0  0  0  0  0  0  0  0
   10.6821  -16.3249   20.7671 C   0  0  0  0  0  0  0  0  0  0  0  0
   10.5286  -17.5313   21.0811 O   0  0  0  0  0  0  0  0  0  0  0  0
   10.7490  -16.1831   25.3188 N   0  0  0  0  0  0  0  0  0  0  0  0
   10.6628  -17.3452   24.4714 C   0  0  0  0  0  0  0  0  0  0  0  0
   10.0149  -18.3057   24.9445 O   0  0  0  0  0  0  0  0  0  0  0  0
   11.3027  -17.3667   23.1498 C   0  0  0  0  0  0  0  0  0  0  0  0
   12.0303  -16.0980   22.8385 C   0  0  2  0  0  0  0  0  0  0  0  0
   11.3831  -15.5009   21.6734 N   0  0  0  0  0  0  0  0  0  0  0  0
   13.4761  -16.2413   22.6394 C   0  0  0  0  0  0  0  0  0  0  0  0
   13.8701  -16.6635   21.4946 O   0  0  0  0  0  0  0  0  0  0  0  0
   14.4738  -15.9711   23.5515 O   0  0  0  0  0  0  0  0  0  0  0  0
  1  2  1  0
  2  3  1  0
  3  5  1  0
  3  4  1  6
  5  6  2  0
  7  5  1  0
  7  8  1  0
  8 15  1  0
  8  9  1  1
 10  9  1  0
 11 10  2  0
 12 13  1  0
 12 11  1  0
 13 14  2  0
 14 10  1  0
 15 16  2  0
 18 17  1  0
 19 18  2  0
 20 18  1  0
 21 20  1  6
 21 23  1  0
 22 21  1  0
 22 15  1  0
 23 25  1  0
 24 23  2  0
M  END
$$$$
