SHN.pdb
     RDKit          3D

 25 25  0  0  1  0  0  0  0  0999 V2000
   10.7309  -20.7182   19.8145 O   0  0  0  0  0  0  0  0  0  0  0  0
    9.4499  -20.2207   19.8949 C   0  0  0  0  0  0  0  0  0  0  0  0
    9.3478  -18.9478   19.1205 C   0  0  2  0  0  0  0  0  0  0  0  0
   10.0731  -19.0624   17.8376 N   0  0  0  0  0  0  0  0  0  0  0  0
    9.8608  -17.7687   19.8422 C   0  0  0  0  0  0  0  0  0  0  0  0
   10.9554  -17.2248   19.4711 O   0  0  0  0  0  0  0  0  0  0  0  0
    9.1833  -17.2094   20.9353 N   0  0  0  0  0  0  0  0  0  0  0  0
    9.7347  -15.9933   21.5568 C   0  0  1  0  0  0  0  0  0  0  0  0
    8.6136  -15.0180   21.8527 C   0  0  0  0  0  0  0  0  0  0  0  0
    8.2287  -14.2718   20.6391 C   0  0  0  0  0  0  0  0  0  0  0  0
    8.8011  -14.3219   19.3938 C   0  0  0  0  0  0  0  0  0  0  0  0
    8.1526  -13.4703   18.5782 N   0  0  0  0  0  0  0  0  0  0  0  0
    7.1796  -12.8941   19.3198 C   0  0  0  0  0  0  0  0  0  0  0  0
    7.2126  -13.3693   20.5706 N   0  0  0  0  0  0  0  0  0  0  0  0
   10.4754  -16.4202   22.7573 C   0  0  0  0  0  0  0  0  0  0  0  0
   10.0530  -17.4360   23.3635 O   0  0  0  0  0  0  0  0  0  0  0  0
   12.2908  -18.5386   26.9394 N   0  0  0  0  0  0  0  0  0  0  0  0
   12.5368  -18.5945   25.5208 C   0  0  0  0  0  0  0  0  0  0  0  0
   13.4368  -19.3877   25.1646 O   0  0  0  0  0  0  0  0  0  0  0  0
   11.7660  -17.7645   24.5863 C   0  0  0  0  0  0  0  0  0  0  0  0
   12.4417  -16.4684   24.2709 C   0  0  2  0  0  0  0  0  0  0  0  0
   11.6196  -15.7800   23.2794 N   0  0  0  0  0  0  0  0  0  0  0  0
   13.8359  -16.5830   23.8314 C   0  0  0  0  0  0  0  0  0  0  0  0
   14.6111  -15.5924   24.0801 O   0  0  0  0  0  0  0  0  0  0  0  0
   14.4178  -17.6458   23.1740 O   0  0  0  0  0  0  0  0  0  0  0  0
  1  2  1  0
  2  3  1  0
  3  5  1  0
  3  4  1  6
  5  6  2  0
  7  5  1  0
  7  8  1  0
  8 15  1  0
  8  9  1  1
 10  9  1  0
 11 10  2  0
 12 13  1  0
 12 11  1  0
 13 14  2  0
 14 10  1  0
 15 16  2  0
 18 17  1  0
 19 18  2  0
 20 18  1  0
 21 20  1  6
 21 23  1  0
 22 21  1  0
 22 15  1  0
 23 25  1  0
 24 23  2  0
M  END
$$$$
