SHN.pdb
     RDKit          3D

 25 25  0  0  1  0  0  0  0  0999 V2000
   10.3458  -14.8548   15.6132 O   0  0  0  0  0  0  0  0  0  0  0  0
   11.6881  -14.5847   15.4713 C   0  0  0  0  0  0  0  0  0  0  0  0
   12.4686  -15.3172   16.5128 C   0  0  2  0  0  0  0  0  0  0  0  0
   12.2248  -16.7719   16.4150 N   0  0  0  0  0  0  0  0  0  0  0  0
   12.1724  -14.8868   17.8917 C   0  0  0  0  0  0  0  0  0  0  0  0
   12.7572  -13.8590   18.3746 O   0  0  0  0  0  0  0  0  0  0  0  0
   11.2577  -15.5694   18.7065 N   0  0  0  0  0  0  0  0  0  0  0  0
   10.9663  -15.0264   20.0442 C   0  0  1  0  0  0  0  0  0  0  0  0
    9.4775  -15.1057   20.3142 C   0  0  0  0  0  0  0  0  0  0  0  0
    8.7286  -14.2100   19.4116 C   0  0  0  0  0  0  0  0  0  0  0  0
    8.6779  -12.8396   19.4249 C   0  0  0  0  0  0  0  0  0  0  0  0
    7.8641  -12.4211   18.4382 N   0  0  0  0  0  0  0  0  0  0  0  0
    7.4120  -13.5331   17.8156 C   0  0  0  0  0  0  0  0  0  0  0  0
    7.9267  -14.6250   18.3935 N   0  0  0  0  0  0  0  0  0  0  0  0
   11.7803  -15.7903   21.0065 C   0  0  0  0  0  0  0  0  0  0  0  0
   11.7312  -17.0433   20.9352 O   0  0  0  0  0  0  0  0  0  0  0  0
   15.8148  -14.1286   21.0412 N   0  0  0  0  0  0  0  0  0  0  0  0
   15.4612  -15.4018   21.6157 C   0  0  0  0  0  0  0  0  0  0  0  0
   15.7660  -16.4022   20.9285 O   0  0  0  0  0  0  0  0  0  0  0  0
   14.7904  -15.4831   22.9195 C   0  0  0  0  0  0  0  0  0  0  0  0
   13.4313  -16.1007   22.8334 C   0  0  2  0  0  0  0  0  0  0  0  0
   12.6093  -15.2273   22.0002 N   0  0  0  0  0  0  0  0  0  0  0  0
   12.7900  -16.3782   24.1226 C   0  0  0  0  0  0  0  0  0  0  0  0
   11.7284  -15.7158   24.4027 O   0  0  0  0  0  0  0  0  0  0  0  0
   13.2006  -17.2804   25.0807 O   0  0  0  0  0  0  0  0  0  0  0  0
  1  2  1  0
  2  3  1  0
  3  5  1  0
  3  4  1  1
  5  6  2  0
  7  5  1  0
  7  8  1  0
  8 15  1  0
  8  9  1  1
 10  9  1  0
 11 10  2  0
 12 13  1  0
 12 11  1  0
 13 14  2  0
 14 10  1  0
 15 16  2  0
 18 17  1  0
 19 18  2  0
 20 18  1  0
 21 20  1  1
 21 23  1  0
 22 21  1  0
 22 15  1  0
 23 25  1  0
 24 23  2  0
M  END
$$$$
