SHN.pdb
     RDKit          3D

 25 25  0  0  1  0  0  0  0  0999 V2000
   10.5804  -12.0481   18.7651 O   0  0  0  0  0  0  0  0  0  0  0  0
    9.3197  -12.4634   19.1295 C   0  0  0  0  0  0  0  0  0  0  0  0
    9.1264  -13.8960   18.7544 C   0  0  2  0  0  0  0  0  0  0  0  0
    8.0844  -14.0229   17.7136 N   0  0  0  0  0  0  0  0  0  0  0  0
    8.7606  -14.7646   19.8883 C   0  0  0  0  0  0  0  0  0  0  0  0
    7.5291  -14.9692   20.1589 O   0  0  0  0  0  0  0  0  0  0  0  0
    9.7254  -15.3877   20.6930 N   0  0  0  0  0  0  0  0  0  0  0  0
    9.2726  -16.3197   21.7397 C   0  0  1  0  0  0  0  0  0  0  0  0
   10.2120  -17.5064   21.8078 C   0  0  0  0  0  0  0  0  0  0  0  0
    9.8094  -18.5546   20.8503 C   0  0  0  0  0  0  0  0  0  0  0  0
    9.3286  -18.4008   19.5751 C   0  0  0  0  0  0  0  0  0  0  0  0
    9.0696  -19.6144   19.0545 N   0  0  0  0  0  0  0  0  0  0  0  0
    9.3904  -20.5178   20.0082 C   0  0  0  0  0  0  0  0  0  0  0  0
    9.8401  -19.8915   21.1022 N   0  0  0  0  0  0  0  0  0  0  0  0
    9.1995  -15.5540   22.9969 C   0  0  0  0  0  0  0  0  0  0  0  0
   10.1892  -14.8402   23.2946 O   0  0  0  0  0  0  0  0  0  0  0  0
    5.5982  -12.6600   26.9302 N   0  0  0  0  0  0  0  0  0  0  0  0
    6.8560  -13.1447   26.4210 C   0  0  0  0  0  0  0  0  0  0  0  0
    7.8666  -12.7981   27.0728 O   0  0  0  0  0  0  0  0  0  0  0  0
    6.9115  -13.9850   25.2180 C   0  0  0  0  0  0  0  0  0  0  0  0
    8.1793  -14.7718   25.1199 C   0  0  2  0  0  0  0  0  0  0  0  0
    8.1082  -15.5586   23.8916 N   0  0  0  0  0  0  0  0  0  0  0  0
    8.4833  -15.6117   26.2829 C   0  0  0  0  0  0  0  0  0  0  0  0
    8.1426  -16.8461   26.2183 O   0  0  0  0  0  0  0  0  0  0  0  0
    9.1012  -15.2235   27.4525 O   0  0  0  0  0  0  0  0  0  0  0  0
  1  2  1  0
  2  3  1  0
  3  5  1  0
  3  4  1  6
  5  6  2  0
  7  5  1  0
  7  8  1  0
  8 15  1  0
  8  9  1  1
 10  9  1  0
 11 10  2  0
 12 13  1  0
 12 11  1  0
 13 14  2  0
 14 10  1  0
 15 16  2  0
 18 17  1  0
 19 18  2  0
 20 18  1  0
 21 20  1  1
 21 23  1  0
 22 21  1  0
 22 15  1  0
 23 25  1  0
 24 23  2  0
M  END
$$$$
