SHN.pdb
     RDKit          3D

 25 25  0  0  1  0  0  0  0  0999 V2000
    6.3486  -19.8812   22.4507 O   0  0  0  0  0  0  0  0  0  0  0  0
    5.4359  -19.0363   21.8606 C   0  0  0  0  0  0  0  0  0  0  0  0
    6.0636  -18.3392   20.6985 C   0  0  2  0  0  0  0  0  0  0  0  0
    6.3742  -19.3036   19.6221 N   0  0  0  0  0  0  0  0  0  0  0  0
    7.2975  -17.6072   21.0386 C   0  0  0  0  0  0  0  0  0  0  0  0
    8.4340  -18.1034   20.7327 O   0  0  0  0  0  0  0  0  0  0  0  0
    7.2734  -16.3666   21.6921 N   0  0  0  0  0  0  0  0  0  0  0  0
    8.5453  -15.6505   21.8885 C   0  0  1  0  0  0  0  0  0  0  0  0
    8.2998  -14.1557   21.8567 C   0  0  0  0  0  0  0  0  0  0  0  0
    8.0502  -13.6906   20.4787 C   0  0  0  0  0  0  0  0  0  0  0  0
    8.0897  -14.4177   19.3165 C   0  0  0  0  0  0  0  0  0  0  0  0
    7.8147  -13.6042   18.2804 N   0  0  0  0  0  0  0  0  0  0  0  0
    7.6055  -12.3745   18.8027 C   0  0  0  0  0  0  0  0  0  0  0  0
    7.7445  -12.4104   20.1333 N   0  0  0  0  0  0  0  0  0  0  0  0
    9.1161  -16.1262   23.1613 C   0  0  0  0  0  0  0  0  0  0  0  0
    8.3155  -16.5708   24.0208 O   0  0  0  0  0  0  0  0  0  0  0  0
   11.9959  -20.4999   24.4144 N   0  0  0  0  0  0  0  0  0  0  0  0
   11.1584  -19.4626   24.9609 C   0  0  0  0  0  0  0  0  0  0  0  0
   10.9688  -19.5232   26.1964 O   0  0  0  0  0  0  0  0  0  0  0  0
   10.5836  -18.4220   24.0988 C   0  0  0  0  0  0  0  0  0  0  0  0
   10.9880  -17.0421   24.5093 C   0  0  2  0  0  0  0  0  0  0  0  0
   10.4883  -16.1222   23.4910 N   0  0  0  0  0  0  0  0  0  0  0  0
   12.4232  -16.8578   24.7466 C   0  0  0  0  0  0  0  0  0  0  0  0
   13.1378  -16.4835   23.7500 O   0  0  0  0  0  0  0  0  0  0  0  0
   13.1024  -17.0422   25.9320 O   0  0  0  0  0  0  0  0  0  0  0  0
  1  2  1  0
  2  3  1  0
  3  5  1  0
  3  4  1  6
  5  6  2  0
  7  5  1  0
  7  8  1  0
  8 15  1  0
  8  9  1  1
 10  9  1  0
 11 10  2  0
 12 13  1  0
 12 11  1  0
 13 14  2  0
 14 10  1  0
 15 16  2  0
 18 17  1  0
 19 18  2  0
 20 18  1  0
 21 20  1  6
 21 23  1  0
 22 21  1  0
 22 15  1  0
 23 25  1  0
 24 23  2  0
M  END
$$$$
