WPV.pdb
     RDKit          3D

 29 31  0  0  1  0  0  0  0  0999 V2000
    6.2809  -17.5216   24.3205 N   0  0  0  0  0  0  0  0  0  0  0  0
    6.9364  -16.4164   23.7071 C   0  0  1  0  0  0  0  0  0  0  0  0
    7.7954  -15.7032   24.7333 C   0  0  0  0  0  0  0  0  0  0  0  0
    7.0269  -14.7970   25.5935 C   0  0  0  0  0  0  0  0  0  0  0  0
    5.8682  -15.1120   26.2814 C   0  0  0  0  0  0  0  0  0  0  0  0
    5.4684  -14.0264   26.9512 N   0  0  0  0  0  0  0  0  0  0  0  0
    6.3128  -13.0083   26.7355 C   0  0  0  0  0  0  0  0  0  0  0  0
    6.3813  -11.6888   27.1657 C   0  0  0  0  0  0  0  0  0  0  0  0
    7.3979  -10.8584   26.7627 C   0  0  0  0  0  0  0  0  0  0  0  0
    8.3796  -11.3359   25.9103 C   0  0  0  0  0  0  0  0  0  0  0  0
    8.3376  -12.6436   25.4660 C   0  0  0  0  0  0  0  0  0  0  0  0
    7.2987  -13.4765   25.8836 C   0  0  0  0  0  0  0  0  0  0  0  0
    7.7030  -16.7005   22.4975 C   0  0  0  0  0  0  0  0  0  0  0  0
    8.2254  -17.8304   22.3197 O   0  0  0  0  0  0  0  0  0  0  0  0
    7.9092  -15.7298   21.4504 N   0  0  0  0  0  0  0  0  0  0  0  0
    7.1649  -14.5116   21.3871 C   0  0  0  0  0  0  0  0  0  0  0  0
    7.4947  -13.8595   20.0822 C   0  0  0  0  0  0  0  0  0  0  0  0
    8.8482  -14.4255   19.7692 C   0  0  0  0  0  0  0  0  0  0  0  0
    8.8263  -15.8128   20.3639 C   0  0  1  0  0  0  0  0  0  0  0  0
   10.2089  -16.1496   20.7345 C   0  0  0  0  0  0  0  0  0  0  0  0
   10.7791  -15.5830   21.6713 O   0  0  0  0  0  0  0  0  0  0  0  0
   11.5130  -19.0438   22.1425 C   0  0  0  0  0  0  0  0  0  0  0  0
   12.2187  -19.0166   20.8176 C   0  0  1  0  0  0  0  0  0  0  0  0
   11.5187  -19.9784   19.8891 C   0  0  0  0  0  0  0  0  0  0  0  0
   12.2126  -17.6035   20.2714 C   0  0  2  0  0  0  0  0  0  0  0  0
   10.8675  -17.1543   19.9735 N   0  0  0  0  0  0  0  0  0  0  0  0
   13.1197  -17.4558   19.1162 C   0  0  0  0  0  0  0  0  0  0  0  0
   12.7221  -17.5802   17.9400 O   0  0  0  0  0  0  0  0  0  0  0  0
   14.4495  -17.1711   19.3447 O   0  0  0  0  0  0  0  0  0  0  0  0
  2  1  1  1
  3  2  1  0
  4  3  1  0
  4 12  1  0
  5  6  1  0
  5  4  2  0
  6  7  1  0
  7  8  2  0
  7 12  1  0
  8  9  1  0
  9 10  2  0
 11 10  1  0
 12 11  2  0
 13  2  1  0
 13 15  1  0
 14 13  2  0
 15 19  1  0
 16 15  1  0
 16 17  1  0
 17 18  1  0
 19 18  1  0
 19 20  1  1
 20 21  2  0
 23 22  1  1
 23 25  1  0
 24 23  1  0
 25 26  1  6
 26 20  1  0
 27 25  1  0
 28 27  2  0
 29 27  1  0
M  END
$$$$
