WPV.pdb
     RDKit          3D

 29 31  0  0  1  0  0  0  0  0999 V2000
    6.3554  -17.6614   24.3337 N   0  0  0  0  0  0  0  0  0  0  0  0
    6.8915  -16.5013   23.7058 C   0  0  1  0  0  0  0  0  0  0  0  0
    7.7647  -15.7492   24.6916 C   0  0  0  0  0  0  0  0  0  0  0  0
    7.0048  -14.8283   25.5435 C   0  0  0  0  0  0  0  0  0  0  0  0
    5.7471  -15.0568   26.0735 C   0  0  0  0  0  0  0  0  0  0  0  0
    5.3925  -13.9869   26.7921 N   0  0  0  0  0  0  0  0  0  0  0  0
    6.3616  -13.0617   26.7598 C   0  0  0  0  0  0  0  0  0  0  0  0
    6.5227  -11.7968   27.3120 C   0  0  0  0  0  0  0  0  0  0  0  0
    7.6631  -11.0633   27.0956 C   0  0  0  0  0  0  0  0  0  0  0  0
    8.6792  -11.5856   26.3126 C   0  0  0  0  0  0  0  0  0  0  0  0
    8.5472  -12.8409   25.7503 C   0  0  0  0  0  0  0  0  0  0  0  0
    7.3828  -13.5754   25.9786 C   0  0  0  0  0  0  0  0  0  0  0  0
    7.5951  -16.7077   22.4433 C   0  0  0  0  0  0  0  0  0  0  0  0
    8.1276  -17.8158   22.1794 O   0  0  0  0  0  0  0  0  0  0  0  0
    7.7249  -15.6813   21.4380 N   0  0  0  0  0  0  0  0  0  0  0  0
    6.9881  -14.4586   21.5017 C   0  0  0  0  0  0  0  0  0  0  0  0
    7.2180  -13.7364   20.2123 C   0  0  0  0  0  0  0  0  0  0  0  0
    8.5373  -14.2894   19.7610 C   0  0  0  0  0  0  0  0  0  0  0  0
    8.5516  -15.7075   20.2785 C   0  0  1  0  0  0  0  0  0  0  0  0
    9.9565  -16.0695   20.5179 C   0  0  0  0  0  0  0  0  0  0  0  0
   10.6233  -15.5122   21.3945 O   0  0  0  0  0  0  0  0  0  0  0  0
   11.3145  -19.3225   21.4718 C   0  0  0  0  0  0  0  0  0  0  0  0
   11.9403  -19.0380   20.1370 C   0  0  1  0  0  0  0  0  0  0  0  0
   11.1978  -19.8293   19.0883 C   0  0  0  0  0  0  0  0  0  0  0  0
   11.8856  -17.5494   19.8609 C   0  0  2  0  0  0  0  0  0  0  0  0
   10.5214  -17.0878   19.7015 N   0  0  0  0  0  0  0  0  0  0  0  0
   12.7411  -17.1693   18.7194 C   0  0  0  0  0  0  0  0  0  0  0  0
   12.2700  -16.9188   17.5914 O   0  0  0  0  0  0  0  0  0  0  0  0
   14.1050  -17.0887   18.9060 O   0  0  0  0  0  0  0  0  0  0  0  0
  2  1  1  1
  3  2  1  0
  4  3  1  0
  4 12  1  0
  5  6  1  0
  5  4  2  0
  6  7  1  0
  7  8  2  0
  7 12  1  0
  8  9  1  0
  9 10  2  0
 11 10  1  0
 12 11  2  0
 13  2  1  0
 13 15  1  0
 14 13  2  0
 15 19  1  0
 16 15  1  0
 16 17  1  0
 17 18  1  0
 19 18  1  0
 19 20  1  1
 20 21  2  0
 23 22  1  1
 23 25  1  0
 24 23  1  0
 25 26  1  6
 26 20  1  0
 27 25  1  0
 28 27  2  0
 29 27  1  0
M  END
$$$$
