WPV.pdb
     RDKit          3D

 29 31  0  0  1  0  0  0  0  0999 V2000
    6.8066  -18.2510   25.1018 N   0  0  0  0  0  0  0  0  0  0  0  0
    7.1563  -17.0390   24.4414 C   0  0  1  0  0  0  0  0  0  0  0  0
    7.8785  -16.1235   25.4110 C   0  0  0  0  0  0  0  0  0  0  0  0
    7.0178  -15.0642   25.9480 C   0  0  0  0  0  0  0  0  0  0  0  0
    5.6815  -15.1908   26.2845 C   0  0  0  0  0  0  0  0  0  0  0  0
    5.2477  -14.0099   26.7365 N   0  0  0  0  0  0  0  0  0  0  0  0
    6.2397  -13.1089   26.7132 C   0  0  0  0  0  0  0  0  0  0  0  0
    6.3486  -11.7676   27.0591 C   0  0  0  0  0  0  0  0  0  0  0  0
    7.5338  -11.0883   26.9196 C   0  0  0  0  0  0  0  0  0  0  0  0
    8.6489  -11.7443   26.4251 C   0  0  0  0  0  0  0  0  0  0  0  0
    8.5706  -13.0781   26.0728 C   0  0  0  0  0  0  0  0  0  0  0  0
    7.3598  -13.7561   26.2198 C   0  0  0  0  0  0  0  0  0  0  0  0
    7.9049  -17.1668   23.1944 C   0  0  0  0  0  0  0  0  0  0  0  0
    8.6548  -18.1563   22.9950 O   0  0  0  0  0  0  0  0  0  0  0  0
    7.8383  -16.1919   22.1332 N   0  0  0  0  0  0  0  0  0  0  0  0
    6.7739  -15.2430   22.0396 C   0  0  0  0  0  0  0  0  0  0  0  0
    6.9222  -14.5404   20.7276 C   0  0  0  0  0  0  0  0  0  0  0  0
    8.3867  -14.6935   20.4410 C   0  0  0  0  0  0  0  0  0  0  0  0
    8.7581  -16.0195   21.0595 C   0  0  1  0  0  0  0  0  0  0  0  0
   10.1725  -15.9357   21.4527 C   0  0  0  0  0  0  0  0  0  0  0  0
   10.8488  -14.9323   21.2090 O   0  0  0  0  0  0  0  0  0  0  0  0
   11.3904  -15.4463   24.4136 C   0  0  0  0  0  0  0  0  0  0  0  0
   12.0726  -16.7593   24.1584 C   0  0  1  0  0  0  0  0  0  0  0  0
   11.3415  -17.8300   24.9307 C   0  0  0  0  0  0  0  0  0  0  0  0
   12.0780  -17.0444   22.6705 C   0  0  2  0  0  0  0  0  0  0  0  0
   10.7352  -17.0548   22.1260 N   0  0  0  0  0  0  0  0  0  0  0  0
   12.8209  -18.2790   22.3492 C   0  0  0  0  0  0  0  0  0  0  0  0
   14.0561  -18.3690   22.5017 O   0  0  0  0  0  0  0  0  0  0  0  0
   12.1271  -19.3678   21.8649 O   0  0  0  0  0  0  0  0  0  0  0  0
  2  1  1  1
  3  2  1  0
  4  3  1  0
  4 12  1  0
  5  6  1  0
  5  4  2  0
  6  7  1  0
  7  8  2  0
  7 12  1  0
  8  9  1  0
  9 10  2  0
 11 10  1  0
 12 11  2  0
 13  2  1  0
 13 15  1  0
 14 13  2  0
 15 19  1  0
 16 15  1  0
 16 17  1  0
 17 18  1  0
 19 18  1  0
 19 20  1  1
 20 21  2  0
 23 22  1  6
 23 25  1  0
 24 23  1  0
 25 26  1  1
 26 20  1  0
 27 25  1  0
 28 27  2  0
 29 27  1  0
M  END
$$$$
