WPV.pdb
     RDKit          3D

 29 31  0  0  1  0  0  0  0  0999 V2000
   10.0056  -15.9459   22.7799 N   0  0  0  0  0  0  0  0  0  0  0  0
    9.5594  -15.5449   24.0713 C   0  0  1  0  0  0  0  0  0  0  0  0
    8.0532  -15.6992   24.1575 C   0  0  0  0  0  0  0  0  0  0  0  0
    7.3319  -14.4579   23.8574 C   0  0  0  0  0  0  0  0  0  0  0  0
    6.9819  -14.0015   22.5987 C   0  0  0  0  0  0  0  0  0  0  0  0
    6.3373  -12.8386   22.7370 N   0  0  0  0  0  0  0  0  0  0  0  0
    6.2465  -12.5072   24.0325 C   0  0  0  0  0  0  0  0  0  0  0  0
    5.6968  -11.4390   24.7307 C   0  0  0  0  0  0  0  0  0  0  0  0
    5.7609  -11.3729   26.1008 C   0  0  0  0  0  0  0  0  0  0  0  0
    6.3839  -12.3862   26.8102 C   0  0  0  0  0  0  0  0  0  0  0  0
    6.9397  -13.4610   26.1429 C   0  0  0  0  0  0  0  0  0  0  0  0
    6.8672  -13.5153   24.7504 C   0  0  0  0  0  0  0  0  0  0  0  0
   10.2112  -16.1783   25.2138 C   0  0  0  0  0  0  0  0  0  0  0  0
   10.7955  -17.2845   25.0869 O   0  0  0  0  0  0  0  0  0  0  0  0
   10.2291  -15.5944   26.5328 N   0  0  0  0  0  0  0  0  0  0  0  0
    9.5585  -14.3678   26.8293 C   0  0  0  0  0  0  0  0  0  0  0  0
    9.9554  -13.9710   28.2156 C   0  0  0  0  0  0  0  0  0  0  0  0
   10.3267  -15.2854   28.8360 C   0  0  0  0  0  0  0  0  0  0  0  0
   10.8808  -16.1015   27.6932 C   0  0  1  0  0  0  0  0  0  0  0  0
   10.6112  -17.5149   27.9967 C   0  0  0  0  0  0  0  0  0  0  0  0
    9.4647  -17.9713   27.9659 O   0  0  0  0  0  0  0  0  0  0  0  0
   12.5704  -21.9937   28.1789 C   0  0  0  0  0  0  0  0  0  0  0  0
   12.6266  -20.5489   27.7742 C   0  0  1  0  0  0  0  0  0  0  0  0
   12.3830  -20.4646   26.2873 C   0  0  0  0  0  0  0  0  0  0  0  0
   11.5943  -19.7646   28.5580 C   0  0  2  0  0  0  0  0  0  0  0  0
   11.7214  -18.3397   28.3275 N   0  0  0  0  0  0  0  0  0  0  0  0
   11.6203  -20.1028   29.9948 C   0  0  0  0  0  0  0  0  0  0  0  0
   11.1137  -21.1534   30.4385 O   0  0  0  0  0  0  0  0  0  0  0  0
   12.2239  -19.2294   30.8746 O   0  0  0  0  0  0  0  0  0  0  0  0
  2  1  1  6
  3  2  1  0
  4  3  1  0
  4 12  1  0
  5  6  1  0
  5  4  2  0
  6  7  1  0
  7  8  2  0
  7 12  1  0
  8  9  1  0
  9 10  2  0
 11 10  1  0
 12 11  2  0
 13  2  1  0
 13 15  1  0
 14 13  2  0
 15 19  1  0
 16 15  1  0
 16 17  1  0
 17 18  1  0
 19 18  1  0
 19 20  1  1
 20 21  2  0
 23 22  1  1
 23 25  1  0
 24 23  1  0
 25 26  1  1
 26 20  1  0
 27 25  1  0
 28 27  2  0
 29 27  1  0
M  END
$$$$
