WPV.pdb
     RDKit          3D

 29 31  0  0  1  0  0  0  0  0999 V2000
    6.4987  -17.5959   24.3331 N   0  0  0  0  0  0  0  0  0  0  0  0
    7.0795  -16.4303   23.7572 C   0  0  1  0  0  0  0  0  0  0  0  0
    7.8463  -15.6679   24.8205 C   0  0  0  0  0  0  0  0  0  0  0  0
    6.9789  -14.8582   25.6827 C   0  0  0  0  0  0  0  0  0  0  0  0
    5.8555  -15.3024   26.3577 C   0  0  0  0  0  0  0  0  0  0  0  0
    5.3367  -14.2729   27.0344 N   0  0  0  0  0  0  0  0  0  0  0  0
    6.0688  -13.1680   26.8355 C   0  0  0  0  0  0  0  0  0  0  0  0
    5.9925  -11.8533   27.2788 C   0  0  0  0  0  0  0  0  0  0  0  0
    6.9173  -10.9147   26.8924 C   0  0  0  0  0  0  0  0  0  0  0  0
    7.9507  -11.2756   26.0438 C   0  0  0  0  0  0  0  0  0  0  0  0
    8.0523  -12.5757   25.5867 C   0  0  0  0  0  0  0  0  0  0  0  0
    7.1055  -13.5192   25.9876 C   0  0  0  0  0  0  0  0  0  0  0  0
    7.9024  -16.6297   22.5679 C   0  0  0  0  0  0  0  0  0  0  0  0
    8.5672  -17.6865   22.4176 O   0  0  0  0  0  0  0  0  0  0  0  0
    8.0075  -15.6536   21.5110 N   0  0  0  0  0  0  0  0  0  0  0  0
    7.2169  -14.4633   21.4955 C   0  0  0  0  0  0  0  0  0  0  0  0
    7.4408  -13.8012   20.1731 C   0  0  0  0  0  0  0  0  0  0  0  0
    8.7918  -14.3181   19.7757 C   0  0  0  0  0  0  0  0  0  0  0  0
    8.8575  -15.7046   20.3693 C   0  0  1  0  0  0  0  0  0  0  0  0
   10.2718  -15.9903   20.6527 C   0  0  0  0  0  0  0  0  0  0  0  0
   10.9405  -15.2582   21.3877 O   0  0  0  0  0  0  0  0  0  0  0  0
   11.7034  -18.6878   22.4401 C   0  0  0  0  0  0  0  0  0  0  0  0
   12.2469  -18.8830   21.0542 C   0  0  1  0  0  0  0  0  0  0  0  0
   11.4214  -19.9434   20.3676 C   0  0  0  0  0  0  0  0  0  0  0  0
   12.2053  -17.5665   20.3057 C   0  0  2  0  0  0  0  0  0  0  0  0
   10.8434  -17.1438   20.0483 N   0  0  0  0  0  0  0  0  0  0  0  0
   13.0199  -17.6068   19.0752 C   0  0  0  0  0  0  0  0  0  0  0  0
   14.2674  -17.6162   19.1052 O   0  0  0  0  0  0  0  0  0  0  0  0
   12.3814  -17.6351   17.8534 O   0  0  0  0  0  0  0  0  0  0  0  0
  2  1  1  1
  3  2  1  0
  4  3  1  0
  4 12  1  0
  5  6  1  0
  5  4  2  0
  6  7  1  0
  7  8  2  0
  7 12  1  0
  8  9  1  0
  9 10  2  0
 11 10  1  0
 12 11  2  0
 13  2  1  0
 13 15  1  0
 14 13  2  0
 15 19  1  0
 16 15  1  0
 16 17  1  0
 17 18  1  0
 19 18  1  0
 19 20  1  1
 20 21  2  0
 23 22  1  1
 23 25  1  0
 24 23  1  0
 25 26  1  6
 26 20  1  0
 27 25  1  0
 28 27  2  0
 29 27  1  0
M  END
$$$$
