WPV.pdb
     RDKit          3D

 29 31  0  0  1  0  0  0  0  0999 V2000
    6.2865  -18.1071   24.2939 N   0  0  0  0  0  0  0  0  0  0  0  0
    6.9114  -16.8856   23.9133 C   0  0  1  0  0  0  0  0  0  0  0  0
    7.6102  -16.2780   25.1142 C   0  0  0  0  0  0  0  0  0  0  0  0
    6.8033  -15.2568   25.7906 C   0  0  0  0  0  0  0  0  0  0  0  0
    5.5658  -15.4519   26.3783 C   0  0  0  0  0  0  0  0  0  0  0  0
    5.1537  -14.2868   26.8878 N   0  0  0  0  0  0  0  0  0  0  0  0
    6.0653  -13.3307   26.6620 C   0  0  0  0  0  0  0  0  0  0  0  0
    6.1548  -11.9767   26.9613 C   0  0  0  0  0  0  0  0  0  0  0  0
    7.2474  -11.2337   26.5878 C   0  0  0  0  0  0  0  0  0  0  0  0
    8.2866  -11.8366   25.8986 C   0  0  0  0  0  0  0  0  0  0  0  0
    8.2256  -13.1814   25.5871 C   0  0  0  0  0  0  0  0  0  0  0  0
    7.1091  -13.9244   25.9729 C   0  0  0  0  0  0  0  0  0  0  0  0
    7.8106  -16.9419   22.7644 C   0  0  0  0  0  0  0  0  0  0  0  0
    8.5271  -17.9548   22.5597 O   0  0  0  0  0  0  0  0  0  0  0  0
    7.9364  -15.8673   21.8103 N   0  0  0  0  0  0  0  0  0  0  0  0
    7.1600  -14.6715   21.9068 C   0  0  0  0  0  0  0  0  0  0  0  0
    7.4033  -13.8847   20.6583 C   0  0  0  0  0  0  0  0  0  0  0  0
    8.7515  -14.3766   20.2219 C   0  0  0  0  0  0  0  0  0  0  0  0
    8.7957  -15.8157   20.6756 C   0  0  1  0  0  0  0  0  0  0  0  0
   10.2040  -16.1459   20.9400 C   0  0  0  0  0  0  0  0  0  0  0  0
   11.0402  -16.1675   20.0323 O   0  0  0  0  0  0  0  0  0  0  0  0
   11.4398  -15.1187   24.5678 C   0  0  0  0  0  0  0  0  0  0  0  0
   12.1213  -16.3988   24.1791 C   0  0  1  0  0  0  0  0  0  0  0  0
   11.5252  -17.5188   24.9961 C   0  0  0  0  0  0  0  0  0  0  0  0
   11.9460  -16.6328   22.6926 C   0  0  2  0  0  0  0  0  0  0  0  0
   10.5697  -16.4398   22.2825 N   0  0  0  0  0  0  0  0  0  0  0  0
   12.4742  -17.9469   22.2761 C   0  0  0  0  0  0  0  0  0  0  0  0
   13.6982  -18.1837   22.2235 O   0  0  0  0  0  0  0  0  0  0  0  0
   11.5860  -18.9446   21.9341 O   0  0  0  0  0  0  0  0  0  0  0  0
  2  1  1  1
  3  2  1  0
  4  3  1  0
  4 12  1  0
  5  6  1  0
  5  4  2  0
  6  7  1  0
  7  8  2  0
  7 12  1  0
  8  9  1  0
  9 10  2  0
 11 10  1  0
 12 11  2  0
 13  2  1  0
 13 15  1  0
 14 13  2  0
 15 19  1  0
 16 15  1  0
 16 17  1  0
 17 18  1  0
 19 18  1  0
 19 20  1  1
 20 21  2  0
 23 22  1  1
 23 25  1  0
 24 23  1  0
 25 26  1  1
 26 20  1  0
 27 25  1  0
 28 27  2  0
 29 27  1  0
M  END
$$$$
