WPV.pdb
     RDKit          3D

 29 31  0  0  1  0  0  0  0  0999 V2000
    6.4487  -17.8653   24.8007 N   0  0  0  0  0  0  0  0  0  0  0  0
    7.0516  -16.7219   24.2035 C   0  0  1  0  0  0  0  0  0  0  0  0
    7.7870  -15.9249   25.2636 C   0  0  0  0  0  0  0  0  0  0  0  0
    6.9435  -14.9121   25.9071 C   0  0  0  0  0  0  0  0  0  0  0  0
    5.6615  -15.1055   26.3907 C   0  0  0  0  0  0  0  0  0  0  0  0
    5.2263  -13.9500   26.9030 N   0  0  0  0  0  0  0  0  0  0  0  0
    6.1653  -13.0019   26.7786 C   0  0  0  0  0  0  0  0  0  0  0  0
    6.2490  -11.6591   27.1261 C   0  0  0  0  0  0  0  0  0  0  0  0
    7.3772  -10.9223   26.8619 C   0  0  0  0  0  0  0  0  0  0  0  0
    8.4589  -11.5202   26.2368 C   0  0  0  0  0  0  0  0  0  0  0  0
    8.4045  -12.8540   25.8795 C   0  0  0  0  0  0  0  0  0  0  0  0
    7.2517  -13.5908   26.1542 C   0  0  0  0  0  0  0  0  0  0  0  0
    7.9112  -16.9645   23.0486 C   0  0  0  0  0  0  0  0  0  0  0  0
    8.6239  -17.9986   22.9854 O   0  0  0  0  0  0  0  0  0  0  0  0
    8.0004  -16.0582   21.9299 N   0  0  0  0  0  0  0  0  0  0  0  0
    7.0637  -14.9966   21.7362 C   0  0  0  0  0  0  0  0  0  0  0  0
    7.3415  -14.4016   20.3924 C   0  0  0  0  0  0  0  0  0  0  0  0
    8.7853  -14.7468   20.1767 C   0  0  0  0  0  0  0  0  0  0  0  0
    8.9707  -16.0657   20.8873 C   0  0  1  0  0  0  0  0  0  0  0  0
   10.3704  -16.1269   21.3336 C   0  0  0  0  0  0  0  0  0  0  0  0
   10.7198  -15.6558   22.4197 O   0  0  0  0  0  0  0  0  0  0  0  0
   11.7951  -17.3505   23.2045 C   0  0  0  0  0  0  0  0  0  0  0  0
   12.5892  -18.0254   22.1237 C   0  0  1  0  0  0  0  0  0  0  0  0
   11.9411  -19.3539   21.8202 C   0  0  0  0  0  0  0  0  0  0  0  0
   12.6389  -17.1321   20.9012 C   0  0  2  0  0  0  0  0  0  0  0  0
   11.3101  -16.7503   20.4671 N   0  0  0  0  0  0  0  0  0  0  0  0
   13.4313  -17.7345   19.8110 C   0  0  0  0  0  0  0  0  0  0  0  0
   12.9348  -18.5377   18.9952 O   0  0  0  0  0  0  0  0  0  0  0  0
   14.7632  -17.3985   19.6905 O   0  0  0  0  0  0  0  0  0  0  0  0
  2  1  1  1
  3  2  1  0
  4  3  1  0
  4 12  1  0
  5  6  1  0
  5  4  2  0
  6  7  1  0
  7  8  2  0
  7 12  1  0
  8  9  1  0
  9 10  2  0
 11 10  1  0
 12 11  2  0
 13  2  1  0
 13 15  1  0
 14 13  2  0
 15 19  1  0
 16 15  1  0
 16 17  1  0
 17 18  1  0
 19 18  1  0
 19 20  1  1
 20 21  2  0
 23 22  1  1
 23 25  1  0
 24 23  1  0
 25 26  1  6
 26 20  1  0
 27 25  1  0
 28 27  2  0
 29 27  1  0
M  END
$$$$
