WPV.pdb
     RDKit          3D

 29 31  0  0  1  0  0  0  0  0999 V2000
    6.4923  -17.9731   25.1536 N   0  0  0  0  0  0  0  0  0  0  0  0
    7.4251  -16.9472   24.8294 C   0  0  1  0  0  0  0  0  0  0  0  0
    7.5099  -15.9584   25.9761 C   0  0  0  0  0  0  0  0  0  0  0  0
    6.5358  -14.8674   25.8652 C   0  0  0  0  0  0  0  0  0  0  0  0
    5.1757  -15.0066   25.6514 C   0  0  0  0  0  0  0  0  0  0  0  0
    4.6294  -13.7873   25.6104 N   0  0  0  0  0  0  0  0  0  0  0  0
    5.5697  -12.8489   25.7880 C   0  0  0  0  0  0  0  0  0  0  0  0
    5.5663  -11.4602   25.8364 C   0  0  0  0  0  0  0  0  0  0  0  0
    6.7240  -10.7502   26.0392 C   0  0  0  0  0  0  0  0  0  0  0  0
    7.9243  -11.4221   26.1998 C   0  0  0  0  0  0  0  0  0  0  0  0
    7.9585  -12.8029   26.1564 C   0  0  0  0  0  0  0  0  0  0  0  0
    6.7744  -13.5118   25.9496 C   0  0  0  0  0  0  0  0  0  0  0  0
    8.7576  -17.3812   24.4200 C   0  0  0  0  0  0  0  0  0  0  0  0
    9.2868  -18.3995   24.9342 O   0  0  0  0  0  0  0  0  0  0  0  0
    9.5389  -16.6896   23.4239 N   0  0  0  0  0  0  0  0  0  0  0  0
    8.9338  -15.9025   22.3962 C   0  0  0  0  0  0  0  0  0  0  0  0
   10.0182  -15.5101   21.4437 C   0  0  0  0  0  0  0  0  0  0  0  0
   11.2451  -15.5737   22.3044 C   0  0  0  0  0  0  0  0  0  0  0  0
   10.9573  -16.6759   23.2950 C   0  0  1  0  0  0  0  0  0  0  0  0
   11.6959  -16.3586   24.5262 C   0  0  0  0  0  0  0  0  0  0  0  0
   12.5908  -15.5085   24.5377 O   0  0  0  0  0  0  0  0  0  0  0  0
   11.5857  -14.4240   26.1225 C   0  0  0  0  0  0  0  0  0  0  0  0
   11.5075  -15.2678   27.3619 C   0  0  1  0  0  0  0  0  0  0  0  0
   10.1168  -15.1405   27.9337 C   0  0  0  0  0  0  0  0  0  0  0  0
   11.8436  -16.7042   27.0166 C   0  0  2  0  0  0  0  0  0  0  0  0
   11.3415  -17.0678   25.7069 N   0  0  0  0  0  0  0  0  0  0  0  0
   11.3975  -17.6416   28.0661 C   0  0  0  0  0  0  0  0  0  0  0  0
   10.5721  -18.5492   27.8380 O   0  0  0  0  0  0  0  0  0  0  0  0
   11.9095  -17.5097   29.3396 O   0  0  0  0  0  0  0  0  0  0  0  0
  2  1  1  1
  3  2  1  0
  4  3  1  0
  4 12  1  0
  5  6  1  0
  5  4  2  0
  6  7  1  0
  7  8  2  0
  7 12  1  0
  8  9  1  0
  9 10  2  0
 11 10  1  0
 12 11  2  0
 13  2  1  0
 13 15  1  0
 14 13  2  0
 15 19  1  0
 16 15  1  0
 16 17  1  0
 17 18  1  0
 19 18  1  0
 19 20  1  1
 20 21  2  0
 23 22  1  6
 23 25  1  0
 24 23  1  0
 25 26  1  6
 26 20  1  0
 27 25  1  0
 28 27  2  0
 29 27  1  0
M  END
$$$$
