WPV.pdb
     RDKit          3D

 29 31  0  0  1  0  0  0  0  0999 V2000
    6.2409  -18.2384   25.0266 N   0  0  0  0  0  0  0  0  0  0  0  0
    6.8600  -17.0339   24.5869 C   0  0  1  0  0  0  0  0  0  0  0  0
    7.4556  -16.3066   25.7769 C   0  0  0  0  0  0  0  0  0  0  0  0
    6.7287  -15.0800   26.1212 C   0  0  0  0  0  0  0  0  0  0  0  0
    5.3606  -14.9635   26.2938 C   0  0  0  0  0  0  0  0  0  0  0  0
    5.0819  -13.6924   26.5994 N   0  0  0  0  0  0  0  0  0  0  0  0
    6.2065  -12.9643   26.6361 C   0  0  0  0  0  0  0  0  0  0  0  0
    6.4980  -11.6304   26.8937 C   0  0  0  0  0  0  0  0  0  0  0  0
    7.7881  -11.1615   26.8564 C   0  0  0  0  0  0  0  0  0  0  0  0
    8.8267  -12.0273   26.5568 C   0  0  0  0  0  0  0  0  0  0  0  0
    8.5672  -13.3593   26.2961 C   0  0  0  0  0  0  0  0  0  0  0  0
    7.2513  -13.8223   26.3376 C   0  0  0  0  0  0  0  0  0  0  0  0
    7.8400  -17.1576   23.5118 C   0  0  0  0  0  0  0  0  0  0  0  0
    8.5875  -18.1660   23.4381 O   0  0  0  0  0  0  0  0  0  0  0  0
    8.0142  -16.1573   22.4871 N   0  0  0  0  0  0  0  0  0  0  0  0
    7.0847  -15.0874   22.3046 C   0  0  0  0  0  0  0  0  0  0  0  0
    7.4701  -14.3770   21.0461 C   0  0  0  0  0  0  0  0  0  0  0  0
    8.9312  -14.6953   20.9278 C   0  0  0  0  0  0  0  0  0  0  0  0
    9.0707  -16.0699   21.5360 C   0  0  1  0  0  0  0  0  0  0  0  0
   10.4275  -16.1629   22.0954 C   0  0  0  0  0  0  0  0  0  0  0  0
   10.7717  -15.4787   23.0633 O   0  0  0  0  0  0  0  0  0  0  0  0
   12.1802  -18.9812   23.5632 C   0  0  0  0  0  0  0  0  0  0  0  0
   12.9957  -18.6485   22.3472 C   0  0  1  0  0  0  0  0  0  0  0  0
   12.6544  -19.6409   21.2629 C   0  0  0  0  0  0  0  0  0  0  0  0
   12.7042  -17.2251   21.9181 C   0  0  2  0  0  0  0  0  0  0  0  0
   11.3315  -17.0721   21.4801 N   0  0  0  0  0  0  0  0  0  0  0  0
   13.6694  -16.7456   20.9091 C   0  0  0  0  0  0  0  0  0  0  0  0
   13.4514  -16.8413   19.6842 O   0  0  0  0  0  0  0  0  0  0  0  0
   14.8498  -16.1737   21.3344 O   0  0  0  0  0  0  0  0  0  0  0  0
  2  1  1  1
  3  2  1  0
  4  3  1  0
  4 12  1  0
  5  6  1  0
  5  4  2  0
  6  7  1  0
  7  8  2  0
  7 12  1  0
  8  9  1  0
  9 10  2  0
 11 10  1  0
 12 11  2  0
 13  2  1  0
 13 15  1  0
 14 13  2  0
 15 19  1  0
 16 15  1  0
 16 17  1  0
 17 18  1  0
 19 18  1  0
 19 20  1  1
 20 21  2  0
 23 22  1  1
 23 25  1  0
 24 23  1  0
 25 26  1  6
 26 20  1  0
 27 25  1  0
 28 27  2  0
 29 27  1  0
M  END
$$$$
