WPV.pdb
     RDKit          3D

 29 31  0  0  1  0  0  0  0  0999 V2000
    6.4238  -17.6556   24.1188 N   0  0  0  0  0  0  0  0  0  0  0  0
    7.0063  -16.4576   23.6161 C   0  0  1  0  0  0  0  0  0  0  0  0
    7.7796  -15.7669   24.7228 C   0  0  0  0  0  0  0  0  0  0  0  0
    6.9415  -14.8869   25.5443 C   0  0  0  0  0  0  0  0  0  0  0  0
    5.7306  -15.2216   26.1243 C   0  0  0  0  0  0  0  0  0  0  0  0
    5.2753  -14.1567   26.7920 N   0  0  0  0  0  0  0  0  0  0  0  0
    6.1331  -13.1333   26.6781 C   0  0  0  0  0  0  0  0  0  0  0  0
    6.1641  -11.8278   27.1529 C   0  0  0  0  0  0  0  0  0  0  0  0
    7.2093  -10.9865   26.8609 C   0  0  0  0  0  0  0  0  0  0  0  0
    8.2585  -11.4386   26.0780 C   0  0  0  0  0  0  0  0  0  0  0  0
    8.2551  -12.7320   25.5916 C   0  0  0  0  0  0  0  0  0  0  0  0
    7.1865  -13.5762   25.8963 C   0  0  0  0  0  0  0  0  0  0  0  0
    7.8243  -16.5833   22.4134 C   0  0  0  0  0  0  0  0  0  0  0  0
    8.5222  -17.6107   22.2168 O   0  0  0  0  0  0  0  0  0  0  0  0
    7.8872  -15.5641   21.3945 N   0  0  0  0  0  0  0  0  0  0  0  0
    6.9608  -14.4770   21.3497 C   0  0  0  0  0  0  0  0  0  0  0  0
    7.1992  -13.7456   20.0671 C   0  0  0  0  0  0  0  0  0  0  0  0
    8.6286  -14.0828   19.7618 C   0  0  0  0  0  0  0  0  0  0  0  0
    8.8189  -15.4720   20.3211 C   0  0  1  0  0  0  0  0  0  0  0  0
   10.2327  -15.5968   20.7054 C   0  0  0  0  0  0  0  0  0  0  0  0
   10.7417  -14.8402   21.5374 O   0  0  0  0  0  0  0  0  0  0  0  0
   13.1529  -18.4464   22.5552 C   0  0  0  0  0  0  0  0  0  0  0  0
   11.9302  -17.7296   22.0598 C   0  0  1  0  0  0  0  0  0  0  0  0
   11.5889  -16.6397   23.0461 C   0  0  0  0  0  0  0  0  0  0  0  0
   12.1976  -17.1721   20.6768 C   0  0  2  0  0  0  0  0  0  0  0  0
   10.9951  -16.6233   20.0830 N   0  0  0  0  0  0  0  0  0  0  0  0
   12.8511  -18.1641   19.8002 C   0  0  0  0  0  0  0  0  0  0  0  0
   14.0535  -18.0753   19.4785 O   0  0  0  0  0  0  0  0  0  0  0  0
   12.1085  -19.2228   19.3216 O   0  0  0  0  0  0  0  0  0  0  0  0
  2  1  1  1
  3  2  1  0
  4  3  1  0
  4 12  1  0
  5  6  1  0
  5  4  2  0
  6  7  1  0
  7  8  2  0
  7 12  1  0
  8  9  1  0
  9 10  2  0
 11 10  1  0
 12 11  2  0
 13  2  1  0
 13 15  1  0
 14 13  2  0
 15 19  1  0
 16 15  1  0
 16 17  1  0
 17 18  1  0
 19 18  1  0
 19 20  1  1
 20 21  2  0
 23 22  1  1
 23 25  1  0
 24 23  1  0
 25 26  1  6
 26 20  1  0
 27 25  1  0
 28 27  2  0
 29 27  1  0
M  END
$$$$
