WPV.pdb
     RDKit          3D

 29 31  0  0  1  0  0  0  0  0999 V2000
    6.4232  -17.6244   24.5485 N   0  0  0  0  0  0  0  0  0  0  0  0
    7.3700  -17.0524   23.6520 C   0  0  1  0  0  0  0  0  0  0  0  0
    6.9612  -15.6296   23.3232 C   0  0  0  0  0  0  0  0  0  0  0  0
    6.5538  -14.8627   24.5053 C   0  0  0  0  0  0  0  0  0  0  0  0
    5.9963  -15.3803   25.6612 C   0  0  0  0  0  0  0  0  0  0  0  0
    5.7635  -14.3699   26.5050 N   0  0  0  0  0  0  0  0  0  0  0  0
    6.1431  -13.2076   25.9563 C   0  0  0  0  0  0  0  0  0  0  0  0
    6.1321  -11.8818   26.3725 C   0  0  0  0  0  0  0  0  0  0  0  0
    6.6026  -10.8761   25.5646 C   0  0  0  0  0  0  0  0  0  0  0  0
    7.1001  -11.1786   24.3079 C   0  0  0  0  0  0  0  0  0  0  0  0
    7.1238  -12.4880   23.8671 C   0  0  0  0  0  0  0  0  0  0  0  0
    6.6425  -13.5001   24.6986 C   0  0  0  0  0  0  0  0  0  0  0  0
    8.7712  -17.1080   24.0583 C   0  0  0  0  0  0  0  0  0  0  0  0
    9.1045  -17.6593   25.1383 O   0  0  0  0  0  0  0  0  0  0  0  0
    9.8419  -16.5486   23.2700 N   0  0  0  0  0  0  0  0  0  0  0  0
    9.6073  -15.9193   22.0086 C   0  0  0  0  0  0  0  0  0  0  0  0
   10.9439  -15.6456   21.3959 C   0  0  0  0  0  0  0  0  0  0  0  0
   11.8421  -15.5722   22.5951 C   0  0  0  0  0  0  0  0  0  0  0  0
   11.2303  -16.5318   23.5870 C   0  0  1  0  0  0  0  0  0  0  0  0
   11.5607  -16.0373   24.9318 C   0  0  0  0  0  0  0  0  0  0  0  0
   12.0934  -14.9365   25.0987 O   0  0  0  0  0  0  0  0  0  0  0  0
   10.2502  -15.0637   29.1744 C   0  0  0  0  0  0  0  0  0  0  0  0
   10.2069  -15.4232   27.7173 C   0  0  1  0  0  0  0  0  0  0  0  0
   10.3541  -14.1550   26.9127 C   0  0  0  0  0  0  0  0  0  0  0  0
   11.3097  -16.4152   27.4092 C   0  0  2  0  0  0  0  0  0  0  0  0
   11.2435  -16.8748   26.0366 N   0  0  0  0  0  0  0  0  0  0  0  0
   11.3293  -17.5336   28.3726 C   0  0  0  0  0  0  0  0  0  0  0  0
   10.7581  -18.6187   28.1414 O   0  0  0  0  0  0  0  0  0  0  0  0
   12.0005  -17.3736   29.5665 O   0  0  0  0  0  0  0  0  0  0  0  0
  2  1  1  1
  3  2  1  0
  4  3  1  0
  4 12  1  0
  5  6  1  0
  5  4  2  0
  6  7  1  0
  7  8  2  0
  7 12  1  0
  8  9  1  0
  9 10  2  0
 11 10  1  0
 12 11  2  0
 13  2  1  0
 13 15  1  0
 14 13  2  0
 15 19  1  0
 16 15  1  0
 16 17  1  0
 17 18  1  0
 19 18  1  0
 19 20  1  1
 20 21  2  0
 23 22  1  1
 23 25  1  0
 24 23  1  0
 25 26  1  6
 26 20  1  0
 27 25  1  0
 28 27  2  0
 29 27  1  0
M  END
$$$$
