WPV.pdb
     RDKit          3D

 29 31  0  0  1  0  0  0  0  0999 V2000
    6.1620  -17.3005   24.0721 N   0  0  0  0  0  0  0  0  0  0  0  0
    6.9113  -16.1997   23.5679 C   0  0  1  0  0  0  0  0  0  0  0  0
    7.7427  -15.5986   24.6847 C   0  0  0  0  0  0  0  0  0  0  0  0
    6.9699  -14.7118   25.5609 C   0  0  0  0  0  0  0  0  0  0  0  0
    5.7618  -15.0122   26.1652 C   0  0  0  0  0  0  0  0  0  0  0  0
    5.3753  -13.9526   26.8827 N   0  0  0  0  0  0  0  0  0  0  0  0
    6.2758  -12.9655   26.7784 C   0  0  0  0  0  0  0  0  0  0  0  0
    6.3805  -11.6806   27.2970 C   0  0  0  0  0  0  0  0  0  0  0  0
    7.4546  -10.8773   27.0029 C   0  0  0  0  0  0  0  0  0  0  0  0
    8.4592  -11.3478   26.1737 C   0  0  0  0  0  0  0  0  0  0  0  0
    8.3823  -12.6214   25.6432 C   0  0  0  0  0  0  0  0  0  0  0  0
    7.2850  -13.4269   25.9505 C   0  0  0  0  0  0  0  0  0  0  0  0
    7.7340  -16.4543   22.3890 C   0  0  0  0  0  0  0  0  0  0  0  0
    8.2367  -17.5897   22.1907 O   0  0  0  0  0  0  0  0  0  0  0  0
    8.0201  -15.4471   21.3967 N   0  0  0  0  0  0  0  0  0  0  0  0
    7.3751  -14.1719   21.4012 C   0  0  0  0  0  0  0  0  0  0  0  0
    7.7600  -13.4774   20.1338 C   0  0  0  0  0  0  0  0  0  0  0  0
    9.0652  -14.1313   19.7886 C   0  0  0  0  0  0  0  0  0  0  0  0
    8.9313  -15.5430   20.3062 C   0  0  1  0  0  0  0  0  0  0  0  0
   10.2815  -16.0084   20.6563 C   0  0  0  0  0  0  0  0  0  0  0  0
   10.8840  -15.5553   21.6337 O   0  0  0  0  0  0  0  0  0  0  0  0
   10.9369  -19.5933   21.2280 C   0  0  0  0  0  0  0  0  0  0  0  0
   11.9153  -19.1934   20.1617 C   0  0  1  0  0  0  0  0  0  0  0  0
   11.3900  -19.6773   18.8324 C   0  0  0  0  0  0  0  0  0  0  0  0
   12.0957  -17.6893   20.1807 C   0  0  2  0  0  0  0  0  0  0  0  0
   10.8701  -17.0021   19.8266 N   0  0  0  0  0  0  0  0  0  0  0  0
   13.2371  -17.2612   19.3481 C   0  0  0  0  0  0  0  0  0  0  0  0
   13.0824  -16.7778   18.2081 O   0  0  0  0  0  0  0  0  0  0  0  0
   14.5152  -17.4000   19.8464 O   0  0  0  0  0  0  0  0  0  0  0  0
  2  1  1  1
  3  2  1  0
  4  3  1  0
  4 12  1  0
  5  6  1  0
  5  4  2  0
  6  7  1  0
  7  8  2  0
  7 12  1  0
  8  9  1  0
  9 10  2  0
 11 10  1  0
 12 11  2  0
 13  2  1  0
 13 15  1  0
 14 13  2  0
 15 19  1  0
 16 15  1  0
 16 17  1  0
 17 18  1  0
 19 18  1  0
 19 20  1  1
 20 21  2  0
 23 22  1  1
 23 25  1  0
 24 23  1  0
 25 26  1  6
 26 20  1  0
 27 25  1  0
 28 27  2  0
 29 27  1  0
M  END
$$$$
