WPV.pdb
     RDKit          3D

 29 31  0  0  1  0  0  0  0  0999 V2000
    6.2317  -18.4405   24.7692 N   0  0  0  0  0  0  0  0  0  0  0  0
    6.8276  -17.1987   24.4083 C   0  0  1  0  0  0  0  0  0  0  0  0
    7.5416  -16.6109   25.6102 C   0  0  0  0  0  0  0  0  0  0  0  0
    6.8458  -15.4521   26.1798 C   0  0  0  0  0  0  0  0  0  0  0  0
    5.5772  -15.4528   26.7328 C   0  0  0  0  0  0  0  0  0  0  0  0
    5.2953  -14.2114   27.1406 N   0  0  0  0  0  0  0  0  0  0  0  0
    6.3227  -13.3908   26.8808 C   0  0  0  0  0  0  0  0  0  0  0  0
    6.5675  -12.0383   27.0844 C   0  0  0  0  0  0  0  0  0  0  0  0
    7.7527  -11.4615   26.6998 C   0  0  0  0  0  0  0  0  0  0  0  0
    8.7303  -12.2347   26.0960 C   0  0  0  0  0  0  0  0  0  0  0  0
    8.5152  -13.5826   25.8806 C   0  0  0  0  0  0  0  0  0  0  0  0
    7.3059  -14.1556   26.2766 C   0  0  0  0  0  0  0  0  0  0  0  0
    7.7030  -17.2090   23.2399 C   0  0  0  0  0  0  0  0  0  0  0  0
    8.5060  -18.1575   23.0484 O   0  0  0  0  0  0  0  0  0  0  0  0
    7.7074  -16.1591   22.2507 N   0  0  0  0  0  0  0  0  0  0  0  0
    6.7575  -15.0917   22.2722 C   0  0  0  0  0  0  0  0  0  0  0  0
    6.9336  -14.3178   21.0045 C   0  0  0  0  0  0  0  0  0  0  0  0
    8.3576  -14.6143   20.6381 C   0  0  0  0  0  0  0  0  0  0  0  0
    8.5971  -16.0149   21.1479 C   0  0  1  0  0  0  0  0  0  0  0  0
   10.0264  -16.1199   21.4773 C   0  0  0  0  0  0  0  0  0  0  0  0
   10.8932  -15.6522   20.7334 O   0  0  0  0  0  0  0  0  0  0  0  0
   10.9720  -15.7332   25.3092 C   0  0  0  0  0  0  0  0  0  0  0  0
   11.9505  -15.6354   24.1746 C   0  0  1  0  0  0  0  0  0  0  0  0
   13.3453  -15.6521   24.7502 C   0  0  0  0  0  0  0  0  0  0  0  0
   11.7254  -16.7847   23.2135 C   0  0  2  0  0  0  0  0  0  0  0  0
   10.3754  -16.7811   22.6870 N   0  0  0  0  0  0  0  0  0  0  0  0
   12.0875  -18.0836   23.8142 C   0  0  0  0  0  0  0  0  0  0  0  0
   11.2442  -18.9824   24.0100 O   0  0  0  0  0  0  0  0  0  0  0  0
   13.4001  -18.3109   24.1704 O   0  0  0  0  0  0  0  0  0  0  0  0
  2  1  1  1
  3  2  1  0
  4  3  1  0
  4 12  1  0
  5  6  1  0
  5  4  2  0
  6  7  1  0
  7  8  2  0
  7 12  1  0
  8  9  1  0
  9 10  2  0
 11 10  1  0
 12 11  2  0
 13  2  1  0
 13 15  1  0
 14 13  2  0
 15 19  1  0
 16 15  1  0
 16 17  1  0
 17 18  1  0
 19 18  1  0
 19 20  1  1
 20 21  2  0
 23 22  1  1
 23 25  1  0
 24 23  1  0
 25 26  1  1
 26 20  1  0
 27 25  1  0
 28 27  2  0
 29 27  1  0
M  END
$$$$
