ADC.pdb
     RDKit          3D

 20 19  0  0  1  0  0  0  0  0999 V2000
   18.1867  -11.6745  -17.1313 C   0  0  0  0  0  0  0  0  0  0  0  0
   18.7276  -11.1219  -15.8287 C   0  0  2  0  0  0  0  0  0  0  0  0
   17.8555  -11.5991  -14.7769 N   0  0  0  0  0  0  0  0  0  0  0  0
   18.6106   -9.6525  -15.8995 C   0  0  0  0  0  0  0  0  0  0  0  0
   19.3155   -9.0247  -16.7199 O   0  0  0  0  0  0  0  0  0  0  0  0
   17.7100   -8.9527  -15.0487 N   0  0  0  0  0  0  0  0  0  0  0  0
   17.6144   -7.5040  -15.0450 C   0  0  1  0  0  0  0  0  0  0  0  0
   16.2422   -7.0536  -14.6684 C   0  0  0  0  0  0  0  0  0  0  0  0
   15.2057   -7.3258  -15.6674 C   0  0  0  0  0  0  0  0  0  0  0  0
   15.3991   -6.8608  -16.8298 O   0  0  0  0  0  0  0  0  0  0  0  0
   18.6653   -6.9102  -14.1542 C   0  0  0  0  0  0  0  0  0  0  0  0
   18.7323   -7.2093  -12.9370 O   0  0  0  0  0  0  0  0  0  0  0  0
   14.0543   -8.0324  -15.4609 O   0  0  0  0  0  0  0  0  0  0  0  0
   19.5866   -6.0031  -14.7046 N   0  0  0  0  0  0  0  0  0  0  0  0
   20.6310   -5.3487  -13.9460 C   0  0  1  0  0  0  0  0  0  0  0  0
   22.0138   -5.8462  -14.3619 C   0  0  0  0  0  0  0  0  0  0  0  0
   23.2676   -4.9333  -13.4611 S   0  0  0  0  0  0  0  0  0  0  0  0
   20.6219   -3.8873  -14.1976 C   0  0  0  0  0  0  0  0  0  0  0  0
   21.0084   -3.1205  -13.2838 O   0  0  0  0  0  0  0  0  0  0  0  0
   20.2062   -3.3479  -15.3923 O   0  0  0  0  0  0  0  0  0  0  0  0
  2  1  1  6
  2  4  1  0
  2  3  1  0
  4  5  2  0
  6  4  1  0
  6  7  1  0
  8  9  1  0
  7  8  1  1
  9 10  2  0
 11  7  1  0
 11 12  2  0
 13  9  1  0
 14 11  1  0
 15 14  1  0
 15 18  1  0
 15 16  1  6
 17 16  1  0
 18 19  2  0
 18 20  1  0
M  END
$$$$
