ADC.pdb
     RDKit          3D

 20 19  0  0  1  0  0  0  0  0999 V2000
   18.0610  -13.1189  -15.3867 C   0  0  0  0  0  0  0  0  0  0  0  0
   16.8521  -12.3548  -14.8876 C   0  0  2  0  0  0  0  0  0  0  0  0
   16.1448  -11.8791  -16.0572 N   0  0  0  0  0  0  0  0  0  0  0  0
   17.3560  -11.1858  -14.1410 C   0  0  0  0  0  0  0  0  0  0  0  0
   18.0218  -11.3703  -13.0985 O   0  0  0  0  0  0  0  0  0  0  0  0
   17.0919   -9.8634  -14.5953 N   0  0  0  0  0  0  0  0  0  0  0  0
   17.5553   -8.6900  -13.8770 C   0  0  1  0  0  0  0  0  0  0  0  0
   17.8982   -7.5817  -14.8161 C   0  0  0  0  0  0  0  0  0  0  0  0
   18.3434   -6.3423  -14.1741 C   0  0  0  0  0  0  0  0  0  0  0  0
   19.3239   -6.4342  -13.3772 O   0  0  0  0  0  0  0  0  0  0  0  0
   16.5435   -8.2667  -12.8534 C   0  0  0  0  0  0  0  0  0  0  0  0
   15.3125   -8.3296  -13.0897 O   0  0  0  0  0  0  0  0  0  0  0  0
   17.8000   -5.1015  -14.3555 O   0  0  0  0  0  0  0  0  0  0  0  0
   16.9951   -7.7926  -11.6101 N   0  0  0  0  0  0  0  0  0  0  0  0
   16.1271   -7.2550  -10.5843 C   0  0  1  0  0  0  0  0  0  0  0  0
   16.5243   -7.7620   -9.1996 C   0  0  0  0  0  0  0  0  0  0  0  0
   15.3722   -7.1241   -7.9820 S   0  0  0  0  0  0  0  0  0  0  0  0
   16.2334   -5.7768  -10.5321 C   0  0  0  0  0  0  0  0  0  0  0  0
   17.3276   -5.2445  -10.8350 O   0  0  0  0  0  0  0  0  0  0  0  0
   15.1783   -4.9748  -10.1649 O   0  0  0  0  0  0  0  0  0  0  0  0
  2  1  1  6
  2  4  1  0
  2  3  1  0
  4  5  2  0
  6  4  1  0
  6  7  1  0
  8  9  1  0
  7  8  1  6
  9 10  2  0
 11  7  1  0
 11 12  2  0
 13  9  1  0
 14 11  1  0
 15 14  1  0
 15 18  1  0
 15 16  1  1
 17 16  1  0
 18 19  2  0
 18 20  1  0
M  END
$$$$
