ADC.pdb
     RDKit          3D

 20 19  0  0  1  0  0  0  0  0999 V2000
   12.7455  -11.9444  -11.1780 C   0  0  0  0  0  0  0  0  0  0  0  0
   13.7509  -12.3737  -12.2266 C   0  0  2  0  0  0  0  0  0  0  0  0
   14.1078  -13.7443  -11.9286 N   0  0  0  0  0  0  0  0  0  0  0  0
   14.9495  -11.5314  -12.0483 C   0  0  0  0  0  0  0  0  0  0  0  0
   15.8330  -11.8933  -11.2406 O   0  0  0  0  0  0  0  0  0  0  0  0
   15.1046  -10.3222  -12.7822 N   0  0  0  0  0  0  0  0  0  0  0  0
   16.2963   -9.4995  -12.6778 C   0  0  1  0  0  0  0  0  0  0  0  0
   16.9980   -9.3951  -13.9910 C   0  0  0  0  0  0  0  0  0  0  0  0
   18.2232   -8.5921  -13.9757 C   0  0  0  0  0  0  0  0  0  0  0  0
   18.3864   -7.7838  -14.9374 O   0  0  0  0  0  0  0  0  0  0  0  0
   15.9567   -8.1518  -12.1132 C   0  0  0  0  0  0  0  0  0  0  0  0
   15.0630   -7.4364  -12.6278 O   0  0  0  0  0  0  0  0  0  0  0  0
   19.2021   -8.6351  -13.0230 O   0  0  0  0  0  0  0  0  0  0  0  0
   16.6595   -7.6926  -10.9864 N   0  0  0  0  0  0  0  0  0  0  0  0
   16.4073   -6.4248  -10.3355 C   0  0  1  0  0  0  0  0  0  0  0  0
   16.9181   -6.4285   -8.8963 C   0  0  0  0  0  0  0  0  0  0  0  0
   15.9729   -7.6114   -7.9350 S   0  0  0  0  0  0  0  0  0  0  0  0
   17.1268   -5.3292  -11.0292 C   0  0  0  0  0  0  0  0  0  0  0  0
   17.8901   -5.6226  -11.9798 O   0  0  0  0  0  0  0  0  0  0  0  0
   16.9858   -4.0100  -10.6672 O   0  0  0  0  0  0  0  0  0  0  0  0
  2  1  1  1
  2  4  1  0
  2  3  1  0
  4  5  2  0
  6  4  1  0
  6  7  1  0
  8  9  1  0
  7  8  1  6
  9 10  2  0
 11  7  1  0
 11 12  2  0
 13  9  1  0
 14 11  1  0
 15 14  1  0
 15 18  1  0
 15 16  1  1
 17 16  1  0
 18 19  2  0
 18 20  1  0
M  END
$$$$
