ADC.pdb
     RDKit          3D

 20 19  0  0  1  0  0  0  0  0999 V2000
   19.9182  -11.6781  -15.5418 C   0  0  0  0  0  0  0  0  0  0  0  0
   18.5995  -11.1023  -16.0153 C   0  0  2  0  0  0  0  0  0  0  0  0
   18.3815  -11.6017  -17.3560 N   0  0  0  0  0  0  0  0  0  0  0  0
   18.7663   -9.6377  -16.0855 C   0  0  0  0  0  0  0  0  0  0  0  0
   19.7513   -9.1659  -16.6948 O   0  0  0  0  0  0  0  0  0  0  0  0
   17.8230   -8.7677  -15.4706 N   0  0  0  0  0  0  0  0  0  0  0  0
   17.8936   -7.3244  -15.6104 C   0  0  1  0  0  0  0  0  0  0  0  0
   16.5407   -6.7037  -15.5011 C   0  0  0  0  0  0  0  0  0  0  0  0
   15.5723   -7.1497  -16.5059 C   0  0  0  0  0  0  0  0  0  0  0  0
   15.9162   -7.0324  -17.7196 O   0  0  0  0  0  0  0  0  0  0  0  0
   18.8590   -6.7469  -14.6179 C   0  0  0  0  0  0  0  0  0  0  0  0
   18.7755   -7.0171  -13.3951 O   0  0  0  0  0  0  0  0  0  0  0  0
   14.3373   -7.6782  -16.2549 O   0  0  0  0  0  0  0  0  0  0  0  0
   19.8717   -5.8883  -15.0783 N   0  0  0  0  0  0  0  0  0  0  0  0
   20.8304   -5.2310  -14.2161 C   0  0  1  0  0  0  0  0  0  0  0  0
   22.2309   -5.8119  -14.3991 C   0  0  0  0  0  0  0  0  0  0  0  0
   23.3797   -4.9346  -13.3373 S   0  0  0  0  0  0  0  0  0  0  0  0
   20.9312   -3.7897  -14.5501 C   0  0  0  0  0  0  0  0  0  0  0  0
   20.7854   -3.4411  -15.7458 O   0  0  0  0  0  0  0  0  0  0  0  0
   21.1778   -2.8283  -13.5983 O   0  0  0  0  0  0  0  0  0  0  0  0
  2  1  1  6
  2  4  1  0
  2  3  1  0
  4  5  2  0
  6  4  1  0
  6  7  1  0
  8  9  1  0
  7  8  1  1
  9 10  2  0
 11  7  1  0
 11 12  2  0
 13  9  1  0
 14 11  1  0
 15 14  1  0
 15 18  1  0
 15 16  1  6
 17 16  1  0
 18 19  2  0
 18 20  1  0
M  END
$$$$
