ADC.pdb
     RDKit          3D

 20 19  0  0  1  0  0  0  0  0999 V2000
   20.4569  -11.4479  -16.1406 C   0  0  0  0  0  0  0  0  0  0  0  0
   19.4281  -10.3364  -16.1102 C   0  0  2  0  0  0  0  0  0  0  0  0
   19.5423   -9.6254  -17.3656 N   0  0  0  0  0  0  0  0  0  0  0  0
   19.8124   -9.4197  -15.0195 C   0  0  0  0  0  0  0  0  0  0  0  0
   19.8089   -9.8400  -13.8416 O   0  0  0  0  0  0  0  0  0  0  0  0
   20.1831   -8.0742  -15.2967 N   0  0  0  0  0  0  0  0  0  0  0  0
   20.5568   -7.1415  -14.2488 C   0  0  1  0  0  0  0  0  0  0  0  0
   21.3986   -6.0325  -14.7869 C   0  0  0  0  0  0  0  0  0  0  0  0
   21.8292   -5.0450  -13.7941 C   0  0  0  0  0  0  0  0  0  0  0  0
   21.7520   -3.8266  -14.1323 O   0  0  0  0  0  0  0  0  0  0  0  0
   19.3369   -6.6291  -13.5417 C   0  0  0  0  0  0  0  0  0  0  0  0
   18.3425   -6.2075  -14.1810 O   0  0  0  0  0  0  0  0  0  0  0  0
   22.3047   -5.3168  -12.5420 O   0  0  0  0  0  0  0  0  0  0  0  0
   19.3193   -6.6261  -12.1367 N   0  0  0  0  0  0  0  0  0  0  0  0
   18.1848   -6.2074  -11.3416 C   0  0  1  0  0  0  0  0  0  0  0  0
   18.3375   -6.6408   -9.8852 C   0  0  0  0  0  0  0  0  0  0  0  0
   16.9239   -6.0641   -8.9440 S   0  0  0  0  0  0  0  0  0  0  0  0
   18.0751   -4.7286  -11.3261 C   0  0  0  0  0  0  0  0  0  0  0  0
   17.0453   -4.2102  -10.8330 O   0  0  0  0  0  0  0  0  0  0  0  0
   19.0591   -3.9115  -11.8314 O   0  0  0  0  0  0  0  0  0  0  0  0
  2  1  1  6
  2  4  1  0
  2  3  1  0
  4  5  2  0
  6  4  1  0
  6  7  1  0
  8  9  1  0
  7  8  1  6
  9 10  2  0
 11  7  1  0
 11 12  2  0
 13  9  1  0
 14 11  1  0
 15 14  1  0
 15 18  1  0
 15 16  1  1
 17 16  1  0
 18 19  2  0
 18 20  1  0
M  END
$$$$
