ADC.pdb
     RDKit          3D

 20 19  0  0  1  0  0  0  0  0999 V2000
   17.8036  -10.1138  -17.2524 C   0  0  0  0  0  0  0  0  0  0  0  0
   19.2366  -10.2170  -17.7323 C   0  0  2  0  0  0  0  0  0  0  0  0
   19.7001  -11.5436  -17.3860 N   0  0  0  0  0  0  0  0  0  0  0  0
   20.0233   -9.2336  -16.9629 C   0  0  0  0  0  0  0  0  0  0  0  0
   19.8209   -9.1199  -15.7341 O   0  0  0  0  0  0  0  0  0  0  0  0
   21.0007   -8.4222  -17.6040 N   0  0  0  0  0  0  0  0  0  0  0  0
   21.8150   -7.4671  -16.8743 C   0  0  1  0  0  0  0  0  0  0  0  0
   23.2265   -7.4781  -17.3593 C   0  0  0  0  0  0  0  0  0  0  0  0
   24.1285   -6.5603  -16.6590 C   0  0  0  0  0  0  0  0  0  0  0  0
   23.6553   -5.9547  -15.6520 O   0  0  0  0  0  0  0  0  0  0  0  0
   21.2074   -6.0972  -16.9435 C   0  0  0  0  0  0  0  0  0  0  0  0
   21.0620   -5.5039  -18.0399 O   0  0  0  0  0  0  0  0  0  0  0  0
   25.4281   -6.2988  -16.9914 O   0  0  0  0  0  0  0  0  0  0  0  0
   20.7971   -5.4770  -15.7512 N   0  0  0  0  0  0  0  0  0  0  0  0
   20.2211   -4.1510  -15.6845 C   0  0  1  0  0  0  0  0  0  0  0  0
   18.8679   -4.1687  -14.9766 C   0  0  0  0  0  0  0  0  0  0  0  0
   17.6831   -5.0607  -15.9852 S   0  0  0  0  0  0  0  0  0  0  0  0
   21.0901   -3.2429  -14.8975 C   0  0  0  0  0  0  0  0  0  0  0  0
   22.1346   -3.7101  -14.3845 O   0  0  0  0  0  0  0  0  0  0  0  0
   20.7908   -1.9135  -14.7126 O   0  0  0  0  0  0  0  0  0  0  0  0
  2  1  1  1
  2  4  1  0
  2  3  1  0
  4  5  2  0
  6  4  1  0
  6  7  1  0
  8  9  1  0
  7  8  1  6
  9 10  2  0
 11  7  1  0
 11 12  2  0
 13  9  1  0
 14 11  1  0
 15 14  1  0
 15 18  1  0
 15 16  1  1
 17 16  1  0
 18 19  2  0
 18 20  1  0
M  END
$$$$
