ADC.pdb
     RDKit          3D

 20 19  0  0  1  0  0  0  0  0999 V2000
   14.6983   -9.3564  -15.4282 C   0  0  0  0  0  0  0  0  0  0  0  0
   16.0896   -9.6960  -14.9348 C   0  0  2  0  0  0  0  0  0  0  0  0
   15.9360  -10.7080  -13.9117 N   0  0  0  0  0  0  0  0  0  0  0  0
   16.6359   -8.4777  -14.3061 C   0  0  0  0  0  0  0  0  0  0  0  0
   16.8350   -7.4652  -15.0126 O   0  0  0  0  0  0  0  0  0  0  0  0
   16.9345   -8.4483  -12.9151 N   0  0  0  0  0  0  0  0  0  0  0  0
   17.4799   -7.2708  -12.2642 C   0  0  1  0  0  0  0  0  0  0  0  0
   17.0477   -7.1925  -10.8377 C   0  0  0  0  0  0  0  0  0  0  0  0
   17.5633   -6.0382  -10.0974 C   0  0  0  0  0  0  0  0  0  0  0  0
   18.0406   -5.0875  -10.7854 O   0  0  0  0  0  0  0  0  0  0  0  0
   18.9734   -7.2385  -12.4017 C   0  0  0  0  0  0  0  0  0  0  0  0
   19.6736   -8.2463  -12.1382 O   0  0  0  0  0  0  0  0  0  0  0  0
   17.5765   -5.8938   -8.7385 O   0  0  0  0  0  0  0  0  0  0  0  0
   19.5885   -6.0516  -12.8345 N   0  0  0  0  0  0  0  0  0  0  0  0
   20.9719   -5.9609  -13.2499 C   0  0  1  0  0  0  0  0  0  0  0  0
   21.2528   -6.8680  -14.4460 C   0  0  0  0  0  0  0  0  0  0  0  0
   22.9651   -6.6779  -14.9447 S   0  0  0  0  0  0  0  0  0  0  0  0
   21.2964   -4.5820  -13.6885 C   0  0  0  0  0  0  0  0  0  0  0  0
   20.4612   -3.9660  -14.3923 O   0  0  0  0  0  0  0  0  0  0  0  0
   22.4755   -3.9598  -13.3512 O   0  0  0  0  0  0  0  0  0  0  0  0
  2  1  1  1
  2  4  1  0
  2  3  1  0
  4  5  2  0
  6  4  1  0
  6  7  1  0
  8  9  1  0
  7  8  1  1
  9 10  2  0
 11  7  1  0
 11 12  2  0
 13  9  1  0
 14 11  1  0
 15 14  1  0
 15 18  1  0
 15 16  1  6
 17 16  1  0
 18 19  2  0
 18 20  1  0
M  END
$$$$
