ADC.pdb
     RDKit          3D

 20 19  0  0  1  0  0  0  0  0999 V2000
   20.3281  -12.1070  -16.0273 C   0  0  0  0  0  0  0  0  0  0  0  0
   19.0414  -11.4929  -16.5390 C   0  0  2  0  0  0  0  0  0  0  0  0
   18.8927  -11.9170  -17.9147 N   0  0  0  0  0  0  0  0  0  0  0  0
   19.2227  -10.0284  -16.5205 C   0  0  0  0  0  0  0  0  0  0  0  0
   20.0135   -9.5027  -17.3343 O   0  0  0  0  0  0  0  0  0  0  0  0
   18.5105   -9.2189  -15.5919 N   0  0  0  0  0  0  0  0  0  0  0  0
   18.5555   -7.7684  -15.6340 C   0  0  1  0  0  0  0  0  0  0  0  0
   17.2472   -7.1749  -15.2293 C   0  0  0  0  0  0  0  0  0  0  0  0
   16.1259   -7.4830  -16.1204 C   0  0  0  0  0  0  0  0  0  0  0  0
   16.3163   -7.2998  -17.3594 O   0  0  0  0  0  0  0  0  0  0  0  0
   19.6894   -7.2533  -14.7975 C   0  0  0  0  0  0  0  0  0  0  0  0
   20.1804   -7.9425  -13.8706 O   0  0  0  0  0  0  0  0  0  0  0  0
   14.8987   -7.9479  -15.7390 O   0  0  0  0  0  0  0  0  0  0  0  0
   20.2028   -5.9733  -15.0666 N   0  0  0  0  0  0  0  0  0  0  0  0
   21.3280   -5.3887  -14.3690 C   0  0  1  0  0  0  0  0  0  0  0  0
   22.6498   -5.7616  -15.0371 C   0  0  0  0  0  0  0  0  0  0  0  0
   23.9950   -4.9224  -14.1987 S   0  0  0  0  0  0  0  0  0  0  0  0
   21.2498   -3.9081  -14.3997 C   0  0  0  0  0  0  0  0  0  0  0  0
   20.7776   -3.3551  -15.4212 O   0  0  0  0  0  0  0  0  0  0  0  0
   21.6751   -3.1259  -13.3516 O   0  0  0  0  0  0  0  0  0  0  0  0
  2  1  1  6
  2  4  1  0
  2  3  1  0
  4  5  2  0
  6  4  1  0
  6  7  1  0
  8  9  1  0
  7  8  1  1
  9 10  2  0
 11  7  1  0
 11 12  2  0
 13  9  1  0
 14 11  1  0
 15 14  1  0
 15 18  1  0
 15 16  1  6
 17 16  1  0
 18 19  2  0
 18 20  1  0
M  END
$$$$
