ADC.pdb
     RDKit          3D

 20 19  0  0  1  0  0  0  0  0999 V2000
   16.7869  -11.1740  -17.0815 C   0  0  0  0  0  0  0  0  0  0  0  0
   18.0039  -11.4170  -17.9503 C   0  0  2  0  0  0  0  0  0  0  0  0
   18.3959  -12.7952  -17.7463 N   0  0  0  0  0  0  0  0  0  0  0  0
   19.0810  -10.5465  -17.4407 C   0  0  0  0  0  0  0  0  0  0  0  0
   19.7755  -10.9381  -16.4771 O   0  0  0  0  0  0  0  0  0  0  0  0
   19.3319   -9.2771  -18.0327 N   0  0  0  0  0  0  0  0  0  0  0  0
   20.4148   -8.4165  -17.5919 C   0  0  1  0  0  0  0  0  0  0  0  0
   20.8135   -7.4571  -18.6634 C   0  0  0  0  0  0  0  0  0  0  0  0
   22.0552   -6.7233  -18.4063 C   0  0  0  0  0  0  0  0  0  0  0  0
   22.5544   -6.0891  -19.3827 O   0  0  0  0  0  0  0  0  0  0  0  0
   20.0438   -7.7151  -16.3188 C   0  0  0  0  0  0  0  0  0  0  0  0
   18.9057   -7.2097  -16.1615 O   0  0  0  0  0  0  0  0  0  0  0  0
   22.7214   -6.6609  -17.2147 O   0  0  0  0  0  0  0  0  0  0  0  0
   20.9971   -7.6287  -15.2901 N   0  0  0  0  0  0  0  0  0  0  0  0
   20.7465   -7.0171  -14.0026 C   0  0  1  0  0  0  0  0  0  0  0  0
   20.9183   -8.0238  -12.8671 C   0  0  0  0  0  0  0  0  0  0  0  0
   20.6688   -7.1940  -11.2967 S   0  0  0  0  0  0  0  0  0  0  0  0
   21.7190   -5.9279  -13.7434 C   0  0  0  0  0  0  0  0  0  0  0  0
   22.7617   -5.8791  -14.4382 O   0  0  0  0  0  0  0  0  0  0  0  0
   21.5168   -4.9753  -12.7724 O   0  0  0  0  0  0  0  0  0  0  0  0
  2  1  1  1
  2  4  1  0
  2  3  1  0
  4  5  2  0
  6  4  1  0
  6  7  1  0
  8  9  1  0
  7  8  1  6
  9 10  2  0
 11  7  1  0
 11 12  2  0
 13  9  1  0
 14 11  1  0
 15 14  1  0
 15 18  1  0
 15 16  1  1
 17 16  1  0
 18 19  2  0
 18 20  1  0
M  END
$$$$
