ADC.pdb
     RDKit          3D

 20 19  0  0  1  0  0  0  0  0999 V2000
   14.0593  -11.2175  -16.9617 C   0  0  0  0  0  0  0  0  0  0  0  0
   15.5735  -11.1739  -16.9670 C   0  0  2  0  0  0  0  0  0  0  0  0
   16.0292  -12.3565  -16.2680 N   0  0  0  0  0  0  0  0  0  0  0  0
   15.9757   -9.9879  -16.1862 C   0  0  0  0  0  0  0  0  0  0  0  0
   15.5919   -9.8808  -15.0008 O   0  0  0  0  0  0  0  0  0  0  0  0
   16.7892   -8.9757  -16.7679 N   0  0  0  0  0  0  0  0  0  0  0  0
   17.2981   -7.8536  -15.9999 C   0  0  1  0  0  0  0  0  0  0  0  0
   18.7667   -7.6812  -16.2028 C   0  0  0  0  0  0  0  0  0  0  0  0
   19.3699   -6.5781  -15.4506 C   0  0  0  0  0  0  0  0  0  0  0  0
   20.1968   -5.8487  -16.0744 O   0  0  0  0  0  0  0  0  0  0  0  0
   16.5349   -6.6040  -16.3265 C   0  0  0  0  0  0  0  0  0  0  0  0
   16.2640   -6.2977  -17.5131 O   0  0  0  0  0  0  0  0  0  0  0  0
   19.1233   -6.2655  -14.1433 O   0  0  0  0  0  0  0  0  0  0  0  0
   16.1210   -5.7686  -15.2751 N   0  0  0  0  0  0  0  0  0  0  0  0
   15.3611   -4.5508  -15.4592 C   0  0  1  0  0  0  0  0  0  0  0  0
   14.0617   -4.5808  -14.6573 C   0  0  0  0  0  0  0  0  0  0  0  0
   13.2038   -3.0190  -14.8604 S   0  0  0  0  0  0  0  0  0  0  0  0
   16.1256   -3.3787  -14.9684 C   0  0  0  0  0  0  0  0  0  0  0  0
   16.7717   -3.4908  -13.8996 O   0  0  0  0  0  0  0  0  0  0  0  0
   16.1496   -2.1801  -15.6421 O   0  0  0  0  0  0  0  0  0  0  0  0
  2  1  1  1
  2  4  1  0
  2  3  1  0
  4  5  2  0
  6  4  1  0
  6  7  1  0
  8  9  1  0
  7  8  1  6
  9 10  2  0
 11  7  1  0
 11 12  2  0
 13  9  1  0
 14 11  1  0
 15 14  1  0
 15 18  1  0
 15 16  1  1
 17 16  1  0
 18 19  2  0
 18 20  1  0
M  END
$$$$
