ADC.pdb
     RDKit          3D

 20 19  0  0  1  0  0  0  0  0999 V2000
   12.1370  -11.3021  -10.9674 C   0  0  0  0  0  0  0  0  0  0  0  0
   13.4086  -11.8284  -11.6004 C   0  0  2  0  0  0  0  0  0  0  0  0
   13.6491  -13.1374  -11.0317 N   0  0  0  0  0  0  0  0  0  0  0  0
   14.5038  -10.9314  -11.1834 C   0  0  0  0  0  0  0  0  0  0  0  0
   14.9272  -10.9935  -10.0083 O   0  0  0  0  0  0  0  0  0  0  0  0
   15.0752  -10.0057  -12.1006 N   0  0  0  0  0  0  0  0  0  0  0  0
   16.1588   -9.1141  -11.7284 C   0  0  1  0  0  0  0  0  0  0  0  0
   17.1161   -8.9255  -12.8578 C   0  0  0  0  0  0  0  0  0  0  0  0
   18.2402   -8.0301  -12.5732 C   0  0  0  0  0  0  0  0  0  0  0  0
   18.5818   -7.2336  -13.4972 O   0  0  0  0  0  0  0  0  0  0  0  0
   15.6163   -7.8083  -11.2272 C   0  0  0  0  0  0  0  0  0  0  0  0
   14.7813   -7.1507  -11.8948 O   0  0  0  0  0  0  0  0  0  0  0  0
   18.9509   -7.9758  -11.4072 O   0  0  0  0  0  0  0  0  0  0  0  0
   16.0592   -7.3226   -9.9852 N   0  0  0  0  0  0  0  0  0  0  0  0
   15.6018   -6.0855   -9.3894 C   0  0  1  0  0  0  0  0  0  0  0  0
   15.7976   -6.0933   -7.8748 C   0  0  0  0  0  0  0  0  0  0  0  0
   14.5397   -7.1250   -7.1199 S   0  0  0  0  0  0  0  0  0  0  0  0
   16.3856   -4.9367   -9.9041 C   0  0  0  0  0  0  0  0  0  0  0  0
   16.0316   -3.7780   -9.5807 O   0  0  0  0  0  0  0  0  0  0  0  0
   17.4812   -5.0984  -10.7194 O   0  0  0  0  0  0  0  0  0  0  0  0
  2  1  1  1
  2  4  1  0
  2  3  1  0
  4  5  2  0
  6  4  1  0
  6  7  1  0
  8  9  1  0
  7  8  1  6
  9 10  2  0
 11  7  1  0
 11 12  2  0
 13  9  1  0
 14 11  1  0
 15 14  1  0
 15 18  1  0
 15 16  1  1
 17 16  1  0
 18 19  2  0
 18 20  1  0
M  END
$$$$
