ADC.pdb
     RDKit          3D

 20 19  0  0  1  0  0  0  0  0999 V2000
   13.6869   -8.3415   -8.4545 C   0  0  0  0  0  0  0  0  0  0  0  0
   13.5585   -9.0571   -9.7835 C   0  0  2  0  0  0  0  0  0  0  0  0
   12.9811  -10.3549   -9.5064 N   0  0  0  0  0  0  0  0  0  0  0  0
   14.9257   -9.2569  -10.3020 C   0  0  0  0  0  0  0  0  0  0  0  0
   15.5049  -10.3444  -10.0876 O   0  0  0  0  0  0  0  0  0  0  0  0
   15.5823   -8.2305  -11.0368 N   0  0  0  0  0  0  0  0  0  0  0  0
   16.8126   -8.4679  -11.7701 C   0  0  1  0  0  0  0  0  0  0  0  0
   16.5357   -9.0460  -13.1180 C   0  0  0  0  0  0  0  0  0  0  0  0
   17.7232   -9.3035  -13.9365 C   0  0  0  0  0  0  0  0  0  0  0  0
   17.9078   -8.5379  -14.9288 O   0  0  0  0  0  0  0  0  0  0  0  0
   17.6255   -7.2098  -11.8541 C   0  0  0  0  0  0  0  0  0  0  0  0
   17.1436   -6.1538  -12.3315 O   0  0  0  0  0  0  0  0  0  0  0  0
   18.6459  -10.2899  -13.7285 O   0  0  0  0  0  0  0  0  0  0  0  0
   18.9503   -7.2266  -11.3861 N   0  0  0  0  0  0  0  0  0  0  0  0
   19.8452   -6.0907  -11.4464 C   0  0  1  0  0  0  0  0  0  0  0  0
   20.7001   -5.9902  -10.1849 C   0  0  0  0  0  0  0  0  0  0  0  0
   19.6796   -5.4303   -8.8205 S   0  0  0  0  0  0  0  0  0  0  0  0
   20.7912   -6.2306  -12.5798 C   0  0  0  0  0  0  0  0  0  0  0  0
   20.7731   -7.2923  -13.2467 O   0  0  0  0  0  0  0  0  0  0  0  0
   21.6824   -5.2407  -12.9220 O   0  0  0  0  0  0  0  0  0  0  0  0
  2  1  1  1
  2  4  1  0
  2  3  1  0
  4  5  2  0
  6  4  1  0
  6  7  1  0
  8  9  1  0
  7  8  1  6
  9 10  2  0
 11  7  1  0
 11 12  2  0
 13  9  1  0
 14 11  1  0
 15 14  1  0
 15 18  1  0
 15 16  1  1
 17 16  1  0
 18 19  2  0
 18 20  1  0
M  END
$$$$
