ADC.pdb
     RDKit          3D

 20 19  0  0  1  0  0  0  0  0999 V2000
   13.6960  -10.7874  -12.8588 C   0  0  0  0  0  0  0  0  0  0  0  0
   15.1825  -11.0062  -12.6657 C   0  0  2  0  0  0  0  0  0  0  0  0
   15.3413  -11.7320  -11.4237 N   0  0  0  0  0  0  0  0  0  0  0  0
   15.7998   -9.6749  -12.5090 C   0  0  0  0  0  0  0  0  0  0  0  0
   15.7924   -8.8829  -13.4769 O   0  0  0  0  0  0  0  0  0  0  0  0
   16.3973   -9.2907  -11.2761 N   0  0  0  0  0  0  0  0  0  0  0  0
   17.0572   -8.0095  -11.1005 C   0  0  1  0  0  0  0  0  0  0  0  0
   16.9237   -7.5204   -9.6967 C   0  0  0  0  0  0  0  0  0  0  0  0
   17.4560   -6.1768   -9.4564 C   0  0  0  0  0  0  0  0  0  0  0  0
   17.7805   -5.5018  -10.4781 O   0  0  0  0  0  0  0  0  0  0  0  0
   18.4914   -8.0934  -11.5326 C   0  0  0  0  0  0  0  0  0  0  0  0
   19.2586   -8.9754  -11.0758 O   0  0  0  0  0  0  0  0  0  0  0  0
   17.6337   -5.5876   -8.2362 O   0  0  0  0  0  0  0  0  0  0  0  0
   18.9731   -7.1611  -12.4671 N   0  0  0  0  0  0  0  0  0  0  0  0
   20.3088   -7.1882  -13.0235 C   0  0  1  0  0  0  0  0  0  0  0  0
   20.3168   -7.8118  -14.4176 C   0  0  0  0  0  0  0  0  0  0  0  0
   19.9703   -9.5665  -14.2837 S   0  0  0  0  0  0  0  0  0  0  0  0
   20.8371   -5.8114  -13.1810 C   0  0  0  0  0  0  0  0  0  0  0  0
   20.0241   -4.8778  -13.3800 O   0  0  0  0  0  0  0  0  0  0  0  0
   22.1809   -5.5260  -13.1164 O   0  0  0  0  0  0  0  0  0  0  0  0
  2  1  1  1
  2  4  1  0
  2  3  1  0
  4  5  2  0
  6  4  1  0
  6  7  1  0
  8  9  1  0
  7  8  1  1
  9 10  2  0
 11  7  1  0
 11 12  2  0
 13  9  1  0
 14 11  1  0
 15 14  1  0
 15 18  1  0
 15 16  1  6
 17 16  1  0
 18 19  2  0
 18 20  1  0
M  END
$$$$
