WYI.pdb
     RDKit          3D

 35 37  0  0  1  0  0  0  0  0999 V2000
    6.5327  -19.6531   25.3418 N   0  0  0  0  0  0  0  0  0  0  0  0
    6.6168  -18.2108   25.3594 C   0  0  1  0  0  0  0  0  0  0  0  0
    7.2777  -17.6858   26.6277 C   0  0  0  0  0  0  0  0  0  0  0  0
    6.9285  -16.2561   26.8211 C   0  0  0  0  0  0  0  0  0  0  0  0
    5.7894  -15.6047   26.4330 C   0  0  0  0  0  0  0  0  0  0  0  0
    5.8966  -14.3154   26.8014 N   0  0  0  0  0  0  0  0  0  0  0  0
    7.0660  -14.0804   27.4226 C   0  0  0  0  0  0  0  0  0  0  0  0
    7.6734  -12.9827   27.9840 C   0  0  0  0  0  0  0  0  0  0  0  0
    8.9035  -13.1130   28.5454 C   0  0  0  0  0  0  0  0  0  0  0  0
    9.5882  -14.3126   28.5820 C   0  0  0  0  0  0  0  0  0  0  0  0
    8.9857  -15.4171   28.0197 C   0  0  0  0  0  0  0  0  0  0  0  0
    7.7376  -15.3067   27.4447 C   0  0  0  0  0  0  0  0  0  0  0  0
    7.2688  -17.6702   24.1657 C   0  0  0  0  0  0  0  0  0  0  0  0
    8.1862  -18.3564   23.6317 O   0  0  0  0  0  0  0  0  0  0  0  0
    8.7645  -13.2829   16.7028 O   0  0  0  0  0  0  0  0  0  0  0  0
    8.2690  -13.6482   17.9718 C   0  0  0  0  0  0  0  0  0  0  0  0
    8.3395  -12.7526   19.0163 C   0  0  0  0  0  0  0  0  0  0  0  0
    7.8653  -13.0815   20.2666 C   0  0  0  0  0  0  0  0  0  0  0  0
    7.3012  -14.3152   20.5217 C   0  0  0  0  0  0  0  0  0  0  0  0
    6.7749  -14.7340   21.8226 C   0  0  0  0  0  0  0  0  0  0  0  0
    7.5306  -15.8409   22.4699 C   0  0  2  0  0  0  0  0  0  0  0  0
    6.8870  -16.4215   23.6272 N   0  0  0  0  0  0  0  0  0  0  0  0
    8.9078  -15.3314   22.8624 C   0  0  0  0  0  0  0  0  0  0  0  0
    9.1127  -14.0945   22.9145 O   0  0  0  0  0  0  0  0  0  0  0  0
    7.2372  -15.2000   19.4626 C   0  0  0  0  0  0  0  0  0  0  0  0
    7.7146  -14.8747   18.2025 C   0  0  0  0  0  0  0  0  0  0  0  0
    9.9189  -13.5044   26.5330 C   0  0  0  0  0  0  0  0  0  0  0  0
   10.1802  -14.0313   25.1619 C   0  0  0  0  0  0  0  0  0  0  0  0
   10.9099  -15.3288   25.0921 C   0  0  2  0  0  0  0  0  0  0  0  0
   12.2473  -15.1873   25.7947 C   0  0  0  0  0  0  0  0  0  0  0  0
   11.1761  -15.8514   23.7150 C   0  0  2  0  0  0  0  0  0  0  0  0
    9.9155  -16.2813   23.1559 N   0  0  0  0  0  0  0  0  0  0  0  0
   12.1574  -16.9731   23.7417 C   0  0  0  0  0  0  0  0  0  0  0  0
   13.5236  -16.7886   23.7829 O   0  0  0  0  0  0  0  0  0  0  0  0
   11.7300  -18.1481   23.7265 O   0  0  0  0  0  0  0  0  0  0  0  0
  2  1  1  6
  2  3  1  0
  3  4  1  0
  4  5  2  0
  5  6  1  0
  7  6  1  0
  8  7  2  0
  9  8  1  0
 10 11  1  0
 10  9  2  0
 11 12  2  0
 12  4  1  0
 12  7  1  0
 13  2  1  0
 13 22  1  0
 14 13  2  0
 15 16  1  0
 16 17  2  0
 17 18  1  0
 19 20  1  0
 19 18  2  0
 21 20  1  1
 21 22  1  0
 21 23  1  0
 23 32  1  0
 23 24  2  0
 25 19  1  0
 26 25  2  0
 26 16  1  0
 28 27  1  0
 29 28  1  0
 29 30  1  6
 31 29  1  0
 31 32  1  1
 33 31  1  0
 33 34  1  0
 35 33  2  0
M  END
$$$$
