WYI.pdb
     RDKit          3D

 35 37  0  0  1  0  0  0  0  0999 V2000
    6.3163  -17.4487   24.5435 N   0  0  0  0  0  0  0  0  0  0  0  0
    7.4801  -16.6097   24.3731 C   0  0  1  0  0  0  0  0  0  0  0  0
    7.7780  -15.7757   25.6128 C   0  0  0  0  0  0  0  0  0  0  0  0
    6.7064  -14.7675   25.8093 C   0  0  0  0  0  0  0  0  0  0  0  0
    5.4787  -14.9415   26.3879 C   0  0  0  0  0  0  0  0  0  0  0  0
    4.8251  -13.7664   26.3478 N   0  0  0  0  0  0  0  0  0  0  0  0
    5.5713  -12.8121   25.7637 C   0  0  0  0  0  0  0  0  0  0  0  0
    5.4029  -11.4799   25.4702 C   0  0  0  0  0  0  0  0  0  0  0  0
    6.4032  -10.7995   24.8522 C   0  0  0  0  0  0  0  0  0  0  0  0
    7.6022  -11.3871   24.4970 C   0  0  0  0  0  0  0  0  0  0  0  0
    7.7775  -12.7228   24.7872 C   0  0  0  0  0  0  0  0  0  0  0  0
    6.7749  -13.4320   25.4139 C   0  0  0  0  0  0  0  0  0  0  0  0
    8.6615  -17.3642   23.9521 C   0  0  0  0  0  0  0  0  0  0  0  0
    8.7593  -18.5669   24.3284 O   0  0  0  0  0  0  0  0  0  0  0  0
   16.8549  -19.2551   21.1588 O   0  0  0  0  0  0  0  0  0  0  0  0
   15.6217  -18.6077   21.3811 C   0  0  0  0  0  0  0  0  0  0  0  0
   14.8717  -18.9294   22.4912 C   0  0  0  0  0  0  0  0  0  0  0  0
   13.6633  -18.3152   22.7337 C   0  0  0  0  0  0  0  0  0  0  0  0
   13.1584  -17.3558   21.8795 C   0  0  0  0  0  0  0  0  0  0  0  0
   11.8845  -16.6599   22.0732 C   0  0  0  0  0  0  0  0  0  0  0  0
   11.0390  -17.2079   23.1688 C   0  0  2  0  0  0  0  0  0  0  0  0
    9.6615  -16.7686   23.1519 N   0  0  0  0  0  0  0  0  0  0  0  0
   11.6676  -16.8427   24.5037 C   0  0  0  0  0  0  0  0  0  0  0  0
   12.6088  -16.0134   24.5324 O   0  0  0  0  0  0  0  0  0  0  0  0
   13.9243  -17.0445   20.7726 C   0  0  0  0  0  0  0  0  0  0  0  0
   15.1405  -17.6610   20.5227 C   0  0  0  0  0  0  0  0  0  0  0  0
   10.0126  -13.8233   27.7571 C   0  0  0  0  0  0  0  0  0  0  0  0
   10.9149  -14.8080   27.0923 C   0  0  0  0  0  0  0  0  0  0  0  0
   10.9075  -16.1849   27.6626 C   0  0  2  0  0  0  0  0  0  0  0  0
   11.3638  -16.1283   29.1085 C   0  0  0  0  0  0  0  0  0  0  0  0
   11.7678  -17.1855   26.9562 C   0  0  2  0  0  0  0  0  0  0  0  0
   11.1624  -17.4591   25.6736 N   0  0  0  0  0  0  0  0  0  0  0  0
   11.9119  -18.4357   27.7550 C   0  0  0  0  0  0  0  0  0  0  0  0
   12.7824  -18.5645   28.8170 O   0  0  0  0  0  0  0  0  0  0  0  0
   11.2107  -19.4267   27.4550 O   0  0  0  0  0  0  0  0  0  0  0  0
  2  1  1  1
  2  3  1  0
  3  4  1  0
  4  5  2  0
  5  6  1  0
  7  6  1  0
  8  7  2  0
  9  8  1  0
 10 11  1  0
 10  9  2  0
 11 12  2  0
 12  4  1  0
 12  7  1  0
 13  2  1  0
 13 22  1  0
 14 13  2  0
 15 16  1  0
 16 17  2  0
 17 18  1  0
 19 20  1  0
 19 18  2  0
 21 20  1  6
 21 22  1  0
 21 23  1  0
 23 32  1  0
 23 24  2  0
 25 19  1  0
 26 25  2  0
 26 16  1  0
 28 27  1  0
 29 28  1  0
 29 30  1  1
 31 29  1  0
 31 32  1  6
 33 31  1  0
 33 34  1  0
 35 33  2  0
M  END
$$$$
