WYI.pdb
     RDKit          3D

 35 37  0  0  1  0  0  0  0  0999 V2000
    5.9673  -19.4499   21.3467 N   0  0  0  0  0  0  0  0  0  0  0  0
    6.4037  -18.1303   21.7411 C   0  0  1  0  0  0  0  0  0  0  0  0
    5.5592  -17.0299   21.1111 C   0  0  0  0  0  0  0  0  0  0  0  0
    6.4397  -16.0528   20.4230 C   0  0  0  0  0  0  0  0  0  0  0  0
    6.9336  -16.1122   19.1483 C   0  0  0  0  0  0  0  0  0  0  0  0
    7.6947  -15.0224   18.9416 N   0  0  0  0  0  0  0  0  0  0  0  0
    7.7274  -14.2354   20.0317 C   0  0  0  0  0  0  0  0  0  0  0  0
    8.3283  -13.0442   20.3618 C   0  0  0  0  0  0  0  0  0  0  0  0
    8.1367  -12.5189   21.5998 C   0  0  0  0  0  0  0  0  0  0  0  0
    7.3554  -13.1304   22.5616 C   0  0  0  0  0  0  0  0  0  0  0  0
    6.7509  -14.3258   22.2378 C   0  0  0  0  0  0  0  0  0  0  0  0
    6.9324  -14.8764   20.9869 C   0  0  0  0  0  0  0  0  0  0  0  0
    6.4733  -17.9712   23.1944 C   0  0  0  0  0  0  0  0  0  0  0  0
    5.3917  -17.7816   23.8204 O   0  0  0  0  0  0  0  0  0  0  0  0
    4.8803  -23.2629   26.7281 O   0  0  0  0  0  0  0  0  0  0  0  0
    5.7505  -22.1639   26.5729 C   0  0  0  0  0  0  0  0  0  0  0  0
    5.6569  -21.0917   27.4330 C   0  0  0  0  0  0  0  0  0  0  0  0
    6.4919  -20.0041   27.3051 C   0  0  0  0  0  0  0  0  0  0  0  0
    7.4527  -19.9457   26.3160 C   0  0  0  0  0  0  0  0  0  0  0  0
    8.3754  -18.8254   26.1204 C   0  0  0  0  0  0  0  0  0  0  0  0
    7.8377  -17.7181   25.2837 C   0  0  2  0  0  0  0  0  0  0  0  0
    7.7088  -18.0261   23.8768 N   0  0  0  0  0  0  0  0  0  0  0  0
    8.7284  -16.4981   25.4524 C   0  0  0  0  0  0  0  0  0  0  0  0
    9.7997  -16.4258   24.8031 O   0  0  0  0  0  0  0  0  0  0  0  0
    7.5335  -21.0300   25.4636 C   0  0  0  0  0  0  0  0  0  0  0  0
    6.6944  -22.1265   25.5868 C   0  0  0  0  0  0  0  0  0  0  0  0
    6.5352  -11.6594   25.5005 C   0  0  0  0  0  0  0  0  0  0  0  0
    7.4586  -12.8279   25.4131 C   0  0  0  0  0  0  0  0  0  0  0  0
    8.2492  -13.1249   26.6409 C   0  0  2  0  0  0  0  0  0  0  0  0
    9.1160  -11.9261   26.9782 C   0  0  0  0  0  0  0  0  0  0  0  0
    9.1443  -14.3222   26.5636 C   0  0  2  0  0  0  0  0  0  0  0  0
    8.3109  -15.4815   26.3447 N   0  0  0  0  0  0  0  0  0  0  0  0
    9.9535  -14.4745   27.8062 C   0  0  0  0  0  0  0  0  0  0  0  0
    9.6367  -15.3573   28.8175 O   0  0  0  0  0  0  0  0  0  0  0  0
   10.9762  -13.7695   27.9496 O   0  0  0  0  0  0  0  0  0  0  0  0
  2  1  1  1
  2  3  1  0
  3  4  1  0
  4  5  2  0
  5  6  1  0
  7  6  1  0
  8  7  2  0
  9  8  1  0
 10 11  1  0
 10  9  2  0
 11 12  2  0
 12  4  1  0
 12  7  1  0
 13  2  1  0
 13 22  1  0
 14 13  2  0
 15 16  1  0
 16 17  2  0
 17 18  1  0
 19 20  1  0
 19 18  2  0
 21 20  1  1
 21 22  1  0
 21 23  1  0
 23 32  1  0
 23 24  2  0
 25 19  1  0
 26 25  2  0
 26 16  1  0
 28 27  1  0
 29 28  1  0
 29 30  1  6
 31 29  1  0
 31 32  1  1
 33 31  1  0
 33 34  1  0
 35 33  2  0
M  END
$$$$
