WYI.pdb
     RDKit          3D

 35 37  0  0  1  0  0  0  0  0999 V2000
    5.5660  -18.1094   23.4135 N   0  0  0  0  0  0  0  0  0  0  0  0
    6.3707  -17.0003   23.8713 C   0  0  1  0  0  0  0  0  0  0  0  0
    6.3855  -16.8850   25.3904 C   0  0  0  0  0  0  0  0  0  0  0  0
    5.9668  -15.5196   25.7946 C   0  0  0  0  0  0  0  0  0  0  0  0
    4.7348  -15.1058   26.2231 C   0  0  0  0  0  0  0  0  0  0  0  0
    4.7988  -13.7857   26.4737 N   0  0  0  0  0  0  0  0  0  0  0  0
    6.0292  -13.3010   26.2290 C   0  0  0  0  0  0  0  0  0  0  0  0
    6.6302  -12.0677   26.3115 C   0  0  0  0  0  0  0  0  0  0  0  0
    7.9394  -11.9376   25.9733 C   0  0  0  0  0  0  0  0  0  0  0  0
    8.7121  -12.9993   25.5432 C   0  0  0  0  0  0  0  0  0  0  0  0
    8.1157  -14.2386   25.4569 C   0  0  0  0  0  0  0  0  0  0  0  0
    6.7881  -14.3925   25.7952 C   0  0  0  0  0  0  0  0  0  0  0  0
    7.7319  -17.0326   23.3344 C   0  0  0  0  0  0  0  0  0  0  0  0
    8.2532  -18.1629   23.1141 O   0  0  0  0  0  0  0  0  0  0  0  0
    7.3973  -14.0621   16.8599 O   0  0  0  0  0  0  0  0  0  0  0  0
    8.0868  -14.2022   18.0823 C   0  0  0  0  0  0  0  0  0  0  0  0
    8.7333  -15.3843   18.3704 C   0  0  0  0  0  0  0  0  0  0  0  0
    9.4133  -15.5507   19.5563 C   0  0  0  0  0  0  0  0  0  0  0  0
    9.4758  -14.5440   20.4984 C   0  0  0  0  0  0  0  0  0  0  0  0
   10.1802  -14.6476   21.7781 C   0  0  0  0  0  0  0  0  0  0  0  0
    9.8076  -15.8336   22.5967 C   0  0  2  0  0  0  0  0  0  0  0  0
    8.4419  -15.8402   23.0714 N   0  0  0  0  0  0  0  0  0  0  0  0
   10.7534  -15.9283   23.7828 C   0  0  0  0  0  0  0  0  0  0  0  0
   11.9884  -15.8115   23.5939 O   0  0  0  0  0  0  0  0  0  0  0  0
    8.8234  -13.3652   20.1923 C   0  0  0  0  0  0  0  0  0  0  0  0
    8.1360  -13.1930   19.0010 C   0  0  0  0  0  0  0  0  0  0  0  0
    8.9833  -13.6628   28.3233 C   0  0  0  0  0  0  0  0  0  0  0  0
    9.8421  -14.1986   27.2273 C   0  0  0  0  0  0  0  0  0  0  0  0
   10.2837  -15.6137   27.3802 C   0  0  2  0  0  0  0  0  0  0  0  0
   11.1530  -15.7340   28.6179 C   0  0  0  0  0  0  0  0  0  0  0  0
   11.0546  -16.1817   26.2297 C   0  0  2  0  0  0  0  0  0  0  0  0
   10.1988  -16.1477   25.0666 N   0  0  0  0  0  0  0  0  0  0  0  0
   11.5093  -17.5721   26.5163 C   0  0  0  0  0  0  0  0  0  0  0  0
   12.5975  -17.8689   27.3100 O   0  0  0  0  0  0  0  0  0  0  0  0
   10.8774  -18.5280   26.0156 O   0  0  0  0  0  0  0  0  0  0  0  0
  2  1  1  1
  2  3  1  0
  3  4  1  0
  4  5  2  0
  5  6  1  0
  7  6  1  0
  8  7  2  0
  9  8  1  0
 10 11  1  0
 10  9  2  0
 11 12  2  0
 12  4  1  0
 12  7  1  0
 13  2  1  0
 13 22  1  0
 14 13  2  0
 15 16  1  0
 16 17  2  0
 17 18  1  0
 19 20  1  0
 19 18  2  0
 21 20  1  1
 21 22  1  0
 21 23  1  0
 23 32  1  0
 23 24  2  0
 25 19  1  0
 26 25  2  0
 26 16  1  0
 28 27  1  0
 29 28  1  0
 29 30  1  1
 31 29  1  0
 31 32  1  6
 33 31  1  0
 33 34  1  0
 35 33  2  0
M  END
$$$$
