WYI.pdb
     RDKit          3D

 35 37  0  0  1  0  0  0  0  0999 V2000
    6.3260  -19.1041   20.3543 N   0  0  0  0  0  0  0  0  0  0  0  0
    6.8126  -17.8783   20.9441 C   0  0  1  0  0  0  0  0  0  0  0  0
    5.9965  -16.6659   20.5136 C   0  0  0  0  0  0  0  0  0  0  0  0
    6.9067  -15.5696   20.0980 C   0  0  0  0  0  0  0  0  0  0  0  0
    7.6410  -15.4716   18.9474 C   0  0  0  0  0  0  0  0  0  0  0  0
    8.3319  -14.3180   18.9870 N   0  0  0  0  0  0  0  0  0  0  0  0
    8.0861  -13.6401   20.1222 C   0  0  0  0  0  0  0  0  0  0  0  0
    8.5079  -12.4486   20.6622 C   0  0  0  0  0  0  0  0  0  0  0  0
    8.0365  -12.0600   21.8755 C   0  0  0  0  0  0  0  0  0  0  0  0
    7.1392  -12.8132   22.6081 C   0  0  0  0  0  0  0  0  0  0  0  0
    6.7129  -14.0096   22.0732 C   0  0  0  0  0  0  0  0  0  0  0  0
    7.1790  -14.4228   20.8433 C   0  0  0  0  0  0  0  0  0  0  0  0
    6.9094  -17.9546   22.4025 C   0  0  0  0  0  0  0  0  0  0  0  0
    5.8535  -18.2004   23.0525 O   0  0  0  0  0  0  0  0  0  0  0  0
    9.3739  -19.8250   30.5584 O   0  0  0  0  0  0  0  0  0  0  0  0
    9.2618  -19.6660   29.1615 C   0  0  0  0  0  0  0  0  0  0  0  0
    8.0513  -19.8915   28.5433 C   0  0  0  0  0  0  0  0  0  0  0  0
    7.9119  -19.7456   27.1811 C   0  0  0  0  0  0  0  0  0  0  0  0
    8.9738  -19.3676   26.3845 C   0  0  0  0  0  0  0  0  0  0  0  0
    8.9003  -19.1908   24.9326 C   0  0  0  0  0  0  0  0  0  0  0  0
    8.2918  -17.9050   24.4946 C   0  0  2  0  0  0  0  0  0  0  0  0
    8.1420  -17.7590   23.0639 N   0  0  0  0  0  0  0  0  0  0  0  0
    9.1297  -16.7567   25.0328 C   0  0  0  0  0  0  0  0  0  0  0  0
   10.2075  -16.4629   24.4614 O   0  0  0  0  0  0  0  0  0  0  0  0
   10.1793  -19.1441   27.0212 C   0  0  0  0  0  0  0  0  0  0  0  0
   10.3257  -19.2912   28.3918 C   0  0  0  0  0  0  0  0  0  0  0  0
    6.6789  -12.3084   26.7200 C   0  0  0  0  0  0  0  0  0  0  0  0
    7.6715  -13.3029   26.2184 C   0  0  0  0  0  0  0  0  0  0  0  0
    8.5261  -13.9480   27.2550 C   0  0  2  0  0  0  0  0  0  0  0  0
    9.3651  -12.8862   27.9411 C   0  0  0  0  0  0  0  0  0  0  0  0
    9.4577  -15.0100   26.7602 C   0  0  2  0  0  0  0  0  0  0  0  0
    8.6573  -16.0572   26.1692 N   0  0  0  0  0  0  0  0  0  0  0  0
   10.3042  -15.5450   27.8643 C   0  0  0  0  0  0  0  0  0  0  0  0
   11.5313  -15.0169   28.2072 O   0  0  0  0  0  0  0  0  0  0  0  0
    9.8892  -16.5247   28.5214 O   0  0  0  0  0  0  0  0  0  0  0  0
  2  1  1  1
  2  3  1  0
  3  4  1  0
  4  5  2  0
  5  6  1  0
  7  6  1  0
  8  7  2  0
  9  8  1  0
 10 11  1  0
 10  9  2  0
 11 12  2  0
 12  4  1  0
 12  7  1  0
 13  2  1  0
 13 22  1  0
 14 13  2  0
 15 16  1  0
 16 17  2  0
 17 18  1  0
 19 20  1  0
 19 18  2  0
 21 20  1  6
 21 22  1  0
 21 23  1  0
 23 32  1  0
 23 24  2  0
 25 19  1  0
 26 25  2  0
 26 16  1  0
 28 27  1  0
 29 28  1  0
 29 30  1  6
 31 29  1  0
 31 32  1  1
 33 31  1  0
 33 34  1  0
 35 33  2  0
M  END
$$$$
