WYI.pdb
     RDKit          3D

 35 37  0  0  1  0  0  0  0  0999 V2000
    5.6696  -17.7134   23.7609 N   0  0  0  0  0  0  0  0  0  0  0  0
    6.5667  -16.6140   24.0328 C   0  0  1  0  0  0  0  0  0  0  0  0
    6.6523  -16.2920   25.5195 C   0  0  0  0  0  0  0  0  0  0  0  0
    5.8341  -15.0908   25.8211 C   0  0  0  0  0  0  0  0  0  0  0  0
    4.5119  -15.0349   26.1691 C   0  0  0  0  0  0  0  0  0  0  0  0
    4.1772  -13.7434   26.3415 N   0  0  0  0  0  0  0  0  0  0  0  0
    5.2277  -12.9330   26.1221 C   0  0  0  0  0  0  0  0  0  0  0  0
    5.4413  -11.5756   26.1556 C   0  0  0  0  0  0  0  0  0  0  0  0
    6.6751  -11.0853   25.8680 C   0  0  0  0  0  0  0  0  0  0  0  0
    7.7455  -11.8942   25.5376 C   0  0  0  0  0  0  0  0  0  0  0  0
    7.5382  -13.2561   25.5008 C   0  0  0  0  0  0  0  0  0  0  0  0
    6.2937  -13.7745   25.7892 C   0  0  0  0  0  0  0  0  0  0  0  0
    7.8991  -16.8202   23.4632 C   0  0  0  0  0  0  0  0  0  0  0  0
    8.2881  -18.0098   23.2861 O   0  0  0  0  0  0  0  0  0  0  0  0
    7.0883  -14.0545   17.0897 O   0  0  0  0  0  0  0  0  0  0  0  0
    7.9214  -14.2357   18.2133 C   0  0  0  0  0  0  0  0  0  0  0  0
    8.6441  -15.4010   18.3469 C   0  0  0  0  0  0  0  0  0  0  0  0
    9.4645  -15.6068   19.4336 C   0  0  0  0  0  0  0  0  0  0  0  0
    9.5965  -14.6575   20.4268 C   0  0  0  0  0  0  0  0  0  0  0  0
   10.4496  -14.8053   21.6079 C   0  0  0  0  0  0  0  0  0  0  0  0
   10.0374  -15.8913   22.5385 C   0  0  2  0  0  0  0  0  0  0  0  0
    8.7252  -15.7263   23.1229 N   0  0  0  0  0  0  0  0  0  0  0  0
   11.0712  -16.0070   23.6467 C   0  0  0  0  0  0  0  0  0  0  0  0
   12.2856  -16.1034   23.3456 O   0  0  0  0  0  0  0  0  0  0  0  0
    8.8659  -13.4947   20.2757 C   0  0  0  0  0  0  0  0  0  0  0  0
    8.0372  -13.2831   19.1848 C   0  0  0  0  0  0  0  0  0  0  0  0
    9.6008  -13.6977   28.1144 C   0  0  0  0  0  0  0  0  0  0  0  0
   10.7690  -14.1992   27.3337 C   0  0  0  0  0  0  0  0  0  0  0  0
   10.9539  -15.6779   27.3179 C   0  0  2  0  0  0  0  0  0  0  0  0
   11.8496  -16.0809   28.4745 C   0  0  0  0  0  0  0  0  0  0  0  0
   11.5488  -16.2451   26.0670 C   0  0  2  0  0  0  0  0  0  0  0  0
   10.6194  -16.0024   24.9882 N   0  0  0  0  0  0  0  0  0  0  0  0
   11.8278  -17.7022   26.2123 C   0  0  0  0  0  0  0  0  0  0  0  0
   12.9188  -18.2045   26.8904 O   0  0  0  0  0  0  0  0  0  0  0  0
   11.0369  -18.5216   25.6960 O   0  0  0  0  0  0  0  0  0  0  0  0
  2  1  1  1
  2  3  1  0
  3  4  1  0
  4  5  2  0
  5  6  1  0
  7  6  1  0
  8  7  2  0
  9  8  1  0
 10 11  1  0
 10  9  2  0
 11 12  2  0
 12  4  1  0
 12  7  1  0
 13  2  1  0
 13 22  1  0
 14 13  2  0
 15 16  1  0
 16 17  2  0
 17 18  1  0
 19 20  1  0
 19 18  2  0
 21 20  1  6
 21 22  1  0
 21 23  1  0
 23 32  1  0
 23 24  2  0
 25 19  1  0
 26 25  2  0
 26 16  1  0
 28 27  1  0
 29 28  1  0
 29 30  1  1
 31 29  1  0
 31 32  1  6
 33 31  1  0
 33 34  1  0
 35 33  2  0
M  END
$$$$
