WYI.pdb
     RDKit          3D

 35 37  0  0  1  0  0  0  0  0999 V2000
    5.7245  -17.4588   23.8031 N   0  0  0  0  0  0  0  0  0  0  0  0
    6.6948  -16.4166   24.0474 C   0  0  1  0  0  0  0  0  0  0  0  0
    6.8503  -16.1079   25.5312 C   0  0  0  0  0  0  0  0  0  0  0  0
    5.9386  -15.0002   25.9120 C   0  0  0  0  0  0  0  0  0  0  0  0
    4.6500  -15.0844   26.3649 C   0  0  0  0  0  0  0  0  0  0  0  0
    4.1978  -13.8358   26.5795 N   0  0  0  0  0  0  0  0  0  0  0  0
    5.1373  -12.9190   26.2871 C   0  0  0  0  0  0  0  0  0  0  0  0
    5.2105  -11.5469   26.3204 C   0  0  0  0  0  0  0  0  0  0  0  0
    6.3594  -10.9289   25.9416 C   0  0  0  0  0  0  0  0  0  0  0  0
    7.4780  -11.6200   25.5169 C   0  0  0  0  0  0  0  0  0  0  0  0
    7.4112  -12.9959   25.4798 C   0  0  0  0  0  0  0  0  0  0  0  0
    6.2547  -13.6430   25.8600 C   0  0  0  0  0  0  0  0  0  0  0  0
    7.9922  -16.6995   23.4317 C   0  0  0  0  0  0  0  0  0  0  0  0
    8.2792  -17.9058   23.1865 O   0  0  0  0  0  0  0  0  0  0  0  0
    7.2552  -14.0965   17.1766 O   0  0  0  0  0  0  0  0  0  0  0  0
    8.1110  -14.2953   18.2800 C   0  0  0  0  0  0  0  0  0  0  0  0
    8.8903  -15.4297   18.3443 C   0  0  0  0  0  0  0  0  0  0  0  0
    9.7342  -15.6516   19.4097 C   0  0  0  0  0  0  0  0  0  0  0  0
    9.8340  -14.7499   20.4499 C   0  0  0  0  0  0  0  0  0  0  0  0
   10.7090  -14.9173   21.6122 C   0  0  0  0  0  0  0  0  0  0  0  0
   10.2268  -15.9070   22.6138 C   0  0  2  0  0  0  0  0  0  0  0  0
    8.8959  -15.6592   23.1219 N   0  0  0  0  0  0  0  0  0  0  0  0
   11.2085  -15.9501   23.7735 C   0  0  0  0  0  0  0  0  0  0  0  0
   11.9780  -14.9772   23.9626 O   0  0  0  0  0  0  0  0  0  0  0  0
    9.0467  -13.6175   20.3681 C   0  0  0  0  0  0  0  0  0  0  0  0
    8.1943  -13.3900   19.2989 C   0  0  0  0  0  0  0  0  0  0  0  0
   11.2526  -13.4630   27.2747 C   0  0  0  0  0  0  0  0  0  0  0  0
   11.7965  -14.5688   26.4338 C   0  0  0  0  0  0  0  0  0  0  0  0
   11.1980  -15.9143   26.6626 C   0  0  2  0  0  0  0  0  0  0  0  0
   11.2752  -16.2499   28.1403 C   0  0  0  0  0  0  0  0  0  0  0  0
   11.8296  -17.0431   25.9093 C   0  0  2  0  0  0  0  0  0  0  0  0
   11.2170  -17.0976   24.6024 N   0  0  0  0  0  0  0  0  0  0  0  0
   11.6618  -18.3366   26.6309 C   0  0  0  0  0  0  0  0  0  0  0  0
   12.5033  -18.7614   27.6378 O   0  0  0  0  0  0  0  0  0  0  0  0
   10.7106  -19.0841   26.3146 O   0  0  0  0  0  0  0  0  0  0  0  0
  2  1  1  1
  2  3  1  0
  3  4  1  0
  4  5  2  0
  5  6  1  0
  7  6  1  0
  8  7  2  0
  9  8  1  0
 10 11  1  0
 10  9  2  0
 11 12  2  0
 12  4  1  0
 12  7  1  0
 13  2  1  0
 13 22  1  0
 14 13  2  0
 15 16  1  0
 16 17  2  0
 17 18  1  0
 19 20  1  0
 19 18  2  0
 21 20  1  6
 21 22  1  0
 21 23  1  0
 23 32  1  0
 23 24  2  0
 25 19  1  0
 26 25  2  0
 26 16  1  0
 28 27  1  0
 29 28  1  0
 29 30  1  1
 31 29  1  0
 31 32  1  6
 33 31  1  0
 33 34  1  0
 35 33  2  0
M  END
$$$$
