WYI.pdb
     RDKit          3D

 35 37  0  0  1  0  0  0  0  0999 V2000
    6.2849  -17.6281   23.8266 N   0  0  0  0  0  0  0  0  0  0  0  0
    7.4044  -16.7406   24.0424 C   0  0  1  0  0  0  0  0  0  0  0  0
    7.5633  -16.3565   25.5081 C   0  0  0  0  0  0  0  0  0  0  0  0
    6.7083  -15.1827   25.8152 C   0  0  0  0  0  0  0  0  0  0  0  0
    5.4598  -15.1703   26.3754 C   0  0  0  0  0  0  0  0  0  0  0  0
    5.0518  -13.8916   26.4640 N   0  0  0  0  0  0  0  0  0  0  0  0
    5.9823  -13.0475   25.9839 C   0  0  0  0  0  0  0  0  0  0  0  0
    6.0855  -11.6850   25.8361 C   0  0  0  0  0  0  0  0  0  0  0  0
    7.2115  -11.1545   25.2921 C   0  0  0  0  0  0  0  0  0  0  0  0
    8.2775  -11.9269   24.8721 C   0  0  0  0  0  0  0  0  0  0  0  0
    8.1803  -13.2940   25.0161 C   0  0  0  0  0  0  0  0  0  0  0  0
    7.0462  -13.8529   25.5658 C   0  0  0  0  0  0  0  0  0  0  0  0
    8.6562  -17.2711   23.5003 C   0  0  0  0  0  0  0  0  0  0  0  0
    8.9755  -18.4562   23.8026 O   0  0  0  0  0  0  0  0  0  0  0  0
   17.1499  -16.9929   21.2632 O   0  0  0  0  0  0  0  0  0  0  0  0
   15.7779  -16.6842   21.3712 C   0  0  0  0  0  0  0  0  0  0  0  0
   15.3780  -15.3681   21.4504 C   0  0  0  0  0  0  0  0  0  0  0  0
   14.0458  -15.0362   21.5579 C   0  0  0  0  0  0  0  0  0  0  0  0
   13.0624  -16.0042   21.5887 C   0  0  0  0  0  0  0  0  0  0  0  0
   11.6286  -15.7272   21.6992 C   0  0  0  0  0  0  0  0  0  0  0  0
   10.9257  -16.5084   22.7533 C   0  0  2  0  0  0  0  0  0  0  0  0
    9.4825  -16.4850   22.6672 N   0  0  0  0  0  0  0  0  0  0  0  0
   11.3571  -15.9928   24.1165 C   0  0  0  0  0  0  0  0  0  0  0  0
   12.0667  -14.9602   24.1856 O   0  0  0  0  0  0  0  0  0  0  0  0
   13.4812  -17.3182   21.5066 C   0  0  0  0  0  0  0  0  0  0  0  0
   14.8209  -17.6579   21.4000 C   0  0  0  0  0  0  0  0  0  0  0  0
    9.7529  -12.9958   27.1729 C   0  0  0  0  0  0  0  0  0  0  0  0
   10.6763  -14.0077   26.5820 C   0  0  0  0  0  0  0  0  0  0  0  0
   10.6401  -15.3619   27.2031 C   0  0  2  0  0  0  0  0  0  0  0  0
   11.0599  -15.2552   28.6572 C   0  0  0  0  0  0  0  0  0  0  0  0
   11.5078  -16.3965   26.5571 C   0  0  2  0  0  0  0  0  0  0  0  0
   10.9383  -16.7049   25.2659 N   0  0  0  0  0  0  0  0  0  0  0  0
   11.6099  -17.6212   27.4007 C   0  0  0  0  0  0  0  0  0  0  0  0
   10.9961  -18.8156   27.0861 O   0  0  0  0  0  0  0  0  0  0  0  0
   12.2857  -17.5743   28.4517 O   0  0  0  0  0  0  0  0  0  0  0  0
  2  1  1  1
  2  3  1  0
  3  4  1  0
  4  5  2  0
  5  6  1  0
  7  6  1  0
  8  7  2  0
  9  8  1  0
 10 11  1  0
 10  9  2  0
 11 12  2  0
 12  4  1  0
 12  7  1  0
 13  2  1  0
 13 22  1  0
 14 13  2  0
 15 16  1  0
 16 17  2  0
 17 18  1  0
 19 20  1  0
 19 18  2  0
 21 20  1  6
 21 22  1  0
 21 23  1  0
 23 32  1  0
 23 24  2  0
 25 19  1  0
 26 25  2  0
 26 16  1  0
 28 27  1  0
 29 28  1  0
 29 30  1  1
 31 29  1  0
 31 32  1  6
 33 31  1  0
 33 34  1  0
 35 33  2  0
M  END
$$$$
