WYI.pdb
     RDKit          3D

 35 37  0  0  1  0  0  0  0  0999 V2000
    6.6212  -18.9947   20.7415 N   0  0  0  0  0  0  0  0  0  0  0  0
    6.4642  -17.7352   21.4317 C   0  0  1  0  0  0  0  0  0  0  0  0
    5.6793  -16.7200   20.6106 C   0  0  0  0  0  0  0  0  0  0  0  0
    6.6160  -15.8731   19.8304 C   0  0  0  0  0  0  0  0  0  0  0  0
    7.0947  -16.0865   18.5663 C   0  0  0  0  0  0  0  0  0  0  0  0
    7.9235  -15.0738   18.2545 N   0  0  0  0  0  0  0  0  0  0  0  0
    8.0163  -14.1901   19.2640 C   0  0  0  0  0  0  0  0  0  0  0  0
    8.6962  -13.0148   19.4772 C   0  0  0  0  0  0  0  0  0  0  0  0
    8.5492  -12.3619   20.6594 C   0  0  0  0  0  0  0  0  0  0  0  0
    7.7376  -12.8260   21.6768 C   0  0  0  0  0  0  0  0  0  0  0  0
    7.0538  -14.0046   21.4703 C   0  0  0  0  0  0  0  0  0  0  0  0
    7.1889  -14.6830   20.2778 C   0  0  0  0  0  0  0  0  0  0  0  0
    5.8830  -17.8928   22.7658 C   0  0  0  0  0  0  0  0  0  0  0  0
    5.1015  -18.8675   22.9582 O   0  0  0  0  0  0  0  0  0  0  0  0
    9.5267  -20.7383   29.8897 O   0  0  0  0  0  0  0  0  0  0  0  0
    9.0162  -20.2471   28.6701 C   0  0  0  0  0  0  0  0  0  0  0  0
    8.4266  -19.0026   28.6282 C   0  0  0  0  0  0  0  0  0  0  0  0
    7.9180  -18.4973   27.4524 C   0  0  0  0  0  0  0  0  0  0  0  0
    7.9799  -19.2133   26.2740 C   0  0  0  0  0  0  0  0  0  0  0  0
    7.4633  -18.7408   24.9878 C   0  0  0  0  0  0  0  0  0  0  0  0
    6.8410  -17.3893   25.0283 C   0  0  2  0  0  0  0  0  0  0  0  0
    6.1839  -16.9853   23.8054 N   0  0  0  0  0  0  0  0  0  0  0  0
    7.9079  -16.3681   25.3878 C   0  0  0  0  0  0  0  0  0  0  0  0
    8.9085  -16.2375   24.6420 O   0  0  0  0  0  0  0  0  0  0  0  0
    8.5758  -20.4583   26.3342 C   0  0  0  0  0  0  0  0  0  0  0  0
    9.0878  -20.9725   27.5153 C   0  0  0  0  0  0  0  0  0  0  0  0
    5.9366  -11.7649   26.9173 C   0  0  0  0  0  0  0  0  0  0  0  0
    6.8082  -12.8625   26.4061 C   0  0  0  0  0  0  0  0  0  0  0  0
    7.8493  -13.3591   27.3498 C   0  0  2  0  0  0  0  0  0  0  0  0
    8.8197  -12.2343   27.6588 C   0  0  0  0  0  0  0  0  0  0  0  0
    8.6515  -14.5302   26.8748 C   0  0  2  0  0  0  0  0  0  0  0  0
    7.7297  -15.5972   26.5616 N   0  0  0  0  0  0  0  0  0  0  0  0
    9.6386  -14.9637   27.9042 C   0  0  0  0  0  0  0  0  0  0  0  0
   10.8963  -14.4124   28.0327 O   0  0  0  0  0  0  0  0  0  0  0  0
    9.3196  -15.8749   28.6990 O   0  0  0  0  0  0  0  0  0  0  0  0
  2  1  1  6
  2  3  1  0
  3  4  1  0
  4  5  2  0
  5  6  1  0
  7  6  1  0
  8  7  2  0
  9  8  1  0
 10 11  1  0
 10  9  2  0
 11 12  2  0
 12  4  1  0
 12  7  1  0
 13  2  1  0
 13 22  1  0
 14 13  2  0
 15 16  1  0
 16 17  2  0
 17 18  1  0
 19 20  1  0
 19 18  2  0
 21 20  1  6
 21 22  1  0
 21 23  1  0
 23 32  1  0
 23 24  2  0
 25 19  1  0
 26 25  2  0
 26 16  1  0
 28 27  1  0
 29 28  1  0
 29 30  1  6
 31 29  1  0
 31 32  1  1
 33 31  1  0
 33 34  1  0
 35 33  2  0
M  END
$$$$
