WYI.pdb
     RDKit          3D

 35 37  0  0  1  0  0  0  0  0999 V2000
    6.3815  -18.7823   26.3208 N   0  0  0  0  0  0  0  0  0  0  0  0
    7.2702  -17.6992   25.9682 C   0  0  1  0  0  0  0  0  0  0  0  0
    8.6887  -17.9270   26.4752 C   0  0  0  0  0  0  0  0  0  0  0  0
    8.9324  -17.0919   27.6779 C   0  0  0  0  0  0  0  0  0  0  0  0
    9.0424  -17.4978   28.9801 C   0  0  0  0  0  0  0  0  0  0  0  0
    9.2527  -16.4098   29.7428 N   0  0  0  0  0  0  0  0  0  0  0  0
    9.2879  -15.2905   28.9981 C   0  0  0  0  0  0  0  0  0  0  0  0
    9.4647  -13.9511   29.2510 C   0  0  0  0  0  0  0  0  0  0  0  0
    9.4408  -13.0669   28.2201 C   0  0  0  0  0  0  0  0  0  0  0  0
    9.2443  -13.4503   26.9073 C   0  0  0  0  0  0  0  0  0  0  0  0
    9.0651  -14.7916   26.6465 C   0  0  0  0  0  0  0  0  0  0  0  0
    9.0857  -15.7058   27.6783 C   0  0  0  0  0  0  0  0  0  0  0  0
    7.2658  -17.4116   24.5331 C   0  0  0  0  0  0  0  0  0  0  0  0
    7.2841  -18.3911   23.7344 O   0  0  0  0  0  0  0  0  0  0  0  0
    7.9054  -13.3576   16.7353 O   0  0  0  0  0  0  0  0  0  0  0  0
    7.7107  -13.6145   18.1084 C   0  0  0  0  0  0  0  0  0  0  0  0
    8.1272  -12.6908   19.0420 C   0  0  0  0  0  0  0  0  0  0  0  0
    7.9519  -12.9148   20.3894 C   0  0  0  0  0  0  0  0  0  0  0  0
    7.3530  -14.0674   20.8563 C   0  0  0  0  0  0  0  0  0  0  0  0
    7.1315  -14.3728   22.2713 C   0  0  0  0  0  0  0  0  0  0  0  0
    7.5447  -15.7425   22.6820 C   0  0  2  0  0  0  0  0  0  0  0  0
    7.2431  -16.0829   24.0545 N   0  0  0  0  0  0  0  0  0  0  0  0
    9.0374  -15.8981   22.4409 C   0  0  0  0  0  0  0  0  0  0  0  0
    9.4771  -15.8550   21.2665 O   0  0  0  0  0  0  0  0  0  0  0  0
    6.9403  -14.9816   19.9063 C   0  0  0  0  0  0  0  0  0  0  0  0
    7.1158  -14.7620   18.5489 C   0  0  0  0  0  0  0  0  0  0  0  0
   12.0578  -14.8390   26.9780 C   0  0  0  0  0  0  0  0  0  0  0  0
   11.6241  -14.8148   25.5507 C   0  0  0  0  0  0  0  0  0  0  0  0
   11.9342  -16.0369   24.7562 C   0  0  2  0  0  0  0  0  0  0  0  0
   13.4372  -16.1509   24.5825 C   0  0  0  0  0  0  0  0  0  0  0  0
   11.3159  -16.1009   23.3945 C   0  0  2  0  0  0  0  0  0  0  0  0
    9.8812  -16.0883   23.5615 N   0  0  0  0  0  0  0  0  0  0  0  0
   11.7558  -17.3192   22.6568 C   0  0  0  0  0  0  0  0  0  0  0  0
   10.9083  -18.3551   22.3239 O   0  0  0  0  0  0  0  0  0  0  0  0
   12.9550  -17.4174   22.3164 O   0  0  0  0  0  0  0  0  0  0  0  0
  2  1  1  6
  2  3  1  0
  3  4  1  0
  4  5  2  0
  5  6  1  0
  7  6  1  0
  8  7  2  0
  9  8  1  0
 10 11  1  0
 10  9  2  0
 11 12  2  0
 12  4  1  0
 12  7  1  0
 13  2  1  0
 13 22  1  0
 14 13  2  0
 15 16  1  0
 16 17  2  0
 17 18  1  0
 19 20  1  0
 19 18  2  0
 21 20  1  1
 21 22  1  0
 21 23  1  0
 23 32  1  0
 23 24  2  0
 25 19  1  0
 26 25  2  0
 26 16  1  0
 28 27  1  0
 29 28  1  0
 29 30  1  6
 31 29  1  0
 31 32  1  1
 33 31  1  0
 33 34  1  0
 35 33  2  0
M  END
$$$$
