WYI.pdb
     RDKit          3D

 35 37  0  0  1  0  0  0  0  0999 V2000
    7.0317  -17.5192   21.1942 N   0  0  0  0  0  0  0  0  0  0  0  0
    8.1397  -16.8245   21.8084 C   0  0  1  0  0  0  0  0  0  0  0  0
    7.7446  -15.4452   22.3206 C   0  0  0  0  0  0  0  0  0  0  0  0
    7.3197  -14.5901   21.1842 C   0  0  0  0  0  0  0  0  0  0  0  0
    6.0851  -14.5150   20.5989 C   0  0  0  0  0  0  0  0  0  0  0  0
    6.1484  -13.6182   19.5982 N   0  0  0  0  0  0  0  0  0  0  0  0
    7.3807  -13.0899   19.4930 C   0  0  0  0  0  0  0  0  0  0  0  0
    7.9824  -12.1634   18.6753 C   0  0  0  0  0  0  0  0  0  0  0  0
    9.2935  -11.8596   18.8600 C   0  0  0  0  0  0  0  0  0  0  0  0
   10.0675  -12.4438   19.8443 C   0  0  0  0  0  0  0  0  0  0  0  0
    9.4710  -13.3747   20.6670 C   0  0  0  0  0  0  0  0  0  0  0  0
    8.1416  -13.6976   20.4966 C   0  0  0  0  0  0  0  0  0  0  0  0
    8.7832  -17.6109   22.8618 C   0  0  0  0  0  0  0  0  0  0  0  0
    8.0758  -17.9720   23.8451 O   0  0  0  0  0  0  0  0  0  0  0  0
   14.6551  -22.0244   27.7734 O   0  0  0  0  0  0  0  0  0  0  0  0
   14.0100  -21.3643   26.7069 C   0  0  0  0  0  0  0  0  0  0  0  0
   14.5356  -20.1909   26.2118 C   0  0  0  0  0  0  0  0  0  0  0  0
   13.9271  -19.5234   25.1723 C   0  0  0  0  0  0  0  0  0  0  0  0
   12.7728  -20.0020   24.5862 C   0  0  0  0  0  0  0  0  0  0  0  0
   12.0724  -19.3491   23.4782 C   0  0  0  0  0  0  0  0  0  0  0  0
   10.8615  -18.5808   23.8769 C   0  0  2  0  0  0  0  0  0  0  0  0
   10.1509  -17.9551   22.7841 N   0  0  0  0  0  0  0  0  0  0  0  0
   11.2641  -17.5201   24.8885 C   0  0  0  0  0  0  0  0  0  0  0  0
   12.1492  -16.6849   24.5828 O   0  0  0  0  0  0  0  0  0  0  0  0
   12.2607  -21.1804   25.0941 C   0  0  0  0  0  0  0  0  0  0  0  0
   12.8682  -21.8554   26.1414 C   0  0  0  0  0  0  0  0  0  0  0  0
    9.3784  -13.0897   27.8464 C   0  0  0  0  0  0  0  0  0  0  0  0
   10.2533  -14.2859   28.0184 C   0  0  0  0  0  0  0  0  0  0  0  0
   10.0430  -15.3911   27.0411 C   0  0  2  0  0  0  0  0  0  0  0  0
    8.6366  -15.9376   27.2013 C   0  0  0  0  0  0  0  0  0  0  0  0
   10.9909  -16.5444   27.1503 C   0  0  2  0  0  0  0  0  0  0  0  0
   10.6190  -17.5163   26.1486 N   0  0  0  0  0  0  0  0  0  0  0  0
   10.9579  -17.1453   28.5141 C   0  0  0  0  0  0  0  0  0  0  0  0
   10.4815  -18.4129   28.7761 O   0  0  0  0  0  0  0  0  0  0  0  0
   11.3825  -16.4732   29.4792 O   0  0  0  0  0  0  0  0  0  0  0  0
  2  1  1  1
  2  3  1  0
  3  4  1  0
  4  5  2  0
  5  6  1  0
  7  6  1  0
  8  7  2  0
  9  8  1  0
 10 11  1  0
 10  9  2  0
 11 12  2  0
 12  4  1  0
 12  7  1  0
 13  2  1  0
 13 22  1  0
 14 13  2  0
 15 16  1  0
 16 17  2  0
 17 18  1  0
 19 20  1  0
 19 18  2  0
 21 20  1  6
 21 22  1  0
 21 23  1  0
 23 32  1  0
 23 24  2  0
 25 19  1  0
 26 25  2  0
 26 16  1  0
 28 27  1  0
 29 28  1  0
 29 30  1  1
 31 29  1  0
 31 32  1  6
 33 31  1  0
 33 34  1  0
 35 33  2  0
M  END
$$$$
