WYI.pdb
     RDKit          3D

 35 37  0  0  1  0  0  0  0  0999 V2000
    5.7551  -18.1369   23.4123 N   0  0  0  0  0  0  0  0  0  0  0  0
    6.4669  -16.9770   23.8976 C   0  0  1  0  0  0  0  0  0  0  0  0
    6.3590  -16.8235   25.4095 C   0  0  0  0  0  0  0  0  0  0  0  0
    5.7676  -15.5026   25.7393 C   0  0  0  0  0  0  0  0  0  0  0  0
    4.5035  -15.2311   26.1874 C   0  0  0  0  0  0  0  0  0  0  0  0
    4.3916  -13.9002   26.3482 N   0  0  0  0  0  0  0  0  0  0  0  0
    5.5354  -13.2712   26.0244 C   0  0  0  0  0  0  0  0  0  0  0  0
    5.9621  -11.9649   26.0022 C   0  0  0  0  0  0  0  0  0  0  0  0
    7.2302  -11.6820   25.6055 C   0  0  0  0  0  0  0  0  0  0  0  0
    8.1292  -12.6563   25.2161 C   0  0  0  0  0  0  0  0  0  0  0  0
    7.7077  -13.9682   25.2347 C   0  0  0  0  0  0  0  0  0  0  0  0
    6.4247  -14.2770   25.6339 C   0  0  0  0  0  0  0  0  0  0  0  0
    7.8653  -16.9532   23.4663 C   0  0  0  0  0  0  0  0  0  0  0  0
    8.4115  -18.0545   23.1721 O   0  0  0  0  0  0  0  0  0  0  0  0
    7.5349  -14.0839   17.2169 O   0  0  0  0  0  0  0  0  0  0  0  0
    8.2289  -14.1852   18.4406 C   0  0  0  0  0  0  0  0  0  0  0  0
    7.8939  -13.3536   19.4868 C   0  0  0  0  0  0  0  0  0  0  0  0
    8.5547  -13.4284   20.6926 C   0  0  0  0  0  0  0  0  0  0  0  0
    9.5730  -14.3365   20.9011 C   0  0  0  0  0  0  0  0  0  0  0  0
   10.3179  -14.4748   22.1544 C   0  0  0  0  0  0  0  0  0  0  0  0
    9.9636  -15.6773   22.9568 C   0  0  2  0  0  0  0  0  0  0  0  0
    8.5831  -15.7396   23.3821 N   0  0  0  0  0  0  0  0  0  0  0  0
   10.8693  -15.7383   24.1760 C   0  0  0  0  0  0  0  0  0  0  0  0
   11.6550  -14.7872   24.4051 O   0  0  0  0  0  0  0  0  0  0  0  0
    9.8945  -15.1634   19.8420 C   0  0  0  0  0  0  0  0  0  0  0  0
    9.2338  -15.0912   18.6256 C   0  0  0  0  0  0  0  0  0  0  0  0
   10.4789  -13.2847   27.5903 C   0  0  0  0  0  0  0  0  0  0  0  0
   11.1526  -14.3708   26.8208 C   0  0  0  0  0  0  0  0  0  0  0  0
   10.6834  -15.7564   27.1052 C   0  0  2  0  0  0  0  0  0  0  0  0
   10.8683  -16.0524   28.5818 C   0  0  0  0  0  0  0  0  0  0  0  0
   11.3667  -16.8444   26.3373 C   0  0  2  0  0  0  0  0  0  0  0  0
   10.7908  -16.8772   25.0130 N   0  0  0  0  0  0  0  0  0  0  0  0
   11.2168  -18.1629   27.0164 C   0  0  0  0  0  0  0  0  0  0  0  0
   11.9764  -18.5519   28.0999 O   0  0  0  0  0  0  0  0  0  0  0  0
   10.3595  -18.9667   26.5892 O   0  0  0  0  0  0  0  0  0  0  0  0
  2  1  1  1
  2  3  1  0
  3  4  1  0
  4  5  2  0
  5  6  1  0
  7  6  1  0
  8  7  2  0
  9  8  1  0
 10 11  1  0
 10  9  2  0
 11 12  2  0
 12  4  1  0
 12  7  1  0
 13  2  1  0
 13 22  1  0
 14 13  2  0
 15 16  1  0
 16 17  2  0
 17 18  1  0
 19 20  1  0
 19 18  2  0
 21 20  1  1
 21 22  1  0
 21 23  1  0
 23 32  1  0
 23 24  2  0
 25 19  1  0
 26 25  2  0
 26 16  1  0
 28 27  1  0
 29 28  1  0
 29 30  1  1
 31 29  1  0
 31 32  1  6
 33 31  1  0
 33 34  1  0
 35 33  2  0
M  END
$$$$
