WYI.pdb
     RDKit          3D

 35 37  0  0  1  0  0  0  0  0999 V2000
    6.9763  -17.9551   20.5668 N   0  0  0  0  0  0  0  0  0  0  0  0
    7.5563  -16.8926   21.3555 C   0  0  1  0  0  0  0  0  0  0  0  0
    6.6288  -15.6899   21.4760 C   0  0  0  0  0  0  0  0  0  0  0  0
    6.7574  -14.8337   20.2704 C   0  0  0  0  0  0  0  0  0  0  0  0
    6.0058  -14.8658   19.1273 C   0  0  0  0  0  0  0  0  0  0  0  0
    6.4729  -13.9215   18.2908 N   0  0  0  0  0  0  0  0  0  0  0  0
    7.5096  -13.2582   18.8329 C   0  0  0  0  0  0  0  0  0  0  0  0
    8.3346  -12.2345   18.4321 C   0  0  0  0  0  0  0  0  0  0  0  0
    9.3142  -11.7991   19.2665 C   0  0  0  0  0  0  0  0  0  0  0  0
    9.5284  -12.3414   20.5192 C   0  0  0  0  0  0  0  0  0  0  0  0
    8.7058  -13.3690   20.9270 C   0  0  0  0  0  0  0  0  0  0  0  0
    7.7055  -13.8260   20.0956 C   0  0  0  0  0  0  0  0  0  0  0  0
    7.9994  -17.3476   22.6741 C   0  0  0  0  0  0  0  0  0  0  0  0
    7.1149  -17.7011   23.5050 O   0  0  0  0  0  0  0  0  0  0  0  0
   12.9369  -20.2353   29.4562 O   0  0  0  0  0  0  0  0  0  0  0  0
   12.4764  -19.8307   28.1859 C   0  0  0  0  0  0  0  0  0  0  0  0
   11.3372  -19.0625   28.0851 C   0  0  0  0  0  0  0  0  0  0  0  0
   10.8629  -18.6539   26.8586 C   0  0  0  0  0  0  0  0  0  0  0  0
   11.5078  -18.9943   25.6867 C   0  0  0  0  0  0  0  0  0  0  0  0
   11.0643  -18.5954   24.3493 C   0  0  0  0  0  0  0  0  0  0  0  0
    9.8412  -17.7475   24.3290 C   0  0  2  0  0  0  0  0  0  0  0  0
    9.3709  -17.3897   23.0093 N   0  0  0  0  0  0  0  0  0  0  0  0
   10.1071  -16.4826   25.1288 C   0  0  0  0  0  0  0  0  0  0  0  0
   11.0698  -15.7445   24.8077 O   0  0  0  0  0  0  0  0  0  0  0  0
   12.6492  -19.7635   25.8067 C   0  0  0  0  0  0  0  0  0  0  0  0
   13.1300  -20.1790   27.0386 C   0  0  0  0  0  0  0  0  0  0  0  0
    6.0996  -13.3151   26.3029 C   0  0  0  0  0  0  0  0  0  0  0  0
    7.4431  -13.9186   26.0654 C   0  0  0  0  0  0  0  0  0  0  0  0
    8.1880  -14.3467   27.2831 C   0  0  2  0  0  0  0  0  0  0  0  0
    8.4535  -13.1352   28.1571 C   0  0  0  0  0  0  0  0  0  0  0  0
    9.5006  -15.0231   27.0377 C   0  0  2  0  0  0  0  0  0  0  0  0
    9.2507  -16.1841   26.2156 N   0  0  0  0  0  0  0  0  0  0  0  0
   10.1590  -15.4086   28.3183 C   0  0  0  0  0  0  0  0  0  0  0  0
   10.9429  -14.5497   29.0600 O   0  0  0  0  0  0  0  0  0  0  0  0
    9.9984  -16.5701   28.7526 O   0  0  0  0  0  0  0  0  0  0  0  0
  2  1  1  1
  2  3  1  0
  3  4  1  0
  4  5  2  0
  5  6  1  0
  7  6  1  0
  8  7  2  0
  9  8  1  0
 10 11  1  0
 10  9  2  0
 11 12  2  0
 12  4  1  0
 12  7  1  0
 13  2  1  0
 13 22  1  0
 14 13  2  0
 15 16  1  0
 16 17  2  0
 17 18  1  0
 19 20  1  0
 19 18  2  0
 21 20  1  6
 21 22  1  0
 21 23  1  0
 23 32  1  0
 23 24  2  0
 25 19  1  0
 26 25  2  0
 26 16  1  0
 28 27  1  0
 29 28  1  0
 29 30  1  1
 31 29  1  0
 31 32  1  6
 33 31  1  0
 33 34  1  0
 35 33  2  0
M  END
$$$$
