QKV.pdb
     RDKit          3D

 26 25  0  0  1  0  0  0  0  0999 V2000
   22.1285  -17.3700  -14.0226 N   0  0  0  0  0  0  0  0  0  0  0  0
   22.4198  -18.2101  -15.1603 C   0  0  0  0  0  0  0  0  0  0  0  0
   22.6078  -19.4337  -14.9543 O   0  0  0  0  0  0  0  0  0  0  0  0
   22.5004  -17.6541  -16.5214 C   0  0  0  0  0  0  0  0  0  0  0  0
   22.2048  -16.2109  -16.6115 C   0  0  0  0  0  0  0  0  0  0  0  0
   20.8207  -15.8473  -17.0635 C   0  0  2  0  0  0  0  0  0  0  0  0
   20.5293  -16.3955  -18.3289 N   0  0  0  0  0  0  0  0  0  0  0  0
   20.6706  -14.3527  -16.9817 C   0  0  0  0  0  0  0  0  0  0  0  0
   21.6137  -13.6118  -17.4258 O   0  0  0  0  0  0  0  0  0  0  0  0
   19.5679  -13.6902  -16.4513 N   0  0  0  0  0  0  0  0  0  0  0  0
   19.3870  -12.2603  -16.4196 C   0  0  1  0  0  0  0  0  0  0  0  0
   17.9024  -11.8918  -16.3948 C   0  0  0  0  0  0  0  0  0  0  0  0
   17.7068  -10.4073  -16.4646 C   0  0  0  0  0  0  0  0  0  0  0  0
   16.2210  -10.1259  -16.4702 C   0  0  0  0  0  0  0  0  0  0  0  0
   15.8911   -8.6896  -16.7234 C   0  0  0  0  0  0  0  0  0  0  0  0
   14.4630   -8.5256  -16.5167 N   0  0  0  0  0  0  0  0  0  0  0  0
   20.0307  -11.5864  -15.3048 C   0  0  0  0  0  0  0  0  0  0  0  0
   19.8051  -11.9406  -14.1301 O   0  0  0  0  0  0  0  0  0  0  0  0
   23.3410   -9.2955  -16.1133 C   0  0  0  0  0  0  0  0  0  0  0  0
   23.1133   -9.9616  -14.7596 C   0  0  2  0  0  0  0  0  0  0  0  0
   23.5508  -11.3972  -14.8613 C   0  0  0  0  0  0  0  0  0  0  0  0
   21.6317   -9.8334  -14.4548 C   0  0  2  0  0  0  0  0  0  0  0  0
   20.9258  -10.5161  -15.5230 N   0  0  0  0  0  0  0  0  0  0  0  0
   21.2296   -8.4073  -14.3681 C   0  0  0  0  0  0  0  0  0  0  0  0
   20.7277   -7.8491  -15.3736 O   0  0  0  0  0  0  0  0  0  0  0  0
   21.3900   -7.6729  -13.2147 O   0  0  0  0  0  0  0  0  0  0  0  0
  2  1  1  0
  3  2  2  0
  4  2  1  0
  5  4  1  0
  6  5  1  0
  6  8  1  0
  6  7  1  6
  8  9  2  0
 10  8  1  0
 10 11  1  0
 11 12  1  1
 12 13  1  0
 13 14  1  0
 15 14  1  0
 16 15  1  0
 17 11  1  0
 17 18  2  0
 20 19  1  6
 20 22  1  0
 21 20  1  0
 22 24  1  0
 22 23  1  6
 23 17  1  0
 24 26  1  0
 25 24  2  0
M  END
$$$$
