QKV.pdb
     RDKit          3D

 26 25  0  0  1  0  0  0  0  0999 V2000
   14.0798  -13.0745  -15.0723 N   0  0  0  0  0  0  0  0  0  0  0  0
   14.3270  -14.4954  -15.0016 C   0  0  0  0  0  0  0  0  0  0  0  0
   13.3714  -15.2426  -14.6800 O   0  0  0  0  0  0  0  0  0  0  0  0
   15.6574  -15.0559  -15.2912 C   0  0  0  0  0  0  0  0  0  0  0  0
   16.7020  -14.0475  -15.5563 C   0  0  0  0  0  0  0  0  0  0  0  0
   16.7351  -13.4806  -16.9454 C   0  0  2  0  0  0  0  0  0  0  0  0
   17.0728  -14.4637  -17.8973 N   0  0  0  0  0  0  0  0  0  0  0  0
   17.6363  -12.2760  -16.9464 C   0  0  0  0  0  0  0  0  0  0  0  0
   18.8747  -12.4311  -17.2251 O   0  0  0  0  0  0  0  0  0  0  0  0
   17.2293  -10.9758  -16.6630 N   0  0  0  0  0  0  0  0  0  0  0  0
   18.0701   -9.8060  -16.7164 C   0  0  1  0  0  0  0  0  0  0  0  0
   17.2352   -8.5314  -16.8523 C   0  0  0  0  0  0  0  0  0  0  0  0
   16.7723   -8.3295  -18.2636 C   0  0  0  0  0  0  0  0  0  0  0  0
   15.9003   -7.0945  -18.3031 C   0  0  0  0  0  0  0  0  0  0  0  0
   15.3632   -6.7920  -19.6654 C   0  0  0  0  0  0  0  0  0  0  0  0
   14.5117   -5.6212  -19.5500 N   0  0  0  0  0  0  0  0  0  0  0  0
   18.9568   -9.6369  -15.5777 C   0  0  0  0  0  0  0  0  0  0  0  0
   18.5580   -9.8721  -14.4193 O   0  0  0  0  0  0  0  0  0  0  0  0
   23.3010   -9.7406  -13.6582 C   0  0  0  0  0  0  0  0  0  0  0  0
   22.3827   -9.9119  -14.8647 C   0  0  2  0  0  0  0  0  0  0  0  0
   23.1651   -9.5740  -16.1041 C   0  0  0  0  0  0  0  0  0  0  0  0
   21.2076   -8.9741  -14.6542 C   0  0  2  0  0  0  0  0  0  0  0  0
   20.2892   -9.2033  -15.7539 N   0  0  0  0  0  0  0  0  0  0  0  0
   21.6580   -7.5605  -14.6135 C   0  0  0  0  0  0  0  0  0  0  0  0
   21.6565   -6.8854  -15.6712 O   0  0  0  0  0  0  0  0  0  0  0  0
   22.0797   -6.9623  -13.4474 O   0  0  0  0  0  0  0  0  0  0  0  0
  2  1  1  0
  3  2  2  0
  4  2  1  0
  5  4  1  0
  6  5  1  0
  6  8  1  0
  6  7  1  6
  8  9  2  0
 10  8  1  0
 10 11  1  0
 11 12  1  1
 12 13  1  0
 13 14  1  0
 15 14  1  0
 16 15  1  0
 17 11  1  0
 17 18  2  0
 20 19  1  1
 20 22  1  0
 21 20  1  0
 22 24  1  0
 22 23  1  6
 23 17  1  0
 24 26  1  0
 25 24  2  0
M  END
$$$$
