QKV.pdb
     RDKit          3D

 26 25  0  0  1  0  0  0  0  0999 V2000
   17.0658  -24.8384   -9.6576 N   0  0  0  0  0  0  0  0  0  0  0  0
   18.2232  -24.6085   -8.8253 C   0  0  0  0  0  0  0  0  0  0  0  0
   18.0505  -24.5429   -7.5840 O   0  0  0  0  0  0  0  0  0  0  0  0
   19.5658  -24.4499   -9.4088 C   0  0  0  0  0  0  0  0  0  0  0  0
   19.6095  -24.5512  -10.8806 C   0  0  0  0  0  0  0  0  0  0  0  0
   18.7647  -23.5671  -11.6355 C   0  0  2  0  0  0  0  0  0  0  0  0
   17.5296  -24.1301  -12.0153 N   0  0  0  0  0  0  0  0  0  0  0  0
   19.5775  -23.0191  -12.7766 C   0  0  0  0  0  0  0  0  0  0  0  0
   20.0307  -23.8284  -13.6570 O   0  0  0  0  0  0  0  0  0  0  0  0
   19.8871  -21.6751  -12.9615 N   0  0  0  0  0  0  0  0  0  0  0  0
   20.6035  -21.1292  -14.0871 C   0  0  1  0  0  0  0  0  0  0  0  0
   20.1460  -19.7019  -14.3935 C   0  0  0  0  0  0  0  0  0  0  0  0
   20.7991  -19.1735  -15.6349 C   0  0  0  0  0  0  0  0  0  0  0  0
   20.1996  -17.8202  -15.9452 C   0  0  0  0  0  0  0  0  0  0  0  0
   20.6928  -17.2343  -17.2295 C   0  0  0  0  0  0  0  0  0  0  0  0
   19.9262  -16.0271  -17.4826 N   0  0  0  0  0  0  0  0  0  0  0  0
   22.0492  -21.1108  -13.9422 C   0  0  0  0  0  0  0  0  0  0  0  0
   22.5825  -20.5929  -12.9404 O   0  0  0  0  0  0  0  0  0  0  0  0
   24.4009  -23.9521  -14.0976 C   0  0  0  0  0  0  0  0  0  0  0  0
   24.8242  -23.0269  -15.2347 C   0  0  2  0  0  0  0  0  0  0  0  0
   26.3221  -23.0872  -15.3585 C   0  0  0  0  0  0  0  0  0  0  0  0
   24.3338  -21.6371  -14.8707 C   0  0  2  0  0  0  0  0  0  0  0  0
   22.8846  -21.6777  -14.9297 N   0  0  0  0  0  0  0  0  0  0  0  0
   24.8831  -20.6202  -15.8018 C   0  0  0  0  0  0  0  0  0  0  0  0
   24.1967  -20.2558  -16.7868 O   0  0  0  0  0  0  0  0  0  0  0  0
   26.1277  -20.0605  -15.6192 O   0  0  0  0  0  0  0  0  0  0  0  0
  2  1  1  0
  3  2  2  0
  4  2  1  0
  5  4  1  0
  6  5  1  0
  6  8  1  0
  6  7  1  6
  8  9  2  0
 10  8  1  0
 10 11  1  0
 11 12  1  1
 12 13  1  0
 13 14  1  0
 15 14  1  0
 16 15  1  0
 17 11  1  0
 17 18  2  0
 20 19  1  1
 20 22  1  0
 21 20  1  0
 22 24  1  0
 22 23  1  6
 23 17  1  0
 24 26  1  0
 25 24  2  0
M  END
$$$$
