QKV.pdb
     RDKit          3D

 26 25  0  0  1  0  0  0  0  0999 V2000
   28.4679  -17.9248  -17.4158 N   0  0  0  0  0  0  0  0  0  0  0  0
   29.0395  -18.8126  -18.4008 C   0  0  0  0  0  0  0  0  0  0  0  0
   29.9772  -18.3760  -19.1114 O   0  0  0  0  0  0  0  0  0  0  0  0
   28.5389  -20.1864  -18.5746 C   0  0  0  0  0  0  0  0  0  0  0  0
   27.4811  -20.5775  -17.6226 C   0  0  0  0  0  0  0  0  0  0  0  0
   27.9287  -20.8645  -16.2193 C   0  0  2  0  0  0  0  0  0  0  0  0
   28.8834  -21.9007  -16.1827 N   0  0  0  0  0  0  0  0  0  0  0  0
   26.7102  -21.1089  -15.3717 C   0  0  0  0  0  0  0  0  0  0  0  0
   25.6653  -21.6022  -15.9196 O   0  0  0  0  0  0  0  0  0  0  0  0
   26.6190  -20.8377  -14.0099 N   0  0  0  0  0  0  0  0  0  0  0  0
   25.4486  -21.0413  -13.1932 C   0  0  1  0  0  0  0  0  0  0  0  0
   25.7567  -20.7946  -11.7152 C   0  0  0  0  0  0  0  0  0  0  0  0
   24.5586  -21.0631  -10.8552 C   0  0  0  0  0  0  0  0  0  0  0  0
   24.9460  -20.8166   -9.4144 C   0  0  0  0  0  0  0  0  0  0  0  0
   23.8309  -21.0667   -8.4500 C   0  0  0  0  0  0  0  0  0  0  0  0
   24.3422  -20.8132   -7.1146 N   0  0  0  0  0  0  0  0  0  0  0  0
   24.3026  -20.2228  -13.5507 C   0  0  0  0  0  0  0  0  0  0  0  0
   24.3819  -18.9778  -13.5436 O   0  0  0  0  0  0  0  0  0  0  0  0
   21.2719  -21.8853  -15.6639 C   0  0  0  0  0  0  0  0  0  0  0  0
   21.4277  -20.3699  -15.5787 C   0  0  2  0  0  0  0  0  0  0  0  0
   22.4531  -19.9438  -16.5933 C   0  0  0  0  0  0  0  0  0  0  0  0
   21.8609  -20.0559  -14.1580 C   0  0  2  0  0  0  0  0  0  0  0  0
   23.0733  -20.8150  -13.9145 N   0  0  0  0  0  0  0  0  0  0  0  0
   20.7965  -20.4139  -13.1876 C   0  0  0  0  0  0  0  0  0  0  0  0
   20.8749  -21.4998  -12.5638 O   0  0  0  0  0  0  0  0  0  0  0  0
   19.7202  -19.5894  -12.9481 O   0  0  0  0  0  0  0  0  0  0  0  0
  2  1  1  0
  3  2  2  0
  4  2  1  0
  5  4  1  0
  6  5  1  0
  6  8  1  0
  6  7  1  6
  8  9  2  0
 10  8  1  0
 10 11  1  0
 11 12  1  1
 12 13  1  0
 13 14  1  0
 15 14  1  0
 16 15  1  0
 17 11  1  0
 17 18  2  0
 20 19  1  1
 20 22  1  0
 21 20  1  0
 22 24  1  0
 22 23  1  1
 23 17  1  0
 24 26  1  0
 25 24  2  0
M  END
$$$$
