QKV.pdb
     RDKit          3D

 26 25  0  0  1  0  0  0  0  0999 V2000
   18.5076  -21.1000  -14.2424 N   0  0  0  0  0  0  0  0  0  0  0  0
   18.6206  -19.9327  -15.0849 C   0  0  0  0  0  0  0  0  0  0  0  0
   17.5751  -19.4918  -15.6211 O   0  0  0  0  0  0  0  0  0  0  0  0
   19.9194  -19.2787  -15.3159 C   0  0  0  0  0  0  0  0  0  0  0  0
   21.0418  -19.8606  -14.5543 C   0  0  0  0  0  0  0  0  0  0  0  0
   22.2044  -20.3539  -15.3649 C   0  0  2  0  0  0  0  0  0  0  0  0
   21.8129  -21.3588  -16.2723 N   0  0  0  0  0  0  0  0  0  0  0  0
   23.3041  -20.7592  -14.4218 C   0  0  0  0  0  0  0  0  0  0  0  0
   23.0085  -21.4556  -13.3908 O   0  0  0  0  0  0  0  0  0  0  0  0
   24.6481  -20.4337  -14.5777 N   0  0  0  0  0  0  0  0  0  0  0  0
   25.7173  -20.8573  -13.7084 C   0  0  1  0  0  0  0  0  0  0  0  0
   27.0587  -20.8601  -14.4438 C   0  0  0  0  0  0  0  0  0  0  0  0
   27.0371  -21.7940  -15.6160 C   0  0  0  0  0  0  0  0  0  0  0  0
   28.4340  -21.8634  -16.1912 C   0  0  0  0  0  0  0  0  0  0  0  0
   28.5242  -22.6972  -17.4291 C   0  0  0  0  0  0  0  0  0  0  0  0
   29.9190  -22.7331  -17.8319 N   0  0  0  0  0  0  0  0  0  0  0  0
   25.8745  -20.0652  -12.5005 C   0  0  0  0  0  0  0  0  0  0  0  0
   25.8907  -18.8189  -12.5535 O   0  0  0  0  0  0  0  0  0  0  0  0
   25.0121  -21.5330   -8.7478 C   0  0  0  0  0  0  0  0  0  0  0  0
   25.1873  -20.0574   -9.0944 C   0  0  2  0  0  0  0  0  0  0  0  0
   23.9185  -19.5709   -9.7394 C   0  0  0  0  0  0  0  0  0  0  0  0
   26.3783  -19.9686  -10.0316 C   0  0  2  0  0  0  0  0  0  0  0  0
   26.0126  -20.6851  -11.2392 N   0  0  0  0  0  0  0  0  0  0  0  0
   27.5908  -20.5515   -9.4049 C   0  0  0  0  0  0  0  0  0  0  0  0
   28.1215  -19.9636   -8.4317 O   0  0  0  0  0  0  0  0  0  0  0  0
   28.1555  -21.7223   -9.8587 O   0  0  0  0  0  0  0  0  0  0  0  0
  2  1  1  0
  3  2  2  0
  4  2  1  0
  5  4  1  0
  6  5  1  0
  6  8  1  0
  6  7  1  1
  8  9  2  0
 10  8  1  0
 10 11  1  0
 11 12  1  6
 12 13  1  0
 13 14  1  0
 15 14  1  0
 16 15  1  0
 17 11  1  0
 17 18  2  0
 20 19  1  6
 20 22  1  0
 21 20  1  0
 22 24  1  0
 22 23  1  6
 23 17  1  0
 24 26  1  0
 25 24  2  0
M  END
$$$$
