QKV.pdb
     RDKit          3D

 26 25  0  0  1  0  0  0  0  0999 V2000
   19.3780  -19.2771  -16.0153 N   0  0  0  0  0  0  0  0  0  0  0  0
   18.3940  -18.9395  -15.0139 C   0  0  0  0  0  0  0  0  0  0  0  0
   17.1877  -19.1659  -15.2759 O   0  0  0  0  0  0  0  0  0  0  0  0
   18.7863  -18.3434  -13.7260 C   0  0  0  0  0  0  0  0  0  0  0  0
   20.0593  -18.8518  -13.1787 C   0  0  0  0  0  0  0  0  0  0  0  0
   20.0787  -20.3009  -12.7892 C   0  0  2  0  0  0  0  0  0  0  0  0
   19.5300  -20.4990  -11.5062 N   0  0  0  0  0  0  0  0  0  0  0  0
   21.4812  -20.8193  -12.9545 C   0  0  0  0  0  0  0  0  0  0  0  0
   22.3316  -20.6085  -12.0229 O   0  0  0  0  0  0  0  0  0  0  0  0
   21.9450  -21.5252  -14.0604 N   0  0  0  0  0  0  0  0  0  0  0  0
   23.2519  -22.1209  -14.1844 C   0  0  1  0  0  0  0  0  0  0  0  0
   23.2447  -23.2613  -15.2040 C   0  0  0  0  0  0  0  0  0  0  0  0
   24.5627  -23.9745  -15.2352 C   0  0  0  0  0  0  0  0  0  0  0  0
   24.4778  -25.0801  -16.2635 C   0  0  0  0  0  0  0  0  0  0  0  0
   25.7022  -25.9370  -16.3145 C   0  0  0  0  0  0  0  0  0  0  0  0
   25.4366  -27.0252  -17.2387 N   0  0  0  0  0  0  0  0  0  0  0  0
   24.3120  -21.1993  -14.5561 C   0  0  0  0  0  0  0  0  0  0  0  0
   24.0852  -20.2447  -15.3265 O   0  0  0  0  0  0  0  0  0  0  0  0
   27.2521  -20.4416  -12.0012 C   0  0  0  0  0  0  0  0  0  0  0  0
   27.8246  -20.7509  -13.3813 C   0  0  2  0  0  0  0  0  0  0  0  0
   29.0272  -19.8743  -13.5999 C   0  0  0  0  0  0  0  0  0  0  0  0
   26.7198  -20.4701  -14.3839 C   0  0  2  0  0  0  0  0  0  0  0  0
   25.6226  -21.3611  -14.0556 N   0  0  0  0  0  0  0  0  0  0  0  0
   27.1955  -20.6896  -15.7726 C   0  0  0  0  0  0  0  0  0  0  0  0
   27.3910  -21.8615  -16.1762 O   0  0  0  0  0  0  0  0  0  0  0  0
   27.4307  -19.6442  -16.6370 O   0  0  0  0  0  0  0  0  0  0  0  0
  2  1  1  0
  3  2  2  0
  4  2  1  0
  5  4  1  0
  6  5  1  0
  6  8  1  0
  6  7  1  1
  8  9  2  0
 10  8  1  0
 10 11  1  0
 11 12  1  6
 12 13  1  0
 13 14  1  0
 15 14  1  0
 16 15  1  0
 17 11  1  0
 17 18  2  0
 20 19  1  1
 20 22  1  0
 21 20  1  0
 22 24  1  0
 22 23  1  1
 23 17  1  0
 24 26  1  0
 25 24  2  0
M  END
$$$$
