QKV.pdb
     RDKit          3D

 26 25  0  0  1  0  0  0  0  0999 V2000
   21.8603  -21.3614  -12.5676 N   0  0  0  0  0  0  0  0  0  0  0  0
   21.5058  -21.2320  -11.1738 C   0  0  0  0  0  0  0  0  0  0  0  0
   20.4495  -21.7853  -10.7825 O   0  0  0  0  0  0  0  0  0  0  0  0
   22.3499  -20.4719  -10.2370 C   0  0  0  0  0  0  0  0  0  0  0  0
   23.5846  -19.9241  -10.8319 C   0  0  0  0  0  0  0  0  0  0  0  0
   24.8049  -20.7923  -10.7368 C   0  0  2  0  0  0  0  0  0  0  0  0
   25.4121  -20.6938   -9.4687 N   0  0  0  0  0  0  0  0  0  0  0  0
   25.7132  -20.4644  -11.8903 C   0  0  0  0  0  0  0  0  0  0  0  0
   26.4671  -19.4346  -11.8098 O   0  0  0  0  0  0  0  0  0  0  0  0
   25.8061  -21.2023  -13.0664 N   0  0  0  0  0  0  0  0  0  0  0  0
   26.5372  -20.8089  -14.2450 C   0  0  1  0  0  0  0  0  0  0  0  0
   26.8154  -22.0109  -15.1493 C   0  0  0  0  0  0  0  0  0  0  0  0
   27.8120  -21.6725  -16.2166 C   0  0  0  0  0  0  0  0  0  0  0  0
   28.1175  -22.9326  -16.9950 C   0  0  0  0  0  0  0  0  0  0  0  0
   29.1804  -22.7464  -18.0302 C   0  0  0  0  0  0  0  0  0  0  0  0
   29.5270  -24.0602  -18.5427 N   0  0  0  0  0  0  0  0  0  0  0  0
   25.8937  -19.7857  -15.0514 C   0  0  0  0  0  0  0  0  0  0  0  0
   24.6575  -19.7903  -15.2187 O   0  0  0  0  0  0  0  0  0  0  0  0
   28.2705  -16.6788  -16.3683 C   0  0  0  0  0  0  0  0  0  0  0  0
   26.7823  -16.4319  -16.1390 C   0  0  2  0  0  0  0  0  0  0  0  0
   26.5848  -16.0484  -14.6979 C   0  0  0  0  0  0  0  0  0  0  0  0
   26.0671  -17.7236  -16.4923 C   0  0  2  0  0  0  0  0  0  0  0  0
   26.6502  -18.7628  -15.6644 N   0  0  0  0  0  0  0  0  0  0  0  0
   26.2181  -18.0356  -17.9354 C   0  0  0  0  0  0  0  0  0  0  0  0
   25.3940  -17.5627  -18.7549 O   0  0  0  0  0  0  0  0  0  0  0  0
   27.2379  -18.8312  -18.4070 O   0  0  0  0  0  0  0  0  0  0  0  0
  2  1  1  0
  3  2  2  0
  4  2  1  0
  5  4  1  0
  6  5  1  0
  6  8  1  0
  6  7  1  1
  8  9  2  0
 10  8  1  0
 10 11  1  0
 11 12  1  6
 12 13  1  0
 13 14  1  0
 15 14  1  0
 16 15  1  0
 17 11  1  0
 17 18  2  0
 20 19  1  1
 20 22  1  0
 21 20  1  0
 22 24  1  0
 22 23  1  1
 23 17  1  0
 24 26  1  0
 25 24  2  0
M  END
$$$$
