QKV.pdb
     RDKit          3D

 26 25  0  0  1  0  0  0  0  0999 V2000
   20.2158  -18.3489  -18.7524 N   0  0  0  0  0  0  0  0  0  0  0  0
   21.0450  -18.9591  -19.7649 C   0  0  0  0  0  0  0  0  0  0  0  0
   20.7364  -18.7737  -20.9671 O   0  0  0  0  0  0  0  0  0  0  0  0
   22.2141  -19.7786  -19.4047 C   0  0  0  0  0  0  0  0  0  0  0  0
   22.3860  -19.9961  -17.9551 C   0  0  0  0  0  0  0  0  0  0  0  0
   23.3951  -19.1210  -17.2711 C   0  0  2  0  0  0  0  0  0  0  0  0
   24.2709  -18.5200  -18.1975 N   0  0  0  0  0  0  0  0  0  0  0  0
   24.0776  -19.9285  -16.2009 C   0  0  0  0  0  0  0  0  0  0  0  0
   23.3768  -20.7237  -15.4854 O   0  0  0  0  0  0  0  0  0  0  0  0
   25.4387  -19.8837  -15.9147 N   0  0  0  0  0  0  0  0  0  0  0  0
   26.0919  -20.5951  -14.8444 C   0  0  1  0  0  0  0  0  0  0  0  0
   27.6094  -20.6114  -15.0375 C   0  0  0  0  0  0  0  0  0  0  0  0
   28.0231  -21.6602  -16.0253 C   0  0  0  0  0  0  0  0  0  0  0  0
   28.5699  -20.9650  -17.2519 C   0  0  0  0  0  0  0  0  0  0  0  0
   29.0274  -21.9119  -18.3150 C   0  0  0  0  0  0  0  0  0  0  0  0
   29.6579  -21.1250  -19.3601 N   0  0  0  0  0  0  0  0  0  0  0  0
   25.8191  -20.0824  -13.5124 C   0  0  0  0  0  0  0  0  0  0  0  0
   26.0078  -18.8793  -13.2419 O   0  0  0  0  0  0  0  0  0  0  0  0
   22.6571  -20.4474  -11.9416 C   0  0  0  0  0  0  0  0  0  0  0  0
   23.5887  -21.0146  -10.8745 C   0  0  2  0  0  0  0  0  0  0  0  0
   23.0793  -20.5831   -9.5266 C   0  0  0  0  0  0  0  0  0  0  0  0
   24.9729  -20.4647  -11.1680 C   0  0  2  0  0  0  0  0  0  0  0  0
   25.3345  -20.9315  -12.4934 N   0  0  0  0  0  0  0  0  0  0  0  0
   25.9517  -20.9210  -10.1499 C   0  0  0  0  0  0  0  0  0  0  0  0
   26.5512  -22.0100  -10.3200 O   0  0  0  0  0  0  0  0  0  0  0  0
   26.2249  -20.1848   -9.0190 O   0  0  0  0  0  0  0  0  0  0  0  0
  2  1  1  0
  3  2  2  0
  4  2  1  0
  5  4  1  0
  6  5  1  0
  6  8  1  0
  6  7  1  6
  8  9  2  0
 10  8  1  0
 10 11  1  0
 11 12  1  6
 12 13  1  0
 13 14  1  0
 15 14  1  0
 16 15  1  0
 17 11  1  0
 17 18  2  0
 20 19  1  6
 20 22  1  0
 21 20  1  0
 22 24  1  0
 22 23  1  6
 23 17  1  0
 24 26  1  0
 25 24  2  0
M  END
$$$$
