QKV.pdb
     RDKit          3D

 26 25  0  0  1  0  0  0  0  0999 V2000
   28.7532  -23.3571  -16.7066 N   0  0  0  0  0  0  0  0  0  0  0  0
   29.6736  -22.6822  -17.5911 C   0  0  0  0  0  0  0  0  0  0  0  0
   30.4117  -23.3879  -18.3206 O   0  0  0  0  0  0  0  0  0  0  0  0
   29.7526  -21.2126  -17.6366 C   0  0  0  0  0  0  0  0  0  0  0  0
   28.8172  -20.5209  -16.7283 C   0  0  0  0  0  0  0  0  0  0  0  0
   27.3733  -20.5276  -17.1371 C   0  0  2  0  0  0  0  0  0  0  0  0
   27.1594  -19.7492  -18.2925 N   0  0  0  0  0  0  0  0  0  0  0  0
   26.5409  -20.1245  -15.9507 C   0  0  0  0  0  0  0  0  0  0  0  0
   26.6054  -18.9179  -15.5319 O   0  0  0  0  0  0  0  0  0  0  0  0
   25.6862  -20.9716  -15.2518 N   0  0  0  0  0  0  0  0  0  0  0  0
   24.9072  -20.6053  -14.0955 C   0  0  1  0  0  0  0  0  0  0  0  0
   23.4363  -20.9843  -14.2778 C   0  0  0  0  0  0  0  0  0  0  0  0
   22.6223  -20.6077  -13.0768 C   0  0  0  0  0  0  0  0  0  0  0  0
   21.1853  -21.0001  -13.3376 C   0  0  0  0  0  0  0  0  0  0  0  0
   20.2324  -20.4756  -12.3115 C   0  0  0  0  0  0  0  0  0  0  0  0
   18.8942  -20.8693  -12.7154 N   0  0  0  0  0  0  0  0  0  0  0  0
   25.3627  -21.1829  -12.8424 C   0  0  0  0  0  0  0  0  0  0  0  0
   25.3302  -22.4166  -12.6605 O   0  0  0  0  0  0  0  0  0  0  0  0
   28.4661  -20.2303  -10.8060 C   0  0  0  0  0  0  0  0  0  0  0  0
   27.2535  -19.9929   -9.9108 C   0  0  2  0  0  0  0  0  0  0  0  0
   27.6237  -20.3771   -8.5044 C   0  0  0  0  0  0  0  0  0  0  0  0
   26.1297  -20.8510  -10.4633 C   0  0  2  0  0  0  0  0  0  0  0  0
   25.8525  -20.3636  -11.8016 N   0  0  0  0  0  0  0  0  0  0  0  0
   24.9257  -20.7686   -9.5994 C   0  0  0  0  0  0  0  0  0  0  0  0
   24.1323  -19.8071   -9.7427 O   0  0  0  0  0  0  0  0  0  0  0  0
   24.6492  -21.7173   -8.6408 O   0  0  0  0  0  0  0  0  0  0  0  0
  2  1  1  0
  3  2  2  0
  4  2  1  0
  5  4  1  0
  6  5  1  0
  6  8  1  0
  6  7  1  6
  8  9  2  0
 10  8  1  0
 10 11  1  0
 11 12  1  6
 12 13  1  0
 13 14  1  0
 15 14  1  0
 16 15  1  0
 17 11  1  0
 17 18  2  0
 20 19  1  6
 20 22  1  0
 21 20  1  0
 22 24  1  0
 22 23  1  6
 23 17  1  0
 24 26  1  0
 25 24  2  0
M  END
$$$$
