QKV.pdb
     RDKit          3D

 26 25  0  0  1  0  0  0  0  0999 V2000
   19.9300  -14.5778  -15.3586 N   0  0  0  0  0  0  0  0  0  0  0  0
   19.9310  -14.0878  -16.7168 C   0  0  0  0  0  0  0  0  0  0  0  0
   20.3238  -14.8642  -17.6212 O   0  0  0  0  0  0  0  0  0  0  0  0
   19.4913  -12.7194  -17.0369 C   0  0  0  0  0  0  0  0  0  0  0  0
   19.0107  -11.9438  -15.8768 C   0  0  0  0  0  0  0  0  0  0  0  0
   17.7576  -11.1460  -16.0893 C   0  0  2  0  0  0  0  0  0  0  0  0
   17.1004  -11.5220  -17.2781 N   0  0  0  0  0  0  0  0  0  0  0  0
   18.1036   -9.6845  -16.0034 C   0  0  0  0  0  0  0  0  0  0  0  0
   18.7758   -9.1520  -16.9521 O   0  0  0  0  0  0  0  0  0  0  0  0
   17.7474   -8.8413  -14.9553 N   0  0  0  0  0  0  0  0  0  0  0  0
   18.0047   -7.4240  -14.8979 C   0  0  1  0  0  0  0  0  0  0  0  0
   16.8345   -6.6757  -14.2569 C   0  0  0  0  0  0  0  0  0  0  0  0
   15.5860   -6.8103  -15.0754 C   0  0  0  0  0  0  0  0  0  0  0  0
   14.4966   -5.9965  -14.4135 C   0  0  0  0  0  0  0  0  0  0  0  0
   13.1780   -6.0926  -15.1121 C   0  0  0  0  0  0  0  0  0  0  0  0
   13.4421   -6.1554  -16.5387 N   0  0  0  0  0  0  0  0  0  0  0  0
   19.2148   -7.0498  -14.1859 C   0  0  0  0  0  0  0  0  0  0  0  0
   19.4541   -7.5094  -13.0511 O   0  0  0  0  0  0  0  0  0  0  0  0
   22.6326   -7.3426  -15.3818 C   0  0  0  0  0  0  0  0  0  0  0  0
   22.4886   -5.8534  -15.0820 C   0  0  2  0  0  0  0  0  0  0  0  0
   23.7957   -5.3557  -14.5286 C   0  0  0  0  0  0  0  0  0  0  0  0
   21.3536   -5.7181  -14.0829 C   0  0  2  0  0  0  0  0  0  0  0  0
   20.1480   -6.1586  -14.7596 N   0  0  0  0  0  0  0  0  0  0  0  0
   21.2261   -4.3165  -13.6118 C   0  0  0  0  0  0  0  0  0  0  0  0
   20.4027   -3.5534  -14.1722 O   0  0  0  0  0  0  0  0  0  0  0  0
   21.9856   -3.8234  -12.5748 O   0  0  0  0  0  0  0  0  0  0  0  0
  2  1  1  0
  3  2  2  0
  4  2  1  0
  5  4  1  0
  6  5  1  0
  6  8  1  0
  6  7  1  6
  8  9  2  0
 10  8  1  0
 10 11  1  0
 11 12  1  1
 12 13  1  0
 13 14  1  0
 15 14  1  0
 16 15  1  0
 17 11  1  0
 17 18  2  0
 20 19  1  1
 20 22  1  0
 21 20  1  0
 22 24  1  0
 22 23  1  6
 23 17  1  0
 24 26  1  0
 25 24  2  0
M  END
$$$$
