QKV.pdb
     RDKit          3D

 26 25  0  0  1  0  0  0  0  0999 V2000
   21.7299  -16.3504  -15.9614 N   0  0  0  0  0  0  0  0  0  0  0  0
   22.9366  -16.3277  -16.7541 C   0  0  0  0  0  0  0  0  0  0  0  0
   23.4850  -15.2174  -16.9578 O   0  0  0  0  0  0  0  0  0  0  0  0
   23.5080  -17.5642  -17.3134 C   0  0  0  0  0  0  0  0  0  0  0  0
   22.7948  -18.7973  -16.9272 C   0  0  0  0  0  0  0  0  0  0  0  0
   23.3031  -19.4977  -15.7012 C   0  0  2  0  0  0  0  0  0  0  0  0
   24.4678  -20.2422  -15.9763 N   0  0  0  0  0  0  0  0  0  0  0  0
   22.1759  -20.2991  -15.1093 C   0  0  0  0  0  0  0  0  0  0  0  0
   21.6147  -21.1982  -15.8249 O   0  0  0  0  0  0  0  0  0  0  0  0
   21.6784  -20.1427  -13.8192 N   0  0  0  0  0  0  0  0  0  0  0  0
   20.5901  -20.8945  -13.2458 C   0  0  1  0  0  0  0  0  0  0  0  0
   20.7189  -20.9794  -11.7238 C   0  0  0  0  0  0  0  0  0  0  0  0
   19.7689  -21.9872  -11.1505 C   0  0  0  0  0  0  0  0  0  0  0  0
   19.8734  -21.9314   -9.6429 C   0  0  0  0  0  0  0  0  0  0  0  0
   18.9931  -22.9225   -8.9510 C   0  0  0  0  0  0  0  0  0  0  0  0
   19.1372  -22.7125   -7.5212 N   0  0  0  0  0  0  0  0  0  0  0  0
   19.2648  -20.3832  -13.5516 C   0  0  0  0  0  0  0  0  0  0  0  0
   19.0000  -19.1728  -13.4070 O   0  0  0  0  0  0  0  0  0  0  0  0
   17.4242  -20.9821  -16.6967 C   0  0  0  0  0  0  0  0  0  0  0  0
   16.4856  -21.4885  -15.6054 C   0  0  2  0  0  0  0  0  0  0  0  0
   15.0746  -21.1533  -16.0045 C   0  0  0  0  0  0  0  0  0  0  0  0
   16.8986  -20.7951  -14.3196 C   0  0  2  0  0  0  0  0  0  0  0  0
   18.2459  -21.2421  -14.0192 N   0  0  0  0  0  0  0  0  0  0  0  0
   15.9626  -21.1239  -13.2156 C   0  0  0  0  0  0  0  0  0  0  0  0
   16.0877  -22.2156  -12.6099 O   0  0  0  0  0  0  0  0  0  0  0  0
   14.9565  -20.2659  -12.8322 O   0  0  0  0  0  0  0  0  0  0  0  0
  2  1  1  0
  3  2  2  0
  4  2  1  0
  5  4  1  0
  6  5  1  0
  6  8  1  0
  6  7  1  6
  8  9  2  0
 10  8  1  0
 10 11  1  0
 11 12  1  1
 12 13  1  0
 13 14  1  0
 15 14  1  0
 16 15  1  0
 17 11  1  0
 17 18  2  0
 20 19  1  6
 20 22  1  0
 21 20  1  0
 22 24  1  0
 22 23  1  1
 23 17  1  0
 24 26  1  0
 25 24  2  0
M  END
$$$$
