QKV.pdb
     RDKit          3D

 26 25  0  0  1  0  0  0  0  0999 V2000
   16.2102  -12.0750  -14.9155 N   0  0  0  0  0  0  0  0  0  0  0  0
   15.6787  -12.8240  -13.8013 C   0  0  0  0  0  0  0  0  0  0  0  0
   15.6636  -14.0759  -13.8887 O   0  0  0  0  0  0  0  0  0  0  0  0
   15.1641  -12.1463  -12.5996 C   0  0  0  0  0  0  0  0  0  0  0  0
   15.3710  -10.6851  -12.5851 C   0  0  0  0  0  0  0  0  0  0  0  0
   14.9182   -9.9663  -11.3480 C   0  0  2  0  0  0  0  0  0  0  0  0
   13.5146   -9.9876  -11.2221 N   0  0  0  0  0  0  0  0  0  0  0  0
   15.5234   -8.5891  -11.3494 C   0  0  0  0  0  0  0  0  0  0  0  0
   15.2908   -7.8129  -12.3388 O   0  0  0  0  0  0  0  0  0  0  0  0
   16.3347   -8.0739  -10.3430 N   0  0  0  0  0  0  0  0  0  0  0  0
   16.8963   -6.7464  -10.3191 C   0  0  1  0  0  0  0  0  0  0  0  0
   16.5220   -6.0115   -9.0307 C   0  0  0  0  0  0  0  0  0  0  0  0
   15.1042   -5.5265   -9.0707 C   0  0  0  0  0  0  0  0  0  0  0  0
   14.8706   -4.6484   -7.8618 C   0  0  0  0  0  0  0  0  0  0  0  0
   13.5120   -4.0241   -7.8368 C   0  0  0  0  0  0  0  0  0  0  0  0
   13.4365   -3.1878   -6.6519 N   0  0  0  0  0  0  0  0  0  0  0  0
   18.3416   -6.6904  -10.4585 C   0  0  0  0  0  0  0  0  0  0  0  0
   19.0861   -7.0497   -9.5242 O   0  0  0  0  0  0  0  0  0  0  0  0
   19.6370   -6.6800  -14.2570 C   0  0  0  0  0  0  0  0  0  0  0  0
   20.4654   -7.2990  -13.1350 C   0  0  2  0  0  0  0  0  0  0  0  0
   19.9117   -8.6660  -12.8395 C   0  0  0  0  0  0  0  0  0  0  0  0
   20.3529   -6.3643  -11.9441 C   0  0  2  0  0  0  0  0  0  0  0  0
   18.9379   -6.2291  -11.6526 N   0  0  0  0  0  0  0  0  0  0  0  0
   20.9701   -5.0480  -12.2428 C   0  0  0  0  0  0  0  0  0  0  0  0
   20.2306   -4.0691  -12.5059 O   0  0  0  0  0  0  0  0  0  0  0  0
   22.3346   -4.8648  -12.2407 O   0  0  0  0  0  0  0  0  0  0  0  0
  2  1  1  0
  3  2  2  0
  4  2  1  0
  5  4  1  0
  6  5  1  0
  6  8  1  0
  6  7  1  6
  8  9  2  0
 10  8  1  0
 10 11  1  0
 11 12  1  1
 12 13  1  0
 13 14  1  0
 15 14  1  0
 16 15  1  0
 17 11  1  0
 17 18  2  0
 20 19  1  6
 20 22  1  0
 21 20  1  0
 22 24  1  0
 22 23  1  6
 23 17  1  0
 24 26  1  0
 25 24  2  0
M  END
$$$$
