QKV.pdb
     RDKit          3D

 26 25  0  0  1  0  0  0  0  0999 V2000
   18.5199  -21.3023  -16.0978 N   0  0  0  0  0  0  0  0  0  0  0  0
   18.7292  -21.1460  -14.6776 C   0  0  0  0  0  0  0  0  0  0  0  0
   18.8495  -22.1848  -13.9837 O   0  0  0  0  0  0  0  0  0  0  0  0
   18.7952  -19.8128  -14.0561 C   0  0  0  0  0  0  0  0  0  0  0  0
   20.1617  -19.3482  -13.7477 C   0  0  0  0  0  0  0  0  0  0  0  0
   21.2105  -20.4148  -13.6277 C   0  0  2  0  0  0  0  0  0  0  0  0
   21.4522  -20.7532  -12.2810 N   0  0  0  0  0  0  0  0  0  0  0  0
   22.4303  -19.9703  -14.3876 C   0  0  0  0  0  0  0  0  0  0  0  0
   22.8015  -18.7496  -14.3009 O   0  0  0  0  0  0  0  0  0  0  0  0
   23.2085  -20.7923  -15.1970 N   0  0  0  0  0  0  0  0  0  0  0  0
   24.3678  -20.3739  -15.9450 C   0  0  1  0  0  0  0  0  0  0  0  0
   25.4535  -21.4515  -15.9295 C   0  0  0  0  0  0  0  0  0  0  0  0
   26.6882  -20.9933  -16.6454 C   0  0  0  0  0  0  0  0  0  0  0  0
   27.6639  -22.1477  -16.6917 C   0  0  0  0  0  0  0  0  0  0  0  0
   28.9837  -21.7842  -17.2934 C   0  0  0  0  0  0  0  0  0  0  0  0
   29.8446  -22.9496  -17.1965 N   0  0  0  0  0  0  0  0  0  0  0  0
   24.1085  -20.0243  -17.3313 C   0  0  0  0  0  0  0  0  0  0  0  0
   23.4405  -20.7807  -18.0648 O   0  0  0  0  0  0  0  0  0  0  0  0
   24.8690  -16.1908  -18.4285 C   0  0  0  0  0  0  0  0  0  0  0  0
   23.8872  -17.0143  -19.2568 C   0  0  2  0  0  0  0  0  0  0  0  0
   22.5303  -16.9147  -18.6154 C   0  0  0  0  0  0  0  0  0  0  0  0
   24.4139  -18.4381  -19.2675 C   0  0  2  0  0  0  0  0  0  0  0  0
   24.6051  -18.8223  -17.8814 N   0  0  0  0  0  0  0  0  0  0  0  0
   25.6827  -18.5284  -20.0321 C   0  0  0  0  0  0  0  0  0  0  0  0
   25.6467  -18.5020  -21.2861 O   0  0  0  0  0  0  0  0  0  0  0  0
   26.9045  -18.6408  -19.4075 O   0  0  0  0  0  0  0  0  0  0  0  0
  2  1  1  0
  3  2  2  0
  4  2  1  0
  5  4  1  0
  6  5  1  0
  6  8  1  0
  6  7  1  1
  8  9  2  0
 10  8  1  0
 10 11  1  0
 11 12  1  6
 12 13  1  0
 13 14  1  0
 15 14  1  0
 16 15  1  0
 17 11  1  0
 17 18  2  0
 20 19  1  1
 20 22  1  0
 21 20  1  0
 22 24  1  0
 22 23  1  1
 23 17  1  0
 24 26  1  0
 25 24  2  0
M  END
$$$$
