PEA.pdb
     RDKit          3D

 22 22  0  0  1  0  0  0  0  0999 V2000
    7.7064  -15.0642   18.9592 N   0  0  0  0  0  0  0  0  0  0  0  0
    8.0458  -14.2108   17.8591 C   0  0  0  0  0  0  0  0  0  0  0  0
    8.2834  -12.8190   18.3876 C   0  0  0  0  0  0  0  0  0  0  0  0
    7.8657  -12.9588   19.8577 C   0  0  0  0  0  0  0  0  0  0  0  0
    8.2641  -14.4038   20.0990 C   0  0  1  0  0  0  0  0  0  0  0  0
    7.7591  -14.9272   21.3828 C   0  0  0  0  0  0  0  0  0  0  0  0
    6.5117  -15.1357   21.5304 O   0  0  0  0  0  0  0  0  0  0  0  0
    8.6936  -15.1864   22.4304 N   0  0  0  0  0  0  0  0  0  0  0  0
    8.2214  -15.6341   23.7003 C   0  0  1  0  0  0  0  0  0  0  0  0
    8.6820  -16.9791   24.1196 C   0  0  0  0  0  0  0  0  0  0  0  0
   10.1285  -17.1288   24.3569 C   0  0  0  0  0  0  0  0  0  0  0  0
   10.6674  -18.3841   24.8189 C   0  0  0  0  0  0  0  0  0  0  0  0
   10.4048  -18.9689   25.8765 O   0  0  0  0  0  0  0  0  0  0  0  0
    8.5350  -14.5861   24.7234 C   0  0  0  0  0  0  0  0  0  0  0  0
    9.6994  -14.1287   24.7854 O   0  0  0  0  0  0  0  0  0  0  0  0
   11.6033  -19.0332   23.9803 O   0  0  0  0  0  0  0  0  0  0  0  0
    6.5325  -12.4061   26.9368 C   0  0  0  0  0  0  0  0  0  0  0  0
    7.8085  -13.1323   26.5691 C   0  0  2  0  0  0  0  0  0  0  0  0
    7.4981  -14.1538   25.5809 N   0  0  0  0  0  0  0  0  0  0  0  0
    8.3357  -13.8101   27.7886 C   0  0  0  0  0  0  0  0  0  0  0  0
    8.2825  -15.0623   27.9306 O   0  0  0  0  0  0  0  0  0  0  0  0
    8.8985  -13.0439   28.7920 O   0  0  0  0  0  0  0  0  0  0  0  0
  1  5  1  0
  2  1  1  0
  3  4  1  0
  3  2  1  0
  4  5  1  0
  5  6  1  1
  6  7  2  0
  8  9  1  0
  8  6  1  0
  9 14  1  0
  9 10  1  1
 11 10  1  0
 11 12  1  0
 12 13  2  0
 12 16  1  0
 14 15  2  0
 14 19  1  0
 18 17  1  1
 18 20  1  0
 19 18  1  0
 20 22  1  0
 21 20  2  0
M  END
$$$$
