PEA.pdb
     RDKit          3D

 22 22  0  0  1  0  0  0  0  0999 V2000
    8.6597  -14.9752   19.7673 N   0  0  0  0  0  0  0  0  0  0  0  0
    8.7551  -14.5504   18.4020 C   0  0  0  0  0  0  0  0  0  0  0  0
    7.8279  -13.3791   18.1986 C   0  0  0  0  0  0  0  0  0  0  0  0
    7.0855  -13.3212   19.5405 C   0  0  0  0  0  0  0  0  0  0  0  0
    8.1856  -13.8177   20.4614 C   0  0  1  0  0  0  0  0  0  0  0  0
    7.6994  -14.1112   21.8233 C   0  0  0  0  0  0  0  0  0  0  0  0
    7.0963  -13.2059   22.4849 O   0  0  0  0  0  0  0  0  0  0  0  0
    7.9223  -15.4141   22.3627 N   0  0  0  0  0  0  0  0  0  0  0  0
    7.3808  -15.7495   23.6395 C   0  0  1  0  0  0  0  0  0  0  0  0
    7.5419  -17.1632   24.0547 C   0  0  0  0  0  0  0  0  0  0  0  0
    6.9989  -17.5208   25.3770 C   0  0  0  0  0  0  0  0  0  0  0  0
    7.0853  -18.8767   25.8604 C   0  0  0  0  0  0  0  0  0  0  0  0
    7.4331  -19.8787   25.2244 O   0  0  0  0  0  0  0  0  0  0  0  0
    7.9295  -14.7968   24.6567 C   0  0  0  0  0  0  0  0  0  0  0  0
    9.1661  -14.6019   24.6997 O   0  0  0  0  0  0  0  0  0  0  0  0
    6.7363  -19.1042   27.2121 O   0  0  0  0  0  0  0  0  0  0  0  0
    6.3924  -12.3146   26.9609 C   0  0  0  0  0  0  0  0  0  0  0  0
    7.5472  -13.1367   26.4303 C   0  0  2  0  0  0  0  0  0  0  0  0
    7.0242  -14.1530   25.5303 N   0  0  0  0  0  0  0  0  0  0  0  0
    8.2045  -13.8259   27.5781 C   0  0  0  0  0  0  0  0  0  0  0  0
    8.1010  -15.0703   27.7560 O   0  0  0  0  0  0  0  0  0  0  0  0
    8.9482  -13.0793   28.4725 O   0  0  0  0  0  0  0  0  0  0  0  0
  1  5  1  0
  2  1  1  0
  3  4  1  0
  3  2  1  0
  4  5  1  0
  5  6  1  1
  6  7  2  0
  8  9  1  0
  8  6  1  0
  9 14  1  0
  9 10  1  1
 11 10  1  0
 11 12  1  0
 12 13  2  0
 12 16  1  0
 14 15  2  0
 14 19  1  0
 18 17  1  1
 18 20  1  0
 19 18  1  0
 20 22  1  0
 21 20  2  0
M  END
$$$$
