PEA.pdb
     RDKit          3D

 22 22  0  0  1  0  0  0  0  0999 V2000
    8.3333  -13.4008   20.3225 N   0  0  0  0  0  0  0  0  0  0  0  0
    7.5459  -12.6984   19.3529 C   0  0  0  0  0  0  0  0  0  0  0  0
    6.5958  -13.6755   18.7082 C   0  0  0  0  0  0  0  0  0  0  0  0
    7.0661  -15.0137   19.2940 C   0  0  0  0  0  0  0  0  0  0  0  0
    7.5390  -14.5424   20.6575 C   0  0  1  0  0  0  0  0  0  0  0  0
    8.2881  -15.5807   21.3910 C   0  0  0  0  0  0  0  0  0  0  0  0
    7.7173  -16.6809   21.6826 O   0  0  0  0  0  0  0  0  0  0  0  0
    9.6432  -15.3174   21.7550 N   0  0  0  0  0  0  0  0  0  0  0  0
   10.4353  -16.3601   22.3218 C   0  0  1  0  0  0  0  0  0  0  0  0
   11.8238  -16.4613   21.8132 C   0  0  0  0  0  0  0  0  0  0  0  0
   12.6514  -17.5379   22.3853 C   0  0  0  0  0  0  0  0  0  0  0  0
   14.0060  -17.7375   21.9329 C   0  0  0  0  0  0  0  0  0  0  0  0
   14.6221  -17.0703   21.0934 O   0  0  0  0  0  0  0  0  0  0  0  0
   10.3885  -16.2387   23.8139 C   0  0  0  0  0  0  0  0  0  0  0  0
   11.1435  -16.9608   24.5048 O   0  0  0  0  0  0  0  0  0  0  0  0
   14.7257  -18.8133   22.5032 O   0  0  0  0  0  0  0  0  0  0  0  0
    8.4744  -14.1195   26.2222 C   0  0  0  0  0  0  0  0  0  0  0  0
    9.3521  -15.2892   25.8319 C   0  0  2  0  0  0  0  0  0  0  0  0
    9.4898  -15.3087   24.3837 N   0  0  0  0  0  0  0  0  0  0  0  0
    8.6747  -16.5500   26.2514 C   0  0  0  0  0  0  0  0  0  0  0  0
    8.1245  -17.3201   25.4177 O   0  0  0  0  0  0  0  0  0  0  0  0
    8.6494  -16.8840   27.5925 O   0  0  0  0  0  0  0  0  0  0  0  0
  1  5  1  0
  2  1  1  0
  3  4  1  0
  3  2  1  0
  4  5  1  0
  5  6  1  6
  6  7  2  0
  8  9  1  0
  8  6  1  0
  9 14  1  0
  9 10  1  6
 11 10  1  0
 11 12  1  0
 12 13  2  0
 12 16  1  0
 14 15  2  0
 14 19  1  0
 18 17  1  6
 18 20  1  0
 19 18  1  0
 20 22  1  0
 21 20  2  0
M  END
$$$$
