PEA.pdb
     RDKit          3D

 22 22  0  0  1  0  0  0  0  0999 V2000
    7.7503  -14.8546   19.4859 N   0  0  0  0  0  0  0  0  0  0  0  0
    7.4153  -14.0821   18.3264 C   0  0  0  0  0  0  0  0  0  0  0  0
    7.5239  -12.6197   18.6768 C   0  0  0  0  0  0  0  0  0  0  0  0
    7.7768  -12.6707   20.1897 C   0  0  0  0  0  0  0  0  0  0  0  0
    8.5543  -13.9720   20.2739 C   0  0  1  0  0  0  0  0  0  0  0  0
    8.7416  -14.4350   21.6623 C   0  0  0  0  0  0  0  0  0  0  0  0
    9.3457  -13.6886   22.4985 O   0  0  0  0  0  0  0  0  0  0  0  0
    8.2349  -15.7182   22.0292 N   0  0  0  0  0  0  0  0  0  0  0  0
    8.3341  -16.1531   23.3846 C   0  0  1  0  0  0  0  0  0  0  0  0
    9.3329  -17.2164   23.6470 C   0  0  0  0  0  0  0  0  0  0  0  0
    9.4961  -17.6256   25.0531 C   0  0  0  0  0  0  0  0  0  0  0  0
   10.4645  -18.6313   25.4141 C   0  0  0  0  0  0  0  0  0  0  0  0
   10.9163  -18.8668   26.5410 O   0  0  0  0  0  0  0  0  0  0  0  0
    8.5443  -14.9540   24.2572 C   0  0  0  0  0  0  0  0  0  0  0  0
    9.6298  -14.3334   24.1834 O   0  0  0  0  0  0  0  0  0  0  0  0
   10.9644  -19.4496   24.3744 O   0  0  0  0  0  0  0  0  0  0  0  0
    6.4341  -12.6607   26.1510 C   0  0  0  0  0  0  0  0  0  0  0  0
    7.7298  -13.4297   26.0068 C   0  0  2  0  0  0  0  0  0  0  0  0
    7.5030  -14.5698   25.1320 N   0  0  0  0  0  0  0  0  0  0  0  0
    8.1263  -13.9452   27.3490 C   0  0  0  0  0  0  0  0  0  0  0  0
    8.3980  -13.1707   28.3066 O   0  0  0  0  0  0  0  0  0  0  0  0
    8.1980  -15.3110   27.5489 O   0  0  0  0  0  0  0  0  0  0  0  0
  1  5  1  0
  2  1  1  0
  3  4  1  0
  3  2  1  0
  4  5  1  0
  5  6  1  1
  6  7  2  0
  8  9  1  0
  8  6  1  0
  9 14  1  0
  9 10  1  6
 11 10  1  0
 11 12  1  0
 12 13  2  0
 12 16  1  0
 14 15  2  0
 14 19  1  0
 18 17  1  1
 18 20  1  0
 19 18  1  0
 20 22  1  0
 21 20  2  0
M  END
$$$$
