PEA.pdb
     RDKit          3D

 22 22  0  0  1  0  0  0  0  0999 V2000
    8.3820  -15.1470   20.0573 N   0  0  0  0  0  0  0  0  0  0  0  0
    8.2340  -14.6231   18.7317 C   0  0  0  0  0  0  0  0  0  0  0  0
    7.5707  -13.2722   18.8215 C   0  0  0  0  0  0  0  0  0  0  0  0
    7.2101  -13.1906   20.3109 C   0  0  0  0  0  0  0  0  0  0  0  0
    8.3621  -13.9881   20.8956 C   0  0  1  0  0  0  0  0  0  0  0  0
    8.1697  -14.3035   22.3242 C   0  0  0  0  0  0  0  0  0  0  0  0
    7.9964  -13.3582   23.1595 O   0  0  0  0  0  0  0  0  0  0  0  0
    8.1839  -15.6721   22.7301 N   0  0  0  0  0  0  0  0  0  0  0  0
    7.8092  -16.0149   24.0635 C   0  0  1  0  0  0  0  0  0  0  0  0
    7.5588  -17.4547   24.3108 C   0  0  0  0  0  0  0  0  0  0  0  0
    7.1639  -17.8223   25.6819 C   0  0  0  0  0  0  0  0  0  0  0  0
    6.9167  -19.2005   26.0269 C   0  0  0  0  0  0  0  0  0  0  0  0
    6.6542  -20.1309   25.2556 O   0  0  0  0  0  0  0  0  0  0  0  0
    8.8263  -15.4492   25.0062 C   0  0  0  0  0  0  0  0  0  0  0  0
   10.0384  -15.6970   24.8104 O   0  0  0  0  0  0  0  0  0  0  0  0
    6.9772  -19.5443   27.3975 O   0  0  0  0  0  0  0  0  0  0  0  0
    8.8396  -12.7675   27.5151 C   0  0  0  0  0  0  0  0  0  0  0  0
    9.3696  -14.0781   26.9742 C   0  0  2  0  0  0  0  0  0  0  0  0
    8.3739  -14.6541   26.0835 N   0  0  0  0  0  0  0  0  0  0  0  0
    9.5691  -15.0157   28.1168 C   0  0  0  0  0  0  0  0  0  0  0  0
   10.3912  -14.7731   29.0421 O   0  0  0  0  0  0  0  0  0  0  0  0
    8.8319  -16.1840   28.1628 O   0  0  0  0  0  0  0  0  0  0  0  0
  1  5  1  0
  2  1  1  0
  3  4  1  0
  3  2  1  0
  4  5  1  0
  5  6  1  1
  6  7  2  0
  8  9  1  0
  8  6  1  0
  9 14  1  0
  9 10  1  6
 11 10  1  0
 11 12  1  0
 12 13  2  0
 12 16  1  0
 14 15  2  0
 14 19  1  0
 18 17  1  1
 18 20  1  0
 19 18  1  0
 20 22  1  0
 21 20  2  0
M  END
$$$$
