PEA.pdb
     RDKit          3D

 22 22  0  0  1  0  0  0  0  0999 V2000
    8.9170  -14.7107   19.5183 N   0  0  0  0  0  0  0  0  0  0  0  0
    8.8747  -14.2762   18.1533 C   0  0  0  0  0  0  0  0  0  0  0  0
    7.8055  -13.2217   18.0188 C   0  0  0  0  0  0  0  0  0  0  0  0
    7.1486  -13.2528   19.4054 C   0  0  0  0  0  0  0  0  0  0  0  0
    8.3558  -13.6176   20.2507 C   0  0  1  0  0  0  0  0  0  0  0  0
    7.9951  -13.9676   21.6380 C   0  0  0  0  0  0  0  0  0  0  0  0
    7.3114  -13.1509   22.3357 O   0  0  0  0  0  0  0  0  0  0  0  0
    8.4280  -15.2235   22.1608 N   0  0  0  0  0  0  0  0  0  0  0  0
    7.9410  -15.6645   23.4274 C   0  0  1  0  0  0  0  0  0  0  0  0
    8.2389  -17.0741   23.7753 C   0  0  0  0  0  0  0  0  0  0  0  0
    9.6606  -17.4136   23.9620 C   0  0  0  0  0  0  0  0  0  0  0  0
   10.0501  -18.7519   24.3319 C   0  0  0  0  0  0  0  0  0  0  0  0
    9.3090  -19.7249   24.5150 O   0  0  0  0  0  0  0  0  0  0  0  0
    8.4161  -14.7111   24.4804 C   0  0  0  0  0  0  0  0  0  0  0  0
    9.6351  -14.4292   24.5374 O   0  0  0  0  0  0  0  0  0  0  0  0
   11.4317  -18.9969   24.5095 O   0  0  0  0  0  0  0  0  0  0  0  0
    6.7634  -12.3390   26.7845 C   0  0  0  0  0  0  0  0  0  0  0  0
    7.9266  -13.2136   26.3687 C   0  0  2  0  0  0  0  0  0  0  0  0
    7.4637  -14.1654   25.3707 N   0  0  0  0  0  0  0  0  0  0  0  0
    8.3928  -13.9795   27.5606 C   0  0  0  0  0  0  0  0  0  0  0  0
    8.2146  -15.2238   27.6645 O   0  0  0  0  0  0  0  0  0  0  0  0
    9.0386  -13.3062   28.5805 O   0  0  0  0  0  0  0  0  0  0  0  0
  1  5  1  0
  2  1  1  0
  3  4  1  0
  3  2  1  0
  4  5  1  0
  5  6  1  1
  6  7  2  0
  8  9  1  0
  8  6  1  0
  9 14  1  0
  9 10  1  1
 11 10  1  0
 11 12  1  0
 12 13  2  0
 12 16  1  0
 14 15  2  0
 14 19  1  0
 18 17  1  1
 18 20  1  0
 19 18  1  0
 20 22  1  0
 21 20  2  0
M  END
$$$$
