PEA.pdb
     RDKit          3D

 22 22  0  0  1  0  0  0  0  0999 V2000
    9.1749  -14.5059   19.8185 N   0  0  0  0  0  0  0  0  0  0  0  0
    8.8683  -13.8273   18.5942 C   0  0  0  0  0  0  0  0  0  0  0  0
    7.5810  -13.0644   18.7783 C   0  0  0  0  0  0  0  0  0  0  0  0
    7.1236  -13.5376   20.1647 C   0  0  0  0  0  0  0  0  0  0  0  0
    8.4765  -13.7574   20.8176 C   0  0  1  0  0  0  0  0  0  0  0  0
    8.3774  -14.4599   22.1114 C   0  0  0  0  0  0  0  0  0  0  0  0
    7.5716  -14.0322   22.9997 O   0  0  0  0  0  0  0  0  0  0  0  0
    9.1961  -15.6089   22.3298 N   0  0  0  0  0  0  0  0  0  0  0  0
    9.2147  -16.2258   23.6163 C   0  0  1  0  0  0  0  0  0  0  0  0
    9.9087  -17.5333   23.6921 C   0  0  0  0  0  0  0  0  0  0  0  0
    9.9596  -18.1689   25.0205 C   0  0  0  0  0  0  0  0  0  0  0  0
   10.6764  -19.4055   25.2123 C   0  0  0  0  0  0  0  0  0  0  0  0
   11.6451  -19.8189   24.5640 O   0  0  0  0  0  0  0  0  0  0  0  0
    9.7532  -15.2429   24.6100 C   0  0  0  0  0  0  0  0  0  0  0  0
   10.8095  -14.6259   24.3409 O   0  0  0  0  0  0  0  0  0  0  0  0
   10.2351  -20.2531   26.2550 O   0  0  0  0  0  0  0  0  0  0  0  0
    8.4860  -13.1511   27.1973 C   0  0  0  0  0  0  0  0  0  0  0  0
    9.5826  -14.1099   26.7860 C   0  0  2  0  0  0  0  0  0  0  0  0
    9.0429  -15.0508   25.8165 N   0  0  0  0  0  0  0  0  0  0  0  0
   10.0152  -14.8785   27.9887 C   0  0  0  0  0  0  0  0  0  0  0  0
    9.7913  -16.1142   28.1059 O   0  0  0  0  0  0  0  0  0  0  0  0
   10.6806  -14.2173   29.0040 O   0  0  0  0  0  0  0  0  0  0  0  0
  1  5  1  0
  2  1  1  0
  3  4  1  0
  3  2  1  0
  4  5  1  0
  5  6  1  1
  6  7  2  0
  8  9  1  0
  8  6  1  0
  9 14  1  0
  9 10  1  6
 11 10  1  0
 11 12  1  0
 12 13  2  0
 12 16  1  0
 14 15  2  0
 14 19  1  0
 18 17  1  1
 18 20  1  0
 19 18  1  0
 20 22  1  0
 21 20  2  0
M  END
$$$$
