PEA.pdb
     RDKit          3D

 22 22  0  0  1  0  0  0  0  0999 V2000
    7.3463  -14.7808   19.3683 N   0  0  0  0  0  0  0  0  0  0  0  0
    7.3869  -13.7554   18.3681 C   0  0  0  0  0  0  0  0  0  0  0  0
    7.8400  -12.4716   19.0158 C   0  0  0  0  0  0  0  0  0  0  0  0
    7.8701  -12.8555   20.5014 C   0  0  0  0  0  0  0  0  0  0  0  0
    8.2490  -14.3205   20.3780 C   0  0  1  0  0  0  0  0  0  0  0  0
    8.1214  -15.0514   21.6534 C   0  0  0  0  0  0  0  0  0  0  0  0
    6.9643  -15.3273   22.1076 O   0  0  0  0  0  0  0  0  0  0  0  0
    9.3108  -15.4306   22.3459 N   0  0  0  0  0  0  0  0  0  0  0  0
    9.2116  -16.0630   23.6212 C   0  0  1  0  0  0  0  0  0  0  0  0
    9.8905  -17.3750   23.7425 C   0  0  0  0  0  0  0  0  0  0  0  0
    9.9154  -17.9748   25.0882 C   0  0  0  0  0  0  0  0  0  0  0  0
   10.6290  -19.2049   25.3272 C   0  0  0  0  0  0  0  0  0  0  0  0
   10.8259  -19.7582   26.4156 O   0  0  0  0  0  0  0  0  0  0  0  0
    9.6631  -15.0950   24.6711 C   0  0  0  0  0  0  0  0  0  0  0  0
   10.7826  -14.5466   24.5489 O   0  0  0  0  0  0  0  0  0  0  0  0
   11.1715  -19.8665   24.2009 O   0  0  0  0  0  0  0  0  0  0  0  0
    8.0060  -12.9845   27.0867 C   0  0  0  0  0  0  0  0  0  0  0  0
    9.2080  -13.8333   26.7325 C   0  0  2  0  0  0  0  0  0  0  0  0
    8.8022  -14.8384   25.7621 N   0  0  0  0  0  0  0  0  0  0  0  0
    9.6708  -14.5362   27.9639 C   0  0  0  0  0  0  0  0  0  0  0  0
    9.5336  -15.7812   28.1119 O   0  0  0  0  0  0  0  0  0  0  0  0
   10.2669  -13.8018   28.9718 O   0  0  0  0  0  0  0  0  0  0  0  0
  1  5  1  0
  2  1  1  0
  3  4  1  0
  3  2  1  0
  4  5  1  0
  5  6  1  1
  6  7  2  0
  8  9  1  0
  8  6  1  0
  9 14  1  0
  9 10  1  6
 11 10  1  0
 11 12  1  0
 12 13  2  0
 12 16  1  0
 14 15  2  0
 14 19  1  0
 18 17  1  1
 18 20  1  0
 19 18  1  0
 20 22  1  0
 21 20  2  0
M  END
$$$$
