PEA.pdb
     RDKit          3D

 22 22  0  0  1  0  0  0  0  0999 V2000
   -1.6377  -25.8124   26.5181 N   0  0  0  0  0  0  0  0  0  0  0  0
   -0.8121  -26.0858   25.3792 C   0  0  0  0  0  0  0  0  0  0  0  0
   -1.5262  -27.0778   24.4966 C   0  0  0  0  0  0  0  0  0  0  0  0
   -2.7417  -27.4535   25.3548 C   0  0  0  0  0  0  0  0  0  0  0  0
   -2.9596  -26.1363   26.0777 C   0  0  1  0  0  0  0  0  0  0  0  0
   -3.9328  -26.2462   27.1813 C   0  0  0  0  0  0  0  0  0  0  0  0
   -4.1573  -27.3818   27.7116 O   0  0  0  0  0  0  0  0  0  0  0  0
   -4.5996  -25.0644   27.6249 N   0  0  0  0  0  0  0  0  0  0  0  0
   -5.4219  -25.1153   28.7899 C   0  0  1  0  0  0  0  0  0  0  0  0
   -4.7323  -25.4889   30.0476 C   0  0  0  0  0  0  0  0  0  0  0  0
   -5.3346  -26.5900   30.8196 C   0  0  0  0  0  0  0  0  0  0  0  0
   -4.7813  -26.9777   32.0937 C   0  0  0  0  0  0  0  0  0  0  0  0
   -5.1525  -27.9066   32.8209 O   0  0  0  0  0  0  0  0  0  0  0  0
   -6.1562  -23.8157   28.9138 C   0  0  0  0  0  0  0  0  0  0  0  0
   -5.5227  -22.7452   28.7675 O   0  0  0  0  0  0  0  0  0  0  0  0
   -3.6906  -26.2209   32.5816 O   0  0  0  0  0  0  0  0  0  0  0  0
   -9.7455  -22.8766   29.3232 C   0  0  0  0  0  0  0  0  0  0  0  0
   -8.2618  -22.5885   29.2430 C   0  0  2  0  0  0  0  0  0  0  0  0
   -7.5414  -23.8514   29.1914 N   0  0  0  0  0  0  0  0  0  0  0  0
   -7.8514  -21.8695   30.4837 C   0  0  0  0  0  0  0  0  0  0  0  0
   -8.1643  -20.6653   30.6904 O   0  0  0  0  0  0  0  0  0  0  0  0
   -7.1068  -22.5425   31.4340 O   0  0  0  0  0  0  0  0  0  0  0  0
  1  5  1  0
  2  1  1  0
  3  4  1  0
  3  2  1  0
  4  5  1  0
  5  6  1  1
  6  7  2  0
  8  9  1  0
  8  6  1  0
  9 14  1  0
  9 10  1  1
 11 10  1  0
 11 12  1  0
 12 13  2  0
 12 16  1  0
 14 15  2  0
 14 19  1  0
 18 17  1  1
 18 20  1  0
 19 18  1  0
 20 22  1  0
 21 20  2  0
M  END
$$$$
