PEA.pdb
     RDKit          3D

 22 22  0  0  1  0  0  0  0  0999 V2000
    9.1452  -14.4607   19.5343 N   0  0  0  0  0  0  0  0  0  0  0  0
    9.0884  -13.9141   18.2108 C   0  0  0  0  0  0  0  0  0  0  0  0
    7.7643  -13.2143   18.0375 C   0  0  0  0  0  0  0  0  0  0  0  0
    7.0330  -13.5867   19.3343 C   0  0  0  0  0  0  0  0  0  0  0  0
    8.2176  -13.6673   20.2803 C   0  0  1  0  0  0  0  0  0  0  0  0
    7.8645  -14.2550   21.5869 C   0  0  0  0  0  0  0  0  0  0  0  0
    6.8599  -13.8065   22.2278 O   0  0  0  0  0  0  0  0  0  0  0  0
    8.6678  -15.3190   22.0974 N   0  0  0  0  0  0  0  0  0  0  0  0
    8.4218  -15.8191   23.4110 C   0  0  1  0  0  0  0  0  0  0  0  0
    9.0628  -17.1155   23.7356 C   0  0  0  0  0  0  0  0  0  0  0  0
    9.0557  -18.1321   22.6690 C   0  0  0  0  0  0  0  0  0  0  0  0
    9.7251  -19.3953   22.8585 C   0  0  0  0  0  0  0  0  0  0  0  0
    9.2080  -20.5176   22.9091 O   0  0  0  0  0  0  0  0  0  0  0  0
    8.7729  -14.7524   24.4020 C   0  0  0  0  0  0  0  0  0  0  0  0
    9.9224  -14.2555   24.3761 O   0  0  0  0  0  0  0  0  0  0  0  0
   11.1315  -19.3656   23.0048 O   0  0  0  0  0  0  0  0  0  0  0  0
    6.8690  -12.5693   26.6790 C   0  0  0  0  0  0  0  0  0  0  0  0
    8.1316  -13.3043   26.2834 C   0  0  2  0  0  0  0  0  0  0  0  0
    7.7870  -14.3479   25.3303 N   0  0  0  0  0  0  0  0  0  0  0  0
    8.7015  -13.9544   27.4988 C   0  0  0  0  0  0  0  0  0  0  0  0
    8.6850  -15.2059   27.6548 O   0  0  0  0  0  0  0  0  0  0  0  0
    9.2637  -13.1624   28.4823 O   0  0  0  0  0  0  0  0  0  0  0  0
  1  5  1  0
  2  1  1  0
  3  4  1  0
  3  2  1  0
  4  5  1  0
  5  6  1  1
  6  7  2  0
  8  9  1  0
  8  6  1  0
  9 14  1  0
  9 10  1  1
 11 10  1  0
 11 12  1  0
 12 13  2  0
 12 16  1  0
 14 15  2  0
 14 19  1  0
 18 17  1  1
 18 20  1  0
 19 18  1  0
 20 22  1  0
 21 20  2  0
M  END
$$$$
