PEA.pdb
     RDKit          3D

 22 22  0  0  1  0  0  0  0  0999 V2000
    9.0789  -14.6333   19.9635 N   0  0  0  0  0  0  0  0  0  0  0  0
    8.7515  -14.0288   18.7061 C   0  0  0  0  0  0  0  0  0  0  0  0
    7.6064  -13.0712   18.9183 C   0  0  0  0  0  0  0  0  0  0  0  0
    7.2251  -13.3464   20.3792 C   0  0  0  0  0  0  0  0  0  0  0  0
    8.5917  -13.7040   20.9357 C   0  0  1  0  0  0  0  0  0  0  0  0
    8.5227  -14.2660   22.2983 C   0  0  0  0  0  0  0  0  0  0  0  0
    7.9082  -13.6271   23.2122 O   0  0  0  0  0  0  0  0  0  0  0  0
    9.1533  -15.5213   22.5526 N   0  0  0  0  0  0  0  0  0  0  0  0
    8.9885  -16.1471   23.8244 C   0  0  1  0  0  0  0  0  0  0  0  0
    9.3725  -17.5771   23.8916 C   0  0  0  0  0  0  0  0  0  0  0  0
   10.7181  -17.9154   23.3955 C   0  0  0  0  0  0  0  0  0  0  0  0
   11.2225  -19.2615   23.5102 C   0  0  0  0  0  0  0  0  0  0  0  0
   12.3754  -19.6515   23.2903 O   0  0  0  0  0  0  0  0  0  0  0  0
    9.6951  -15.3241   24.8572 C   0  0  0  0  0  0  0  0  0  0  0  0
   10.8181  -14.8416   24.5834 O   0  0  0  0  0  0  0  0  0  0  0  0
   10.3092  -20.2611   23.9192 O   0  0  0  0  0  0  0  0  0  0  0  0
    8.7611  -13.2020   27.5328 C   0  0  0  0  0  0  0  0  0  0  0  0
    9.7269  -14.2765   27.0819 C   0  0  2  0  0  0  0  0  0  0  0  0
    9.0617  -15.1243   26.1046 N   0  0  0  0  0  0  0  0  0  0  0  0
   10.0834  -15.1176   28.2609 C   0  0  0  0  0  0  0  0  0  0  0  0
    9.7499  -16.3316   28.3387 O   0  0  0  0  0  0  0  0  0  0  0  0
   10.7997  -14.5503   29.2980 O   0  0  0  0  0  0  0  0  0  0  0  0
  1  5  1  0
  2  1  1  0
  3  4  1  0
  3  2  1  0
  4  5  1  0
  5  6  1  1
  6  7  2  0
  8  9  1  0
  8  6  1  0
  9 14  1  0
  9 10  1  6
 11 10  1  0
 11 12  1  0
 12 13  2  0
 12 16  1  0
 14 15  2  0
 14 19  1  0
 18 17  1  1
 18 20  1  0
 19 18  1  0
 20 22  1  0
 21 20  2  0
M  END
$$$$
