PEA.pdb
     RDKit          3D

 22 22  0  0  1  0  0  0  0  0999 V2000
    8.6760  -15.0591   19.7629 N   0  0  0  0  0  0  0  0  0  0  0  0
    8.8135  -14.6322   18.4019 C   0  0  0  0  0  0  0  0  0  0  0  0
    7.9363  -13.4248   18.1873 C   0  0  0  0  0  0  0  0  0  0  0  0
    7.1717  -13.3442   19.5154 C   0  0  0  0  0  0  0  0  0  0  0  0
    8.2342  -13.8872   20.4541 C   0  0  1  0  0  0  0  0  0  0  0  0
    7.7114  -14.1678   21.8051 C   0  0  0  0  0  0  0  0  0  0  0  0
    7.1350  -13.2416   22.4617 O   0  0  0  0  0  0  0  0  0  0  0  0
    7.8695  -15.4819   22.3400 N   0  0  0  0  0  0  0  0  0  0  0  0
    7.3136  -15.7941   23.6165 C   0  0  1  0  0  0  0  0  0  0  0  0
    7.3633  -17.2230   24.0072 C   0  0  0  0  0  0  0  0  0  0  0  0
    6.8824  -17.5461   25.3620 C   0  0  0  0  0  0  0  0  0  0  0  0
    6.9119  -18.9051   25.8435 C   0  0  0  0  0  0  0  0  0  0  0  0
    6.1874  -19.8424   25.4882 O   0  0  0  0  0  0  0  0  0  0  0  0
    7.9464  -14.9062   24.6434 C   0  0  0  0  0  0  0  0  0  0  0  0
    9.1956  -14.8726   24.7288 O   0  0  0  0  0  0  0  0  0  0  0  0
    7.8716  -19.2190   26.8339 O   0  0  0  0  0  0  0  0  0  0  0  0
    6.7404  -12.1760   26.8358 C   0  0  0  0  0  0  0  0  0  0  0  0
    7.7248  -13.2623   26.4591 C   0  0  2  0  0  0  0  0  0  0  0  0
    7.1031  -14.1381   25.4778 N   0  0  0  0  0  0  0  0  0  0  0  0
    8.0282  -14.0692   27.6762 C   0  0  0  0  0  0  0  0  0  0  0  0
    8.6542  -13.5844   28.6580 O   0  0  0  0  0  0  0  0  0  0  0  0
    7.6114  -15.3860   27.7295 O   0  0  0  0  0  0  0  0  0  0  0  0
  1  5  1  0
  2  1  1  0
  3  4  1  0
  3  2  1  0
  4  5  1  0
  5  6  1  1
  6  7  2  0
  8  9  1  0
  8  6  1  0
  9 14  1  0
  9 10  1  1
 11 10  1  0
 11 12  1  0
 12 13  2  0
 12 16  1  0
 14 15  2  0
 14 19  1  0
 18 17  1  1
 18 20  1  0
 19 18  1  0
 20 22  1  0
 21 20  2  0
M  END
$$$$
