PEA.pdb
     RDKit          3D

 22 22  0  0  1  0  0  0  0  0999 V2000
    8.7573  -14.9810   19.8150 N   0  0  0  0  0  0  0  0  0  0  0  0
    8.9439  -14.5119   18.4738 C   0  0  0  0  0  0  0  0  0  0  0  0
    8.0520  -13.3161   18.2557 C   0  0  0  0  0  0  0  0  0  0  0  0
    7.2298  -13.2890   19.5512 C   0  0  0  0  0  0  0  0  0  0  0  0
    8.2623  -13.8385   20.5193 C   0  0  1  0  0  0  0  0  0  0  0  0
    7.6882  -14.1684   21.8379 C   0  0  0  0  0  0  0  0  0  0  0  0
    7.0646  -13.2733   22.4946 O   0  0  0  0  0  0  0  0  0  0  0  0
    7.8511  -15.4940   22.3421 N   0  0  0  0  0  0  0  0  0  0  0  0
    7.3878  -15.8101   23.6542 C   0  0  1  0  0  0  0  0  0  0  0  0
    7.3510  -17.2527   23.9926 C   0  0  0  0  0  0  0  0  0  0  0  0
    6.9197  -17.5913   25.3602 C   0  0  0  0  0  0  0  0  0  0  0  0
    6.9022  -18.9637   25.8026 C   0  0  0  0  0  0  0  0  0  0  0  0
    6.1604  -19.8701   25.4054 O   0  0  0  0  0  0  0  0  0  0  0  0
    8.1835  -15.0183   24.6457 C   0  0  0  0  0  0  0  0  0  0  0  0
    9.4326  -15.0112   24.5534 O   0  0  0  0  0  0  0  0  0  0  0  0
    7.8315  -19.3319   26.8033 O   0  0  0  0  0  0  0  0  0  0  0  0
    7.3695  -12.5024   27.2478 C   0  0  0  0  0  0  0  0  0  0  0  0
    8.2672  -13.5408   26.6098 C   0  0  2  0  0  0  0  0  0  0  0  0
    7.4880  -14.3073   25.6497 N   0  0  0  0  0  0  0  0  0  0  0  0
    8.7425  -14.4729   27.6727 C   0  0  0  0  0  0  0  0  0  0  0  0
    8.3468  -15.6689   27.7358 O   0  0  0  0  0  0  0  0  0  0  0  0
    9.6425  -14.0127   28.6155 O   0  0  0  0  0  0  0  0  0  0  0  0
  1  5  1  0
  2  1  1  0
  3  4  1  0
  3  2  1  0
  4  5  1  0
  5  6  1  1
  6  7  2  0
  8  9  1  0
  8  6  1  0
  9 14  1  0
  9 10  1  1
 11 10  1  0
 11 12  1  0
 12 13  2  0
 12 16  1  0
 14 15  2  0
 14 19  1  0
 18 17  1  1
 18 20  1  0
 19 18  1  0
 20 22  1  0
 21 20  2  0
M  END
$$$$
