PEA.pdb
     RDKit          3D

 22 22  0  0  1  0  0  0  0  0999 V2000
    8.9755  -14.5630   19.6424 N   0  0  0  0  0  0  0  0  0  0  0  0
    8.7596  -14.0860   18.3085 C   0  0  0  0  0  0  0  0  0  0  0  0
    7.4616  -13.3196   18.2777 C   0  0  0  0  0  0  0  0  0  0  0  0
    6.9035  -13.5779   19.6837 C   0  0  0  0  0  0  0  0  0  0  0  0
    8.2047  -13.6773   20.4596 C   0  0  1  0  0  0  0  0  0  0  0  0
    8.0110  -14.1721   21.8361 C   0  0  0  0  0  0  0  0  0  0  0  0
    7.1063  -13.6563   22.5687 O   0  0  0  0  0  0  0  0  0  0  0  0
    8.8520  -15.2243   22.3091 N   0  0  0  0  0  0  0  0  0  0  0  0
    8.6198  -15.7845   23.6007 C   0  0  1  0  0  0  0  0  0  0  0  0
    9.3945  -17.0072   23.9196 C   0  0  0  0  0  0  0  0  0  0  0  0
    9.0286  -18.2244   23.1743 C   0  0  0  0  0  0  0  0  0  0  0  0
    9.7444  -19.4574   23.3912 C   0  0  0  0  0  0  0  0  0  0  0  0
    9.5827  -20.2661   24.3127 O   0  0  0  0  0  0  0  0  0  0  0  0
    8.8106  -14.7117   24.6283 C   0  0  0  0  0  0  0  0  0  0  0  0
    9.8967  -14.0887   24.6598 O   0  0  0  0  0  0  0  0  0  0  0  0
   10.7481  -19.7952   22.4537 O   0  0  0  0  0  0  0  0  0  0  0  0
    6.5809  -12.7852   26.8293 C   0  0  0  0  0  0  0  0  0  0  0  0
    7.9325  -13.3826   26.5020 C   0  0  2  0  0  0  0  0  0  0  0  0
    7.7510  -14.4448   25.5245 N   0  0  0  0  0  0  0  0  0  0  0  0
    8.4970  -13.9854   27.7440 C   0  0  0  0  0  0  0  0  0  0  0  0
    8.6244  -15.2327   27.8810 O   0  0  0  0  0  0  0  0  0  0  0  0
    8.8918  -13.1529   28.7744 O   0  0  0  0  0  0  0  0  0  0  0  0
  1  5  1  0
  2  1  1  0
  3  4  1  0
  3  2  1  0
  4  5  1  0
  5  6  1  1
  6  7  2  0
  8  9  1  0
  8  6  1  0
  9 14  1  0
  9 10  1  1
 11 10  1  0
 11 12  1  0
 12 13  2  0
 12 16  1  0
 14 15  2  0
 14 19  1  0
 18 17  1  1
 18 20  1  0
 19 18  1  0
 20 22  1  0
 21 20  2  0
M  END
$$$$
