PEA.pdb
     RDKit          3D

 22 22  0  0  1  0  0  0  0  0999 V2000
   -1.0990  -26.0552   30.8216 N   0  0  0  0  0  0  0  0  0  0  0  0
    0.2261  -26.5935   30.9096 C   0  0  0  0  0  0  0  0  0  0  0  0
    0.5490  -27.2873   29.6106 C   0  0  0  0  0  0  0  0  0  0  0  0
   -0.7956  -27.2286   28.8732 C   0  0  0  0  0  0  0  0  0  0  0  0
   -1.3265  -25.9140   29.4164 C   0  0  1  0  0  0  0  0  0  0  0  0
   -2.7435  -25.6866   29.0737 C   0  0  0  0  0  0  0  0  0  0  0  0
   -3.0892  -25.5994   27.8514 O   0  0  0  0  0  0  0  0  0  0  0  0
   -3.6929  -25.5702   30.1335 N   0  0  0  0  0  0  0  0  0  0  0  0
   -5.0860  -25.5216   29.8286 C   0  0  1  0  0  0  0  0  0  0  0  0
   -5.9401  -26.4790   30.5707 C   0  0  0  0  0  0  0  0  0  0  0  0
   -5.8631  -26.4183   32.0409 C   0  0  0  0  0  0  0  0  0  0  0  0
   -6.6458  -27.3180   32.8517 C   0  0  0  0  0  0  0  0  0  0  0  0
   -7.8782  -27.3629   32.9458 O   0  0  0  0  0  0  0  0  0  0  0  0
   -5.5594  -24.1087   29.9799 C   0  0  0  0  0  0  0  0  0  0  0  0
   -5.1613  -23.4376   30.9597 O   0  0  0  0  0  0  0  0  0  0  0  0
   -5.9407  -28.2621   33.6340 O   0  0  0  0  0  0  0  0  0  0  0  0
   -7.5455  -21.7586   27.8837 C   0  0  0  0  0  0  0  0  0  0  0  0
   -6.9376  -22.2329   29.1862 C   0  0  2  0  0  0  0  0  0  0  0  0
   -6.4401  -23.5879   29.0050 N   0  0  0  0  0  0  0  0  0  0  0  0
   -8.0082  -22.2656   30.2241 C   0  0  0  0  0  0  0  0  0  0  0  0
   -8.5000  -23.3500   30.6402 O   0  0  0  0  0  0  0  0  0  0  0  0
   -8.4748  -21.0732   30.7447 O   0  0  0  0  0  0  0  0  0  0  0  0
  1  5  1  0
  2  1  1  0
  3  4  1  0
  3  2  1  0
  4  5  1  0
  5  6  1  1
  6  7  2  0
  8  9  1  0
  8  6  1  0
  9 14  1  0
  9 10  1  1
 11 10  1  0
 11 12  1  0
 12 13  2  0
 12 16  1  0
 14 15  2  0
 14 19  1  0
 18 17  1  6
 18 20  1  0
 19 18  1  0
 20 22  1  0
 21 20  2  0
M  END
$$$$
