ERF.pdb
     RDKit          3D

 32 32  0  0  1  0  0  0  0  0999 V2000
    6.7491  -21.0859   23.5992 N   0  0  0  0  0  0  0  0  0  0  0  0
    6.5635  -19.7747   24.1450 C   0  0  1  0  0  0  0  0  0  0  0  0
    6.6870  -19.7386   25.6438 C   0  0  0  0  0  0  0  0  0  0  0  0
    8.0097  -20.2565   26.0960 C   0  0  0  0  0  0  0  0  0  0  0  0
    8.1545  -20.2206   27.5498 C   0  0  0  0  0  0  0  0  0  0  0  0
    9.1824  -20.5693   28.1699 O   0  0  0  0  0  0  0  0  0  0  0  0
    7.5030  -18.8352   23.4887 C   0  0  0  0  0  0  0  0  0  0  0  0
    8.5811  -19.2624   23.0317 O   0  0  0  0  0  0  0  0  0  0  0  0
    7.0691  -19.7639   28.3190 O   0  0  0  0  0  0  0  0  0  0  0  0
    8.4923  -11.5901   18.7360 N   0  0  0  0  0  0  0  0  0  0  0  0
    8.1885  -12.9109   18.3267 C   0  0  0  0  0  0  0  0  0  0  0  0
    8.5637  -13.3376   17.1576 N   0  0  0  0  0  0  0  0  0  0  0  0
    7.4641  -13.8005   19.1866 N   0  0  0  0  0  0  0  0  0  0  0  0
    7.2843  -13.4799   20.5899 C   0  0  0  0  0  0  0  0  0  0  0  0
    8.0948  -14.3688   21.4811 C   0  0  0  0  0  0  0  0  0  0  0  0
    7.2516  -15.4224   22.1552 C   0  0  0  0  0  0  0  0  0  0  0  0
    8.0723  -16.5246   22.7725 C   0  0  2  0  0  0  0  0  0  0  0  0
    7.1590  -17.4732   23.3937 N   0  0  0  0  0  0  0  0  0  0  0  0
    8.9474  -15.9121   23.8221 C   0  0  0  0  0  0  0  0  0  0  0  0
    9.8925  -15.1267   23.5214 O   0  0  0  0  0  0  0  0  0  0  0  0
    8.3327  -14.3158   16.8767 N   0  0  0  0  0  0  0  0  0  0  0  0
    8.7244  -16.2084   25.1734 C   0  0  1  0  0  0  0  0  0  0  0  0
    9.5426  -15.6127   26.2405 C   0  0  0  0  0  0  0  0  0  0  0  0
    8.5764  -15.1023   27.2661 C   0  0  0  0  0  0  0  0  0  0  0  0
    7.8256  -13.9220   26.7886 C   0  0  0  0  0  0  0  0  0  0  0  0
    8.4691  -12.7063   26.6390 C   0  0  0  0  0  0  0  0  0  0  0  0
    7.7740  -11.6227   26.1942 C   0  0  0  0  0  0  0  0  0  0  0  0
    6.4268  -11.7360   25.8917 C   0  0  0  0  0  0  0  0  0  0  0  0
    5.7681  -12.9419   26.0348 C   0  0  0  0  0  0  0  0  0  0  0  0
    6.4968  -14.0297   26.4892 C   0  0  0  0  0  0  0  0  0  0  0  0
   10.4536  -16.6505   26.7326 O   0  0  0  0  0  0  0  0  0  0  0  0
   10.4218  -17.8403   26.3060 O   0  0  0  0  0  0  0  0  0  0  0  0
  2  1  1  6
  2  3  1  0
  3  4  1  0
  5  4  1  0
  6  5  2  0
  7  2  1  0
  8  7  2  0
  9  5  1  0
 10 11  1  0
 11 13  1  0
 11 12  2  0
 13 14  1  0
 14 15  1  0
 15 16  1  0
 17 16  1  1
 17 18  1  0
 18  7  1  0
 19 21  1  0
 19 17  1  0
 20 19  2  0
 22 30  1  0
 22 21  1  0
 22 23  1  1
 24 23  1  0
 24 25  2  0
 26 25  1  0
 27 26  2  0
 28 29  2  0
 28 27  1  0
 29 24  1  0
 30 32  1  0
 31 30  2  0
M  END
$$$$
