ERF.pdb
     RDKit          3D

 32 32  0  0  1  0  0  0  0  0999 V2000
    8.6282  -19.1585   21.4062 N   0  0  0  0  0  0  0  0  0  0  0  0
    9.9953  -18.7829   21.2023 C   0  0  1  0  0  0  0  0  0  0  0  0
   10.4630  -19.0088   19.7906 C   0  0  0  0  0  0  0  0  0  0  0  0
   11.9221  -18.7390   19.6482 C   0  0  0  0  0  0  0  0  0  0  0  0
   12.2900  -18.3708   18.2826 C   0  0  0  0  0  0  0  0  0  0  0  0
   11.4867  -18.2893   17.3281 O   0  0  0  0  0  0  0  0  0  0  0  0
   10.1842  -17.3768   21.6305 C   0  0  0  0  0  0  0  0  0  0  0  0
   11.3299  -16.8860   21.6420 O   0  0  0  0  0  0  0  0  0  0  0  0
   13.6394  -18.0850   18.0073 O   0  0  0  0  0  0  0  0  0  0  0  0
    8.6107  -14.4208   16.3109 N   0  0  0  0  0  0  0  0  0  0  0  0
    8.0889  -13.5923   17.3334 C   0  0  0  0  0  0  0  0  0  0  0  0
    8.6454  -12.4477   17.5976 N   0  0  0  0  0  0  0  0  0  0  0  0
    6.9434  -13.9954   18.0957 N   0  0  0  0  0  0  0  0  0  0  0  0
    6.9393  -13.8608   19.5401 C   0  0  0  0  0  0  0  0  0  0  0  0
    8.0363  -14.6500   20.1844 C   0  0  0  0  0  0  0  0  0  0  0  0
    8.0706  -14.4628   21.6808 C   0  0  0  0  0  0  0  0  0  0  0  0
    9.2029  -15.2066   22.3396 C   0  0  2  0  0  0  0  0  0  0  0  0
    9.0623  -16.6195   22.0179 N   0  0  0  0  0  0  0  0  0  0  0  0
    9.0774  -15.0157   23.8196 C   0  0  0  0  0  0  0  0  0  0  0  0
    8.7449  -13.9015   24.3184 O   0  0  0  0  0  0  0  0  0  0  0  0
    8.3885  -11.9501   18.4782 N   0  0  0  0  0  0  0  0  0  0  0  0
    9.3319  -16.0892   24.6835 C   0  0  1  0  0  0  0  0  0  0  0  0
    9.2028  -15.9547   26.1424 C   0  0  0  0  0  0  0  0  0  0  0  0
    7.7592  -15.6480   26.4032 C   0  0  0  0  0  0  0  0  0  0  0  0
    7.4918  -14.1945   26.4273 C   0  0  0  0  0  0  0  0  0  0  0  0
    8.4983  -13.3111   26.7749 C   0  0  0  0  0  0  0  0  0  0  0  0
    8.2483  -11.9723   26.7910 C   0  0  0  0  0  0  0  0  0  0  0  0
    6.9904  -11.4950   26.4605 C   0  0  0  0  0  0  0  0  0  0  0  0
    5.9735  -12.3623   26.1108 C   0  0  0  0  0  0  0  0  0  0  0  0
    6.2525  -13.7199   26.1018 C   0  0  0  0  0  0  0  0  0  0  0  0
    9.6734  -17.2048   26.7464 O   0  0  0  0  0  0  0  0  0  0  0  0
    9.6782  -17.3958   27.9962 O   0  0  0  0  0  0  0  0  0  0  0  0
  2  1  1  6
  2  3  1  0
  3  4  1  0
  5  4  1  0
  6  5  2  0
  7  2  1  0
  8  7  2  0
  9  5  1  0
 10 11  1  0
 11 13  1  0
 11 12  2  0
 13 14  1  0
 14 15  1  0
 15 16  1  0
 17 16  1  6
 17 18  1  0
 18  7  1  0
 19 21  1  0
 19 17  1  0
 20 19  2  0
 22 30  1  0
 22 21  1  0
 22 23  1  1
 24 23  1  0
 24 25  2  0
 26 25  1  0
 27 26  2  0
 28 29  2  0
 28 27  1  0
 29 24  1  0
 30 32  1  0
 31 30  2  0
M  END
$$$$
