ERF.pdb
     RDKit          3D

 32 32  0  0  1  0  0  0  0  0999 V2000
    9.6697  -14.1388   20.8677 N   0  0  0  0  0  0  0  0  0  0  0  0
    8.3353  -14.4790   20.4735 C   0  0  1  0  0  0  0  0  0  0  0  0
    8.2287  -14.8528   19.0204 C   0  0  0  0  0  0  0  0  0  0  0  0
    8.3424  -13.6565   18.1383 C   0  0  0  0  0  0  0  0  0  0  0  0
    8.2811  -14.0026   16.7197 C   0  0  0  0  0  0  0  0  0  0  0  0
    8.2261  -15.1696   16.2751 O   0  0  0  0  0  0  0  0  0  0  0  0
    7.8222  -15.5496   21.3604 C   0  0  0  0  0  0  0  0  0  0  0  0
    6.9936  -16.3695   20.9191 O   0  0  0  0  0  0  0  0  0  0  0  0
    8.2836  -12.9595   15.7761 O   0  0  0  0  0  0  0  0  0  0  0  0
   12.5561  -21.0291   23.4493 N   0  0  0  0  0  0  0  0  0  0  0  0
   13.0738  -20.7028   22.1727 C   0  0  0  0  0  0  0  0  0  0  0  0
   14.1471  -21.2883   21.7313 N   0  0  0  0  0  0  0  0  0  0  0  0
   12.4306  -19.7249   21.3446 N   0  0  0  0  0  0  0  0  0  0  0  0
   12.2325  -18.3713   21.8271 C   0  0  0  0  0  0  0  0  0  0  0  0
   10.9831  -18.2385   22.6410 C   0  0  0  0  0  0  0  0  0  0  0  0
   10.2343  -16.9657   22.3332 C   0  0  0  0  0  0  0  0  0  0  0  0
    8.9872  -16.8030   23.1625 C   0  0  2  0  0  0  0  0  0  0  0  0
    8.2818  -15.6206   22.6893 N   0  0  0  0  0  0  0  0  0  0  0  0
    9.4062  -16.5994   24.5857 C   0  0  0  0  0  0  0  0  0  0  0  0
   10.0916  -17.4639   25.2050 O   0  0  0  0  0  0  0  0  0  0  0  0
   14.5550  -20.9805   20.8214 N   0  0  0  0  0  0  0  0  0  0  0  0
    9.0363  -15.4275   25.2589 C   0  0  2  0  0  0  0  0  0  0  0  0
    9.2215  -15.2785   26.7103 C   0  0  0  0  0  0  0  0  0  0  0  0
    7.8940  -14.8453   27.2542 C   0  0  0  0  0  0  0  0  0  0  0  0
    7.3898  -13.6239   26.5917 C   0  0  0  0  0  0  0  0  0  0  0  0
    8.2774  -12.7313   26.0173 C   0  0  0  0  0  0  0  0  0  0  0  0
    7.8076  -11.6097   25.4038 C   0  0  0  0  0  0  0  0  0  0  0  0
    6.4455  -11.3620   25.3540 C   0  0  0  0  0  0  0  0  0  0  0  0
    5.5447  -12.2422   25.9218 C   0  0  0  0  0  0  0  0  0  0  0  0
    6.0471  -13.3762   26.5404 C   0  0  0  0  0  0  0  0  0  0  0  0
    9.6973  -16.5638   27.2309 O   0  0  0  0  0  0  0  0  0  0  0  0
    9.4874  -17.6582   26.6337 O   0  0  0  0  0  0  0  0  0  0  0  0
  2  1  1  1
  2  3  1  0
  3  4  1  0
  5  4  1  0
  6  5  2  0
  7  2  1  0
  8  7  2  0
  9  5  1  0
 10 11  1  0
 11 13  1  0
 11 12  2  0
 13 14  1  0
 14 15  1  0
 15 16  1  0
 17 16  1  6
 17 18  1  0
 18  7  1  0
 19 21  1  0
 19 17  1  0
 20 19  2  0
 22 30  1  0
 22 21  1  0
 22 23  1  6
 24 23  1  0
 24 25  2  0
 26 25  1  0
 27 26  2  0
 28 29  2  0
 28 27  1  0
 29 24  1  0
 30 32  1  0
 31 30  2  0
M  END
$$$$
