ERF.pdb
     RDKit          3D

 32 32  0  0  1  0  0  0  0  0999 V2000
    8.5153  -13.4407   18.6012 N   0  0  0  0  0  0  0  0  0  0  0  0
    9.2780  -14.2893   19.4670 C   0  0  1  0  0  0  0  0  0  0  0  0
   10.5676  -13.6610   19.9197 C   0  0  0  0  0  0  0  0  0  0  0  0
   11.7219  -14.1329   19.1030 C   0  0  0  0  0  0  0  0  0  0  0  0
   12.9928  -13.5740   19.5595 C   0  0  0  0  0  0  0  0  0  0  0  0
   13.4918  -13.7735   20.6882 O   0  0  0  0  0  0  0  0  0  0  0  0
    8.4329  -14.7057   20.6109 C   0  0  0  0  0  0  0  0  0  0  0  0
    7.6183  -13.8988   21.0997 O   0  0  0  0  0  0  0  0  0  0  0  0
   13.7170  -12.7515   18.6778 O   0  0  0  0  0  0  0  0  0  0  0  0
    5.6589  -19.1046   18.4917 N   0  0  0  0  0  0  0  0  0  0  0  0
    6.8208  -19.8760   18.2486 C   0  0  0  0  0  0  0  0  0  0  0  0
    7.1767  -20.1594   17.0310 N   0  0  0  0  0  0  0  0  0  0  0  0
    7.6245  -20.3595   19.3330 N   0  0  0  0  0  0  0  0  0  0  0  0
    7.4117  -19.8661   20.6805 C   0  0  0  0  0  0  0  0  0  0  0  0
    7.5563  -18.3785   20.7671 C   0  0  0  0  0  0  0  0  0  0  0  0
    7.5184  -17.8837   22.1915 C   0  0  0  0  0  0  0  0  0  0  0  0
    7.8228  -16.4131   22.3104 C   0  0  2  0  0  0  0  0  0  0  0  0
    8.5667  -16.0092   21.1259 N   0  0  0  0  0  0  0  0  0  0  0  0
    8.6744  -16.2178   23.5266 C   0  0  0  0  0  0  0  0  0  0  0  0
    9.9357  -16.3011   23.4728 O   0  0  0  0  0  0  0  0  0  0  0  0
    8.0125  -20.7644   16.8746 N   0  0  0  0  0  0  0  0  0  0  0  0
    8.0718  -15.9360   24.7598 C   0  0  1  0  0  0  0  0  0  0  0  0
    8.8618  -15.7994   25.9929 C   0  0  0  0  0  0  0  0  0  0  0  0
    8.0108  -15.0141   26.9442 C   0  0  0  0  0  0  0  0  0  0  0  0
    7.8130  -13.6193   26.4968 C   0  0  0  0  0  0  0  0  0  0  0  0
    6.5772  -13.2119   26.0265 C   0  0  0  0  0  0  0  0  0  0  0  0
    6.3986  -11.9242   25.6199 C   0  0  0  0  0  0  0  0  0  0  0  0
    7.4501  -11.0241   25.6766 C   0  0  0  0  0  0  0  0  0  0  0  0
    8.6907  -11.4132   26.1435 C   0  0  0  0  0  0  0  0  0  0  0  0
    8.8476  -12.7285   26.5514 C   0  0  0  0  0  0  0  0  0  0  0  0
    9.1979  -17.1491   26.4561 O   0  0  0  0  0  0  0  0  0  0  0  0
    8.6465  -18.1854   25.9866 O   0  0  0  0  0  0  0  0  0  0  0  0
  2  1  1  1
  2  3  1  0
  3  4  1  0
  5  4  1  0
  6  5  2  0
  7  2  1  0
  8  7  2  0
  9  5  1  0
 10 11  1  0
 11 13  1  0
 11 12  2  0
 13 14  1  0
 14 15  1  0
 15 16  1  0
 17 16  1  6
 17 18  1  0
 18  7  1  0
 19 21  1  0
 19 17  1  0
 20 19  2  0
 22 30  1  0
 22 21  1  0
 22 23  1  1
 24 23  1  0
 24 25  2  0
 26 25  1  0
 27 26  2  0
 28 29  2  0
 28 27  1  0
 29 24  1  0
 30 32  1  0
 31 30  2  0
M  END
$$$$
