ERF.pdb
     RDKit          3D

 32 32  0  0  1  0  0  0  0  0999 V2000
    7.4818  -16.2974   18.8949 N   0  0  0  0  0  0  0  0  0  0  0  0
    8.5380  -16.0400   19.8275 C   0  0  1  0  0  0  0  0  0  0  0  0
    9.0267  -14.6179   19.7847 C   0  0  0  0  0  0  0  0  0  0  0  0
    7.8947  -13.6537   19.6804 C   0  0  0  0  0  0  0  0  0  0  0  0
    8.3344  -12.2643   19.7908 C   0  0  0  0  0  0  0  0  0  0  0  0
    8.2176  -11.4084   18.8871 O   0  0  0  0  0  0  0  0  0  0  0  0
    8.0963  -16.4336   21.1862 C   0  0  0  0  0  0  0  0  0  0  0  0
    6.8808  -16.5824   21.4188 O   0  0  0  0  0  0  0  0  0  0  0  0
    8.9333  -11.8458   20.9927 O   0  0  0  0  0  0  0  0  0  0  0  0
   12.2707  -21.4078   22.7421 N   0  0  0  0  0  0  0  0  0  0  0  0
   12.0477  -21.0671   21.3862 C   0  0  0  0  0  0  0  0  0  0  0  0
   13.0270  -21.1010   20.5322 N   0  0  0  0  0  0  0  0  0  0  0  0
   10.7457  -20.6786   20.9285 N   0  0  0  0  0  0  0  0  0  0  0  0
    9.7250  -20.2751   21.8771 C   0  0  0  0  0  0  0  0  0  0  0  0
   10.0685  -18.9904   22.5647 C   0  0  0  0  0  0  0  0  0  0  0  0
    9.0253  -18.5888   23.5775 C   0  0  0  0  0  0  0  0  0  0  0  0
    8.6669  -17.1275   23.5032 C   0  0  2  0  0  0  0  0  0  0  0  0
    9.0612  -16.6324   22.1920 N   0  0  0  0  0  0  0  0  0  0  0  0
    9.4444  -16.4101   24.5632 C   0  0  0  0  0  0  0  0  0  0  0  0
   10.6376  -16.0358   24.3710 O   0  0  0  0  0  0  0  0  0  0  0  0
   12.8548  -20.7917   19.5505 N   0  0  0  0  0  0  0  0  0  0  0  0
    8.8473  -16.1413   25.8020 C   0  0  1  0  0  0  0  0  0  0  0  0
    9.5582  -15.4068   26.8595 C   0  0  0  0  0  0  0  0  0  0  0  0
    8.5019  -14.6989   27.6527 C   0  0  0  0  0  0  0  0  0  0  0  0
    7.7576  -13.7143   26.8396 C   0  0  0  0  0  0  0  0  0  0  0  0
    8.3651  -12.5312   26.4579 C   0  0  0  0  0  0  0  0  0  0  0  0
    7.6766  -11.6291   25.7045 C   0  0  0  0  0  0  0  0  0  0  0  0
    6.3722  -11.8941   25.3206 C   0  0  0  0  0  0  0  0  0  0  0  0
    5.7499  -13.0702   25.6923 C   0  0  0  0  0  0  0  0  0  0  0  0
    6.4709  -13.9721   26.4588 C   0  0  0  0  0  0  0  0  0  0  0  0
   10.3393  -16.3809   27.6277 O   0  0  0  0  0  0  0  0  0  0  0  0
   10.2071  -17.6291   27.4759 O   0  0  0  0  0  0  0  0  0  0  0  0
  2  1  1  6
  2  3  1  0
  3  4  1  0
  5  4  1  0
  6  5  2  0
  7  2  1  0
  8  7  2  0
  9  5  1  0
 10 11  1  0
 11 13  1  0
 11 12  2  0
 13 14  1  0
 14 15  1  0
 15 16  1  0
 17 16  1  6
 17 18  1  0
 18  7  1  0
 19 21  1  0
 19 17  1  0
 20 19  2  0
 22 30  1  0
 22 21  1  0
 22 23  1  6
 24 23  1  0
 24 25  2  0
 26 25  1  0
 27 26  2  0
 28 29  2  0
 28 27  1  0
 29 24  1  0
 30 32  1  0
 31 30  2  0
M  END
$$$$
