ERF.pdb
     RDKit          3D

 32 32  0  0  1  0  0  0  0  0999 V2000
    7.9294  -18.6958   21.2258 N   0  0  0  0  0  0  0  0  0  0  0  0
    9.0745  -18.3799   20.4254 C   0  0  1  0  0  0  0  0  0  0  0  0
    8.8082  -18.4888   18.9489 C   0  0  0  0  0  0  0  0  0  0  0  0
    8.4268  -19.8773   18.5632 C   0  0  0  0  0  0  0  0  0  0  0  0
    8.1851  -20.0102   17.1280 C   0  0  0  0  0  0  0  0  0  0  0  0
    9.0808  -20.0368   16.2563 O   0  0  0  0  0  0  0  0  0  0  0  0
    9.5767  -17.0370   20.8004 C   0  0  0  0  0  0  0  0  0  0  0  0
   10.6069  -16.5920   20.2579 O   0  0  0  0  0  0  0  0  0  0  0  0
    6.8558  -20.1166   16.6806 O   0  0  0  0  0  0  0  0  0  0  0  0
    8.9776  -15.0731   17.7674 N   0  0  0  0  0  0  0  0  0  0  0  0
    8.3909  -13.8749   17.2936 C   0  0  0  0  0  0  0  0  0  0  0  0
    8.1292  -13.7286   16.0288 N   0  0  0  0  0  0  0  0  0  0  0  0
    8.0758  -12.8032   18.1924 N   0  0  0  0  0  0  0  0  0  0  0  0
    8.4985  -12.8604   19.5789 C   0  0  0  0  0  0  0  0  0  0  0  0
    7.8474  -13.9850   20.3224 C   0  0  0  0  0  0  0  0  0  0  0  0
    8.2083  -13.9850   21.7870 C   0  0  0  0  0  0  0  0  0  0  0  0
    9.3211  -14.9452   22.1174 C   0  0  2  0  0  0  0  0  0  0  0  0
    8.8785  -16.2869   21.7659 N   0  0  0  0  0  0  0  0  0  0  0  0
    9.5684  -14.8705   23.5925 C   0  0  0  0  0  0  0  0  0  0  0  0
   10.1331  -13.8687   24.1200 O   0  0  0  0  0  0  0  0  0  0  0  0
    7.8256  -12.7936   15.6786 N   0  0  0  0  0  0  0  0  0  0  0  0
    9.1698  -15.9294   24.4191 C   0  0  1  0  0  0  0  0  0  0  0  0
    9.4353  -15.9228   25.8657 C   0  0  0  0  0  0  0  0  0  0  0  0
    8.0970  -15.8114   26.5310 C   0  0  0  0  0  0  0  0  0  0  0  0
    7.4814  -14.4827   26.3299 C   0  0  0  0  0  0  0  0  0  0  0  0
    6.3539  -14.3549   25.5381 C   0  0  0  0  0  0  0  0  0  0  0  0
    5.7875  -13.1292   25.3597 C   0  0  0  0  0  0  0  0  0  0  0  0
    6.3372  -12.0129   25.9686 C   0  0  0  0  0  0  0  0  0  0  0  0
    7.4625  -12.1217   26.7627 C   0  0  0  0  0  0  0  0  0  0  0  0
    8.0206  -13.3794   26.9289 C   0  0  0  0  0  0  0  0  0  0  0  0
   10.1695  -17.1502   26.1875 O   0  0  0  0  0  0  0  0  0  0  0  0
   10.5143  -17.9868   25.3044 O   0  0  0  0  0  0  0  0  0  0  0  0
  2  1  1  1
  2  3  1  0
  3  4  1  0
  5  4  1  0
  6  5  2  0
  7  2  1  0
  8  7  2  0
  9  5  1  0
 10 11  1  0
 11 13  1  0
 11 12  2  0
 13 14  1  0
 14 15  1  0
 15 16  1  0
 17 16  1  1
 17 18  1  0
 18  7  1  0
 19 21  1  0
 19 17  1  0
 20 19  2  0
 22 30  1  0
 22 21  1  0
 22 23  1  1
 24 23  1  0
 24 25  2  0
 26 25  1  0
 27 26  2  0
 28 29  2  0
 28 27  1  0
 29 24  1  0
 30 32  1  0
 31 30  2  0
M  END
$$$$
