ERF.pdb
     RDKit          3D

 32 32  0  0  1  0  0  0  0  0999 V2000
    8.0164  -18.7342   20.6817 N   0  0  0  0  0  0  0  0  0  0  0  0
    9.4403  -18.6114   20.5861 C   0  0  1  0  0  0  0  0  0  0  0  0
    9.9647  -18.9065   19.2074 C   0  0  0  0  0  0  0  0  0  0  0  0
    8.9412  -19.5923   18.3682 C   0  0  0  0  0  0  0  0  0  0  0  0
    9.4112  -19.8383   17.0065 C   0  0  0  0  0  0  0  0  0  0  0  0
   10.3343  -20.6256   16.7051 O   0  0  0  0  0  0  0  0  0  0  0  0
    9.8470  -17.2667   21.0577 C   0  0  0  0  0  0  0  0  0  0  0  0
   11.0419  -16.9215   20.9758 O   0  0  0  0  0  0  0  0  0  0  0  0
    8.7909  -19.1477   15.9498 O   0  0  0  0  0  0  0  0  0  0  0  0
    8.9435  -15.2685   17.6076 N   0  0  0  0  0  0  0  0  0  0  0  0
    8.1667  -14.1572   17.2002 C   0  0  0  0  0  0  0  0  0  0  0  0
    8.2921  -13.6745   15.9998 N   0  0  0  0  0  0  0  0  0  0  0  0
    7.2318  -13.5431   18.0971 N   0  0  0  0  0  0  0  0  0  0  0  0
    7.0706  -14.0482   19.4474 C   0  0  0  0  0  0  0  0  0  0  0  0
    8.0994  -13.4955   20.3841 C   0  0  0  0  0  0  0  0  0  0  0  0
    8.0494  -14.1549   21.7399 C   0  0  0  0  0  0  0  0  0  0  0  0
    9.2317  -15.0513   22.0006 C   0  0  2  0  0  0  0  0  0  0  0  0
    8.8728  -16.4017   21.5916 N   0  0  0  0  0  0  0  0  0  0  0  0
    9.5068  -15.0310   23.4726 C   0  0  0  0  0  0  0  0  0  0  0  0
   10.3653  -14.2496   23.9756 O   0  0  0  0  0  0  0  0  0  0  0  0
    7.7129  -12.8525   15.7207 N   0  0  0  0  0  0  0  0  0  0  0  0
    8.8033  -15.8936   24.3237 C   0  0  1  0  0  0  0  0  0  0  0  0
    9.0216  -15.8920   25.7782 C   0  0  0  0  0  0  0  0  0  0  0  0
    7.7202  -15.4716   26.3910 C   0  0  0  0  0  0  0  0  0  0  0  0
    7.5548  -14.0028   26.3996 C   0  0  0  0  0  0  0  0  0  0  0  0
    6.2947  -13.4473   26.2652 C   0  0  0  0  0  0  0  0  0  0  0  0
    6.1469  -12.0933   26.2786 C   0  0  0  0  0  0  0  0  0  0  0  0
    7.2538  -11.2736   26.4264 C   0  0  0  0  0  0  0  0  0  0  0  0
    8.5194  -11.8107   26.5622 C   0  0  0  0  0  0  0  0  0  0  0  0
    8.6441  -13.1909   26.5454 C   0  0  0  0  0  0  0  0  0  0  0  0
    9.4636  -17.2361   26.1617 O   0  0  0  0  0  0  0  0  0  0  0  0
    9.6001  -18.1717   25.3224 O   0  0  0  0  0  0  0  0  0  0  0  0
  2  1  1  6
  2  3  1  0
  3  4  1  0
  5  4  1  0
  6  5  2  0
  7  2  1  0
  8  7  2  0
  9  5  1  0
 10 11  1  0
 11 13  1  0
 11 12  2  0
 13 14  1  0
 14 15  1  0
 15 16  1  0
 17 16  1  1
 17 18  1  0
 18  7  1  0
 19 21  1  0
 19 17  1  0
 20 19  2  0
 22 30  1  0
 22 21  1  0
 22 23  1  6
 24 23  1  0
 24 25  2  0
 26 25  1  0
 27 26  2  0
 28 29  2  0
 28 27  1  0
 29 24  1  0
 30 32  1  0
 31 30  2  0
M  END
$$$$
