ERF.pdb
     RDKit          3D

 32 32  0  0  1  0  0  0  0  0999 V2000
    9.2425  -18.6925   20.7132 N   0  0  0  0  0  0  0  0  0  0  0  0
   10.5801  -18.1900   20.8125 C   0  0  1  0  0  0  0  0  0  0  0  0
   11.3731  -18.3749   19.5476 C   0  0  0  0  0  0  0  0  0  0  0  0
   10.5324  -18.1496   18.3374 C   0  0  0  0  0  0  0  0  0  0  0  0
   11.2784  -18.3467   17.0963 C   0  0  0  0  0  0  0  0  0  0  0  0
   12.4742  -18.7062   17.0359 O   0  0  0  0  0  0  0  0  0  0  0  0
   10.5382  -16.7712   21.2380 C   0  0  0  0  0  0  0  0  0  0  0  0
   11.5981  -16.1192   21.3107 O   0  0  0  0  0  0  0  0  0  0  0  0
   10.6178  -18.1197   15.8755 O   0  0  0  0  0  0  0  0  0  0  0  0
    8.1034  -15.3769   17.4567 N   0  0  0  0  0  0  0  0  0  0  0  0
    7.9991  -14.0876   16.8813 C   0  0  0  0  0  0  0  0  0  0  0  0
    8.2588  -13.9096   15.6201 N   0  0  0  0  0  0  0  0  0  0  0  0
    7.6086  -12.9571   17.6720 N   0  0  0  0  0  0  0  0  0  0  0  0
    7.3415  -13.1106   19.0895 C   0  0  0  0  0  0  0  0  0  0  0  0
    8.4462  -13.8310   19.7980 C   0  0  0  0  0  0  0  0  0  0  0  0
    8.1015  -14.1312   21.2355 C   0  0  0  0  0  0  0  0  0  0  0  0
    9.2284  -14.7951   21.9831 C   0  0  2  0  0  0  0  0  0  0  0  0
    9.2979  -16.1845   21.5536 N   0  0  0  0  0  0  0  0  0  0  0  0
    8.9053  -14.7388   23.4443 C   0  0  0  0  0  0  0  0  0  0  0  0
    8.0506  -13.9267   23.9033 O   0  0  0  0  0  0  0  0  0  0  0  0
    8.2371  -12.9422   15.2294 N   0  0  0  0  0  0  0  0  0  0  0  0
    9.5588  -15.6008   24.3349 C   0  0  2  0  0  0  0  0  0  0  0  0
    9.1224  -15.7446   25.7320 C   0  0  0  0  0  0  0  0  0  0  0  0
    7.6562  -15.4344   25.7411 C   0  0  0  0  0  0  0  0  0  0  0  0
    7.3770  -14.0665   26.2266 C   0  0  0  0  0  0  0  0  0  0  0  0
    6.0701  -13.6479   26.4030 C   0  0  0  0  0  0  0  0  0  0  0  0
    5.8180  -12.3881   26.8552 C   0  0  0  0  0  0  0  0  0  0  0  0
    6.8659  -11.5273   27.1382 C   0  0  0  0  0  0  0  0  0  0  0  0
    8.1770  -11.9282   26.9682 C   0  0  0  0  0  0  0  0  0  0  0  0
    8.4079  -13.2147   26.5069 C   0  0  0  0  0  0  0  0  0  0  0  0
    9.4544  -17.1061   26.1625 O   0  0  0  0  0  0  0  0  0  0  0  0
    9.6108  -18.0579   25.3451 O   0  0  0  0  0  0  0  0  0  0  0  0
  2  1  1  6
  2  3  1  0
  3  4  1  0
  5  4  1  0
  6  5  2  0
  7  2  1  0
  8  7  2  0
  9  5  1  0
 10 11  1  0
 11 13  1  0
 11 12  2  0
 13 14  1  0
 14 15  1  0
 15 16  1  0
 17 16  1  6
 17 18  1  0
 18  7  1  0
 19 21  1  0
 19 17  1  0
 20 19  2  0
 22 30  1  0
 22 21  1  0
 22 23  1  6
 24 23  1  0
 24 25  2  0
 26 25  1  0
 27 26  2  0
 28 29  2  0
 28 27  1  0
 29 24  1  0
 30 32  1  0
 31 30  2  0
M  END
$$$$
