ERF.pdb
     RDKit          3D

 32 32  0  0  1  0  0  0  0  0999 V2000
    9.1845  -14.0523   20.8532 N   0  0  0  0  0  0  0  0  0  0  0  0
    7.8378  -14.3774   20.4895 C   0  0  1  0  0  0  0  0  0  0  0  0
    7.7071  -14.8277   19.0601 C   0  0  0  0  0  0  0  0  0  0  0  0
    8.4421  -13.9218   18.1321 C   0  0  0  0  0  0  0  0  0  0  0  0
    8.3170  -14.3343   16.7357 C   0  0  0  0  0  0  0  0  0  0  0  0
    7.7415  -15.3754   16.3514 O   0  0  0  0  0  0  0  0  0  0  0  0
    7.3052  -15.3833   21.4384 C   0  0  0  0  0  0  0  0  0  0  0  0
    6.3394  -16.0958   21.1017 O   0  0  0  0  0  0  0  0  0  0  0  0
    8.8791  -13.5120   15.7424 O   0  0  0  0  0  0  0  0  0  0  0  0
   11.2112  -17.5323   18.6228 N   0  0  0  0  0  0  0  0  0  0  0  0
   11.1369  -18.9229   18.8780 C   0  0  0  0  0  0  0  0  0  0  0  0
   11.3938  -19.7775   17.9329 N   0  0  0  0  0  0  0  0  0  0  0  0
   10.7778  -19.4158   20.1756 N   0  0  0  0  0  0  0  0  0  0  0  0
   11.2895  -18.7737   21.3715 C   0  0  0  0  0  0  0  0  0  0  0  0
   10.2046  -18.4667   22.3564 C   0  0  0  0  0  0  0  0  0  0  0  0
    9.6260  -17.0880   22.1565 C   0  0  0  0  0  0  0  0  0  0  0  0
    8.5017  -16.7792   23.1104 C   0  0  2  0  0  0  0  0  0  0  0  0
    7.9019  -15.5155   22.7068 N   0  0  0  0  0  0  0  0  0  0  0  0
    9.0886  -16.6391   24.4810 C   0  0  0  0  0  0  0  0  0  0  0  0
    9.6113  -17.6222   25.0818 O   0  0  0  0  0  0  0  0  0  0  0  0
   11.3952  -20.7966   18.1573 N   0  0  0  0  0  0  0  0  0  0  0  0
    9.0639  -15.3946   25.1244 C   0  0  1  0  0  0  0  0  0  0  0  0
    9.3493  -15.2613   26.5610 C   0  0  0  0  0  0  0  0  0  0  0  0
    8.0819  -14.7674   27.1901 C   0  0  0  0  0  0  0  0  0  0  0  0
    7.6160  -13.5001   26.5889 C   0  0  0  0  0  0  0  0  0  0  0  0
    6.4287  -12.9288   27.0112 C   0  0  0  0  0  0  0  0  0  0  0  0
    6.0061  -11.7584   26.4575 C   0  0  0  0  0  0  0  0  0  0  0  0
    6.7617  -11.1404   25.4745 C   0  0  0  0  0  0  0  0  0  0  0  0
    7.9498  -11.6962   25.0407 C   0  0  0  0  0  0  0  0  0  0  0  0
    8.3586  -12.8875   25.6192 C   0  0  0  0  0  0  0  0  0  0  0  0
    9.7952  -16.5703   27.0479 O   0  0  0  0  0  0  0  0  0  0  0  0
    9.7429  -17.6137   26.3359 O   0  0  0  0  0  0  0  0  0  0  0  0
  2  1  1  1
  2  3  1  0
  3  4  1  0
  5  4  1  0
  6  5  2  0
  7  2  1  0
  8  7  2  0
  9  5  1  0
 10 11  1  0
 11 13  1  0
 11 12  2  0
 13 14  1  0
 14 15  1  0
 15 16  1  0
 17 16  1  6
 17 18  1  0
 18  7  1  0
 19 21  1  0
 19 17  1  0
 20 19  2  0
 22 30  1  0
 22 21  1  0
 22 23  1  1
 24 23  1  0
 24 25  2  0
 26 25  1  0
 27 26  2  0
 28 29  2  0
 28 27  1  0
 29 24  1  0
 30 32  1  0
 31 30  2  0
M  END
$$$$
