ERF.pdb
     RDKit          3D

 32 32  0  0  1  0  0  0  0  0999 V2000
    8.1883  -16.3017   19.6650 N   0  0  0  0  0  0  0  0  0  0  0  0
    8.3175  -15.1833   20.5505 C   0  0  1  0  0  0  0  0  0  0  0  0
    7.5270  -13.9844   20.1028 C   0  0  0  0  0  0  0  0  0  0  0  0
    8.3641  -13.0451   19.3033 C   0  0  0  0  0  0  0  0  0  0  0  0
    8.6871  -13.5750   17.9802 C   0  0  0  0  0  0  0  0  0  0  0  0
    9.7445  -14.1779   17.6953 O   0  0  0  0  0  0  0  0  0  0  0  0
    7.9556  -15.6042   21.9245 C   0  0  0  0  0  0  0  0  0  0  0  0
    6.8293  -15.3218   22.3778 O   0  0  0  0  0  0  0  0  0  0  0  0
    7.7520  -13.4021   16.9438 O   0  0  0  0  0  0  0  0  0  0  0  0
    6.2919  -21.4845   22.5726 N   0  0  0  0  0  0  0  0  0  0  0  0
    7.3320  -21.6954   21.6357 C   0  0  0  0  0  0  0  0  0  0  0  0
    7.1008  -22.3476   20.5353 N   0  0  0  0  0  0  0  0  0  0  0  0
    8.6548  -21.1987   21.8789 N   0  0  0  0  0  0  0  0  0  0  0  0
    8.9456  -20.4461   23.0844 C   0  0  0  0  0  0  0  0  0  0  0  0
    8.4949  -19.0220   22.9842 C   0  0  0  0  0  0  0  0  0  0  0  0
    8.9243  -18.2025   24.1756 C   0  0  0  0  0  0  0  0  0  0  0  0
    8.5641  -16.7455   24.0465 C   0  0  2  0  0  0  0  0  0  0  0  0
    8.8940  -16.3173   22.6947 N   0  0  0  0  0  0  0  0  0  0  0  0
    9.3934  -15.9791   25.0302 C   0  0  0  0  0  0  0  0  0  0  0  0
   10.5939  -15.6656   24.7828 O   0  0  0  0  0  0  0  0  0  0  0  0
    7.8718  -22.4607   19.8412 N   0  0  0  0  0  0  0  0  0  0  0  0
    8.8381  -15.5946   26.2578 C   0  0  1  0  0  0  0  0  0  0  0  0
    9.5967  -14.7973   27.2335 C   0  0  0  0  0  0  0  0  0  0  0  0
    8.5925  -13.9266   27.9260 C   0  0  0  0  0  0  0  0  0  0  0  0
    7.8186  -13.1005   26.9755 C   0  0  0  0  0  0  0  0  0  0  0  0
    8.4631  -12.4557   25.9347 C   0  0  0  0  0  0  0  0  0  0  0  0
    7.7450  -11.6994   25.0586 C   0  0  0  0  0  0  0  0  0  0  0  0
    6.3732  -11.5755   25.2078 C   0  0  0  0  0  0  0  0  0  0  0  0
    5.7130  -12.2123   26.2408 C   0  0  0  0  0  0  0  0  0  0  0  0
    6.4656  -12.9759   27.1192 C   0  0  0  0  0  0  0  0  0  0  0  0
   10.2992  -15.7310   28.1188 O   0  0  0  0  0  0  0  0  0  0  0  0
   11.0622  -15.3417   29.0488 O   0  0  0  0  0  0  0  0  0  0  0  0
  2  1  1  6
  2  3  1  0
  3  4  1  0
  5  4  1  0
  6  5  2  0
  7  2  1  0
  8  7  2  0
  9  5  1  0
 10 11  1  0
 11 13  1  0
 11 12  2  0
 13 14  1  0
 14 15  1  0
 15 16  1  0
 17 16  1  6
 17 18  1  0
 18  7  1  0
 19 21  1  0
 19 17  1  0
 20 19  2  0
 22 30  1  0
 22 21  1  0
 22 23  1  6
 24 23  1  0
 24 25  2  0
 26 25  1  0
 27 26  2  0
 28 29  2  0
 28 27  1  0
 29 24  1  0
 30 32  1  0
 31 30  2  0
M  END
$$$$
