ERF.pdb
     RDKit          3D

 32 32  0  0  1  0  0  0  0  0999 V2000
    9.5554  -13.4701   19.5789 N   0  0  0  0  0  0  0  0  0  0  0  0
    8.2220  -13.9907   19.6297 C   0  0  1  0  0  0  0  0  0  0  0  0
    7.7043  -14.4143   18.2824 C   0  0  0  0  0  0  0  0  0  0  0  0
    8.1247  -13.4655   17.2122 C   0  0  0  0  0  0  0  0  0  0  0  0
    7.5389  -13.7947   15.9144 C   0  0  0  0  0  0  0  0  0  0  0  0
    6.6098  -14.6130   15.7414 O   0  0  0  0  0  0  0  0  0  0  0  0
    8.1663  -15.0945   20.6169 C   0  0  0  0  0  0  0  0  0  0  0  0
    7.0826  -15.6704   20.8353 O   0  0  0  0  0  0  0  0  0  0  0  0
    8.0460  -13.1536   14.7697 O   0  0  0  0  0  0  0  0  0  0  0  0
   11.3334  -19.2370   16.5377 N   0  0  0  0  0  0  0  0  0  0  0  0
   11.1172  -19.1286   17.9326 C   0  0  0  0  0  0  0  0  0  0  0  0
    9.9466  -19.3846   18.4363 N   0  0  0  0  0  0  0  0  0  0  0  0
   12.1772  -18.7354   18.8142 N   0  0  0  0  0  0  0  0  0  0  0  0
   11.9254  -18.5613   20.2321 C   0  0  0  0  0  0  0  0  0  0  0  0
   10.8038  -17.6048   20.4937 C   0  0  0  0  0  0  0  0  0  0  0  0
   10.5162  -17.4518   21.9665 C   0  0  0  0  0  0  0  0  0  0  0  0
    9.3232  -16.5747   22.2437 C   0  0  2  0  0  0  0  0  0  0  0  0
    9.3424  -15.4730   21.2920 N   0  0  0  0  0  0  0  0  0  0  0  0
    9.4627  -16.0368   23.6344 C   0  0  0  0  0  0  0  0  0  0  0  0
   10.3253  -15.1568   23.9212 O   0  0  0  0  0  0  0  0  0  0  0  0
    9.8198  -19.3432   19.4714 N   0  0  0  0  0  0  0  0  0  0  0  0
    8.6237  -16.5116   24.6512 C   0  0  1  0  0  0  0  0  0  0  0  0
    8.8075  -16.1117   26.0546 C   0  0  0  0  0  0  0  0  0  0  0  0
    7.4819  -15.5814   26.5103 C   0  0  0  0  0  0  0  0  0  0  0  0
    7.4251  -14.1050   26.4663 C   0  0  0  0  0  0  0  0  0  0  0  0
    6.4995  -13.4717   25.6562 C   0  0  0  0  0  0  0  0  0  0  0  0
    6.4478  -12.1110   25.6227 C   0  0  0  0  0  0  0  0  0  0  0  0
    7.3188  -11.3621   26.3971 C   0  0  0  0  0  0  0  0  0  0  0  0
    8.2493  -11.9774   27.2121 C   0  0  0  0  0  0  0  0  0  0  0  0
    8.2824  -13.3629   27.2288 C   0  0  0  0  0  0  0  0  0  0  0  0
    9.2736  -17.2887   26.7938 O   0  0  0  0  0  0  0  0  0  0  0  0
    9.5838  -17.2428   28.0186 O   0  0  0  0  0  0  0  0  0  0  0  0
  2  1  1  6
  2  3  1  0
  3  4  1  0
  5  4  1  0
  6  5  2  0
  7  2  1  0
  8  7  2  0
  9  5  1  0
 10 11  1  0
 11 13  1  0
 11 12  2  0
 13 14  1  0
 14 15  1  0
 15 16  1  0
 17 16  1  6
 17 18  1  0
 18  7  1  0
 19 21  1  0
 19 17  1  0
 20 19  2  0
 22 30  1  0
 22 21  1  0
 22 23  1  1
 24 23  1  0
 24 25  2  0
 26 25  1  0
 27 26  2  0
 28 29  2  0
 28 27  1  0
 29 24  1  0
 30 32  1  0
 31 30  2  0
M  END
$$$$
