ERF.pdb
     RDKit          3D

 32 32  0  0  1  0  0  0  0  0999 V2000
    9.9815  -18.9851   20.4318 N   0  0  0  0  0  0  0  0  0  0  0  0
   11.1263  -18.1982   20.7809 C   0  0  1  0  0  0  0  0  0  0  0  0
   11.9661  -17.8216   19.5911 C   0  0  0  0  0  0  0  0  0  0  0  0
   11.1885  -17.9119   18.3224 C   0  0  0  0  0  0  0  0  0  0  0  0
   12.0160  -17.6661   17.1432 C   0  0  0  0  0  0  0  0  0  0  0  0
   11.6006  -17.6993   15.9646 O   0  0  0  0  0  0  0  0  0  0  0  0
   10.6858  -17.0088   21.5472 C   0  0  0  0  0  0  0  0  0  0  0  0
   11.5359  -16.2071   21.9811 O   0  0  0  0  0  0  0  0  0  0  0  0
   13.3781  -17.3701   17.3317 O   0  0  0  0  0  0  0  0  0  0  0  0
    8.8150  -13.5387   16.0982 N   0  0  0  0  0  0  0  0  0  0  0  0
    8.7183  -13.3701   17.5005 C   0  0  0  0  0  0  0  0  0  0  0  0
    9.1864  -12.2972   18.0656 N   0  0  0  0  0  0  0  0  0  0  0  0
    8.1073  -14.3731   18.3229 N   0  0  0  0  0  0  0  0  0  0  0  0
    8.0900  -14.2277   19.7661 C   0  0  0  0  0  0  0  0  0  0  0  0
    7.3754  -15.3578   20.4395 C   0  0  0  0  0  0  0  0  0  0  0  0
    7.4711  -15.2783   21.9428 C   0  0  0  0  0  0  0  0  0  0  0  0
    8.8453  -15.6118   22.4620 C   0  0  2  0  0  0  0  0  0  0  0  0
    9.3107  -16.8063   21.7718 N   0  0  0  0  0  0  0  0  0  0  0  0
    8.7255  -15.8957   23.9275 C   0  0  0  0  0  0  0  0  0  0  0  0
    8.0158  -16.8487   24.3621 O   0  0  0  0  0  0  0  0  0  0  0  0
    9.1080  -12.1939   19.1010 N   0  0  0  0  0  0  0  0  0  0  0  0
    9.4106  -15.0936   24.8497 C   0  0  1  0  0  0  0  0  0  0  0  0
    9.2723  -15.2931   26.3003 C   0  0  0  0  0  0  0  0  0  0  0  0
    7.8021  -15.2408   26.5864 C   0  0  0  0  0  0  0  0  0  0  0  0
    7.2446  -13.8841   26.4032 C   0  0  0  0  0  0  0  0  0  0  0  0
    5.9563  -13.7239   25.9249 C   0  0  0  0  0  0  0  0  0  0  0  0
    5.4453  -12.4718   25.7624 C   0  0  0  0  0  0  0  0  0  0  0  0
    6.2121  -11.3611   26.0748 C   0  0  0  0  0  0  0  0  0  0  0  0
    7.5002  -11.5021   26.5537 C   0  0  0  0  0  0  0  0  0  0  0  0
    7.9977  -12.7862   26.7104 C   0  0  0  0  0  0  0  0  0  0  0  0
    9.9076  -16.5711   26.6349 O   0  0  0  0  0  0  0  0  0  0  0  0
   10.1242  -17.4688   25.7712 O   0  0  0  0  0  0  0  0  0  0  0  0
  2  1  1  6
  2  3  1  0
  3  4  1  0
  5  4  1  0
  6  5  2  0
  7  2  1  0
  8  7  2  0
  9  5  1  0
 10 11  1  0
 11 13  1  0
 11 12  2  0
 13 14  1  0
 14 15  1  0
 15 16  1  0
 17 16  1  6
 17 18  1  0
 18  7  1  0
 19 21  1  0
 19 17  1  0
 20 19  2  0
 22 30  1  0
 22 21  1  0
 22 23  1  1
 24 23  1  0
 24 25  2  0
 26 25  1  0
 27 26  2  0
 28 29  2  0
 28 27  1  0
 29 24  1  0
 30 32  1  0
 31 30  2  0
M  END
$$$$
