ERF.pdb
     RDKit          3D

 32 32  0  0  1  0  0  0  0  0999 V2000
    9.4836  -20.3898   22.9191 N   0  0  0  0  0  0  0  0  0  0  0  0
   10.8153  -19.9849   22.5809 C   0  0  1  0  0  0  0  0  0  0  0  0
   11.2994  -20.5783   21.2862 C   0  0  0  0  0  0  0  0  0  0  0  0
   10.3129  -20.3725   20.1877 C   0  0  0  0  0  0  0  0  0  0  0  0
   10.7841  -20.9016   18.9095 C   0  0  0  0  0  0  0  0  0  0  0  0
   10.6188  -22.0793   18.5240 O   0  0  0  0  0  0  0  0  0  0  0  0
   10.8885  -18.5048   22.5739 C   0  0  0  0  0  0  0  0  0  0  0  0
   11.9436  -17.9428   22.2210 O   0  0  0  0  0  0  0  0  0  0  0  0
   11.4742  -20.0367   18.0411 O   0  0  0  0  0  0  0  0  0  0  0  0
    8.6013  -13.2268   18.3754 N   0  0  0  0  0  0  0  0  0  0  0  0
    8.1563  -12.3834   19.4218 C   0  0  0  0  0  0  0  0  0  0  0  0
    8.6390  -11.1829   19.5464 N   0  0  0  0  0  0  0  0  0  0  0  0
    7.1710  -12.8323   20.3617 N   0  0  0  0  0  0  0  0  0  0  0  0
    7.1839  -14.2017   20.8400 C   0  0  0  0  0  0  0  0  0  0  0  0
    8.4498  -14.5348   21.5664 C   0  0  0  0  0  0  0  0  0  0  0  0
    8.4584  -15.9544   22.0763 C   0  0  0  0  0  0  0  0  0  0  0  0
    9.7353  -16.3141   22.7901 C   0  0  2  0  0  0  0  0  0  0  0  0
    9.7612  -17.7589   22.9677 N   0  0  0  0  0  0  0  0  0  0  0  0
    9.7157  -15.6457   24.1300 C   0  0  0  0  0  0  0  0  0  0  0  0
    9.8743  -14.3962   24.2497 O   0  0  0  0  0  0  0  0  0  0  0  0
    8.3042  -10.5804   20.3300 N   0  0  0  0  0  0  0  0  0  0  0  0
    9.5182  -16.4116   25.2866 C   0  0  1  0  0  0  0  0  0  0  0  0
    9.9311  -15.9289   26.6131 C   0  0  0  0  0  0  0  0  0  0  0  0
    8.6714  -15.5216   27.3154 C   0  0  0  0  0  0  0  0  0  0  0  0
    8.1180  -14.2584   26.7836 C   0  0  0  0  0  0  0  0  0  0  0  0
    6.9449  -14.2710   26.0500 C   0  0  0  0  0  0  0  0  0  0  0  0
    6.4365  -13.1037   25.5661 C   0  0  0  0  0  0  0  0  0  0  0  0
    7.0907  -11.9066   25.8072 C   0  0  0  0  0  0  0  0  0  0  0  0
    8.2628  -11.8749   26.5377 C   0  0  0  0  0  0  0  0  0  0  0  0
    8.7602  -13.0756   27.0193 C   0  0  0  0  0  0  0  0  0  0  0  0
   10.6657  -17.0137   27.2710 O   0  0  0  0  0  0  0  0  0  0  0  0
   10.8933  -18.1210   26.7048 O   0  0  0  0  0  0  0  0  0  0  0  0
  2  1  1  6
  2  3  1  0
  3  4  1  0
  5  4  1  0
  6  5  2  0
  7  2  1  0
  8  7  2  0
  9  5  1  0
 10 11  1  0
 11 13  1  0
 11 12  2  0
 13 14  1  0
 14 15  1  0
 15 16  1  0
 17 16  1  6
 17 18  1  0
 18  7  1  0
 19 21  1  0
 19 17  1  0
 20 19  2  0
 22 30  1  0
 22 21  1  0
 22 23  1  1
 24 23  1  0
 24 25  2  0
 26 25  1  0
 27 26  2  0
 28 29  2  0
 28 27  1  0
 29 24  1  0
 30 32  1  0
 31 30  2  0
M  END
$$$$
