ERF.pdb
     RDKit          3D

 32 32  0  0  1  0  0  0  0  0999 V2000
    5.6871  -16.8653   19.8508 N   0  0  0  0  0  0  0  0  0  0  0  0
    6.9030  -16.7148   20.5928 C   0  0  1  0  0  0  0  0  0  0  0  0
    7.6697  -15.4753   20.2203 C   0  0  0  0  0  0  0  0  0  0  0  0
    7.9838  -15.4440   18.7634 C   0  0  0  0  0  0  0  0  0  0  0  0
    8.7119  -14.2374   18.3764 C   0  0  0  0  0  0  0  0  0  0  0  0
    9.0883  -13.3492   19.1715 O   0  0  0  0  0  0  0  0  0  0  0  0
    6.5994  -16.7639   22.0425 C   0  0  0  0  0  0  0  0  0  0  0  0
    5.6859  -16.0525   22.5041 O   0  0  0  0  0  0  0  0  0  0  0  0
    9.0181  -14.0482   17.0166 O   0  0  0  0  0  0  0  0  0  0  0  0
    6.2259  -22.6083   24.5698 N   0  0  0  0  0  0  0  0  0  0  0  0
    7.5322  -22.4854   25.1015 C   0  0  0  0  0  0  0  0  0  0  0  0
    8.4594  -23.3318   24.7646 N   0  0  0  0  0  0  0  0  0  0  0  0
    7.8587  -21.4323   26.0181 N   0  0  0  0  0  0  0  0  0  0  0  0
    6.8072  -20.6654   26.6588 C   0  0  0  0  0  0  0  0  0  0  0  0
    6.8135  -19.2306   26.2315 C   0  0  0  0  0  0  0  0  0  0  0  0
    7.0360  -19.0783   24.7473 C   0  0  0  0  0  0  0  0  0  0  0  0
    7.1161  -17.6388   24.3104 C   0  0  2  0  0  0  0  0  0  0  0  0
    7.3513  -17.6159   22.8738 N   0  0  0  0  0  0  0  0  0  0  0  0
    8.2762  -17.0088   25.0173 C   0  0  0  0  0  0  0  0  0  0  0  0
    9.4693  -17.2256   24.6565 O   0  0  0  0  0  0  0  0  0  0  0  0
    9.3932  -23.2716   25.2267 N   0  0  0  0  0  0  0  0  0  0  0  0
    8.0480  -16.1569   26.1061 C   0  0  2  0  0  0  0  0  0  0  0  0
    9.1394  -15.3986   26.7362 C   0  0  0  0  0  0  0  0  0  0  0  0
    8.4805  -14.3539   27.5850 C   0  0  0  0  0  0  0  0  0  0  0  0
    7.6998  -13.3904   26.7807 C   0  0  0  0  0  0  0  0  0  0  0  0
    8.2310  -12.8732   25.6125 C   0  0  0  0  0  0  0  0  0  0  0  0
    7.5057  -11.9893   24.8722 C   0  0  0  0  0  0  0  0  0  0  0  0
    6.2397  -11.6086   25.2863 C   0  0  0  0  0  0  0  0  0  0  0  0
    5.6933  -12.1150   26.4497 C   0  0  0  0  0  0  0  0  0  0  0  0
    6.4507  -13.0126   27.1857 C   0  0  0  0  0  0  0  0  0  0  0  0
    9.9669  -16.3503   27.4835 O   0  0  0  0  0  0  0  0  0  0  0  0
    9.6134  -17.5478   27.6825 O   0  0  0  0  0  0  0  0  0  0  0  0
  2  1  1  6
  2  3  1  0
  3  4  1  0
  5  4  1  0
  6  5  2  0
  7  2  1  0
  8  7  2  0
  9  5  1  0
 10 11  1  0
 11 13  1  0
 11 12  2  0
 13 14  1  0
 14 15  1  0
 15 16  1  0
 17 16  1  1
 17 18  1  0
 18  7  1  0
 19 21  1  0
 19 17  1  0
 20 19  2  0
 22 30  1  0
 22 21  1  0
 22 23  1  6
 24 23  1  0
 24 25  2  0
 26 25  1  0
 27 26  2  0
 28 29  2  0
 28 27  1  0
 29 24  1  0
 30 32  1  0
 31 30  2  0
M  END
$$$$
