LHE.pdb
     RDKit          3D

 28 28  0  0  1  0  0  0  0  0999 V2000
   43.8128   -3.1704   -5.1214 C   0  0  0  0  0  0  0  0  0  0  0  0
   42.5775   -3.2298   -5.9824 C   0  0  2  0  0  0  0  0  0  0  0  0
   42.6396   -2.2609   -7.1353 C   0  0  0  0  0  0  0  0  0  0  0  0
   41.3223   -3.1102   -5.1816 C   0  0  0  0  0  0  0  0  0  0  0  0
   41.2474   -4.0076   -3.9891 C   0  0  2  0  0  0  0  0  0  0  0  0
   40.8859   -5.3399   -4.3788 N   0  0  0  0  0  0  0  0  0  0  0  0
   40.2539   -3.4219   -3.0390 C   0  0  0  0  0  0  0  0  0  0  0  0
   39.0115   -3.4535   -3.3096 O   0  0  0  0  0  0  0  0  0  0  0  0
   40.6064   -2.8127   -1.8154 N   0  0  0  0  0  0  0  0  0  0  0  0
   39.6495   -2.2585   -0.8942 C   0  0  1  0  0  0  0  0  0  0  0  0
   40.1947   -2.4536    0.5150 C   0  0  0  0  0  0  0  0  0  0  0  0
   39.7325   -3.7585    1.0487 C   0  0  0  0  0  0  0  0  0  0  0  0
   40.4901   -4.8970    1.2340 C   0  0  0  0  0  0  0  0  0  0  0  0
   39.6958   -5.8392    1.7322 N   0  0  0  0  0  0  0  0  0  0  0  0
   38.4634   -5.3231    1.8640 C   0  0  0  0  0  0  0  0  0  0  0  0
   38.4580   -4.0399    1.4494 N   0  0  0  0  0  0  0  0  0  0  0  0
   39.2850   -0.8759   -1.1758 C   0  0  0  0  0  0  0  0  0  0  0  0
   40.1570   -0.1215   -1.7325 O   0  0  0  0  0  0  0  0  0  0  0  0
   38.0380   -0.2678   -0.8918 N   0  0  0  0  0  0  0  0  0  0  0  0
   37.7086    1.1032   -1.2823 C   0  0  1  0  0  0  0  0  0  0  0  0
   36.6112    1.1288   -2.2845 C   0  0  0  0  0  0  0  0  0  0  0  0
   36.3056    2.4812   -2.8180 C   0  0  0  0  0  0  0  0  0  0  0  0
   35.1141    2.4599   -3.7342 C   0  0  0  0  0  0  0  0  0  0  0  0
   34.4983    1.3647   -3.7832 O   0  0  0  0  0  0  0  0  0  0  0  0
   37.4237    1.9486   -0.1289 C   0  0  0  0  0  0  0  0  0  0  0  0
   37.6461    3.2960   -0.1072 O   0  0  0  0  0  0  0  0  0  0  0  0
   34.6926    3.5285   -4.4795 O   0  0  0  0  0  0  0  0  0  0  0  0
   36.9404    1.4126    0.9324 O   0  0  0  0  0  0  0  0  0  0  0  0
  2  1  1  1
  2  3  1  0
  4  2  1  0
  5  4  1  0
  5  6  1  6
  7  8  2  0
  7  5  1  0
  9  7  1  0
 10  9  1  0
 11 12  1  0
 10 11  1  1
 12 16  1  0
 13 12  2  0
 13 14  1  0
 14 15  1  0
 16 15  2  0
 17 10  1  0
 17 18  2  0
 19 17  1  0
 20 19  1  0
 20 21  1  6
 22 21  1  0
 23 22  1  0
 24 23  2  0
 25 20  1  0
 26 25  1  0
 27 23  1  0
 28 25  2  0
M  END
$$$$
