LHE.pdb
     RDKit          3D

 28 28  0  0  1  0  0  0  0  0999 V2000
   27.2050  -11.3648  -15.1578 C   0  0  0  0  0  0  0  0  0  0  0  0
   26.9711  -10.5390  -16.3964 C   0  0  2  0  0  0  0  0  0  0  0  0
   27.9502   -9.3992  -16.5143 C   0  0  0  0  0  0  0  0  0  0  0  0
   25.5475  -10.1066  -16.5286 C   0  0  0  0  0  0  0  0  0  0  0  0
   24.5389  -11.1943  -16.3482 C   0  0  2  0  0  0  0  0  0  0  0  0
   24.7429  -12.2397  -17.3090 N   0  0  0  0  0  0  0  0  0  0  0  0
   23.1813  -10.5837  -16.4774 C   0  0  0  0  0  0  0  0  0  0  0  0
   22.7488  -10.2158  -17.6155 O   0  0  0  0  0  0  0  0  0  0  0  0
   22.3092  -10.3772  -15.3867 N   0  0  0  0  0  0  0  0  0  0  0  0
   21.0160   -9.7565  -15.5044 C   0  0  1  0  0  0  0  0  0  0  0  0
   20.0859  -10.4274  -14.5015 C   0  0  0  0  0  0  0  0  0  0  0  0
   19.4712  -11.6270  -15.1216 C   0  0  0  0  0  0  0  0  0  0  0  0
   19.6583  -12.0862  -16.4095 C   0  0  0  0  0  0  0  0  0  0  0  0
   18.9281  -13.1867  -16.5605 N   0  0  0  0  0  0  0  0  0  0  0  0
   18.2900  -13.4292  -15.4044 C   0  0  0  0  0  0  0  0  0  0  0  0
   18.6074  -12.4817  -14.4990 N   0  0  0  0  0  0  0  0  0  0  0  0
   21.0392   -8.3052  -15.3747 C   0  0  0  0  0  0  0  0  0  0  0  0
   21.7117   -7.7943  -14.4124 O   0  0  0  0  0  0  0  0  0  0  0  0
   20.3809   -7.3815  -16.2226 N   0  0  0  0  0  0  0  0  0  0  0  0
   20.4688   -5.9315  -16.0482 C   0  0  1  0  0  0  0  0  0  0  0  0
   20.7171   -5.2473  -17.3441 C   0  0  0  0  0  0  0  0  0  0  0  0
   20.8441   -3.7708  -17.2384 C   0  0  0  0  0  0  0  0  0  0  0  0
   21.0080   -3.1301  -18.5882 C   0  0  0  0  0  0  0  0  0  0  0  0
   21.1300   -1.8787  -18.5735 O   0  0  0  0  0  0  0  0  0  0  0  0
   19.3073   -5.3914  -15.3514 C   0  0  0  0  0  0  0  0  0  0  0  0
   19.3521   -4.2810  -14.5575 O   0  0  0  0  0  0  0  0  0  0  0  0
   21.0290   -3.8168  -19.7727 O   0  0  0  0  0  0  0  0  0  0  0  0
   18.1746   -5.9815  -15.4782 O   0  0  0  0  0  0  0  0  0  0  0  0
  2  1  1  1
  2  3  1  0
  4  2  1  0
  5  4  1  0
  5  6  1  6
  7  8  2  0
  7  5  1  0
  9  7  1  0
 10  9  1  0
 11 12  1  0
 10 11  1  1
 12 16  1  0
 13 12  2  0
 13 14  1  0
 14 15  1  0
 16 15  2  0
 17 10  1  0
 17 18  2  0
 19 17  1  0
 20 19  1  0
 20 21  1  6
 22 21  1  0
 23 22  1  0
 24 23  2  0
 25 20  1  0
 26 25  1  0
 27 23  1  0
 28 25  2  0
M  END
$$$$
