LHE.pdb
     RDKit          3D

 28 28  0  0  1  0  0  0  0  0999 V2000
   25.9946  -13.6742  -18.2422 C   0  0  0  0  0  0  0  0  0  0  0  0
   24.6719  -14.1974  -17.7444 C   0  0  2  0  0  0  0  0  0  0  0  0
   24.1493  -15.3263  -18.5954 C   0  0  0  0  0  0  0  0  0  0  0  0
   23.6727  -13.1066  -17.5375 C   0  0  0  0  0  0  0  0  0  0  0  0
   24.1490  -11.9665  -16.6971 C   0  0  2  0  0  0  0  0  0  0  0  0
   24.5327  -12.4235  -15.3926 N   0  0  0  0  0  0  0  0  0  0  0  0
   23.0470  -10.9599  -16.6268 C   0  0  0  0  0  0  0  0  0  0  0  0
   22.5529  -10.4738  -17.6933 O   0  0  0  0  0  0  0  0  0  0  0  0
   22.4920  -10.4906  -15.4167 N   0  0  0  0  0  0  0  0  0  0  0  0
   21.4604   -9.4894  -15.3463 C   0  0  1  0  0  0  0  0  0  0  0  0
   20.3321  -10.0448  -14.4865 C   0  0  0  0  0  0  0  0  0  0  0  0
   19.5608  -11.0442  -15.2662 C   0  0  0  0  0  0  0  0  0  0  0  0
   19.4936  -12.4039  -15.0402 C   0  0  0  0  0  0  0  0  0  0  0  0
   18.6950  -12.9319  -15.9624 N   0  0  0  0  0  0  0  0  0  0  0  0
   18.2607  -11.9419  -16.7585 C   0  0  0  0  0  0  0  0  0  0  0  0
   18.7800  -10.7660  -16.3511 N   0  0  0  0  0  0  0  0  0  0  0  0
   21.9280   -8.1847  -14.8962 C   0  0  0  0  0  0  0  0  0  0  0  0
   22.6910   -8.1365  -13.8691 O   0  0  0  0  0  0  0  0  0  0  0  0
   21.6193   -6.9372  -15.4913 N   0  0  0  0  0  0  0  0  0  0  0  0
   22.1566   -5.6650  -15.0082 C   0  0  1  0  0  0  0  0  0  0  0  0
   21.9316   -4.5761  -15.9945 C   0  0  0  0  0  0  0  0  0  0  0  0
   22.4985   -3.2632  -15.5916 C   0  0  0  0  0  0  0  0  0  0  0  0
   22.2358   -2.2046  -16.6260 C   0  0  0  0  0  0  0  0  0  0  0  0
   21.8212   -2.6321  -17.7334 O   0  0  0  0  0  0  0  0  0  0  0  0
   21.6516   -5.3241  -13.6834 C   0  0  0  0  0  0  0  0  0  0  0  0
   22.3371   -4.5511  -12.7901 O   0  0  0  0  0  0  0  0  0  0  0  0
   22.4196   -0.8630  -16.4232 O   0  0  0  0  0  0  0  0  0  0  0  0
   20.5036   -5.7690  -13.3206 O   0  0  0  0  0  0  0  0  0  0  0  0
  2  1  1  6
  2  3  1  0
  4  2  1  0
  5  4  1  0
  5  6  1  1
  7  8  2  0
  7  5  1  0
  9  7  1  0
 10  9  1  0
 11 12  1  0
 10 11  1  1
 12 16  1  0
 13 12  2  0
 13 14  1  0
 14 15  1  0
 16 15  2  0
 17 10  1  0
 17 18  2  0
 19 17  1  0
 20 19  1  0
 20 21  1  6
 22 21  1  0
 23 22  1  0
 24 23  2  0
 25 20  1  0
 26 25  1  0
 27 23  1  0
 28 25  2  0
M  END
$$$$
