LHE.pdb
     RDKit          3D

 28 28  0  0  1  0  0  0  0  0999 V2000
   14.8769  -12.9292  -17.7957 C   0  0  0  0  0  0  0  0  0  0  0  0
   15.0458  -13.1655  -16.3170 C   0  0  2  0  0  0  0  0  0  0  0  0
   13.8285  -12.7502  -15.5312 C   0  0  0  0  0  0  0  0  0  0  0  0
   16.3138  -12.5773  -15.7903 C   0  0  0  0  0  0  0  0  0  0  0  0
   17.5434  -12.9398  -16.5581 C   0  0  2  0  0  0  0  0  0  0  0  0
   17.8375  -14.3364  -16.4149 N   0  0  0  0  0  0  0  0  0  0  0  0
   18.6626  -12.0862  -16.0567 C   0  0  0  0  0  0  0  0  0  0  0  0
   18.5660  -11.4955  -14.9344 O   0  0  0  0  0  0  0  0  0  0  0  0
   19.8664  -11.8792  -16.7644 N   0  0  0  0  0  0  0  0  0  0  0  0
   20.9170  -11.0044  -16.3146 C   0  0  1  0  0  0  0  0  0  0  0  0
   22.2277  -11.5125  -16.9020 C   0  0  0  0  0  0  0  0  0  0  0  0
   23.3498  -10.6793  -16.4037 C   0  0  0  0  0  0  0  0  0  0  0  0
   24.1383  -10.9214  -15.2973 C   0  0  0  0  0  0  0  0  0  0  0  0
   25.0253   -9.9356  -15.2048 N   0  0  0  0  0  0  0  0  0  0  0  0
   24.8146   -9.0843  -16.2213 C   0  0  0  0  0  0  0  0  0  0  0  0
   23.7860   -9.5195  -16.9769 N   0  0  0  0  0  0  0  0  0  0  0  0
   20.6776   -9.5946  -16.5953 C   0  0  0  0  0  0  0  0  0  0  0  0
   20.1974   -9.2784  -17.7394 O   0  0  0  0  0  0  0  0  0  0  0  0
   20.9259   -8.5147  -15.7134 N   0  0  0  0  0  0  0  0  0  0  0  0
   20.8002   -7.1121  -16.1101 C   0  0  1  0  0  0  0  0  0  0  0  0
   19.5046   -6.5392  -15.6603 C   0  0  0  0  0  0  0  0  0  0  0  0
   19.3242   -5.1035  -15.9972 C   0  0  0  0  0  0  0  0  0  0  0  0
   17.9824   -4.5934  -15.5511 C   0  0  0  0  0  0  0  0  0  0  0  0
   17.0256   -5.3919  -15.7185 O   0  0  0  0  0  0  0  0  0  0  0  0
   21.9394   -6.3140  -15.6721 C   0  0  0  0  0  0  0  0  0  0  0  0
   22.3766   -5.1987  -16.3281 O   0  0  0  0  0  0  0  0  0  0  0  0
   17.7692   -3.3589  -14.9984 O   0  0  0  0  0  0  0  0  0  0  0  0
   22.5784   -6.6670  -14.6165 O   0  0  0  0  0  0  0  0  0  0  0  0
  2  1  1  6
  2  3  1  0
  4  2  1  0
  5  4  1  0
  5  6  1  1
  7  8  2  0
  7  5  1  0
  9  7  1  0
 10  9  1  0
 11 12  1  0
 10 11  1  6
 12 16  1  0
 13 12  2  0
 13 14  1  0
 14 15  1  0
 16 15  2  0
 17 10  1  0
 17 18  2  0
 19 17  1  0
 20 19  1  0
 20 21  1  1
 22 21  1  0
 23 22  1  0
 24 23  2  0
 25 20  1  0
 26 25  1  0
 27 23  1  0
 28 25  2  0
M  END
$$$$
