LHE.pdb
     RDKit          3D

 28 28  0  0  1  0  0  0  0  0999 V2000
   26.0039  -21.3675   -7.4700 C   0  0  0  0  0  0  0  0  0  0  0  0
   26.7886  -20.3091   -8.2012 C   0  0  2  0  0  0  0  0  0  0  0  0
   27.0902  -19.1183   -7.3277 C   0  0  0  0  0  0  0  0  0  0  0  0
   26.1609  -19.9374   -9.5047 C   0  0  0  0  0  0  0  0  0  0  0  0
   25.9039  -21.0823  -10.4298 C   0  0  2  0  0  0  0  0  0  0  0  0
   27.1328  -21.7281  -10.7912 N   0  0  0  0  0  0  0  0  0  0  0  0
   25.1880  -20.5490  -11.6280 C   0  0  0  0  0  0  0  0  0  0  0  0
   24.0754  -19.9470  -11.4955 O   0  0  0  0  0  0  0  0  0  0  0  0
   25.6747  -20.6685  -12.9477 N   0  0  0  0  0  0  0  0  0  0  0  0
   24.9991  -20.1320  -14.0998 C   0  0  1  0  0  0  0  0  0  0  0  0
   25.9313  -20.2805  -15.2956 C   0  0  0  0  0  0  0  0  0  0  0  0
   25.3314  -19.6129  -16.4772 C   0  0  0  0  0  0  0  0  0  0  0  0
   24.0870  -19.0217  -16.5561 C   0  0  0  0  0  0  0  0  0  0  0  0
   23.9405  -18.5417  -17.7871 N   0  0  0  0  0  0  0  0  0  0  0  0
   25.0573  -18.8154  -18.4802 C   0  0  0  0  0  0  0  0  0  0  0  0
   25.9325  -19.4761  -17.6954 N   0  0  0  0  0  0  0  0  0  0  0  0
   23.6791  -20.7033  -14.3343 C   0  0  0  0  0  0  0  0  0  0  0  0
   23.5265  -21.9634  -14.1668 O   0  0  0  0  0  0  0  0  0  0  0  0
   22.5222  -19.9923  -14.7363 N   0  0  0  0  0  0  0  0  0  0  0  0
   21.2180  -20.6277  -14.9267 C   0  0  1  0  0  0  0  0  0  0  0  0
   20.2045  -20.0666  -13.9955 C   0  0  0  0  0  0  0  0  0  0  0  0
   18.8544  -20.6721  -14.1286 C   0  0  0  0  0  0  0  0  0  0  0  0
   17.8652  -20.0327  -13.1947 C   0  0  0  0  0  0  0  0  0  0  0  0
   18.2565  -18.9695  -12.6494 O   0  0  0  0  0  0  0  0  0  0  0  0
   20.7804  -20.5759  -16.3167 C   0  0  0  0  0  0  0  0  0  0  0  0
   20.9076  -19.4697  -17.1074 O   0  0  0  0  0  0  0  0  0  0  0  0
   16.6194  -20.5339  -12.9266 O   0  0  0  0  0  0  0  0  0  0  0  0
   20.2418  -21.6170  -16.8396 O   0  0  0  0  0  0  0  0  0  0  0  0
  2  1  1  1
  2  3  1  0
  4  2  1  0
  5  4  1  0
  5  6  1  6
  7  8  2  0
  7  5  1  0
  9  7  1  0
 10  9  1  0
 11 12  1  0
 10 11  1  6
 12 16  1  0
 13 12  2  0
 13 14  1  0
 14 15  1  0
 16 15  2  0
 17 10  1  0
 17 18  2  0
 19 17  1  0
 20 19  1  0
 20 21  1  1
 22 21  1  0
 23 22  1  0
 24 23  2  0
 25 20  1  0
 26 25  1  0
 27 23  1  0
 28 25  2  0
M  END
$$$$
