LHE.pdb
     RDKit          3D

 28 28  0  0  1  0  0  0  0  0999 V2000
   28.2307  -20.6889  -14.3208 C   0  0  0  0  0  0  0  0  0  0  0  0
   27.2098  -19.8244  -15.0145 C   0  0  2  0  0  0  0  0  0  0  0  0
   27.7751  -18.4859  -15.4156 C   0  0  0  0  0  0  0  0  0  0  0  0
   25.9379  -19.7162  -14.2388 C   0  0  0  0  0  0  0  0  0  0  0  0
   25.3670  -21.0185  -13.7794 C   0  0  2  0  0  0  0  0  0  0  0  0
   25.5118  -22.0220  -14.7941 N   0  0  0  0  0  0  0  0  0  0  0  0
   23.9322  -20.7899  -13.4304 C   0  0  0  0  0  0  0  0  0  0  0  0
   23.6182  -19.9674  -12.5124 O   0  0  0  0  0  0  0  0  0  0  0  0
   22.8576  -21.4450  -14.0697 N   0  0  0  0  0  0  0  0  0  0  0  0
   21.4734  -21.1860  -13.7721 C   0  0  1  0  0  0  0  0  0  0  0  0
   20.7928  -20.7565  -15.0656 C   0  0  0  0  0  0  0  0  0  0  0  0
   21.2604  -19.4004  -15.4449 C   0  0  0  0  0  0  0  0  0  0  0  0
   22.1943  -19.0821  -16.4097 C   0  0  0  0  0  0  0  0  0  0  0  0
   22.3224  -17.7592  -16.4329 N   0  0  0  0  0  0  0  0  0  0  0  0
   21.4956  -17.2409  -15.5108 C   0  0  0  0  0  0  0  0  0  0  0  0
   20.8280  -18.2321  -14.8862 N   0  0  0  0  0  0  0  0  0  0  0  0
   20.7908  -22.2908  -13.1108 C   0  0  0  0  0  0  0  0  0  0  0  0
   21.0777  -23.4843  -13.4749 O   0  0  0  0  0  0  0  0  0  0  0  0
   19.8223  -22.1778  -12.0838 N   0  0  0  0  0  0  0  0  0  0  0  0
   19.1959  -23.3346  -11.4434 C   0  0  1  0  0  0  0  0  0  0  0  0
   19.3843  -23.3017   -9.9694 C   0  0  0  0  0  0  0  0  0  0  0  0
   18.8148  -24.4742   -9.2567 C   0  0  0  0  0  0  0  0  0  0  0  0
   18.9469  -24.3350   -7.7658 C   0  0  0  0  0  0  0  0  0  0  0  0
   19.4613  -23.2565   -7.3742 O   0  0  0  0  0  0  0  0  0  0  0  0
   17.7940  -23.4769  -11.8185 C   0  0  0  0  0  0  0  0  0  0  0  0
   17.1698  -24.6831  -11.9624 O   0  0  0  0  0  0  0  0  0  0  0  0
   18.5507  -25.2847   -6.8624 O   0  0  0  0  0  0  0  0  0  0  0  0
   17.0957  -22.4213  -12.0315 O   0  0  0  0  0  0  0  0  0  0  0  0
  2  1  1  1
  2  3  1  0
  4  2  1  0
  5  4  1  0
  5  6  1  6
  7  8  2  0
  7  5  1  0
  9  7  1  0
 10  9  1  0
 11 12  1  0
 10 11  1  6
 12 16  1  0
 13 12  2  0
 13 14  1  0
 14 15  1  0
 16 15  2  0
 17 10  1  0
 17 18  2  0
 19 17  1  0
 20 19  1  0
 20 21  1  1
 22 21  1  0
 23 22  1  0
 24 23  2  0
 25 20  1  0
 26 25  1  0
 27 23  1  0
 28 25  2  0
M  END
$$$$
