LHE.pdb
     RDKit          3D

 28 28  0  0  1  0  0  0  0  0999 V2000
   26.1395  -18.8872  -21.0966 C   0  0  0  0  0  0  0  0  0  0  0  0
   26.8886  -19.8048  -20.1650 C   0  0  2  0  0  0  0  0  0  0  0  0
   27.5962  -20.9120  -20.9033 C   0  0  0  0  0  0  0  0  0  0  0  0
   26.0314  -20.2991  -19.0461 C   0  0  0  0  0  0  0  0  0  0  0  0
   25.3259  -19.2321  -18.2737 C   0  0  2  0  0  0  0  0  0  0  0  0
   26.2129  -18.1414  -17.9889 N   0  0  0  0  0  0  0  0  0  0  0  0
   24.7933  -19.8512  -17.0223 C   0  0  0  0  0  0  0  0  0  0  0  0
   24.1233  -20.9310  -17.0755 O   0  0  0  0  0  0  0  0  0  0  0  0
   24.9870  -19.3047  -15.7353 N   0  0  0  0  0  0  0  0  0  0  0  0
   24.4326  -19.8726  -14.5347 C   0  0  1  0  0  0  0  0  0  0  0  0
   25.2189  -19.3191  -13.3530 C   0  0  0  0  0  0  0  0  0  0  0  0
   24.6600  -19.8595  -12.0892 C   0  0  0  0  0  0  0  0  0  0  0  0
   23.6114  -20.7465  -11.9555 C   0  0  0  0  0  0  0  0  0  0  0  0
   23.4313  -20.9730  -10.6581 N   0  0  0  0  0  0  0  0  0  0  0  0
   24.3371  -20.2536   -9.9765 C   0  0  0  0  0  0  0  0  0  0  0  0
   25.1084  -19.5569  -10.8357 N   0  0  0  0  0  0  0  0  0  0  0  0
   22.9940  -19.6848  -14.3976 C   0  0  0  0  0  0  0  0  0  0  0  0
   22.5141  -18.5155  -14.6021 O   0  0  0  0  0  0  0  0  0  0  0  0
   22.0513  -20.6845  -14.0548 N   0  0  0  0  0  0  0  0  0  0  0  0
   20.6119  -20.4342  -13.9762 C   0  0  1  0  0  0  0  0  0  0  0  0
   19.8372  -21.6935  -14.1287 C   0  0  0  0  0  0  0  0  0  0  0  0
   18.3669  -21.4973  -14.2121 C   0  0  0  0  0  0  0  0  0  0  0  0
   17.6464  -22.7956  -14.4461 C   0  0  0  0  0  0  0  0  0  0  0  0
   18.3787  -23.8177  -14.4573 O   0  0  0  0  0  0  0  0  0  0  0  0
   20.2474  -19.7038  -12.7679 C   0  0  0  0  0  0  0  0  0  0  0  0
   19.2402  -18.7827  -12.7175 O   0  0  0  0  0  0  0  0  0  0  0  0
   16.2951  -22.9063  -14.6378 O   0  0  0  0  0  0  0  0  0  0  0  0
   20.9006  -19.9246  -11.6854 O   0  0  0  0  0  0  0  0  0  0  0  0
  2  1  1  6
  2  3  1  0
  4  2  1  0
  5  4  1  0
  5  6  1  1
  7  8  2  0
  7  5  1  0
  9  7  1  0
 10  9  1  0
 11 12  1  0
 10 11  1  1
 12 16  1  0
 13 12  2  0
 13 14  1  0
 14 15  1  0
 16 15  2  0
 17 10  1  0
 17 18  2  0
 19 17  1  0
 20 19  1  0
 20 21  1  1
 22 21  1  0
 23 22  1  0
 24 23  2  0
 25 20  1  0
 26 25  1  0
 27 23  1  0
 28 25  2  0
M  END
$$$$
