LHE.pdb
     RDKit          3D

 28 28  0  0  1  0  0  0  0  0999 V2000
   25.9644  -21.2062   -7.2290 C   0  0  0  0  0  0  0  0  0  0  0  0
   26.8890  -20.3166   -8.0192 C   0  0  2  0  0  0  0  0  0  0  0  0
   27.4220  -19.1732   -7.1945 C   0  0  0  0  0  0  0  0  0  0  0  0
   26.2840  -19.8763   -9.3120 C   0  0  0  0  0  0  0  0  0  0  0  0
   25.8317  -20.9849  -10.2062 C   0  0  2  0  0  0  0  0  0  0  0  0
   26.9380  -21.8169  -10.5821 N   0  0  0  0  0  0  0  0  0  0  0  0
   25.1740  -20.3697  -11.3985 C   0  0  0  0  0  0  0  0  0  0  0  0
   24.2176  -19.5445  -11.2495 O   0  0  0  0  0  0  0  0  0  0  0  0
   25.5508  -20.6477  -12.7303 N   0  0  0  0  0  0  0  0  0  0  0  0
   24.9283  -20.0442  -13.8790 C   0  0  1  0  0  0  0  0  0  0  0  0
   25.7674  -20.3966  -15.1008 C   0  0  0  0  0  0  0  0  0  0  0  0
   25.2093  -19.7196  -16.2972 C   0  0  0  0  0  0  0  0  0  0  0  0
   24.5167  -18.5265  -16.3306 C   0  0  0  0  0  0  0  0  0  0  0  0
   24.1963  -18.2758  -17.5962 N   0  0  0  0  0  0  0  0  0  0  0  0
   24.6687  -19.2774  -18.3552 C   0  0  0  0  0  0  0  0  0  0  0  0
   25.2984  -20.1823  -17.5786 N   0  0  0  0  0  0  0  0  0  0  0  0
   23.5204  -20.3845  -14.0396 C   0  0  0  0  0  0  0  0  0  0  0  0
   23.1482  -21.5741  -13.7470 O   0  0  0  0  0  0  0  0  0  0  0  0
   22.4991  -19.5157  -14.4952 N   0  0  0  0  0  0  0  0  0  0  0  0
   21.1044  -19.9306  -14.6482 C   0  0  1  0  0  0  0  0  0  0  0  0
   20.1780  -18.9401  -14.0402 C   0  0  0  0  0  0  0  0  0  0  0  0
   18.7405  -19.2928  -14.1678 C   0  0  0  0  0  0  0  0  0  0  0  0
   18.2802  -20.1641  -13.0326 C   0  0  0  0  0  0  0  0  0  0  0  0
   18.4538  -19.6807  -11.8848 O   0  0  0  0  0  0  0  0  0  0  0  0
   20.7682  -20.2223  -16.0368 C   0  0  0  0  0  0  0  0  0  0  0  0
   19.9997  -21.2842  -16.4204 O   0  0  0  0  0  0  0  0  0  0  0  0
   17.7091  -21.3988  -13.1880 O   0  0  0  0  0  0  0  0  0  0  0  0
   21.2132  -19.4508  -16.9610 O   0  0  0  0  0  0  0  0  0  0  0  0
  2  1  1  1
  2  3  1  0
  4  2  1  0
  5  4  1  0
  5  6  1  6
  7  8  2  0
  7  5  1  0
  9  7  1  0
 10  9  1  0
 11 12  1  0
 10 11  1  6
 12 16  1  0
 13 12  2  0
 13 14  1  0
 14 15  1  0
 16 15  2  0
 17 10  1  0
 17 18  2  0
 19 17  1  0
 20 19  1  0
 20 21  1  6
 22 21  1  0
 23 22  1  0
 24 23  2  0
 25 20  1  0
 26 25  1  0
 27 23  1  0
 28 25  2  0
M  END
$$$$
