LHE.pdb
     RDKit          3D

 28 28  0  0  1  0  0  0  0  0999 V2000
   26.2888  -14.5458  -15.5675 C   0  0  0  0  0  0  0  0  0  0  0  0
   27.4787  -14.1191  -16.3879 C   0  0  2  0  0  0  0  0  0  0  0  0
   28.7002  -14.9522  -16.0954 C   0  0  0  0  0  0  0  0  0  0  0  0
   27.7336  -12.6503  -16.2952 C   0  0  0  0  0  0  0  0  0  0  0  0
   26.5409  -11.7863  -16.5485 C   0  0  2  0  0  0  0  0  0  0  0  0
   25.6806  -12.3839  -17.5285 N   0  0  0  0  0  0  0  0  0  0  0  0
   27.0336  -10.4467  -16.9905 C   0  0  0  0  0  0  0  0  0  0  0  0
   27.7460   -9.7362  -16.2124 O   0  0  0  0  0  0  0  0  0  0  0  0
   26.7558   -9.8899  -18.2576 N   0  0  0  0  0  0  0  0  0  0  0  0
   27.1390   -8.5582  -18.6462 C   0  0  1  0  0  0  0  0  0  0  0  0
   27.9207   -8.6616  -19.9498 C   0  0  0  0  0  0  0  0  0  0  0  0
   29.1700   -9.4282  -19.7188 C   0  0  0  0  0  0  0  0  0  0  0  0
   30.3551   -8.9502  -19.1978 C   0  0  0  0  0  0  0  0  0  0  0  0
   31.2192   -9.9595  -19.1565 N   0  0  0  0  0  0  0  0  0  0  0  0
   30.6089  -11.0548  -19.6364 C   0  0  0  0  0  0  0  0  0  0  0  0
   29.3429  -10.7549  -19.9908 N   0  0  0  0  0  0  0  0  0  0  0  0
   26.0278   -7.6186  -18.7235 C   0  0  0  0  0  0  0  0  0  0  0  0
   24.8938   -8.0543  -19.1277 O   0  0  0  0  0  0  0  0  0  0  0  0
   26.0739   -6.2431  -18.3893 N   0  0  0  0  0  0  0  0  0  0  0  0
   24.8776   -5.4424  -18.1278 C   0  0  1  0  0  0  0  0  0  0  0  0
   24.0599   -6.0360  -17.0378 C   0  0  0  0  0  0  0  0  0  0  0  0
   22.8418   -5.2567  -16.6972 C   0  0  0  0  0  0  0  0  0  0  0  0
   22.0516   -5.9137  -15.6001 C   0  0  0  0  0  0  0  0  0  0  0  0
   22.7396   -6.4741  -14.7092 O   0  0  0  0  0  0  0  0  0  0  0  0
   25.1987   -4.0421  -17.8782 C   0  0  0  0  0  0  0  0  0  0  0  0
   26.4605   -3.5929  -17.6113 O   0  0  0  0  0  0  0  0  0  0  0  0
   20.6840   -5.9267  -15.5335 O   0  0  0  0  0  0  0  0  0  0  0  0
   24.2552   -3.1723  -17.9041 O   0  0  0  0  0  0  0  0  0  0  0  0
  2  1  1  1
  2  3  1  0
  4  2  1  0
  5  4  1  0
  5  6  1  6
  7  8  2  0
  7  5  1  0
  9  7  1  0
 10  9  1  0
 11 12  1  0
 10 11  1  6
 12 16  1  0
 13 12  2  0
 13 14  1  0
 14 15  1  0
 16 15  2  0
 17 10  1  0
 17 18  2  0
 19 17  1  0
 20 19  1  0
 20 21  1  1
 22 21  1  0
 23 22  1  0
 24 23  2  0
 25 20  1  0
 26 25  1  0
 27 23  1  0
 28 25  2  0
M  END
$$$$
