LHE.pdb
     RDKit          3D

 28 28  0  0  1  0  0  0  0  0999 V2000
   18.6087  -16.9843  -15.1339 C   0  0  0  0  0  0  0  0  0  0  0  0
   19.9205  -16.5283  -14.5490 C   0  0  2  0  0  0  0  0  0  0  0  0
   19.8837  -16.4719  -13.0432 C   0  0  0  0  0  0  0  0  0  0  0  0
   20.4091  -15.2619  -15.1724 C   0  0  0  0  0  0  0  0  0  0  0  0
   20.4109  -15.2547  -16.6667 C   0  0  2  0  0  0  0  0  0  0  0  0
   21.5354  -15.9850  -17.1761 N   0  0  0  0  0  0  0  0  0  0  0  0
   20.4292  -13.8297  -17.1160 C   0  0  0  0  0  0  0  0  0  0  0  0
   21.5060  -13.1547  -17.0654 O   0  0  0  0  0  0  0  0  0  0  0  0
   19.2951  -13.1512  -17.6122 N   0  0  0  0  0  0  0  0  0  0  0  0
   19.2928  -11.7583  -17.9744 C   0  0  1  0  0  0  0  0  0  0  0  0
   18.0986  -11.5184  -18.8895 C   0  0  0  0  0  0  0  0  0  0  0  0
   18.1448  -10.1299  -19.4106 C   0  0  0  0  0  0  0  0  0  0  0  0
   19.0329   -9.6171  -20.3341 C   0  0  0  0  0  0  0  0  0  0  0  0
   18.7289   -8.3373  -20.5255 N   0  0  0  0  0  0  0  0  0  0  0  0
   17.6765   -8.0348  -19.7487 C   0  0  0  0  0  0  0  0  0  0  0  0
   17.2958   -9.1235  -19.0499 N   0  0  0  0  0  0  0  0  0  0  0  0
   19.3284  -10.8482  -16.8368 C   0  0  0  0  0  0  0  0  0  0  0  0
   18.7419  -11.2065  -15.7566 O   0  0  0  0  0  0  0  0  0  0  0  0
   19.9597   -9.5810  -16.8020 N   0  0  0  0  0  0  0  0  0  0  0  0
   19.9388   -8.7083  -15.6278 C   0  0  1  0  0  0  0  0  0  0  0  0
   21.0274   -7.6981  -15.6883 C   0  0  0  0  0  0  0  0  0  0  0  0
   21.1278   -6.8386  -14.4807 C   0  0  0  0  0  0  0  0  0  0  0  0
   22.2490   -5.8444  -14.5991 C   0  0  0  0  0  0  0  0  0  0  0  0
   22.9170   -5.9176  -15.6619 O   0  0  0  0  0  0  0  0  0  0  0  0
   18.6302   -8.0992  -15.4205 C   0  0  0  0  0  0  0  0  0  0  0  0
   18.1336   -7.7781  -14.1894 O   0  0  0  0  0  0  0  0  0  0  0  0
   22.5577   -4.9100  -13.6469 O   0  0  0  0  0  0  0  0  0  0  0  0
   17.8915   -7.8475  -16.4394 O   0  0  0  0  0  0  0  0  0  0  0  0
  2  1  1  6
  2  3  1  0
  4  2  1  0
  5  4  1  0
  5  6  1  1
  7  8  2  0
  7  5  1  0
  9  7  1  0
 10  9  1  0
 11 12  1  0
 10 11  1  1
 12 16  1  0
 13 12  2  0
 13 14  1  0
 14 15  1  0
 16 15  2  0
 17 10  1  0
 17 18  2  0
 19 17  1  0
 20 19  1  0
 20 21  1  6
 22 21  1  0
 23 22  1  0
 24 23  2  0
 25 20  1  0
 26 25  1  0
 27 23  1  0
 28 25  2  0
M  END
$$$$
