LHE.pdb
     RDKit          3D

 28 28  0  0  1  0  0  0  0  0999 V2000
   17.0703  -15.3703    2.1275 C   0  0  0  0  0  0  0  0  0  0  0  0
   17.7134  -14.0824    2.5732 C   0  0  2  0  0  0  0  0  0  0  0  0
   18.6587  -13.5297    1.5374 C   0  0  0  0  0  0  0  0  0  0  0  0
   18.3293  -14.1962    3.9292 C   0  0  0  0  0  0  0  0  0  0  0  0
   17.4681  -14.8515    4.9597 C   0  0  2  0  0  0  0  0  0  0  0  0
   16.3230  -14.0395    5.2546 N   0  0  0  0  0  0  0  0  0  0  0  0
   18.3068  -15.0842    6.1742 C   0  0  0  0  0  0  0  0  0  0  0  0
   19.3626  -15.7895    6.0994 O   0  0  0  0  0  0  0  0  0  0  0  0
   18.0018  -14.5582    7.4482 N   0  0  0  0  0  0  0  0  0  0  0  0
   18.7657  -14.8439    8.6341 C   0  0  1  0  0  0  0  0  0  0  0  0
   18.8306  -13.5676    9.4634 C   0  0  0  0  0  0  0  0  0  0  0  0
   19.8345  -12.6460    8.8766 C   0  0  0  0  0  0  0  0  0  0  0  0
   20.6049  -12.8617    7.7521 C   0  0  0  0  0  0  0  0  0  0  0  0
   21.3710  -11.7906    7.5706 N   0  0  0  0  0  0  0  0  0  0  0  0
   21.1020  -10.9113    8.5488 C   0  0  0  0  0  0  0  0  0  0  0  0
   20.1570  -11.4141    9.3689 N   0  0  0  0  0  0  0  0  0  0  0  0
   18.2800  -15.9897    9.3923 C   0  0  0  0  0  0  0  0  0  0  0  0
   17.0207  -16.0868    9.6022 O   0  0  0  0  0  0  0  0  0  0  0  0
   19.0749  -17.0303    9.9319 N   0  0  0  0  0  0  0  0  0  0  0  0
   18.5229  -18.1329   10.7194 C   0  0  1  0  0  0  0  0  0  0  0  0
   18.2342  -19.3137    9.8642 C   0  0  0  0  0  0  0  0  0  0  0  0
   17.6514  -20.4676   10.5963 C   0  0  0  0  0  0  0  0  0  0  0  0
   17.4398  -21.6491    9.6914 C   0  0  0  0  0  0  0  0  0  0  0  0
   17.6782  -21.4389    8.4749 O   0  0  0  0  0  0  0  0  0  0  0  0
   19.3677  -18.4693   11.8594 C   0  0  0  0  0  0  0  0  0  0  0  0
   20.6472  -18.0162   12.0105 O   0  0  0  0  0  0  0  0  0  0  0  0
   17.0197  -22.8818   10.1147 O   0  0  0  0  0  0  0  0  0  0  0  0
   18.8994  -19.2338   12.7779 O   0  0  0  0  0  0  0  0  0  0  0  0
  2  1  1  6
  2  3  1  0
  4  2  1  0
  5  4  1  0
  5  6  1  1
  7  8  2  0
  7  5  1  0
  9  7  1  0
 10  9  1  0
 11 12  1  0
 10 11  1  1
 12 16  1  0
 13 12  2  0
 13 14  1  0
 14 15  1  0
 16 15  2  0
 17 10  1  0
 17 18  2  0
 19 17  1  0
 20 19  1  0
 20 21  1  6
 22 21  1  0
 23 22  1  0
 24 23  2  0
 25 20  1  0
 26 25  1  0
 27 23  1  0
 28 25  2  0
M  END
$$$$
