LHE.pdb
     RDKit          3D

 28 28  0  0  1  0  0  0  0  0999 V2000
   26.2956  -13.6302  -18.4431 C   0  0  0  0  0  0  0  0  0  0  0  0
   24.8928  -14.1173  -18.1870 C   0  0  2  0  0  0  0  0  0  0  0  0
   24.4113  -15.0578  -19.2619 C   0  0  0  0  0  0  0  0  0  0  0  0
   23.9434  -12.9956  -17.9197 C   0  0  0  0  0  0  0  0  0  0  0  0
   24.3899  -12.0279  -16.8722 C   0  0  2  0  0  0  0  0  0  0  0  0
   24.6773  -12.7082  -15.6425 N   0  0  0  0  0  0  0  0  0  0  0  0
   23.3090  -11.0106  -16.7003 C   0  0  0  0  0  0  0  0  0  0  0  0
   22.9114  -10.3227  -17.6935 O   0  0  0  0  0  0  0  0  0  0  0  0
   22.6716  -10.7469  -15.4687 N   0  0  0  0  0  0  0  0  0  0  0  0
   21.6255   -9.7723  -15.3034 C   0  0  1  0  0  0  0  0  0  0  0  0
   20.5941  -10.3559  -14.3459 C   0  0  0  0  0  0  0  0  0  0  0  0
   19.6391  -11.2027  -15.1025 C   0  0  0  0  0  0  0  0  0  0  0  0
   19.6469  -11.4575  -16.4587 C   0  0  0  0  0  0  0  0  0  0  0  0
   18.6239  -12.2623  -16.7287 N   0  0  0  0  0  0  0  0  0  0  0  0
   17.9766  -12.5183  -15.5807 C   0  0  0  0  0  0  0  0  0  0  0  0
   18.5823  -11.8766  -14.5610 N   0  0  0  0  0  0  0  0  0  0  0  0
   22.0986   -8.4559  -14.8950 C   0  0  0  0  0  0  0  0  0  0  0  0
   22.9486   -8.3878  -13.9399 O   0  0  0  0  0  0  0  0  0  0  0  0
   21.7071   -7.2171  -15.4586 N   0  0  0  0  0  0  0  0  0  0  0  0
   22.2874   -5.9356  -15.0564 C   0  0  1  0  0  0  0  0  0  0  0  0
   21.8231   -4.8335  -15.9390 C   0  0  0  0  0  0  0  0  0  0  0  0
   22.3425   -3.4932  -15.5637 C   0  0  0  0  0  0  0  0  0  0  0  0
   21.8103   -2.4183  -16.4697 C   0  0  0  0  0  0  0  0  0  0  0  0
   21.8729   -2.6771  -17.6986 O   0  0  0  0  0  0  0  0  0  0  0  0
   22.0575   -5.6482  -13.6454 C   0  0  0  0  0  0  0  0  0  0  0  0
   22.9512   -4.9832  -12.8552 O   0  0  0  0  0  0  0  0  0  0  0  0
   21.2870   -1.2299  -16.0352 O   0  0  0  0  0  0  0  0  0  0  0  0
   20.9623   -6.0369  -13.1007 O   0  0  0  0  0  0  0  0  0  0  0  0
  2  1  1  6
  2  3  1  0
  4  2  1  0
  5  4  1  0
  5  6  1  1
  7  8  2  0
  7  5  1  0
  9  7  1  0
 10  9  1  0
 11 12  1  0
 10 11  1  1
 12 16  1  0
 13 12  2  0
 13 14  1  0
 14 15  1  0
 16 15  2  0
 17 10  1  0
 17 18  2  0
 19 17  1  0
 20 19  1  0
 20 21  1  6
 22 21  1  0
 23 22  1  0
 24 23  2  0
 25 20  1  0
 26 25  1  0
 27 23  1  0
 28 25  2  0
M  END
$$$$
