DRK.pdb
     RDKit          3D

 29 28  0  0  1  0  0  0  0  0999 V2000
    8.8883  -15.9923   18.3179 N   0  0  0  0  0  0  0  0  0  0  0  0
    8.5266  -14.6499   18.8203 C   0  0  1  0  0  0  0  0  0  0  0  0
    7.4952  -14.0487   17.9039 C   0  0  0  0  0  0  0  0  0  0  0  0
    7.8421  -14.1601   16.4893 C   0  0  0  0  0  0  0  0  0  0  0  0
    8.8236  -14.9142   16.1945 O   0  0  0  0  0  0  0  0  0  0  0  0
    8.0740  -14.7693   20.2313 C   0  0  0  0  0  0  0  0  0  0  0  0
    7.6476  -13.8391   20.9420 O   0  0  0  0  0  0  0  0  0  0  0  0
    7.2225  -13.5358   15.4461 O   0  0  0  0  0  0  0  0  0  0  0  0
    5.9298  -22.3556   24.7803 N   0  0  0  0  0  0  0  0  0  0  0  0
    6.2417  -21.3224   25.6881 C   0  0  0  0  0  0  0  0  0  0  0  0
    6.1899  -21.5524   26.9536 N   0  0  0  0  0  0  0  0  0  0  0  0
    6.6177  -20.0194   25.2836 N   0  0  0  0  0  0  0  0  0  0  0  0
    6.7588  -19.5682   23.9365 C   0  0  0  0  0  0  0  0  0  0  0  0
    7.2237  -18.1446   23.8180 C   0  0  0  0  0  0  0  0  0  0  0  0
    7.3681  -17.6777   22.3973 C   0  0  0  0  0  0  0  0  0  0  0  0
    7.8306  -16.2520   22.2624 C   0  0  2  0  0  0  0  0  0  0  0  0
    8.1223  -16.0553   20.8482 N   0  0  0  0  0  0  0  0  0  0  0  0
    9.0416  -15.9479   23.0875 C   0  0  0  0  0  0  0  0  0  0  0  0
    9.9463  -16.7967   23.2766 O   0  0  0  0  0  0  0  0  0  0  0  0
    6.4360  -20.8201   27.6465 N   0  0  0  0  0  0  0  0  0  0  0  0
    9.2178  -14.6812   23.6940 C   0  0  2  0  0  0  0  0  0  0  0  0
    8.9492  -14.4134   25.1104 C   0  0  0  0  0  0  0  0  0  0  0  0
    7.6521  -13.7532   25.3535 C   0  0  0  0  0  0  0  0  0  0  0  0
    7.5037  -12.5224   26.0950 C   0  0  0  0  0  0  0  0  0  0  0  0
    6.3186  -11.7843   26.4195 C   0  0  0  0  0  0  0  0  0  0  0  0
    6.2423  -10.5490   27.1885 N   0  0  0  0  0  0  0  0  0  0  0  0
    4.7889  -10.2123   27.3196 C   0  0  0  0  0  0  0  0  0  0  0  0
    9.3013  -15.6068   25.8665 O   0  0  0  0  0  0  0  0  0  0  0  0
    9.8340  -15.5359   27.1389 O   0  0  0  0  0  0  0  0  0  0  0  0
  2  1  1  6
  2  3  1  0
  4  3  1  0
  4  8  1  0
  5  4  2  0
  6  2  1  0
  6  7  2  0
  9 10  1  0
 10 12  1  0
 11 10  2  0
 12 13  1  0
 13 14  1  0
 15 14  1  0
 16 15  1  6
 16 17  1  0
 17  6  1  0
 18 16  1  0
 19 18  2  0
 20 18  1  0
 21 22  1  6
 21 20  1  0
 22 23  1  0
 23 24  1  0
 25 24  1  0
 26 25  1  0
 27 28  1  0
 27 21  1  0
 29 27  2  0
M  END
$$$$
