DRK.pdb
     RDKit          3D

 29 28  0  0  1  0  0  0  0  0999 V2000
   10.8219  -19.1436   20.8897 N   0  0  0  0  0  0  0  0  0  0  0  0
   11.7820  -18.0563   20.6050 C   0  0  1  0  0  0  0  0  0  0  0  0
   11.7377  -17.7404   19.1342 C   0  0  0  0  0  0  0  0  0  0  0  0
   13.0139  -17.9564   18.4568 C   0  0  0  0  0  0  0  0  0  0  0  0
   13.9634  -18.4348   19.1556 O   0  0  0  0  0  0  0  0  0  0  0  0
   11.4648  -16.8932   21.4748 C   0  0  0  0  0  0  0  0  0  0  0  0
   12.2955  -16.1390   22.0165 O   0  0  0  0  0  0  0  0  0  0  0  0
   13.2964  -17.6957   17.1476 O   0  0  0  0  0  0  0  0  0  0  0  0
    9.3225  -14.3920   17.9027 N   0  0  0  0  0  0  0  0  0  0  0  0
    8.1252  -13.6471   17.8800 C   0  0  0  0  0  0  0  0  0  0  0  0
    8.0217  -12.6360   17.0900 N   0  0  0  0  0  0  0  0  0  0  0  0
    7.0051  -13.9508   18.6900 N   0  0  0  0  0  0  0  0  0  0  0  0
    7.0303  -14.1996   20.0955 C   0  0  0  0  0  0  0  0  0  0  0  0
    8.3567  -14.6904   20.6020 C   0  0  0  0  0  0  0  0  0  0  0  0
    8.3519  -15.0263   22.0664 C   0  0  0  0  0  0  0  0  0  0  0  0
    9.6804  -15.4978   22.5936 C   0  0  2  0  0  0  0  0  0  0  0  0
   10.0922  -16.5936   21.7257 N   0  0  0  0  0  0  0  0  0  0  0  0
    9.6161  -15.9602   24.0155 C   0  0  0  0  0  0  0  0  0  0  0  0
    8.8413  -16.8772   24.3811 O   0  0  0  0  0  0  0  0  0  0  0  0
    7.1788  -12.0308   17.0944 N   0  0  0  0  0  0  0  0  0  0  0  0
   10.4320  -15.3776   25.0147 C   0  0  2  0  0  0  0  0  0  0  0  0
   10.0419  -15.2733   26.4243 C   0  0  0  0  0  0  0  0  0  0  0  0
    9.3309  -14.0224   26.7518 C   0  0  0  0  0  0  0  0  0  0  0  0
    7.9513  -13.7686   26.4070 C   0  0  0  0  0  0  0  0  0  0  0  0
    7.0987  -12.6777   26.7783 C   0  0  0  0  0  0  0  0  0  0  0  0
    5.7076  -12.4852   26.3899 N   0  0  0  0  0  0  0  0  0  0  0  0
    5.2575  -11.2041   27.0217 C   0  0  0  0  0  0  0  0  0  0  0  0
    9.4715  -16.5510   26.8270 O   0  0  0  0  0  0  0  0  0  0  0  0
    9.5271  -16.9979   28.1327 O   0  0  0  0  0  0  0  0  0  0  0  0
  2  1  1  6
  2  3  1  0
  4  3  1  0
  4  8  1  0
  5  4  2  0
  6  2  1  0
  6  7  2  0
  9 10  1  0
 10 12  1  0
 11 10  2  0
 12 13  1  0
 13 14  1  0
 15 14  1  0
 16 15  1  6
 16 17  1  0
 17  6  1  0
 18 16  1  0
 19 18  2  0
 20 18  1  0
 21 22  1  1
 21 20  1  0
 22 23  1  0
 23 24  1  0
 25 24  1  0
 26 25  1  0
 27 28  1  0
 27 21  1  0
 29 27  2  0
M  END
$$$$
