DRK.pdb
     RDKit          3D

 29 28  0  0  1  0  0  0  0  0999 V2000
   12.1217  -16.4686   19.4049 N   0  0  0  0  0  0  0  0  0  0  0  0
   12.9744  -15.8792   20.4590 C   0  0  1  0  0  0  0  0  0  0  0  0
   13.6977  -14.6882   19.8907 C   0  0  0  0  0  0  0  0  0  0  0  0
   14.4267  -14.9862   18.6603 C   0  0  0  0  0  0  0  0  0  0  0  0
   14.1866  -16.1057   18.1052 O   0  0  0  0  0  0  0  0  0  0  0  0
   12.1289  -15.5569   21.6385 C   0  0  0  0  0  0  0  0  0  0  0  0
   12.5275  -15.0545   22.7066 O   0  0  0  0  0  0  0  0  0  0  0  0
   15.3439  -14.1872   18.0420 O   0  0  0  0  0  0  0  0  0  0  0  0
    8.6358  -11.4121   18.6123 N   0  0  0  0  0  0  0  0  0  0  0  0
    8.0576  -12.6937   18.7217 C   0  0  0  0  0  0  0  0  0  0  0  0
    8.4582  -13.6391   17.9452 N   0  0  0  0  0  0  0  0  0  0  0  0
    7.0418  -13.0113   19.6546 N   0  0  0  0  0  0  0  0  0  0  0  0
    7.0809  -14.0747   20.6062 C   0  0  0  0  0  0  0  0  0  0  0  0
    8.4294  -14.2769   21.2366 C   0  0  0  0  0  0  0  0  0  0  0  0
    8.4809  -15.4451   22.1799 C   0  0  0  0  0  0  0  0  0  0  0  0
    9.8539  -15.7375   22.7225 C   0  0  2  0  0  0  0  0  0  0  0  0
   10.7318  -15.8384   21.5636 N   0  0  0  0  0  0  0  0  0  0  0  0
    9.9105  -16.9991   23.5256 C   0  0  0  0  0  0  0  0  0  0  0  0
    9.4058  -18.0716   23.1137 O   0  0  0  0  0  0  0  0  0  0  0  0
    8.0917  -14.6056   18.0369 N   0  0  0  0  0  0  0  0  0  0  0  0
   10.5396  -17.0350   24.7931 C   0  0  1  0  0  0  0  0  0  0  0  0
   10.8897  -18.2754   25.4922 C   0  0  0  0  0  0  0  0  0  0  0  0
   11.5713  -19.2661   24.6369 C   0  0  0  0  0  0  0  0  0  0  0  0
   11.9004  -20.6059   25.0651 C   0  0  0  0  0  0  0  0  0  0  0  0
   12.6221  -21.6369   24.3788 C   0  0  0  0  0  0  0  0  0  0  0  0
   13.0041  -22.9382   24.9116 N   0  0  0  0  0  0  0  0  0  0  0  0
   13.8313  -23.6087   23.8584 C   0  0  0  0  0  0  0  0  0  0  0  0
   11.4694  -17.9164   26.7786 O   0  0  0  0  0  0  0  0  0  0  0  0
   11.5420  -18.8153   27.8248 O   0  0  0  0  0  0  0  0  0  0  0  0
  2  1  1  6
  2  3  1  0
  4  3  1  0
  4  8  1  0
  5  4  2  0
  6  2  1  0
  6  7  2  0
  9 10  1  0
 10 12  1  0
 11 10  2  0
 12 13  1  0
 13 14  1  0
 15 14  1  0
 16 15  1  6
 16 17  1  0
 17  6  1  0
 18 16  1  0
 19 18  2  0
 20 18  1  0
 21 22  1  1
 21 20  1  0
 22 23  1  0
 23 24  1  0
 25 24  1  0
 26 25  1  0
 27 28  1  0
 27 21  1  0
 29 27  2  0
M  END
$$$$
