DRK.pdb
     RDKit          3D

 29 28  0  0  1  0  0  0  0  0999 V2000
   13.3008  -19.9921   20.2079 N   0  0  0  0  0  0  0  0  0  0  0  0
   14.1146  -18.8353   20.6382 C   0  0  1  0  0  0  0  0  0  0  0  0
   14.9344  -18.3556   19.4709 C   0  0  0  0  0  0  0  0  0  0  0  0
   16.0346  -19.2535   19.1280 C   0  0  0  0  0  0  0  0  0  0  0  0
   16.0342  -20.4011   19.6774 O   0  0  0  0  0  0  0  0  0  0  0  0
   13.2139  -17.7957   21.2021 C   0  0  0  0  0  0  0  0  0  0  0  0
   13.5737  -16.7185   21.7144 O   0  0  0  0  0  0  0  0  0  0  0  0
   17.0686  -18.9885   18.2780 O   0  0  0  0  0  0  0  0  0  0  0  0
    7.6722  -12.9706   17.2365 N   0  0  0  0  0  0  0  0  0  0  0  0
    7.3475  -12.8479   18.6034 C   0  0  0  0  0  0  0  0  0  0  0  0
    6.6188  -11.8623   18.9966 N   0  0  0  0  0  0  0  0  0  0  0  0
    7.7827  -13.7634   19.5910 N   0  0  0  0  0  0  0  0  0  0  0  0
    8.7127  -14.8284   19.3946 C   0  0  0  0  0  0  0  0  0  0  0  0
    8.9675  -15.6479   20.6277 C   0  0  0  0  0  0  0  0  0  0  0  0
    9.9558  -16.7593   20.4149 C   0  0  0  0  0  0  0  0  0  0  0  0
   10.8389  -17.0327   21.6025 C   0  0  2  0  0  0  0  0  0  0  0  0
   11.8067  -18.0300   21.1636 N   0  0  0  0  0  0  0  0  0  0  0  0
   10.0825  -17.5346   22.7924 C   0  0  0  0  0  0  0  0  0  0  0  0
    9.5136  -18.6531   22.7941 O   0  0  0  0  0  0  0  0  0  0  0  0
    6.4157  -11.7079   20.0025 N   0  0  0  0  0  0  0  0  0  0  0  0
    9.9759  -16.7623   23.9739 C   0  0  2  0  0  0  0  0  0  0  0  0
    9.1868  -17.1672   25.1414 C   0  0  0  0  0  0  0  0  0  0  0  0
    9.9934  -17.3737   26.3597 C   0  0  0  0  0  0  0  0  0  0  0  0
   10.4880  -18.6620   26.7869 C   0  0  0  0  0  0  0  0  0  0  0  0
   11.3223  -19.0003   27.9023 C   0  0  0  0  0  0  0  0  0  0  0  0
   11.7029  -20.3390   28.3338 N   0  0  0  0  0  0  0  0  0  0  0  0
   12.5466  -20.1727   29.5599 C   0  0  0  0  0  0  0  0  0  0  0  0
    8.0034  -16.3209   25.1976 O   0  0  0  0  0  0  0  0  0  0  0  0
    6.8527  -16.7149   25.8523 O   0  0  0  0  0  0  0  0  0  0  0  0
  2  1  1  6
  2  3  1  0
  4  3  1  0
  4  8  1  0
  5  4  2  0
  6  2  1  0
  6  7  2  0
  9 10  1  0
 10 12  1  0
 11 10  2  0
 12 13  1  0
 13 14  1  0
 15 14  1  0
 16 15  1  6
 16 17  1  0
 17  6  1  0
 18 16  1  0
 19 18  2  0
 20 18  1  0
 21 22  1  6
 21 20  1  0
 22 23  1  0
 23 24  1  0
 25 24  1  0
 26 25  1  0
 27 28  1  0
 27 21  1  0
 29 27  2  0
M  END
$$$$
