DRK.pdb
     RDKit          3D

 29 28  0  0  1  0  0  0  0  0999 V2000
   13.6329  -17.9738   20.1613 N   0  0  0  0  0  0  0  0  0  0  0  0
   12.6741  -18.3893   21.2069 C   0  0  1  0  0  0  0  0  0  0  0  0
   13.4278  -19.0773   22.3130 C   0  0  0  0  0  0  0  0  0  0  0  0
   14.4837  -19.9638   21.8300 C   0  0  0  0  0  0  0  0  0  0  0  0
   14.1257  -20.9405   21.0973 O   0  0  0  0  0  0  0  0  0  0  0  0
   11.9074  -17.1984   21.6584 C   0  0  0  0  0  0  0  0  0  0  0  0
   12.2113  -16.0097   21.4416 O   0  0  0  0  0  0  0  0  0  0  0  0
   15.8198  -19.8550   22.0849 O   0  0  0  0  0  0  0  0  0  0  0  0
    6.8093  -12.9828   18.4285 N   0  0  0  0  0  0  0  0  0  0  0  0
    7.8907  -12.8890   19.3288 C   0  0  0  0  0  0  0  0  0  0  0  0
    8.7677  -11.9598   19.1727 N   0  0  0  0  0  0  0  0  0  0  0  0
    8.0740  -13.7733   20.4185 N   0  0  0  0  0  0  0  0  0  0  0  0
    7.0928  -14.6645   20.9486 C   0  0  0  0  0  0  0  0  0  0  0  0
    7.5496  -15.4166   22.1662 C   0  0  0  0  0  0  0  0  0  0  0  0
    8.6272  -16.4235   21.8793 C   0  0  0  0  0  0  0  0  0  0  0  0
    9.8245  -16.3179   22.7851 C   0  0  2  0  0  0  0  0  0  0  0  0
   10.7120  -17.4108   22.4084 N   0  0  0  0  0  0  0  0  0  0  0  0
    9.4721  -16.4145   24.2363 C   0  0  0  0  0  0  0  0  0  0  0  0
    8.8653  -17.4067   24.7076 O   0  0  0  0  0  0  0  0  0  0  0  0
    9.6156  -11.9112   19.7690 N   0  0  0  0  0  0  0  0  0  0  0  0
    9.8104  -15.3828   25.1443 C   0  0  1  0  0  0  0  0  0  0  0  0
    9.4640  -15.4074   26.5689 C   0  0  0  0  0  0  0  0  0  0  0  0
    8.2915  -14.5781   26.9084 C   0  0  0  0  0  0  0  0  0  0  0  0
    8.0967  -13.2287   26.4310 C   0  0  0  0  0  0  0  0  0  0  0  0
    7.0933  -12.2673   26.7827 C   0  0  0  0  0  0  0  0  0  0  0  0
    6.9903  -10.8963   26.3001 N   0  0  0  0  0  0  0  0  0  0  0  0
    5.8239  -10.2775   27.0069 C   0  0  0  0  0  0  0  0  0  0  0  0
    9.5212  -16.7905   27.0200 O   0  0  0  0  0  0  0  0  0  0  0  0
   10.3338  -17.1863   28.0644 O   0  0  0  0  0  0  0  0  0  0  0  0
  2  1  1  6
  2  3  1  0
  4  3  1  0
  4  8  1  0
  5  4  2  0
  6  2  1  0
  6  7  2  0
  9 10  1  0
 10 12  1  0
 11 10  2  0
 12 13  1  0
 13 14  1  0
 15 14  1  0
 16 15  1  6
 16 17  1  0
 17  6  1  0
 18 16  1  0
 19 18  2  0
 20 18  1  0
 21 22  1  1
 21 20  1  0
 22 23  1  0
 23 24  1  0
 25 24  1  0
 26 25  1  0
 27 28  1  0
 27 21  1  0
 29 27  2  0
M  END
$$$$
