DRK.pdb
     RDKit          3D

 29 28  0  0  1  0  0  0  0  0999 V2000
   14.0797  -17.4552   18.4314 N   0  0  0  0  0  0  0  0  0  0  0  0
   13.6026  -18.4108   19.4534 C   0  0  1  0  0  0  0  0  0  0  0  0
   14.7690  -19.2301   19.9361 C   0  0  0  0  0  0  0  0  0  0  0  0
   15.4677  -19.9319   18.8621 C   0  0  0  0  0  0  0  0  0  0  0  0
   15.0732  -19.7055   17.6738 O   0  0  0  0  0  0  0  0  0  0  0  0
   12.9150  -17.6568   20.5344 C   0  0  0  0  0  0  0  0  0  0  0  0
   13.4416  -17.2453   21.5858 O   0  0  0  0  0  0  0  0  0  0  0  0
   16.5025  -20.8105   19.0003 O   0  0  0  0  0  0  0  0  0  0  0  0
    6.8627  -12.2214   19.1793 N   0  0  0  0  0  0  0  0  0  0  0  0
    8.1875  -12.5404   19.5425 C   0  0  0  0  0  0  0  0  0  0  0  0
    9.1319  -11.6999   19.3002 N   0  0  0  0  0  0  0  0  0  0  0  0
    8.5500  -13.7550   20.1721 N   0  0  0  0  0  0  0  0  0  0  0  0
    7.7624  -14.4747   21.1206 C   0  0  0  0  0  0  0  0  0  0  0  0
    8.4500  -15.6833   21.6892 C   0  0  0  0  0  0  0  0  0  0  0  0
    9.4455  -16.3035   20.7503 C   0  0  0  0  0  0  0  0  0  0  0  0
   10.7566  -16.6648   21.3949 C   0  0  2  0  0  0  0  0  0  0  0  0
   11.5269  -17.3657   20.3755 N   0  0  0  0  0  0  0  0  0  0  0  0
   10.5958  -17.5283   22.6066 C   0  0  0  0  0  0  0  0  0  0  0  0
   10.0123  -18.6382   22.5583 O   0  0  0  0  0  0  0  0  0  0  0  0
   10.1255  -11.9350   19.4858 N   0  0  0  0  0  0  0  0  0  0  0  0
   11.0984  -17.1256   23.8671 C   0  0  2  0  0  0  0  0  0  0  0  0
   10.9689  -17.9274   25.0879 C   0  0  0  0  0  0  0  0  0  0  0  0
   12.2436  -18.5045   25.5564 C   0  0  0  0  0  0  0  0  0  0  0  0
   12.4032  -19.1759   26.8255 C   0  0  0  0  0  0  0  0  0  0  0  0
   12.9705  -20.4590   27.1194 C   0  0  0  0  0  0  0  0  0  0  0  0
   13.1885  -21.0358   28.4396 N   0  0  0  0  0  0  0  0  0  0  0  0
   13.8965  -22.3385   28.2289 C   0  0  0  0  0  0  0  0  0  0  0  0
   10.1274  -17.1909   26.0204 O   0  0  0  0  0  0  0  0  0  0  0  0
    9.7230  -15.8936   25.7730 O   0  0  0  0  0  0  0  0  0  0  0  0
  2  1  1  6
  2  3  1  0
  4  3  1  0
  4  8  1  0
  5  4  2  0
  6  2  1  0
  6  7  2  0
  9 10  1  0
 10 12  1  0
 11 10  2  0
 12 13  1  0
 13 14  1  0
 15 14  1  0
 16 15  1  6
 16 17  1  0
 17  6  1  0
 18 16  1  0
 19 18  2  0
 20 18  1  0
 21 22  1  6
 21 20  1  0
 22 23  1  0
 23 24  1  0
 25 24  1  0
 26 25  1  0
 27 28  1  0
 27 21  1  0
 29 27  2  0
M  END
$$$$
