DRK.pdb
     RDKit          3D

 29 28  0  0  1  0  0  0  0  0999 V2000
   12.5048  -18.6430   18.7968 N   0  0  0  0  0  0  0  0  0  0  0  0
   12.7248  -17.1928   18.6125 C   0  0  1  0  0  0  0  0  0  0  0  0
   12.0143  -16.7476   17.3628 C   0  0  0  0  0  0  0  0  0  0  0  0
   12.8839  -16.6933   16.1903 C   0  0  0  0  0  0  0  0  0  0  0  0
   12.7754  -17.6408   15.3481 O   0  0  0  0  0  0  0  0  0  0  0  0
   12.2805  -16.4785   19.8381 C   0  0  0  0  0  0  0  0  0  0  0  0
   13.0247  -15.9286   20.6724 O   0  0  0  0  0  0  0  0  0  0  0  0
   13.8063  -15.7296   15.9031 O   0  0  0  0  0  0  0  0  0  0  0  0
    8.8753  -12.8943   17.4737 N   0  0  0  0  0  0  0  0  0  0  0  0
    7.7656  -13.7387   17.6847 C   0  0  0  0  0  0  0  0  0  0  0  0
    7.3060  -14.4390   16.7073 N   0  0  0  0  0  0  0  0  0  0  0  0
    7.1125  -13.8667   18.9337 N   0  0  0  0  0  0  0  0  0  0  0  0
    7.5507  -13.3031   20.1700 C   0  0  0  0  0  0  0  0  0  0  0  0
    8.9124  -13.7685   20.6012 C   0  0  0  0  0  0  0  0  0  0  0  0
    8.9771  -15.2401   20.8965 C   0  0  0  0  0  0  0  0  0  0  0  0
   10.3467  -15.7306   21.2819 C   0  0  2  0  0  0  0  0  0  0  0  0
   10.8804  -16.4019   20.1036 N   0  0  0  0  0  0  0  0  0  0  0  0
   10.3269  -16.6691   22.4474 C   0  0  0  0  0  0  0  0  0  0  0  0
    9.6772  -17.7425   22.4246 O   0  0  0  0  0  0  0  0  0  0  0  0
    6.5136  -15.0961   16.8388 N   0  0  0  0  0  0  0  0  0  0  0  0
   11.0449  -16.3826   23.6331 C   0  0  1  0  0  0  0  0  0  0  0  0
   11.0102  -17.2296   24.8294 C   0  0  0  0  0  0  0  0  0  0  0  0
   12.3294  -17.7679   25.2134 C   0  0  0  0  0  0  0  0  0  0  0  0
   13.1816  -18.5186   24.3205 C   0  0  0  0  0  0  0  0  0  0  0  0
   14.4503  -19.1380   24.5681 C   0  0  0  0  0  0  0  0  0  0  0  0
   15.1938  -19.9996   23.6582 N   0  0  0  0  0  0  0  0  0  0  0  0
   16.6187  -19.9849   24.1190 C   0  0  0  0  0  0  0  0  0  0  0  0
   10.1883  -16.5611   25.8281 O   0  0  0  0  0  0  0  0  0  0  0  0
    9.8377  -17.1729   27.0157 O   0  0  0  0  0  0  0  0  0  0  0  0
  2  1  1  1
  2  3  1  0
  4  3  1  0
  4  8  1  0
  5  4  2  0
  6  2  1  0
  6  7  2  0
  9 10  1  0
 10 12  1  0
 11 10  2  0
 12 13  1  0
 13 14  1  0
 15 14  1  0
 16 15  1  6
 16 17  1  0
 17  6  1  0
 18 16  1  0
 19 18  2  0
 20 18  1  0
 21 22  1  1
 21 20  1  0
 22 23  1  0
 23 24  1  0
 25 24  1  0
 26 25  1  0
 27 28  1  0
 27 21  1  0
 29 27  2  0
M  END
$$$$
