DRK.pdb
     RDKit          3D

 29 28  0  0  1  0  0  0  0  0999 V2000
   13.5012  -17.9927   20.2080 N   0  0  0  0  0  0  0  0  0  0  0  0
   13.0520  -18.3089   21.5804 C   0  0  1  0  0  0  0  0  0  0  0  0
   14.2602  -18.5506   22.4446 C   0  0  0  0  0  0  0  0  0  0  0  0
   14.0414  -19.5613   23.4764 C   0  0  0  0  0  0  0  0  0  0  0  0
   12.9911  -20.2720   23.3732 O   0  0  0  0  0  0  0  0  0  0  0  0
   12.1803  -17.2078   22.0679 C   0  0  0  0  0  0  0  0  0  0  0  0
   12.5593  -16.2003   22.6952 O   0  0  0  0  0  0  0  0  0  0  0  0
   14.8480  -19.8231   24.5454 O   0  0  0  0  0  0  0  0  0  0  0  0
    7.7038  -12.2322   19.6802 N   0  0  0  0  0  0  0  0  0  0  0  0
    7.8620  -13.2994   18.7719 C   0  0  0  0  0  0  0  0  0  0  0  0
    8.5677  -13.1289   17.7090 N   0  0  0  0  0  0  0  0  0  0  0  0
    7.2801  -14.5753   18.9627 N   0  0  0  0  0  0  0  0  0  0  0  0
    6.7462  -15.0781   20.1875 C   0  0  0  0  0  0  0  0  0  0  0  0
    7.7484  -15.1463   21.3047 C   0  0  0  0  0  0  0  0  0  0  0  0
    8.8448  -16.1452   21.0660 C   0  0  0  0  0  0  0  0  0  0  0  0
    9.8539  -16.2287   22.1794 C   0  0  2  0  0  0  0  0  0  0  0  0
   10.7800  -17.2898   21.8049 N   0  0  0  0  0  0  0  0  0  0  0  0
    9.2360  -16.5270   23.5094 C   0  0  0  0  0  0  0  0  0  0  0  0
    8.8381  -17.6776   23.8136 O   0  0  0  0  0  0  0  0  0  0  0  0
    8.7130  -13.8979   17.0275 N   0  0  0  0  0  0  0  0  0  0  0  0
    9.0729  -15.5161   24.4866 C   0  0  2  0  0  0  0  0  0  0  0  0
    8.3748  -15.7208   25.7597 C   0  0  0  0  0  0  0  0  0  0  0  0
    8.8590  -14.8502   26.8482 C   0  0  0  0  0  0  0  0  0  0  0  0
    9.3178  -15.3422   28.1266 C   0  0  0  0  0  0  0  0  0  0  0  0
    9.8607  -14.6267   29.2437 C   0  0  0  0  0  0  0  0  0  0  0  0
   10.2393  -15.1825   30.5363 N   0  0  0  0  0  0  0  0  0  0  0  0
   10.7929  -14.0509   31.3462 C   0  0  0  0  0  0  0  0  0  0  0  0
    6.9478  -15.7970   25.4809 O   0  0  0  0  0  0  0  0  0  0  0  0
    6.0812  -16.5059   26.2897 O   0  0  0  0  0  0  0  0  0  0  0  0
  2  1  1  6
  2  3  1  0
  4  3  1  0
  4  8  1  0
  5  4  2  0
  6  2  1  0
  6  7  2  0
  9 10  1  0
 10 12  1  0
 11 10  2  0
 12 13  1  0
 13 14  1  0
 15 14  1  0
 16 15  1  6
 16 17  1  0
 17  6  1  0
 18 16  1  0
 19 18  2  0
 20 18  1  0
 21 22  1  6
 21 20  1  0
 22 23  1  0
 23 24  1  0
 25 24  1  0
 26 25  1  0
 27 28  1  0
 27 21  1  0
 29 27  2  0
M  END
$$$$
