DRK.pdb
     RDKit          3D

 29 28  0  0  1  0  0  0  0  0999 V2000
    8.7614  -18.8318   19.6156 N   0  0  0  0  0  0  0  0  0  0  0  0
   10.2324  -18.8397   19.4687 C   0  0  1  0  0  0  0  0  0  0  0  0
   10.5776  -19.1812   18.0443 C   0  0  0  0  0  0  0  0  0  0  0  0
    9.6728  -20.1610   17.4480 C   0  0  0  0  0  0  0  0  0  0  0  0
    8.6369  -20.4713   18.1184 O   0  0  0  0  0  0  0  0  0  0  0  0
   10.7682  -17.5266   19.9141 C   0  0  0  0  0  0  0  0  0  0  0  0
   11.9464  -17.1401   19.7929 O   0  0  0  0  0  0  0  0  0  0  0  0
    9.8238  -20.7828   16.2428 O   0  0  0  0  0  0  0  0  0  0  0  0
    7.8682  -15.2071   17.1136 N   0  0  0  0  0  0  0  0  0  0  0  0
    7.5443  -13.8460   16.9370 C   0  0  0  0  0  0  0  0  0  0  0  0
    7.4237  -13.3716   15.7464 N   0  0  0  0  0  0  0  0  0  0  0  0
    7.3379  -12.9500   18.0129 N   0  0  0  0  0  0  0  0  0  0  0  0
    7.6950  -13.1808   19.3757 C   0  0  0  0  0  0  0  0  0  0  0  0
    8.9120  -14.0447   19.5471 C   0  0  0  0  0  0  0  0  0  0  0  0
    9.2123  -14.3794   20.9806 C   0  0  0  0  0  0  0  0  0  0  0  0
   10.3287  -15.3727   21.1595 C   0  0  2  0  0  0  0  0  0  0  0  0
    9.8710  -16.6092   20.5386 N   0  0  0  0  0  0  0  0  0  0  0  0
   10.6757  -15.6124   22.5954 C   0  0  0  0  0  0  0  0  0  0  0  0
    9.8249  -16.0139   23.4259 O   0  0  0  0  0  0  0  0  0  0  0  0
    7.2315  -12.3650   15.5826 N   0  0  0  0  0  0  0  0  0  0  0  0
   11.9874  -15.3939   23.0802 C   0  0  2  0  0  0  0  0  0  0  0  0
   12.6447  -16.2584   24.0654 C   0  0  0  0  0  0  0  0  0  0  0  0
   12.4734  -17.6994   23.7977 C   0  0  0  0  0  0  0  0  0  0  0  0
   11.7650  -18.6010   24.6764 C   0  0  0  0  0  0  0  0  0  0  0  0
   11.4782  -19.9968   24.5209 C   0  0  0  0  0  0  0  0  0  0  0  0
   10.7361  -20.8441   25.4453 N   0  0  0  0  0  0  0  0  0  0  0  0
   10.5650  -22.1704   24.7711 C   0  0  0  0  0  0  0  0  0  0  0  0
   13.9776  -15.7261   24.3100 O   0  0  0  0  0  0  0  0  0  0  0  0
   14.3808  -15.3111   25.5642 O   0  0  0  0  0  0  0  0  0  0  0  0
  2  1  1  6
  2  3  1  0
  4  3  1  0
  4  8  1  0
  5  4  2  0
  6  2  1  0
  6  7  2  0
  9 10  1  0
 10 12  1  0
 11 10  2  0
 12 13  1  0
 13 14  1  0
 15 14  1  0
 16 15  1  1
 16 17  1  0
 17  6  1  0
 18 16  1  0
 19 18  2  0
 20 18  1  0
 21 22  1  1
 21 20  1  0
 22 23  1  0
 23 24  1  0
 25 24  1  0
 26 25  1  0
 27 28  1  0
 27 21  1  0
 29 27  2  0
M  END
$$$$
