DRK.pdb
     RDKit          3D

 29 28  0  0  1  0  0  0  0  0999 V2000
   14.4920  -19.5667   17.6623 N   0  0  0  0  0  0  0  0  0  0  0  0
   15.0747  -18.2549   17.3089 C   0  0  1  0  0  0  0  0  0  0  0  0
   14.8764  -18.0148   15.8365 C   0  0  0  0  0  0  0  0  0  0  0  0
   15.5068  -16.7861   15.3600 C   0  0  0  0  0  0  0  0  0  0  0  0
   16.3905  -16.2632   16.1114 O   0  0  0  0  0  0  0  0  0  0  0  0
   14.4650  -17.2088   18.1714 C   0  0  0  0  0  0  0  0  0  0  0  0
   14.9803  -16.1129   18.4642 O   0  0  0  0  0  0  0  0  0  0  0  0
   15.2446  -16.1361   14.1893 O   0  0  0  0  0  0  0  0  0  0  0  0
    8.0776  -13.0167   20.1478 N   0  0  0  0  0  0  0  0  0  0  0  0
    8.1902  -13.4437   18.8084 C   0  0  0  0  0  0  0  0  0  0  0  0
    8.4254  -12.5790   17.8843 N   0  0  0  0  0  0  0  0  0  0  0  0
    8.0587  -14.7952   18.4096 N   0  0  0  0  0  0  0  0  0  0  0  0
    8.8068  -15.8971   18.9235 C   0  0  0  0  0  0  0  0  0  0  0  0
   10.2779  -15.6234   19.0569 C   0  0  0  0  0  0  0  0  0  0  0  0
   11.0625  -16.7991   19.5661 C   0  0  0  0  0  0  0  0  0  0  0  0
   12.5429  -16.5507   19.6733 C   0  0  2  0  0  0  0  0  0  0  0  0
   13.1735  -17.4595   18.7244 N   0  0  0  0  0  0  0  0  0  0  0  0
   13.0789  -16.7873   21.0505 C   0  0  0  0  0  0  0  0  0  0  0  0
   13.3327  -17.9405   21.4751 O   0  0  0  0  0  0  0  0  0  0  0  0
    8.4922  -12.8583   16.8871 N   0  0  0  0  0  0  0  0  0  0  0  0
   13.3229  -15.7121   21.9382 C   0  0  1  0  0  0  0  0  0  0  0  0
   13.6228  -15.8860   23.3628 C   0  0  0  0  0  0  0  0  0  0  0  0
   12.5230  -16.5027   24.1294 C   0  0  0  0  0  0  0  0  0  0  0  0
   12.6649  -17.0023   25.4774 C   0  0  0  0  0  0  0  0  0  0  0  0
   11.7025  -17.6441   26.3238 C   0  0  0  0  0  0  0  0  0  0  0  0
   11.9254  -18.1516   27.6714 N   0  0  0  0  0  0  0  0  0  0  0  0
   10.5905  -18.5839   28.1950 C   0  0  0  0  0  0  0  0  0  0  0  0
   14.9693  -16.4287   23.4742 O   0  0  0  0  0  0  0  0  0  0  0  0
   15.2130  -17.7882   23.4672 O   0  0  0  0  0  0  0  0  0  0  0  0
  2  1  1  1
  2  3  1  0
  4  3  1  0
  4  8  1  0
  5  4  2  0
  6  2  1  0
  6  7  2  0
  9 10  1  0
 10 12  1  0
 11 10  2  0
 12 13  1  0
 13 14  1  0
 15 14  1  0
 16 15  1  1
 16 17  1  0
 17  6  1  0
 18 16  1  0
 19 18  2  0
 20 18  1  0
 21 22  1  1
 21 20  1  0
 22 23  1  0
 23 24  1  0
 25 24  1  0
 26 25  1  0
 27 28  1  0
 27 21  1  0
 29 27  2  0
M  END
$$$$
