IQN.pdb
     RDKit          3D

 26 25  0  0  1  0  0  0  0  0999 V2000
    6.3651  -11.5164   27.1589 C   0  0  0  0  0  0  0  0  0  0  0  0
    5.8851  -12.6522   26.2581 C   0  0  0  0  0  0  0  0  0  0  0  0
    7.0451  -13.5847   26.0002 C   0  0  2  0  0  0  0  0  0  0  0  0
    8.2327  -12.8366   25.4119 C   0  0  0  0  0  0  0  0  0  0  0  0
    6.6867  -14.7779   25.1506 C   0  0  2  0  0  0  0  0  0  0  0  0
    5.4498  -15.3071   25.6651 N   0  0  0  0  0  0  0  0  0  0  0  0
    7.7483  -15.7637   25.0110 C   0  0  0  0  0  0  0  0  0  0  0  0
    7.9749  -16.5535   25.9601 O   0  0  0  0  0  0  0  0  0  0  0  0
   10.9781  -16.6416   19.6381 N   0  0  0  0  0  0  0  0  0  0  0  0
    9.6425  -17.0635   19.8546 C   0  0  0  0  0  0  0  0  0  0  0  0
    8.8035  -17.0686   18.9246 O   0  0  0  0  0  0  0  0  0  0  0  0
    9.2601  -17.5015   21.2179 C   0  0  0  0  0  0  0  0  0  0  0  0
   10.1224  -16.7964   22.2128 C   0  0  0  0  0  0  0  0  0  0  0  0
    9.5831  -16.8437   23.6289 C   0  0  2  0  0  0  0  0  0  0  0  0
    8.5441  -15.8689   23.8353 N   0  0  0  0  0  0  0  0  0  0  0  0
   10.7378  -16.6330   24.5136 C   0  0  0  0  0  0  0  0  0  0  0  0
   10.9532  -15.5307   25.0307 O   0  0  0  0  0  0  0  0  0  0  0  0
   10.0788  -20.1526   28.6386 N   0  0  0  0  0  0  0  0  0  0  0  0
   10.7471  -18.9565   28.1694 C   0  0  0  0  0  0  0  0  0  0  0  0
   11.4705  -18.3068   28.9551 O   0  0  0  0  0  0  0  0  0  0  0  0
   10.5640  -18.5266   26.7802 C   0  0  0  0  0  0  0  0  0  0  0  0
   11.8496  -18.1645   26.1219 C   0  0  2  0  0  0  0  0  0  0  0  0
   11.6148  -17.7166   24.7734 N   0  0  0  0  0  0  0  0  0  0  0  0
   12.8046  -19.3141   26.1570 C   0  0  0  0  0  0  0  0  0  0  0  0
   14.0318  -19.1123   26.7657 O   0  0  0  0  0  0  0  0  0  0  0  0
   12.5554  -20.4425   25.6686 O   0  0  0  0  0  0  0  0  0  0  0  0
  1  2  1  0
  2  3  1  0
  3  5  1  0
  3  4  1  6
  5  7  1  0
  5  6  1  1
  7  8  2  0
 10  9  1  0
 11 10  2  0
 12 10  1  0
 14 13  1  6
 13 12  1  0
 15 14  1  0
 15  7  1  0
 16 14  1  0
 17 16  2  0
 19 18  1  0
 19 20  2  0
 21 19  1  0
 22 21  1  6
 22 23  1  0
 23 16  1  0
 24 25  1  0
 24 22  1  0
 26 24  2  0
M  END
$$$$
