IQN.pdb
     RDKit          3D

 26 25  0  0  1  0  0  0  0  0999 V2000
    7.5501  -10.9387   26.4852 C   0  0  0  0  0  0  0  0  0  0  0  0
    6.5619  -12.0894   26.3078 C   0  0  0  0  0  0  0  0  0  0  0  0
    7.3168  -13.2995   25.8106 C   0  0  2  0  0  0  0  0  0  0  0  0
    8.0416  -12.9990   24.5066 C   0  0  0  0  0  0  0  0  0  0  0  0
    6.4625  -14.5352   25.6785 C   0  0  2  0  0  0  0  0  0  0  0  0
    5.6734  -14.6340   26.8795 N   0  0  0  0  0  0  0  0  0  0  0  0
    7.1959  -15.7464   25.3420 C   0  0  0  0  0  0  0  0  0  0  0  0
    8.1230  -16.1270   26.0980 O   0  0  0  0  0  0  0  0  0  0  0  0
    6.7104  -21.4433   23.7701 N   0  0  0  0  0  0  0  0  0  0  0  0
    7.7827  -20.5844   23.4222 C   0  0  0  0  0  0  0  0  0  0  0  0
    8.8464  -20.5717   24.0836 O   0  0  0  0  0  0  0  0  0  0  0  0
    7.6135  -19.6952   22.2485 C   0  0  0  0  0  0  0  0  0  0  0  0
    6.9101  -18.4509   22.6811 C   0  0  0  0  0  0  0  0  0  0  0  0
    7.6469  -17.6765   23.7563 C   0  0  2  0  0  0  0  0  0  0  0  0
    6.9028  -16.5208   24.1840 N   0  0  0  0  0  0  0  0  0  0  0  0
    8.9544  -17.3251   23.1841 C   0  0  0  0  0  0  0  0  0  0  0  0
    9.0391  -16.6445   22.1553 O   0  0  0  0  0  0  0  0  0  0  0  0
   14.1758  -15.3669   23.9569 N   0  0  0  0  0  0  0  0  0  0  0  0
   13.1287  -15.7274   23.0236 C   0  0  0  0  0  0  0  0  0  0  0  0
   13.3756  -15.7462   21.7983 O   0  0  0  0  0  0  0  0  0  0  0  0
   11.7955  -16.0641   23.5310 C   0  0  0  0  0  0  0  0  0  0  0  0
   11.4312  -17.4852   23.2759 C   0  0  2  0  0  0  0  0  0  0  0  0
   10.1337  -17.7780   23.8282 N   0  0  0  0  0  0  0  0  0  0  0  0
   12.4764  -18.4055   23.8194 C   0  0  0  0  0  0  0  0  0  0  0  0
   13.7620  -18.2855   23.3190 O   0  0  0  0  0  0  0  0  0  0  0  0
   12.2529  -19.2734   24.6972 O   0  0  0  0  0  0  0  0  0  0  0  0
  1  2  1  0
  2  3  1  0
  3  5  1  0
  3  4  1  6
  5  7  1  0
  5  6  1  1
  7  8  2  0
 10  9  1  0
 11 10  2  0
 12 10  1  0
 14 13  1  6
 13 12  1  0
 15 14  1  0
 15  7  1  0
 16 14  1  0
 17 16  2  0
 19 18  1  0
 19 20  2  0
 21 19  1  0
 22 21  1  1
 22 23  1  0
 23 16  1  0
 24 25  1  0
 24 22  1  0
 26 24  2  0
M  END
$$$$
