IQN.pdb
     RDKit          3D

 26 25  0  0  1  0  0  0  0  0999 V2000
    7.8136  -11.7317   20.7609 C   0  0  0  0  0  0  0  0  0  0  0  0
    7.6285  -13.0812   21.4512 C   0  0  0  0  0  0  0  0  0  0  0  0
    8.2850  -14.1476   20.6065 C   0  0  2  0  0  0  0  0  0  0  0  0
    7.5751  -14.3058   19.2698 C   0  0  0  0  0  0  0  0  0  0  0  0
    8.4188  -15.4774   21.3051 C   0  0  2  0  0  0  0  0  0  0  0  0
    7.1092  -15.8361   21.7858 N   0  0  0  0  0  0  0  0  0  0  0  0
    9.4635  -15.5283   22.3171 C   0  0  0  0  0  0  0  0  0  0  0  0
   10.6292  -15.1806   22.0072 O   0  0  0  0  0  0  0  0  0  0  0  0
    9.2797  -12.9207   27.3646 N   0  0  0  0  0  0  0  0  0  0  0  0
    9.4425  -14.2111   27.9276 C   0  0  0  0  0  0  0  0  0  0  0  0
    9.5364  -14.3730   29.1661 O   0  0  0  0  0  0  0  0  0  0  0  0
    9.4995  -15.3725   27.0086 C   0  0  0  0  0  0  0  0  0  0  0  0
   10.0650  -14.9274   25.7001 C   0  0  0  0  0  0  0  0  0  0  0  0
   10.2112  -16.0458   24.6870 C   0  0  2  0  0  0  0  0  0  0  0  0
    9.2153  -15.9588   23.6511 N   0  0  0  0  0  0  0  0  0  0  0  0
   10.1254  -17.3006   25.4476 C   0  0  0  0  0  0  0  0  0  0  0  0
    9.0315  -17.7786   25.7695 O   0  0  0  0  0  0  0  0  0  0  0  0
    9.6532  -20.5811   24.5517 N   0  0  0  0  0  0  0  0  0  0  0  0
   11.0645  -20.9041   24.5117 C   0  0  0  0  0  0  0  0  0  0  0  0
   11.4830  -21.7332   23.6750 O   0  0  0  0  0  0  0  0  0  0  0  0
   11.9797  -20.2535   25.4537 C   0  0  0  0  0  0  0  0  0  0  0  0
   11.2815  -19.3004   26.3600 C   0  0  2  0  0  0  0  0  0  0  0  0
   11.3214  -17.9680   25.8147 N   0  0  0  0  0  0  0  0  0  0  0  0
   11.8712  -19.3467   27.7329 C   0  0  0  0  0  0  0  0  0  0  0  0
   13.0329  -18.6278   27.9584 O   0  0  0  0  0  0  0  0  0  0  0  0
   11.3738  -19.9966   28.6837 O   0  0  0  0  0  0  0  0  0  0  0  0
  1  2  1  0
  2  3  1  0
  3  5  1  0
  3  4  1  6
  5  7  1  0
  5  6  1  1
  7  8  2  0
 10  9  1  0
 11 10  2  0
 12 10  1  0
 14 13  1  1
 13 12  1  0
 15 14  1  0
 15  7  1  0
 16 14  1  0
 17 16  2  0
 19 18  1  0
 19 20  2  0
 21 19  1  0
 22 21  1  6
 22 23  1  0
 23 16  1  0
 24 25  1  0
 24 22  1  0
 26 24  2  0
M  END
$$$$
