IQN.pdb
     RDKit          3D

 26 25  0  0  1  0  0  0  0  0999 V2000
    6.6359  -10.7130   26.9324 C   0  0  0  0  0  0  0  0  0  0  0  0
    7.5372  -11.9456   26.9144 C   0  0  0  0  0  0  0  0  0  0  0  0
    6.9365  -12.9670   25.9776 C   0  0  2  0  0  0  0  0  0  0  0  0
    5.4806  -13.2430   26.3242 C   0  0  0  0  0  0  0  0  0  0  0  0
    7.7227  -14.2514   25.8962 C   0  0  2  0  0  0  0  0  0  0  0  0
    9.1100  -13.9102   26.0796 N   0  0  0  0  0  0  0  0  0  0  0  0
    7.4541  -15.0526   24.7112 C   0  0  0  0  0  0  0  0  0  0  0  0
    6.3926  -15.7203   24.6551 O   0  0  0  0  0  0  0  0  0  0  0  0
    7.0133  -12.1957   19.7700 N   0  0  0  0  0  0  0  0  0  0  0  0
    8.1848  -12.9209   20.1019 C   0  0  0  0  0  0  0  0  0  0  0  0
    9.1615  -12.9719   19.3194 O   0  0  0  0  0  0  0  0  0  0  0  0
    8.2264  -13.6224   21.4069 C   0  0  0  0  0  0  0  0  0  0  0  0
    8.2235  -15.0961   21.1647 C   0  0  0  0  0  0  0  0  0  0  0  0
    8.1629  -15.9225   22.4343 C   0  0  2  0  0  0  0  0  0  0  0  0
    8.3515  -15.1098   23.6075 N   0  0  0  0  0  0  0  0  0  0  0  0
    9.1940  -16.9608   22.2961 C   0  0  0  0  0  0  0  0  0  0  0  0
    9.2029  -17.7265   21.3254 O   0  0  0  0  0  0  0  0  0  0  0  0
   11.1480  -18.8274   25.9948 N   0  0  0  0  0  0  0  0  0  0  0  0
   10.4463  -19.7472   25.1233 C   0  0  0  0  0  0  0  0  0  0  0  0
    9.9375  -20.7833   25.6031 O   0  0  0  0  0  0  0  0  0  0  0  0
   10.3445  -19.4483   23.6921 C   0  0  0  0  0  0  0  0  0  0  0  0
   11.0827  -18.2115   23.3146 C   0  0  2  0  0  0  0  0  0  0  0  0
   10.1915  -17.0803   23.2969 N   0  0  0  0  0  0  0  0  0  0  0  0
   11.7701  -18.3859   21.9986 C   0  0  0  0  0  0  0  0  0  0  0  0
   13.1489  -18.2621   21.9719 O   0  0  0  0  0  0  0  0  0  0  0  0
   11.1693  -18.6364   20.9261 O   0  0  0  0  0  0  0  0  0  0  0  0
  1  2  1  0
  2  3  1  0
  3  5  1  0
  3  4  1  1
  5  7  1  0
  5  6  1  6
  7  8  2  0
 10  9  1  0
 11 10  2  0
 12 10  1  0
 14 13  1  6
 13 12  1  0
 15 14  1  0
 15  7  1  0
 16 14  1  0
 17 16  2  0
 19 18  1  0
 19 20  2  0
 21 19  1  0
 22 21  1  6
 22 23  1  0
 23 16  1  0
 24 25  1  0
 24 22  1  0
 26 24  2  0
M  END
$$$$
