IQN.pdb
     RDKit          3D

 26 25  0  0  1  0  0  0  0  0999 V2000
    7.0091  -11.9002   27.7353 C   0  0  0  0  0  0  0  0  0  0  0  0
    6.2539  -12.9636   26.9411 C   0  0  0  0  0  0  0  0  0  0  0  0
    7.1913  -13.5528   25.9137 C   0  0  2  0  0  0  0  0  0  0  0  0
    7.7402  -12.4769   24.9879 C   0  0  0  0  0  0  0  0  0  0  0  0
    6.5888  -14.6867   25.1227 C   0  0  2  0  0  0  0  0  0  0  0  0
    6.1018  -15.6532   26.0731 N   0  0  0  0  0  0  0  0  0  0  0  0
    7.4604  -15.2410   24.0973 C   0  0  0  0  0  0  0  0  0  0  0  0
    7.8245  -16.4388   24.1897 O   0  0  0  0  0  0  0  0  0  0  0  0
    8.4253  -12.7309   17.8824 N   0  0  0  0  0  0  0  0  0  0  0  0
    8.2449  -14.0999   18.2013 C   0  0  0  0  0  0  0  0  0  0  0  0
    7.4821  -14.8296   17.5270 O   0  0  0  0  0  0  0  0  0  0  0  0
    8.9860  -14.6511   19.3605 C   0  0  0  0  0  0  0  0  0  0  0  0
    8.3954  -14.1030   20.6179 C   0  0  0  0  0  0  0  0  0  0  0  0
    8.5475  -15.0220   21.8141 C   0  0  2  0  0  0  0  0  0  0  0  0
    7.9190  -14.4755   22.9882 N   0  0  0  0  0  0  0  0  0  0  0  0
    9.9921  -15.2268   21.9915 C   0  0  0  0  0  0  0  0  0  0  0  0
   10.7113  -15.5591   21.0422 O   0  0  0  0  0  0  0  0  0  0  0  0
   12.6393  -18.0277   25.7981 N   0  0  0  0  0  0  0  0  0  0  0  0
   11.8694  -18.2591   24.5934 C   0  0  0  0  0  0  0  0  0  0  0  0
   12.0433  -19.3133   23.9445 O   0  0  0  0  0  0  0  0  0  0  0  0
   10.8986  -17.2528   24.1541 C   0  0  0  0  0  0  0  0  0  0  0  0
   11.5432  -15.9618   23.7866 C   0  0  2  0  0  0  0  0  0  0  0  0
   10.5631  -15.0385   23.2757 N   0  0  0  0  0  0  0  0  0  0  0  0
   12.6492  -16.1827   22.8054 C   0  0  0  0  0  0  0  0  0  0  0  0
   12.3966  -17.0153   21.7282 O   0  0  0  0  0  0  0  0  0  0  0  0
   13.7845  -15.6583   22.9051 O   0  0  0  0  0  0  0  0  0  0  0  0
  1  2  1  0
  2  3  1  0
  3  5  1  0
  3  4  1  6
  5  7  1  0
  5  6  1  1
  7  8  2  0
 10  9  1  0
 11 10  2  0
 12 10  1  0
 14 13  1  6
 13 12  1  0
 15 14  1  0
 15  7  1  0
 16 14  1  0
 17 16  2  0
 19 18  1  0
 19 20  2  0
 21 19  1  0
 22 21  1  6
 22 23  1  0
 23 16  1  0
 24 25  1  0
 24 22  1  0
 26 24  2  0
M  END
$$$$
