IQN.pdb
     RDKit          3D

 26 25  0  0  1  0  0  0  0  0999 V2000
    6.7022  -11.8701   27.0699 C   0  0  0  0  0  0  0  0  0  0  0  0
    6.0705  -13.0519   26.3377 C   0  0  0  0  0  0  0  0  0  0  0  0
    7.1633  -13.8222   25.6347 C   0  0  2  0  0  0  0  0  0  0  0  0
    7.9985  -12.9088   24.7492 C   0  0  0  0  0  0  0  0  0  0  0  0
    6.6620  -15.0133   24.8575 C   0  0  2  0  0  0  0  0  0  0  0  0
    5.8528  -15.7949   25.7570 N   0  0  0  0  0  0  0  0  0  0  0  0
    7.6991  -15.7707   24.1727 C   0  0  0  0  0  0  0  0  0  0  0  0
    8.0440  -16.8861   24.6341 O   0  0  0  0  0  0  0  0  0  0  0  0
    9.1882  -17.7805   19.6485 N   0  0  0  0  0  0  0  0  0  0  0  0
    8.1452  -16.8628   19.3684 C   0  0  0  0  0  0  0  0  0  0  0  0
    7.1529  -17.1965   18.6806 O   0  0  0  0  0  0  0  0  0  0  0  0
    8.2578  -15.4890   19.9131 C   0  0  0  0  0  0  0  0  0  0  0  0
    9.4457  -15.4218   20.8156 C   0  0  0  0  0  0  0  0  0  0  0  0
    9.2232  -16.0746   22.1658 C   0  0  2  0  0  0  0  0  0  0  0  0
    8.3415  -15.2950   22.9948 N   0  0  0  0  0  0  0  0  0  0  0  0
   10.5556  -16.2437   22.7629 C   0  0  0  0  0  0  0  0  0  0  0  0
   11.5015  -16.6838   22.0994 O   0  0  0  0  0  0  0  0  0  0  0  0
   13.0293  -18.3057   26.6775 N   0  0  0  0  0  0  0  0  0  0  0  0
   11.7417  -17.8297   27.1391 C   0  0  0  0  0  0  0  0  0  0  0  0
   11.3440  -18.1409   28.2827 O   0  0  0  0  0  0  0  0  0  0  0  0
   10.9250  -16.9908   26.2574 C   0  0  0  0  0  0  0  0  0  0  0  0
   11.6069  -16.6859   24.9693 C   0  0  2  0  0  0  0  0  0  0  0  0
   10.7514  -15.8943   24.1232 N   0  0  0  0  0  0  0  0  0  0  0  0
   12.0367  -17.9446   24.2868 C   0  0  0  0  0  0  0  0  0  0  0  0
   13.3903  -18.2357   24.2675 O   0  0  0  0  0  0  0  0  0  0  0  0
   11.2430  -18.7445   23.7354 O   0  0  0  0  0  0  0  0  0  0  0  0
  1  2  1  0
  2  3  1  0
  3  5  1  0
  3  4  1  6
  5  7  1  0
  5  6  1  1
  7  8  2  0
 10  9  1  0
 11 10  2  0
 12 10  1  0
 14 13  1  6
 13 12  1  0
 15 14  1  0
 15  7  1  0
 16 14  1  0
 17 16  2  0
 19 18  1  0
 19 20  2  0
 21 19  1  0
 22 21  1  1
 22 23  1  0
 23 16  1  0
 24 25  1  0
 24 22  1  0
 26 24  2  0
M  END
$$$$
