IQN.pdb
     RDKit          3D

 26 25  0  0  1  0  0  0  0  0999 V2000
    7.6941  -12.6511   28.0032 C   0  0  0  0  0  0  0  0  0  0  0  0
    6.7279  -13.4937   27.1734 C   0  0  0  0  0  0  0  0  0  0  0  0
    7.4428  -13.9569   25.9260 C   0  0  2  0  0  0  0  0  0  0  0  0
    8.0088  -12.7790   25.1462 C   0  0  0  0  0  0  0  0  0  0  0  0
    6.6011  -14.8365   25.0360 C   0  0  2  0  0  0  0  0  0  0  0  0
    6.0784  -15.8956   25.8605 N   0  0  0  0  0  0  0  0  0  0  0  0
    7.2703  -15.2930   23.8268 C   0  0  0  0  0  0  0  0  0  0  0  0
    7.4568  -16.5233   23.6614 O   0  0  0  0  0  0  0  0  0  0  0  0
    8.2444  -15.0708   18.3885 N   0  0  0  0  0  0  0  0  0  0  0  0
    7.0964  -14.2950   18.6863 C   0  0  0  0  0  0  0  0  0  0  0  0
    6.0460  -14.4029   18.0124 O   0  0  0  0  0  0  0  0  0  0  0  0
    7.1694  -13.3461   19.8226 C   0  0  0  0  0  0  0  0  0  0  0  0
    8.4125  -13.6206   20.6034 C   0  0  0  0  0  0  0  0  0  0  0  0
    8.2879  -14.7937   21.5556 C   0  0  2  0  0  0  0  0  0  0  0  0
    7.7243  -14.3958   22.8191 N   0  0  0  0  0  0  0  0  0  0  0  0
    9.6395  -15.3547   21.6928 C   0  0  0  0  0  0  0  0  0  0  0  0
   10.2417  -15.8156   20.7162 O   0  0  0  0  0  0  0  0  0  0  0  0
   14.2054  -16.0630   25.3175 N   0  0  0  0  0  0  0  0  0  0  0  0
   13.8214  -15.6138   23.9952 C   0  0  0  0  0  0  0  0  0  0  0  0
   14.6277  -15.7299   23.0471 O   0  0  0  0  0  0  0  0  0  0  0  0
   12.4929  -15.0297   23.7901 C   0  0  0  0  0  0  0  0  0  0  0  0
   11.5412  -15.9861   23.1602 C   0  0  2  0  0  0  0  0  0  0  0  0
   10.2563  -15.3640   22.9696 N   0  0  0  0  0  0  0  0  0  0  0  0
   11.4282  -17.2345   23.9748 C   0  0  0  0  0  0  0  0  0  0  0  0
   12.5482  -18.0430   24.0713 O   0  0  0  0  0  0  0  0  0  0  0  0
   10.3816  -17.5857   24.5706 O   0  0  0  0  0  0  0  0  0  0  0  0
  1  2  1  0
  2  3  1  0
  3  5  1  0
  3  4  1  6
  5  7  1  0
  5  6  1  1
  7  8  2  0
 10  9  1  0
 11 10  2  0
 12 10  1  0
 14 13  1  6
 13 12  1  0
 15 14  1  0
 15  7  1  0
 16 14  1  0
 17 16  2  0
 19 18  1  0
 19 20  2  0
 21 19  1  0
 22 21  1  1
 22 23  1  0
 23 16  1  0
 24 25  1  0
 24 22  1  0
 26 24  2  0
M  END
$$$$
