IQN.pdb
     RDKit          3D

 26 25  0  0  1  0  0  0  0  0999 V2000
    6.8162  -11.6158   27.1425 C   0  0  0  0  0  0  0  0  0  0  0  0
    6.1311  -12.7765   26.4246 C   0  0  0  0  0  0  0  0  0  0  0  0
    7.1866  -13.5991   25.7241 C   0  0  2  0  0  0  0  0  0  0  0  0
    8.0064  -12.7444   24.7683 C   0  0  0  0  0  0  0  0  0  0  0  0
    6.6397  -14.8167   25.0223 C   0  0  2  0  0  0  0  0  0  0  0  0
    5.8922  -15.5672   25.9984 N   0  0  0  0  0  0  0  0  0  0  0  0
    7.6327  -15.5967   24.2986 C   0  0  0  0  0  0  0  0  0  0  0  0
    8.0383  -16.6765   24.7940 O   0  0  0  0  0  0  0  0  0  0  0  0
    7.3405  -17.6242   19.0063 N   0  0  0  0  0  0  0  0  0  0  0  0
    8.6430  -17.6360   19.5647 C   0  0  0  0  0  0  0  0  0  0  0  0
    9.1658  -18.6986   19.9729 O   0  0  0  0  0  0  0  0  0  0  0  0
    9.3767  -16.3513   19.6545 C   0  0  0  0  0  0  0  0  0  0  0  0
    8.7206  -15.4898   20.6828 C   0  0  0  0  0  0  0  0  0  0  0  0
    8.7922  -16.0553   22.0877 C   0  0  2  0  0  0  0  0  0  0  0  0
    8.1654  -15.1821   23.0453 N   0  0  0  0  0  0  0  0  0  0  0  0
   10.2186  -16.2704   22.3699 C   0  0  0  0  0  0  0  0  0  0  0  0
   10.8830  -17.0839   21.7175 O   0  0  0  0  0  0  0  0  0  0  0  0
   13.2537  -19.2158   25.2220 N   0  0  0  0  0  0  0  0  0  0  0  0
   12.7905  -17.8778   25.5268 C   0  0  0  0  0  0  0  0  0  0  0  0
   13.3666  -17.2145   26.4161 O   0  0  0  0  0  0  0  0  0  0  0  0
   11.6529  -17.3230   24.7877 C   0  0  0  0  0  0  0  0  0  0  0  0
   11.9900  -16.0480   24.0965 C   0  0  2  0  0  0  0  0  0  0  0  0
   10.8358  -15.5289   23.4091 N   0  0  0  0  0  0  0  0  0  0  0  0
   13.1412  -16.2404   23.1624 C   0  0  0  0  0  0  0  0  0  0  0  0
   14.3649  -15.7080   23.5317 O   0  0  0  0  0  0  0  0  0  0  0  0
   13.0585  -16.8535   22.0710 O   0  0  0  0  0  0  0  0  0  0  0  0
  1  2  1  0
  2  3  1  0
  3  5  1  0
  3  4  1  6
  5  7  1  0
  5  6  1  1
  7  8  2  0
 10  9  1  0
 11 10  2  0
 12 10  1  0
 14 13  1  6
 13 12  1  0
 15 14  1  0
 15  7  1  0
 16 14  1  0
 17 16  2  0
 19 18  1  0
 19 20  2  0
 21 19  1  0
 22 21  1  6
 22 23  1  0
 23 16  1  0
 24 25  1  0
 24 22  1  0
 26 24  2  0
M  END
$$$$
