IQN.pdb
     RDKit          3D

 26 25  0  0  1  0  0  0  0  0999 V2000
    7.8557  -12.1259   26.8259 C   0  0  0  0  0  0  0  0  0  0  0  0
    7.3295  -13.5357   26.5662 C   0  0  0  0  0  0  0  0  0  0  0  0
    7.1046  -13.6993   25.0815 C   0  0  2  0  0  0  0  0  0  0  0  0
    6.0517  -12.7250   24.5734 C   0  0  0  0  0  0  0  0  0  0  0  0
    6.7731  -15.1119   24.6704 C   0  0  2  0  0  0  0  0  0  0  0  0
    5.5983  -15.5019   25.4070 N   0  0  0  0  0  0  0  0  0  0  0  0
    7.8822  -16.0489   24.7712 C   0  0  0  0  0  0  0  0  0  0  0  0
    7.9331  -16.8291   25.7533 O   0  0  0  0  0  0  0  0  0  0  0  0
   11.8578  -18.5378   20.0881 N   0  0  0  0  0  0  0  0  0  0  0  0
   10.7413  -17.6712   20.1916 C   0  0  0  0  0  0  0  0  0  0  0  0
   10.4181  -16.9117   19.2494 O   0  0  0  0  0  0  0  0  0  0  0  0
    9.9597  -17.6856   21.4509 C   0  0  0  0  0  0  0  0  0  0  0  0
   10.7825  -17.0769   22.5384 C   0  0  0  0  0  0  0  0  0  0  0  0
   10.0622  -16.9856   23.8694 C   0  0  2  0  0  0  0  0  0  0  0  0
    8.9169  -16.1164   23.7959 N   0  0  0  0  0  0  0  0  0  0  0  0
   11.0602  -16.5220   24.8437 C   0  0  0  0  0  0  0  0  0  0  0  0
   11.5697  -15.3992   24.7509 O   0  0  0  0  0  0  0  0  0  0  0  0
    9.6656  -14.4425   29.4279 N   0  0  0  0  0  0  0  0  0  0  0  0
   10.6387  -15.4016   28.9477 C   0  0  0  0  0  0  0  0  0  0  0  0
   11.5846  -15.7435   29.6900 O   0  0  0  0  0  0  0  0  0  0  0  0
   10.4990  -15.9558   27.5980 C   0  0  0  0  0  0  0  0  0  0  0  0
   11.6187  -16.8693   27.2387 C   0  0  2  0  0  0  0  0  0  0  0  0
   11.4400  -17.3824   25.9049 N   0  0  0  0  0  0  0  0  0  0  0  0
   11.7413  -17.9749   28.2374 C   0  0  0  0  0  0  0  0  0  0  0  0
   10.8339  -19.0177   28.1571 O   0  0  0  0  0  0  0  0  0  0  0  0
   12.6153  -18.0081   29.1368 O   0  0  0  0  0  0  0  0  0  0  0  0
  1  2  1  0
  2  3  1  0
  3  5  1  0
  3  4  1  1
  5  7  1  0
  5  6  1  1
  7  8  2  0
 10  9  1  0
 11 10  2  0
 12 10  1  0
 14 13  1  6
 13 12  1  0
 15 14  1  0
 15  7  1  0
 16 14  1  0
 17 16  2  0
 19 18  1  0
 19 20  2  0
 21 19  1  0
 22 21  1  1
 22 23  1  0
 23 16  1  0
 24 25  1  0
 24 22  1  0
 26 24  2  0
M  END
$$$$
