IQN.pdb
     RDKit          3D

 26 25  0  0  1  0  0  0  0  0999 V2000
    7.7528  -10.4706   24.9959 C   0  0  0  0  0  0  0  0  0  0  0  0
    6.6998  -11.5633   25.1662 C   0  0  0  0  0  0  0  0  0  0  0  0
    7.4038  -12.8716   25.4390 C   0  0  2  0  0  0  0  0  0  0  0  0
    8.3963  -13.2037   24.3342 C   0  0  0  0  0  0  0  0  0  0  0  0
    6.4649  -14.0261   25.6833 C   0  0  2  0  0  0  0  0  0  0  0  0
    5.4328  -13.5516   26.5689 N   0  0  0  0  0  0  0  0  0  0  0  0
    7.1136  -15.2529   26.1219 C   0  0  0  0  0  0  0  0  0  0  0  0
    7.7727  -15.2451   27.1903 O   0  0  0  0  0  0  0  0  0  0  0  0
    7.0888  -19.3492   27.9480 N   0  0  0  0  0  0  0  0  0  0  0  0
    7.6608  -20.3666   27.1440 C   0  0  0  0  0  0  0  0  0  0  0  0
    8.1793  -21.3853   27.6561 O   0  0  0  0  0  0  0  0  0  0  0  0
    7.6302  -20.1945   25.6722 C   0  0  0  0  0  0  0  0  0  0  0  0
    6.9370  -18.9118   25.3490 C   0  0  0  0  0  0  0  0  0  0  0  0
    7.7409  -17.6773   25.7071 C   0  0  2  0  0  0  0  0  0  0  0  0
    7.0304  -16.4676   25.3843 N   0  0  0  0  0  0  0  0  0  0  0  0
    9.0142  -17.7938   24.9823 C   0  0  0  0  0  0  0  0  0  0  0  0
    9.0432  -18.1273   23.7921 O   0  0  0  0  0  0  0  0  0  0  0  0
   10.8282  -16.4333   22.7105 N   0  0  0  0  0  0  0  0  0  0  0  0
   12.1395  -16.3648   23.3216 C   0  0  0  0  0  0  0  0  0  0  0  0
   13.1197  -16.0004   22.6367 O   0  0  0  0  0  0  0  0  0  0  0  0
   12.2962  -16.7245   24.7338 C   0  0  0  0  0  0  0  0  0  0  0  0
   11.4914  -17.9195   25.1098 C   0  0  2  0  0  0  0  0  0  0  0  0
   10.2253  -17.5175   25.6663 N   0  0  0  0  0  0  0  0  0  0  0  0
   12.2510  -18.7931   26.0556 C   0  0  0  0  0  0  0  0  0  0  0  0
   13.4375  -19.3480   25.6066 O   0  0  0  0  0  0  0  0  0  0  0  0
   11.8740  -19.0482   27.2246 O   0  0  0  0  0  0  0  0  0  0  0  0
  1  2  1  0
  2  3  1  0
  3  5  1  0
  3  4  1  6
  5  7  1  0
  5  6  1  1
  7  8  2  0
 10  9  1  0
 11 10  2  0
 12 10  1  0
 14 13  1  6
 13 12  1  0
 15 14  1  0
 15  7  1  0
 16 14  1  0
 17 16  2  0
 19 18  1  0
 19 20  2  0
 21 19  1  0
 22 21  1  1
 22 23  1  0
 23 16  1  0
 24 25  1  0
 24 22  1  0
 26 24  2  0
M  END
$$$$
