IQN.pdb
     RDKit          3D

 26 25  0  0  1  0  0  0  0  0999 V2000
    8.4035  -12.4464   27.7119 C   0  0  0  0  0  0  0  0  0  0  0  0
    7.4298  -13.5077   27.2046 C   0  0  0  0  0  0  0  0  0  0  0  0
    7.8617  -13.9352   25.8217 C   0  0  2  0  0  0  0  0  0  0  0  0
    8.0375  -12.7341   24.9039 C   0  0  0  0  0  0  0  0  0  0  0  0
    6.9548  -14.9636   25.1940 C   0  0  2  0  0  0  0  0  0  0  0  0
    6.7945  -16.0271   26.1521 N   0  0  0  0  0  0  0  0  0  0  0  0
    7.3655  -15.4067   23.8699 C   0  0  0  0  0  0  0  0  0  0  0  0
    7.7376  -16.5954   23.7136 O   0  0  0  0  0  0  0  0  0  0  0  0
    8.3824  -12.0898   18.6985 N   0  0  0  0  0  0  0  0  0  0  0  0
    8.2133  -13.4292   18.2675 C   0  0  0  0  0  0  0  0  0  0  0  0
    8.8889  -13.8984   17.3228 O   0  0  0  0  0  0  0  0  0  0  0  0
    7.2104  -14.2671   18.9666 C   0  0  0  0  0  0  0  0  0  0  0  0
    7.1504  -13.8552   20.4008 C   0  0  0  0  0  0  0  0  0  0  0  0
    7.4716  -14.9753   21.3707 C   0  0  2  0  0  0  0  0  0  0  0  0
    7.3621  -14.5419   22.7391 N   0  0  0  0  0  0  0  0  0  0  0  0
    8.8259  -15.4346   21.0314 C   0  0  0  0  0  0  0  0  0  0  0  0
    9.0535  -16.0203   19.9666 O   0  0  0  0  0  0  0  0  0  0  0  0
   13.6343  -14.2427   19.3998 N   0  0  0  0  0  0  0  0  0  0  0  0
   13.3511  -14.5441   20.7878 C   0  0  0  0  0  0  0  0  0  0  0  0
   14.2487  -15.0332   21.5073 O   0  0  0  0  0  0  0  0  0  0  0  0
   12.0157  -14.2711   21.3267 C   0  0  0  0  0  0  0  0  0  0  0  0
   11.2438  -15.5161   21.5936 C   0  0  2  0  0  0  0  0  0  0  0  0
    9.8839  -15.1982   21.9456 N   0  0  0  0  0  0  0  0  0  0  0  0
   11.9065  -16.3323   22.6563 C   0  0  0  0  0  0  0  0  0  0  0  0
   11.1915  -16.5812   23.8157 O   0  0  0  0  0  0  0  0  0  0  0  0
   13.0661  -16.8000   22.5545 O   0  0  0  0  0  0  0  0  0  0  0  0
  1  2  1  0
  2  3  1  0
  3  5  1  0
  3  4  1  6
  5  7  1  0
  5  6  1  1
  7  8  2  0
 10  9  1  0
 11 10  2  0
 12 10  1  0
 14 13  1  6
 13 12  1  0
 15 14  1  0
 15  7  1  0
 16 14  1  0
 17 16  2  0
 19 18  1  0
 19 20  2  0
 21 19  1  0
 22 21  1  1
 22 23  1  0
 23 16  1  0
 24 25  1  0
 24 22  1  0
 26 24  2  0
M  END
$$$$
