IQN.pdb
     RDKit          3D

 26 25  0  0  1  0  0  0  0  0999 V2000
    6.6629  -11.8556   27.5807 C   0  0  0  0  0  0  0  0  0  0  0  0
    6.0064  -13.0082   26.8240 C   0  0  0  0  0  0  0  0  0  0  0  0
    6.9717  -13.5061   25.7742 C   0  0  2  0  0  0  0  0  0  0  0  0
    7.3742  -12.3892   24.8222 C   0  0  0  0  0  0  0  0  0  0  0  0
    6.4724  -14.7081   25.0126 C   0  0  2  0  0  0  0  0  0  0  0  0
    6.0218  -15.6686   25.9869 N   0  0  0  0  0  0  0  0  0  0  0  0
    7.4113  -15.2402   24.0362 C   0  0  0  0  0  0  0  0  0  0  0  0
    7.8119  -16.4237   24.1584 O   0  0  0  0  0  0  0  0  0  0  0  0
    8.8986  -12.9907   18.2408 N   0  0  0  0  0  0  0  0  0  0  0  0
    8.0011  -14.0864   18.1905 C   0  0  0  0  0  0  0  0  0  0  0  0
    7.5045  -14.4708   17.1067 O   0  0  0  0  0  0  0  0  0  0  0  0
    7.6620  -14.7711   19.4605 C   0  0  0  0  0  0  0  0  0  0  0  0
    8.4106  -14.1199   20.5766 C   0  0  0  0  0  0  0  0  0  0  0  0
    8.5803  -15.0056   21.7953 C   0  0  2  0  0  0  0  0  0  0  0  0
    7.8962  -14.4687   22.9425 N   0  0  0  0  0  0  0  0  0  0  0  0
   10.0287  -15.1321   22.0107 C   0  0  0  0  0  0  0  0  0  0  0  0
   10.8055  -15.2763   21.0596 O   0  0  0  0  0  0  0  0  0  0  0  0
   11.8848  -18.6637   25.8806 N   0  0  0  0  0  0  0  0  0  0  0  0
   11.5882  -18.4638   24.4771 C   0  0  0  0  0  0  0  0  0  0  0  0
   12.0945  -19.2267   23.6260 O   0  0  0  0  0  0  0  0  0  0  0  0
   10.6992  -17.3694   24.0771 C   0  0  0  0  0  0  0  0  0  0  0  0
   11.4377  -16.1043   23.8102 C   0  0  2  0  0  0  0  0  0  0  0  0
   10.5360  -15.0872   23.3341 N   0  0  0  0  0  0  0  0  0  0  0  0
   12.5561  -16.3375   22.8461 C   0  0  0  0  0  0  0  0  0  0  0  0
   13.7058  -16.9399   23.3284 O   0  0  0  0  0  0  0  0  0  0  0  0
   12.5090  -16.0192   21.6335 O   0  0  0  0  0  0  0  0  0  0  0  0
  1  2  1  0
  2  3  1  0
  3  5  1  0
  3  4  1  6
  5  7  1  0
  5  6  1  1
  7  8  2  0
 10  9  1  0
 11 10  2  0
 12 10  1  0
 14 13  1  6
 13 12  1  0
 15 14  1  0
 15  7  1  0
 16 14  1  0
 17 16  2  0
 19 18  1  0
 19 20  2  0
 21 19  1  0
 22 21  1  6
 22 23  1  0
 23 16  1  0
 24 25  1  0
 24 22  1  0
 26 24  2  0
M  END
$$$$
