VYM.pdb
     RDKit          3D

 28 28  0  0  1  0  0  0  0  0999 V2000
    9.2959  -19.4229   18.6550 C   0  0  0  0  0  0  0  0  0  0  0  0
    9.3744  -18.6986   19.9568 C   0  0  2  0  0  0  0  0  0  0  0  0
    8.3563  -19.2510   20.8991 C   0  0  0  0  0  0  0  0  0  0  0  0
    9.3429  -17.2021   19.8383 C   0  0  2  0  0  0  0  0  0  0  0  0
   10.3982  -16.7969   18.9589 N   0  0  0  0  0  0  0  0  0  0  0  0
    9.4794  -16.5108   21.1450 C   0  0  0  0  0  0  0  0  0  0  0  0
   10.5485  -16.5095   21.8054 O   0  0  0  0  0  0  0  0  0  0  0  0
    7.0279  -11.6226   28.1935 O   0  0  0  0  0  0  0  0  0  0  0  0
    7.0534  -12.2769   26.9618 C   0  0  0  0  0  0  0  0  0  0  0  0
    7.7653  -11.7702   25.8855 C   0  0  0  0  0  0  0  0  0  0  0  0
    7.7902  -12.4197   24.6647 C   0  0  0  0  0  0  0  0  0  0  0  0
    7.1062  -13.6022   24.4649 C   0  0  0  0  0  0  0  0  0  0  0  0
    7.1724  -14.2472   23.1472 C   0  0  0  0  0  0  0  0  0  0  0  0
    8.3964  -15.1396   22.9717 C   0  0  2  0  0  0  0  0  0  0  0  0
    8.3650  -15.8098   21.6989 N   0  0  0  0  0  0  0  0  0  0  0  0
    8.5288  -16.1565   24.0368 C   0  0  0  0  0  0  0  0  0  0  0  0
    7.6452  -17.0370   24.2017 O   0  0  0  0  0  0  0  0  0  0  0  0
    6.3983  -14.1101   25.5277 C   0  0  0  0  0  0  0  0  0  0  0  0
    6.3705  -13.4570   26.7631 C   0  0  0  0  0  0  0  0  0  0  0  0
   13.6762  -18.9290   24.2893 C   0  0  0  0  0  0  0  0  0  0  0  0
   12.1407  -19.9175   24.2214 S   0  0  0  0  0  0  0  0  0  0  0  0
   10.7436  -18.8202   24.5381 C   0  0  0  0  0  0  0  0  0  0  0  0
   10.9046  -18.0213   25.8092 C   0  0  0  0  0  0  0  0  0  0  0  0
    9.7200  -17.0973   26.0734 C   0  0  2  0  0  0  0  0  0  0  0  0
    9.6552  -16.1999   24.9288 N   0  0  0  0  0  0  0  0  0  0  0  0
   10.0316  -16.3869   27.3387 C   0  0  0  0  0  0  0  0  0  0  0  0
    9.9108  -17.0205   28.5567 O   0  0  0  0  0  0  0  0  0  0  0  0
   10.4088  -15.2013   27.3272 O   0  0  0  0  0  0  0  0  0  0  0  0
  2  1  1  6
  3  2  1  0
  4  5  1  6
  4  2  1  0
  6  4  1  0
  7  6  2  0
  9 10  2  0
  9  8  1  0
 11 10  1  0
 12 11  2  0
 14 13  1  1
 13 12  1  0
 14 15  1  0
 15  6  1  0
 16 17  2  0
 16 14  1  0
 18 12  1  0
 18 19  2  0
 19  9  1  0
 20 21  1  0
 21 22  1  0
 24 23  1  6
 23 22  1  0
 24 25  1  0
 25 16  1  0
 26 24  1  0
 27 26  1  0
 28 26  2  0
M  END
$$$$
