VYM.pdb
     RDKit          3D

 28 28  0  0  1  0  0  0  0  0999 V2000
    7.7655  -13.2482   18.7171 C   0  0  0  0  0  0  0  0  0  0  0  0
    8.9556  -13.9377   18.1393 C   0  0  2  0  0  0  0  0  0  0  0  0
    8.6560  -14.3658   16.7405 C   0  0  0  0  0  0  0  0  0  0  0  0
    9.5199  -15.0304   19.0007 C   0  0  2  0  0  0  0  0  0  0  0  0
    8.7688  -16.2263   18.7621 N   0  0  0  0  0  0  0  0  0  0  0  0
    9.5004  -14.7007   20.4481 C   0  0  0  0  0  0  0  0  0  0  0  0
   10.2381  -13.8186   20.9548 O   0  0  0  0  0  0  0  0  0  0  0  0
    6.2934  -12.9023   28.3881 O   0  0  0  0  0  0  0  0  0  0  0  0
    6.4781  -13.3765   27.0893 C   0  0  0  0  0  0  0  0  0  0  0  0
    6.2641  -14.7074   26.7654 C   0  0  0  0  0  0  0  0  0  0  0  0
    6.4474  -15.1766   25.4773 C   0  0  0  0  0  0  0  0  0  0  0  0
    6.8519  -14.3389   24.4573 C   0  0  0  0  0  0  0  0  0  0  0  0
    7.0270  -14.8943   23.1091 C   0  0  0  0  0  0  0  0  0  0  0  0
    8.4880  -15.1079   22.7282 C   0  0  2  0  0  0  0  0  0  0  0  0
    8.6157  -15.3994   21.3250 N   0  0  0  0  0  0  0  0  0  0  0  0
    9.1334  -16.1943   23.4959 C   0  0  0  0  0  0  0  0  0  0  0  0
    9.2082  -17.3594   23.0269 O   0  0  0  0  0  0  0  0  0  0  0  0
    7.0658  -13.0182   24.7715 C   0  0  0  0  0  0  0  0  0  0  0  0
    6.8818  -12.5398   26.0718 C   0  0  0  0  0  0  0  0  0  0  0  0
   10.3750  -12.4763   28.5210 C   0  0  0  0  0  0  0  0  0  0  0  0
   10.5652  -14.2904   28.6310 S   0  0  0  0  0  0  0  0  0  0  0  0
   10.5840  -14.9627   26.9565 C   0  0  0  0  0  0  0  0  0  0  0  0
   10.6331  -16.4716   26.9332 C   0  0  0  0  0  0  0  0  0  0  0  0
   10.3737  -17.0440   25.5433 C   0  0  2  0  0  0  0  0  0  0  0  0
    9.7051  -15.9867   24.7984 N   0  0  0  0  0  0  0  0  0  0  0  0
    9.5092  -18.2331   25.7471 C   0  0  0  0  0  0  0  0  0  0  0  0
   10.0233  -19.4050   26.2587 O   0  0  0  0  0  0  0  0  0  0  0  0
    8.2993  -18.1976   25.4593 O   0  0  0  0  0  0  0  0  0  0  0  0
  2  1  1  1
  3  2  1  0
  4  5  1  1
  4  2  1  0
  6  4  1  0
  7  6  2  0
  9 10  2  0
  9  8  1  0
 11 10  1  0
 12 11  2  0
 14 13  1  1
 13 12  1  0
 14 15  1  0
 15  6  1  0
 16 17  2  0
 16 14  1  0
 18 12  1  0
 18 19  2  0
 19  9  1  0
 20 21  1  0
 21 22  1  0
 24 23  1  1
 23 22  1  0
 24 25  1  0
 25 16  1  0
 26 24  1  0
 27 26  1  0
 28 26  2  0
M  END
$$$$
