VYM.pdb
     RDKit          3D

 28 28  0  0  1  0  0  0  0  0999 V2000
    7.9315  -12.8331   17.8965 C   0  0  0  0  0  0  0  0  0  0  0  0
    8.0622  -13.5239   19.2123 C   0  0  2  0  0  0  0  0  0  0  0  0
    8.9346  -12.7172   20.1167 C   0  0  0  0  0  0  0  0  0  0  0  0
    8.4569  -14.9696   19.1188 C   0  0  2  0  0  0  0  0  0  0  0  0
    7.5774  -15.6185   18.1933 N   0  0  0  0  0  0  0  0  0  0  0  0
    8.4206  -15.6696   20.4275 C   0  0  0  0  0  0  0  0  0  0  0  0
    7.3528  -15.8864   21.0535 O   0  0  0  0  0  0  0  0  0  0  0  0
   11.4660  -20.6768   27.1746 O   0  0  0  0  0  0  0  0  0  0  0  0
   11.3203  -19.9570   25.9887 C   0  0  0  0  0  0  0  0  0  0  0  0
   12.3491  -19.1788   25.4809 C   0  0  0  0  0  0  0  0  0  0  0  0
   12.2037  -18.4655   24.3049 C   0  0  0  0  0  0  0  0  0  0  0  0
   11.0261  -18.4977   23.5850 C   0  0  0  0  0  0  0  0  0  0  0  0
   10.9320  -17.7215   22.3419 C   0  0  0  0  0  0  0  0  0  0  0  0
    9.6930  -16.8352   22.2747 C   0  0  2  0  0  0  0  0  0  0  0  0
    9.6353  -16.1270   21.0236 N   0  0  0  0  0  0  0  0  0  0  0  0
    9.6245  -15.8517   23.3767 C   0  0  0  0  0  0  0  0  0  0  0  0
   10.4516  -14.9064   23.4502 O   0  0  0  0  0  0  0  0  0  0  0  0
   10.0019  -19.2672   24.0828 C   0  0  0  0  0  0  0  0  0  0  0  0
   10.1447  -19.9896   25.2708 C   0  0  0  0  0  0  0  0  0  0  0  0
    6.8596  -10.7543   26.5537 C   0  0  0  0  0  0  0  0  0  0  0  0
    5.8497  -12.2743   26.4581 S   0  0  0  0  0  0  0  0  0  0  0  0
    6.8991  -13.6813   26.8770 C   0  0  0  0  0  0  0  0  0  0  0  0
    7.1204  -14.6131   25.7096 C   0  0  0  0  0  0  0  0  0  0  0  0
    8.5887  -14.9842   25.5276 C   0  0  2  0  0  0  0  0  0  0  0  0
    8.6259  -15.9150   24.4087 N   0  0  0  0  0  0  0  0  0  0  0  0
    9.0122  -15.6101   26.8050 C   0  0  0  0  0  0  0  0  0  0  0  0
    9.4977  -14.8450   27.8435 O   0  0  0  0  0  0  0  0  0  0  0  0
    8.9386  -16.8416   26.9659 O   0  0  0  0  0  0  0  0  0  0  0  0
  2  1  1  6
  3  2  1  0
  4  5  1  6
  4  2  1  0
  6  4  1  0
  7  6  2  0
  9 10  2  0
  9  8  1  0
 11 10  1  0
 12 11  2  0
 14 13  1  6
 13 12  1  0
 14 15  1  0
 15  6  1  0
 16 17  2  0
 16 14  1  0
 18 12  1  0
 18 19  2  0
 19  9  1  0
 20 21  1  0
 21 22  1  0
 24 23  1  1
 23 22  1  0
 24 25  1  0
 25 16  1  0
 26 24  1  0
 27 26  1  0
 28 26  2  0
M  END
$$$$
