VYM.pdb
     RDKit          3D

 28 28  0  0  1  0  0  0  0  0999 V2000
    7.9532  -12.8478   18.7056 C   0  0  0  0  0  0  0  0  0  0  0  0
    8.9786  -13.6722   18.0024 C   0  0  2  0  0  0  0  0  0  0  0  0
    8.5312  -13.9411   16.6034 C   0  0  0  0  0  0  0  0  0  0  0  0
    9.4064  -14.9023   18.7498 C   0  0  2  0  0  0  0  0  0  0  0  0
    8.4695  -15.9488   18.4701 N   0  0  0  0  0  0  0  0  0  0  0  0
    9.5046  -14.6891   20.2157 C   0  0  0  0  0  0  0  0  0  0  0  0
   10.4244  -14.0164   20.7452 O   0  0  0  0  0  0  0  0  0  0  0  0
    6.3335  -12.5689   28.0847 O   0  0  0  0  0  0  0  0  0  0  0  0
    6.4861  -13.1534   26.8274 C   0  0  0  0  0  0  0  0  0  0  0  0
    6.7969  -12.3968   25.7082 C   0  0  0  0  0  0  0  0  0  0  0  0
    6.9481  -12.9772   24.4620 C   0  0  0  0  0  0  0  0  0  0  0  0
    6.7958  -14.3371   24.2786 C   0  0  0  0  0  0  0  0  0  0  0  0
    6.9715  -14.8963   22.9321 C   0  0  0  0  0  0  0  0  0  0  0  0
    8.4290  -14.9562   22.4876 C   0  0  2  0  0  0  0  0  0  0  0  0
    8.5260  -15.2610   21.0848 N   0  0  0  0  0  0  0  0  0  0  0  0
    9.2238  -15.9489   23.2419 C   0  0  0  0  0  0  0  0  0  0  0  0
    9.2832  -17.1481   22.8658 O   0  0  0  0  0  0  0  0  0  0  0  0
    6.4876  -15.0932   25.3840 C   0  0  0  0  0  0  0  0  0  0  0  0
    6.3339  -14.5107   26.6452 C   0  0  0  0  0  0  0  0  0  0  0  0
    9.7063  -13.4213   29.4558 C   0  0  0  0  0  0  0  0  0  0  0  0
   11.0535  -14.3172   28.6062 S   0  0  0  0  0  0  0  0  0  0  0  0
   10.3630  -15.1406   27.1565 C   0  0  0  0  0  0  0  0  0  0  0  0
   11.4188  -15.7944   26.2976 C   0  0  0  0  0  0  0  0  0  0  0  0
   10.8237  -16.5575   25.1185 C   0  0  2  0  0  0  0  0  0  0  0  0
    9.9640  -15.6082   24.4262 N   0  0  0  0  0  0  0  0  0  0  0  0
   10.0660  -17.6901   25.7068 C   0  0  0  0  0  0  0  0  0  0  0  0
    8.6878  -17.6995   25.7040 O   0  0  0  0  0  0  0  0  0  0  0  0
   10.6600  -18.6571   26.2167 O   0  0  0  0  0  0  0  0  0  0  0  0
  2  1  1  1
  3  2  1  0
  4  5  1  1
  4  2  1  0
  6  4  1  0
  7  6  2  0
  9 10  2  0
  9  8  1  0
 11 10  1  0
 12 11  2  0
 14 13  1  1
 13 12  1  0
 14 15  1  0
 15  6  1  0
 16 17  2  0
 16 14  1  0
 18 12  1  0
 18 19  2  0
 19  9  1  0
 20 21  1  0
 21 22  1  0
 24 23  1  1
 23 22  1  0
 24 25  1  0
 25 16  1  0
 26 24  1  0
 27 26  1  0
 28 26  2  0
M  END
$$$$
