VYM.pdb
     RDKit          3D

 28 28  0  0  1  0  0  0  0  0999 V2000
    6.8415  -14.8758   19.5459 C   0  0  0  0  0  0  0  0  0  0  0  0
    7.8064  -13.7719   19.8211 C   0  0  2  0  0  0  0  0  0  0  0  0
    8.1027  -13.0386   18.5545 C   0  0  0  0  0  0  0  0  0  0  0  0
    9.0321  -14.1925   20.5798 C   0  0  2  0  0  0  0  0  0  0  0  0
    9.7829  -15.0949   19.7594 N   0  0  0  0  0  0  0  0  0  0  0  0
    8.7202  -14.8327   21.8824 C   0  0  0  0  0  0  0  0  0  0  0  0
    7.8768  -14.3629   22.6866 O   0  0  0  0  0  0  0  0  0  0  0  0
   14.8195  -18.6986   21.1068 O   0  0  0  0  0  0  0  0  0  0  0  0
   13.5489  -18.5638   21.6664 C   0  0  0  0  0  0  0  0  0  0  0  0
   13.3491  -18.6253   23.0368 C   0  0  0  0  0  0  0  0  0  0  0  0
   12.0889  -18.4914   23.5907 C   0  0  0  0  0  0  0  0  0  0  0  0
   10.9740  -18.2904   22.8016 C   0  0  0  0  0  0  0  0  0  0  0  0
    9.6622  -18.1526   23.4474 C   0  0  0  0  0  0  0  0  0  0  0  0
    9.1694  -16.7110   23.5135 C   0  0  2  0  0  0  0  0  0  0  0  0
    9.3919  -16.0343   22.2634 N   0  0  0  0  0  0  0  0  0  0  0  0
    9.8095  -15.9294   24.5931 C   0  0  0  0  0  0  0  0  0  0  0  0
   10.9006  -15.3337   24.3985 O   0  0  0  0  0  0  0  0  0  0  0  0
   11.1649  -18.2284   21.4420 C   0  0  0  0  0  0  0  0  0  0  0  0
   12.4366  -18.3632   20.8782 C   0  0  0  0  0  0  0  0  0  0  0  0
    6.5078  -10.9325   25.8583 C   0  0  0  0  0  0  0  0  0  0  0  0
    6.9227  -12.1826   27.1250 S   0  0  0  0  0  0  0  0  0  0  0  0
    8.3638  -13.1093   26.5586 C   0  0  0  0  0  0  0  0  0  0  0  0
    8.8214  -14.1456   27.5570 C   0  0  0  0  0  0  0  0  0  0  0  0
    9.8835  -15.0795   26.9856 C   0  0  2  0  0  0  0  0  0  0  0  0
    9.2325  -15.8043   25.9037 N   0  0  0  0  0  0  0  0  0  0  0  0
   10.2900  -15.9669   28.1036 C   0  0  0  0  0  0  0  0  0  0  0  0
   11.0903  -15.5012   29.1244 O   0  0  0  0  0  0  0  0  0  0  0  0
    9.9166  -17.1531   28.1432 O   0  0  0  0  0  0  0  0  0  0  0  0
  2  1  1  6
  3  2  1  0
  4  5  1  6
  4  2  1  0
  6  4  1  0
  7  6  2  0
  9 10  2  0
  9  8  1  0
 11 10  1  0
 12 11  2  0
 14 13  1  6
 13 12  1  0
 14 15  1  0
 15  6  1  0
 16 17  2  0
 16 14  1  0
 18 12  1  0
 18 19  2  0
 19  9  1  0
 20 21  1  0
 21 22  1  0
 24 23  1  1
 23 22  1  0
 24 25  1  0
 25 16  1  0
 26 24  1  0
 27 26  1  0
 28 26  2  0
M  END
$$$$
