VYM.pdb
     RDKit          3D

 28 28  0  0  1  0  0  0  0  0999 V2000
    7.9764  -13.1016   18.5361 C   0  0  0  0  0  0  0  0  0  0  0  0
    9.0317  -13.9707   17.9391 C   0  0  2  0  0  0  0  0  0  0  0  0
    8.5775  -14.4650   16.6052 C   0  0  0  0  0  0  0  0  0  0  0  0
    9.5330  -15.0544   18.8495 C   0  0  2  0  0  0  0  0  0  0  0  0
    8.6917  -16.2024   18.6901 N   0  0  0  0  0  0  0  0  0  0  0  0
    9.5684  -14.6469   20.2766 C   0  0  0  0  0  0  0  0  0  0  0  0
   10.3449  -13.7599   20.7117 O   0  0  0  0  0  0  0  0  0  0  0  0
    6.2915  -12.3135   28.0473 O   0  0  0  0  0  0  0  0  0  0  0  0
    6.4794  -12.9333   26.8119 C   0  0  0  0  0  0  0  0  0  0  0  0
    6.9435  -12.2307   25.7106 C   0  0  0  0  0  0  0  0  0  0  0  0
    7.1297  -12.8461   24.4860 C   0  0  0  0  0  0  0  0  0  0  0  0
    6.8610  -14.1884   24.3073 C   0  0  0  0  0  0  0  0  0  0  0  0
    7.0808  -14.7869   22.9843 C   0  0  0  0  0  0  0  0  0  0  0  0
    8.5507  -14.8418   22.5823 C   0  0  2  0  0  0  0  0  0  0  0  0
    8.6940  -15.2724   21.2169 N   0  0  0  0  0  0  0  0  0  0  0  0
    9.3538  -15.7347   23.4449 C   0  0  0  0  0  0  0  0  0  0  0  0
    9.4197  -16.9693   23.2116 O   0  0  0  0  0  0  0  0  0  0  0  0
    6.4005  -14.8911   25.3950 C   0  0  0  0  0  0  0  0  0  0  0  0
    6.2110  -14.2731   26.6343 C   0  0  0  0  0  0  0  0  0  0  0  0
   10.8199  -13.6204   29.2908 C   0  0  0  0  0  0  0  0  0  0  0  0
   11.7050  -15.2106   29.4566 S   0  0  0  0  0  0  0  0  0  0  0  0
   11.4197  -16.1787   27.9608 C   0  0  0  0  0  0  0  0  0  0  0  0
   10.8688  -15.3504   26.8249 C   0  0  0  0  0  0  0  0  0  0  0  0
   10.7507  -16.1426   25.5268 C   0  0  2  0  0  0  0  0  0  0  0  0
   10.0948  -15.2534   24.5787 N   0  0  0  0  0  0  0  0  0  0  0  0
    9.9303  -17.3363   25.8511 C   0  0  0  0  0  0  0  0  0  0  0  0
    8.5548  -17.2618   25.8938 O   0  0  0  0  0  0  0  0  0  0  0  0
   10.4680  -18.4320   26.0926 O   0  0  0  0  0  0  0  0  0  0  0  0
  2  1  1  1
  3  2  1  0
  4  5  1  1
  4  2  1  0
  6  4  1  0
  7  6  2  0
  9 10  2  0
  9  8  1  0
 11 10  1  0
 12 11  2  0
 14 13  1  1
 13 12  1  0
 14 15  1  0
 15  6  1  0
 16 17  2  0
 16 14  1  0
 18 12  1  0
 18 19  2  0
 19  9  1  0
 20 21  1  0
 21 22  1  0
 24 23  1  1
 23 22  1  0
 24 25  1  0
 25 16  1  0
 26 24  1  0
 27 26  1  0
 28 26  2  0
M  END
$$$$
