VYM.pdb
     RDKit          3D

 28 28  0  0  1  0  0  0  0  0999 V2000
    6.8373  -13.3437   18.7933 C   0  0  0  0  0  0  0  0  0  0  0  0
    8.1745  -13.7563   18.2765 C   0  0  2  0  0  0  0  0  0  0  0  0
    8.0222  -14.3594   16.9190 C   0  0  0  0  0  0  0  0  0  0  0  0
    8.9761  -14.5973   19.2277 C   0  0  2  0  0  0  0  0  0  0  0  0
    8.4488  -15.9288   19.2070 N   0  0  0  0  0  0  0  0  0  0  0  0
    8.9711  -14.0724   20.6163 C   0  0  0  0  0  0  0  0  0  0  0  0
    8.7237  -12.8708   20.8884 O   0  0  0  0  0  0  0  0  0  0  0  0
    6.3979  -12.9458   28.7299 O   0  0  0  0  0  0  0  0  0  0  0  0
    6.6820  -13.2505   27.3987 C   0  0  0  0  0  0  0  0  0  0  0  0
    7.3346  -12.3498   26.5713 C   0  0  0  0  0  0  0  0  0  0  0  0
    7.6160  -12.6529   25.2515 C   0  0  0  0  0  0  0  0  0  0  0  0
    7.2586  -13.8672   24.7004 C   0  0  0  0  0  0  0  0  0  0  0  0
    7.5868  -14.1330   23.2938 C   0  0  0  0  0  0  0  0  0  0  0  0
    9.0216  -14.6061   23.0867 C   0  0  2  0  0  0  0  0  0  0  0  0
    9.2559  -14.9474   21.7087 N   0  0  0  0  0  0  0  0  0  0  0  0
    9.3743  -15.7703   23.9272 C   0  0  0  0  0  0  0  0  0  0  0  0
    8.6888  -16.8247   23.8894 O   0  0  0  0  0  0  0  0  0  0  0  0
    6.6113  -14.7650   25.5151 C   0  0  0  0  0  0  0  0  0  0  0  0
    6.3250  -14.4627   26.8493 C   0  0  0  0  0  0  0  0  0  0  0  0
   15.8881  -16.0091   23.6785 C   0  0  0  0  0  0  0  0  0  0  0  0
   14.9269  -16.1714   25.2242 S   0  0  0  0  0  0  0  0  0  0  0  0
   13.2065  -16.5025   24.7919 C   0  0  0  0  0  0  0  0  0  0  0  0
   12.3309  -16.7187   26.0029 C   0  0  0  0  0  0  0  0  0  0  0  0
   10.8636  -16.9163   25.6361 C   0  0  2  0  0  0  0  0  0  0  0  0
   10.5017  -15.7670   24.8190 N   0  0  0  0  0  0  0  0  0  0  0  0
   10.1241  -16.9578   26.9223 C   0  0  0  0  0  0  0  0  0  0  0  0
   10.1785  -18.0683   27.7367 O   0  0  0  0  0  0  0  0  0  0  0  0
    9.4372  -15.9890   27.2933 O   0  0  0  0  0  0  0  0  0  0  0  0
  2  1  1  1
  3  2  1  0
  4  5  1  1
  4  2  1  0
  6  4  1  0
  7  6  2  0
  9 10  2  0
  9  8  1  0
 11 10  1  0
 12 11  2  0
 14 13  1  6
 13 12  1  0
 14 15  1  0
 15  6  1  0
 16 17  2  0
 16 14  1  0
 18 12  1  0
 18 19  2  0
 19  9  1  0
 20 21  1  0
 21 22  1  0
 24 23  1  1
 23 22  1  0
 24 25  1  0
 25 16  1  0
 26 24  1  0
 27 26  1  0
 28 26  2  0
M  END
$$$$
