VYM.pdb
     RDKit          3D

 28 28  0  0  1  0  0  0  0  0999 V2000
    9.6706  -16.3231   17.9935 C   0  0  0  0  0  0  0  0  0  0  0  0
   10.7395  -17.3097   18.3242 C   0  0  2  0  0  0  0  0  0  0  0  0
   10.8396  -18.3239   17.2329 C   0  0  0  0  0  0  0  0  0  0  0  0
   10.6321  -17.9054   19.6983 C   0  0  2  0  0  0  0  0  0  0  0  0
    9.5126  -18.7984   19.7166 N   0  0  0  0  0  0  0  0  0  0  0  0
   10.4831  -16.8848   20.7661 C   0  0  0  0  0  0  0  0  0  0  0  0
   11.3669  -16.0271   21.0155 O   0  0  0  0  0  0  0  0  0  0  0  0
    6.2827  -12.0461   26.9582 O   0  0  0  0  0  0  0  0  0  0  0  0
    6.5839  -12.9224   25.9156 C   0  0  0  0  0  0  0  0  0  0  0  0
    7.2245  -12.4887   24.7652 C   0  0  0  0  0  0  0  0  0  0  0  0
    7.5229  -13.3584   23.7320 C   0  0  0  0  0  0  0  0  0  0  0  0
    7.1953  -14.6977   23.8018 C   0  0  0  0  0  0  0  0  0  0  0  0
    7.5403  -15.5731   22.6742 C   0  0  0  0  0  0  0  0  0  0  0  0
    9.0343  -15.8585   22.5656 C   0  0  2  0  0  0  0  0  0  0  0  0
    9.2954  -16.8528   21.5589 N   0  0  0  0  0  0  0  0  0  0  0  0
    9.6316  -16.3103   23.8405 C   0  0  0  0  0  0  0  0  0  0  0  0
    9.6725  -17.5325   24.1364 O   0  0  0  0  0  0  0  0  0  0  0  0
    6.5600  -15.1345   24.9395 C   0  0  0  0  0  0  0  0  0  0  0  0
    6.2566  -14.2590   25.9860 C   0  0  0  0  0  0  0  0  0  0  0  0
   10.6729  -14.3287   31.3404 C   0  0  0  0  0  0  0  0  0  0  0  0
   10.3892  -13.7130   29.6433 S   0  0  0  0  0  0  0  0  0  0  0  0
   10.7601  -15.0464   28.4854 C   0  0  0  0  0  0  0  0  0  0  0  0
   10.4205  -14.6915   27.0575 C   0  0  0  0  0  0  0  0  0  0  0  0
   10.7177  -15.8289   26.0856 C   0  0  2  0  0  0  0  0  0  0  0  0
   10.1924  -15.3969   24.7983 N   0  0  0  0  0  0  0  0  0  0  0  0
   10.0093  -17.0181   26.6210 C   0  0  0  0  0  0  0  0  0  0  0  0
    8.6375  -17.1234   26.5395 O   0  0  0  0  0  0  0  0  0  0  0  0
   10.6398  -17.9473   27.1568 O   0  0  0  0  0  0  0  0  0  0  0  0
  2  1  1  6
  3  2  1  0
  4  5  1  6
  4  2  1  0
  6  4  1  0
  7  6  2  0
  9 10  2  0
  9  8  1  0
 11 10  1  0
 12 11  2  0
 14 13  1  1
 13 12  1  0
 14 15  1  0
 15  6  1  0
 16 17  2  0
 16 14  1  0
 18 12  1  0
 18 19  2  0
 19  9  1  0
 20 21  1  0
 21 22  1  0
 24 23  1  1
 23 22  1  0
 24 25  1  0
 25 16  1  0
 26 24  1  0
 27 26  1  0
 28 26  2  0
M  END
$$$$
