VYM.pdb
     RDKit          3D

 28 28  0  0  1  0  0  0  0  0999 V2000
    8.2988  -13.0332   18.0612 C   0  0  0  0  0  0  0  0  0  0  0  0
    7.9295  -13.6800   19.3537 C   0  0  2  0  0  0  0  0  0  0  0  0
    8.4473  -12.8606   20.4895 C   0  0  0  0  0  0  0  0  0  0  0  0
    8.2851  -15.1360   19.4441 C   0  0  2  0  0  0  0  0  0  0  0  0
    7.7198  -15.8095   18.3135 N   0  0  0  0  0  0  0  0  0  0  0  0
    7.8160  -15.7739   20.6999 C   0  0  0  0  0  0  0  0  0  0  0  0
    6.6752  -16.2878   20.8168 O   0  0  0  0  0  0  0  0  0  0  0  0
    7.7930  -20.7749   27.8661 O   0  0  0  0  0  0  0  0  0  0  0  0
    7.9726  -20.0877   26.6655 C   0  0  0  0  0  0  0  0  0  0  0  0
    9.2372  -19.8223   26.1634 C   0  0  0  0  0  0  0  0  0  0  0  0
    9.4143  -19.1410   24.9729 C   0  0  0  0  0  0  0  0  0  0  0  0
    8.3378  -18.6952   24.2322 C   0  0  0  0  0  0  0  0  0  0  0  0
    8.5885  -17.9798   22.9744 C   0  0  0  0  0  0  0  0  0  0  0  0
    8.3345  -16.4794   23.0713 C   0  0  2  0  0  0  0  0  0  0  0  0
    8.6764  -15.8200   21.8390 N   0  0  0  0  0  0  0  0  0  0  0  0
    9.0813  -15.8358   24.1732 C   0  0  0  0  0  0  0  0  0  0  0  0
   10.3345  -15.7320   24.1290 O   0  0  0  0  0  0  0  0  0  0  0  0
    7.0812  -18.9550   24.7242 C   0  0  0  0  0  0  0  0  0  0  0  0
    6.8978  -19.6432   25.9269 C   0  0  0  0  0  0  0  0  0  0  0  0
    6.0282  -10.1970   25.9798 C   0  0  0  0  0  0  0  0  0  0  0  0
    6.3932  -11.6301   27.0532 S   0  0  0  0  0  0  0  0  0  0  0  0
    7.7139  -12.5922   26.2874 C   0  0  0  0  0  0  0  0  0  0  0  0
    8.1475  -13.7658   27.1328 C   0  0  0  0  0  0  0  0  0  0  0  0
    9.1611  -14.6564   26.4215 C   0  0  2  0  0  0  0  0  0  0  0  0
    8.4315  -15.2987   25.3375 N   0  0  0  0  0  0  0  0  0  0  0  0
    9.6387  -15.6244   27.4401 C   0  0  0  0  0  0  0  0  0  0  0  0
   10.7109  -15.3273   28.2537 O   0  0  0  0  0  0  0  0  0  0  0  0
    9.0808  -16.7274   27.5814 O   0  0  0  0  0  0  0  0  0  0  0  0
  2  1  1  6
  3  2  1  0
  4  5  1  6
  4  2  1  0
  6  4  1  0
  7  6  2  0
  9 10  2  0
  9  8  1  0
 11 10  1  0
 12 11  2  0
 14 13  1  6
 13 12  1  0
 14 15  1  0
 15  6  1  0
 16 17  2  0
 16 14  1  0
 18 12  1  0
 18 19  2  0
 19  9  1  0
 20 21  1  0
 21 22  1  0
 24 23  1  1
 23 22  1  0
 24 25  1  0
 25 16  1  0
 26 24  1  0
 27 26  1  0
 28 26  2  0
M  END
$$$$
