VYM.pdb
     RDKit          3D

 28 28  0  0  1  0  0  0  0  0999 V2000
    7.2144  -14.3402   20.2479 C   0  0  0  0  0  0  0  0  0  0  0  0
    7.6922  -13.5058   19.1073 C   0  0  2  0  0  0  0  0  0  0  0  0
    6.5270  -12.8431   18.4494 C   0  0  0  0  0  0  0  0  0  0  0  0
    8.6023  -14.2220   18.1516 C   0  0  2  0  0  0  0  0  0  0  0  0
    7.8287  -15.1872   17.4296 N   0  0  0  0  0  0  0  0  0  0  0  0
    9.7449  -14.8898   18.8242 C   0  0  0  0  0  0  0  0  0  0  0  0
    9.7079  -16.0890   19.1978 O   0  0  0  0  0  0  0  0  0  0  0  0
   18.1953  -16.2658   21.3231 O   0  0  0  0  0  0  0  0  0  0  0  0
   17.0074  -15.7343   20.8211 C   0  0  0  0  0  0  0  0  0  0  0  0
   17.0080  -14.7011   19.8968 C   0  0  0  0  0  0  0  0  0  0  0  0
   15.8297  -14.1748   19.3994 C   0  0  0  0  0  0  0  0  0  0  0  0
   14.6002  -14.6563   19.8025 C   0  0  0  0  0  0  0  0  0  0  0  0
   13.3834  -14.0593   19.2372 C   0  0  0  0  0  0  0  0  0  0  0  0
   12.1007  -14.7239   19.7256 C   0  0  2  0  0  0  0  0  0  0  0  0
   10.9496  -14.1628   19.0696 N   0  0  0  0  0  0  0  0  0  0  0  0
   11.9113  -14.6119   21.1877 C   0  0  0  0  0  0  0  0  0  0  0  0
   11.9025  -13.4879   21.7530 O   0  0  0  0  0  0  0  0  0  0  0  0
   14.5922  -15.6807   20.7188 C   0  0  0  0  0  0  0  0  0  0  0  0
   15.7806  -16.2154   21.2239 C   0  0  0  0  0  0  0  0  0  0  0  0
    7.5757  -13.2174   26.2247 C   0  0  0  0  0  0  0  0  0  0  0  0
    8.4164  -13.2740   24.6031 S   0  0  0  0  0  0  0  0  0  0  0  0
    8.7635  -14.9989   24.2026 C   0  0  0  0  0  0  0  0  0  0  0  0
    9.6305  -15.1508   22.9758 C   0  0  0  0  0  0  0  0  0  0  0  0
   11.0166  -15.6969   23.3030 C   0  0  2  0  0  0  0  0  0  0  0  0
   11.7271  -15.7594   22.0338 N   0  0  0  0  0  0  0  0  0  0  0  0
   10.7958  -17.0377   23.9001 C   0  0  0  0  0  0  0  0  0  0  0  0
   11.1873  -18.1821   23.2393 O   0  0  0  0  0  0  0  0  0  0  0  0
   10.2509  -17.1576   25.0121 O   0  0  0  0  0  0  0  0  0  0  0  0
  2  1  1  1
  3  2  1  0
  4  5  1  1
  4  2  1  0
  6  4  1  0
  7  6  2  0
  9 10  2  0
  9  8  1  0
 11 10  1  0
 12 11  2  0
 14 13  1  6
 13 12  1  0
 14 15  1  0
 15  6  1  0
 16 17  2  0
 16 14  1  0
 18 12  1  0
 18 19  2  0
 19  9  1  0
 20 21  1  0
 21 22  1  0
 24 23  1  6
 23 22  1  0
 24 25  1  0
 25 16  1  0
 26 24  1  0
 27 26  1  0
 28 26  2  0
M  END
$$$$
