VYM.pdb
     RDKit          3D

 28 28  0  0  1  0  0  0  0  0999 V2000
    8.3117  -20.1284   24.7121 C   0  0  0  0  0  0  0  0  0  0  0  0
    7.0353  -19.4990   24.2647 C   0  0  2  0  0  0  0  0  0  0  0  0
    5.9064  -20.4540   24.4729 C   0  0  0  0  0  0  0  0  0  0  0  0
    7.0838  -18.9079   22.8853 C   0  0  2  0  0  0  0  0  0  0  0  0
    7.0838  -19.9795   21.9351 N   0  0  0  0  0  0  0  0  0  0  0  0
    8.2654  -18.0365   22.6656 C   0  0  0  0  0  0  0  0  0  0  0  0
    9.3047  -18.4341   22.0820 O   0  0  0  0  0  0  0  0  0  0  0  0
    7.4049  -13.8570   17.0166 O   0  0  0  0  0  0  0  0  0  0  0  0
    7.7550  -13.9918   18.3601 C   0  0  0  0  0  0  0  0  0  0  0  0
    6.9308  -13.5301   19.3747 C   0  0  0  0  0  0  0  0  0  0  0  0
    7.2788  -13.6644   20.7065 C   0  0  0  0  0  0  0  0  0  0  0  0
    8.4634  -14.2648   21.0835 C   0  0  0  0  0  0  0  0  0  0  0  0
    8.7772  -14.3812   22.5135 C   0  0  0  0  0  0  0  0  0  0  0  0
    9.3203  -15.7516   22.9036 C   0  0  2  0  0  0  0  0  0  0  0  0
    8.2479  -16.6847   23.1264 N   0  0  0  0  0  0  0  0  0  0  0  0
   10.1714  -15.7144   24.1121 C   0  0  0  0  0  0  0  0  0  0  0  0
   11.2667  -15.0952   24.1111 O   0  0  0  0  0  0  0  0  0  0  0  0
    9.2853  -14.7248   20.0826 C   0  0  0  0  0  0  0  0  0  0  0  0
    8.9375  -14.5911   18.7355 C   0  0  0  0  0  0  0  0  0  0  0  0
    7.0377  -12.0268   27.2615 C   0  0  0  0  0  0  0  0  0  0  0  0
    8.7816  -12.5234   27.4890 S   0  0  0  0  0  0  0  0  0  0  0  0
    8.9555  -14.2428   26.9694 C   0  0  0  0  0  0  0  0  0  0  0  0
   10.3952  -14.6950   26.9187 C   0  0  0  0  0  0  0  0  0  0  0  0
   10.5314  -16.1769   26.5836 C   0  0  2  0  0  0  0  0  0  0  0  0
    9.8034  -16.3694   25.3376 N   0  0  0  0  0  0  0  0  0  0  0  0
    9.9206  -16.9096   27.7207 C   0  0  0  0  0  0  0  0  0  0  0  0
   10.5177  -16.9174   28.9628 O   0  0  0  0  0  0  0  0  0  0  0  0
    8.8543  -17.5343   27.5765 O   0  0  0  0  0  0  0  0  0  0  0  0
  2  1  1  6
  3  2  1  0
  4  5  1  6
  4  2  1  0
  6  4  1  0
  7  6  2  0
  9 10  2  0
  9  8  1  0
 11 10  1  0
 12 11  2  0
 14 13  1  1
 13 12  1  0
 14 15  1  0
 15  6  1  0
 16 17  2  0
 16 14  1  0
 18 12  1  0
 18 19  2  0
 19  9  1  0
 20 21  1  0
 21 22  1  0
 24 23  1  1
 23 22  1  0
 24 25  1  0
 25 16  1  0
 26 24  1  0
 27 26  1  0
 28 26  2  0
M  END
$$$$
