VYM.pdb
     RDKit          3D

 28 28  0  0  1  0  0  0  0  0999 V2000
    8.5525  -16.6826   17.8910 C   0  0  0  0  0  0  0  0  0  0  0  0
    9.7667  -17.5295   18.0745 C   0  0  2  0  0  0  0  0  0  0  0  0
    9.7628  -18.6346   17.0703 C   0  0  0  0  0  0  0  0  0  0  0  0
    9.9947  -17.9919   19.4848 C   0  0  2  0  0  0  0  0  0  0  0  0
    9.0162  -18.9904   19.7959 N   0  0  0  0  0  0  0  0  0  0  0  0
    9.9270  -16.8902   20.4776 C   0  0  0  0  0  0  0  0  0  0  0  0
   10.7791  -15.9682   20.5297 O   0  0  0  0  0  0  0  0  0  0  0  0
    6.1229  -11.7006   26.7026 O   0  0  0  0  0  0  0  0  0  0  0  0
    6.4035  -12.6999   25.7707 C   0  0  0  0  0  0  0  0  0  0  0  0
    6.2429  -14.0426   26.0758 C   0  0  0  0  0  0  0  0  0  0  0  0
    6.5213  -15.0327   25.1511 C   0  0  0  0  0  0  0  0  0  0  0  0
    6.9717  -14.7262   23.8826 C   0  0  0  0  0  0  0  0  0  0  0  0
    7.2479  -15.8206   22.9430 C   0  0  0  0  0  0  0  0  0  0  0  0
    8.6518  -15.7685   22.3499 C   0  0  2  0  0  0  0  0  0  0  0  0
    8.8593  -16.8514   21.4256 N   0  0  0  0  0  0  0  0  0  0  0  0
    9.7156  -15.8139   23.3758 C   0  0  0  0  0  0  0  0  0  0  0  0
   10.7432  -15.0953   23.2719 O   0  0  0  0  0  0  0  0  0  0  0  0
    7.1333  -13.3968   23.5733 C   0  0  0  0  0  0  0  0  0  0  0  0
    6.8531  -12.3931   24.5048 C   0  0  0  0  0  0  0  0  0  0  0  0
   11.2472  -13.9465   29.5981 C   0  0  0  0  0  0  0  0  0  0  0  0
   10.2578  -13.6287   28.0949 S   0  0  0  0  0  0  0  0  0  0  0  0
    9.9689  -15.2028   27.2611 C   0  0  0  0  0  0  0  0  0  0  0  0
   10.9234  -15.4410   26.1156 C   0  0  0  0  0  0  0  0  0  0  0  0
   10.7380  -16.8130   25.4754 C   0  0  2  0  0  0  0  0  0  0  0  0
    9.6390  -16.6643   24.5322 N   0  0  0  0  0  0  0  0  0  0  0  0
   10.4142  -17.7412   26.5873 C   0  0  0  0  0  0  0  0  0  0  0  0
   11.3979  -18.2046   27.4342 O   0  0  0  0  0  0  0  0  0  0  0  0
    9.2454  -18.1222   26.7789 O   0  0  0  0  0  0  0  0  0  0  0  0
  2  1  1  1
  3  2  1  0
  4  5  1  1
  4  2  1  0
  6  4  1  0
  7  6  2  0
  9 10  2  0
  9  8  1  0
 11 10  1  0
 12 11  2  0
 14 13  1  1
 13 12  1  0
 14 15  1  0
 15  6  1  0
 16 17  2  0
 16 14  1  0
 18 12  1  0
 18 19  2  0
 19  9  1  0
 20 21  1  0
 21 22  1  0
 24 23  1  1
 23 22  1  0
 24 25  1  0
 25 16  1  0
 26 24  1  0
 27 26  1  0
 28 26  2  0
M  END
$$$$
