VYM.pdb
     RDKit          3D

 28 28  0  0  1  0  0  0  0  0999 V2000
    8.3507  -19.0566   27.3683 C   0  0  0  0  0  0  0  0  0  0  0  0
    6.9221  -19.2235   26.9724 C   0  0  2  0  0  0  0  0  0  0  0  0
    6.2224  -20.0825   27.9735 C   0  0  0  0  0  0  0  0  0  0  0  0
    6.7180  -19.6597   25.5502 C   0  0  2  0  0  0  0  0  0  0  0  0
    7.1886  -21.0061   25.4194 N   0  0  0  0  0  0  0  0  0  0  0  0
    7.4063  -18.7851   24.5677 C   0  0  0  0  0  0  0  0  0  0  0  0
    8.5704  -19.0127   24.1529 O   0  0  0  0  0  0  0  0  0  0  0  0
    8.5253  -12.2044   18.6705 O   0  0  0  0  0  0  0  0  0  0  0  0
    7.9871  -13.0985   19.5962 C   0  0  0  0  0  0  0  0  0  0  0  0
    7.6609  -12.7015   20.8837 C   0  0  0  0  0  0  0  0  0  0  0  0
    7.1273  -13.5887   21.8008 C   0  0  0  0  0  0  0  0  0  0  0  0
    6.8962  -14.9097   21.4731 C   0  0  0  0  0  0  0  0  0  0  0  0
    6.3249  -15.8040   22.4883 C   0  0  0  0  0  0  0  0  0  0  0  0
    7.3687  -16.6649   23.1917 C   0  0  2  0  0  0  0  0  0  0  0  0
    6.7412  -17.6297   24.0553 N   0  0  0  0  0  0  0  0  0  0  0  0
    8.3300  -15.8734   23.9890 C   0  0  0  0  0  0  0  0  0  0  0  0
    7.9909  -14.7780   24.5069 O   0  0  0  0  0  0  0  0  0  0  0  0
    7.2173  -15.3101   20.1982 C   0  0  0  0  0  0  0  0  0  0  0  0
    7.7567  -14.4168   19.2684 C   0  0  0  0  0  0  0  0  0  0  0  0
    9.0162  -12.9027   28.3262 C   0  0  0  0  0  0  0  0  0  0  0  0
   10.2169  -14.1862   28.8267 S   0  0  0  0  0  0  0  0  0  0  0  0
   11.0697  -14.7741   27.3490 C   0  0  0  0  0  0  0  0  0  0  0  0
   10.1636  -15.5454   26.4195 C   0  0  0  0  0  0  0  0  0  0  0  0
   10.6437  -15.5103   24.9721 C   0  0  2  0  0  0  0  0  0  0  0  0
    9.6830  -16.3020   24.2172 N   0  0  0  0  0  0  0  0  0  0  0  0
   12.0002  -16.1126   24.9781 C   0  0  0  0  0  0  0  0  0  0  0  0
   12.2332  -17.3424   24.4010 O   0  0  0  0  0  0  0  0  0  0  0  0
   12.9581  -15.5194   25.5058 O   0  0  0  0  0  0  0  0  0  0  0  0
  2  1  1  1
  3  2  1  0
  4  5  1  1
  4  2  1  0
  6  4  1  0
  7  6  2  0
  9 10  2  0
  9  8  1  0
 11 10  1  0
 12 11  2  0
 14 13  1  1
 13 12  1  0
 14 15  1  0
 15  6  1  0
 16 17  2  0
 16 14  1  0
 18 12  1  0
 18 19  2  0
 19  9  1  0
 20 21  1  0
 21 22  1  0
 24 23  1  1
 23 22  1  0
 24 25  1  0
 25 16  1  0
 26 24  1  0
 27 26  1  0
 28 26  2  0
M  END
$$$$
