VYM.pdb
     RDKit          3D

 28 28  0  0  1  0  0  0  0  0999 V2000
    7.1186  -13.4650   21.1048 C   0  0  0  0  0  0  0  0  0  0  0  0
    8.1799  -13.5942   20.0645 C   0  0  2  0  0  0  0  0  0  0  0  0
    7.9004  -12.6476   18.9439 C   0  0  0  0  0  0  0  0  0  0  0  0
    8.4437  -15.0031   19.6173 C   0  0  2  0  0  0  0  0  0  0  0  0
    7.3232  -15.4483   18.8443 N   0  0  0  0  0  0  0  0  0  0  0  0
    8.6837  -15.9377   20.7456 C   0  0  0  0  0  0  0  0  0  0  0  0
    7.7723  -16.6359   21.2561 O   0  0  0  0  0  0  0  0  0  0  0  0
   11.2295  -21.5219   18.0846 O   0  0  0  0  0  0  0  0  0  0  0  0
   11.3090  -20.5849   19.1149 C   0  0  0  0  0  0  0  0  0  0  0  0
   11.9587  -19.3722   18.9444 C   0  0  0  0  0  0  0  0  0  0  0  0
   12.0369  -18.4437   19.9665 C   0  0  0  0  0  0  0  0  0  0  0  0
   11.4707  -18.6849   21.2023 C   0  0  0  0  0  0  0  0  0  0  0  0
   11.5839  -17.6598   22.2478 C   0  0  0  0  0  0  0  0  0  0  0  0
   10.3004  -16.8627   22.4545 C   0  0  2  0  0  0  0  0  0  0  0  0
    9.9961  -16.0690   21.2936 N   0  0  0  0  0  0  0  0  0  0  0  0
   10.3557  -15.9719   23.6333 C   0  0  0  0  0  0  0  0  0  0  0  0
   10.8099  -14.8024   23.5375 O   0  0  0  0  0  0  0  0  0  0  0  0
   10.8250  -19.8853   21.3782 C   0  0  0  0  0  0  0  0  0  0  0  0
   10.7436  -20.8263   20.3480 C   0  0  0  0  0  0  0  0  0  0  0  0
    7.1177  -10.8455   27.3514 C   0  0  0  0  0  0  0  0  0  0  0  0
    7.3105  -12.0821   26.0198 S   0  0  0  0  0  0  0  0  0  0  0  0
    8.3388  -13.4293   26.6397 C   0  0  0  0  0  0  0  0  0  0  0  0
    8.6893  -14.4363   25.5706 C   0  0  0  0  0  0  0  0  0  0  0  0
    9.7301  -15.4483   26.0388 C   0  0  2  0  0  0  0  0  0  0  0  0
    9.9003  -16.3810   24.9339 N   0  0  0  0  0  0  0  0  0  0  0  0
    9.1571  -16.0929   27.2467 C   0  0  0  0  0  0  0  0  0  0  0  0
    8.6813  -17.3857   27.2031 O   0  0  0  0  0  0  0  0  0  0  0  0
    9.0932  -15.4786   28.3267 O   0  0  0  0  0  0  0  0  0  0  0  0
  2  1  1  1
  3  2  1  0
  4  5  1  1
  4  2  1  0
  6  4  1  0
  7  6  2  0
  9 10  2  0
  9  8  1  0
 11 10  1  0
 12 11  2  0
 14 13  1  6
 13 12  1  0
 14 15  1  0
 15  6  1  0
 16 17  2  0
 16 14  1  0
 18 12  1  0
 18 19  2  0
 19  9  1  0
 20 21  1  0
 21 22  1  0
 24 23  1  6
 23 22  1  0
 24 25  1  0
 25 16  1  0
 26 24  1  0
 27 26  1  0
 28 26  2  0
M  END
$$$$
