VYM.pdb
     RDKit          3D

 28 28  0  0  1  0  0  0  0  0999 V2000
    8.1382  -13.5105   18.4146 C   0  0  0  0  0  0  0  0  0  0  0  0
    9.2120  -14.4455   17.9695 C   0  0  2  0  0  0  0  0  0  0  0  0
    8.8883  -14.9682   16.6087 C   0  0  0  0  0  0  0  0  0  0  0  0
    9.5561  -15.5159   18.9648 C   0  0  2  0  0  0  0  0  0  0  0  0
    8.5946  -16.5704   18.8436 N   0  0  0  0  0  0  0  0  0  0  0  0
    9.5913  -15.0212   20.3641 C   0  0  0  0  0  0  0  0  0  0  0  0
   10.4764  -14.2353   20.7857 O   0  0  0  0  0  0  0  0  0  0  0  0
    5.9443  -11.7965   27.6935 O   0  0  0  0  0  0  0  0  0  0  0  0
    6.1771  -12.5365   26.5342 C   0  0  0  0  0  0  0  0  0  0  0  0
    6.6507  -11.9405   25.3756 C   0  0  0  0  0  0  0  0  0  0  0  0
    6.8813  -12.6750   24.2266 C   0  0  0  0  0  0  0  0  0  0  0  0
    6.6496  -14.0354   24.1839 C   0  0  0  0  0  0  0  0  0  0  0  0
    6.9159  -14.7625   22.9360 C   0  0  0  0  0  0  0  0  0  0  0  0
    8.3979  -14.8383   22.5850 C   0  0  2  0  0  0  0  0  0  0  0  0
    8.5893  -15.4398   21.2920 N   0  0  0  0  0  0  0  0  0  0  0  0
    9.1901  -15.5944   23.5785 C   0  0  0  0  0  0  0  0  0  0  0  0
    9.4783  -16.8043   23.3881 O   0  0  0  0  0  0  0  0  0  0  0  0
    6.1800  -14.6327   25.3291 C   0  0  0  0  0  0  0  0  0  0  0  0
    5.9456  -13.8942   26.4923 C   0  0  0  0  0  0  0  0  0  0  0  0
   12.3234  -15.2705   30.8982 C   0  0  0  0  0  0  0  0  0  0  0  0
   11.3816  -14.3942   29.6003 S   0  0  0  0  0  0  0  0  0  0  0  0
   11.2063  -15.4969   28.1826 C   0  0  0  0  0  0  0  0  0  0  0  0
   10.4607  -14.8590   27.0350 C   0  0  0  0  0  0  0  0  0  0  0  0
   10.4089  -15.7544   25.8013 C   0  0  2  0  0  0  0  0  0  0  0  0
    9.6707  -15.0021   24.7969 N   0  0  0  0  0  0  0  0  0  0  0  0
    9.7019  -16.9892   26.2234 C   0  0  0  0  0  0  0  0  0  0  0  0
   10.3940  -18.1570   26.4619 O   0  0  0  0  0  0  0  0  0  0  0  0
    8.4665  -16.9969   26.3707 O   0  0  0  0  0  0  0  0  0  0  0  0
  2  1  1  1
  3  2  1  0
  4  5  1  1
  4  2  1  0
  6  4  1  0
  7  6  2  0
  9 10  2  0
  9  8  1  0
 11 10  1  0
 12 11  2  0
 14 13  1  1
 13 12  1  0
 14 15  1  0
 15  6  1  0
 16 17  2  0
 16 14  1  0
 18 12  1  0
 18 19  2  0
 19  9  1  0
 20 21  1  0
 21 22  1  0
 24 23  1  1
 23 22  1  0
 24 25  1  0
 25 16  1  0
 26 24  1  0
 27 26  1  0
 28 26  2  0
M  END
$$$$
