WTH.pdb
     RDKit          3D

 32 34  0  0  1  0  0  0  0  0999 V2000
   19.2030  -13.6452  -19.6512 N   0  0  0  0  0  0  0  0  0  0  0  0
   19.1836  -13.1555  -18.2947 C   0  0  1  0  0  0  0  0  0  0  0  0
   20.3381  -13.6920  -17.5113 C   0  0  0  0  0  0  0  0  0  0  0  0
   20.2615  -15.1643  -17.3975 C   0  0  0  0  0  0  0  0  0  0  0  0
   19.4106  -15.8682  -16.5612 C   0  0  0  0  0  0  0  0  0  0  0  0
   19.6733  -17.1681  -16.7796 N   0  0  0  0  0  0  0  0  0  0  0  0
   20.6396  -17.3058  -17.7049 C   0  0  0  0  0  0  0  0  0  0  0  0
   21.2745  -18.3928  -18.2865 C   0  0  0  0  0  0  0  0  0  0  0  0
   22.2509  -18.2184  -19.2294 C   0  0  0  0  0  0  0  0  0  0  0  0
   22.6350  -16.9519  -19.6318 C   0  0  0  0  0  0  0  0  0  0  0  0
   22.0194  -15.8571  -19.0690 C   0  0  0  0  0  0  0  0  0  0  0  0
   21.0361  -16.0460  -18.1190 C   0  0  0  0  0  0  0  0  0  0  0  0
   19.2856  -11.6605  -18.3484 C   0  0  0  0  0  0  0  0  0  0  0  0
   20.0357  -11.0666  -19.1637 O   0  0  0  0  0  0  0  0  0  0  0  0
   17.0558   -7.3696  -17.8926 C   0  0  0  0  0  0  0  0  0  0  0  0
   17.1205   -8.8781  -17.8029 C   0  0  1  0  0  0  0  0  0  0  0  0
   16.5790   -9.3348  -19.0153 O   0  0  0  0  0  0  0  0  0  0  0  0
   18.5435   -9.3836  -17.6415 C   0  0  2  0  0  0  0  0  0  0  0  0
   18.5328  -10.8337  -17.4721 N   0  0  0  0  0  0  0  0  0  0  0  0
   19.0549   -8.8320  -16.3612 C   0  0  0  0  0  0  0  0  0  0  0  0
   18.4303   -9.1806  -15.3015 O   0  0  0  0  0  0  0  0  0  0  0  0
   20.1500   -7.9758  -16.2101 N   0  0  0  0  0  0  0  0  0  0  0  0
   20.5631   -7.6304  -14.8377 C   0  0  1  0  0  0  0  0  0  0  0  0
   22.0594   -7.8293  -14.6931 C   0  0  0  0  0  0  0  0  0  0  0  0
   22.3932   -9.2398  -14.8703 C   0  0  0  0  0  0  0  0  0  0  0  0
   21.5029  -10.2662  -15.0702 C   0  0  0  0  0  0  0  0  0  0  0  0
   22.2077  -11.3842  -15.1823 N   0  0  0  0  0  0  0  0  0  0  0  0
   23.5165  -11.1077  -15.0610 C   0  0  0  0  0  0  0  0  0  0  0  0
   23.6092   -9.7731  -14.8681 N   0  0  0  0  0  0  0  0  0  0  0  0
   20.1115   -6.2659  -14.5239 C   0  0  0  0  0  0  0  0  0  0  0  0
   19.6945   -5.5092  -15.4221 O   0  0  0  0  0  0  0  0  0  0  0  0
   20.1483   -5.8151  -13.2217 O   0  0  0  0  0  0  0  0  0  0  0  0
  2  1  1  6
  2 13  1  0
  2  3  1  0
  4  5  2  0
  4  3  1  0
  6  5  1  0
  7 12  2  0
  7  6  1  0
  8  7  1  0
  9 10  1  0
  9  8  2  0
 10 11  2  0
 11 12  1  0
 12  4  1  0
 13 14  2  0
 16 15  1  6
 16 17  1  0
 16 18  1  0
 18 19  1  1
 19 13  1  0
 20 22  1  0
 20 18  1  0
 21 20  2  0
 23 22  1  0
 23 30  1  0
 23 24  1  6
 25 29  1  0
 25 24  1  0
 26 25  2  0
 27 26  1  0
 27 28  1  0
 28 29  2  0
 30 32  1  0
 31 30  2  0
M  END
$$$$
