WTH.pdb
     RDKit          3D

 32 34  0  0  1  0  0  0  0  0999 V2000
   15.8955   -5.5009  -18.1683 N   0  0  0  0  0  0  0  0  0  0  0  0
   16.1742   -5.1054  -16.8095 C   0  0  1  0  0  0  0  0  0  0  0  0
   16.6499   -3.6898  -16.7469 C   0  0  0  0  0  0  0  0  0  0  0  0
   17.7322   -3.4517  -17.7258 C   0  0  0  0  0  0  0  0  0  0  0  0
   18.7554   -4.3340  -18.0316 C   0  0  0  0  0  0  0  0  0  0  0  0
   19.5046   -3.7192  -18.9629 N   0  0  0  0  0  0  0  0  0  0  0  0
   19.0004   -2.5057  -19.2490 C   0  0  0  0  0  0  0  0  0  0  0  0
   19.3688   -1.4834  -20.1107 C   0  0  0  0  0  0  0  0  0  0  0  0
   18.6394   -0.3281  -20.1878 C   0  0  0  0  0  0  0  0  0  0  0  0
   17.5115   -0.1439  -19.4084 C   0  0  0  0  0  0  0  0  0  0  0  0
   17.1256   -1.1443  -18.5454 C   0  0  0  0  0  0  0  0  0  0  0  0
   17.8695   -2.3049  -18.4766 C   0  0  0  0  0  0  0  0  0  0  0  0
   14.8991   -5.2246  -16.0295 C   0  0  0  0  0  0  0  0  0  0  0  0
   13.7979   -4.8126  -16.4742 O   0  0  0  0  0  0  0  0  0  0  0  0
   12.8637   -7.7189  -15.7539 C   0  0  0  0  0  0  0  0  0  0  0  0
   13.1149   -7.4384  -14.2889 C   0  0  1  0  0  0  0  0  0  0  0  0
   14.1054   -8.3591  -13.9106 O   0  0  0  0  0  0  0  0  0  0  0  0
   13.6004   -6.0193  -14.0506 C   0  0  2  0  0  0  0  0  0  0  0  0
   14.8723   -5.8141  -14.7373 N   0  0  0  0  0  0  0  0  0  0  0  0
   13.9016   -5.9040  -12.6012 C   0  0  0  0  0  0  0  0  0  0  0  0
   15.0204   -6.3856  -12.2123 O   0  0  0  0  0  0  0  0  0  0  0  0
   13.0816   -5.3187  -11.6317 N   0  0  0  0  0  0  0  0  0  0  0  0
   13.2620   -5.7496  -10.2333 C   0  0  1  0  0  0  0  0  0  0  0  0
   13.2466   -7.2643  -10.1633 C   0  0  0  0  0  0  0  0  0  0  0  0
   13.4483   -7.7007   -8.7845 C   0  0  0  0  0  0  0  0  0  0  0  0
   13.6058   -6.8867   -7.6897 C   0  0  0  0  0  0  0  0  0  0  0  0
   13.7622   -7.6723   -6.6326 N   0  0  0  0  0  0  0  0  0  0  0  0
   13.7100   -8.9592   -7.0139 C   0  0  0  0  0  0  0  0  0  0  0  0
   13.5150   -8.9542   -8.3514 N   0  0  0  0  0  0  0  0  0  0  0  0
   14.4876   -5.1416   -9.6925 C   0  0  0  0  0  0  0  0  0  0  0  0
   14.4762   -4.5498   -8.5958 O   0  0  0  0  0  0  0  0  0  0  0  0
   15.6651   -5.2256  -10.4044 O   0  0  0  0  0  0  0  0  0  0  0  0
  2  1  1  6
  2 13  1  0
  2  3  1  0
  4  5  2  0
  4  3  1  0
  6  5  1  0
  7 12  2  0
  7  6  1  0
  8  7  1  0
  9 10  1  0
  9  8  2  0
 10 11  2  0
 11 12  1  0
 12  4  1  0
 13 14  2  0
 16 15  1  6
 16 17  1  0
 16 18  1  0
 18 19  1  6
 19 13  1  0
 20 22  1  0
 20 18  1  0
 21 20  2  0
 23 22  1  0
 23 30  1  0
 23 24  1  6
 25 29  1  0
 25 24  1  0
 26 25  2  0
 27 26  1  0
 27 28  1  0
 28 29  2  0
 30 32  1  0
 31 30  2  0
M  END
$$$$
