WTH.pdb
     RDKit          3D

 32 34  0  0  1  0  0  0  0  0999 V2000
   28.7540  -22.1161  -12.0818 N   0  0  0  0  0  0  0  0  0  0  0  0
   27.5431  -21.5666  -11.5231 C   0  0  1  0  0  0  0  0  0  0  0  0
   27.7879  -20.2178  -10.9272 C   0  0  0  0  0  0  0  0  0  0  0  0
   28.6458  -20.3176   -9.7270 C   0  0  0  0  0  0  0  0  0  0  0  0
   30.0080  -20.5694   -9.7246 C   0  0  0  0  0  0  0  0  0  0  0  0
   30.3785  -20.5734   -8.4325 N   0  0  0  0  0  0  0  0  0  0  0  0
   29.3200  -20.3378   -7.6369 C   0  0  0  0  0  0  0  0  0  0  0  0
   29.1442  -20.2368   -6.2651 C   0  0  0  0  0  0  0  0  0  0  0  0
   27.9115  -19.9821   -5.7284 C   0  0  0  0  0  0  0  0  0  0  0  0
   26.8019  -19.8174   -6.5379 C   0  0  0  0  0  0  0  0  0  0  0  0
   26.9510  -19.9131   -7.9028 C   0  0  0  0  0  0  0  0  0  0  0  0
   28.1995  -20.1703   -8.4321 C   0  0  0  0  0  0  0  0  0  0  0  0
   26.5475  -21.4326  -12.6364 C   0  0  0  0  0  0  0  0  0  0  0  0
   26.8524  -20.9505  -13.7566 O   0  0  0  0  0  0  0  0  0  0  0  0
   22.7162  -23.4116  -14.8767 C   0  0  0  0  0  0  0  0  0  0  0  0
   23.7202  -23.3056  -13.7503 C   0  0  1  0  0  0  0  0  0  0  0  0
   24.7252  -24.2309  -14.0752 O   0  0  0  0  0  0  0  0  0  0  0  0
   24.3098  -21.9107  -13.6356 C   0  0  2  0  0  0  0  0  0  0  0  0
   25.1980  -21.8472  -12.4786 N   0  0  0  0  0  0  0  0  0  0  0  0
   23.1849  -20.9905  -13.3312 C   0  0  0  0  0  0  0  0  0  0  0  0
   22.8896  -20.8416  -12.0961 O   0  0  0  0  0  0  0  0  0  0  0  0
   22.4278  -20.2755  -14.2643 N   0  0  0  0  0  0  0  0  0  0  0  0
   21.3682  -19.3891  -13.7493 C   0  0  1  0  0  0  0  0  0  0  0  0
   21.3381  -18.1093  -14.5619 C   0  0  0  0  0  0  0  0  0  0  0  0
   20.1986  -17.2902  -14.1582 C   0  0  0  0  0  0  0  0  0  0  0  0
   19.3010  -17.5826  -13.1608 C   0  0  0  0  0  0  0  0  0  0  0  0
   18.4241  -16.5886  -13.1147 N   0  0  0  0  0  0  0  0  0  0  0  0
   18.7303  -15.6718  -14.0474 C   0  0  0  0  0  0  0  0  0  0  0  0
   19.8333  -16.1264  -14.6828 N   0  0  0  0  0  0  0  0  0  0  0  0
   20.0896  -20.1168  -13.7382 C   0  0  0  0  0  0  0  0  0  0  0  0
   19.7796  -20.8767  -14.6760 O   0  0  0  0  0  0  0  0  0  0  0  0
   19.2212  -19.9588  -12.6793 O   0  0  0  0  0  0  0  0  0  0  0  0
  2  1  1  6
  2 13  1  0
  2  3  1  0
  4  5  2  0
  4  3  1  0
  6  5  1  0
  7 12  2  0
  7  6  1  0
  8  7  1  0
  9 10  1  0
  9  8  2  0
 10 11  2  0
 11 12  1  0
 12  4  1  0
 13 14  2  0
 16 15  1  6
 16 17  1  0
 16 18  1  0
 18 19  1  1
 19 13  1  0
 20 22  1  0
 20 18  1  0
 21 20  2  0
 23 22  1  0
 23 30  1  0
 23 24  1  6
 25 29  1  0
 25 24  1  0
 26 25  2  0
 27 26  1  0
 27 28  1  0
 28 29  2  0
 30 32  1  0
 31 30  2  0
M  END
$$$$
