WTH.pdb
     RDKit          3D

 32 34  0  0  1  0  0  0  0  0999 V2000
   22.0847  -12.8150  -16.4282 N   0  0  0  0  0  0  0  0  0  0  0  0
   20.9389  -11.9451  -16.3247 C   0  0  1  0  0  0  0  0  0  0  0  0
   19.9507  -12.4708  -15.3340 C   0  0  0  0  0  0  0  0  0  0  0  0
   19.3040  -13.7026  -15.8347 C   0  0  0  0  0  0  0  0  0  0  0  0
   18.2458  -13.7558  -16.7271 C   0  0  0  0  0  0  0  0  0  0  0  0
   17.9802  -15.0614  -16.9045 N   0  0  0  0  0  0  0  0  0  0  0  0
   18.8162  -15.8175  -16.1708 C   0  0  0  0  0  0  0  0  0  0  0  0
   18.9763  -17.1825  -15.9863 C   0  0  0  0  0  0  0  0  0  0  0  0
   19.9432  -17.6732  -15.1513 C   0  0  0  0  0  0  0  0  0  0  0  0
   20.7912  -16.8225  -14.4653 C   0  0  0  0  0  0  0  0  0  0  0  0
   20.6520  -15.4634  -14.6320 C   0  0  0  0  0  0  0  0  0  0  0  0
   19.6730  -14.9807  -15.4769 C   0  0  0  0  0  0  0  0  0  0  0  0
   21.4250  -10.6043  -15.8616 C   0  0  0  0  0  0  0  0  0  0  0  0
   22.1262  -10.4636  -14.8278 O   0  0  0  0  0  0  0  0  0  0  0  0
   23.0210   -6.1511  -16.7938 C   0  0  0  0  0  0  0  0  0  0  0  0
   22.5790   -7.5554  -17.1411 C   0  0  1  0  0  0  0  0  0  0  0  0
   23.7636   -8.3087  -17.1720 O   0  0  0  0  0  0  0  0  0  0  0  0
   21.6212   -8.1277  -16.1108 C   0  0  2  0  0  0  0  0  0  0  0  0
   21.1139   -9.4157  -16.5746 N   0  0  0  0  0  0  0  0  0  0  0  0
   20.4444   -7.2232  -16.0664 C   0  0  0  0  0  0  0  0  0  0  0  0
   19.3400   -7.7048  -16.4943 O   0  0  0  0  0  0  0  0  0  0  0  0
   20.4335   -5.9051  -15.6001 N   0  0  0  0  0  0  0  0  0  0  0  0
   19.1607   -5.1647  -15.6737 C   0  0  1  0  0  0  0  0  0  0  0  0
   18.0819   -5.9362  -14.9385 C   0  0  0  0  0  0  0  0  0  0  0  0
   16.8227   -5.1983  -14.9857 C   0  0  0  0  0  0  0  0  0  0  0  0
   16.6051   -4.0033  -15.6266 C   0  0  0  0  0  0  0  0  0  0  0  0
   15.3358   -3.6738  -15.4277 N   0  0  0  0  0  0  0  0  0  0  0  0
   14.7355   -4.6163  -14.6825 C   0  0  0  0  0  0  0  0  0  0  0  0
   15.6749   -5.5518  -14.4194 N   0  0  0  0  0  0  0  0  0  0  0  0
   19.3642   -3.7983  -15.1680 C   0  0  0  0  0  0  0  0  0  0  0  0
   18.4191   -2.9873  -15.1222 O   0  0  0  0  0  0  0  0  0  0  0  0
   20.6142   -3.4064  -14.7385 O   0  0  0  0  0  0  0  0  0  0  0  0
  2  1  1  1
  2 13  1  0
  2  3  1  0
  4  5  2  0
  4  3  1  0
  6  5  1  0
  7 12  2  0
  7  6  1  0
  8  7  1  0
  9 10  1  0
  9  8  2  0
 10 11  2  0
 11 12  1  0
 12  4  1  0
 13 14  2  0
 16 15  1  1
 16 17  1  0
 16 18  1  0
 18 19  1  6
 19 13  1  0
 20 22  1  0
 20 18  1  0
 21 20  2  0
 23 22  1  0
 23 30  1  0
 23 24  1  1
 25 29  1  0
 25 24  1  0
 26 25  2  0
 27 26  1  0
 27 28  1  0
 28 29  2  0
 30 32  1  0
 31 30  2  0
M  END
$$$$
