WTH.pdb
     RDKit          3D

 32 34  0  0  1  0  0  0  0  0999 V2000
   28.3091  -19.9611   -9.1852 N   0  0  0  0  0  0  0  0  0  0  0  0
   27.2420  -20.9118   -9.3802 C   0  0  1  0  0  0  0  0  0  0  0  0
   26.3856  -21.0187   -8.1598 C   0  0  0  0  0  0  0  0  0  0  0  0
   26.9897  -20.2896   -7.0241 C   0  0  0  0  0  0  0  0  0  0  0  0
   26.3930  -19.2610   -6.3135 C   0  0  0  0  0  0  0  0  0  0  0  0
   27.2860  -18.8945   -5.3781 N   0  0  0  0  0  0  0  0  0  0  0  0
   28.4013  -19.6403   -5.4720 C   0  0  0  0  0  0  0  0  0  0  0  0
   29.5996  -19.6808   -4.7752 C   0  0  0  0  0  0  0  0  0  0  0  0
   30.5800  -20.5754   -5.1087 C   0  0  0  0  0  0  0  0  0  0  0  0
   30.4061  -21.4674   -6.1516 C   0  0  0  0  0  0  0  0  0  0  0  0
   29.2252  -21.4466   -6.8582 C   0  0  0  0  0  0  0  0  0  0  0  0
   28.2440  -20.5396   -6.5123 C   0  0  0  0  0  0  0  0  0  0  0  0
   26.4015  -20.4253  -10.5226 C   0  0  0  0  0  0  0  0  0  0  0  0
   26.1686  -19.2049  -10.7141 O   0  0  0  0  0  0  0  0  0  0  0  0
   27.2688  -20.9244  -13.9347 C   0  0  0  0  0  0  0  0  0  0  0  0
   25.8086  -21.3165  -13.8882 C   0  0  1  0  0  0  0  0  0  0  0  0
   25.8115  -22.7204  -13.9167 O   0  0  0  0  0  0  0  0  0  0  0  0
   25.1201  -20.8196  -12.6291 C   0  0  2  0  0  0  0  0  0  0  0  0
   25.8210  -21.3278  -11.4535 N   0  0  0  0  0  0  0  0  0  0  0  0
   23.7740  -21.4456  -12.5977 C   0  0  0  0  0  0  0  0  0  0  0  0
   23.7299  -22.7101  -12.7812 O   0  0  0  0  0  0  0  0  0  0  0  0
   22.5608  -20.7840  -12.3842 N   0  0  0  0  0  0  0  0  0  0  0  0
   21.5961  -20.7493  -13.4986 C   0  0  1  0  0  0  0  0  0  0  0  0
   22.2980  -20.2933  -14.7631 C   0  0  0  0  0  0  0  0  0  0  0  0
   21.6947  -19.0551  -15.2481 C   0  0  0  0  0  0  0  0  0  0  0  0
   20.6398  -18.3872  -14.6763 C   0  0  0  0  0  0  0  0  0  0  0  0
   20.4005  -17.3157  -15.4205 N   0  0  0  0  0  0  0  0  0  0  0  0
   21.2656  -17.2760  -16.4472 C   0  0  0  0  0  0  0  0  0  0  0  0
   22.0586  -18.3633  -16.3215 N   0  0  0  0  0  0  0  0  0  0  0  0
   20.9470  -22.0639  -13.6197 C   0  0  0  0  0  0  0  0  0  0  0  0
   21.4923  -22.9891  -14.2518 O   0  0  0  0  0  0  0  0  0  0  0  0
   19.7205  -22.2789  -13.0280 O   0  0  0  0  0  0  0  0  0  0  0  0
  2  1  1  1
  2 13  1  0
  2  3  1  0
  4  5  2  0
  4  3  1  0
  6  5  1  0
  7 12  2  0
  7  6  1  0
  8  7  1  0
  9 10  1  0
  9  8  2  0
 10 11  2  0
 11 12  1  0
 12  4  1  0
 13 14  2  0
 16 15  1  1
 16 17  1  0
 16 18  1  0
 18 19  1  1
 19 13  1  0
 20 22  1  0
 20 18  1  0
 21 20  2  0
 23 22  1  0
 23 30  1  0
 23 24  1  6
 25 29  1  0
 25 24  1  0
 26 25  2  0
 27 26  1  0
 27 28  1  0
 28 29  2  0
 30 32  1  0
 31 30  2  0
M  END
$$$$
