WTH.pdb
     RDKit          3D

 32 34  0  0  1  0  0  0  0  0999 V2000
   25.4048  -18.2035  -20.7797 N   0  0  0  0  0  0  0  0  0  0  0  0
   24.5610  -17.9944  -19.6287 C   0  0  1  0  0  0  0  0  0  0  0  0
   23.1200  -18.1908  -19.9738 C   0  0  0  0  0  0  0  0  0  0  0  0
   22.5488  -16.9671  -20.5758 C   0  0  0  0  0  0  0  0  0  0  0  0
   22.9382  -16.3986  -21.7776 C   0  0  0  0  0  0  0  0  0  0  0  0
   22.1635  -15.3120  -21.9381 N   0  0  0  0  0  0  0  0  0  0  0  0
   21.3171  -15.1782  -20.9016 C   0  0  0  0  0  0  0  0  0  0  0  0
   20.3312  -14.2611  -20.5697 C   0  0  0  0  0  0  0  0  0  0  0  0
   19.6113  -14.3865  -19.4126 C   0  0  0  0  0  0  0  0  0  0  0  0
   19.8448  -15.4323  -18.5378 C   0  0  0  0  0  0  0  0  0  0  0  0
   20.8182  -16.3555  -18.8453 C   0  0  0  0  0  0  0  0  0  0  0  0
   21.5375  -16.2181  -20.0152 C   0  0  0  0  0  0  0  0  0  0  0  0
   24.9529  -19.0000  -18.5877 C   0  0  0  0  0  0  0  0  0  0  0  0
   25.2107  -20.1969  -18.8725 O   0  0  0  0  0  0  0  0  0  0  0  0
   27.8979  -19.0685  -16.4271 C   0  0  0  0  0  0  0  0  0  0  0  0
   26.7038  -19.1692  -15.5041 C   0  0  1  0  0  0  0  0  0  0  0  0
   26.5144  -17.8661  -15.0165 O   0  0  0  0  0  0  0  0  0  0  0  0
   25.4562  -19.6439  -16.2283 C   0  0  2  0  0  0  0  0  0  0  0  0
   25.0525  -18.6467  -17.2154 N   0  0  0  0  0  0  0  0  0  0  0  0
   24.3629  -19.6828  -15.2243 C   0  0  0  0  0  0  0  0  0  0  0  0
   23.5652  -18.6836  -15.2125 O   0  0  0  0  0  0  0  0  0  0  0  0
   24.1264  -20.7056  -14.3007 N   0  0  0  0  0  0  0  0  0  0  0  0
   23.0686  -20.4887  -13.2969 C   0  0  1  0  0  0  0  0  0  0  0  0
   21.7791  -21.1297  -13.7723 C   0  0  0  0  0  0  0  0  0  0  0  0
   20.7489  -20.9952  -12.7463 C   0  0  0  0  0  0  0  0  0  0  0  0
   20.8370  -20.2433  -11.6004 C   0  0  0  0  0  0  0  0  0  0  0  0
   19.6952  -20.3915  -10.9420 N   0  0  0  0  0  0  0  0  0  0  0  0
   18.8813  -21.2114  -11.6271 C   0  0  0  0  0  0  0  0  0  0  0  0
   19.5539  -21.5742  -12.7419 N   0  0  0  0  0  0  0  0  0  0  0  0
   23.5312  -20.9814  -11.9902 C   0  0  0  0  0  0  0  0  0  0  0  0
   24.5519  -21.6907  -11.9005 O   0  0  0  0  0  0  0  0  0  0  0  0
   22.8297  -20.6568  -10.8487 O   0  0  0  0  0  0  0  0  0  0  0  0
  2  1  1  6
  2 13  1  0
  2  3  1  0
  4  5  2  0
  4  3  1  0
  6  5  1  0
  7 12  2  0
  7  6  1  0
  8  7  1  0
  9 10  1  0
  9  8  2  0
 10 11  2  0
 11 12  1  0
 12  4  1  0
 13 14  2  0
 16 15  1  6
 16 17  1  0
 16 18  1  0
 18 19  1  6
 19 13  1  0
 20 22  1  0
 20 18  1  0
 21 20  2  0
 23 22  1  0
 23 30  1  0
 23 24  1  6
 25 29  1  0
 25 24  1  0
 26 25  2  0
 27 26  1  0
 27 28  1  0
 28 29  2  0
 30 32  1  0
 31 30  2  0
M  END
$$$$
