WTH.pdb
     RDKit          3D

 32 34  0  0  1  0  0  0  0  0999 V2000
   27.7663  -21.5146  -14.8578 N   0  0  0  0  0  0  0  0  0  0  0  0
   26.6388  -21.0603  -14.0814 C   0  0  1  0  0  0  0  0  0  0  0  0
   27.0113  -19.8974  -13.2194 C   0  0  0  0  0  0  0  0  0  0  0  0
   27.8773  -20.3248  -12.0998 C   0  0  0  0  0  0  0  0  0  0  0  0
   29.2625  -20.3090  -12.0964 C   0  0  0  0  0  0  0  0  0  0  0  0
   29.6322  -20.7748  -10.8910 N   0  0  0  0  0  0  0  0  0  0  0  0
   28.5516  -21.0773  -10.1498 C   0  0  0  0  0  0  0  0  0  0  0  0
   28.3654  -21.5789   -8.8704 C   0  0  0  0  0  0  0  0  0  0  0  0
   27.1089  -21.7895   -8.3708 C   0  0  0  0  0  0  0  0  0  0  0  0
   25.9850  -21.5085   -9.1268 C   0  0  0  0  0  0  0  0  0  0  0  0
   26.1441  -21.0096  -10.3996 C   0  0  0  0  0  0  0  0  0  0  0  0
   27.4165  -20.8016  -10.8923 C   0  0  0  0  0  0  0  0  0  0  0  0
   25.5684  -20.6316  -15.0400 C   0  0  0  0  0  0  0  0  0  0  0  0
   25.7835  -19.8046  -15.9619 O   0  0  0  0  0  0  0  0  0  0  0  0
   24.1309  -22.3471  -17.7236 C   0  0  0  0  0  0  0  0  0  0  0  0
   22.9581  -21.9850  -16.8397 C   0  0  1  0  0  0  0  0  0  0  0  0
   22.7390  -23.1235  -16.0475 O   0  0  0  0  0  0  0  0  0  0  0  0
   23.2518  -20.7829  -15.9592 C   0  0  2  0  0  0  0  0  0  0  0  0
   24.2461  -21.1433  -14.9526 N   0  0  0  0  0  0  0  0  0  0  0  0
   22.0068  -20.4843  -15.2072 C   0  0  0  0  0  0  0  0  0  0  0  0
   22.0124  -20.7696  -13.9608 O   0  0  0  0  0  0  0  0  0  0  0  0
   20.8399  -19.9212  -15.7328 N   0  0  0  0  0  0  0  0  0  0  0  0
   19.7664  -19.5659  -14.7868 C   0  0  1  0  0  0  0  0  0  0  0  0
   20.2014  -18.3797  -13.9483 C   0  0  0  0  0  0  0  0  0  0  0  0
   20.3932  -18.7944  -12.5614 C   0  0  0  0  0  0  0  0  0  0  0  0
   20.1720  -20.0501  -12.0512 C   0  0  0  0  0  0  0  0  0  0  0  0
   20.4635  -20.0080  -10.7579 N   0  0  0  0  0  0  0  0  0  0  0  0
   20.8630  -18.7696  -10.4246 C   0  0  0  0  0  0  0  0  0  0  0  0
   20.8119  -18.0335  -11.5570 N   0  0  0  0  0  0  0  0  0  0  0  0
   18.5178  -19.3417  -15.5317 C   0  0  0  0  0  0  0  0  0  0  0  0
   18.5408  -19.0496  -16.7430 O   0  0  0  0  0  0  0  0  0  0  0  0
   17.3053  -19.4553  -14.8855 O   0  0  0  0  0  0  0  0  0  0  0  0
  2  1  1  6
  2 13  1  0
  2  3  1  0
  4  5  2  0
  4  3  1  0
  6  5  1  0
  7 12  2  0
  7  6  1  0
  8  7  1  0
  9 10  1  0
  9  8  2  0
 10 11  2  0
 11 12  1  0
 12  4  1  0
 13 14  2  0
 16 15  1  6
 16 17  1  0
 16 18  1  0
 18 19  1  1
 19 13  1  0
 20 22  1  0
 20 18  1  0
 21 20  2  0
 23 22  1  0
 23 30  1  0
 23 24  1  6
 25 29  1  0
 25 24  1  0
 26 25  2  0
 27 26  1  0
 27 28  1  0
 28 29  2  0
 30 32  1  0
 31 30  2  0
M  END
$$$$
