WTH.pdb
     RDKit          3D

 32 34  0  0  1  0  0  0  0  0999 V2000
   28.6234  -20.1996   -9.9230 N   0  0  0  0  0  0  0  0  0  0  0  0
   27.5008  -21.0089  -10.3295 C   0  0  1  0  0  0  0  0  0  0  0  0
   26.5541  -21.2272   -9.1936 C   0  0  0  0  0  0  0  0  0  0  0  0
   26.8906  -20.3533   -8.0493 C   0  0  0  0  0  0  0  0  0  0  0  0
   26.2950  -19.1373   -7.7570 C   0  0  0  0  0  0  0  0  0  0  0  0
   26.8988  -18.6909   -6.6423 N   0  0  0  0  0  0  0  0  0  0  0  0
   27.8346  -19.5645   -6.2299 C   0  0  0  0  0  0  0  0  0  0  0  0
   28.7254  -19.5985   -5.1676 C   0  0  0  0  0  0  0  0  0  0  0  0
   29.5841  -20.6508   -5.0001 C   0  0  0  0  0  0  0  0  0  0  0  0
   29.5903  -21.7135   -5.8855 C   0  0  0  0  0  0  0  0  0  0  0  0
   28.7153  -21.7027   -6.9479 C   0  0  0  0  0  0  0  0  0  0  0  0
   27.8542  -20.6358   -7.1061 C   0  0  0  0  0  0  0  0  0  0  0  0
   26.7848  -20.2775  -11.4253 C   0  0  0  0  0  0  0  0  0  0  0  0
   26.6429  -19.0285  -11.4190 O   0  0  0  0  0  0  0  0  0  0  0  0
   28.0370  -19.8325  -14.6665 C   0  0  0  0  0  0  0  0  0  0  0  0
   26.6768  -20.4610  -14.8735 C   0  0  1  0  0  0  0  0  0  0  0  0
   26.9326  -21.8343  -15.0169 O   0  0  0  0  0  0  0  0  0  0  0  0
   25.7480  -20.2215  -13.6961 C   0  0  2  0  0  0  0  0  0  0  0  0
   26.2257  -20.9663  -12.5348 N   0  0  0  0  0  0  0  0  0  0  0  0
   24.4379  -20.8239  -14.0504 C   0  0  0  0  0  0  0  0  0  0  0  0
   24.2805  -22.0580  -13.7553 O   0  0  0  0  0  0  0  0  0  0  0  0
   23.3686  -20.1691  -14.6692 N   0  0  0  0  0  0  0  0  0  0  0  0
   22.1348  -20.9426  -14.8996 C   0  0  1  0  0  0  0  0  0  0  0  0
   20.9957  -20.3277  -14.1096 C   0  0  0  0  0  0  0  0  0  0  0  0
   21.1985  -20.5588  -12.6821 C   0  0  0  0  0  0  0  0  0  0  0  0
   21.6849  -19.6512  -11.7735 C   0  0  0  0  0  0  0  0  0  0  0  0
   21.7147  -20.2525  -10.5917 N   0  0  0  0  0  0  0  0  0  0  0  0
   21.2644  -21.5121  -10.7139 C   0  0  0  0  0  0  0  0  0  0  0  0
   20.9501  -21.6812  -12.0175 N   0  0  0  0  0  0  0  0  0  0  0  0
   21.8780  -21.0272  -16.3456 C   0  0  0  0  0  0  0  0  0  0  0  0
   21.7270  -19.9958  -17.0285 O   0  0  0  0  0  0  0  0  0  0  0  0
   21.8027  -22.2608  -16.9565 O   0  0  0  0  0  0  0  0  0  0  0  0
  2  1  1  1
  2 13  1  0
  2  3  1  0
  4  5  2  0
  4  3  1  0
  6  5  1  0
  7 12  2  0
  7  6  1  0
  8  7  1  0
  9 10  1  0
  9  8  2  0
 10 11  2  0
 11 12  1  0
 12  4  1  0
 13 14  2  0
 16 15  1  1
 16 17  1  0
 16 18  1  0
 18 19  1  1
 19 13  1  0
 20 22  1  0
 20 18  1  0
 21 20  2  0
 23 22  1  0
 23 30  1  0
 23 24  1  1
 25 29  1  0
 25 24  1  0
 26 25  2  0
 27 26  1  0
 27 28  1  0
 28 29  2  0
 30 32  1  0
 31 30  2  0
M  END
$$$$
