WTH.pdb
     RDKit          3D

 32 34  0  0  1  0  0  0  0  0999 V2000
   23.7517  -18.7819  -17.4146 N   0  0  0  0  0  0  0  0  0  0  0  0
   24.0331  -18.4349  -16.0432 C   0  0  1  0  0  0  0  0  0  0  0  0
   22.7761  -18.1210  -15.2977 C   0  0  0  0  0  0  0  0  0  0  0  0
   22.1432  -16.8919  -15.8219 C   0  0  0  0  0  0  0  0  0  0  0  0
   20.8559  -16.7955  -16.3245 C   0  0  0  0  0  0  0  0  0  0  0  0
   20.6970  -15.5101  -16.6838 N   0  0  0  0  0  0  0  0  0  0  0  0
   21.8154  -14.8073  -16.4307 C   0  0  0  0  0  0  0  0  0  0  0  0
   22.1848  -13.4817  -16.6024 C   0  0  0  0  0  0  0  0  0  0  0  0
   23.4296  -13.0434  -16.2406 C   0  0  0  0  0  0  0  0  0  0  0  0
   24.3586  -13.9093  -15.6921 C   0  0  0  0  0  0  0  0  0  0  0  0
   24.0154  -15.2299  -15.5117 C   0  0  0  0  0  0  0  0  0  0  0  0
   22.7568  -15.6599  -15.8806 C   0  0  0  0  0  0  0  0  0  0  0  0
   24.6967  -19.6164  -15.4012 C   0  0  0  0  0  0  0  0  0  0  0  0
   24.6324  -20.7722  -15.8914 O   0  0  0  0  0  0  0  0  0  0  0  0
   28.2699  -20.1010  -14.8487 C   0  0  0  0  0  0  0  0  0  0  0  0
   27.6141  -20.3314  -13.5052 C   0  0  1  0  0  0  0  0  0  0  0  0
   27.7978  -19.1290  -12.8037 O   0  0  0  0  0  0  0  0  0  0  0  0
   26.1330  -20.6413  -13.6345 C   0  0  2  0  0  0  0  0  0  0  0  0
   25.4374  -19.4870  -14.1959 N   0  0  0  0  0  0  0  0  0  0  0  0
   25.6034  -20.7999  -12.2564 C   0  0  0  0  0  0  0  0  0  0  0  0
   24.8175  -19.8816  -11.8394 O   0  0  0  0  0  0  0  0  0  0  0  0
   25.8811  -21.8549  -11.3817 N   0  0  0  0  0  0  0  0  0  0  0  0
   26.0534  -21.5314   -9.9537 C   0  0  1  0  0  0  0  0  0  0  0  0
   27.2440  -20.6079   -9.7829 C   0  0  0  0  0  0  0  0  0  0  0  0
   27.4423  -20.3083   -8.3676 C   0  0  0  0  0  0  0  0  0  0  0  0
   26.7758  -20.8847   -7.3143 C   0  0  0  0  0  0  0  0  0  0  0  0
   27.2475  -20.3381   -6.2016 N   0  0  0  0  0  0  0  0  0  0  0  0
   28.1918  -19.4332   -6.5076 C   0  0  0  0  0  0  0  0  0  0  0  0
   28.2966  -19.4304   -7.8551 N   0  0  0  0  0  0  0  0  0  0  0  0
   24.7948  -20.9831   -9.4250 C   0  0  0  0  0  0  0  0  0  0  0  0
   24.2151  -21.5268   -8.4651 O   0  0  0  0  0  0  0  0  0  0  0  0
   24.2467  -19.8542   -9.9957 O   0  0  0  0  0  0  0  0  0  0  0  0
  2  1  1  6
  2 13  1  0
  2  3  1  0
  4  5  2  0
  4  3  1  0
  6  5  1  0
  7 12  2  0
  7  6  1  0
  8  7  1  0
  9 10  1  0
  9  8  2  0
 10 11  2  0
 11 12  1  0
 12  4  1  0
 13 14  2  0
 16 15  1  6
 16 17  1  0
 16 18  1  0
 18 19  1  1
 19 13  1  0
 20 22  1  0
 20 18  1  0
 21 20  2  0
 23 22  1  0
 23 30  1  0
 23 24  1  6
 25 29  1  0
 25 24  1  0
 26 25  2  0
 27 26  1  0
 27 28  1  0
 28 29  2  0
 30 32  1  0
 31 30  2  0
M  END
$$$$
