WTH.pdb
     RDKit          3D

 32 34  0  0  1  0  0  0  0  0999 V2000
   25.6083  -23.5712  -16.6028 N   0  0  0  0  0  0  0  0  0  0  0  0
   25.1261  -23.3418  -15.2629 C   0  0  1  0  0  0  0  0  0  0  0  0
   25.3980  -21.9387  -14.8250 C   0  0  0  0  0  0  0  0  0  0  0  0
   26.7599  -21.5169  -15.2167 C   0  0  0  0  0  0  0  0  0  0  0  0
   27.9247  -22.2324  -14.9924 C   0  0  0  0  0  0  0  0  0  0  0  0
   28.9182  -21.4875  -15.5067 N   0  0  0  0  0  0  0  0  0  0  0  0
   28.4311  -20.3512  -16.0363 C   0  0  0  0  0  0  0  0  0  0  0  0
   28.9999  -19.2605  -16.6765 C   0  0  0  0  0  0  0  0  0  0  0  0
   28.2283  -18.2208  -17.1195 C   0  0  0  0  0  0  0  0  0  0  0  0
   26.8564  -18.2254  -16.9424 C   0  0  0  0  0  0  0  0  0  0  0  0
   26.2684  -19.2971  -16.3097 C   0  0  0  0  0  0  0  0  0  0  0  0
   27.0574  -20.3397  -15.8675 C   0  0  0  0  0  0  0  0  0  0  0  0
   23.6443  -23.5713  -15.2664 C   0  0  0  0  0  0  0  0  0  0  0  0
   22.8851  -23.0496  -16.1217 O   0  0  0  0  0  0  0  0  0  0  0  0
   21.9250  -26.0376  -16.5614 C   0  0  0  0  0  0  0  0  0  0  0  0
   21.4764  -26.0909  -15.1178 C   0  0  1  0  0  0  0  0  0  0  0  0
   22.3239  -27.0323  -14.5117 O   0  0  0  0  0  0  0  0  0  0  0  0
   21.6076  -24.7457  -14.4253 C   0  0  2  0  0  0  0  0  0  0  0  0
   23.0193  -24.3971  -14.2940 N   0  0  0  0  0  0  0  0  0  0  0  0
   21.1056  -24.9231  -13.0392 C   0  0  0  0  0  0  0  0  0  0  0  0
   21.9003  -25.4915  -12.2144 O   0  0  0  0  0  0  0  0  0  0  0  0
   19.8548  -24.5255  -12.5570 N   0  0  0  0  0  0  0  0  0  0  0  0
   19.5422  -24.8168  -11.1460 C   0  0  1  0  0  0  0  0  0  0  0  0
   18.6618  -23.7174  -10.5841 C   0  0  0  0  0  0  0  0  0  0  0  0
   18.2616  -24.0490   -9.2195 C   0  0  0  0  0  0  0  0  0  0  0  0
   19.0941  -24.4516   -8.2041 C   0  0  0  0  0  0  0  0  0  0  0  0
   18.3402  -24.6524   -7.1315 N   0  0  0  0  0  0  0  0  0  0  0  0
   17.0559  -24.3921   -7.4263 C   0  0  0  0  0  0  0  0  0  0  0  0
   17.0295  -24.0199   -8.7254 N   0  0  0  0  0  0  0  0  0  0  0  0
   18.9516  -26.1605  -11.0472 C   0  0  0  0  0  0  0  0  0  0  0  0
   18.2009  -26.5951  -11.9420 O   0  0  0  0  0  0  0  0  0  0  0  0
   19.2296  -26.9517   -9.9530 O   0  0  0  0  0  0  0  0  0  0  0  0
  2  1  1  6
  2 13  1  0
  2  3  1  0
  4  5  2  0
  4  3  1  0
  6  5  1  0
  7 12  2  0
  7  6  1  0
  8  7  1  0
  9 10  1  0
  9  8  2  0
 10 11  2  0
 11 12  1  0
 12  4  1  0
 13 14  2  0
 16 15  1  6
 16 17  1  0
 16 18  1  0
 18 19  1  1
 19 13  1  0
 20 22  1  0
 20 18  1  0
 21 20  2  0
 23 22  1  0
 23 30  1  0
 23 24  1  6
 25 29  1  0
 25 24  1  0
 26 25  2  0
 27 26  1  0
 27 28  1  0
 28 29  2  0
 30 32  1  0
 31 30  2  0
M  END
$$$$
