WTH.pdb
     RDKit          3D

 32 34  0  0  1  0  0  0  0  0999 V2000
   22.4373  -18.7602  -16.0372 N   0  0  0  0  0  0  0  0  0  0  0  0
   21.2832  -18.4053  -15.2482 C   0  0  1  0  0  0  0  0  0  0  0  0
   20.0843  -18.1880  -16.1140 C   0  0  0  0  0  0  0  0  0  0  0  0
   20.2584  -16.9939  -16.9685 C   0  0  0  0  0  0  0  0  0  0  0  0
   20.5009  -17.0031  -18.3323 C   0  0  0  0  0  0  0  0  0  0  0  0
   20.5886  -15.7128  -18.6985 N   0  0  0  0  0  0  0  0  0  0  0  0
   20.4135  -14.9073  -17.6358 C   0  0  0  0  0  0  0  0  0  0  0  0
   20.4053  -13.5325  -17.4547 C   0  0  0  0  0  0  0  0  0  0  0  0
   20.1950  -12.9846  -16.2185 C   0  0  0  0  0  0  0  0  0  0  0  0
   19.9839  -13.7855  -15.1106 C   0  0  0  0  0  0  0  0  0  0  0  0
   19.9873  -15.1532  -15.2649 C   0  0  0  0  0  0  0  0  0  0  0  0
   20.2006  -15.6937  -16.5169 C   0  0  0  0  0  0  0  0  0  0  0  0
   21.0057  -19.5417  -14.3101 C   0  0  0  0  0  0  0  0  0  0  0  0
   21.4942  -20.6876  -14.4788 O   0  0  0  0  0  0  0  0  0  0  0  0
   20.0148  -20.9408   -9.7260 C   0  0  0  0  0  0  0  0  0  0  0  0
   20.2470  -19.8976  -10.7964 C   0  0  1  0  0  0  0  0  0  0  0  0
   21.5818  -19.4968  -10.6254 O   0  0  0  0  0  0  0  0  0  0  0  0
   20.0422  -20.4537  -12.1948 C   0  0  2  0  0  0  0  0  0  0  0  0
   20.1688  -19.3782  -13.1739 N   0  0  0  0  0  0  0  0  0  0  0  0
   18.6312  -20.9088  -12.2759 C   0  0  0  0  0  0  0  0  0  0  0  0
   17.7398  -19.9934  -12.3241 O   0  0  0  0  0  0  0  0  0  0  0  0
   18.1924  -22.2360  -12.3073 N   0  0  0  0  0  0  0  0  0  0  0  0
   16.7376  -22.4744  -12.3304 C   0  0  1  0  0  0  0  0  0  0  0  0
   16.4596  -23.8616  -12.8762 C   0  0  0  0  0  0  0  0  0  0  0  0
   15.0194  -24.0687  -12.9986 C   0  0  0  0  0  0  0  0  0  0  0  0
   14.1566  -23.3353  -13.7756 C   0  0  0  0  0  0  0  0  0  0  0  0
   12.9430  -23.8425  -13.6049 N   0  0  0  0  0  0  0  0  0  0  0  0
   13.0007  -24.8739  -12.7464 C   0  0  0  0  0  0  0  0  0  0  0  0
   14.2966  -24.9969  -12.3828 N   0  0  0  0  0  0  0  0  0  0  0  0
   16.1865  -22.2427  -10.9862 C   0  0  0  0  0  0  0  0  0  0  0  0
   15.1010  -21.6495  -10.8351 O   0  0  0  0  0  0  0  0  0  0  0  0
   16.8761  -22.6858   -9.8778 O   0  0  0  0  0  0  0  0  0  0  0  0
  2  1  1  6
  2 13  1  0
  2  3  1  0
  4  5  2  0
  4  3  1  0
  6  5  1  0
  7 12  2  0
  7  6  1  0
  8  7  1  0
  9 10  1  0
  9  8  2  0
 10 11  2  0
 11 12  1  0
 12  4  1  0
 13 14  2  0
 16 15  1  1
 16 17  1  0
 16 18  1  0
 18 19  1  6
 19 13  1  0
 20 22  1  0
 20 18  1  0
 21 20  2  0
 23 22  1  0
 23 30  1  0
 23 24  1  1
 25 29  1  0
 25 24  1  0
 26 25  2  0
 27 26  1  0
 27 28  1  0
 28 29  2  0
 30 32  1  0
 31 30  2  0
M  END
$$$$
