WTH.pdb
     RDKit          3D

 32 34  0  0  1  0  0  0  0  0999 V2000
   36.7086  -31.9440  -21.9683 N   0  0  0  0  0  0  0  0  0  0  0  0
   35.9381  -31.6649  -20.7814 C   0  0  1  0  0  0  0  0  0  0  0  0
   34.5317  -31.2944  -21.1263 C   0  0  0  0  0  0  0  0  0  0  0  0
   34.4547  -29.8972  -21.6038 C   0  0  0  0  0  0  0  0  0  0  0  0
   35.2000  -29.3527  -22.6368 C   0  0  0  0  0  0  0  0  0  0  0  0
   34.8131  -28.0691  -22.7320 N   0  0  0  0  0  0  0  0  0  0  0  0
   33.8698  -27.7908  -21.8147 C   0  0  0  0  0  0  0  0  0  0  0  0
   33.1471  -26.6544  -21.4839 C   0  0  0  0  0  0  0  0  0  0  0  0
   32.2267  -26.6731  -20.4714 C   0  0  0  0  0  0  0  0  0  0  0  0
   31.9884  -27.8267  -19.7462 C   0  0  0  0  0  0  0  0  0  0  0  0
   32.6932  -28.9677  -20.0557 C   0  0  0  0  0  0  0  0  0  0  0  0
   33.6189  -28.9361  -21.0790 C   0  0  0  0  0  0  0  0  0  0  0  0
   35.9217  -32.9097  -19.9456 C   0  0  0  0  0  0  0  0  0  0  0  0
   35.7399  -34.0503  -20.4416 O   0  0  0  0  0  0  0  0  0  0  0  0
   37.3909  -35.5185  -16.1713 C   0  0  0  0  0  0  0  0  0  0  0  0
   37.4297  -34.4133  -17.2033 C   0  0  1  0  0  0  0  0  0  0  0  0
   38.2500  -34.9078  -18.2301 O   0  0  0  0  0  0  0  0  0  0  0  0
   36.0499  -34.0862  -17.7469 C   0  0  2  0  0  0  0  0  0  0  0  0
   36.1123  -32.8611  -18.5387 N   0  0  0  0  0  0  0  0  0  0  0  0
   35.1901  -33.7679  -16.5789 C   0  0  0  0  0  0  0  0  0  0  0  0
   35.1264  -32.5374  -16.2376 O   0  0  0  0  0  0  0  0  0  0  0  0
   34.4476  -34.6833  -15.8266 N   0  0  0  0  0  0  0  0  0  0  0  0
   33.6985  -34.1663  -14.6668 C   0  0  1  0  0  0  0  0  0  0  0  0
   32.6526  -33.1752  -15.1394 C   0  0  0  0  0  0  0  0  0  0  0  0
   31.6273  -33.8663  -15.9162 C   0  0  0  0  0  0  0  0  0  0  0  0
   31.6414  -35.1893  -16.2846 C   0  0  0  0  0  0  0  0  0  0  0  0
   30.5338  -35.4183  -16.9774 N   0  0  0  0  0  0  0  0  0  0  0  0
   29.8131  -34.2881  -17.0642 C   0  0  0  0  0  0  0  0  0  0  0  0
   30.5089  -33.3387  -16.3999 N   0  0  0  0  0  0  0  0  0  0  0  0
   33.1455  -35.2959  -13.9036 C   0  0  0  0  0  0  0  0  0  0  0  0
   32.4668  -35.1011  -12.8767 O   0  0  0  0  0  0  0  0  0  0  0  0
   33.3786  -36.5872  -14.3264 O   0  0  0  0  0  0  0  0  0  0  0  0
  2  1  1  6
  2 13  1  0
  2  3  1  0
  4  5  2  0
  4  3  1  0
  6  5  1  0
  7 12  2  0
  7  6  1  0
  8  7  1  0
  9 10  1  0
  9  8  2  0
 10 11  2  0
 11 12  1  0
 12  4  1  0
 13 14  2  0
 16 15  1  1
 16 17  1  0
 16 18  1  0
 18 19  1  6
 19 13  1  0
 20 22  1  0
 20 18  1  0
 21 20  2  0
 23 22  1  0
 23 30  1  0
 23 24  1  6
 25 29  1  0
 25 24  1  0
 26 25  2  0
 27 26  1  0
 27 28  1  0
 28 29  2  0
 30 32  1  0
 31 30  2  0
M  END
$$$$
