WTH.pdb
     RDKit          3D

 32 34  0  0  1  0  0  0  0  0999 V2000
   26.2178  -19.8452  -19.2798 N   0  0  0  0  0  0  0  0  0  0  0  0
   25.4880  -19.4485  -18.1006 C   0  0  1  0  0  0  0  0  0  0  0  0
   24.0613  -19.8879  -18.1763 C   0  0  0  0  0  0  0  0  0  0  0  0
   23.3104  -19.0796  -19.1607 C   0  0  0  0  0  0  0  0  0  0  0  0
   23.2302  -19.3300  -20.5207 C   0  0  0  0  0  0  0  0  0  0  0  0
   22.4528  -18.3580  -21.0280 N   0  0  0  0  0  0  0  0  0  0  0  0
   22.0484  -17.5210  -20.0560 C   0  0  0  0  0  0  0  0  0  0  0  0
   21.2559  -16.3834  -20.0265 C   0  0  0  0  0  0  0  0  0  0  0  0
   21.0133  -15.7226  -18.8530 C   0  0  0  0  0  0  0  0  0  0  0  0
   21.5512  -16.1690  -17.6593 C   0  0  0  0  0  0  0  0  0  0  0  0
   22.3411  -17.2961  -17.6629 C   0  0  0  0  0  0  0  0  0  0  0  0
   22.5785  -17.9538  -18.8529 C   0  0  0  0  0  0  0  0  0  0  0  0
   26.1373  -20.1066  -16.9200 C   0  0  0  0  0  0  0  0  0  0  0  0
   27.0754  -20.9342  -17.0433 O   0  0  0  0  0  0  0  0  0  0  0  0
   28.6856  -20.0307  -13.2412 C   0  0  0  0  0  0  0  0  0  0  0  0
   27.8563  -19.6270  -14.4400 C   0  0  1  0  0  0  0  0  0  0  0  0
   28.6149  -20.0238  -15.5530 O   0  0  0  0  0  0  0  0  0  0  0  0
   26.5012  -20.3125  -14.4584 C   0  0  2  0  0  0  0  0  0  0  0  0
   25.7202  -19.8251  -15.5916 N   0  0  0  0  0  0  0  0  0  0  0  0
   25.7738  -19.8632  -13.2444 C   0  0  0  0  0  0  0  0  0  0  0  0
   24.6900  -19.2132  -13.4383 O   0  0  0  0  0  0  0  0  0  0  0  0
   26.1612  -20.0872  -11.9197 N   0  0  0  0  0  0  0  0  0  0  0  0
   25.1081  -20.4400  -10.9501 C   0  0  1  0  0  0  0  0  0  0  0  0
   24.4077  -21.7072  -11.4007 C   0  0  0  0  0  0  0  0  0  0  0  0
   22.9823  -21.4492  -11.5850 C   0  0  0  0  0  0  0  0  0  0  0  0
   22.3436  -20.2478  -11.3982 C   0  0  0  0  0  0  0  0  0  0  0  0
   21.0589  -20.4373  -11.6683 N   0  0  0  0  0  0  0  0  0  0  0  0
   20.8550  -21.7173  -12.0208 C   0  0  0  0  0  0  0  0  0  0  0  0
   22.0600  -22.3267  -11.9624 N   0  0  0  0  0  0  0  0  0  0  0  0
   25.6978  -20.5323   -9.6055 C   0  0  0  0  0  0  0  0  0  0  0  0
   26.7612  -21.1538   -9.4162 O   0  0  0  0  0  0  0  0  0  0  0  0
   25.0692  -19.9252   -8.5392 O   0  0  0  0  0  0  0  0  0  0  0  0
  2  1  1  6
  2 13  1  0
  2  3  1  0
  4  5  2  0
  4  3  1  0
  6  5  1  0
  7 12  2  0
  7  6  1  0
  8  7  1  0
  9 10  1  0
  9  8  2  0
 10 11  2  0
 11 12  1  0
 12  4  1  0
 13 14  2  0
 16 15  1  1
 16 17  1  0
 16 18  1  0
 18 19  1  6
 19 13  1  0
 20 22  1  0
 20 18  1  0
 21 20  2  0
 23 22  1  0
 23 30  1  0
 23 24  1  6
 25 29  1  0
 25 24  1  0
 26 25  2  0
 27 26  1  0
 27 28  1  0
 28 29  2  0
 30 32  1  0
 31 30  2  0
M  END
$$$$
