WTH.pdb
     RDKit          3D

 32 34  0  0  1  0  0  0  0  0999 V2000
   20.8882  -13.2094  -18.2143 N   0  0  0  0  0  0  0  0  0  0  0  0
   20.1592  -11.9671  -18.1374 C   0  0  1  0  0  0  0  0  0  0  0  0
   19.1474  -12.0031  -17.0378 C   0  0  0  0  0  0  0  0  0  0  0  0
   18.0755  -12.9767  -17.3368 C   0  0  0  0  0  0  0  0  0  0  0  0
   18.0790  -14.3170  -16.9870 C   0  0  0  0  0  0  0  0  0  0  0  0
   16.9222  -14.8206  -17.4504 N   0  0  0  0  0  0  0  0  0  0  0  0
   16.2045  -13.8650  -18.0672 C   0  0  0  0  0  0  0  0  0  0  0  0
   14.9738  -13.8397  -18.7059 C   0  0  0  0  0  0  0  0  0  0  0  0
   14.4876  -12.6848  -19.2558 C   0  0  0  0  0  0  0  0  0  0  0  0
   15.2087  -11.5061  -19.1915 C   0  0  0  0  0  0  0  0  0  0  0  0
   16.4330  -11.5058  -18.5625 C   0  0  0  0  0  0  0  0  0  0  0  0
   16.9127  -12.6770  -18.0119 C   0  0  0  0  0  0  0  0  0  0  0  0
   21.1474  -10.8757  -17.8532 C   0  0  0  0  0  0  0  0  0  0  0  0
   22.2223  -11.0858  -17.2362 O   0  0  0  0  0  0  0  0  0  0  0  0
   22.8811   -8.5891  -20.3745 C   0  0  0  0  0  0  0  0  0  0  0  0
   22.1763   -7.7470  -19.3342 C   0  0  1  0  0  0  0  0  0  0  0  0
   20.9541   -7.3907  -19.9268 O   0  0  0  0  0  0  0  0  0  0  0  0
   21.9301   -8.5125  -18.0458 C   0  0  2  0  0  0  0  0  0  0  0  0
   20.9153   -9.5378  -18.2706 N   0  0  0  0  0  0  0  0  0  0  0  0
   21.3294   -7.5550  -17.0830 C   0  0  0  0  0  0  0  0  0  0  0  0
   20.0576   -7.4301  -17.1230 O   0  0  0  0  0  0  0  0  0  0  0  0
   22.0219   -6.7865  -16.1423 N   0  0  0  0  0  0  0  0  0  0  0  0
   21.2463   -5.8157  -15.3487 C   0  0  1  0  0  0  0  0  0  0  0  0
   21.4226   -6.1117  -13.8720 C   0  0  0  0  0  0  0  0  0  0  0  0
   20.5696   -7.2315  -13.4836 C   0  0  0  0  0  0  0  0  0  0  0  0
   19.7378   -7.9442  -14.3120 C   0  0  0  0  0  0  0  0  0  0  0  0
   19.1433   -8.8709  -13.5724 N   0  0  0  0  0  0  0  0  0  0  0  0
   19.5662   -8.7749  -12.3012 C   0  0  0  0  0  0  0  0  0  0  0  0
   20.4496   -7.7524  -12.2682 N   0  0  0  0  0  0  0  0  0  0  0  0
   21.6391   -4.4510  -15.7328 C   0  0  0  0  0  0  0  0  0  0  0  0
   21.0927   -3.4593  -15.2123 O   0  0  0  0  0  0  0  0  0  0  0  0
   22.6233   -4.2628  -16.6796 O   0  0  0  0  0  0  0  0  0  0  0  0
  2  1  1  1
  2 13  1  0
  2  3  1  0
  4  5  2  0
  4  3  1  0
  6  5  1  0
  7 12  2  0
  7  6  1  0
  8  7  1  0
  9 10  1  0
  9  8  2  0
 10 11  2  0
 11 12  1  0
 12  4  1  0
 13 14  2  0
 16 15  1  6
 16 17  1  0
 16 18  1  0
 18 19  1  6
 19 13  1  0
 20 22  1  0
 20 18  1  0
 21 20  2  0
 23 22  1  0
 23 30  1  0
 23 24  1  1
 25 29  1  0
 25 24  1  0
 26 25  2  0
 27 26  1  0
 27 28  1  0
 28 29  2  0
 30 32  1  0
 31 30  2  0
M  END
$$$$
