NWA.pdb
     RDKit          3D

 28 29  0  0  1  0  0  0  0  0999 V2000
    6.0835  -14.8157   19.8687 N   0  0  0  0  0  0  0  0  0  0  0  0
    7.4834  -15.0166   20.0463 C   0  0  0  0  0  0  0  0  0  0  0  0
    8.1576  -15.4751   19.0945 O   0  0  0  0  0  0  0  0  0  0  0  0
    8.1313  -14.6944   21.3283 C   0  0  0  0  0  0  0  0  0  0  0  0
    8.9770  -15.9065   21.7033 C   0  0  2  0  0  0  0  0  0  0  0  0
    8.0962  -17.0313   21.7218 N   0  0  0  0  0  0  0  0  0  0  0  0
    9.6185  -15.6910   23.0571 C   0  0  0  0  0  0  0  0  0  0  0  0
   10.3881  -14.7395   23.1980 O   0  0  0  0  0  0  0  0  0  0  0  0
    9.3190  -16.5823   24.1081 N   0  0  0  0  0  0  0  0  0  0  0  0
    9.9688  -16.6631   25.3814 C   0  0  1  0  0  0  0  0  0  0  0  0
    9.0369  -16.3445   26.5136 C   0  0  0  0  0  0  0  0  0  0  0  0
    7.8952  -15.5112   26.2038 C   0  0  0  0  0  0  0  0  0  0  0  0
    6.6772  -16.0100   25.7720 C   0  0  0  0  0  0  0  0  0  0  0  0
    5.8529  -14.9701   25.6214 N   0  0  0  0  0  0  0  0  0  0  0  0
    6.4520  -13.8040   25.9267 C   0  0  0  0  0  0  0  0  0  0  0  0
    6.0280  -12.4829   25.9229 C   0  0  0  0  0  0  0  0  0  0  0  0
    6.8715  -11.4632   26.2820 C   0  0  0  0  0  0  0  0  0  0  0  0
    8.1527  -11.7886   26.6485 C   0  0  0  0  0  0  0  0  0  0  0  0
    8.5647  -13.0978   26.6505 C   0  0  0  0  0  0  0  0  0  0  0  0
    7.7502  -14.1578   26.2958 C   0  0  0  0  0  0  0  0  0  0  0  0
   10.9615  -17.6940   25.5917 C   0  0  0  0  0  0  0  0  0  0  0  0
   11.5201  -17.8882   26.6845 O   0  0  0  0  0  0  0  0  0  0  0  0
   12.4321  -20.5925   23.6504 C   0  0  0  0  0  0  0  0  0  0  0  0
   12.2822  -19.6949   24.8549 C   0  0  2  0  0  0  0  0  0  0  0  0
   11.3714  -18.5790   24.5391 N   0  0  0  0  0  0  0  0  0  0  0  0
   13.5782  -19.0750   25.2357 C   0  0  0  0  0  0  0  0  0  0  0  0
   14.0685  -17.9185   24.6604 O   0  0  0  0  0  0  0  0  0  0  0  0
   14.2820  -19.6254   26.1347 O   0  0  0  0  0  0  0  0  0  0  0  0
  2  1  1  0
  2  3  2  0
  4  5  1  0
  4  2  1  0
  5  7  1  0
  5  6  1  1
  7  8  2  0
  9 10  1  0
  9  7  1  0
 10 11  1  1
 11 12  1  0
 12 20  1  0
 13 12  2  0
 13 14  1  0
 14 15  1  0
 15 16  1  0
 16 17  2  0
 18 17  1  0
 19 18  2  0
 20 15  2  0
 20 19  1  0
 21 22  2  0
 21 10  1  0
 24 23  1  6
 24 25  1  0
 24 26  1  0
 25 21  1  0
 26 27  1  0
 28 26  2  0
M  END
$$$$
