NWA.pdb
     RDKit          3D

 28 29  0  0  1  0  0  0  0  0999 V2000
    8.1108  -12.7076   18.7381 N   0  0  0  0  0  0  0  0  0  0  0  0
    7.5825  -13.8172   19.4600 C   0  0  0  0  0  0  0  0  0  0  0  0
    6.9473  -14.7007   18.8382 O   0  0  0  0  0  0  0  0  0  0  0  0
    7.7751  -13.9263   20.9154 C   0  0  0  0  0  0  0  0  0  0  0  0
    8.6262  -15.1699   21.1481 C   0  0  2  0  0  0  0  0  0  0  0  0
    7.7324  -16.2845   21.1478 N   0  0  0  0  0  0  0  0  0  0  0  0
    9.3591  -15.0559   22.4674 C   0  0  0  0  0  0  0  0  0  0  0  0
   10.2106  -14.1745   22.5925 O   0  0  0  0  0  0  0  0  0  0  0  0
    9.0481  -15.9585   23.5053 N   0  0  0  0  0  0  0  0  0  0  0  0
    9.7852  -16.1685   24.7147 C   0  0  1  0  0  0  0  0  0  0  0  0
    8.8988  -16.1649   25.9257 C   0  0  0  0  0  0  0  0  0  0  0  0
    7.7325  -15.3097   25.8776 C   0  0  0  0  0  0  0  0  0  0  0  0
    6.4620  -15.7637   25.5638 C   0  0  0  0  0  0  0  0  0  0  0  0
    5.6340  -14.7196   25.6525 N   0  0  0  0  0  0  0  0  0  0  0  0
    6.2799  -13.5928   26.0061 C   0  0  0  0  0  0  0  0  0  0  0  0
    5.8713  -12.2837   26.2164 C   0  0  0  0  0  0  0  0  0  0  0  0
    6.7655  -11.3068   26.5719 C   0  0  0  0  0  0  0  0  0  0  0  0
    8.0822  -11.6633   26.7159 C   0  0  0  0  0  0  0  0  0  0  0  0
    8.4789  -12.9605   26.5069 C   0  0  0  0  0  0  0  0  0  0  0  0
    7.6138  -13.9776   26.1470 C   0  0  0  0  0  0  0  0  0  0  0  0
   10.9034  -17.0859   24.6975 C   0  0  0  0  0  0  0  0  0  0  0  0
   11.5438  -17.3977   25.7157 O   0  0  0  0  0  0  0  0  0  0  0  0
   12.4494  -19.5249   22.2706 C   0  0  0  0  0  0  0  0  0  0  0  0
   12.4049  -18.7426   23.5611 C   0  0  2  0  0  0  0  0  0  0  0  0
   11.3533  -17.7115   23.4870 N   0  0  0  0  0  0  0  0  0  0  0  0
   13.6792  -18.0164   23.8009 C   0  0  0  0  0  0  0  0  0  0  0  0
   13.8278  -16.6555   23.6149 O   0  0  0  0  0  0  0  0  0  0  0  0
   14.6921  -18.6671   24.1973 O   0  0  0  0  0  0  0  0  0  0  0  0
  2  1  1  0
  2  3  2  0
  4  5  1  0
  4  2  1  0
  5  7  1  0
  5  6  1  1
  7  8  2  0
  9 10  1  0
  9  7  1  0
 10 11  1  1
 11 12  1  0
 12 20  1  0
 13 12  2  0
 13 14  1  0
 14 15  1  0
 15 16  1  0
 16 17  2  0
 18 17  1  0
 19 18  2  0
 20 15  2  0
 20 19  1  0
 21 22  2  0
 21 10  1  0
 24 23  1  6
 24 25  1  0
 24 26  1  0
 25 21  1  0
 26 27  1  0
 28 26  2  0
M  END
$$$$
