NWA.pdb
     RDKit          3D

 28 29  0  0  1  0  0  0  0  0999 V2000
   10.8551  -15.9698   18.0396 N   0  0  0  0  0  0  0  0  0  0  0  0
   11.5571  -16.1799   19.2621 C   0  0  0  0  0  0  0  0  0  0  0  0
   12.6053  -16.8668   19.2514 O   0  0  0  0  0  0  0  0  0  0  0  0
   11.0599  -15.6029   20.5219 C   0  0  0  0  0  0  0  0  0  0  0  0
   11.0638  -16.7317   21.5471 C   0  0  2  0  0  0  0  0  0  0  0  0
   10.0141  -17.6268   21.1755 N   0  0  0  0  0  0  0  0  0  0  0  0
   10.8398  -16.1710   22.9349 C   0  0  0  0  0  0  0  0  0  0  0  0
   11.5279  -15.2173   23.3017 O   0  0  0  0  0  0  0  0  0  0  0  0
    9.8579  -16.7558   23.7610 N   0  0  0  0  0  0  0  0  0  0  0  0
    9.4428  -16.3081   25.0561 C   0  0  1  0  0  0  0  0  0  0  0  0
    8.0254  -16.6952   25.3614 C   0  0  0  0  0  0  0  0  0  0  0  0
    7.0355  -15.6412   25.3072 C   0  0  0  0  0  0  0  0  0  0  0  0
    5.7218  -15.8432   24.9173 C   0  0  0  0  0  0  0  0  0  0  0  0
    5.0911  -14.6708   25.0235 N   0  0  0  0  0  0  0  0  0  0  0  0
    5.9099  -13.6960   25.4607 C   0  0  0  0  0  0  0  0  0  0  0  0
    5.7326  -12.3444   25.7194 C   0  0  0  0  0  0  0  0  0  0  0  0
    6.7684  -11.5620   26.1614 C   0  0  0  0  0  0  0  0  0  0  0  0
    7.9907  -12.1575   26.3429 C   0  0  0  0  0  0  0  0  0  0  0  0
    8.1583  -13.4951   26.0856 C   0  0  0  0  0  0  0  0  0  0  0  0
    7.1441  -14.3222   25.6384 C   0  0  0  0  0  0  0  0  0  0  0  0
   10.3997  -16.3334   26.1406 C   0  0  0  0  0  0  0  0  0  0  0  0
   11.3741  -17.1038   26.1708 O   0  0  0  0  0  0  0  0  0  0  0  0
   11.1448  -14.3682   29.2845 C   0  0  0  0  0  0  0  0  0  0  0  0
   11.2975  -15.5390   28.3437 C   0  0  2  0  0  0  0  0  0  0  0  0
   10.2905  -15.4546   27.2698 N   0  0  0  0  0  0  0  0  0  0  0  0
   11.0535  -16.8301   29.0381 C   0  0  0  0  0  0  0  0  0  0  0  0
    9.9719  -17.6470   28.7709 O   0  0  0  0  0  0  0  0  0  0  0  0
   11.8729  -17.2152   29.9251 O   0  0  0  0  0  0  0  0  0  0  0  0
  2  1  1  0
  2  3  2  0
  4  5  1  0
  4  2  1  0
  5  7  1  0
  5  6  1  6
  7  8  2  0
  9 10  1  0
  9  7  1  0
 10 11  1  1
 11 12  1  0
 12 20  1  0
 13 12  2  0
 13 14  1  0
 14 15  1  0
 15 16  1  0
 16 17  2  0
 18 17  1  0
 19 18  2  0
 20 15  2  0
 20 19  1  0
 21 22  2  0
 21 10  1  0
 24 23  1  1
 24 25  1  0
 24 26  1  0
 25 21  1  0
 26 27  1  0
 28 26  2  0
M  END
$$$$
