NWA.pdb
     RDKit          3D

 28 29  0  0  1  0  0  0  0  0999 V2000
   14.2662  -17.5171   19.3393 N   0  0  0  0  0  0  0  0  0  0  0  0
   13.0740  -17.6699   20.1052 C   0  0  0  0  0  0  0  0  0  0  0  0
   12.2325  -18.5304   19.7556 O   0  0  0  0  0  0  0  0  0  0  0  0
   12.8290  -16.8290   21.2885 C   0  0  0  0  0  0  0  0  0  0  0  0
   11.3161  -16.7628   21.4676 C   0  0  2  0  0  0  0  0  0  0  0  0
   10.8017  -16.0412   20.3469 N   0  0  0  0  0  0  0  0  0  0  0  0
   10.9791  -16.0669   22.7686 C   0  0  0  0  0  0  0  0  0  0  0  0
   11.4276  -14.9362   22.9637 O   0  0  0  0  0  0  0  0  0  0  0  0
   10.1692  -16.7315   23.7126 N   0  0  0  0  0  0  0  0  0  0  0  0
    9.6707  -16.2016   24.9457 C   0  0  1  0  0  0  0  0  0  0  0  0
    8.1731  -16.2592   25.0222 C   0  0  0  0  0  0  0  0  0  0  0  0
    7.4548  -15.0568   24.6588 C   0  0  0  0  0  0  0  0  0  0  0  0
    6.8415  -14.8723   23.4306 C   0  0  0  0  0  0  0  0  0  0  0  0
    6.2479  -13.6763   23.4586 N   0  0  0  0  0  0  0  0  0  0  0  0
    6.4315  -13.0501   24.6359 C   0  0  0  0  0  0  0  0  0  0  0  0
    6.0290  -11.8203   25.1364 C   0  0  0  0  0  0  0  0  0  0  0  0
    6.3725  -11.4194   26.4020 C   0  0  0  0  0  0  0  0  0  0  0  0
    7.1279  -12.2745   27.1635 C   0  0  0  0  0  0  0  0  0  0  0  0
    7.5217  -13.4898   26.6618 C   0  0  0  0  0  0  0  0  0  0  0  0
    7.2000  -13.9353   25.3928 C   0  0  0  0  0  0  0  0  0  0  0  0
   10.4199  -16.4417   26.1595 C   0  0  0  0  0  0  0  0  0  0  0  0
   11.0545  -17.4887   26.3719 O   0  0  0  0  0  0  0  0  0  0  0  0
   11.2955  -14.5835   29.3423 C   0  0  0  0  0  0  0  0  0  0  0  0
   11.2646  -15.7843   28.4278 C   0  0  2  0  0  0  0  0  0  0  0  0
   10.4867  -15.4715   27.2147 N   0  0  0  0  0  0  0  0  0  0  0  0
   10.5829  -16.9388   29.0691 C   0  0  0  0  0  0  0  0  0  0  0  0
   11.1598  -17.7113   30.0585 O   0  0  0  0  0  0  0  0  0  0  0  0
    9.4094  -17.2426   28.6988 O   0  0  0  0  0  0  0  0  0  0  0  0
  2  1  1  0
  2  3  2  0
  4  5  1  0
  4  2  1  0
  5  7  1  0
  5  6  1  6
  7  8  2  0
  9 10  1  0
  9  7  1  0
 10 11  1  1
 11 12  1  0
 12 20  1  0
 13 12  2  0
 13 14  1  0
 14 15  1  0
 15 16  1  0
 16 17  2  0
 18 17  1  0
 19 18  2  0
 20 15  2  0
 20 19  1  0
 21 22  2  0
 21 10  1  0
 24 23  1  1
 24 25  1  0
 24 26  1  0
 25 21  1  0
 26 27  1  0
 28 26  2  0
M  END
$$$$
