NWA.pdb
     RDKit          3D

 28 29  0  0  1  0  0  0  0  0999 V2000
    7.7537  -14.4237   16.9939 N   0  0  0  0  0  0  0  0  0  0  0  0
    8.1214  -15.3513   18.0117 C   0  0  0  0  0  0  0  0  0  0  0  0
    7.9612  -16.5769   17.8045 O   0  0  0  0  0  0  0  0  0  0  0  0
    8.6788  -14.8806   19.2904 C   0  0  0  0  0  0  0  0  0  0  0  0
    7.9036  -15.5969   20.3910 C   0  0  2  0  0  0  0  0  0  0  0  0
    6.5781  -15.0644   20.3722 N   0  0  0  0  0  0  0  0  0  0  0  0
    8.5694  -15.3619   21.7297 C   0  0  0  0  0  0  0  0  0  0  0  0
    9.0083  -14.2381   21.9786 O   0  0  0  0  0  0  0  0  0  0  0  0
    8.6683  -16.4309   22.6440 N   0  0  0  0  0  0  0  0  0  0  0  0
    9.4497  -16.4702   23.8431 C   0  0  1  0  0  0  0  0  0  0  0  0
    8.5959  -16.5903   25.0714 C   0  0  0  0  0  0  0  0  0  0  0  0
    7.5559  -15.5989   25.2420 C   0  0  0  0  0  0  0  0  0  0  0  0
    6.2104  -15.8568   25.0372 C   0  0  0  0  0  0  0  0  0  0  0  0
    5.5431  -14.7354   25.3215 N   0  0  0  0  0  0  0  0  0  0  0  0
    6.3671  -13.7418   25.7032 C   0  0  0  0  0  0  0  0  0  0  0  0
    6.1612  -12.4237   26.0840 C   0  0  0  0  0  0  0  0  0  0  0  0
    7.2100  -11.6084   26.4241 C   0  0  0  0  0  0  0  0  0  0  0  0
    8.4750  -12.1369   26.3783 C   0  0  0  0  0  0  0  0  0  0  0  0
    8.6709  -13.4419   26.0013 C   0  0  0  0  0  0  0  0  0  0  0  0
    7.6449  -14.2999   25.6496 C   0  0  0  0  0  0  0  0  0  0  0  0
   10.7143  -17.1724   23.8268 C   0  0  0  0  0  0  0  0  0  0  0  0
   10.8360  -18.3463   23.4381 O   0  0  0  0  0  0  0  0  0  0  0  0
   14.3135  -16.3274   23.7568 C   0  0  0  0  0  0  0  0  0  0  0  0
   13.2033  -17.2859   24.1145 C   0  0  2  0  0  0  0  0  0  0  0  0
   11.9331  -16.5510   24.2599 N   0  0  0  0  0  0  0  0  0  0  0  0
   13.4527  -17.9426   25.4242 C   0  0  0  0  0  0  0  0  0  0  0  0
   14.4748  -18.8462   25.6417 O   0  0  0  0  0  0  0  0  0  0  0  0
   12.6953  -17.6688   26.4029 O   0  0  0  0  0  0  0  0  0  0  0  0
  2  1  1  0
  2  3  2  0
  4  5  1  0
  4  2  1  0
  5  7  1  0
  5  6  1  1
  7  8  2  0
  9 10  1  0
  9  7  1  0
 10 11  1  1
 11 12  1  0
 12 20  1  0
 13 12  2  0
 13 14  1  0
 14 15  1  0
 15 16  1  0
 16 17  2  0
 18 17  1  0
 19 18  2  0
 20 15  2  0
 20 19  1  0
 21 22  2  0
 21 10  1  0
 24 23  1  1
 24 25  1  0
 24 26  1  0
 25 21  1  0
 26 27  1  0
 28 26  2  0
M  END
$$$$
