NWA.pdb
     RDKit          3D

 28 29  0  0  1  0  0  0  0  0999 V2000
    6.4845  -16.4622   18.0979 N   0  0  0  0  0  0  0  0  0  0  0  0
    7.5773  -17.3118   18.4376 C   0  0  0  0  0  0  0  0  0  0  0  0
    7.7338  -18.3832   17.8065 O   0  0  0  0  0  0  0  0  0  0  0  0
    8.5091  -16.9415   19.5154 C   0  0  0  0  0  0  0  0  0  0  0  0
    7.6595  -16.3724   20.6466 C   0  0  2  0  0  0  0  0  0  0  0  0
    7.0534  -15.1802   20.1443 N   0  0  0  0  0  0  0  0  0  0  0  0
    8.5294  -16.0795   21.8500 C   0  0  0  0  0  0  0  0  0  0  0  0
    9.2863  -15.1086   21.8057 O   0  0  0  0  0  0  0  0  0  0  0  0
    8.4486  -16.9235   22.9768 N   0  0  0  0  0  0  0  0  0  0  0  0
    9.2707  -16.8786   24.1482 C   0  0  1  0  0  0  0  0  0  0  0  0
    8.4634  -16.6934   25.3995 C   0  0  0  0  0  0  0  0  0  0  0  0
    7.5403  -15.5794   25.4212 C   0  0  0  0  0  0  0  0  0  0  0  0
    6.1853  -15.7019   25.1610 C   0  0  0  0  0  0  0  0  0  0  0  0
    5.6418  -14.4906   25.3062 N   0  0  0  0  0  0  0  0  0  0  0  0
    6.5577  -13.5650   25.6472 C   0  0  0  0  0  0  0  0  0  0  0  0
    6.4903  -12.2021   25.8982 C   0  0  0  0  0  0  0  0  0  0  0  0
    7.6102  -11.4822   26.2267 C   0  0  0  0  0  0  0  0  0  0  0  0
    8.8049  -12.1520   26.3018 C   0  0  0  0  0  0  0  0  0  0  0  0
    8.8636  -13.5004   26.0529 C   0  0  0  0  0  0  0  0  0  0  0  0
    7.7619  -14.2663   25.7179 C   0  0  0  0  0  0  0  0  0  0  0  0
   10.4348  -17.7348   24.2144 C   0  0  0  0  0  0  0  0  0  0  0  0
   10.3925  -18.9584   24.0027 O   0  0  0  0  0  0  0  0  0  0  0  0
   14.1399  -17.3990   24.1209 C   0  0  0  0  0  0  0  0  0  0  0  0
   12.8898  -18.1418   24.5268 C   0  0  2  0  0  0  0  0  0  0  0  0
   11.7375  -17.2217   24.5287 N   0  0  0  0  0  0  0  0  0  0  0  0
   12.9974  -18.6717   25.9112 C   0  0  0  0  0  0  0  0  0  0  0  0
   13.8853  -19.6634   26.2811 O   0  0  0  0  0  0  0  0  0  0  0  0
   12.2407  -18.1981   26.8109 O   0  0  0  0  0  0  0  0  0  0  0  0
  2  1  1  0
  2  3  2  0
  4  5  1  0
  4  2  1  0
  5  7  1  0
  5  6  1  6
  7  8  2  0
  9 10  1  0
  9  7  1  0
 10 11  1  1
 11 12  1  0
 12 20  1  0
 13 12  2  0
 13 14  1  0
 14 15  1  0
 15 16  1  0
 16 17  2  0
 18 17  1  0
 19 18  2  0
 20 15  2  0
 20 19  1  0
 21 22  2  0
 21 10  1  0
 24 23  1  1
 24 25  1  0
 24 26  1  0
 25 21  1  0
 26 27  1  0
 28 26  2  0
M  END
$$$$
