NWA.pdb
     RDKit          3D

 28 29  0  0  1  0  0  0  0  0999 V2000
    9.4424  -15.4564   18.7149 N   0  0  0  0  0  0  0  0  0  0  0  0
   10.2460  -15.5848   19.8849 C   0  0  0  0  0  0  0  0  0  0  0  0
   11.4784  -15.7743   19.7586 O   0  0  0  0  0  0  0  0  0  0  0  0
    9.6409  -15.4996   21.2243 C   0  0  0  0  0  0  0  0  0  0  0  0
   10.1466  -16.7072   22.0060 C   0  0  2  0  0  0  0  0  0  0  0  0
    9.1679  -17.7362   21.8496 N   0  0  0  0  0  0  0  0  0  0  0  0
   10.3283  -16.3410   23.4633 C   0  0  0  0  0  0  0  0  0  0  0  0
   11.1774  -15.4979   23.7561 O   0  0  0  0  0  0  0  0  0  0  0  0
    9.5264  -16.9745   24.4351 N   0  0  0  0  0  0  0  0  0  0  0  0
    9.6843  -16.9124   25.8568 C   0  0  1  0  0  0  0  0  0  0  0  0
    8.4336  -16.4504   26.5455 C   0  0  0  0  0  0  0  0  0  0  0  0
    7.6439  -15.4495   25.8612 C   0  0  0  0  0  0  0  0  0  0  0  0
    6.7944  -15.7343   24.8048 C   0  0  0  0  0  0  0  0  0  0  0  0
    6.2056  -14.5897   24.4488 N   0  0  0  0  0  0  0  0  0  0  0  0
    6.6151  -13.5554   25.2067 C   0  0  0  0  0  0  0  0  0  0  0  0
    6.3080  -12.2025   25.2224 C   0  0  0  0  0  0  0  0  0  0  0  0
    6.8943  -11.3494   26.1218 C   0  0  0  0  0  0  0  0  0  0  0  0
    7.7965  -11.8752   27.0112 C   0  0  0  0  0  0  0  0  0  0  0  0
    8.0947  -13.2147   26.9902 C   0  0  0  0  0  0  0  0  0  0  0  0
    7.5296  -14.1115   26.1020 C   0  0  0  0  0  0  0  0  0  0  0  0
   10.4839  -17.9237   26.5128 C   0  0  0  0  0  0  0  0  0  0  0  0
   10.6697  -17.9536   27.7410 O   0  0  0  0  0  0  0  0  0  0  0  0
   12.3020  -21.1102   25.5854 C   0  0  0  0  0  0  0  0  0  0  0  0
   11.9097  -19.9871   26.5149 C   0  0  2  0  0  0  0  0  0  0  0  0
   11.1224  -18.9795   25.7803 N   0  0  0  0  0  0  0  0  0  0  0  0
   13.1031  -19.2750   27.0416 C   0  0  0  0  0  0  0  0  0  0  0  0
   13.6989  -18.2070   26.3990 O   0  0  0  0  0  0  0  0  0  0  0  0
   13.6123  -19.6568   28.1377 O   0  0  0  0  0  0  0  0  0  0  0  0
  2  1  1  0
  2  3  2  0
  4  5  1  0
  4  2  1  0
  5  7  1  0
  5  6  1  1
  7  8  2  0
  9 10  1  0
  9  7  1  0
 10 11  1  1
 11 12  1  0
 12 20  1  0
 13 12  2  0
 13 14  1  0
 14 15  1  0
 15 16  1  0
 16 17  2  0
 18 17  1  0
 19 18  2  0
 20 15  2  0
 20 19  1  0
 21 22  2  0
 21 10  1  0
 24 23  1  6
 24 25  1  0
 24 26  1  0
 25 21  1  0
 26 27  1  0
 28 26  2  0
M  END
$$$$
