NWA.pdb
     RDKit          3D

 28 29  0  0  1  0  0  0  0  0999 V2000
   10.8757  -16.8519   17.3988 N   0  0  0  0  0  0  0  0  0  0  0  0
   11.6240  -16.5790   18.5808 C   0  0  0  0  0  0  0  0  0  0  0  0
   12.8272  -16.9258   18.6325 O   0  0  0  0  0  0  0  0  0  0  0  0
   10.9958  -15.9027   19.7275 C   0  0  0  0  0  0  0  0  0  0  0  0
   11.2918  -16.7610   20.9525 C   0  0  2  0  0  0  0  0  0  0  0  0
   10.5518  -17.9727   20.7929 N   0  0  0  0  0  0  0  0  0  0  0  0
   10.8777  -16.0281   22.2102 C   0  0  0  0  0  0  0  0  0  0  0  0
   11.5472  -15.0600   22.5738 O   0  0  0  0  0  0  0  0  0  0  0  0
    9.7466  -16.4750   22.9240 N   0  0  0  0  0  0  0  0  0  0  0  0
    9.2685  -15.9797   24.1795 C   0  0  1  0  0  0  0  0  0  0  0  0
    7.8356  -16.3516   24.4259 C   0  0  0  0  0  0  0  0  0  0  0  0
    7.0023  -15.3525   25.0594 C   0  0  0  0  0  0  0  0  0  0  0  0
    5.7824  -15.6355   25.6514 C   0  0  0  0  0  0  0  0  0  0  0  0
    5.3149  -14.4940   26.1632 N   0  0  0  0  0  0  0  0  0  0  0  0
    6.1529  -13.4635   25.9450 C   0  0  0  0  0  0  0  0  0  0  0  0
    6.1116  -12.1145   26.2668 C   0  0  0  0  0  0  0  0  0  0  0  0
    7.1250  -11.2646   25.9049 C   0  0  0  0  0  0  0  0  0  0  0  0
    8.1870  -11.7896   25.2134 C   0  0  0  0  0  0  0  0  0  0  0  0
    8.2212  -13.1252   24.8993 C   0  0  0  0  0  0  0  0  0  0  0  0
    7.2230  -14.0187   25.2425 C   0  0  0  0  0  0  0  0  0  0  0  0
   10.1690  -15.9686   25.3115 C   0  0  0  0  0  0  0  0  0  0  0  0
   11.2039  -16.6542   25.3647 O   0  0  0  0  0  0  0  0  0  0  0  0
   10.5027  -14.2011   28.6419 C   0  0  0  0  0  0  0  0  0  0  0  0
   10.8131  -15.2839   27.6368 C   0  0  2  0  0  0  0  0  0  0  0  0
    9.9280  -15.1497   26.4650 N   0  0  0  0  0  0  0  0  0  0  0  0
   10.5545  -16.6361   28.1969 C   0  0  0  0  0  0  0  0  0  0  0  0
   11.3727  -17.2446   29.1289 O   0  0  0  0  0  0  0  0  0  0  0  0
    9.5325  -17.2771   27.8080 O   0  0  0  0  0  0  0  0  0  0  0  0
  2  1  1  0
  2  3  2  0
  4  5  1  0
  4  2  1  0
  5  7  1  0
  5  6  1  6
  7  8  2  0
  9 10  1  0
  9  7  1  0
 10 11  1  1
 11 12  1  0
 12 20  1  0
 13 12  2  0
 13 14  1  0
 14 15  1  0
 15 16  1  0
 16 17  2  0
 18 17  1  0
 19 18  2  0
 20 15  2  0
 20 19  1  0
 21 22  2  0
 21 10  1  0
 24 23  1  1
 24 25  1  0
 24 26  1  0
 25 21  1  0
 26 27  1  0
 28 26  2  0
M  END
$$$$
