NWA.pdb
     RDKit          3D

 28 29  0  0  1  0  0  0  0  0999 V2000
    6.3104  -14.7772   19.4882 N   0  0  0  0  0  0  0  0  0  0  0  0
    7.6957  -14.9223   19.7904 C   0  0  0  0  0  0  0  0  0  0  0  0
    8.4871  -15.2481   18.8749 O   0  0  0  0  0  0  0  0  0  0  0  0
    8.1934  -14.6968   21.1574 C   0  0  0  0  0  0  0  0  0  0  0  0
    8.9449  -15.9613   21.5592 C   0  0  2  0  0  0  0  0  0  0  0  0
    7.9730  -17.0044   21.6506 N   0  0  0  0  0  0  0  0  0  0  0  0
    9.6455  -15.7479   22.8837 C   0  0  0  0  0  0  0  0  0  0  0  0
   10.5454  -14.9087   22.9442 O   0  0  0  0  0  0  0  0  0  0  0  0
    9.2506  -16.5135   24.0001 N   0  0  0  0  0  0  0  0  0  0  0  0
    9.8823  -16.5545   25.2843 C   0  0  1  0  0  0  0  0  0  0  0  0
    8.8975  -16.3913   26.4049 C   0  0  0  0  0  0  0  0  0  0  0  0
    7.7563  -15.5387   26.1512 C   0  0  0  0  0  0  0  0  0  0  0  0
    6.5119  -16.0162   25.7742 C   0  0  0  0  0  0  0  0  0  0  0  0
    5.6983  -14.9627   25.6657 N   0  0  0  0  0  0  0  0  0  0  0  0
    6.3294  -13.8076   25.9474 C   0  0  0  0  0  0  0  0  0  0  0  0
    5.9270  -12.4800   25.9682 C   0  0  0  0  0  0  0  0  0  0  0  0
    6.8024  -11.4754   26.2919 C   0  0  0  0  0  0  0  0  0  0  0  0
    8.0936  -11.8228   26.5977 C   0  0  0  0  0  0  0  0  0  0  0  0
    8.4843  -13.1383   26.5758 C   0  0  0  0  0  0  0  0  0  0  0  0
    7.6375  -14.1836   26.2550 C   0  0  0  0  0  0  0  0  0  0  0  0
   10.9919  -17.4604   25.4853 C   0  0  0  0  0  0  0  0  0  0  0  0
   11.5416  -17.6297   26.5867 O   0  0  0  0  0  0  0  0  0  0  0  0
   12.6680  -20.2713   23.6570 C   0  0  0  0  0  0  0  0  0  0  0  0
   12.6420  -19.1767   24.6965 C   0  0  2  0  0  0  0  0  0  0  0  0
   11.5387  -18.2406   24.4122 N   0  0  0  0  0  0  0  0  0  0  0  0
   13.8883  -18.3677   24.6654 C   0  0  0  0  0  0  0  0  0  0  0  0
   13.9329  -17.0517   24.2473 O   0  0  0  0  0  0  0  0  0  0  0  0
   14.9760  -18.9001   25.0396 O   0  0  0  0  0  0  0  0  0  0  0  0
  2  1  1  0
  2  3  2  0
  4  5  1  0
  4  2  1  0
  5  7  1  0
  5  6  1  1
  7  8  2  0
  9 10  1  0
  9  7  1  0
 10 11  1  1
 11 12  1  0
 12 20  1  0
 13 12  2  0
 13 14  1  0
 14 15  1  0
 15 16  1  0
 16 17  2  0
 18 17  1  0
 19 18  2  0
 20 15  2  0
 20 19  1  0
 21 22  2  0
 21 10  1  0
 24 23  1  6
 24 25  1  0
 24 26  1  0
 25 21  1  0
 26 27  1  0
 28 26  2  0
M  END
$$$$
