NWA.pdb
     RDKit          3D

 28 29  0  0  1  0  0  0  0  0999 V2000
    6.8383  -12.9483   18.3573 N   0  0  0  0  0  0  0  0  0  0  0  0
    7.9252  -13.7572   18.7999 C   0  0  0  0  0  0  0  0  0  0  0  0
    8.4889  -14.5198   17.9805 O   0  0  0  0  0  0  0  0  0  0  0  0
    8.3801  -13.7031   20.1990 C   0  0  0  0  0  0  0  0  0  0  0  0
    8.3809  -15.1396   20.7104 C   0  0  2  0  0  0  0  0  0  0  0  0
    7.0134  -15.5429   20.8027 N   0  0  0  0  0  0  0  0  0  0  0  0
    9.0645  -15.2083   22.0590 C   0  0  0  0  0  0  0  0  0  0  0  0
    9.9622  -14.4013   22.3047 O   0  0  0  0  0  0  0  0  0  0  0  0
    8.6566  -16.1897   22.9858 N   0  0  0  0  0  0  0  0  0  0  0  0
    9.2816  -16.5097   24.2336 C   0  0  1  0  0  0  0  0  0  0  0  0
    8.2937  -16.5742   25.3614 C   0  0  0  0  0  0  0  0  0  0  0  0
    7.3694  -15.4675   25.4828 C   0  0  0  0  0  0  0  0  0  0  0  0
    6.0110  -15.5727   25.2328 C   0  0  0  0  0  0  0  0  0  0  0  0
    5.4680  -14.3778   25.4796 N   0  0  0  0  0  0  0  0  0  0  0  0
    6.3873  -13.4793   25.8788 C   0  0  0  0  0  0  0  0  0  0  0  0
    6.3216  -12.1403   26.2363 C   0  0  0  0  0  0  0  0  0  0  0  0
    7.4451  -11.4454   26.6040 C   0  0  0  0  0  0  0  0  0  0  0  0
    8.6416  -12.1160   26.6100 C   0  0  0  0  0  0  0  0  0  0  0  0
    8.6987  -13.4408   26.2559 C   0  0  0  0  0  0  0  0  0  0  0  0
    7.5934  -14.1810   25.8778 C   0  0  0  0  0  0  0  0  0  0  0  0
   10.3789  -17.4522   24.2406 C   0  0  0  0  0  0  0  0  0  0  0  0
   10.2483  -18.6511   23.9413 O   0  0  0  0  0  0  0  0  0  0  0  0
   14.1125  -17.4151   24.2968 C   0  0  0  0  0  0  0  0  0  0  0  0
   12.7846  -18.0742   24.5818 C   0  0  2  0  0  0  0  0  0  0  0  0
   11.7135  -17.0607   24.5938 N   0  0  0  0  0  0  0  0  0  0  0  0
   12.7692  -18.7072   25.9264 C   0  0  0  0  0  0  0  0  0  0  0  0
   13.5416  -19.8022   26.2626 O   0  0  0  0  0  0  0  0  0  0  0  0
   12.0119  -18.2277   26.8226 O   0  0  0  0  0  0  0  0  0  0  0  0
  2  1  1  0
  2  3  2  0
  4  5  1  0
  4  2  1  0
  5  7  1  0
  5  6  1  1
  7  8  2  0
  9 10  1  0
  9  7  1  0
 10 11  1  1
 11 12  1  0
 12 20  1  0
 13 12  2  0
 13 14  1  0
 14 15  1  0
 15 16  1  0
 16 17  2  0
 18 17  1  0
 19 18  2  0
 20 15  2  0
 20 19  1  0
 21 22  2  0
 21 10  1  0
 24 23  1  1
 24 25  1  0
 24 26  1  0
 25 21  1  0
 26 27  1  0
 28 26  2  0
M  END
$$$$
