QLY.pdb
     RDKit          3D

 30 30  0  0  1  0  0  0  0  0999 V2000
   30.5484  -19.3374  -18.4025 N   0  0  0  0  0  0  0  0  0  0  0  0
   30.1361  -20.7159  -18.4757 C   0  0  0  0  0  0  0  0  0  0  0  0
   30.9217  -21.5770  -18.0628 O   0  0  0  0  0  0  0  0  0  0  0  0
   28.8207  -21.0990  -19.0197 C   0  0  0  0  0  0  0  0  0  0  0  0
   27.8628  -21.5347  -17.9826 C   0  0  0  0  0  0  0  0  0  0  0  0
   27.2154  -20.4882  -17.1503 C   0  0  2  0  0  0  0  0  0  0  0  0
   28.0821  -19.5018  -16.5699 N   0  0  0  0  0  0  0  0  0  0  0  0
   26.3571  -21.0672  -16.0710 C   0  0  0  0  0  0  0  0  0  0  0  0
   25.5057  -21.9294  -16.3898 O   0  0  0  0  0  0  0  0  0  0  0  0
   25.4283  -20.0979   -9.9609 C   0  0  0  0  0  0  0  0  0  0  0  0
   25.0221  -20.7603  -11.2486 C   0  0  2  0  0  0  0  0  0  0  0  0
   24.9061  -22.2597  -11.0177 C   0  0  0  0  0  0  0  0  0  0  0  0
   26.0426  -20.5645  -12.3408 C   0  0  0  0  0  0  0  0  0  0  0  0
   25.4925  -20.9857  -13.6969 C   0  0  2  0  0  0  0  0  0  0  0  0
   26.4550  -20.6947  -14.7134 N   0  0  0  0  0  0  0  0  0  0  0  0
   24.2127  -20.2663  -13.8880 C   0  0  0  0  0  0  0  0  0  0  0  0
   24.0941  -19.1149  -13.4138 O   0  0  0  0  0  0  0  0  0  0  0  0
   16.5336  -17.3177  -16.8005 O   0  0  0  0  0  0  0  0  0  0  0  0
   17.7159  -18.0060  -16.6510 C   0  0  0  0  0  0  0  0  0  0  0  0
   18.8680  -17.3233  -16.3817 C   0  0  0  0  0  0  0  0  0  0  0  0
   20.0760  -17.9408  -16.2209 C   0  0  0  0  0  0  0  0  0  0  0  0
   20.1827  -19.3255  -16.3281 C   0  0  0  0  0  0  0  0  0  0  0  0
   21.4885  -19.9801  -16.1801 C   0  0  0  0  0  0  0  0  0  0  0  0
   21.8254  -20.1571  -14.7327 C   0  0  2  0  0  0  0  0  0  0  0  0
   23.1229  -20.8332  -14.5858 N   0  0  0  0  0  0  0  0  0  0  0  0
   20.7927  -20.9379  -14.0513 C   0  0  0  0  0  0  0  0  0  0  0  0
   20.7111  -22.3187  -14.0518 O   0  0  0  0  0  0  0  0  0  0  0  0
   19.0227  -20.0104  -16.5994 C   0  0  0  0  0  0  0  0  0  0  0  0
   17.8141  -19.3795  -16.7588 C   0  0  0  0  0  0  0  0  0  0  0  0
   19.8789  -20.3280  -13.3979 O   0  0  0  0  0  0  0  0  0  0  0  0
  1  2  1  0
  2  4  1  0
  3  2  2  0
  4  5  1  0
  5  6  1  0
  6  7  1  1
  6  8  1  0
  8  9  2  0
 11 10  1  1
 12 11  1  0
 13 11  1  0
 14 13  1  1
 15  8  1  0
 15 14  1  0
 16 25  1  0
 16 14  1  0
 17 16  2  0
 19 18  1  0
 20 19  2  0
 21 20  1  0
 22 21  2  0
 22 28  1  0
 23 22  1  0
 24 23  1  6
 24 26  1  0
 24 25  1  0
 26 27  1  0
 28 29  2  0
 29 19  1  0
 30 26  2  0
M  END
$$$$
