QLY.pdb
     RDKit          3D

 30 30  0  0  1  0  0  0  0  0999 V2000
   26.8697  -18.8295  -18.8282 N   0  0  0  0  0  0  0  0  0  0  0  0
   27.9992  -17.9462  -18.6886 C   0  0  0  0  0  0  0  0  0  0  0  0
   28.2905  -17.2240  -19.6491 O   0  0  0  0  0  0  0  0  0  0  0  0
   28.7872  -17.8937  -17.4439 C   0  0  0  0  0  0  0  0  0  0  0  0
   28.2844  -18.8035  -16.3940 C   0  0  0  0  0  0  0  0  0  0  0  0
   29.1513  -19.9381  -15.9836 C   0  0  2  0  0  0  0  0  0  0  0  0
   29.4620  -20.9077  -16.9956 N   0  0  0  0  0  0  0  0  0  0  0  0
   28.6243  -20.6528  -14.7802 C   0  0  0  0  0  0  0  0  0  0  0  0
   27.7570  -21.5408  -14.9513 O   0  0  0  0  0  0  0  0  0  0  0  0
   30.6298  -22.7474  -11.1264 C   0  0  0  0  0  0  0  0  0  0  0  0
   30.7160  -21.2480  -11.2048 C   0  0  2  0  0  0  0  0  0  0  0  0
   31.5618  -20.7405  -10.0464 C   0  0  0  0  0  0  0  0  0  0  0  0
   29.3658  -20.5889  -11.0810 C   0  0  0  0  0  0  0  0  0  0  0  0
   28.4749  -20.9200  -12.2708 C   0  0  2  0  0  0  0  0  0  0  0  0
   29.0513  -20.3807  -13.4630 N   0  0  0  0  0  0  0  0  0  0  0  0
   27.1335  -20.3678  -11.9750 C   0  0  0  0  0  0  0  0  0  0  0  0
   26.9168  -19.1582  -12.2089 O   0  0  0  0  0  0  0  0  0  0  0  0
   18.4483  -19.6488  -11.1741 O   0  0  0  0  0  0  0  0  0  0  0  0
   19.7326  -20.1184  -11.3284 C   0  0  0  0  0  0  0  0  0  0  0  0
   20.4935  -19.6794  -12.3744 C   0  0  0  0  0  0  0  0  0  0  0  0
   21.7749  -20.1023  -12.5887 C   0  0  0  0  0  0  0  0  0  0  0  0
   22.3702  -21.0209  -11.7272 C   0  0  0  0  0  0  0  0  0  0  0  0
   23.7383  -21.4909  -11.9784 C   0  0  0  0  0  0  0  0  0  0  0  0
   24.7267  -20.6508  -11.2320 C   0  0  2  0  0  0  0  0  0  0  0  0
   26.0916  -21.1571  -11.4389 N   0  0  0  0  0  0  0  0  0  0  0  0
   24.4249  -20.6429   -9.8005 C   0  0  0  0  0  0  0  0  0  0  0  0
   25.0072  -21.4751   -8.8615 O   0  0  0  0  0  0  0  0  0  0  0  0
   21.6029  -21.4615  -10.6758 C   0  0  0  0  0  0  0  0  0  0  0  0
   20.3163  -21.0296  -10.4700 C   0  0  0  0  0  0  0  0  0  0  0  0
   23.5593  -19.8174   -9.3499 O   0  0  0  0  0  0  0  0  0  0  0  0
  1  2  1  0
  2  4  1  0
  3  2  2  0
  4  5  1  0
  5  6  1  0
  6  7  1  6
  6  8  1  0
  8  9  2  0
 11 10  1  1
 12 11  1  0
 13 11  1  0
 14 13  1  1
 15  8  1  0
 15 14  1  0
 16 25  1  0
 16 14  1  0
 17 16  2  0
 19 18  1  0
 20 19  2  0
 21 20  1  0
 22 21  2  0
 22 28  1  0
 23 22  1  0
 24 23  1  6
 24 26  1  0
 24 25  1  0
 26 27  1  0
 28 29  2  0
 29 19  1  0
 30 26  2  0
M  END
$$$$
