QLY.pdb
     RDKit          3D

 30 30  0  0  1  0  0  0  0  0999 V2000
   22.3632  -16.7582  -19.7948 N   0  0  0  0  0  0  0  0  0  0  0  0
   23.0610  -15.5187  -19.5663 C   0  0  0  0  0  0  0  0  0  0  0  0
   22.8732  -14.5938  -20.3653 O   0  0  0  0  0  0  0  0  0  0  0  0
   23.9690  -15.3458  -18.4180 C   0  0  0  0  0  0  0  0  0  0  0  0
   23.9551  -16.4900  -17.4834 C   0  0  0  0  0  0  0  0  0  0  0  0
   25.2190  -17.2472  -17.2925 C   0  0  2  0  0  0  0  0  0  0  0  0
   25.9742  -17.5453  -18.4765 N   0  0  0  0  0  0  0  0  0  0  0  0
   25.0153  -18.5129  -16.5222 C   0  0  0  0  0  0  0  0  0  0  0  0
   24.2174  -19.3633  -16.9805 O   0  0  0  0  0  0  0  0  0  0  0  0
   27.3813  -21.4239  -11.5207 C   0  0  0  0  0  0  0  0  0  0  0  0
   26.3012  -21.2703  -12.5559 C   0  0  2  0  0  0  0  0  0  0  0  0
   26.3137  -22.4885  -13.4674 C   0  0  0  0  0  0  0  0  0  0  0  0
   26.5172  -20.0650  -13.4353 C   0  0  0  0  0  0  0  0  0  0  0  0
   25.3890  -19.9053  -14.4456 C   0  0  2  0  0  0  0  0  0  0  0  0
   25.6733  -18.8003  -15.3074 N   0  0  0  0  0  0  0  0  0  0  0  0
   24.1375  -19.7311  -13.6742 C   0  0  0  0  0  0  0  0  0  0  0  0
   24.1071  -18.8732  -12.7644 O   0  0  0  0  0  0  0  0  0  0  0  0
   19.2383  -18.5346  -18.8202 O   0  0  0  0  0  0  0  0  0  0  0  0
   19.7510  -18.6002  -17.5448 C   0  0  0  0  0  0  0  0  0  0  0  0
   19.1070  -19.3382  -16.5928 C   0  0  0  0  0  0  0  0  0  0  0  0
   19.5585  -19.4481  -15.3080 C   0  0  0  0  0  0  0  0  0  0  0  0
   20.7224  -18.7953  -14.9088 C   0  0  0  0  0  0  0  0  0  0  0  0
   21.1876  -18.8965  -13.5199 C   0  0  0  0  0  0  0  0  0  0  0  0
   21.7004  -20.2738  -13.2376 C   0  0  2  0  0  0  0  0  0  0  0  0
   22.9787  -20.4982  -13.9287 N   0  0  0  0  0  0  0  0  0  0  0  0
   20.7341  -21.2853  -13.6661 C   0  0  0  0  0  0  0  0  0  0  0  0
   19.4611  -21.4379  -13.1470 O   0  0  0  0  0  0  0  0  0  0  0  0
   21.3686  -18.0531  -15.8679 C   0  0  0  0  0  0  0  0  0  0  0  0
   20.9060  -17.9498  -17.1561 C   0  0  0  0  0  0  0  0  0  0  0  0
   21.0604  -22.1089  -14.5877 O   0  0  0  0  0  0  0  0  0  0  0  0
  1  2  1  0
  2  4  1  0
  3  2  2  0
  4  5  1  0
  5  6  1  0
  6  7  1  6
  6  8  1  0
  8  9  2  0
 11 10  1  1
 12 11  1  0
 13 11  1  0
 14 13  1  1
 15  8  1  0
 15 14  1  0
 16 25  1  0
 16 14  1  0
 17 16  2  0
 19 18  1  0
 20 19  2  0
 21 20  1  0
 22 21  2  0
 22 28  1  0
 23 22  1  0
 24 23  1  6
 24 26  1  0
 24 25  1  0
 26 27  1  0
 28 29  2  0
 29 19  1  0
 30 26  2  0
M  END
$$$$
