QLY.pdb
     RDKit          3D

 30 30  0  0  1  0  0  0  0  0999 V2000
   15.1194  -26.7594  -11.7970 N   0  0  0  0  0  0  0  0  0  0  0  0
   14.4646  -28.0201  -11.5572 C   0  0  0  0  0  0  0  0  0  0  0  0
   13.2480  -28.0068  -11.3364 O   0  0  0  0  0  0  0  0  0  0  0  0
   15.2102  -29.2916  -11.5758 C   0  0  0  0  0  0  0  0  0  0  0  0
   16.6561  -29.1187  -11.8253 C   0  0  0  0  0  0  0  0  0  0  0  0
   17.6015  -29.9583  -11.0454 C   0  0  2  0  0  0  0  0  0  0  0  0
   17.4030  -29.9981   -9.6242 N   0  0  0  0  0  0  0  0  0  0  0  0
   19.0308  -29.6143  -11.3205 C   0  0  0  0  0  0  0  0  0  0  0  0
   19.5479  -28.6722  -10.6765 O   0  0  0  0  0  0  0  0  0  0  0  0
   22.5085  -31.8873  -10.5786 C   0  0  0  0  0  0  0  0  0  0  0  0
   21.8364  -32.3602  -11.8381 C   0  0  2  0  0  0  0  0  0  0  0  0
   22.5590  -33.5979  -12.3489 C   0  0  0  0  0  0  0  0  0  0  0  0
   21.8968  -31.3336  -12.9405 C   0  0  0  0  0  0  0  0  0  0  0  0
   21.2094  -30.0379  -12.5310 C   0  0  2  0  0  0  0  0  0  0  0  0
   19.8277  -30.2939  -12.2663 N   0  0  0  0  0  0  0  0  0  0  0  0
   21.4186  -29.0696  -13.6312 C   0  0  0  0  0  0  0  0  0  0  0  0
   22.5896  -28.7730  -13.9560 O   0  0  0  0  0  0  0  0  0  0  0  0
   21.7465  -24.1368  -20.6250 O   0  0  0  0  0  0  0  0  0  0  0  0
   21.6459  -25.0759  -19.6241 C   0  0  0  0  0  0  0  0  0  0  0  0
   20.6435  -26.0031  -19.6632 C   0  0  0  0  0  0  0  0  0  0  0  0
   20.4834  -26.9635  -18.7048 C   0  0  0  0  0  0  0  0  0  0  0  0
   21.3580  -27.0366  -17.6232 C   0  0  0  0  0  0  0  0  0  0  0  0
   21.1645  -28.0548  -16.5834 C   0  0  0  0  0  0  0  0  0  0  0  0
   20.5329  -27.4505  -15.3686 C   0  0  2  0  0  0  0  0  0  0  0  0
   20.3444  -28.4700  -14.3260 N   0  0  0  0  0  0  0  0  0  0  0  0
   19.2397  -26.8516  -15.6997 C   0  0  0  0  0  0  0  0  0  0  0  0
   19.0501  -25.5404  -16.0972 O   0  0  0  0  0  0  0  0  0  0  0  0
   22.3655  -26.1028  -17.5856 C   0  0  0  0  0  0  0  0  0  0  0  0
   22.5170  -25.1421  -18.5543 C   0  0  0  0  0  0  0  0  0  0  0  0
   18.1831  -27.5670  -15.6237 O   0  0  0  0  0  0  0  0  0  0  0  0
  1  2  1  0
  2  4  1  0
  3  2  2  0
  4  5  1  0
  5  6  1  0
  6  7  1  1
  6  8  1  0
  8  9  2  0
 11 10  1  1
 12 11  1  0
 13 11  1  0
 14 13  1  6
 15  8  1  0
 15 14  1  0
 16 25  1  0
 16 14  1  0
 17 16  2  0
 19 18  1  0
 20 19  2  0
 21 20  1  0
 22 21  2  0
 22 28  1  0
 23 22  1  0
 24 23  1  6
 24 26  1  0
 24 25  1  0
 26 27  1  0
 28 29  2  0
 29 19  1  0
 30 26  2  0
M  END
$$$$
