QLY.pdb
     RDKit          3D

 30 30  0  0  1  0  0  0  0  0999 V2000
   25.1661  -19.4640  -20.2893 N   0  0  0  0  0  0  0  0  0  0  0  0
   26.4717  -18.9791  -20.6581 C   0  0  0  0  0  0  0  0  0  0  0  0
   26.5507  -18.2060  -21.6199 O   0  0  0  0  0  0  0  0  0  0  0  0
   27.6809  -19.3816  -19.9174 C   0  0  0  0  0  0  0  0  0  0  0  0
   27.4046  -20.3241  -18.8136 C   0  0  0  0  0  0  0  0  0  0  0  0
   26.8289  -19.7755  -17.5587 C   0  0  2  0  0  0  0  0  0  0  0  0
   27.1677  -18.4183  -17.2362 N   0  0  0  0  0  0  0  0  0  0  0  0
   27.1211  -20.6378  -16.3721 C   0  0  0  0  0  0  0  0  0  0  0  0
   26.8561  -21.8600  -16.4485 O   0  0  0  0  0  0  0  0  0  0  0  0
   30.0159  -20.2179  -10.8507 C   0  0  0  0  0  0  0  0  0  0  0  0
   29.1340  -20.9638  -11.8137 C   0  0  2  0  0  0  0  0  0  0  0  0
   29.8649  -22.2109  -12.2886 C   0  0  0  0  0  0  0  0  0  0  0  0
   28.8118  -20.1523  -13.0427 C   0  0  0  0  0  0  0  0  0  0  0  0
   27.8646  -20.9014  -13.9704 C   0  0  2  0  0  0  0  0  0  0  0  0
   27.6789  -20.1486  -15.1718 N   0  0  0  0  0  0  0  0  0  0  0  0
   26.6056  -21.1175  -13.2220 C   0  0  0  0  0  0  0  0  0  0  0  0
   26.6066  -21.9219  -12.2640 O   0  0  0  0  0  0  0  0  0  0  0  0
   18.6010  -20.7018   -9.7541 O   0  0  0  0  0  0  0  0  0  0  0  0
   19.8100  -20.4329  -10.3540 C   0  0  0  0  0  0  0  0  0  0  0  0
   20.9717  -20.7038   -9.6885 C   0  0  0  0  0  0  0  0  0  0  0  0
   22.2061  -20.4630  -10.2222 C   0  0  0  0  0  0  0  0  0  0  0  0
   22.3312  -19.9182  -11.4981 C   0  0  0  0  0  0  0  0  0  0  0  0
   23.6603  -19.6377  -12.0551 C   0  0  0  0  0  0  0  0  0  0  0  0
   24.1126  -20.7670  -12.9268 C   0  0  2  0  0  0  0  0  0  0  0  0
   25.4054  -20.4488  -13.5511 N   0  0  0  0  0  0  0  0  0  0  0  0
   23.1259  -21.0441  -13.9709 C   0  0  0  0  0  0  0  0  0  0  0  0
   22.0714  -21.9313  -13.8518 O   0  0  0  0  0  0  0  0  0  0  0  0
   21.1613  -19.6461  -12.1658 C   0  0  0  0  0  0  0  0  0  0  0  0
   19.9263  -19.8923  -11.6197 C   0  0  0  0  0  0  0  0  0  0  0  0
   23.2177  -20.4382  -15.0927 O   0  0  0  0  0  0  0  0  0  0  0  0
  1  2  1  0
  2  4  1  0
  3  2  2  0
  4  5  1  0
  5  6  1  0
  6  7  1  1
  6  8  1  0
  8  9  2  0
 11 10  1  1
 12 11  1  0
 13 11  1  0
 14 13  1  1
 15  8  1  0
 15 14  1  0
 16 25  1  0
 16 14  1  0
 17 16  2  0
 19 18  1  0
 20 19  2  0
 21 20  1  0
 22 21  2  0
 22 28  1  0
 23 22  1  0
 24 23  1  6
 24 26  1  0
 24 25  1  0
 26 27  1  0
 28 29  2  0
 29 19  1  0
 30 26  2  0
M  END
$$$$
