QLY.pdb
     RDKit          3D

 30 30  0  0  1  0  0  0  0  0999 V2000
   19.4734  -24.2562  -14.5581 N   0  0  0  0  0  0  0  0  0  0  0  0
   20.3944  -24.7168  -15.5657 C   0  0  0  0  0  0  0  0  0  0  0  0
   20.5167  -25.9372  -15.7226 O   0  0  0  0  0  0  0  0  0  0  0  0
   21.1683  -23.7726  -16.3918 C   0  0  0  0  0  0  0  0  0  0  0  0
   22.4764  -23.4169  -15.8042 C   0  0  0  0  0  0  0  0  0  0  0  0
   22.5424  -22.2191  -14.9278 C   0  0  2  0  0  0  0  0  0  0  0  0
   22.3282  -20.9482  -15.5600 N   0  0  0  0  0  0  0  0  0  0  0  0
   23.8135  -22.1560  -14.1422 C   0  0  0  0  0  0  0  0  0  0  0  0
   24.3816  -23.2330  -13.8472 O   0  0  0  0  0  0  0  0  0  0  0  0
   28.1019  -21.0019  -14.6733 C   0  0  0  0  0  0  0  0  0  0  0  0
   27.1156  -19.8732  -14.7959 C   0  0  2  0  0  0  0  0  0  0  0  0
   27.8646  -18.6001  -15.1609 C   0  0  0  0  0  0  0  0  0  0  0  0
   26.3940  -19.5991  -13.5010 C   0  0  0  0  0  0  0  0  0  0  0  0
   25.6454  -20.8312  -13.0108 C   0  0  2  0  0  0  0  0  0  0  0  0
   24.4069  -20.9488  -13.7157 N   0  0  0  0  0  0  0  0  0  0  0  0
   25.4674  -20.6774  -11.5491 C   0  0  0  0  0  0  0  0  0  0  0  0
   24.5216  -19.9744  -11.1297 O   0  0  0  0  0  0  0  0  0  0  0  0
   28.1016  -19.4763   -3.2575 O   0  0  0  0  0  0  0  0  0  0  0  0
   28.0037  -19.9149   -4.5583 C   0  0  0  0  0  0  0  0  0  0  0  0
   27.2452  -21.0135   -4.8476 C   0  0  0  0  0  0  0  0  0  0  0  0
   27.1030  -21.5041   -6.1148 C   0  0  0  0  0  0  0  0  0  0  0  0
   27.7420  -20.8877   -7.1880 C   0  0  0  0  0  0  0  0  0  0  0  0
   27.6060  -21.4357   -8.5433 C   0  0  0  0  0  0  0  0  0  0  0  0
   26.3509  -20.9362   -9.1875 C   0  0  2  0  0  0  0  0  0  0  0  0
   26.3265  -21.2955  -10.6131 N   0  0  0  0  0  0  0  0  0  0  0  0
   26.2408  -19.4836   -9.0523 C   0  0  0  0  0  0  0  0  0  0  0  0
   25.4406  -18.8299   -8.1327 O   0  0  0  0  0  0  0  0  0  0  0  0
   28.5048  -19.7829   -6.8948 C   0  0  0  0  0  0  0  0  0  0  0  0
   28.6405  -19.2985   -5.6176 C   0  0  0  0  0  0  0  0  0  0  0  0
   26.9214  -18.7313   -9.8300 O   0  0  0  0  0  0  0  0  0  0  0  0
  1  2  1  0
  2  4  1  0
  3  2  2  0
  4  5  1  0
  5  6  1  0
  6  7  1  6
  6  8  1  0
  8  9  2  0
 11 10  1  1
 12 11  1  0
 13 11  1  0
 14 13  1  6
 15  8  1  0
 15 14  1  0
 16 25  1  0
 16 14  1  0
 17 16  2  0
 19 18  1  0
 20 19  2  0
 21 20  1  0
 22 21  2  0
 22 28  1  0
 23 22  1  0
 24 23  1  6
 24 26  1  0
 24 25  1  0
 26 27  1  0
 28 29  2  0
 29 19  1  0
 30 26  2  0
M  END
$$$$
