QLY.pdb
     RDKit          3D

 30 30  0  0  1  0  0  0  0  0999 V2000
   19.6387  -15.3078  -15.1647 N   0  0  0  0  0  0  0  0  0  0  0  0
   19.7071  -15.6571  -16.5607 C   0  0  0  0  0  0  0  0  0  0  0  0
   19.0941  -16.6635  -16.9355 O   0  0  0  0  0  0  0  0  0  0  0  0
   20.4767  -14.8459  -17.5213 C   0  0  0  0  0  0  0  0  0  0  0  0
   21.1345  -13.6757  -16.9043 C   0  0  0  0  0  0  0  0  0  0  0  0
   21.6944  -12.6368  -17.8067 C   0  0  2  0  0  0  0  0  0  0  0  0
   22.8529  -13.0057  -18.5700 N   0  0  0  0  0  0  0  0  0  0  0  0
   21.9789  -11.3538  -17.0928 C   0  0  0  0  0  0  0  0  0  0  0  0
   21.0558  -10.8284  -16.4281 O   0  0  0  0  0  0  0  0  0  0  0  0
   25.3605  -10.7540  -14.3678 C   0  0  0  0  0  0  0  0  0  0  0  0
   25.7439  -10.5398  -15.8061 C   0  0  2  0  0  0  0  0  0  0  0  0
   27.2441  -10.2993  -15.8870 C   0  0  0  0  0  0  0  0  0  0  0  0
   25.0749   -9.3281  -16.4036 C   0  0  0  0  0  0  0  0  0  0  0  0
   23.5614   -9.4924  -16.4433 C   0  0  2  0  0  0  0  0  0  0  0  0
   23.2309  -10.7036  -17.1277 N   0  0  0  0  0  0  0  0  0  0  0  0
   23.0115   -8.2862  -17.1024 C   0  0  0  0  0  0  0  0  0  0  0  0
   23.3311   -8.0514  -18.2888 O   0  0  0  0  0  0  0  0  0  0  0  0
   18.1393   -2.1044  -20.5061 O   0  0  0  0  0  0  0  0  0  0  0  0
   18.7286   -3.2022  -19.9220 C   0  0  0  0  0  0  0  0  0  0  0  0
   18.0421   -3.9217  -18.9855 C   0  0  0  0  0  0  0  0  0  0  0  0
   18.5643   -5.0215  -18.3654 C   0  0  0  0  0  0  0  0  0  0  0  0
   19.8494   -5.4630  -18.6717 C   0  0  0  0  0  0  0  0  0  0  0  0
   20.4141   -6.6300  -17.9825 C   0  0  0  0  0  0  0  0  0  0  0  0
   21.5465   -6.2178  -17.0951 C   0  0  2  0  0  0  0  0  0  0  0  0
   22.1403   -7.3927  -16.4401 N   0  0  0  0  0  0  0  0  0  0  0  0
   21.0894   -5.2740  -16.0749 C   0  0  0  0  0  0  0  0  0  0  0  0
   21.1827   -3.8971  -16.1678 O   0  0  0  0  0  0  0  0  0  0  0  0
   20.5384   -4.7377  -19.6138 C   0  0  0  0  0  0  0  0  0  0  0  0
   20.0037   -3.6342  -20.2307 C   0  0  0  0  0  0  0  0  0  0  0  0
   20.5603   -5.7235  -15.0015 O   0  0  0  0  0  0  0  0  0  0  0  0
  1  2  1  0
  2  4  1  0
  3  2  2  0
  4  5  1  0
  5  6  1  0
  6  7  1  1
  6  8  1  0
  8  9  2  0
 11 10  1  1
 12 11  1  0
 13 11  1  0
 14 13  1  6
 15  8  1  0
 15 14  1  0
 16 25  1  0
 16 14  1  0
 17 16  2  0
 19 18  1  0
 20 19  2  0
 21 20  1  0
 22 21  2  0
 22 28  1  0
 23 22  1  0
 24 23  1  1
 24 26  1  0
 24 25  1  0
 26 27  1  0
 28 29  2  0
 29 19  1  0
 30 26  2  0
M  END
$$$$
