QLY.pdb
     RDKit          3D

 30 30  0  0  1  0  0  0  0  0999 V2000
   25.3919  -16.6075  -16.5063 N   0  0  0  0  0  0  0  0  0  0  0  0
   25.5543  -16.5658  -17.9373 C   0  0  0  0  0  0  0  0  0  0  0  0
   26.1180  -15.5800  -18.4266 O   0  0  0  0  0  0  0  0  0  0  0  0
   25.0714  -17.6594  -18.7998 C   0  0  0  0  0  0  0  0  0  0  0  0
   24.5989  -18.8369  -18.0427 C   0  0  0  0  0  0  0  0  0  0  0  0
   25.6205  -19.7403  -17.4534 C   0  0  2  0  0  0  0  0  0  0  0  0
   26.2286  -20.6890  -18.3427 N   0  0  0  0  0  0  0  0  0  0  0  0
   25.1123  -20.4684  -16.2499 C   0  0  0  0  0  0  0  0  0  0  0  0
   24.3807  -21.4697  -16.4285 O   0  0  0  0  0  0  0  0  0  0  0  0
   25.8173  -20.2966  -10.0324 C   0  0  0  0  0  0  0  0  0  0  0  0
   25.1656  -20.8615  -11.2644 C   0  0  2  0  0  0  0  0  0  0  0  0
   25.5562  -22.3254  -11.4029 C   0  0  0  0  0  0  0  0  0  0  0  0
   25.6204  -20.1675  -12.5231 C   0  0  0  0  0  0  0  0  0  0  0  0
   24.8648  -20.6780  -13.7428 C   0  0  2  0  0  0  0  0  0  0  0  0
   25.4126  -20.0881  -14.9245 N   0  0  0  0  0  0  0  0  0  0  0  0
   23.4366  -20.3460  -13.5383 C   0  0  0  0  0  0  0  0  0  0  0  0
   23.1417  -19.2248  -13.0684 O   0  0  0  0  0  0  0  0  0  0  0  0
   20.4226  -15.6088  -17.0577 O   0  0  0  0  0  0  0  0  0  0  0  0
   20.4185  -16.9051  -16.5957 C   0  0  0  0  0  0  0  0  0  0  0  0
   19.5598  -17.2655  -15.5963 C   0  0  0  0  0  0  0  0  0  0  0  0
   19.5012  -18.5329  -15.0895 C   0  0  0  0  0  0  0  0  0  0  0  0
   20.3359  -19.5321  -15.5845 C   0  0  0  0  0  0  0  0  0  0  0  0
   20.2860  -20.8854  -15.0173 C   0  0  0  0  0  0  0  0  0  0  0  0
   20.9730  -20.9227  -13.6882 C   0  0  2  0  0  0  0  0  0  0  0  0
   22.3971  -21.2489  -13.8546 N   0  0  0  0  0  0  0  0  0  0  0  0
   20.3491  -21.9119  -12.8092 C   0  0  0  0  0  0  0  0  0  0  0  0
   20.9631  -23.0611  -12.3447 O   0  0  0  0  0  0  0  0  0  0  0  0
   21.1992  -19.1675  -16.5896 C   0  0  0  0  0  0  0  0  0  0  0  0
   21.2494  -17.8908  -17.0914 C   0  0  0  0  0  0  0  0  0  0  0  0
   19.1437  -21.7320  -12.4238 O   0  0  0  0  0  0  0  0  0  0  0  0
  1  2  1  0
  2  4  1  0
  3  2  2  0
  4  5  1  0
  5  6  1  0
  6  7  1  6
  6  8  1  0
  8  9  2  0
 11 10  1  1
 12 11  1  0
 13 11  1  0
 14 13  1  1
 15  8  1  0
 15 14  1  0
 16 25  1  0
 16 14  1  0
 17 16  2  0
 19 18  1  0
 20 19  2  0
 21 20  1  0
 22 21  2  0
 22 28  1  0
 23 22  1  0
 24 23  1  6
 24 26  1  0
 24 25  1  0
 26 27  1  0
 28 29  2  0
 29 19  1  0
 30 26  2  0
M  END
$$$$
