QLY.pdb
     RDKit          3D

 30 30  0  0  1  0  0  0  0  0999 V2000
   28.2068  -26.1702  -16.4684 N   0  0  0  0  0  0  0  0  0  0  0  0
   28.2330  -25.3772  -17.6709 C   0  0  0  0  0  0  0  0  0  0  0  0
   28.4944  -25.9497  -18.7353 O   0  0  0  0  0  0  0  0  0  0  0  0
   27.9549  -23.9298  -17.6458 C   0  0  0  0  0  0  0  0  0  0  0  0
   27.6969  -23.4068  -16.2883 C   0  0  0  0  0  0  0  0  0  0  0  0
   26.6120  -22.4052  -16.1236 C   0  0  2  0  0  0  0  0  0  0  0  0
   26.8089  -21.1345  -16.7618 N   0  0  0  0  0  0  0  0  0  0  0  0
   26.2635  -22.1722  -14.6880 C   0  0  0  0  0  0  0  0  0  0  0  0
   25.9751  -23.1647  -13.9798 O   0  0  0  0  0  0  0  0  0  0  0  0
   28.6912  -21.8188  -11.6924 C   0  0  0  0  0  0  0  0  0  0  0  0
   28.5679  -20.5306  -12.4587 C   0  0  2  0  0  0  0  0  0  0  0  0
   29.6804  -19.5884  -12.0234 C   0  0  0  0  0  0  0  0  0  0  0  0
   27.2650  -19.8233  -12.1854 C   0  0  0  0  0  0  0  0  0  0  0  0
   26.0777  -20.6306  -12.6931 C   0  0  2  0  0  0  0  0  0  0  0  0
   26.2422  -20.8948  -14.0887 N   0  0  0  0  0  0  0  0  0  0  0  0
   24.8591  -19.8455  -12.3920 C   0  0  0  0  0  0  0  0  0  0  0  0
   24.4287  -19.8311  -11.2176 O   0  0  0  0  0  0  0  0  0  0  0  0
   18.4325  -21.3814  -18.0812 O   0  0  0  0  0  0  0  0  0  0  0  0
   19.6057  -21.1908  -17.3877 C   0  0  0  0  0  0  0  0  0  0  0  0
   19.8515  -19.9874  -16.7898 C   0  0  0  0  0  0  0  0  0  0  0  0
   20.9935  -19.7281  -16.0860 C   0  0  0  0  0  0  0  0  0  0  0  0
   21.9763  -20.7053  -15.9471 C   0  0  0  0  0  0  0  0  0  0  0  0
   23.2125  -20.4113  -15.2116 C   0  0  0  0  0  0  0  0  0  0  0  0
   22.9178  -19.5830  -14.0005 C   0  0  2  0  0  0  0  0  0  0  0  0
   24.1667  -19.1136  -13.3824 N   0  0  0  0  0  0  0  0  0  0  0  0
   22.1514  -20.3520  -13.0198 C   0  0  0  0  0  0  0  0  0  0  0  0
   20.9872  -19.9228  -12.4083 O   0  0  0  0  0  0  0  0  0  0  0  0
   21.7273  -21.9151  -16.5495 C   0  0  0  0  0  0  0  0  0  0  0  0
   20.5761  -22.1647  -17.2543 C   0  0  0  0  0  0  0  0  0  0  0  0
   22.5629  -21.5127  -12.6776 O   0  0  0  0  0  0  0  0  0  0  0  0
  1  2  1  0
  2  4  1  0
  3  2  2  0
  4  5  1  0
  5  6  1  0
  6  7  1  1
  6  8  1  0
  8  9  2  0
 11 10  1  1
 12 11  1  0
 13 11  1  0
 14 13  1  6
 15  8  1  0
 15 14  1  0
 16 25  1  0
 16 14  1  0
 17 16  2  0
 19 18  1  0
 20 19  2  0
 21 20  1  0
 22 21  2  0
 22 28  1  0
 23 22  1  0
 24 23  1  6
 24 26  1  0
 24 25  1  0
 26 27  1  0
 28 29  2  0
 29 19  1  0
 30 26  2  0
M  END
$$$$
