QLY.pdb
     RDKit          3D

 30 30  0  0  1  0  0  0  0  0999 V2000
   18.2492  -22.0308    5.3105 N   0  0  0  0  0  0  0  0  0  0  0  0
   17.2259  -21.4099    4.5087 C   0  0  0  0  0  0  0  0  0  0  0  0
   16.7405  -22.0672    3.5806 O   0  0  0  0  0  0  0  0  0  0  0  0
   16.7617  -20.0372    4.7793 C   0  0  0  0  0  0  0  0  0  0  0  0
   17.2973  -19.4754    6.0365 C   0  0  0  0  0  0  0  0  0  0  0  0
   16.7700  -18.1633    6.4919 C   0  0  2  0  0  0  0  0  0  0  0  0
   16.6243  -17.1466    5.4889 N   0  0  0  0  0  0  0  0  0  0  0  0
   17.5515  -17.6000    7.6359 C   0  0  0  0  0  0  0  0  0  0  0  0
   16.9787  -17.4832    8.7441 O   0  0  0  0  0  0  0  0  0  0  0  0
   21.7128  -18.6198    9.9104 C   0  0  0  0  0  0  0  0  0  0  0  0
   21.6888  -18.2441    8.4543 C   0  0  2  0  0  0  0  0  0  0  0  0
   23.1085  -18.2894    7.9090 C   0  0  0  0  0  0  0  0  0  0  0  0
   21.1805  -16.8423    8.2322 C   0  0  0  0  0  0  0  0  0  0  0  0
   19.7108  -16.7179    8.6108 C   0  0  2  0  0  0  0  0  0  0  0  0
   18.8990  -17.1934    7.5339 N   0  0  0  0  0  0  0  0  0  0  0  0
   19.4658  -15.2946    8.9360 C   0  0  0  0  0  0  0  0  0  0  0  0
   19.2562  -14.4918    7.9998 O   0  0  0  0  0  0  0  0  0  0  0  0
   25.7439  -12.9041   11.2915 O   0  0  0  0  0  0  0  0  0  0  0  0
   24.4206  -12.8004   10.9284 C   0  0  0  0  0  0  0  0  0  0  0  0
   23.8871  -13.6986   10.0483 C   0  0  0  0  0  0  0  0  0  0  0  0
   22.5827  -13.6561    9.6439 C   0  0  0  0  0  0  0  0  0  0  0  0
   21.7244  -12.6704   10.1256 C   0  0  0  0  0  0  0  0  0  0  0  0
   20.3309  -12.6149    9.6669 C   0  0  0  0  0  0  0  0  0  0  0  0
   19.4418  -13.3798   10.5966 C   0  0  2  0  0  0  0  0  0  0  0  0
   19.4603  -14.8119   10.2638 N   0  0  0  0  0  0  0  0  0  0  0  0
   18.0672  -12.8838   10.5255 C   0  0  0  0  0  0  0  0  0  0  0  0
   16.9749  -13.6273   10.1165 O   0  0  0  0  0  0  0  0  0  0  0  0
   22.2631  -11.7677   11.0107 C   0  0  0  0  0  0  0  0  0  0  0  0
   23.5753  -11.8200   11.4102 C   0  0  0  0  0  0  0  0  0  0  0  0
   17.8225  -11.6740   10.8575 O   0  0  0  0  0  0  0  0  0  0  0  0
  1  2  1  0
  2  4  1  0
  3  2  2  0
  4  5  1  0
  5  6  1  0
  6  7  1  6
  6  8  1  0
  8  9  2  0
 11 10  1  1
 12 11  1  0
 13 11  1  0
 14 13  1  6
 15  8  1  0
 15 14  1  0
 16 25  1  0
 16 14  1  0
 17 16  2  0
 19 18  1  0
 20 19  2  0
 21 20  1  0
 22 21  2  0
 22 28  1  0
 23 22  1  0
 24 23  1  6
 24 26  1  0
 24 25  1  0
 26 27  1  0
 28 29  2  0
 29 19  1  0
 30 26  2  0
M  END
$$$$
