QLY.pdb
     RDKit          3D

 30 30  0  0  1  0  0  0  0  0999 V2000
   22.3121  -16.5521  -17.1862 N   0  0  0  0  0  0  0  0  0  0  0  0
   22.5850  -16.4467  -18.5969 C   0  0  0  0  0  0  0  0  0  0  0  0
   22.5927  -17.4881  -19.2636 O   0  0  0  0  0  0  0  0  0  0  0  0
   22.8441  -15.1441  -19.2365 C   0  0  0  0  0  0  0  0  0  0  0  0
   22.7934  -14.0083  -18.2929 C   0  0  0  0  0  0  0  0  0  0  0  0
   22.9726  -12.6396  -18.8420 C   0  0  2  0  0  0  0  0  0  0  0  0
   23.9804  -12.4795  -19.8518 N   0  0  0  0  0  0  0  0  0  0  0  0
   23.2002  -11.6203  -17.7714 C   0  0  0  0  0  0  0  0  0  0  0  0
   22.3766  -11.5569  -16.8293 O   0  0  0  0  0  0  0  0  0  0  0  0
   26.6398  -11.4798  -15.3403 C   0  0  0  0  0  0  0  0  0  0  0  0
   26.9052  -10.7438  -16.6247 C   0  0  2  0  0  0  0  0  0  0  0  0
   28.3676  -10.3254  -16.6612 C   0  0  0  0  0  0  0  0  0  0  0  0
   26.0874   -9.4828  -16.7425 C   0  0  0  0  0  0  0  0  0  0  0  0
   24.5950   -9.7857  -16.7325 C   0  0  2  0  0  0  0  0  0  0  0  0
   24.2924  -10.7268  -17.7656 N   0  0  0  0  0  0  0  0  0  0  0  0
   23.8895   -8.4950  -16.8999 C   0  0  0  0  0  0  0  0  0  0  0  0
   24.1604   -7.7869  -17.8948 O   0  0  0  0  0  0  0  0  0  0  0  0
   17.8955   -2.7361  -18.6606 O   0  0  0  0  0  0  0  0  0  0  0  0
   18.6616   -3.8379  -18.3556 C   0  0  0  0  0  0  0  0  0  0  0  0
   20.0224   -3.7635  -18.4478 C   0  0  0  0  0  0  0  0  0  0  0  0
   20.8442   -4.8165  -18.1607 C   0  0  0  0  0  0  0  0  0  0  0  0
   20.3130   -6.0378  -17.7525 C   0  0  0  0  0  0  0  0  0  0  0  0
   21.2006   -7.1729  -17.4708 C   0  0  0  0  0  0  0  0  0  0  0  0
   22.0265   -6.9031  -16.2522 C   0  0  2  0  0  0  0  0  0  0  0  0
   22.9229   -8.0358  -15.9775 N   0  0  0  0  0  0  0  0  0  0  0  0
   21.1722   -6.6682  -15.0879 C   0  0  0  0  0  0  0  0  0  0  0  0
   20.7083   -5.4305  -14.6800 O   0  0  0  0  0  0  0  0  0  0  0  0
   18.9438   -6.1106  -17.6606 C   0  0  0  0  0  0  0  0  0  0  0  0
   18.1277   -5.0460  -17.9514 C   0  0  0  0  0  0  0  0  0  0  0  0
   20.8103   -7.6612  -14.3691 O   0  0  0  0  0  0  0  0  0  0  0  0
  1  2  1  0
  2  4  1  0
  3  2  2  0
  4  5  1  0
  5  6  1  0
  6  7  1  6
  6  8  1  0
  8  9  2  0
 11 10  1  1
 12 11  1  0
 13 11  1  0
 14 13  1  6
 15  8  1  0
 15 14  1  0
 16 25  1  0
 16 14  1  0
 17 16  2  0
 19 18  1  0
 20 19  2  0
 21 20  1  0
 22 21  2  0
 22 28  1  0
 23 22  1  0
 24 23  1  6
 24 26  1  0
 24 25  1  0
 26 27  1  0
 28 29  2  0
 29 19  1  0
 30 26  2  0
M  END
$$$$
