QLY.pdb
     RDKit          3D

 30 30  0  0  1  0  0  0  0  0999 V2000
   27.2124  -16.4494  -14.8128 N   0  0  0  0  0  0  0  0  0  0  0  0
   27.6030  -17.2252  -15.9622 C   0  0  0  0  0  0  0  0  0  0  0  0
   28.7805  -17.1560  -16.3333 O   0  0  0  0  0  0  0  0  0  0  0  0
   26.6394  -18.0806  -16.6783 C   0  0  0  0  0  0  0  0  0  0  0  0
   25.8603  -18.9608  -15.7833 C   0  0  0  0  0  0  0  0  0  0  0  0
   26.6091  -19.8493  -14.8575 C   0  0  2  0  0  0  0  0  0  0  0  0
   27.5446  -20.7587  -15.4562 N   0  0  0  0  0  0  0  0  0  0  0  0
   25.7043  -20.6204  -13.9498 C   0  0  0  0  0  0  0  0  0  0  0  0
   24.9964  -21.5258  -14.4487 O   0  0  0  0  0  0  0  0  0  0  0  0
   26.9956  -22.1841  -10.2629 C   0  0  0  0  0  0  0  0  0  0  0  0
   26.4993  -20.7828  -10.0348 C   0  0  2  0  0  0  0  0  0  0  0  0
   26.7772  -20.3891   -8.5917 C   0  0  0  0  0  0  0  0  0  0  0  0
   25.0110  -20.6609  -10.2417 C   0  0  0  0  0  0  0  0  0  0  0  0
   24.6258  -20.9470  -11.6869 C   0  0  2  0  0  0  0  0  0  0  0  0
   25.6055  -20.3827  -12.5624 N   0  0  0  0  0  0  0  0  0  0  0  0
   23.2718  -20.3853  -11.8941 C   0  0  0  0  0  0  0  0  0  0  0  0
   23.0817  -19.1721  -11.6559 O   0  0  0  0  0  0  0  0  0  0  0  0
   17.3807  -18.0615  -17.6307 O   0  0  0  0  0  0  0  0  0  0  0  0
   18.3898  -18.6385  -16.8941 C   0  0  0  0  0  0  0  0  0  0  0  0
   19.0359  -17.9058  -15.9393 C   0  0  0  0  0  0  0  0  0  0  0  0
   20.0455  -18.4134  -15.1715 C   0  0  0  0  0  0  0  0  0  0  0  0
   20.4660  -19.7310  -15.3365 C   0  0  0  0  0  0  0  0  0  0  0  0
   21.5691  -20.2620  -14.5261 C   0  0  0  0  0  0  0  0  0  0  0  0
   21.0867  -20.6238  -13.1563 C   0  0  2  0  0  0  0  0  0  0  0  0
   22.1889  -21.1696  -12.3505 N   0  0  0  0  0  0  0  0  0  0  0  0
   20.0068  -21.6081  -13.2296 C   0  0  0  0  0  0  0  0  0  0  0  0
   18.6654  -21.3312  -13.0370 O   0  0  0  0  0  0  0  0  0  0  0  0
   19.8150  -20.4663  -16.2977 C   0  0  0  0  0  0  0  0  0  0  0  0
   18.8016  -19.9460  -17.0635 C   0  0  0  0  0  0  0  0  0  0  0  0
   20.2906  -22.8276  -13.4871 O   0  0  0  0  0  0  0  0  0  0  0  0
  1  2  1  0
  2  4  1  0
  3  2  2  0
  4  5  1  0
  5  6  1  0
  6  7  1  6
  6  8  1  0
  8  9  2  0
 11 10  1  1
 12 11  1  0
 13 11  1  0
 14 13  1  1
 15  8  1  0
 15 14  1  0
 16 25  1  0
 16 14  1  0
 17 16  2  0
 19 18  1  0
 20 19  2  0
 21 20  1  0
 22 21  2  0
 22 28  1  0
 23 22  1  0
 24 23  1  6
 24 26  1  0
 24 25  1  0
 26 27  1  0
 28 29  2  0
 29 19  1  0
 30 26  2  0
M  END
$$$$
