QLY.pdb
     RDKit          3D

 30 30  0  0  1  0  0  0  0  0999 V2000
   25.6306  -19.7762  -20.1399 N   0  0  0  0  0  0  0  0  0  0  0  0
   25.3320  -18.3705  -20.0371 C   0  0  0  0  0  0  0  0  0  0  0  0
   25.5884  -17.6524  -21.0106 O   0  0  0  0  0  0  0  0  0  0  0  0
   24.7361  -17.7964  -18.8172 C   0  0  0  0  0  0  0  0  0  0  0  0
   24.6208  -18.7672  -17.7094 C   0  0  0  0  0  0  0  0  0  0  0  0
   24.0598  -18.2874  -16.4201 C   0  0  2  0  0  0  0  0  0  0  0  0
   24.6698  -17.1201  -15.8490 N   0  0  0  0  0  0  0  0  0  0  0  0
   24.0162  -19.3626  -15.3813 C   0  0  0  0  0  0  0  0  0  0  0  0
   25.0850  -19.9476  -15.0891 O   0  0  0  0  0  0  0  0  0  0  0  0
   24.0451  -20.7273  -10.0739 C   0  0  0  0  0  0  0  0  0  0  0  0
   23.6332  -21.3129  -11.3964 C   0  0  2  0  0  0  0  0  0  0  0  0
   24.6288  -22.3941  -11.7896 C   0  0  0  0  0  0  0  0  0  0  0  0
   23.6401  -20.2898  -12.5036 C   0  0  0  0  0  0  0  0  0  0  0  0
   22.7530  -20.7210  -13.6638 C   0  0  2  0  0  0  0  0  0  0  0  0
   22.8362  -19.7533  -14.7132 N   0  0  0  0  0  0  0  0  0  0  0  0
   21.3821  -20.8765  -13.1269 C   0  0  0  0  0  0  0  0  0  0  0  0
   20.9083  -19.9632  -12.4153 O   0  0  0  0  0  0  0  0  0  0  0  0
   17.2971  -17.5806  -16.9697 O   0  0  0  0  0  0  0  0  0  0  0  0
   17.5828  -18.7592  -16.3193 C   0  0  0  0  0  0  0  0  0  0  0  0
   16.6981  -19.2618  -15.4079 C   0  0  0  0  0  0  0  0  0  0  0  0
   16.9163  -20.4253  -14.7258 C   0  0  0  0  0  0  0  0  0  0  0  0
   18.0786  -21.1629  -14.9383 C   0  0  0  0  0  0  0  0  0  0  0  0
   18.3187  -22.3986  -14.1827 C   0  0  0  0  0  0  0  0  0  0  0  0
   19.1805  -22.1251  -12.9901 C   0  0  2  0  0  0  0  0  0  0  0  0
   20.5916  -22.0177  -13.3892 N   0  0  0  0  0  0  0  0  0  0  0  0
   19.0387  -23.1863  -11.9930 C   0  0  0  0  0  0  0  0  0  0  0  0
   18.0700  -23.2247  -11.0063 O   0  0  0  0  0  0  0  0  0  0  0  0
   18.9675  -20.6553  -15.8553 C   0  0  0  0  0  0  0  0  0  0  0  0
   18.7379  -19.4852  -16.5351 C   0  0  0  0  0  0  0  0  0  0  0  0
   19.8582  -24.1672  -12.0050 O   0  0  0  0  0  0  0  0  0  0  0  0
  1  2  1  0
  2  4  1  0
  3  2  2  0
  4  5  1  0
  5  6  1  0
  6  7  1  1
  6  8  1  0
  8  9  2  0
 11 10  1  1
 12 11  1  0
 13 11  1  0
 14 13  1  1
 15  8  1  0
 15 14  1  0
 16 25  1  0
 16 14  1  0
 17 16  2  0
 19 18  1  0
 20 19  2  0
 21 20  1  0
 22 21  2  0
 22 28  1  0
 23 22  1  0
 24 23  1  6
 24 26  1  0
 24 25  1  0
 26 27  1  0
 28 29  2  0
 29 19  1  0
 30 26  2  0
M  END
$$$$
