QLY.pdb
     RDKit          3D

 30 30  0  0  1  0  0  0  0  0999 V2000
   17.3267  -14.2366  -15.2683 N   0  0  0  0  0  0  0  0  0  0  0  0
   18.3502  -15.1004  -15.7991 C   0  0  0  0  0  0  0  0  0  0  0  0
   18.1338  -16.3179  -15.8040 O   0  0  0  0  0  0  0  0  0  0  0  0
   19.6170  -14.5612  -16.3258 C   0  0  0  0  0  0  0  0  0  0  0  0
   19.6934  -13.0867  -16.2705 C   0  0  0  0  0  0  0  0  0  0  0  0
   19.0208  -12.3148  -17.3471 C   0  0  2  0  0  0  0  0  0  0  0  0
   19.4948  -12.5312  -18.6847 N   0  0  0  0  0  0  0  0  0  0  0  0
   19.0104  -10.8444  -17.0739 C   0  0  0  0  0  0  0  0  0  0  0  0
   19.9710  -10.1574  -17.4924 O   0  0  0  0  0  0  0  0  0  0  0  0
   16.6080   -7.1001  -18.2631 C   0  0  0  0  0  0  0  0  0  0  0  0
   15.9411   -8.2062  -17.4927 C   0  0  2  0  0  0  0  0  0  0  0  0
   14.4548   -7.9018  -17.3777 C   0  0  0  0  0  0  0  0  0  0  0  0
   16.4719   -8.3268  -16.0869 C   0  0  0  0  0  0  0  0  0  0  0  0
   17.9223   -8.7910  -16.0788 C   0  0  2  0  0  0  0  0  0  0  0  0
   17.9770  -10.1898  -16.3704 N   0  0  0  0  0  0  0  0  0  0  0  0
   18.4777   -8.4547  -14.7483 C   0  0  0  0  0  0  0  0  0  0  0  0
   18.2281   -9.2116  -13.7842 O   0  0  0  0  0  0  0  0  0  0  0  0
   23.3456   -3.0648  -16.8378 O   0  0  0  0  0  0  0  0  0  0  0  0
   22.8606   -4.0617  -16.0224 C   0  0  0  0  0  0  0  0  0  0  0  0
   22.6784   -3.8191  -14.6906 C   0  0  0  0  0  0  0  0  0  0  0  0
   22.2010   -4.7608  -13.8234 C   0  0  0  0  0  0  0  0  0  0  0  0
   21.8734   -6.0371  -14.2749 C   0  0  0  0  0  0  0  0  0  0  0  0
   21.3857   -7.0521  -13.3328 C   0  0  0  0  0  0  0  0  0  0  0  0
   19.8935   -6.9993  -13.2310 C   0  0  2  0  0  0  0  0  0  0  0  0
   19.2782   -7.3113  -14.5296 N   0  0  0  0  0  0  0  0  0  0  0  0
   19.4499   -5.6766  -12.7903 C   0  0  0  0  0  0  0  0  0  0  0  0
   19.5841   -5.1811  -11.5059 O   0  0  0  0  0  0  0  0  0  0  0  0
   22.0577   -6.2792  -15.6150 C   0  0  0  0  0  0  0  0  0  0  0  0
   22.5379   -5.3254  -16.4774 C   0  0  0  0  0  0  0  0  0  0  0  0
   18.8890   -4.8944  -13.6314 O   0  0  0  0  0  0  0  0  0  0  0  0
  1  2  1  0
  2  4  1  0
  3  2  2  0
  4  5  1  0
  5  6  1  0
  6  7  1  6
  6  8  1  0
  8  9  2  0
 11 10  1  1
 12 11  1  0
 13 11  1  0
 14 13  1  1
 15  8  1  0
 15 14  1  0
 16 25  1  0
 16 14  1  0
 17 16  2  0
 19 18  1  0
 20 19  2  0
 21 20  1  0
 22 21  2  0
 22 28  1  0
 23 22  1  0
 24 23  1  6
 24 26  1  0
 24 25  1  0
 26 27  1  0
 28 29  2  0
 29 19  1  0
 30 26  2  0
M  END
$$$$
