SGD.pdb
     RDKit          3D

 19 18  0  0  1  0  0  0  0  0999 V2000
   15.4573  -11.6695  -15.2930 O   0  0  0  0  0  0  0  0  0  0  0  0
   15.7648  -12.8497  -15.9645 C   0  0  0  0  0  0  0  0  0  0  0  0
   17.1931  -13.2044  -15.6977 C   0  0  2  0  0  0  0  0  0  0  0  0
   17.4559  -13.3775  -14.2777 N   0  0  0  0  0  0  0  0  0  0  0  0
   18.0874  -12.1617  -16.2625 C   0  0  0  0  0  0  0  0  0  0  0  0
   18.0644  -11.9760  -17.5011 O   0  0  0  0  0  0  0  0  0  0  0  0
   18.9387  -11.4013  -15.4245 N   0  0  0  0  0  0  0  0  0  0  0  0
   19.7576  -10.3474  -16.0006 C   0  0  0  0  0  0  0  0  0  0  0  0
   19.7622   -9.1852  -15.1043 C   0  0  0  0  0  0  0  0  0  0  0  0
   18.9731   -9.0975  -14.1142 O   0  0  0  0  0  0  0  0  0  0  0  0
   20.6601   -8.1351  -15.3393 N   0  0  0  0  0  0  0  0  0  0  0  0
   20.7435   -6.9477  -14.4501 C   0  0  1  0  0  0  0  0  0  0  0  0
   22.1784   -6.5147  -14.4531 C   0  0  0  0  0  0  0  0  0  0  0  0
   22.3818   -5.3574  -13.5799 C   0  0  0  0  0  0  0  0  0  0  0  0
   22.5315   -5.4906  -12.3553 O   0  0  0  0  0  0  0  0  0  0  0  0
   19.9111   -5.8789  -15.0622 C   0  0  0  0  0  0  0  0  0  0  0  0
   19.7222   -5.7674  -16.2821 O   0  0  0  0  0  0  0  0  0  0  0  0
   22.4110   -4.0674  -14.1155 O   0  0  0  0  0  0  0  0  0  0  0  0
   19.2850   -4.9181  -14.2356 O   0  0  0  0  0  0  0  0  0  0  0  0
  2  1  1  0
  3  2  1  0
  3  4  1  1
  5  3  1  0
  6  5  2  0
  7  5  1  0
  8  7  1  0
  9  8  1  0
  9 10  2  0
 11  9  1  0
 12 11  1  0
 12 13  1  6
 14 13  1  0
 15 14  2  0
 16 12  1  0
 17 16  2  0
 18 14  1  0
 19 16  1  0
M  END
$$$$
