SGD.pdb
     RDKit          3D

 19 18  0  0  1  0  0  0  0  0999 V2000
   20.3288  -13.1487  -18.0586 O   0  0  0  0  0  0  0  0  0  0  0  0
   19.2871  -12.4213  -17.4894 C   0  0  0  0  0  0  0  0  0  0  0  0
   19.6804  -10.9800  -17.4190 C   0  0  2  0  0  0  0  0  0  0  0  0
   21.0637  -10.8121  -17.0019 N   0  0  0  0  0  0  0  0  0  0  0  0
   18.7732  -10.2524  -16.4952 C   0  0  0  0  0  0  0  0  0  0  0  0
   17.5572  -10.1943  -16.7906 O   0  0  0  0  0  0  0  0  0  0  0  0
   19.2695   -9.6444  -15.3166 N   0  0  0  0  0  0  0  0  0  0  0  0
   18.3660   -8.8903  -14.4633 C   0  0  0  0  0  0  0  0  0  0  0  0
   18.7693   -7.4791  -14.4487 C   0  0  0  0  0  0  0  0  0  0  0  0
   18.2511   -6.6408  -13.6491 O   0  0  0  0  0  0  0  0  0  0  0  0
   19.7548   -7.0330  -15.3397 N   0  0  0  0  0  0  0  0  0  0  0  0
   20.2515   -5.6327  -15.3381 C   0  0  1  0  0  0  0  0  0  0  0  0
   21.7358   -5.7087  -15.1444 C   0  0  0  0  0  0  0  0  0  0  0  0
   22.0701   -6.0574  -13.7624 C   0  0  0  0  0  0  0  0  0  0  0  0
   22.1346   -5.1920  -12.8754 O   0  0  0  0  0  0  0  0  0  0  0  0
   19.9642   -5.0613  -16.6801 C   0  0  0  0  0  0  0  0  0  0  0  0
   20.1859   -3.8812  -16.9875 O   0  0  0  0  0  0  0  0  0  0  0  0
   22.3258   -7.3858  -13.4133 O   0  0  0  0  0  0  0  0  0  0  0  0
   19.4059   -5.8821  -17.6866 O   0  0  0  0  0  0  0  0  0  0  0  0
  2  1  1  0
  3  2  1  0
  3  4  1  1
  5  3  1  0
  6  5  2  0
  7  5  1  0
  8  7  1  0
  9  8  1  0
  9 10  2  0
 11  9  1  0
 12 11  1  0
 12 13  1  6
 14 13  1  0
 15 14  2  0
 16 12  1  0
 17 16  2  0
 18 14  1  0
 19 16  1  0
M  END
$$$$
