SGD.pdb
     RDKit          3D

 19 18  0  0  1  0  0  0  0  0999 V2000
   19.0319  -13.2721  -18.4158 O   0  0  0  0  0  0  0  0  0  0  0  0
   18.5677  -11.9654  -18.5398 C   0  0  0  0  0  0  0  0  0  0  0  0
   19.5701  -11.0328  -17.9378 C   0  0  2  0  0  0  0  0  0  0  0  0
   19.8638  -11.3678  -16.5532 N   0  0  0  0  0  0  0  0  0  0  0  0
   19.0820   -9.6335  -18.0355 C   0  0  0  0  0  0  0  0  0  0  0  0
   17.8664   -9.4190  -17.8220 O   0  0  0  0  0  0  0  0  0  0  0  0
   19.9655   -8.5754  -18.3596 N   0  0  0  0  0  0  0  0  0  0  0  0
   19.4508   -7.2208  -18.4746 C   0  0  0  0  0  0  0  0  0  0  0  0
   19.6562   -6.5094  -17.2074 C   0  0  0  0  0  0  0  0  0  0  0  0
   19.4849   -5.2560  -17.1054 O   0  0  0  0  0  0  0  0  0  0  0  0
   20.0532   -7.2252  -16.0698 N   0  0  0  0  0  0  0  0  0  0  0  0
   20.1956   -6.5832  -14.7374 C   0  0  1  0  0  0  0  0  0  0  0  0
   19.6465   -7.5548  -13.7369 C   0  0  0  0  0  0  0  0  0  0  0  0
   19.8852   -7.0936  -12.3681 C   0  0  0  0  0  0  0  0  0  0  0  0
   20.3696   -5.9744  -12.1389 O   0  0  0  0  0  0  0  0  0  0  0  0
   21.6499   -6.3990  -14.4898 C   0  0  0  0  0  0  0  0  0  0  0  0
   22.5314   -7.0891  -15.0216 O   0  0  0  0  0  0  0  0  0  0  0  0
   19.5686   -7.9146  -11.2829 O   0  0  0  0  0  0  0  0  0  0  0  0
   22.0873   -5.3889  -13.6029 O   0  0  0  0  0  0  0  0  0  0  0  0
  2  1  1  0
  3  2  1  0
  3  4  1  1
  5  3  1  0
  6  5  2  0
  7  5  1  0
  8  7  1  0
  9  8  1  0
  9 10  2  0
 11  9  1  0
 12 11  1  0
 12 13  1  1
 14 13  1  0
 15 14  2  0
 16 12  1  0
 17 16  2  0
 18 14  1  0
 19 16  1  0
M  END
$$$$
