SGD.pdb
     RDKit          3D

 19 18  0  0  1  0  0  0  0  0999 V2000
   11.9152  -10.1680   -8.2094 O   0  0  0  0  0  0  0  0  0  0  0  0
   12.6013   -8.9618   -8.0967 C   0  0  0  0  0  0  0  0  0  0  0  0
   13.5138   -8.8084   -9.2718 C   0  0  2  0  0  0  0  0  0  0  0  0
   14.4521   -9.9143   -9.3815 N   0  0  0  0  0  0  0  0  0  0  0  0
   14.2466   -7.5200   -9.1786 C   0  0  0  0  0  0  0  0  0  0  0  0
   13.5909   -6.4900   -8.8984 O   0  0  0  0  0  0  0  0  0  0  0  0
   15.6440   -7.4598   -9.3994 N   0  0  0  0  0  0  0  0  0  0  0  0
   16.3560   -6.2161   -9.1556 C   0  0  0  0  0  0  0  0  0  0  0  0
   17.7744   -6.3897   -9.4908 C   0  0  0  0  0  0  0  0  0  0  0  0
   18.5667   -7.0399   -8.7424 O   0  0  0  0  0  0  0  0  0  0  0  0
   18.2797   -5.8249  -10.6697 N   0  0  0  0  0  0  0  0  0  0  0  0
   19.3946   -6.4439  -11.4322 C   0  0  1  0  0  0  0  0  0  0  0  0
   18.9157   -7.7978  -11.8612 C   0  0  0  0  0  0  0  0  0  0  0  0
   19.8481   -8.4113  -12.8085 C   0  0  0  0  0  0  0  0  0  0  0  0
   21.0054   -7.9845  -12.9439 O   0  0  0  0  0  0  0  0  0  0  0  0
   19.6244   -5.6043  -12.6374 C   0  0  0  0  0  0  0  0  0  0  0  0
   20.6502   -5.6616  -13.3307 O   0  0  0  0  0  0  0  0  0  0  0  0
   19.4473   -9.5005  -13.5862 O   0  0  0  0  0  0  0  0  0  0  0  0
   18.6378   -4.6771  -13.0441 O   0  0  0  0  0  0  0  0  0  0  0  0
  2  1  1  0
  3  2  1  0
  3  4  1  1
  5  3  1  0
  6  5  2  0
  7  5  1  0
  8  7  1  0
  9  8  1  0
  9 10  2  0
 11  9  1  0
 12 11  1  0
 12 13  1  6
 14 13  1  0
 15 14  2  0
 16 12  1  0
 17 16  2  0
 18 14  1  0
 19 16  1  0
M  END
$$$$
