SGD.pdb
     RDKit          3D

 19 18  0  0  1  0  0  0  0  0999 V2000
   16.3156  -13.3202  -14.9563 O   0  0  0  0  0  0  0  0  0  0  0  0
   16.6116  -12.4486  -16.0008 C   0  0  0  0  0  0  0  0  0  0  0  0
   18.0715  -12.1254  -15.9672 C   0  0  2  0  0  0  0  0  0  0  0  0
   18.6537  -12.3682  -14.6567 N   0  0  0  0  0  0  0  0  0  0  0  0
   18.2865  -10.7125  -16.3713 C   0  0  0  0  0  0  0  0  0  0  0  0
   17.9891  -10.3848  -17.5433 O   0  0  0  0  0  0  0  0  0  0  0  0
   18.8109   -9.7660  -15.4579 N   0  0  0  0  0  0  0  0  0  0  0  0
   19.0335   -8.3968  -15.8924 C   0  0  0  0  0  0  0  0  0  0  0  0
   20.3020   -7.9074  -15.3395 C   0  0  0  0  0  0  0  0  0  0  0  0
   21.1280   -8.6818  -14.7662 O   0  0  0  0  0  0  0  0  0  0  0  0
   20.6208   -6.5464  -15.4418 N   0  0  0  0  0  0  0  0  0  0  0  0
   21.8652   -5.9769  -14.8634 C   0  0  1  0  0  0  0  0  0  0  0  0
   22.0442   -4.6260  -15.4876 C   0  0  0  0  0  0  0  0  0  0  0  0
   22.3654   -4.7412  -16.9112 C   0  0  0  0  0  0  0  0  0  0  0  0
   22.9218   -5.7519  -17.3681 O   0  0  0  0  0  0  0  0  0  0  0  0
   21.6382   -5.8125  -13.4035 C   0  0  0  0  0  0  0  0  0  0  0  0
   20.5258   -5.9070  -12.8651 O   0  0  0  0  0  0  0  0  0  0  0  0
   22.0479   -3.7035  -17.7912 O   0  0  0  0  0  0  0  0  0  0  0  0
   22.7307   -5.5315  -12.5515 O   0  0  0  0  0  0  0  0  0  0  0  0
  2  1  1  0
  3  2  1  0
  3  4  1  1
  5  3  1  0
  6  5  2  0
  7  5  1  0
  8  7  1  0
  9  8  1  0
  9 10  2  0
 11  9  1  0
 12 11  1  0
 12 13  1  6
 14 13  1  0
 15 14  2  0
 16 12  1  0
 17 16  2  0
 18 14  1  0
 19 16  1  0
M  END
$$$$
