SGD.pdb
     RDKit          3D

 19 18  0  0  1  0  0  0  0  0999 V2000
   12.1663  -11.0739   -8.4020 O   0  0  0  0  0  0  0  0  0  0  0  0
   12.6576   -9.7837   -8.5813 C   0  0  0  0  0  0  0  0  0  0  0  0
   13.7717   -9.8205   -9.5785 C   0  0  2  0  0  0  0  0  0  0  0  0
   14.8767  -10.6537   -9.1310 N   0  0  0  0  0  0  0  0  0  0  0  0
   14.2478   -8.4414   -9.8565 C   0  0  0  0  0  0  0  0  0  0  0  0
   13.3911   -7.5657  -10.1185 O   0  0  0  0  0  0  0  0  0  0  0  0
   15.6282   -8.1278   -9.8251 N   0  0  0  0  0  0  0  0  0  0  0  0
   16.0541   -6.7471   -9.9850 C   0  0  0  0  0  0  0  0  0  0  0  0
   17.5015   -6.7054  -10.2249 C   0  0  0  0  0  0  0  0  0  0  0  0
   18.3344   -7.1744   -9.3900 O   0  0  0  0  0  0  0  0  0  0  0  0
   17.9896   -6.1330  -11.4074 N   0  0  0  0  0  0  0  0  0  0  0  0
   19.3778   -6.3604  -11.8855 C   0  0  1  0  0  0  0  0  0  0  0  0
   19.4627   -7.8062  -12.2713 C   0  0  0  0  0  0  0  0  0  0  0  0
   20.7537   -8.1118  -12.8903 C   0  0  0  0  0  0  0  0  0  0  0  0
   21.7823   -7.4912  -12.5792 O   0  0  0  0  0  0  0  0  0  0  0  0
   19.5701   -5.5210  -13.0972 C   0  0  0  0  0  0  0  0  0  0  0  0
   20.6641   -5.0525  -13.4434 O   0  0  0  0  0  0  0  0  0  0  0  0
   20.8523   -9.1190  -13.8536 O   0  0  0  0  0  0  0  0  0  0  0  0
   18.4638   -5.2200  -13.9242 O   0  0  0  0  0  0  0  0  0  0  0  0
  2  1  1  0
  3  2  1  0
  3  4  1  1
  5  3  1  0
  6  5  2  0
  7  5  1  0
  8  7  1  0
  9  8  1  0
  9 10  2  0
 11  9  1  0
 12 11  1  0
 12 13  1  6
 14 13  1  0
 15 14  2  0
 16 12  1  0
 17 16  2  0
 18 14  1  0
 19 16  1  0
M  END
$$$$
