SGD.pdb
     RDKit          3D

 19 18  0  0  1  0  0  0  0  0999 V2000
   20.6560   -2.0417  -18.6372 O   0  0  0  0  0  0  0  0  0  0  0  0
   21.0818   -2.6434  -17.4561 C   0  0  0  0  0  0  0  0  0  0  0  0
   21.4007   -1.5794  -16.4545 C   0  0  2  0  0  0  0  0  0  0  0  0
   22.2008   -0.5102  -17.0308 N   0  0  0  0  0  0  0  0  0  0  0  0
   22.1025   -2.1755  -15.2892 C   0  0  0  0  0  0  0  0  0  0  0  0
   22.9025   -1.4521  -14.6520 O   0  0  0  0  0  0  0  0  0  0  0  0
   21.8724   -3.5206  -14.9110 N   0  0  0  0  0  0  0  0  0  0  0  0
   22.5845   -4.0776  -13.7727 C   0  0  0  0  0  0  0  0  0  0  0  0
   22.1921   -5.4797  -13.5876 C   0  0  0  0  0  0  0  0  0  0  0  0
   21.7374   -5.9098  -12.4835 O   0  0  0  0  0  0  0  0  0  0  0  0
   22.3189   -6.3792  -14.6549 N   0  0  0  0  0  0  0  0  0  0  0  0
   21.5694   -7.6611  -14.7062 C   0  0  1  0  0  0  0  0  0  0  0  0
   20.1937   -7.3293  -15.1999 C   0  0  0  0  0  0  0  0  0  0  0  0
   19.3795   -8.5374  -15.3439 C   0  0  0  0  0  0  0  0  0  0  0  0
   19.4021   -9.2113  -16.3856 O   0  0  0  0  0  0  0  0  0  0  0  0
   22.2484   -8.5295  -15.7036 C   0  0  0  0  0  0  0  0  0  0  0  0
   22.8783   -8.0952  -16.6787 O   0  0  0  0  0  0  0  0  0  0  0  0
   18.5526   -8.9582  -14.2992 O   0  0  0  0  0  0  0  0  0  0  0  0
   22.1925   -9.9350  -15.5627 O   0  0  0  0  0  0  0  0  0  0  0  0
  2  1  1  0
  3  2  1  0
  3  4  1  6
  5  3  1  0
  6  5  2  0
  7  5  1  0
  8  7  1  0
  9  8  1  0
  9 10  2  0
 11  9  1  0
 12 11  1  0
 12 13  1  6
 14 13  1  0
 15 14  2  0
 16 12  1  0
 17 16  2  0
 18 14  1  0
 19 16  1  0
M  END
$$$$
