SGD.pdb
     RDKit          3D

 19 18  0  0  1  0  0  0  0  0999 V2000
   21.7640   -3.8826  -13.3428 O   0  0  0  0  0  0  0  0  0  0  0  0
   21.4970   -4.8035  -14.3522 C   0  0  0  0  0  0  0  0  0  0  0  0
   21.4776   -6.1788  -13.7648 C   0  0  2  0  0  0  0  0  0  0  0  0
   22.7190   -6.4950  -13.0759 N   0  0  0  0  0  0  0  0  0  0  0  0
   21.2110   -7.1799  -14.8289 C   0  0  0  0  0  0  0  0  0  0  0  0
   22.0964   -7.3664  -15.6953 O   0  0  0  0  0  0  0  0  0  0  0  0
   19.9929   -7.9012  -14.8610 N   0  0  0  0  0  0  0  0  0  0  0  0
   19.7767   -8.8985  -15.8963 C   0  0  0  0  0  0  0  0  0  0  0  0
   18.5051   -9.5897  -15.6529 C   0  0  0  0  0  0  0  0  0  0  0  0
   17.7926   -9.3453  -14.6315 O   0  0  0  0  0  0  0  0  0  0  0  0
   18.0545  -10.5502  -16.5687 N   0  0  0  0  0  0  0  0  0  0  0  0
   16.7978  -11.3155  -16.3628 C   0  0  1  0  0  0  0  0  0  0  0  0
   16.3419  -11.7569  -17.7207 C   0  0  0  0  0  0  0  0  0  0  0  0
   15.9106  -10.6151  -18.5291 C   0  0  0  0  0  0  0  0  0  0  0  0
   14.9553   -9.9027  -18.1831 O   0  0  0  0  0  0  0  0  0  0  0  0
   17.1386  -12.5130  -15.5505 C   0  0  0  0  0  0  0  0  0  0  0  0
   18.2750  -13.0044  -15.4922 O   0  0  0  0  0  0  0  0  0  0  0  0
   16.5741  -10.3034  -19.7185 O   0  0  0  0  0  0  0  0  0  0  0  0
   16.1337  -13.1529  -14.7895 O   0  0  0  0  0  0  0  0  0  0  0  0
  2  1  1  0
  3  2  1  0
  3  4  1  6
  5  3  1  0
  6  5  2  0
  7  5  1  0
  8  7  1  0
  9  8  1  0
  9 10  2  0
 11  9  1  0
 12 11  1  0
 12 13  1  6
 14 13  1  0
 15 14  2  0
 16 12  1  0
 17 16  2  0
 18 14  1  0
 19 16  1  0
M  END
$$$$
