SGD.pdb
     RDKit          3D

 19 18  0  0  1  0  0  0  0  0999 V2000
   14.8681  -11.3765  -15.8741 O   0  0  0  0  0  0  0  0  0  0  0  0
   16.0170  -11.0220  -15.1722 C   0  0  0  0  0  0  0  0  0  0  0  0
   17.2176  -11.4592  -15.9497 C   0  0  2  0  0  0  0  0  0  0  0  0
   17.3090  -12.9079  -16.0427 N   0  0  0  0  0  0  0  0  0  0  0  0
   18.4495  -10.9051  -15.3325 C   0  0  0  0  0  0  0  0  0  0  0  0
   19.1436  -11.6668  -14.6201 O   0  0  0  0  0  0  0  0  0  0  0  0
   18.8268   -9.5569  -15.5446 N   0  0  0  0  0  0  0  0  0  0  0  0
   20.1023   -9.0802  -15.0355 C   0  0  0  0  0  0  0  0  0  0  0  0
   20.2369   -7.6459  -15.3168 C   0  0  0  0  0  0  0  0  0  0  0  0
   19.6735   -7.1015  -16.3152 O   0  0  0  0  0  0  0  0  0  0  0  0
   21.0082   -6.8443  -14.4643 N   0  0  0  0  0  0  0  0  0  0  0  0
   21.1519   -5.3794  -14.6667 C   0  0  1  0  0  0  0  0  0  0  0  0
   19.8138   -4.7755  -14.3648 C   0  0  0  0  0  0  0  0  0  0  0  0
   19.8554   -3.3167  -14.4801 C   0  0  0  0  0  0  0  0  0  0  0  0
   20.6140   -2.7538  -15.2847 O   0  0  0  0  0  0  0  0  0  0  0  0
   22.1421   -4.8915  -13.6709 C   0  0  0  0  0  0  0  0  0  0  0  0
   22.5438   -5.5666  -12.7121 O   0  0  0  0  0  0  0  0  0  0  0  0
   19.0327   -2.5228  -13.6770 O   0  0  0  0  0  0  0  0  0  0  0  0
   22.6762   -3.5885  -13.7939 O   0  0  0  0  0  0  0  0  0  0  0  0
  2  1  1  0
  3  2  1  0
  3  4  1  1
  5  3  1  0
  6  5  2  0
  7  5  1  0
  8  7  1  0
  9  8  1  0
  9 10  2  0
 11  9  1  0
 12 11  1  0
 12 13  1  1
 14 13  1  0
 15 14  2  0
 16 12  1  0
 17 16  2  0
 18 14  1  0
 19 16  1  0
M  END
$$$$
