SGD.pdb
     RDKit          3D

 19 18  0  0  1  0  0  0  0  0999 V2000
   17.3918  -14.1125  -17.1553 O   0  0  0  0  0  0  0  0  0  0  0  0
   18.5494  -13.4686  -16.7266 C   0  0  0  0  0  0  0  0  0  0  0  0
   18.2656  -12.0084  -16.5704 C   0  0  2  0  0  0  0  0  0  0  0  0
   17.8445  -11.3979  -17.8216 N   0  0  0  0  0  0  0  0  0  0  0  0
   19.4654  -11.3138  -16.0378 C   0  0  0  0  0  0  0  0  0  0  0  0
   19.8469  -11.6040  -14.8804 O   0  0  0  0  0  0  0  0  0  0  0  0
   20.1562  -10.3538  -16.8163 N   0  0  0  0  0  0  0  0  0  0  0  0
   21.2947   -9.6524  -16.2462 C   0  0  0  0  0  0  0  0  0  0  0  0
   20.9145   -8.2681  -15.9407 C   0  0  0  0  0  0  0  0  0  0  0  0
   19.8040   -7.7789  -16.3125 O   0  0  0  0  0  0  0  0  0  0  0  0
   21.7961   -7.4532  -15.2175 N   0  0  0  0  0  0  0  0  0  0  0  0
   21.4892   -6.0335  -14.9046 C   0  0  1  0  0  0  0  0  0  0  0  0
   22.3636   -5.6550  -13.7475 C   0  0  0  0  0  0  0  0  0  0  0  0
   22.1251   -4.2701  -13.3373 C   0  0  0  0  0  0  0  0  0  0  0  0
   22.9067   -3.3593  -13.6525 O   0  0  0  0  0  0  0  0  0  0  0  0
   21.8762   -5.2265  -16.0917 C   0  0  0  0  0  0  0  0  0  0  0  0
   22.7908   -5.5388  -16.8677 O   0  0  0  0  0  0  0  0  0  0  0  0
   21.0006   -3.9451  -12.5745 O   0  0  0  0  0  0  0  0  0  0  0  0
   21.1829   -4.0292  -16.3815 O   0  0  0  0  0  0  0  0  0  0  0  0
  2  1  1  0
  3  2  1  0
  3  4  1  6
  5  3  1  0
  6  5  2  0
  7  5  1  0
  8  7  1  0
  9  8  1  0
  9 10  2  0
 11  9  1  0
 12 11  1  0
 12 13  1  1
 14 13  1  0
 15 14  2  0
 16 12  1  0
 17 16  2  0
 18 14  1  0
 19 16  1  0
M  END
$$$$
