SGD.pdb
     RDKit          3D

 19 18  0  0  1  0  0  0  0  0999 V2000
   11.7645   -9.5737  -11.4014 O   0  0  0  0  0  0  0  0  0  0  0  0
   11.8052  -10.8775  -10.9148 C   0  0  0  0  0  0  0  0  0  0  0  0
   13.2268  -11.2499  -10.6366 C   0  0  2  0  0  0  0  0  0  0  0  0
   13.8176  -10.4129   -9.6042 N   0  0  0  0  0  0  0  0  0  0  0  0
   14.0256  -11.1660  -11.8858 C   0  0  0  0  0  0  0  0  0  0  0  0
   13.6675  -11.8668  -12.8605 O   0  0  0  0  0  0  0  0  0  0  0  0
   15.1568  -10.3185  -11.9709 N   0  0  0  0  0  0  0  0  0  0  0  0
   15.8113  -10.1221  -13.2539 C   0  0  0  0  0  0  0  0  0  0  0  0
   16.9360   -9.1929  -13.0931 C   0  0  0  0  0  0  0  0  0  0  0  0
   17.1377   -8.5637  -12.0095 O   0  0  0  0  0  0  0  0  0  0  0  0
   17.8196   -8.9865  -14.1612 N   0  0  0  0  0  0  0  0  0  0  0  0
   18.9904   -8.0775  -14.0586 C   0  0  1  0  0  0  0  0  0  0  0  0
   20.0641   -8.6689  -14.9211 C   0  0  0  0  0  0  0  0  0  0  0  0
   21.2634   -7.8293  -14.9202 C   0  0  0  0  0  0  0  0  0  0  0  0
   21.8832   -7.5895  -13.8722 O   0  0  0  0  0  0  0  0  0  0  0  0
   18.5804   -6.7647  -14.6230 C   0  0  0  0  0  0  0  0  0  0  0  0
   17.7263   -6.6342  -15.5117 O   0  0  0  0  0  0  0  0  0  0  0  0
   21.7371   -7.2762  -16.1126 O   0  0  0  0  0  0  0  0  0  0  0  0
   19.1785   -5.5775  -14.1422 O   0  0  0  0  0  0  0  0  0  0  0  0
  2  1  1  0
  3  2  1  0
  3  4  1  1
  5  3  1  0
  6  5  2  0
  7  5  1  0
  8  7  1  0
  9  8  1  0
  9 10  2  0
 11  9  1  0
 12 11  1  0
 12 13  1  6
 14 13  1  0
 15 14  2  0
 16 12  1  0
 17 16  2  0
 18 14  1  0
 19 16  1  0
M  END
$$$$
