SGD.pdb
     RDKit          3D

 19 18  0  0  1  0  0  0  0  0999 V2000
   17.0121  -14.0650  -14.5368 O   0  0  0  0  0  0  0  0  0  0  0  0
   17.0690  -12.8340  -15.1846 C   0  0  0  0  0  0  0  0  0  0  0  0
   18.3846  -12.7121  -15.8854 C   0  0  2  0  0  0  0  0  0  0  0  0
   19.4913  -13.1449  -15.0466 N   0  0  0  0  0  0  0  0  0  0  0  0
   18.5937  -11.3104  -16.3292 C   0  0  0  0  0  0  0  0  0  0  0  0
   17.7252  -10.7923  -17.0685 O   0  0  0  0  0  0  0  0  0  0  0  0
   19.7402  -10.5829  -15.9272 N   0  0  0  0  0  0  0  0  0  0  0  0
   19.8758   -9.1876  -16.3117 C   0  0  0  0  0  0  0  0  0  0  0  0
   20.8825   -8.5408  -15.4617 C   0  0  0  0  0  0  0  0  0  0  0  0
   21.5156   -9.1791  -14.5660 O   0  0  0  0  0  0  0  0  0  0  0  0
   21.1607   -7.1782  -15.6354 N   0  0  0  0  0  0  0  0  0  0  0  0
   22.2197   -6.4793  -14.8623 C   0  0  1  0  0  0  0  0  0  0  0  0
   22.4594   -5.1724  -15.5557 C   0  0  0  0  0  0  0  0  0  0  0  0
   22.9572   -5.3810  -16.9166 C   0  0  0  0  0  0  0  0  0  0  0  0
   23.8958   -6.1587  -17.1489 O   0  0  0  0  0  0  0  0  0  0  0  0
   21.6743   -6.2172  -13.5044 C   0  0  0  0  0  0  0  0  0  0  0  0
   20.4780   -6.3459  -13.2066 O   0  0  0  0  0  0  0  0  0  0  0  0
   22.3782   -4.7003  -17.9905 O   0  0  0  0  0  0  0  0  0  0  0  0
   22.5410   -5.7955  -12.4703 O   0  0  0  0  0  0  0  0  0  0  0  0
  2  1  1  0
  3  2  1  0
  3  4  1  1
  5  3  1  0
  6  5  2  0
  7  5  1  0
  8  7  1  0
  9  8  1  0
  9 10  2  0
 11  9  1  0
 12 11  1  0
 12 13  1  6
 14 13  1  0
 15 14  2  0
 16 12  1  0
 17 16  2  0
 18 14  1  0
 19 16  1  0
M  END
$$$$
