SGD.pdb
     RDKit          3D

 19 18  0  0  1  0  0  0  0  0999 V2000
   18.7105  -13.2528    2.5096 O   0  0  0  0  0  0  0  0  0  0  0  0
   18.5645  -14.2673    3.4518 C   0  0  0  0  0  0  0  0  0  0  0  0
   17.1842  -14.8339    3.3482 C   0  0  2  0  0  0  0  0  0  0  0  0
   16.1618  -13.8138    3.5202 N   0  0  0  0  0  0  0  0  0  0  0  0
   17.0047  -15.9156    4.3499 C   0  0  0  0  0  0  0  0  0  0  0  0
   15.9586  -15.9105    5.0390 O   0  0  0  0  0  0  0  0  0  0  0  0
   17.9869  -16.9215    4.5188 N   0  0  0  0  0  0  0  0  0  0  0  0
   17.7842  -17.9624    5.5130 C   0  0  0  0  0  0  0  0  0  0  0  0
   18.9532  -18.8496    5.5390 C   0  0  0  0  0  0  0  0  0  0  0  0
   19.8732  -18.7739    4.6681 O   0  0  0  0  0  0  0  0  0  0  0  0
   19.0671  -19.8127    6.5507 N   0  0  0  0  0  0  0  0  0  0  0  0
   20.2605  -20.6879    6.6829 C   0  0  1  0  0  0  0  0  0  0  0  0
   20.3873  -21.0160    8.1399 C   0  0  0  0  0  0  0  0  0  0  0  0
   20.9297  -19.8822    8.8905 C   0  0  0  0  0  0  0  0  0  0  0  0
   20.3839  -19.4735    9.9273 O   0  0  0  0  0  0  0  0  0  0  0  0
   19.9784  -21.9357    5.9256 C   0  0  0  0  0  0  0  0  0  0  0  0
   20.8595  -22.6645    5.4473 O   0  0  0  0  0  0  0  0  0  0  0  0
   22.0844  -19.2321    8.4479 O   0  0  0  0  0  0  0  0  0  0  0  0
   18.6406  -22.3438    5.7203 O   0  0  0  0  0  0  0  0  0  0  0  0
  2  1  1  0
  3  2  1  0
  3  4  1  1
  5  3  1  0
  6  5  2  0
  7  5  1  0
  8  7  1  0
  9  8  1  0
  9 10  2  0
 11  9  1  0
 12 11  1  0
 12 13  1  1
 14 13  1  0
 15 14  2  0
 16 12  1  0
 17 16  2  0
 18 14  1  0
 19 16  1  0
M  END
$$$$
