SGD.pdb
     RDKit          3D

 19 18  0  0  1  0  0  0  0  0999 V2000
   20.2263  -12.8487  -20.2809 O   0  0  0  0  0  0  0  0  0  0  0  0
   21.3887  -12.2757  -19.7721 C   0  0  0  0  0  0  0  0  0  0  0  0
   21.0992  -11.7036  -18.4209 C   0  0  2  0  0  0  0  0  0  0  0  0
   19.6985  -11.3413  -18.2709 N   0  0  0  0  0  0  0  0  0  0  0  0
   21.9648  -10.5220  -18.1755 C   0  0  0  0  0  0  0  0  0  0  0  0
   23.2055  -10.6946  -18.1646 O   0  0  0  0  0  0  0  0  0  0  0  0
   21.4029   -9.2400  -17.9615 N   0  0  0  0  0  0  0  0  0  0  0  0
   22.2785   -8.0996  -17.7471 C   0  0  0  0  0  0  0  0  0  0  0  0
   21.5897   -7.1016  -16.9201 C   0  0  0  0  0  0  0  0  0  0  0  0
   20.6253   -6.4085  -17.3677 O   0  0  0  0  0  0  0  0  0  0  0  0
   22.0008   -6.8996  -15.5956 N   0  0  0  0  0  0  0  0  0  0  0  0
   21.3251   -5.9314  -14.6935 C   0  0  1  0  0  0  0  0  0  0  0  0
   21.1015   -6.6456  -13.3948 C   0  0  0  0  0  0  0  0  0  0  0  0
   20.0144   -7.6194  -13.5089 C   0  0  0  0  0  0  0  0  0  0  0  0
   19.0697   -7.4439  -14.2942 O   0  0  0  0  0  0  0  0  0  0  0  0
   22.2671   -4.8028  -14.4726 C   0  0  0  0  0  0  0  0  0  0  0  0
   21.9769   -3.7781  -13.8386 O   0  0  0  0  0  0  0  0  0  0  0  0
   20.0206   -8.7770  -12.7266 O   0  0  0  0  0  0  0  0  0  0  0  0
   23.5762   -4.8686  -15.0020 O   0  0  0  0  0  0  0  0  0  0  0  0
  2  1  1  0
  3  2  1  0
  3  4  1  6
  5  3  1  0
  6  5  2  0
  7  5  1  0
  8  7  1  0
  9  8  1  0
  9 10  2  0
 11  9  1  0
 12 11  1  0
 12 13  1  1
 14 13  1  0
 15 14  2  0
 16 12  1  0
 17 16  2  0
 18 14  1  0
 19 16  1  0
M  END
$$$$
