SGD.pdb
     RDKit          3D

 19 18  0  0  1  0  0  0  0  0999 V2000
   23.2519  -32.6911   -8.9182 O   0  0  0  0  0  0  0  0  0  0  0  0
   24.2840  -31.8291   -8.5578 C   0  0  0  0  0  0  0  0  0  0  0  0
   25.5931  -32.4650   -8.9028 C   0  0  2  0  0  0  0  0  0  0  0  0
   25.6492  -32.8757  -10.2969 N   0  0  0  0  0  0  0  0  0  0  0  0
   25.8402  -33.6287   -8.0138 C   0  0  0  0  0  0  0  0  0  0  0  0
   26.2686  -34.6849   -8.5338 O   0  0  0  0  0  0  0  0  0  0  0  0
   25.5991  -33.5448   -6.6210 N   0  0  0  0  0  0  0  0  0  0  0  0
   25.9073  -34.6821   -5.7697 C   0  0  0  0  0  0  0  0  0  0  0  0
   25.6580  -34.3265   -4.3677 C   0  0  0  0  0  0  0  0  0  0  0  0
   25.2525  -33.1725   -4.0293 O   0  0  0  0  0  0  0  0  0  0  0  0
   25.8709  -35.2817   -3.3644 N   0  0  0  0  0  0  0  0  0  0  0  0
   25.6483  -34.9851   -1.9257 C   0  0  1  0  0  0  0  0  0  0  0  0
   25.8022  -36.2848   -1.1952 C   0  0  0  0  0  0  0  0  0  0  0  0
   24.6279  -36.5668   -0.3677 C   0  0  0  0  0  0  0  0  0  0  0  0
   23.6573  -35.7942   -0.3390 O   0  0  0  0  0  0  0  0  0  0  0  0
   26.7248  -34.0543   -1.4955 C   0  0  0  0  0  0  0  0  0  0  0  0
   27.8606  -34.0395   -1.9914 O   0  0  0  0  0  0  0  0  0  0  0  0
   24.5783  -37.7240    0.4137 O   0  0  0  0  0  0  0  0  0  0  0  0
   26.4732  -33.1203   -0.4646 O   0  0  0  0  0  0  0  0  0  0  0  0
  2  1  1  0
  3  2  1  0
  3  4  1  6
  5  3  1  0
  6  5  2  0
  7  5  1  0
  8  7  1  0
  9  8  1  0
  9 10  2  0
 11  9  1  0
 12 11  1  0
 12 13  1  1
 14 13  1  0
 15 14  2  0
 16 12  1  0
 17 16  2  0
 18 14  1  0
 19 16  1  0
M  END
$$$$
