SGD.pdb
     RDKit          3D

 19 18  0  0  1  0  0  0  0  0999 V2000
   17.2412  -11.3535  -17.4245 O   0  0  0  0  0  0  0  0  0  0  0  0
   17.8774  -12.5342  -17.0509 C   0  0  0  0  0  0  0  0  0  0  0  0
   18.4031  -12.3853  -15.6586 C   0  0  2  0  0  0  0  0  0  0  0  0
   17.3451  -12.0905  -14.7050 N   0  0  0  0  0  0  0  0  0  0  0  0
   19.4403  -11.3230  -15.6202 C   0  0  0  0  0  0  0  0  0  0  0  0
   20.5468  -11.5626  -16.1565 O   0  0  0  0  0  0  0  0  0  0  0  0
   19.1840  -10.0778  -14.9967 N   0  0  0  0  0  0  0  0  0  0  0  0
   20.1657   -9.0103  -15.0959 C   0  0  0  0  0  0  0  0  0  0  0  0
   19.6872   -7.8345  -14.3592 C   0  0  0  0  0  0  0  0  0  0  0  0
   18.5509   -7.3166  -14.5858 O   0  0  0  0  0  0  0  0  0  0  0  0
   20.5008   -7.2582  -13.3742 N   0  0  0  0  0  0  0  0  0  0  0  0
   20.0623   -6.0921  -12.5646 C   0  0  1  0  0  0  0  0  0  0  0  0
   19.5832   -6.6406  -11.2545 C   0  0  0  0  0  0  0  0  0  0  0  0
   19.1072   -5.5698  -10.3770 C   0  0  0  0  0  0  0  0  0  0  0  0
   18.5707   -4.5492  -10.8358 O   0  0  0  0  0  0  0  0  0  0  0  0
   21.2599   -5.2436  -12.3285 C   0  0  0  0  0  0  0  0  0  0  0  0
   22.4243   -5.6363  -12.4905 O   0  0  0  0  0  0  0  0  0  0  0  0
   19.2501   -5.6786   -8.9915 O   0  0  0  0  0  0  0  0  0  0  0  0
   21.0982   -3.9083  -11.8937 O   0  0  0  0  0  0  0  0  0  0  0  0
  2  1  1  0
  3  2  1  0
  3  4  1  1
  5  3  1  0
  6  5  2  0
  7  5  1  0
  8  7  1  0
  9  8  1  0
  9 10  2  0
 11  9  1  0
 12 11  1  0
 12 13  1  1
 14 13  1  0
 15 14  2  0
 16 12  1  0
 17 16  2  0
 18 14  1  0
 19 16  1  0
M  END
$$$$
