YAN.pdb
     RDKit          3D

 26 26  0  0  1  0  0  0  0  0999 V2000
   30.2946  -16.5222  -18.9771 O   0  0  0  0  0  0  0  0  0  0  0  0
   29.4133  -17.1147  -18.0819 C   0  0  0  0  0  0  0  0  0  0  0  0
   29.8288  -17.5711  -16.8378 C   0  0  0  0  0  0  0  0  0  0  0  0
   28.9564  -18.1588  -15.9483 C   0  0  0  0  0  0  0  0  0  0  0  0
   27.6246  -18.3171  -16.2642 C   0  0  0  0  0  0  0  0  0  0  0  0
   26.6291  -18.9463  -15.3429 C   0  0  0  0  0  0  0  0  0  0  0  0
   27.1674  -20.3256  -15.0396 C   0  0  2  0  0  0  0  0  0  0  0  0
   27.2465  -21.0796  -16.2699 N   0  0  0  0  0  0  0  0  0  0  0  0
   26.3758  -21.0588  -14.0289 C   0  0  0  0  0  0  0  0  0  0  0  0
   25.4579  -21.8280  -14.4184 O   0  0  0  0  0  0  0  0  0  0  0  0
   27.2242  -17.8548  -17.5138 C   0  0  0  0  0  0  0  0  0  0  0  0
   28.0880  -17.2690  -18.4029 C   0  0  0  0  0  0  0  0  0  0  0  0
   26.4638  -21.2384  -10.2727 C   0  0  0  0  0  0  0  0  0  0  0  0
   25.7602  -21.4655  -11.6038 C   0  0  2  0  0  0  0  0  0  0  0  0
   26.5981  -20.9409  -12.6351 N   0  0  0  0  0  0  0  0  0  0  0  0
   24.4548  -20.7114  -11.5429 C   0  0  0  0  0  0  0  0  0  0  0  0
   24.4267  -19.4986  -11.2124 O   0  0  0  0  0  0  0  0  0  0  0  0
   20.4071  -19.1472  -14.0714 N   0  0  0  0  0  0  0  0  0  0  0  0
   21.7452  -19.2532  -14.5177 C   0  0  0  0  0  0  0  0  0  0  0  0
   22.1140  -18.7240  -15.5990 O   0  0  0  0  0  0  0  0  0  0  0  0
   22.7270  -19.9867  -13.7197 C   0  0  0  0  0  0  0  0  0  0  0  0
   22.1478  -20.6028  -12.4522 C   0  0  2  0  0  0  0  0  0  0  0  0
   23.2312  -21.3425  -11.8533 N   0  0  0  0  0  0  0  0  0  0  0  0
   20.9756  -21.4582  -12.7271 C   0  0  0  0  0  0  0  0  0  0  0  0
   21.0898  -22.8272  -12.8373 O   0  0  0  0  0  0  0  0  0  0  0  0
   19.8482  -20.9325  -12.8641 O   0  0  0  0  0  0  0  0  0  0  0  0
  2  1  1  0
  3  2  2  0
  4  3  1  0
  5  4  2  0
  5 11  1  0
  6  5  1  0
  7  6  1  0
  7  9  1  0
  7  8  1  6
  9 10  2  0
 11 12  2  0
 12  2  1  0
 14 13  1  1
 15 14  1  0
 15  9  1  0
 16 14  1  0
 16 17  2  0
 18 19  1  0
 19 20  2  0
 19 21  1  0
 22 21  1  6
 22 23  1  0
 22 24  1  0
 23 16  1  0
 24 26  2  0
 24 25  1  0
M  END
$$$$
