YAN.pdb
     RDKit          3D

 26 26  0  0  1  0  0  0  0  0999 V2000
   20.0782  -17.0681  -15.4992 O   0  0  0  0  0  0  0  0  0  0  0  0
   20.2347  -15.7534  -15.9191 C   0  0  0  0  0  0  0  0  0  0  0  0
   21.0755  -15.4154  -16.9714 C   0  0  0  0  0  0  0  0  0  0  0  0
   21.2321  -14.1123  -17.3898 C   0  0  0  0  0  0  0  0  0  0  0  0
   20.5523  -13.0851  -16.7722 C   0  0  0  0  0  0  0  0  0  0  0  0
   20.6795  -11.6518  -17.1793 C   0  0  0  0  0  0  0  0  0  0  0  0
   19.3584  -11.2893  -17.8176 C   0  0  2  0  0  0  0  0  0  0  0  0
   19.1124  -12.1822  -18.9269 N   0  0  0  0  0  0  0  0  0  0  0  0
   19.2823   -9.8795  -18.2564 C   0  0  0  0  0  0  0  0  0  0  0  0
   19.8633   -9.5437  -19.3220 O   0  0  0  0  0  0  0  0  0  0  0  0
   19.7141  -13.4400  -15.7201 C   0  0  0  0  0  0  0  0  0  0  0  0
   19.5545  -14.7352  -15.2997 C   0  0  0  0  0  0  0  0  0  0  0  0
   16.9109   -7.2406  -17.9838 C   0  0  0  0  0  0  0  0  0  0  0  0
   18.4068   -7.5216  -17.9418 C   0  0  2  0  0  0  0  0  0  0  0  0
   18.5841   -8.8798  -17.5359 N   0  0  0  0  0  0  0  0  0  0  0  0
   19.0005   -6.5795  -16.9237 C   0  0  0  0  0  0  0  0  0  0  0  0
   18.9953   -5.3370  -17.1163 O   0  0  0  0  0  0  0  0  0  0  0  0
   22.5354   -5.2163  -12.8674 N   0  0  0  0  0  0  0  0  0  0  0  0
   22.0800   -4.8447  -14.1540 C   0  0  0  0  0  0  0  0  0  0  0  0
   22.1834   -3.6583  -14.5630 O   0  0  0  0  0  0  0  0  0  0  0  0
   21.4769   -5.8448  -15.0342 C   0  0  0  0  0  0  0  0  0  0  0  0
   20.0225   -6.1546  -14.7020 C   0  0  2  0  0  0  0  0  0  0  0  0
   19.5774   -7.0630  -15.7299 N   0  0  0  0  0  0  0  0  0  0  0  0
   19.1885   -4.9375  -14.6364 C   0  0  0  0  0  0  0  0  0  0  0  0
   18.6181   -4.5151  -13.4550 O   0  0  0  0  0  0  0  0  0  0  0  0
   18.9915   -4.2692  -15.6759 O   0  0  0  0  0  0  0  0  0  0  0  0
  2  1  1  0
  3  2  2  0
  4  3  1  0
  5  4  2  0
  5 11  1  0
  6  5  1  0
  7  6  1  0
  7  9  1  0
  7  8  1  6
  9 10  2  0
 11 12  2  0
 12  2  1  0
 14 13  1  1
 15 14  1  0
 15  9  1  0
 16 14  1  0
 16 17  2  0
 18 19  1  0
 19 20  2  0
 19 21  1  0
 22 21  1  6
 22 23  1  0
 22 24  1  0
 23 16  1  0
 24 26  2  0
 24 25  1  0
M  END
$$$$
