YAN.pdb
     RDKit          3D

 26 26  0  0  1  0  0  0  0  0999 V2000
   29.0952  -20.2466   -6.3013 O   0  0  0  0  0  0  0  0  0  0  0  0
   28.0669  -20.2962   -7.2338 C   0  0  0  0  0  0  0  0  0  0  0  0
   27.1390  -19.2703   -7.3566 C   0  0  0  0  0  0  0  0  0  0  0  0
   26.1185  -19.3173   -8.2808 C   0  0  0  0  0  0  0  0  0  0  0  0
   25.9798  -20.3962   -9.1266 C   0  0  0  0  0  0  0  0  0  0  0  0
   24.8948  -20.5062  -10.1496 C   0  0  0  0  0  0  0  0  0  0  0  0
   25.5419  -21.1256  -11.3668 C   0  0  2  0  0  0  0  0  0  0  0  0
   26.9759  -20.9811  -11.2609 N   0  0  0  0  0  0  0  0  0  0  0  0
   25.0545  -20.5635  -12.6445 C   0  0  0  0  0  0  0  0  0  0  0  0
   25.7823  -19.7428  -13.2631 O   0  0  0  0  0  0  0  0  0  0  0  0
   26.9172  -21.4152   -8.9911 C   0  0  0  0  0  0  0  0  0  0  0  0
   27.9347  -21.3737   -8.0731 C   0  0  0  0  0  0  0  0  0  0  0  0
   24.3087  -20.9289  -15.5439 C   0  0  0  0  0  0  0  0  0  0  0  0
   23.3140  -20.4728  -14.4852 C   0  0  2  0  0  0  0  0  0  0  0  0
   23.8027  -20.9031  -13.2136 N   0  0  0  0  0  0  0  0  0  0  0  0
   21.9989  -21.1399  -14.8041 C   0  0  0  0  0  0  0  0  0  0  0  0
   21.5044  -21.0695  -15.9580 O   0  0  0  0  0  0  0  0  0  0  0  0
   21.1833  -21.9976  -10.1402 N   0  0  0  0  0  0  0  0  0  0  0  0
   20.3439  -22.3345  -11.2279 C   0  0  0  0  0  0  0  0  0  0  0  0
   20.0548  -23.5339  -11.4791 O   0  0  0  0  0  0  0  0  0  0  0  0
   19.7960  -21.2822  -12.0829 C   0  0  0  0  0  0  0  0  0  0  0  0
   19.8922  -21.5917  -13.5717 C   0  0  2  0  0  0  0  0  0  0  0  0
   21.2872  -21.8595  -13.8205 N   0  0  0  0  0  0  0  0  0  0  0  0
   19.3796  -20.4891  -14.4101 C   0  0  0  0  0  0  0  0  0  0  0  0
   18.1658  -20.5769  -15.0568 O   0  0  0  0  0  0  0  0  0  0  0  0
   20.0601  -19.4468  -14.5400 O   0  0  0  0  0  0  0  0  0  0  0  0
  2  1  1  0
  3  2  2  0
  4  3  1  0
  5  4  2  0
  5 11  1  0
  6  5  1  0
  7  6  1  0
  7  9  1  0
  7  8  1  1
  9 10  2  0
 11 12  2  0
 12  2  1  0
 14 13  1  6
 15 14  1  0
 15  9  1  0
 16 14  1  0
 16 17  2  0
 18 19  1  0
 19 20  2  0
 19 21  1  0
 22 21  1  1
 22 23  1  0
 22 24  1  0
 23 16  1  0
 24 26  2  0
 24 25  1  0
M  END
$$$$
