YAN.pdb
     RDKit          3D

 26 26  0  0  1  0  0  0  0  0999 V2000
   18.1280  -13.8190  -23.2574 O   0  0  0  0  0  0  0  0  0  0  0  0
   18.2785  -13.0469  -22.1127 C   0  0  0  0  0  0  0  0  0  0  0  0
   17.2207  -12.3315  -21.5669 C   0  0  0  0  0  0  0  0  0  0  0  0
   17.3677  -11.5653  -20.4316 C   0  0  0  0  0  0  0  0  0  0  0  0
   18.5835  -11.4798  -19.7890 C   0  0  0  0  0  0  0  0  0  0  0  0
   18.8069  -10.6661  -18.5545 C   0  0  0  0  0  0  0  0  0  0  0  0
   19.2928  -11.6396  -17.5055 C   0  0  2  0  0  0  0  0  0  0  0  0
   18.1928  -12.4877  -17.1067 N   0  0  0  0  0  0  0  0  0  0  0  0
   19.8988  -10.9835  -16.3273 C   0  0  0  0  0  0  0  0  0  0  0  0
   19.1501  -10.3665  -15.5245 O   0  0  0  0  0  0  0  0  0  0  0  0
   19.6330  -12.2021  -20.3480 C   0  0  0  0  0  0  0  0  0  0  0  0
   19.4923  -12.9663  -21.4776 C   0  0  0  0  0  0  0  0  0  0  0  0
   23.4125  -10.7288  -15.0070 C   0  0  0  0  0  0  0  0  0  0  0  0
   21.9546  -10.2894  -15.0168 C   0  0  2  0  0  0  0  0  0  0  0  0
   21.2879  -11.0137  -16.0520 N   0  0  0  0  0  0  0  0  0  0  0  0
   21.9456   -8.8097  -15.3111 C   0  0  0  0  0  0  0  0  0  0  0  0
   22.1044   -8.3855  -16.4841 O   0  0  0  0  0  0  0  0  0  0  0  0
   21.1539   -3.7930  -15.1940 N   0  0  0  0  0  0  0  0  0  0  0  0
   20.0808   -4.7129  -15.2497 C   0  0  0  0  0  0  0  0  0  0  0  0
   18.9079   -4.3296  -15.5002 O   0  0  0  0  0  0  0  0  0  0  0  0
   20.3234   -6.1357  -15.0143 C   0  0  0  0  0  0  0  0  0  0  0  0
   21.7474   -6.4485  -14.5718 C   0  0  2  0  0  0  0  0  0  0  0  0
   21.7598   -7.8613  -14.2826 N   0  0  0  0  0  0  0  0  0  0  0  0
   22.1662   -5.6393  -13.4094 C   0  0  0  0  0  0  0  0  0  0  0  0
   22.5539   -4.3239  -13.5464 O   0  0  0  0  0  0  0  0  0  0  0  0
   22.1711   -6.1556  -12.2694 O   0  0  0  0  0  0  0  0  0  0  0  0
  2  1  1  0
  3  2  2  0
  4  3  1  0
  5  4  2  0
  5 11  1  0
  6  5  1  0
  7  6  1  0
  7  9  1  0
  7  8  1  1
  9 10  2  0
 11 12  2  0
 12  2  1  0
 14 13  1  6
 15 14  1  0
 15  9  1  0
 16 14  1  0
 16 17  2  0
 18 19  1  0
 19 20  2  0
 19 21  1  0
 22 21  1  1
 22 23  1  0
 22 24  1  0
 23 16  1  0
 24 26  2  0
 24 25  1  0
M  END
$$$$
