YAN.pdb
     RDKit          3D

 26 26  0  0  1  0  0  0  0  0999 V2000
   27.0037  -20.0468   -7.2526 O   0  0  0  0  0  0  0  0  0  0  0  0
   26.5845  -20.2911   -8.5541 C   0  0  0  0  0  0  0  0  0  0  0  0
   27.3666  -21.0025   -9.4545 C   0  0  0  0  0  0  0  0  0  0  0  0
   26.9528  -21.2461  -10.7457 C   0  0  0  0  0  0  0  0  0  0  0  0
   25.7339  -20.7875  -11.1958 C   0  0  0  0  0  0  0  0  0  0  0  0
   25.2288  -21.0191  -12.5840 C   0  0  0  0  0  0  0  0  0  0  0  0
   26.3943  -20.7200  -13.4984 C   0  0  2  0  0  0  0  0  0  0  0  0
   26.7674  -19.3323  -13.3448 N   0  0  0  0  0  0  0  0  0  0  0  0
   26.1259  -21.0334  -14.9182 C   0  0  0  0  0  0  0  0  0  0  0  0
   25.6723  -20.1262  -15.6645 O   0  0  0  0  0  0  0  0  0  0  0  0
   24.9624  -20.0769  -10.2819 C   0  0  0  0  0  0  0  0  0  0  0  0
   25.3692  -19.8316   -8.9958 C   0  0  0  0  0  0  0  0  0  0  0  0
   26.5951  -24.0996  -17.0451 C   0  0  0  0  0  0  0  0  0  0  0  0
   26.0139  -22.7111  -16.8150 C   0  0  2  0  0  0  0  0  0  0  0  0
   26.3550  -22.3102  -15.4870 N   0  0  0  0  0  0  0  0  0  0  0  0
   24.5177  -22.8325  -16.9672 C   0  0  0  0  0  0  0  0  0  0  0  0
   24.0020  -23.0724  -18.0886 O   0  0  0  0  0  0  0  0  0  0  0  0
   19.5412  -23.7837  -13.5371 N   0  0  0  0  0  0  0  0  0  0  0  0
   20.2211  -23.4573  -14.7338 C   0  0  0  0  0  0  0  0  0  0  0  0
   19.5985  -23.3251  -15.8202 O   0  0  0  0  0  0  0  0  0  0  0  0
   21.6711  -23.2674  -14.7234 C   0  0  0  0  0  0  0  0  0  0  0  0
   22.2238  -22.7058  -16.0276 C   0  0  2  0  0  0  0  0  0  0  0  0
   23.6559  -22.6803  -15.8600 N   0  0  0  0  0  0  0  0  0  0  0  0
   21.6769  -21.3705  -16.3421 C   0  0  0  0  0  0  0  0  0  0  0  0
   20.6691  -21.2016  -17.2669 O   0  0  0  0  0  0  0  0  0  0  0  0
   22.1361  -20.3637  -15.7574 O   0  0  0  0  0  0  0  0  0  0  0  0
  2  1  1  0
  3  2  2  0
  4  3  1  0
  5  4  2  0
  5 11  1  0
  6  5  1  0
  7  6  1  0
  7  9  1  0
  7  8  1  6
  9 10  2  0
 11 12  2  0
 12  2  1  0
 14 13  1  1
 15 14  1  0
 15  9  1  0
 16 14  1  0
 16 17  2  0
 18 19  1  0
 19 20  2  0
 19 21  1  0
 22 21  1  1
 22 23  1  0
 22 24  1  0
 23 16  1  0
 24 26  2  0
 24 25  1  0
M  END
$$$$
