YAN.pdb
     RDKit          3D

 26 26  0  0  1  0  0  0  0  0999 V2000
   22.4333  -10.4234    6.2953 O   0  0  0  0  0  0  0  0  0  0  0  0
   21.3321  -11.1791    6.6766 C   0  0  0  0  0  0  0  0  0  0  0  0
   20.0942  -11.0307    6.0650 C   0  0  0  0  0  0  0  0  0  0  0  0
   19.0007  -11.7792    6.4414 C   0  0  0  0  0  0  0  0  0  0  0  0
   19.0966  -12.7130    7.4500 C   0  0  0  0  0  0  0  0  0  0  0  0
   17.9476  -13.5555    7.9039 C   0  0  0  0  0  0  0  0  0  0  0  0
   17.6568  -14.5004    6.7608 C   0  0  2  0  0  0  0  0  0  0  0  0
   16.3288  -14.2334    6.2574 N   0  0  0  0  0  0  0  0  0  0  0  0
   17.7997  -15.9266    7.1233 C   0  0  0  0  0  0  0  0  0  0  0  0
   16.8571  -16.4943    7.7357 O   0  0  0  0  0  0  0  0  0  0  0  0
   20.3431  -12.8497    8.0526 C   0  0  0  0  0  0  0  0  0  0  0  0
   21.4346  -12.1075    7.6819 C   0  0  0  0  0  0  0  0  0  0  0  0
   20.0131  -18.7124    6.1212 C   0  0  0  0  0  0  0  0  0  0  0  0
   19.1906  -18.0438    7.2144 C   0  0  2  0  0  0  0  0  0  0  0  0
   18.9498  -16.6936    6.8148 N   0  0  0  0  0  0  0  0  0  0  0  0
   20.0200  -18.0867    8.4740 C   0  0  0  0  0  0  0  0  0  0  0  0
   20.7461  -17.1134    8.8003 O   0  0  0  0  0  0  0  0  0  0  0  0
   21.7268  -19.0001   13.1517 N   0  0  0  0  0  0  0  0  0  0  0  0
   20.7323  -18.0737   12.7596 C   0  0  0  0  0  0  0  0  0  0  0  0
   20.3209  -17.1867   13.5529 O   0  0  0  0  0  0  0  0  0  0  0  0
   20.1640  -18.1358   11.4137 C   0  0  0  0  0  0  0  0  0  0  0  0
   20.7666  -19.2331   10.5451 C   0  0  2  0  0  0  0  0  0  0  0  0
   20.0061  -19.2163    9.3199 N   0  0  0  0  0  0  0  0  0  0  0  0
   20.7315  -20.5548   11.2032 C   0  0  0  0  0  0  0  0  0  0  0  0
   21.7735  -20.9993   11.9882 O   0  0  0  0  0  0  0  0  0  0  0  0
   19.7335  -21.2937   11.0479 O   0  0  0  0  0  0  0  0  0  0  0  0
  2  1  1  0
  3  2  2  0
  4  3  1  0
  5  4  2  0
  5 11  1  0
  6  5  1  0
  7  6  1  0
  7  9  1  0
  7  8  1  1
  9 10  2  0
 11 12  2  0
 12  2  1  0
 14 13  1  6
 15 14  1  0
 15  9  1  0
 16 14  1  0
 16 17  2  0
 18 19  1  0
 19 20  2  0
 19 21  1  0
 22 21  1  1
 22 23  1  0
 22 24  1  0
 23 16  1  0
 24 26  2  0
 24 25  1  0
M  END
$$$$
