YAN.pdb
     RDKit          3D

 26 26  0  0  1  0  0  0  0  0999 V2000
   27.4727  -34.6111   -6.8910 O   0  0  0  0  0  0  0  0  0  0  0  0
   27.7210  -34.9314   -5.5624 C   0  0  0  0  0  0  0  0  0  0  0  0
   27.3245  -34.1013   -4.5221 C   0  0  0  0  0  0  0  0  0  0  0  0
   27.5694  -34.4170   -3.2038 C   0  0  0  0  0  0  0  0  0  0  0  0
   28.2243  -35.5812   -2.8655 C   0  0  0  0  0  0  0  0  0  0  0  0
   28.5196  -35.9797   -1.4549 C   0  0  0  0  0  0  0  0  0  0  0  0
   29.5457  -34.9885   -0.9563 C   0  0  2  0  0  0  0  0  0  0  0  0
   30.8292  -35.3088   -1.5381 N   0  0  0  0  0  0  0  0  0  0  0  0
   29.6418  -34.9300    0.5180 C   0  0  0  0  0  0  0  0  0  0  0  0
   30.3737  -35.7652    1.1118 O   0  0  0  0  0  0  0  0  0  0  0  0
   28.6148  -36.4019   -3.9189 C   0  0  0  0  0  0  0  0  0  0  0  0
   28.3736  -36.0927   -5.2326 C   0  0  0  0  0  0  0  0  0  0  0  0
   28.1505  -32.6690    3.1308 C   0  0  0  0  0  0  0  0  0  0  0  0
   28.9641  -33.8917    2.7288 C   0  0  2  0  0  0  0  0  0  0  0  0
   28.9491  -33.9760    1.3029 N   0  0  0  0  0  0  0  0  0  0  0  0
   28.2829  -35.0910    3.3406 C   0  0  0  0  0  0  0  0  0  0  0  0
   27.3587  -35.6869    2.7310 O   0  0  0  0  0  0  0  0  0  0  0  0
   29.5307  -39.6167    7.1561 N   0  0  0  0  0  0  0  0  0  0  0  0
   28.6278  -38.7800    6.4592 C   0  0  0  0  0  0  0  0  0  0  0  0
   27.4098  -39.0815    6.3551 O   0  0  0  0  0  0  0  0  0  0  0  0
   29.1034  -37.5411    5.8447 C   0  0  0  0  0  0  0  0  0  0  0  0
   27.9989  -36.7180    5.1935 C   0  0  2  0  0  0  0  0  0  0  0  0
   28.6610  -35.5772    4.6104 N   0  0  0  0  0  0  0  0  0  0  0  0
   26.9510  -36.3210    6.1555 C   0  0  0  0  0  0  0  0  0  0  0  0
   25.9760  -37.2036    6.5674 O   0  0  0  0  0  0  0  0  0  0  0  0
   26.9434  -35.1556    6.6115 O   0  0  0  0  0  0  0  0  0  0  0  0
  2  1  1  0
  3  2  2  0
  4  3  1  0
  5  4  2  0
  5 11  1  0
  6  5  1  0
  7  6  1  0
  7  9  1  0
  7  8  1  6
  9 10  2  0
 11 12  2  0
 12  2  1  0
 14 13  1  6
 15 14  1  0
 15  9  1  0
 16 14  1  0
 16 17  2  0
 18 19  1  0
 19 20  2  0
 19 21  1  0
 22 21  1  1
 22 23  1  0
 22 24  1  0
 23 16  1  0
 24 26  2  0
 24 25  1  0
M  END
$$$$
