YAN.pdb
     RDKit          3D

 26 26  0  0  1  0  0  0  0  0999 V2000
   20.6185  -28.2780  -10.4047 O   0  0  0  0  0  0  0  0  0  0  0  0
   21.3666  -29.2628   -9.7725 C   0  0  0  0  0  0  0  0  0  0  0  0
   20.8198  -30.4930   -9.4317 C   0  0  0  0  0  0  0  0  0  0  0  0
   21.5599  -31.4712   -8.8048 C   0  0  0  0  0  0  0  0  0  0  0  0
   22.8848  -31.2622   -8.4896 C   0  0  0  0  0  0  0  0  0  0  0  0
   23.7404  -32.2832   -7.8102 C   0  0  0  0  0  0  0  0  0  0  0  0
   24.5895  -32.8957   -8.9002 C   0  0  2  0  0  0  0  0  0  0  0  0
   23.7354  -33.6376   -9.7994 N   0  0  0  0  0  0  0  0  0  0  0  0
   25.6779  -33.7550   -8.3875 C   0  0  0  0  0  0  0  0  0  0  0  0
   25.4594  -34.9861   -8.2374 O   0  0  0  0  0  0  0  0  0  0  0  0
   23.4177  -30.0251   -8.8376 C   0  0  0  0  0  0  0  0  0  0  0  0
   22.6858  -29.0480   -9.4615 C   0  0  0  0  0  0  0  0  0  0  0  0
   29.2661  -33.1218   -7.4506 C   0  0  0  0  0  0  0  0  0  0  0  0
   28.0466  -34.0303   -7.5280 C   0  0  2  0  0  0  0  0  0  0  0  0
   26.9634  -33.2622   -8.0546 N   0  0  0  0  0  0  0  0  0  0  0  0
   27.7458  -34.4799   -6.1195 C   0  0  0  0  0  0  0  0  0  0  0  0
   28.5468  -35.2215   -5.4955 O   0  0  0  0  0  0  0  0  0  0  0  0
   28.4875  -35.6948   -2.8824 N   0  0  0  0  0  0  0  0  0  0  0  0
   28.2931  -34.3163   -2.6321 C   0  0  0  0  0  0  0  0  0  0  0  0
   29.0889  -33.6694   -1.9016 O   0  0  0  0  0  0  0  0  0  0  0  0
   27.1531  -33.6182   -3.2252 C   0  0  0  0  0  0  0  0  0  0  0  0
   26.2868  -34.5045   -4.1116 C   0  0  2  0  0  0  0  0  0  0  0  0
   26.5610  -34.0833   -5.4633 N   0  0  0  0  0  0  0  0  0  0  0  0
   24.8517  -34.4032   -3.7779 C   0  0  0  0  0  0  0  0  0  0  0  0
   24.3253  -35.0109   -2.6585 O   0  0  0  0  0  0  0  0  0  0  0  0
   24.0900  -33.7508   -4.5264 O   0  0  0  0  0  0  0  0  0  0  0  0
  2  1  1  0
  3  2  2  0
  4  3  1  0
  5  4  2  0
  5 11  1  0
  6  5  1  0
  7  6  1  0
  7  9  1  0
  7  8  1  6
  9 10  2  0
 11 12  2  0
 12  2  1  0
 14 13  1  1
 15 14  1  0
 15  9  1  0
 16 14  1  0
 16 17  2  0
 18 19  1  0
 19 20  2  0
 19 21  1  0
 22 21  1  1
 22 23  1  0
 22 24  1  0
 23 16  1  0
 24 26  2  0
 24 25  1  0
M  END
$$$$
