YAN.pdb
     RDKit          3D

 26 26  0  0  1  0  0  0  0  0999 V2000
   25.9508  -13.5255  -20.3739 O   0  0  0  0  0  0  0  0  0  0  0  0
   25.1985  -12.4380  -19.9488 C   0  0  0  0  0  0  0  0  0  0  0  0
   25.2031  -11.2306  -20.6349 C   0  0  0  0  0  0  0  0  0  0  0  0
   24.4576  -10.1509  -20.2152 C   0  0  0  0  0  0  0  0  0  0  0  0
   23.6714  -10.2305  -19.0865 C   0  0  0  0  0  0  0  0  0  0  0  0
   22.8403   -9.0952  -18.5803 C   0  0  0  0  0  0  0  0  0  0  0  0
   21.4036   -9.5316  -18.7522 C   0  0  2  0  0  0  0  0  0  0  0  0
   21.1643   -9.8192  -20.1481 N   0  0  0  0  0  0  0  0  0  0  0  0
   20.4233   -8.5466  -18.2475 C   0  0  0  0  0  0  0  0  0  0  0  0
   20.2257   -7.4936  -18.9093 O   0  0  0  0  0  0  0  0  0  0  0  0
   23.6775  -11.4465  -18.4106 C   0  0  0  0  0  0  0  0  0  0  0  0
   24.4174  -12.5243  -18.8238 C   0  0  0  0  0  0  0  0  0  0  0  0
   17.6937   -8.5971  -15.7502 C   0  0  0  0  0  0  0  0  0  0  0  0
   18.7616   -7.7987  -16.4855 C   0  0  2  0  0  0  0  0  0  0  0  0
   19.6888   -8.7273  -17.0500 N   0  0  0  0  0  0  0  0  0  0  0  0
   19.4401   -6.9260  -15.4586 C   0  0  0  0  0  0  0  0  0  0  0  0
   18.7921   -6.0540  -14.8257 O   0  0  0  0  0  0  0  0  0  0  0  0
   22.0860   -9.7096  -12.8849 N   0  0  0  0  0  0  0  0  0  0  0  0
   21.7057   -8.3609  -12.6910 C   0  0  0  0  0  0  0  0  0  0  0  0
   20.7857   -8.0536  -11.8881 O   0  0  0  0  0  0  0  0  0  0  0  0
   22.3839   -7.2959  -13.4286 C   0  0  0  0  0  0  0  0  0  0  0  0
   21.4313   -6.3190  -14.1068 C   0  0  2  0  0  0  0  0  0  0  0  0
   20.8168   -7.0615  -15.1795 N   0  0  0  0  0  0  0  0  0  0  0  0
   22.1204   -5.1067  -14.5932 C   0  0  0  0  0  0  0  0  0  0  0  0
   22.6800   -4.1954  -13.7237 O   0  0  0  0  0  0  0  0  0  0  0  0
   22.2014   -4.8965  -15.8242 O   0  0  0  0  0  0  0  0  0  0  0  0
  2  1  1  0
  3  2  2  0
  4  3  1  0
  5  4  2  0
  5 11  1  0
  6  5  1  0
  7  6  1  0
  7  9  1  0
  7  8  1  6
  9 10  2  0
 11 12  2  0
 12  2  1  0
 14 13  1  1
 15 14  1  0
 15  9  1  0
 16 14  1  0
 16 17  2  0
 18 19  1  0
 19 20  2  0
 19 21  1  0
 22 21  1  6
 22 23  1  0
 22 24  1  0
 23 16  1  0
 24 26  2  0
 24 25  1  0
M  END
$$$$
