YAN.pdb
     RDKit          3D

 26 26  0  0  1  0  0  0  0  0999 V2000
   28.5316  -20.0762   -3.5897 O   0  0  0  0  0  0  0  0  0  0  0  0
   28.1809  -19.9453   -4.9272 C   0  0  0  0  0  0  0  0  0  0  0  0
   27.0122  -20.4968   -5.4358 C   0  0  0  0  0  0  0  0  0  0  0  0
   26.6623  -20.3680   -6.7619 C   0  0  0  0  0  0  0  0  0  0  0  0
   27.4684  -19.6795   -7.6421 C   0  0  0  0  0  0  0  0  0  0  0  0
   27.1441  -19.5050   -9.0913 C   0  0  0  0  0  0  0  0  0  0  0  0
   27.1256  -20.8981   -9.6768 C   0  0  2  0  0  0  0  0  0  0  0  0
   28.4487  -21.4696   -9.5705 N   0  0  0  0  0  0  0  0  0  0  0  0
   26.6490  -20.9439  -11.0756 C   0  0  0  0  0  0  0  0  0  0  0  0
   27.2704  -20.2846  -11.9502 O   0  0  0  0  0  0  0  0  0  0  0  0
   28.6352  -19.1331   -7.1173 C   0  0  0  0  0  0  0  0  0  0  0  0
   28.9883  -19.2581   -5.7984 C   0  0  0  0  0  0  0  0  0  0  0  0
   24.3564  -22.7827  -13.2612 C   0  0  0  0  0  0  0  0  0  0  0  0
   24.7151  -21.4409  -12.6371 C   0  0  2  0  0  0  0  0  0  0  0  0
   25.5220  -21.6971  -11.4865 N   0  0  0  0  0  0  0  0  0  0  0  0
   23.4170  -20.7815  -12.2415 C   0  0  0  0  0  0  0  0  0  0  0  0
   23.3685  -19.9889  -11.2666 O   0  0  0  0  0  0  0  0  0  0  0  0
   22.2239  -16.8372  -15.3849 N   0  0  0  0  0  0  0  0  0  0  0  0
   21.5594  -17.7754  -14.5608 C   0  0  0  0  0  0  0  0  0  0  0  0
   20.3955  -17.5562  -14.1333 O   0  0  0  0  0  0  0  0  0  0  0  0
   22.2234  -19.0249  -14.1915 C   0  0  0  0  0  0  0  0  0  0  0  0
   21.3563  -19.9528  -13.3496 C   0  0  2  0  0  0  0  0  0  0  0  0
   22.2233  -21.0340  -12.9507 N   0  0  0  0  0  0  0  0  0  0  0  0
   20.1690  -20.4343  -14.0843 C   0  0  0  0  0  0  0  0  0  0  0  0
   18.8925  -20.0727  -13.7112 O   0  0  0  0  0  0  0  0  0  0  0  0
   20.3197  -21.1895  -15.0708 O   0  0  0  0  0  0  0  0  0  0  0  0
  2  1  1  0
  3  2  2  0
  4  3  1  0
  5  4  2  0
  5 11  1  0
  6  5  1  0
  7  6  1  0
  7  9  1  0
  7  8  1  6
  9 10  2  0
 11 12  2  0
 12  2  1  0
 14 13  1  1
 15 14  1  0
 15  9  1  0
 16 14  1  0
 16 17  2  0
 18 19  1  0
 19 20  2  0
 19 21  1  0
 22 21  1  6
 22 23  1  0
 22 24  1  0
 23 16  1  0
 24 26  2  0
 24 25  1  0
M  END
$$$$
