YAN.pdb
     RDKit          3D

 26 26  0  0  1  0  0  0  0  0999 V2000
   22.8377  -17.7831  -22.0090 O   0  0  0  0  0  0  0  0  0  0  0  0
   23.5200  -18.7909  -21.3396 C   0  0  0  0  0  0  0  0  0  0  0  0
   22.8764  -19.9344  -20.8848 C   0  0  0  0  0  0  0  0  0  0  0  0
   23.5511  -20.9353  -20.2209 C   0  0  0  0  0  0  0  0  0  0  0  0
   24.9044  -20.8371  -19.9812 C   0  0  0  0  0  0  0  0  0  0  0  0
   25.6924  -21.8881  -19.2669 C   0  0  0  0  0  0  0  0  0  0  0  0
   25.1735  -21.8943  -17.8475 C   0  0  2  0  0  0  0  0  0  0  0  0
   25.7034  -20.7455  -17.1490 N   0  0  0  0  0  0  0  0  0  0  0  0
   25.4818  -23.1393  -17.1120 C   0  0  0  0  0  0  0  0  0  0  0  0
   26.6359  -23.2900  -16.6313 O   0  0  0  0  0  0  0  0  0  0  0  0
   25.5343  -19.6859  -20.4431 C   0  0  0  0  0  0  0  0  0  0  0  0
   24.8679  -18.6867  -21.1044 C   0  0  0  0  0  0  0  0  0  0  0  0
   23.4454  -26.1322  -16.0969 C   0  0  0  0  0  0  0  0  0  0  0  0
   24.7810  -25.4165  -16.2468 C   0  0  2  0  0  0  0  0  0  0  0  0
   24.5394  -24.1787  -16.9179 N   0  0  0  0  0  0  0  0  0  0  0  0
   25.6654  -26.3106  -17.0802 C   0  0  0  0  0  0  0  0  0  0  0  0
   25.6998  -26.1964  -18.3319 O   0  0  0  0  0  0  0  0  0  0  0  0
   29.2128  -29.9161  -18.3234 N   0  0  0  0  0  0  0  0  0  0  0  0
   29.1868  -29.7775  -16.9159 C   0  0  0  0  0  0  0  0  0  0  0  0
   29.9936  -30.4103  -16.1851 O   0  0  0  0  0  0  0  0  0  0  0  0
   28.2120  -28.8880  -16.2859 C   0  0  0  0  0  0  0  0  0  0  0  0
   27.3458  -28.1263  -17.2815 C   0  0  2  0  0  0  0  0  0  0  0  0
   26.4769  -27.2983  -16.4820 N   0  0  0  0  0  0  0  0  0  0  0  0
   26.5889  -29.0275  -18.1738 C   0  0  0  0  0  0  0  0  0  0  0  0
   27.0566  -29.3657  -19.4253 O   0  0  0  0  0  0  0  0  0  0  0  0
   25.4952  -29.4988  -17.7893 O   0  0  0  0  0  0  0  0  0  0  0  0
  2  1  1  0
  3  2  2  0
  4  3  1  0
  5  4  2  0
  5 11  1  0
  6  5  1  0
  7  6  1  0
  7  9  1  0
  7  8  1  1
  9 10  2  0
 11 12  2  0
 12  2  1  0
 14 13  1  6
 15 14  1  0
 15  9  1  0
 16 14  1  0
 16 17  2  0
 18 19  1  0
 19 20  2  0
 19 21  1  0
 22 21  1  1
 22 23  1  0
 22 24  1  0
 23 16  1  0
 24 26  2  0
 24 25  1  0
M  END
$$$$
