YAN.pdb
     RDKit          3D

 26 26  0  0  1  0  0  0  0  0999 V2000
   30.6655  -21.8269   -9.8790 O   0  0  0  0  0  0  0  0  0  0  0  0
   29.5851  -21.3458  -10.6073 C   0  0  0  0  0  0  0  0  0  0  0  0
   29.7563  -20.6052  -11.7696 C   0  0  0  0  0  0  0  0  0  0  0  0
   28.6863  -20.1273  -12.4936 C   0  0  0  0  0  0  0  0  0  0  0  0
   27.3925  -20.3694  -12.0864 C   0  0  0  0  0  0  0  0  0  0  0  0
   26.1904  -19.8784  -12.8280 C   0  0  0  0  0  0  0  0  0  0  0  0
   26.2635  -20.5188  -14.1949 C   0  0  2  0  0  0  0  0  0  0  0  0
   26.7264  -19.5371  -15.1490 N   0  0  0  0  0  0  0  0  0  0  0  0
   24.9839  -21.1127  -14.6374 C   0  0  0  0  0  0  0  0  0  0  0  0
   24.0977  -20.3568  -15.1162 O   0  0  0  0  0  0  0  0  0  0  0  0
   27.2378  -21.1126  -10.9205 C   0  0  0  0  0  0  0  0  0  0  0  0
   28.2990  -21.5907  -10.1960 C   0  0  0  0  0  0  0  0  0  0  0  0
   23.6960  -24.6386  -14.8579 C   0  0  0  0  0  0  0  0  0  0  0  0
   23.4866  -23.1334  -14.9535 C   0  0  2  0  0  0  0  0  0  0  0  0
   24.7010  -22.4978  -14.5511 N   0  0  0  0  0  0  0  0  0  0  0  0
   22.3646  -22.7868  -14.0062 C   0  0  0  0  0  0  0  0  0  0  0  0
   22.5823  -22.1052  -12.9723 O   0  0  0  0  0  0  0  0  0  0  0  0
   19.4519  -21.1365  -11.2166 N   0  0  0  0  0  0  0  0  0  0  0  0
   19.6518  -20.4660  -12.4460 C   0  0  0  0  0  0  0  0  0  0  0  0
   19.6183  -19.2092  -12.5143 O   0  0  0  0  0  0  0  0  0  0  0  0
   19.9024  -21.2328  -13.6657 C   0  0  0  0  0  0  0  0  0  0  0  0
   19.9477  -22.7394  -13.4427 C   0  0  2  0  0  0  0  0  0  0  0  0
   21.0427  -23.2160  -14.2512 N   0  0  0  0  0  0  0  0  0  0  0  0
   18.6723  -23.3984  -13.7896 C   0  0  0  0  0  0  0  0  0  0  0  0
   18.4932  -24.0349  -14.9988 O   0  0  0  0  0  0  0  0  0  0  0  0
   17.7275  -23.3817  -12.9692 O   0  0  0  0  0  0  0  0  0  0  0  0
  2  1  1  0
  3  2  2  0
  4  3  1  0
  5  4  2  0
  5 11  1  0
  6  5  1  0
  7  6  1  0
  7  9  1  0
  7  8  1  6
  9 10  2  0
 11 12  2  0
 12  2  1  0
 14 13  1  1
 15 14  1  0
 15  9  1  0
 16 14  1  0
 16 17  2  0
 18 19  1  0
 19 20  2  0
 19 21  1  0
 22 21  1  6
 22 23  1  0
 22 24  1  0
 23 16  1  0
 24 26  2  0
 24 25  1  0
M  END
$$$$
