YAN.pdb
     RDKit          3D

 26 26  0  0  1  0  0  0  0  0999 V2000
   37.4192  -12.5160   -5.4046 O   0  0  0  0  0  0  0  0  0  0  0  0
   37.2243  -12.0480   -6.6978 C   0  0  0  0  0  0  0  0  0  0  0  0
   37.2842  -12.8918   -7.7992 C   0  0  0  0  0  0  0  0  0  0  0  0
   37.0910  -12.4300   -9.0825 C   0  0  0  0  0  0  0  0  0  0  0  0
   36.8284  -11.0989   -9.3229 C   0  0  0  0  0  0  0  0  0  0  0  0
   36.6097  -10.5368  -10.6911 C   0  0  0  0  0  0  0  0  0  0  0  0
   37.9877  -10.3655  -11.2878 C   0  0  2  0  0  0  0  0  0  0  0  0
   38.6603   -9.2798  -10.6117 N   0  0  0  0  0  0  0  0  0  0  0  0
   37.9741  -10.1409  -12.7491 C   0  0  0  0  0  0  0  0  0  0  0  0
   37.8155   -8.9688  -13.1813 O   0  0  0  0  0  0  0  0  0  0  0  0
   36.7716  -10.2668   -8.2093 C   0  0  0  0  0  0  0  0  0  0  0  0
   36.9630  -10.7211   -6.9299 C   0  0  0  0  0  0  0  0  0  0  0  0
   38.6576  -12.3147  -15.7276 C   0  0  0  0  0  0  0  0  0  0  0  0
   38.0914  -11.0404  -15.1161 C   0  0  2  0  0  0  0  0  0  0  0  0
   38.1323  -11.1830  -13.6952 N   0  0  0  0  0  0  0  0  0  0  0  0
   36.6670  -10.9190  -15.5985 C   0  0  0  0  0  0  0  0  0  0  0  0
   35.7450  -11.5800  -15.0562 O   0  0  0  0  0  0  0  0  0  0  0  0
   32.4213   -9.1536  -17.9430 N   0  0  0  0  0  0  0  0  0  0  0  0
   33.1848   -8.1989  -17.2313 C   0  0  0  0  0  0  0  0  0  0  0  0
   32.7146   -7.0634  -16.9574 O   0  0  0  0  0  0  0  0  0  0  0  0
   34.5442   -8.5227  -16.8003 C   0  0  0  0  0  0  0  0  0  0  0  0
   34.9645   -9.9511  -17.1236 C   0  0  2  0  0  0  0  0  0  0  0  0
   36.3285  -10.0638  -16.6690 N   0  0  0  0  0  0  0  0  0  0  0  0
   34.8295  -10.2661  -18.5602 C   0  0  0  0  0  0  0  0  0  0  0  0
   33.7535  -10.9771  -19.0461 O   0  0  0  0  0  0  0  0  0  0  0  0
   35.7108   -9.8805  -19.3606 O   0  0  0  0  0  0  0  0  0  0  0  0
  2  1  1  0
  3  2  2  0
  4  3  1  0
  5  4  2  0
  5 11  1  0
  6  5  1  0
  7  6  1  0
  7  9  1  0
  7  8  1  1
  9 10  2  0
 11 12  2  0
 12  2  1  0
 14 13  1  6
 15 14  1  0
 15  9  1  0
 16 14  1  0
 16 17  2  0
 18 19  1  0
 19 20  2  0
 19 21  1  0
 22 21  1  6
 22 23  1  0
 22 24  1  0
 23 16  1  0
 24 26  2  0
 24 25  1  0
M  END
$$$$
