KEV.pdb
     RDKit          3D

 26 25  0  0  1  0  0  0  0  0999 V2000
   17.4112  -11.2647  -18.1833 N   0  0  0  0  0  0  0  0  0  0  0  0
   17.6517  -10.9787  -16.8030 C   0  0  1  0  0  0  0  0  0  0  0  0
   18.5398  -11.9235  -16.0774 C   0  0  0  0  0  0  0  0  0  0  0  0
   18.2173  -13.3571  -16.0973 C   0  0  0  0  0  0  0  0  0  0  0  0
   17.1045  -13.8552  -15.2649 C   0  0  0  0  0  0  0  0  0  0  0  0
   16.8443  -15.3356  -15.3940 C   0  0  0  0  0  0  0  0  0  0  0  0
   15.7912  -15.6806  -14.4487 N   0  0  0  0  0  0  0  0  0  0  0  0
   18.0552   -9.5625  -16.6519 C   0  0  0  0  0  0  0  0  0  0  0  0
   18.8363   -9.0808  -17.5489 O   0  0  0  0  0  0  0  0  0  0  0  0
   17.6865   -8.6730  -15.6381 N   0  0  0  0  0  0  0  0  0  0  0  0
   18.1347   -7.2913  -15.5631 C   0  0  1  0  0  0  0  0  0  0  0  0
   16.9390   -6.4451  -15.1983 C   0  0  0  0  0  0  0  0  0  0  0  0
   17.2432   -4.9852  -15.1408 C   0  0  0  0  0  0  0  0  0  0  0  0
   16.0021   -4.2219  -14.8752 C   0  0  0  0  0  0  0  0  0  0  0  0
   14.9197   -4.6489  -15.3405 O   0  0  0  0  0  0  0  0  0  0  0  0
   19.2557   -7.1135  -14.6313 C   0  0  0  0  0  0  0  0  0  0  0  0
   19.1198   -7.5523  -13.4612 O   0  0  0  0  0  0  0  0  0  0  0  0
   15.9765   -3.0532  -14.1343 O   0  0  0  0  0  0  0  0  0  0  0  0
   22.5928   -8.5502  -14.7216 C   0  0  0  0  0  0  0  0  0  0  0  0
   22.8288   -7.0635  -14.5846 C   0  0  1  0  0  0  0  0  0  0  0  0
   23.2091   -6.5044  -15.9420 C   0  0  0  0  0  0  0  0  0  0  0  0
   21.5958   -6.4231  -14.0343 C   0  0  2  0  0  0  0  0  0  0  0  0
   20.4819   -6.4788  -14.9650 N   0  0  0  0  0  0  0  0  0  0  0  0
   21.9029   -5.0158  -13.6568 C   0  0  0  0  0  0  0  0  0  0  0  0
   21.3921   -4.1005  -14.3265 O   0  0  0  0  0  0  0  0  0  0  0  0
   22.7260   -4.6972  -12.6008 O   0  0  0  0  0  0  0  0  0  0  0  0
  2  1  1  6
  3  2  1  0
  4  3  1  0
  5  4  1  0
  5  6  1  0
  7  6  1  0
  8  2  1  0
  8 10  1  0
  9  8  2  0
 11 10  1  0
 12 13  1  0
 11 12  1  1
 13 14  1  0
 14 18  1  0
 15 14  2  0
 16 11  1  0
 17 16  2  0
 20 19  1  6
 20 22  1  0
 21 20  1  0
 22 23  1  6
 22 24  1  0
 23 16  1  0
 24 26  1  0
 25 24  2  0
M  END
$$$$
