KEV.pdb
     RDKit          3D

 26 25  0  0  1  0  0  0  0  0999 V2000
   27.7308  -21.8549  -17.0949 N   0  0  0  0  0  0  0  0  0  0  0  0
   26.7935  -20.8333  -16.7444 C   0  0  1  0  0  0  0  0  0  0  0  0
   26.1387  -20.1219  -17.8728 C   0  0  0  0  0  0  0  0  0  0  0  0
   26.9361  -19.7949  -19.0630 C   0  0  0  0  0  0  0  0  0  0  0  0
   27.4762  -18.4292  -19.2135 C   0  0  0  0  0  0  0  0  0  0  0  0
   28.2126  -18.1898  -20.5083 C   0  0  0  0  0  0  0  0  0  0  0  0
   28.7719  -16.8460  -20.4535 N   0  0  0  0  0  0  0  0  0  0  0  0
   25.8335  -21.3603  -15.7484 C   0  0  0  0  0  0  0  0  0  0  0  0
   25.1354  -22.3797  -16.0953 O   0  0  0  0  0  0  0  0  0  0  0  0
   25.5890  -20.8772  -14.4593 N   0  0  0  0  0  0  0  0  0  0  0  0
   24.5657  -21.4060  -13.5712 C   0  0  1  0  0  0  0  0  0  0  0  0
   24.9771  -21.0758  -12.1568 C   0  0  0  0  0  0  0  0  0  0  0  0
   24.0605  -21.6456  -11.1261 C   0  0  0  0  0  0  0  0  0  0  0  0
   24.5737  -21.3396   -9.7708 C   0  0  0  0  0  0  0  0  0  0  0  0
   23.7654  -20.9628   -8.8904 O   0  0  0  0  0  0  0  0  0  0  0  0
   23.2241  -20.9064  -13.8985 C   0  0  0  0  0  0  0  0  0  0  0  0
   23.0824  -19.6670  -14.0532 O   0  0  0  0  0  0  0  0  0  0  0  0
   25.9092  -21.4493   -9.4248 O   0  0  0  0  0  0  0  0  0  0  0  0
   18.7880  -21.4419  -15.8486 C   0  0  0  0  0  0  0  0  0  0  0  0
   20.1324  -22.0417  -15.5054 C   0  0  1  0  0  0  0  0  0  0  0  0
   20.9561  -22.1466  -16.7744 C   0  0  0  0  0  0  0  0  0  0  0  0
   20.7948  -21.1923  -14.4696 C   0  0  2  0  0  0  0  0  0  0  0  0
   22.0775  -21.7308  -14.0512 N   0  0  0  0  0  0  0  0  0  0  0  0
   19.8787  -21.0370  -13.3060 C   0  0  0  0  0  0  0  0  0  0  0  0
   19.8985  -21.9090  -12.4193 O   0  0  0  0  0  0  0  0  0  0  0  0
   19.0186  -19.9700  -13.1805 O   0  0  0  0  0  0  0  0  0  0  0  0
  2  1  1  6
  3  2  1  0
  4  3  1  0
  5  4  1  0
  5  6  1  0
  7  6  1  0
  8  2  1  0
  8 10  1  0
  9  8  2  0
 11 10  1  0
 12 13  1  0
 11 12  1  1
 13 14  1  0
 14 18  1  0
 15 14  2  0
 16 11  1  0
 17 16  2  0
 20 19  1  6
 20 22  1  0
 21 20  1  0
 22 23  1  1
 22 24  1  0
 23 16  1  0
 24 26  1  0
 25 24  2  0
M  END
$$$$
