KEV.pdb
     RDKit          3D

 26 25  0  0  1  0  0  0  0  0999 V2000
   29.3824  -19.7954  -12.9359 N   0  0  0  0  0  0  0  0  0  0  0  0
   28.4382  -20.6148  -12.2415 C   0  0  1  0  0  0  0  0  0  0  0  0
   28.5474  -20.6382  -10.7598 C   0  0  0  0  0  0  0  0  0  0  0  0
   29.8732  -20.8075  -10.1490 C   0  0  0  0  0  0  0  0  0  0  0  0
   30.6805  -21.9926  -10.5001 C   0  0  0  0  0  0  0  0  0  0  0  0
   32.0652  -22.0026   -9.9014 C   0  0  0  0  0  0  0  0  0  0  0  0
   32.7757  -23.1463  -10.4571 N   0  0  0  0  0  0  0  0  0  0  0  0
   27.0710  -20.3149  -12.7233 C   0  0  0  0  0  0  0  0  0  0  0  0
   26.6791  -19.0958  -12.6409 O   0  0  0  0  0  0  0  0  0  0  0  0
   26.1407  -21.2082  -13.2631 N   0  0  0  0  0  0  0  0  0  0  0  0
   24.8190  -20.8237  -13.7328 C   0  0  1  0  0  0  0  0  0  0  0  0
   24.7044  -21.2593  -15.1736 C   0  0  0  0  0  0  0  0  0  0  0  0
   23.4215  -20.8480  -15.8155 C   0  0  0  0  0  0  0  0  0  0  0  0
   23.3739  -21.3443  -17.2102 C   0  0  0  0  0  0  0  0  0  0  0  0
   22.3832  -21.0540  -17.9205 O   0  0  0  0  0  0  0  0  0  0  0  0
   23.7436  -21.3670  -12.8932 C   0  0  0  0  0  0  0  0  0  0  0  0
   23.9081  -22.5108  -12.3984 O   0  0  0  0  0  0  0  0  0  0  0  0
   24.3745  -22.1174  -17.7728 O   0  0  0  0  0  0  0  0  0  0  0  0
   22.6422  -20.5036   -9.7022 C   0  0  0  0  0  0  0  0  0  0  0  0
   21.3422  -20.4850  -10.4731 C   0  0  1  0  0  0  0  0  0  0  0  0
   20.9510  -19.0428  -10.7319 C   0  0  0  0  0  0  0  0  0  0  0  0
   21.5152  -21.2601  -11.7390 C   0  0  2  0  0  0  0  0  0  0  0  0
   22.5312  -20.6857  -12.6040 N   0  0  0  0  0  0  0  0  0  0  0  0
   20.2055  -21.3461  -12.4422 C   0  0  0  0  0  0  0  0  0  0  0  0
   20.0791  -20.7535  -13.5285 O   0  0  0  0  0  0  0  0  0  0  0  0
   19.1396  -22.0534  -11.9344 O   0  0  0  0  0  0  0  0  0  0  0  0
  2  1  1  6
  3  2  1  0
  4  3  1  0
  5  4  1  0
  5  6  1  0
  7  6  1  0
  8  2  1  0
  8 10  1  0
  9  8  2  0
 11 10  1  0
 12 13  1  0
 11 12  1  6
 13 14  1  0
 14 18  1  0
 15 14  2  0
 16 11  1  0
 17 16  2  0
 20 19  1  6
 20 22  1  0
 21 20  1  0
 22 23  1  6
 22 24  1  0
 23 16  1  0
 24 26  1  0
 25 24  2  0
M  END
$$$$
