KEV.pdb
     RDKit          3D

 26 25  0  0  1  0  0  0  0  0999 V2000
   16.9590  -12.4043  -16.7637 N   0  0  0  0  0  0  0  0  0  0  0  0
   16.1240  -11.2457  -16.6886 C   0  0  1  0  0  0  0  0  0  0  0  0
   14.7810  -11.4373  -16.0825 C   0  0  0  0  0  0  0  0  0  0  0  0
   14.0085  -12.6367  -16.4351 C   0  0  0  0  0  0  0  0  0  0  0  0
   13.7281  -13.6435  -15.3924 C   0  0  0  0  0  0  0  0  0  0  0  0
   12.8363  -14.7742  -15.8421 C   0  0  0  0  0  0  0  0  0  0  0  0
   12.5901  -15.6258  -14.6863 N   0  0  0  0  0  0  0  0  0  0  0  0
   16.8825  -10.1247  -16.0891 C   0  0  0  0  0  0  0  0  0  0  0  0
   16.3211   -9.4923  -15.1239 O   0  0  0  0  0  0  0  0  0  0  0  0
   18.1517   -9.6626  -16.4504 N   0  0  0  0  0  0  0  0  0  0  0  0
   18.8629   -8.6035  -15.7518 C   0  0  1  0  0  0  0  0  0  0  0  0
   20.3287   -8.9643  -15.7516 C   0  0  0  0  0  0  0  0  0  0  0  0
   21.1890   -7.9426  -15.0859 C   0  0  0  0  0  0  0  0  0  0  0  0
   22.6008   -8.3901  -15.0937 C   0  0  0  0  0  0  0  0  0  0  0  0
   22.9739   -9.2255  -14.2372 O   0  0  0  0  0  0  0  0  0  0  0  0
   18.6093   -7.2784  -16.3316 C   0  0  0  0  0  0  0  0  0  0  0  0
   18.7947   -7.1342  -17.5664 O   0  0  0  0  0  0  0  0  0  0  0  0
   23.5355   -7.9298  -16.0047 O   0  0  0  0  0  0  0  0  0  0  0  0
   15.6794   -5.3782  -16.9603 C   0  0  0  0  0  0  0  0  0  0  0  0
   16.5228   -4.4249  -16.1450 C   0  0  1  0  0  0  0  0  0  0  0  0
   15.9974   -4.4056  -14.7225 C   0  0  0  0  0  0  0  0  0  0  0  0
   17.9517   -4.8569  -16.2145 C   0  0  2  0  0  0  0  0  0  0  0  0
   18.1689   -6.1501  -15.5893 N   0  0  0  0  0  0  0  0  0  0  0  0
   18.8089   -3.8131  -15.5876 C   0  0  0  0  0  0  0  0  0  0  0  0
   19.3610   -4.0756  -14.5044 O   0  0  0  0  0  0  0  0  0  0  0  0
   19.0086   -2.5786  -16.1621 O   0  0  0  0  0  0  0  0  0  0  0  0
  2  1  1  1
  3  2  1  0
  4  3  1  0
  5  4  1  0
  5  6  1  0
  7  6  1  0
  8  2  1  0
  8 10  1  0
  9  8  2  0
 11 10  1  0
 12 13  1  0
 11 12  1  6
 13 14  1  0
 14 18  1  0
 15 14  2  0
 16 11  1  0
 17 16  2  0
 20 19  1  6
 20 22  1  0
 21 20  1  0
 22 23  1  1
 22 24  1  0
 23 16  1  0
 24 26  1  0
 25 24  2  0
M  END
$$$$
