KEV.pdb
     RDKit          3D

 26 25  0  0  1  0  0  0  0  0999 V2000
   18.2477  -14.9238  -19.3584 N   0  0  0  0  0  0  0  0  0  0  0  0
   18.8475  -14.7115  -18.0777 C   0  0  1  0  0  0  0  0  0  0  0  0
   19.8226  -15.7378  -17.6263 C   0  0  0  0  0  0  0  0  0  0  0  0
   19.3682  -17.1262  -17.4674 C   0  0  0  0  0  0  0  0  0  0  0  0
   18.3207  -17.4304  -16.4726 C   0  0  0  0  0  0  0  0  0  0  0  0
   17.8423  -18.8611  -16.4895 C   0  0  0  0  0  0  0  0  0  0  0  0
   16.8612  -19.0088  -15.4230 N   0  0  0  0  0  0  0  0  0  0  0  0
   19.3725  -13.3297  -17.9979 C   0  0  0  0  0  0  0  0  0  0  0  0
   20.5903  -13.1479  -18.3592 O   0  0  0  0  0  0  0  0  0  0  0  0
   18.6967  -12.1828  -17.5703 N   0  0  0  0  0  0  0  0  0  0  0  0
   19.3045  -10.8645  -17.4804 C   0  0  1  0  0  0  0  0  0  0  0  0
   18.1894   -9.8474  -17.5073 C   0  0  0  0  0  0  0  0  0  0  0  0
   18.6718   -8.4383  -17.4121 C   0  0  0  0  0  0  0  0  0  0  0  0
   17.5187   -7.5089  -17.4234 C   0  0  0  0  0  0  0  0  0  0  0  0
   16.8907   -7.3133  -16.3567 O   0  0  0  0  0  0  0  0  0  0  0  0
   20.1676  -10.7225  -16.3007 C   0  0  0  0  0  0  0  0  0  0  0  0
   19.7396  -11.1659  -15.2052 O   0  0  0  0  0  0  0  0  0  0  0  0
   17.0964   -6.8408  -18.5596 O   0  0  0  0  0  0  0  0  0  0  0  0
   24.4072  -10.0041  -13.9949 C   0  0  0  0  0  0  0  0  0  0  0  0
   23.6615  -10.2998  -15.2760 C   0  0  1  0  0  0  0  0  0  0  0  0
   23.8344  -11.7687  -15.6113 C   0  0  0  0  0  0  0  0  0  0  0  0
   22.2256   -9.9246  -15.1017 C   0  0  2  0  0  0  0  0  0  0  0  0
   21.4528  -10.1175  -16.3166 N   0  0  0  0  0  0  0  0  0  0  0  0
   22.1424   -8.5121  -14.6378 C   0  0  0  0  0  0  0  0  0  0  0  0
   21.9761   -7.6205  -15.4890 O   0  0  0  0  0  0  0  0  0  0  0  0
   22.2425   -8.1637  -13.3102 O   0  0  0  0  0  0  0  0  0  0  0  0
  2  1  1  6
  3  2  1  0
  4  3  1  0
  5  4  1  0
  5  6  1  0
  7  6  1  0
  8  2  1  0
  8 10  1  0
  9  8  2  0
 11 10  1  0
 12 13  1  0
 11 12  1  1
 13 14  1  0
 14 18  1  0
 15 14  2  0
 16 11  1  0
 17 16  2  0
 20 19  1  1
 20 22  1  0
 21 20  1  0
 22 23  1  6
 22 24  1  0
 23 16  1  0
 24 26  1  0
 25 24  2  0
M  END
$$$$
