KEV.pdb
     RDKit          3D

 26 25  0  0  1  0  0  0  0  0999 V2000
   19.3101  -15.7319  -17.6329 N   0  0  0  0  0  0  0  0  0  0  0  0
   18.6189  -14.4903  -17.7936 C   0  0  1  0  0  0  0  0  0  0  0  0
   17.3636  -14.3274  -17.0154 C   0  0  0  0  0  0  0  0  0  0  0  0
   16.1760  -15.0944  -17.4166 C   0  0  0  0  0  0  0  0  0  0  0  0
   15.7732  -15.1053  -18.8369 C   0  0  0  0  0  0  0  0  0  0  0  0
   14.5222  -15.8984  -19.1234 C   0  0  0  0  0  0  0  0  0  0  0  0
   14.2268  -15.7551  -20.5426 N   0  0  0  0  0  0  0  0  0  0  0  0
   19.5671  -13.3673  -17.6173 C   0  0  0  0  0  0  0  0  0  0  0  0
   20.3723  -13.4363  -16.6205 O   0  0  0  0  0  0  0  0  0  0  0  0
   19.6946  -12.2245  -18.4126 N   0  0  0  0  0  0  0  0  0  0  0  0
   20.7163  -11.2073  -18.2203 C   0  0  1  0  0  0  0  0  0  0  0  0
   20.6567  -10.2739  -19.4052 C   0  0  0  0  0  0  0  0  0  0  0  0
   21.7327   -9.2398  -19.3979 C   0  0  0  0  0  0  0  0  0  0  0  0
   21.5777   -8.3429  -20.5663 C   0  0  0  0  0  0  0  0  0  0  0  0
   22.6053   -7.8615  -21.0981 O   0  0  0  0  0  0  0  0  0  0  0  0
   20.5735  -10.5019  -16.9401 C   0  0  0  0  0  0  0  0  0  0  0  0
   19.4131  -10.3497  -16.4816 O   0  0  0  0  0  0  0  0  0  0  0  0
   20.3476   -8.0072  -21.1046 O   0  0  0  0  0  0  0  0  0  0  0  0
   23.7388   -9.9638  -14.2059 C   0  0  0  0  0  0  0  0  0  0  0  0
   22.2787  -10.0200  -13.8187 C   0  0  1  0  0  0  0  0  0  0  0  0
   22.1069   -9.3468  -12.4706 C   0  0  0  0  0  0  0  0  0  0  0  0
   21.4657   -9.3631  -14.8867 C   0  0  2  0  0  0  0  0  0  0  0  0
   21.6595   -9.9808  -16.1872 N   0  0  0  0  0  0  0  0  0  0  0  0
   21.7995   -7.9126  -14.9325 C   0  0  0  0  0  0  0  0  0  0  0  0
   22.4835   -7.4945  -15.8836 O   0  0  0  0  0  0  0  0  0  0  0  0
   21.3800   -7.0274  -13.9659 O   0  0  0  0  0  0  0  0  0  0  0  0
  2  1  1  1
  3  2  1  0
  4  3  1  0
  5  4  1  0
  5  6  1  0
  7  6  1  0
  8  2  1  0
  8 10  1  0
  9  8  2  0
 11 10  1  0
 12 13  1  0
 11 12  1  6
 13 14  1  0
 14 18  1  0
 15 14  2  0
 16 11  1  0
 17 16  2  0
 20 19  1  6
 20 22  1  0
 21 20  1  0
 22 23  1  6
 22 24  1  0
 23 16  1  0
 24 26  1  0
 25 24  2  0
M  END
$$$$
