KEV.pdb
     RDKit          3D

 26 25  0  0  1  0  0  0  0  0999 V2000
   14.0181   -9.9251  -13.3384 N   0  0  0  0  0  0  0  0  0  0  0  0
   15.1804  -10.1010  -12.5241 C   0  0  1  0  0  0  0  0  0  0  0  0
   16.1229  -11.1717  -12.9401 C   0  0  0  0  0  0  0  0  0  0  0  0
   15.9256  -11.8233  -14.2424 C   0  0  0  0  0  0  0  0  0  0  0  0
   16.7444  -13.0023  -14.5878 C   0  0  0  0  0  0  0  0  0  0  0  0
   16.5355  -13.5163  -15.9907 C   0  0  0  0  0  0  0  0  0  0  0  0
   17.3775  -14.6932  -16.1571 N   0  0  0  0  0  0  0  0  0  0  0  0
   15.8387   -8.7927  -12.3086 C   0  0  0  0  0  0  0  0  0  0  0  0
   15.9351   -8.0151  -13.3248 O   0  0  0  0  0  0  0  0  0  0  0  0
   16.3770   -8.2933  -11.1187 N   0  0  0  0  0  0  0  0  0  0  0  0
   16.9677   -6.9711  -10.9830 C   0  0  1  0  0  0  0  0  0  0  0  0
   16.5823   -6.4388   -9.6240 C   0  0  0  0  0  0  0  0  0  0  0  0
   17.2804   -5.1691   -9.2667 C   0  0  0  0  0  0  0  0  0  0  0  0
   16.2869   -4.1336   -8.9001 C   0  0  0  0  0  0  0  0  0  0  0  0
   15.0785   -4.4568   -8.8238 O   0  0  0  0  0  0  0  0  0  0  0  0
   18.4212   -6.9803  -11.1927 C   0  0  0  0  0  0  0  0  0  0  0  0
   19.1206   -7.6773  -10.4149 O   0  0  0  0  0  0  0  0  0  0  0  0
   16.6272   -2.8184   -8.6356 O   0  0  0  0  0  0  0  0  0  0  0  0
   20.6382   -8.4337  -13.4262 C   0  0  0  0  0  0  0  0  0  0  0  0
   21.0110   -6.9739  -13.5483 C   0  0  1  0  0  0  0  0  0  0  0  0
   20.4023   -6.4216  -14.8228 C   0  0  0  0  0  0  0  0  0  0  0  0
   20.5356   -6.2462  -12.3328 C   0  0  2  0  0  0  0  0  0  0  0  0
   19.0877   -6.2538  -12.2154 N   0  0  0  0  0  0  0  0  0  0  0  0
   21.0589   -4.8524  -12.3617 C   0  0  0  0  0  0  0  0  0  0  0  0
   20.2504   -3.9221  -12.5290 O   0  0  0  0  0  0  0  0  0  0  0  0
   22.3957   -4.5622  -12.2108 O   0  0  0  0  0  0  0  0  0  0  0  0
  2  1  1  6
  3  2  1  0
  4  3  1  0
  5  4  1  0
  5  6  1  0
  7  6  1  0
  8  2  1  0
  8 10  1  0
  9  8  2  0
 11 10  1  0
 12 13  1  0
 11 12  1  1
 13 14  1  0
 14 18  1  0
 15 14  2  0
 16 11  1  0
 17 16  2  0
 20 19  1  1
 20 22  1  0
 21 20  1  0
 22 23  1  6
 22 24  1  0
 23 16  1  0
 24 26  1  0
 25 24  2  0
M  END
$$$$
