KEV.pdb
     RDKit          3D

 26 25  0  0  1  0  0  0  0  0999 V2000
   18.2935  -14.0116  -15.6912 N   0  0  0  0  0  0  0  0  0  0  0  0
   18.1223  -12.8769  -16.5445 C   0  0  1  0  0  0  0  0  0  0  0  0
   16.7651  -12.6786  -17.1158 C   0  0  0  0  0  0  0  0  0  0  0  0
   15.9758  -13.8588  -17.4947 C   0  0  0  0  0  0  0  0  0  0  0  0
   15.5810  -14.0368  -18.9061 C   0  0  0  0  0  0  0  0  0  0  0  0
   14.7550  -15.2711  -19.1708 C   0  0  0  0  0  0  0  0  0  0  0  0
   14.6024  -15.3963  -20.6140 N   0  0  0  0  0  0  0  0  0  0  0  0
   18.6596  -11.6690  -15.8785 C   0  0  0  0  0  0  0  0  0  0  0  0
   18.3226  -11.4803  -14.6548 O   0  0  0  0  0  0  0  0  0  0  0  0
   19.4992  -10.6941  -16.4260 N   0  0  0  0  0  0  0  0  0  0  0  0
   19.9564   -9.5151  -15.7073 C   0  0  1  0  0  0  0  0  0  0  0  0
   21.4654   -9.5501  -15.6907 C   0  0  0  0  0  0  0  0  0  0  0  0
   22.0763   -8.3799  -14.9946 C   0  0  0  0  0  0  0  0  0  0  0  0
   23.5514   -8.4354  -15.1153 C   0  0  0  0  0  0  0  0  0  0  0  0
   24.1335   -7.5671  -15.8065 O   0  0  0  0  0  0  0  0  0  0  0  0
   19.4283   -8.2691  -16.2774 C   0  0  0  0  0  0  0  0  0  0  0  0
   19.6156   -8.0602  -17.5027 O   0  0  0  0  0  0  0  0  0  0  0  0
   24.3251   -9.4037  -14.4996 O   0  0  0  0  0  0  0  0  0  0  0  0
   16.1589   -7.1550  -16.9636 C   0  0  0  0  0  0  0  0  0  0  0  0
   16.7115   -6.0199  -16.1323 C   0  0  1  0  0  0  0  0  0  0  0  0
   16.1570   -6.1329  -14.7253 C   0  0  0  0  0  0  0  0  0  0  0  0
   18.2045   -6.0787  -16.1583 C   0  0  2  0  0  0  0  0  0  0  0  0
   18.7208   -7.2855  -15.5359 N   0  0  0  0  0  0  0  0  0  0  0  0
   18.7531   -4.8630  -15.4963 C   0  0  0  0  0  0  0  0  0  0  0  0
   19.3281   -4.9962  -14.4014 O   0  0  0  0  0  0  0  0  0  0  0  0
   18.6459   -3.6080  -16.0509 O   0  0  0  0  0  0  0  0  0  0  0  0
  2  1  1  1
  3  2  1  0
  4  3  1  0
  5  4  1  0
  5  6  1  0
  7  6  1  0
  8  2  1  0
  8 10  1  0
  9  8  2  0
 11 10  1  0
 12 13  1  0
 11 12  1  6
 13 14  1  0
 14 18  1  0
 15 14  2  0
 16 11  1  0
 17 16  2  0
 20 19  1  6
 20 22  1  0
 21 20  1  0
 22 23  1  1
 22 24  1  0
 23 16  1  0
 24 26  1  0
 25 24  2  0
M  END
$$$$
