KEV.pdb
     RDKit          3D

 26 25  0  0  1  0  0  0  0  0999 V2000
   14.7877  -13.6444  -12.2462 N   0  0  0  0  0  0  0  0  0  0  0  0
   13.9711  -12.4885  -12.0412 C   0  0  1  0  0  0  0  0  0  0  0  0
   12.7594  -12.6758  -11.2018 C   0  0  0  0  0  0  0  0  0  0  0  0
   11.5534  -13.2490  -11.8154 C   0  0  0  0  0  0  0  0  0  0  0  0
   11.2434  -12.9322  -13.2236 C   0  0  0  0  0  0  0  0  0  0  0  0
    9.9207  -13.4733  -13.7071 C   0  0  0  0  0  0  0  0  0  0  0  0
    9.8035  -13.1470  -15.1219 N   0  0  0  0  0  0  0  0  0  0  0  0
   14.8162  -11.3542  -11.6047 C   0  0  0  0  0  0  0  0  0  0  0  0
   15.2712  -11.3948  -10.4055 O   0  0  0  0  0  0  0  0  0  0  0  0
   15.1839  -10.2280  -12.3473 N   0  0  0  0  0  0  0  0  0  0  0  0
   15.9719   -9.1252  -11.8195 C   0  0  1  0  0  0  0  0  0  0  0  0
   16.7724   -8.5507  -12.9631 C   0  0  0  0  0  0  0  0  0  0  0  0
   17.5727   -7.3506  -12.5804 C   0  0  0  0  0  0  0  0  0  0  0  0
   18.3579   -6.8767  -13.7434 C   0  0  0  0  0  0  0  0  0  0  0  0
   19.1223   -7.6823  -14.3242 O   0  0  0  0  0  0  0  0  0  0  0  0
   15.1451   -8.1146  -11.1473 C   0  0  0  0  0  0  0  0  0  0  0  0
   14.1133   -7.7122  -11.7419 O   0  0  0  0  0  0  0  0  0  0  0  0
   18.2900   -5.5810  -14.2249 O   0  0  0  0  0  0  0  0  0  0  0  0
   15.7016   -6.8314   -7.1050 C   0  0  0  0  0  0  0  0  0  0  0  0
   14.3676   -6.7733   -7.8135 C   0  0  1  0  0  0  0  0  0  0  0  0
   13.5282   -5.6801   -7.1809 C   0  0  0  0  0  0  0  0  0  0  0  0
   14.5997   -6.5365   -9.2707 C   0  0  2  0  0  0  0  0  0  0  0  0
   15.4348   -7.5624   -9.8710 N   0  0  0  0  0  0  0  0  0  0  0  0
   15.1999   -5.1866   -9.4569 C   0  0  0  0  0  0  0  0  0  0  0  0
   16.4199   -5.1101   -9.6871 O   0  0  0  0  0  0  0  0  0  0  0  0
   14.4561   -4.0310   -9.3834 O   0  0  0  0  0  0  0  0  0  0  0  0
  2  1  1  1
  3  2  1  0
  4  3  1  0
  5  4  1  0
  5  6  1  0
  7  6  1  0
  8  2  1  0
  8 10  1  0
  9  8  2  0
 11 10  1  0
 12 13  1  0
 11 12  1  6
 13 14  1  0
 14 18  1  0
 15 14  2  0
 16 11  1  0
 17 16  2  0
 20 19  1  1
 20 22  1  0
 21 20  1  0
 22 23  1  1
 22 24  1  0
 23 16  1  0
 24 26  1  0
 25 24  2  0
M  END
$$$$
