KEV.pdb
     RDKit          3D

 26 25  0  0  1  0  0  0  0  0999 V2000
   20.8417  -11.4052  -17.3706 N   0  0  0  0  0  0  0  0  0  0  0  0
   19.5297  -11.4160  -16.8017 C   0  0  1  0  0  0  0  0  0  0  0  0
   19.1445  -12.6398  -16.0521 C   0  0  0  0  0  0  0  0  0  0  0  0
   19.3687  -13.9522  -16.6741 C   0  0  0  0  0  0  0  0  0  0  0  0
   18.8502  -15.1623  -16.0060 C   0  0  0  0  0  0  0  0  0  0  0  0
   19.2478  -16.4582  -16.6684 C   0  0  0  0  0  0  0  0  0  0  0  0
   18.7068  -17.5461  -15.8650 N   0  0  0  0  0  0  0  0  0  0  0  0
   19.3092  -10.1675  -16.0375 C   0  0  0  0  0  0  0  0  0  0  0  0
   18.1636  -10.0222  -15.4777 O   0  0  0  0  0  0  0  0  0  0  0  0
   20.2066   -9.1120  -15.8487 N   0  0  0  0  0  0  0  0  0  0  0  0
   19.9214   -7.9335  -15.0455 C   0  0  1  0  0  0  0  0  0  0  0  0
   21.2438   -7.3164  -14.6591 C   0  0  0  0  0  0  0  0  0  0  0  0
   21.1018   -6.0984  -13.8084 C   0  0  0  0  0  0  0  0  0  0  0  0
   22.4369   -5.5234  -13.5247 C   0  0  0  0  0  0  0  0  0  0  0  0
   23.2560   -5.4064  -14.4660 O   0  0  0  0  0  0  0  0  0  0  0  0
   19.0369   -6.9845  -15.7336 C   0  0  0  0  0  0  0  0  0  0  0  0
   19.2474   -6.7667  -16.9536 O   0  0  0  0  0  0  0  0  0  0  0  0
   22.8287   -5.1057  -12.2648 O   0  0  0  0  0  0  0  0  0  0  0  0
   14.7975   -4.7100  -16.3631 C   0  0  0  0  0  0  0  0  0  0  0  0
   15.6521   -5.8014  -15.7602 C   0  0  1  0  0  0  0  0  0  0  0  0
   15.3677   -7.1003  -16.4894 C   0  0  0  0  0  0  0  0  0  0  0  0
   17.0893   -5.4028  -15.8543 C   0  0  2  0  0  0  0  0  0  0  0  0
   17.9604   -6.2972  -15.1117 N   0  0  0  0  0  0  0  0  0  0  0  0
   17.2393   -3.9995  -15.3794 C   0  0  0  0  0  0  0  0  0  0  0  0
   17.4225   -3.8042  -14.1647 O   0  0  0  0  0  0  0  0  0  0  0  0
   17.1825   -2.9210  -16.2325 O   0  0  0  0  0  0  0  0  0  0  0  0
  2  1  1  1
  3  2  1  0
  4  3  1  0
  5  4  1  0
  5  6  1  0
  7  6  1  0
  8  2  1  0
  8 10  1  0
  9  8  2  0
 11 10  1  0
 12 13  1  0
 11 12  1  6
 13 14  1  0
 14 18  1  0
 15 14  2  0
 16 11  1  0
 17 16  2  0
 20 19  1  6
 20 22  1  0
 21 20  1  0
 22 23  1  1
 22 24  1  0
 23 16  1  0
 24 26  1  0
 25 24  2  0
M  END
$$$$
