KEV.pdb
     RDKit          3D

 26 25  0  0  1  0  0  0  0  0999 V2000
   16.4156  -12.4979  -15.1757 N   0  0  0  0  0  0  0  0  0  0  0  0
   16.4935  -11.2503  -15.8702 C   0  0  1  0  0  0  0  0  0  0  0  0
   15.3823  -10.2924  -15.6345 C   0  0  0  0  0  0  0  0  0  0  0  0
   14.0222  -10.6694  -16.0438 C   0  0  0  0  0  0  0  0  0  0  0  0
   13.2487   -9.7499  -16.9015 C   0  0  0  0  0  0  0  0  0  0  0  0
   11.8326  -10.1940  -17.1726 C   0  0  0  0  0  0  0  0  0  0  0  0
   11.1956   -9.1622  -17.9798 N   0  0  0  0  0  0  0  0  0  0  0  0
   17.8334  -10.6535  -15.6710 C   0  0  0  0  0  0  0  0  0  0  0  0
   18.2063  -10.4511  -14.4599 O   0  0  0  0  0  0  0  0  0  0  0  0
   18.7549  -10.2765  -16.6526 N   0  0  0  0  0  0  0  0  0  0  0  0
   20.0287   -9.6335  -16.3709 C   0  0  1  0  0  0  0  0  0  0  0  0
   20.9344   -9.8826  -17.5527 C   0  0  0  0  0  0  0  0  0  0  0  0
   22.3025   -9.3120  -17.3797 C   0  0  0  0  0  0  0  0  0  0  0  0
   23.0969   -9.5253  -18.6114 C   0  0  0  0  0  0  0  0  0  0  0  0
   24.1512   -8.8669  -18.7711 O   0  0  0  0  0  0  0  0  0  0  0  0
   19.8820   -8.2046  -16.0654 C   0  0  0  0  0  0  0  0  0  0  0  0
   18.9314   -7.5848  -16.6060 O   0  0  0  0  0  0  0  0  0  0  0  0
   22.7319  -10.4206  -19.6017 O   0  0  0  0  0  0  0  0  0  0  0  0
   22.1500   -6.1877  -13.0955 C   0  0  0  0  0  0  0  0  0  0  0  0
   20.7867   -5.6944  -13.5233 C   0  0  1  0  0  0  0  0  0  0  0  0
   20.7170   -4.1971  -13.2926 C   0  0  0  0  0  0  0  0  0  0  0  0
   20.5648   -6.0570  -14.9560 C   0  0  2  0  0  0  0  0  0  0  0  0
   20.7429   -7.4779  -15.2002 N   0  0  0  0  0  0  0  0  0  0  0  0
   21.4803   -5.2521  -15.8112 C   0  0  0  0  0  0  0  0  0  0  0  0
   21.2881   -4.0257  -15.8897 O   0  0  0  0  0  0  0  0  0  0  0  0
   22.5226   -5.8154  -16.5115 O   0  0  0  0  0  0  0  0  0  0  0  0
  2  1  1  1
  3  2  1  0
  4  3  1  0
  5  4  1  0
  5  6  1  0
  7  6  1  0
  8  2  1  0
  8 10  1  0
  9  8  2  0
 11 10  1  0
 12 13  1  0
 11 12  1  6
 13 14  1  0
 14 18  1  0
 15 14  2  0
 16 11  1  0
 17 16  2  0
 20 19  1  6
 20 22  1  0
 21 20  1  0
 22 23  1  1
 22 24  1  0
 23 16  1  0
 24 26  1  0
 25 24  2  0
M  END
$$$$
