KEV.pdb
     RDKit          3D

 26 25  0  0  1  0  0  0  0  0999 V2000
   25.9153  -21.0715  -19.6012 N   0  0  0  0  0  0  0  0  0  0  0  0
   24.6045  -21.3424  -19.0978 C   0  0  1  0  0  0  0  0  0  0  0  0
   24.0760  -22.7110  -19.3334 C   0  0  0  0  0  0  0  0  0  0  0  0
   25.0196  -23.8364  -19.3852 C   0  0  0  0  0  0  0  0  0  0  0  0
   25.5677  -24.3736  -18.1241 C   0  0  0  0  0  0  0  0  0  0  0  0
   24.9513  -25.6780  -17.6828 C   0  0  0  0  0  0  0  0  0  0  0  0
   25.7342  -26.1761  -16.5600 N   0  0  0  0  0  0  0  0  0  0  0  0
   24.5180  -20.9168  -17.6826 C   0  0  0  0  0  0  0  0  0  0  0  0
   25.5507  -20.3413  -17.1836 O   0  0  0  0  0  0  0  0  0  0  0  0
   23.4359  -21.0678  -16.8101 N   0  0  0  0  0  0  0  0  0  0  0  0
   23.3332  -20.4092  -15.5174 C   0  0  1  0  0  0  0  0  0  0  0  0
   21.8674  -20.1767  -15.2413 C   0  0  0  0  0  0  0  0  0  0  0  0
   21.6110  -19.5093  -13.9313 C   0  0  0  0  0  0  0  0  0  0  0  0
   20.1546  -19.3237  -13.7367 C   0  0  0  0  0  0  0  0  0  0  0  0
   19.3630  -20.0785  -14.3483 O   0  0  0  0  0  0  0  0  0  0  0  0
   23.9947  -21.1659  -14.4466 C   0  0  0  0  0  0  0  0  0  0  0  0
   23.6242  -22.3512  -14.2522 O   0  0  0  0  0  0  0  0  0  0  0  0
   19.6195  -18.3527  -12.9083 O   0  0  0  0  0  0  0  0  0  0  0  0
   27.8491  -21.0231  -13.5366 C   0  0  0  0  0  0  0  0  0  0  0  0
   27.0342  -20.9982  -12.2638 C   0  0  1  0  0  0  0  0  0  0  0  0
   27.0770  -19.5965  -11.6864 C   0  0  0  0  0  0  0  0  0  0  0  0
   25.6402  -21.4419  -12.5690 C   0  0  2  0  0  0  0  0  0  0  0  0
   25.0242  -20.6466  -13.6170 N   0  0  0  0  0  0  0  0  0  0  0  0
   24.8287  -21.3966  -11.3212 C   0  0  0  0  0  0  0  0  0  0  0  0
   25.1330  -22.1647  -10.3914 O   0  0  0  0  0  0  0  0  0  0  0  0
   23.7626  -20.5405  -11.1643 O   0  0  0  0  0  0  0  0  0  0  0  0
  2  1  1  1
  3  2  1  0
  4  3  1  0
  5  4  1  0
  5  6  1  0
  7  6  1  0
  8  2  1  0
  8 10  1  0
  9  8  2  0
 11 10  1  0
 12 13  1  0
 11 12  1  1
 13 14  1  0
 14 18  1  0
 15 14  2  0
 16 11  1  0
 17 16  2  0
 20 19  1  6
 20 22  1  0
 21 20  1  0
 22 23  1  6
 22 24  1  0
 23 16  1  0
 24 26  1  0
 25 24  2  0
M  END
$$$$
