KEV.pdb
     RDKit          3D

 26 25  0  0  1  0  0  0  0  0999 V2000
   28.0092  -19.6404  -15.7174 N   0  0  0  0  0  0  0  0  0  0  0  0
   27.6295  -21.0189  -15.6951 C   0  0  1  0  0  0  0  0  0  0  0  0
   28.7372  -22.0092  -15.6800 C   0  0  0  0  0  0  0  0  0  0  0  0
   28.9116  -22.8958  -16.8390 C   0  0  0  0  0  0  0  0  0  0  0  0
   29.4885  -22.3481  -18.0827 C   0  0  0  0  0  0  0  0  0  0  0  0
   29.6457  -23.3570  -19.1933 C   0  0  0  0  0  0  0  0  0  0  0  0
   30.2442  -22.6697  -20.3296 N   0  0  0  0  0  0  0  0  0  0  0  0
   26.6302  -21.2418  -14.6260 C   0  0  0  0  0  0  0  0  0  0  0  0
   25.9822  -22.3491  -14.6565 O   0  0  0  0  0  0  0  0  0  0  0  0
   26.2995  -20.3828  -13.5736 N   0  0  0  0  0  0  0  0  0  0  0  0
   25.2622  -20.6581  -12.5919 C   0  0  1  0  0  0  0  0  0  0  0  0
   25.6526  -19.9610  -11.3111 C   0  0  0  0  0  0  0  0  0  0  0  0
   24.6391  -20.1077  -10.2255 C   0  0  0  0  0  0  0  0  0  0  0  0
   24.9461  -21.3037   -9.4076 C   0  0  0  0  0  0  0  0  0  0  0  0
   26.1015  -21.7869   -9.4550 O   0  0  0  0  0  0  0  0  0  0  0  0
   23.9264  -20.2678  -13.0607 C   0  0  0  0  0  0  0  0  0  0  0  0
   23.7549  -19.0732  -13.4119 O   0  0  0  0  0  0  0  0  0  0  0  0
   24.0160  -21.9192   -8.5882 O   0  0  0  0  0  0  0  0  0  0  0  0
   22.1180  -20.8674  -15.9450 C   0  0  0  0  0  0  0  0  0  0  0  0
   21.1136  -21.2881  -14.8966 C   0  0  1  0  0  0  0  0  0  0  0  0
   21.0602  -22.8032  -14.8547 C   0  0  0  0  0  0  0  0  0  0  0  0
   21.5071  -20.6993  -13.5807 C   0  0  2  0  0  0  0  0  0  0  0  0
   22.8166  -21.1508  -13.1429 N   0  0  0  0  0  0  0  0  0  0  0  0
   20.4661  -21.0272  -12.5677 C   0  0  0  0  0  0  0  0  0  0  0  0
   20.7894  -21.7352  -11.5975 O   0  0  0  0  0  0  0  0  0  0  0  0
   19.1696  -20.5766  -12.6686 O   0  0  0  0  0  0  0  0  0  0  0  0
  2  1  1  1
  3  2  1  0
  4  3  1  0
  5  4  1  0
  5  6  1  0
  7  6  1  0
  8  2  1  0
  8 10  1  0
  9  8  2  0
 11 10  1  0
 12 13  1  0
 11 12  1  1
 13 14  1  0
 14 18  1  0
 15 14  2  0
 16 11  1  0
 17 16  2  0
 20 19  1  6
 20 22  1  0
 21 20  1  0
 22 23  1  1
 22 24  1  0
 23 16  1  0
 24 26  1  0
 25 24  2  0
M  END
$$$$
