KAR.pdb
     RDKit          3D

 26 25  0  0  1  0  0  0  0  0999 V2000
   25.9540  -21.4349  -18.7533 N   0  0  0  0  0  0  0  0  0  0  0  0
   24.8602  -20.5270  -18.7712 C   0  0  1  0  0  0  0  0  0  0  0  0
   23.7406  -20.8698  -19.6852 C   0  0  0  0  0  0  0  0  0  0  0  0
   24.0483  -21.1202  -21.1043 C   0  0  0  0  0  0  0  0  0  0  0  0
   22.9296  -21.2734  -22.0601 C   0  0  0  0  0  0  0  0  0  0  0  0
   23.2921  -21.6333  -23.4618 C   0  0  0  0  0  0  0  0  0  0  0  0
   22.1860  -21.8258  -24.3596 N   0  0  0  0  0  0  0  0  0  0  0  0
   24.3102  -20.1735  -17.4367 C   0  0  0  0  0  0  0  0  0  0  0  0
   24.3002  -21.0318  -16.4878 O   0  0  0  0  0  0  0  0  0  0  0  0
   23.1522  -17.1310  -15.6447 C   0  0  0  0  0  0  0  0  0  0  0  0
   23.2692  -18.6356  -15.7518 C   0  0  2  0  0  0  0  0  0  0  0  0
   23.7701  -18.9132  -17.1069 N   0  0  0  0  0  0  0  0  0  0  0  0
   21.9370  -19.3098  -15.6259 C   0  0  0  0  0  0  0  0  0  0  0  0
   21.2277  -19.5263  -16.6504 O   0  0  0  0  0  0  0  0  0  0  0  0
   19.2728  -24.2378   -8.9644 N   0  0  0  0  0  0  0  0  0  0  0  0
   18.1189  -24.2670   -9.8253 C   0  0  0  0  0  0  0  0  0  0  0  0
   17.0958  -25.0068   -9.4808 N   0  0  0  0  0  0  0  0  0  0  0  0
   18.1326  -23.4981  -11.0082 N   0  0  0  0  0  0  0  0  0  0  0  0
   19.3834  -22.7503  -11.2991 C   0  0  0  0  0  0  0  0  0  0  0  0
   19.1447  -22.0590  -12.5826 C   0  0  0  0  0  0  0  0  0  0  0  0
   20.1807  -21.1628  -13.0612 C   0  0  0  0  0  0  0  0  0  0  0  0
   20.0438  -20.3822  -14.3069 C   0  0  2  0  0  0  0  0  0  0  0  0
   21.4190  -19.7265  -14.3941 N   0  0  0  0  0  0  0  0  0  0  0  0
   19.0521  -19.3392  -14.3371 C   0  0  0  0  0  0  0  0  0  0  0  0
   19.4097  -18.1878  -13.8664 O   0  0  0  0  0  0  0  0  0  0  0  0
   17.7543  -19.3793  -14.8137 O   0  0  0  0  0  0  0  0  0  0  0  0
  2  8  1  0
  2  1  1  1
  3  2  1  0
  4  3  1  0
  5  4  1  0
  6  5  1  0
  7  6  1  0
  8  9  2  0
 11 10  1  6
 12 11  1  0
 12  8  1  0
 13 14  2  0
 13 11  1  0
 15 16  1  0
 16 17  2  0
 18 16  1  0
 18 19  1  0
 19 20  1  0
 20 21  1  0
 22 21  1  1
 22 24  1  0
 22 23  1  0
 23 13  1  0
 24 26  1  0
 25 24  2  0
M  END
$$$$
