KAR.pdb
     RDKit          3D

 26 25  0  0  1  0  0  0  0  0999 V2000
   23.9283  -22.3544  -21.6147 N   0  0  0  0  0  0  0  0  0  0  0  0
   22.6758  -22.0929  -20.9951 C   0  0  1  0  0  0  0  0  0  0  0  0
   21.8882  -23.2833  -20.5843 C   0  0  0  0  0  0  0  0  0  0  0  0
   22.6104  -24.4431  -20.0324 C   0  0  0  0  0  0  0  0  0  0  0  0
   22.5778  -24.6742  -18.5716 C   0  0  0  0  0  0  0  0  0  0  0  0
   23.3888  -25.8156  -18.0568 C   0  0  0  0  0  0  0  0  0  0  0  0
   23.4726  -25.9226  -16.6257 N   0  0  0  0  0  0  0  0  0  0  0  0
   22.7175  -21.1229  -19.8700 C   0  0  0  0  0  0  0  0  0  0  0  0
   23.7674  -21.0073  -19.1478 O   0  0  0  0  0  0  0  0  0  0  0  0
   20.6894  -18.2672  -18.6501 C   0  0  0  0  0  0  0  0  0  0  0  0
   21.8070  -19.2673  -18.4504 C   0  0  2  0  0  0  0  0  0  0  0  0
   21.6485  -20.2771  -19.5085 N   0  0  0  0  0  0  0  0  0  0  0  0
   21.6907  -19.9801  -17.1377 C   0  0  0  0  0  0  0  0  0  0  0  0
   20.9157  -20.9716  -17.0119 O   0  0  0  0  0  0  0  0  0  0  0  0
   26.2740  -21.3049  -10.9985 N   0  0  0  0  0  0  0  0  0  0  0  0
   25.4134  -20.7599   -9.9807 C   0  0  0  0  0  0  0  0  0  0  0  0
   25.5299  -21.2033   -8.7550 N   0  0  0  0  0  0  0  0  0  0  0  0
   24.4764  -19.7686  -10.3409 N   0  0  0  0  0  0  0  0  0  0  0  0
   24.5464  -19.2653  -11.7374 C   0  0  0  0  0  0  0  0  0  0  0  0
   23.6172  -20.1123  -12.5131 C   0  0  0  0  0  0  0  0  0  0  0  0
   23.3297  -19.7118  -13.8778 C   0  0  0  0  0  0  0  0  0  0  0  0
   22.2785  -20.3553  -14.6906 C   0  0  2  0  0  0  0  0  0  0  0  0
   22.4184  -19.5942  -16.0059 N   0  0  0  0  0  0  0  0  0  0  0  0
   20.9156  -20.2254  -14.2457 C   0  0  0  0  0  0  0  0  0  0  0  0
   20.3697  -19.0605  -14.3874 O   0  0  0  0  0  0  0  0  0  0  0  0
   20.0817  -21.1792  -13.6905 O   0  0  0  0  0  0  0  0  0  0  0  0
  2  8  1  0
  2  1  1  1
  3  2  1  0
  4  3  1  0
  5  4  1  0
  6  5  1  0
  7  6  1  0
  8  9  2  0
 11 10  1  6
 12 11  1  0
 12  8  1  0
 13 14  2  0
 13 11  1  0
 15 16  1  0
 16 17  2  0
 18 16  1  0
 18 19  1  0
 19 20  1  0
 20 21  1  0
 22 21  1  1
 22 24  1  0
 22 23  1  0
 23 13  1  0
 24 26  1  0
 25 24  2  0
M  END
$$$$
