KAR.pdb
     RDKit          3D

 26 25  0  0  1  0  0  0  0  0999 V2000
   30.3808  -23.9110  -16.7839 N   0  0  0  0  0  0  0  0  0  0  0  0
   29.0251  -23.8706  -17.2096 C   0  0  1  0  0  0  0  0  0  0  0  0
   28.1775  -25.0206  -16.8032 C   0  0  0  0  0  0  0  0  0  0  0  0
   28.6279  -26.3793  -17.1531 C   0  0  0  0  0  0  0  0  0  0  0  0
   27.7925  -27.5327  -16.7527 C   0  0  0  0  0  0  0  0  0  0  0  0
   28.3240  -28.8883  -17.0776 C   0  0  0  0  0  0  0  0  0  0  0  0
   27.5440  -29.9940  -16.5924 N   0  0  0  0  0  0  0  0  0  0  0  0
   28.3062  -22.6047  -16.9111 C   0  0  0  0  0  0  0  0  0  0  0  0
   28.2224  -22.1705  -15.7104 O   0  0  0  0  0  0  0  0  0  0  0  0
   26.7704  -19.7824  -18.7809 C   0  0  0  0  0  0  0  0  0  0  0  0
   26.9754  -20.5631  -17.5012 C   0  0  2  0  0  0  0  0  0  0  0  0
   27.6755  -21.7997  -17.8821 N   0  0  0  0  0  0  0  0  0  0  0  0
   25.6737  -20.9658  -16.8781 C   0  0  0  0  0  0  0  0  0  0  0  0
   25.0155  -21.9420  -17.3400 O   0  0  0  0  0  0  0  0  0  0  0  0
   24.7302  -20.1222   -8.7012 N   0  0  0  0  0  0  0  0  0  0  0  0
   25.3545  -21.0999   -9.5543 C   0  0  0  0  0  0  0  0  0  0  0  0
   26.3820  -21.7691   -9.0970 N   0  0  0  0  0  0  0  0  0  0  0  0
   24.8369  -21.3012  -10.8512 N   0  0  0  0  0  0  0  0  0  0  0  0
   23.6575  -20.4802  -11.2298 C   0  0  0  0  0  0  0  0  0  0  0  0
   23.2915  -20.9140  -12.5938 C   0  0  0  0  0  0  0  0  0  0  0  0
   24.1515  -20.4897  -13.6827 C   0  0  0  0  0  0  0  0  0  0  0  0
   23.8654  -20.8136  -15.0945 C   0  0  2  0  0  0  0  0  0  0  0  0
   25.1296  -20.2969  -15.7754 N   0  0  0  0  0  0  0  0  0  0  0  0
   22.7346  -20.1717  -15.7122 C   0  0  0  0  0  0  0  0  0  0  0  0
   22.8972  -18.9409  -16.0777 O   0  0  0  0  0  0  0  0  0  0  0  0
   21.4809  -20.6856  -15.9904 O   0  0  0  0  0  0  0  0  0  0  0  0
  2  8  1  0
  2  1  1  1
  3  2  1  0
  4  3  1  0
  5  4  1  0
  6  5  1  0
  7  6  1  0
  8  9  2  0
 11 10  1  6
 12 11  1  0
 12  8  1  0
 13 14  2  0
 13 11  1  0
 15 16  1  0
 16 17  2  0
 18 16  1  0
 18 19  1  0
 19 20  1  0
 20 21  1  0
 22 21  1  1
 22 24  1  0
 22 23  1  0
 23 13  1  0
 24 26  1  0
 25 24  2  0
M  END
$$$$
