KAR.pdb
     RDKit          3D

 26 25  0  0  1  0  0  0  0  0999 V2000
   24.0694  -27.8384  -15.8880 N   0  0  0  0  0  0  0  0  0  0  0  0
   23.7730  -26.4532  -16.0080 C   0  0  1  0  0  0  0  0  0  0  0  0
   22.7915  -25.9078  -15.0357 C   0  0  0  0  0  0  0  0  0  0  0  0
   21.3653  -26.2230  -15.2303 C   0  0  0  0  0  0  0  0  0  0  0  0
   20.5366  -25.3053  -16.0423 C   0  0  0  0  0  0  0  0  0  0  0  0
   19.0775  -25.6081  -16.1139 C   0  0  0  0  0  0  0  0  0  0  0  0
   18.3075  -24.7542  -16.9766 N   0  0  0  0  0  0  0  0  0  0  0  0
   24.9563  -25.5560  -16.0628 C   0  0  0  0  0  0  0  0  0  0  0  0
   25.7121  -25.4112  -15.0405 O   0  0  0  0  0  0  0  0  0  0  0  0
   26.8393  -23.6041  -18.6072 C   0  0  0  0  0  0  0  0  0  0  0  0
   26.5213  -23.9371  -17.1660 C   0  0  2  0  0  0  0  0  0  0  0  0
   25.3387  -24.8116  -17.1978 N   0  0  0  0  0  0  0  0  0  0  0  0
   26.1483  -22.7171  -16.3802 C   0  0  0  0  0  0  0  0  0  0  0  0
   24.9563  -22.2944  -16.3781 O   0  0  0  0  0  0  0  0  0  0  0  0
   25.8678  -20.2643   -8.3058 N   0  0  0  0  0  0  0  0  0  0  0  0
   25.0840  -20.2347   -9.5135 C   0  0  0  0  0  0  0  0  0  0  0  0
   23.8167  -20.5545   -9.4486 N   0  0  0  0  0  0  0  0  0  0  0  0
   25.7097  -19.8625  -10.7219 N   0  0  0  0  0  0  0  0  0  0  0  0
   26.7974  -20.7511  -11.2073 C   0  0  0  0  0  0  0  0  0  0  0  0
   27.3264  -20.1043  -12.4256 C   0  0  0  0  0  0  0  0  0  0  0  0
   27.4905  -20.9341  -13.6045 C   0  0  0  0  0  0  0  0  0  0  0  0
   26.6504  -20.7799  -14.8088 C   0  0  2  0  0  0  0  0  0  0  0  0
   27.0798  -21.9969  -15.6232 N   0  0  0  0  0  0  0  0  0  0  0  0
   26.8535  -19.6085  -15.6205 C   0  0  0  0  0  0  0  0  0  0  0  0
   26.2370  -18.5332  -15.2481 O   0  0  0  0  0  0  0  0  0  0  0  0
   27.6327  -19.4528  -16.7527 O   0  0  0  0  0  0  0  0  0  0  0  0
  2  8  1  0
  2  1  1  1
  3  2  1  0
  4  3  1  0
  5  4  1  0
  6  5  1  0
  7  6  1  0
  8  9  2  0
 11 10  1  6
 12 11  1  0
 12  8  1  0
 13 14  2  0
 13 11  1  0
 15 16  1  0
 16 17  2  0
 18 16  1  0
 18 19  1  0
 19 20  1  0
 20 21  1  0
 22 21  1  1
 22 24  1  0
 22 23  1  0
 23 13  1  0
 24 26  1  0
 25 24  2  0
M  END
$$$$
