KAR.pdb
     RDKit          3D

 26 25  0  0  1  0  0  0  0  0999 V2000
   31.3888  -24.1358  -17.7477 N   0  0  0  0  0  0  0  0  0  0  0  0
   30.2136  -23.5426  -18.2845 C   0  0  1  0  0  0  0  0  0  0  0  0
   29.1087  -24.4742  -18.6271 C   0  0  0  0  0  0  0  0  0  0  0  0
   28.4204  -25.1763  -17.5295 C   0  0  0  0  0  0  0  0  0  0  0  0
   27.3760  -26.1696  -17.8626 C   0  0  0  0  0  0  0  0  0  0  0  0
   26.6697  -26.8081  -16.7141 C   0  0  0  0  0  0  0  0  0  0  0  0
   25.6646  -27.7748  -17.0628 N   0  0  0  0  0  0  0  0  0  0  0  0
   29.6670  -22.4032  -17.5026 C   0  0  0  0  0  0  0  0  0  0  0  0
   29.4962  -22.5029  -16.2384 O   0  0  0  0  0  0  0  0  0  0  0  0
   28.7767  -18.8317  -18.0930 C   0  0  0  0  0  0  0  0  0  0  0  0
   28.8483  -20.0523  -17.2019 C   0  0  2  0  0  0  0  0  0  0  0  0
   29.2999  -21.1601  -18.0581 N   0  0  0  0  0  0  0  0  0  0  0  0
   27.5021  -20.4302  -16.6632 C   0  0  0  0  0  0  0  0  0  0  0  0
   26.6975  -21.1090  -17.3641 O   0  0  0  0  0  0  0  0  0  0  0  0
   25.1331  -20.6988   -8.2946 N   0  0  0  0  0  0  0  0  0  0  0  0
   23.8608  -20.8645   -8.9485 C   0  0  0  0  0  0  0  0  0  0  0  0
   22.7960  -21.0570   -8.2126 N   0  0  0  0  0  0  0  0  0  0  0  0
   23.8080  -20.8136  -10.3574 N   0  0  0  0  0  0  0  0  0  0  0  0
   25.0967  -20.5877  -11.0621 C   0  0  0  0  0  0  0  0  0  0  0  0
   24.7744  -20.6254  -12.5034 C   0  0  0  0  0  0  0  0  0  0  0  0
   25.8637  -20.4089  -13.4371 C   0  0  0  0  0  0  0  0  0  0  0  0
   25.6674  -20.4028  -14.9004 C   0  0  2  0  0  0  0  0  0  0  0  0
   27.0739  -20.0597  -15.3831 N   0  0  0  0  0  0  0  0  0  0  0  0
   24.7600  -19.4293  -15.4494 C   0  0  0  0  0  0  0  0  0  0  0  0
   25.2683  -18.2844  -15.7750 O   0  0  0  0  0  0  0  0  0  0  0  0
   23.4038  -19.5395  -15.6977 O   0  0  0  0  0  0  0  0  0  0  0  0
  2  8  1  0
  2  1  1  1
  3  2  1  0
  4  3  1  0
  5  4  1  0
  6  5  1  0
  7  6  1  0
  8  9  2  0
 11 10  1  6
 12 11  1  0
 12  8  1  0
 13 14  2  0
 13 11  1  0
 15 16  1  0
 16 17  2  0
 18 16  1  0
 18 19  1  0
 19 20  1  0
 20 21  1  0
 22 21  1  1
 22 24  1  0
 22 23  1  0
 23 13  1  0
 24 26  1  0
 25 24  2  0
M  END
$$$$
