KAR.pdb
     RDKit          3D

 26 25  0  0  1  0  0  0  0  0999 V2000
   30.9026  -25.2577  -16.3819 N   0  0  0  0  0  0  0  0  0  0  0  0
   29.8631  -24.9009  -17.2835 C   0  0  1  0  0  0  0  0  0  0  0  0
   28.7670  -25.8905  -17.4425 C   0  0  0  0  0  0  0  0  0  0  0  0
   29.1018  -27.3234  -17.3641 C   0  0  0  0  0  0  0  0  0  0  0  0
   28.0304  -28.3192  -17.5852 C   0  0  0  0  0  0  0  0  0  0  0  0
   28.4279  -29.7555  -17.5175 C   0  0  0  0  0  0  0  0  0  0  0  0
   27.3521  -30.7033  -17.6206 N   0  0  0  0  0  0  0  0  0  0  0  0
   29.2762  -23.5524  -17.0698 C   0  0  0  0  0  0  0  0  0  0  0  0
   29.3148  -23.0003  -15.9161 O   0  0  0  0  0  0  0  0  0  0  0  0
   27.8370  -20.8200  -19.1527 C   0  0  0  0  0  0  0  0  0  0  0  0
   28.1835  -21.4195  -17.8074 C   0  0  2  0  0  0  0  0  0  0  0  0
   28.6478  -22.7895  -18.0756 N   0  0  0  0  0  0  0  0  0  0  0  0
   26.9828  -21.5257  -16.9174 C   0  0  0  0  0  0  0  0  0  0  0  0
   26.1717  -22.4876  -17.0455 O   0  0  0  0  0  0  0  0  0  0  0  0
   26.1173  -19.7754   -9.4090 N   0  0  0  0  0  0  0  0  0  0  0  0
   24.8944  -20.5354   -9.4242 C   0  0  0  0  0  0  0  0  0  0  0  0
   24.0068  -20.3173   -8.4876 N   0  0  0  0  0  0  0  0  0  0  0  0
   24.6971  -21.4870  -10.4470 N   0  0  0  0  0  0  0  0  0  0  0  0
   25.6952  -21.4946  -11.5479 C   0  0  0  0  0  0  0  0  0  0  0  0
   25.2557  -20.4460  -12.4912 C   0  0  0  0  0  0  0  0  0  0  0  0
   26.0031  -20.3034  -13.7267 C   0  0  0  0  0  0  0  0  0  0  0  0
   25.4672  -20.7316  -15.0341 C   0  0  2  0  0  0  0  0  0  0  0  0
   26.7022  -20.5859  -15.9186 N   0  0  0  0  0  0  0  0  0  0  0  0
   24.4106  -19.9446  -15.6142 C   0  0  0  0  0  0  0  0  0  0  0  0
   24.7701  -19.0039  -16.4272 O   0  0  0  0  0  0  0  0  0  0  0  0
   23.0427  -20.0522  -15.4400 O   0  0  0  0  0  0  0  0  0  0  0  0
  2  8  1  0
  2  1  1  1
  3  2  1  0
  4  3  1  0
  5  4  1  0
  6  5  1  0
  7  6  1  0
  8  9  2  0
 11 10  1  6
 12 11  1  0
 12  8  1  0
 13 14  2  0
 13 11  1  0
 15 16  1  0
 16 17  2  0
 18 16  1  0
 18 19  1  0
 19 20  1  0
 20 21  1  0
 22 21  1  1
 22 24  1  0
 22 23  1  0
 23 13  1  0
 24 26  1  0
 25 24  2  0
M  END
$$$$
