KAR.pdb
     RDKit          3D

 26 25  0  0  1  0  0  0  0  0999 V2000
   24.8022  -19.9317  -18.7874 N   0  0  0  0  0  0  0  0  0  0  0  0
   24.8801  -19.0972  -17.6392 C   0  0  1  0  0  0  0  0  0  0  0  0
   23.6078  -18.4692  -17.1997 C   0  0  0  0  0  0  0  0  0  0  0  0
   22.9177  -17.5608  -18.1324 C   0  0  0  0  0  0  0  0  0  0  0  0
   23.2658  -16.1231  -18.1162 C   0  0  0  0  0  0  0  0  0  0  0  0
   22.4626  -15.2305  -19.0015 C   0  0  0  0  0  0  0  0  0  0  0  0
   22.9628  -13.8913  -19.1518 N   0  0  0  0  0  0  0  0  0  0  0  0
   25.5578  -19.7020  -16.4631 C   0  0  0  0  0  0  0  0  0  0  0  0
   25.1331  -20.7986  -15.9588 O   0  0  0  0  0  0  0  0  0  0  0  0
   28.5651  -19.0494  -14.3555 C   0  0  0  0  0  0  0  0  0  0  0  0
   27.2834  -19.7988  -14.6463 C   0  0  2  0  0  0  0  0  0  0  0  0
   26.6832  -19.1461  -15.8202 N   0  0  0  0  0  0  0  0  0  0  0  0
   26.2994  -19.6795  -13.5226 C   0  0  0  0  0  0  0  0  0  0  0  0
   25.6539  -18.6064  -13.3458 O   0  0  0  0  0  0  0  0  0  0  0  0
   19.0221  -23.0511  -12.5339 N   0  0  0  0  0  0  0  0  0  0  0  0
   19.0175  -21.8951  -11.6753 C   0  0  0  0  0  0  0  0  0  0  0  0
   17.8692  -21.3597  -11.3477 N   0  0  0  0  0  0  0  0  0  0  0  0
   20.2496  -21.3816  -11.2187 N   0  0  0  0  0  0  0  0  0  0  0  0
   21.4647  -21.8205  -11.9531 C   0  0  0  0  0  0  0  0  0  0  0  0
   22.5744  -21.0136  -11.4053 C   0  0  0  0  0  0  0  0  0  0  0  0
   23.9036  -21.2620  -11.9313 C   0  0  0  0  0  0  0  0  0  0  0  0
   25.0971  -20.5377  -11.4509 C   0  0  2  0  0  0  0  0  0  0  0  0
   26.0485  -20.7272  -12.6290 N   0  0  0  0  0  0  0  0  0  0  0  0
   25.7504  -21.0351  -10.2685 C   0  0  0  0  0  0  0  0  0  0  0  0
   26.7811  -21.7956  -10.4541 O   0  0  0  0  0  0  0  0  0  0  0  0
   25.4444  -20.8084   -8.9388 O   0  0  0  0  0  0  0  0  0  0  0  0
  2  8  1  0
  2  1  1  6
  3  2  1  0
  4  3  1  0
  5  4  1  0
  6  5  1  0
  7  6  1  0
  8  9  2  0
 11 10  1  1
 12 11  1  0
 12  8  1  0
 13 14  2  0
 13 11  1  0
 15 16  1  0
 16 17  2  0
 18 16  1  0
 18 19  1  0
 19 20  1  0
 20 21  1  0
 22 21  1  6
 22 24  1  0
 22 23  1  0
 23 13  1  0
 24 26  1  0
 25 24  2  0
M  END
$$$$
