KAR.pdb
     RDKit          3D

 26 25  0  0  1  0  0  0  0  0999 V2000
   22.5444  -25.1692  -15.5456 N   0  0  0  0  0  0  0  0  0  0  0  0
   22.9891  -24.0501  -14.7900 C   0  0  1  0  0  0  0  0  0  0  0  0
   24.2608  -23.4246  -15.2345 C   0  0  0  0  0  0  0  0  0  0  0  0
   25.4045  -24.3035  -15.5359 C   0  0  0  0  0  0  0  0  0  0  0  0
   26.6878  -23.6898  -15.9417 C   0  0  0  0  0  0  0  0  0  0  0  0
   27.8257  -24.6219  -16.1910 C   0  0  0  0  0  0  0  0  0  0  0  0
   29.0683  -24.0005  -16.5600 N   0  0  0  0  0  0  0  0  0  0  0  0
   21.9718  -22.9884  -14.5745 C   0  0  0  0  0  0  0  0  0  0  0  0
   21.1623  -22.6620  -15.5101 O   0  0  0  0  0  0  0  0  0  0  0  0
   20.4282  -21.1696  -11.7687 C   0  0  0  0  0  0  0  0  0  0  0  0
   20.7786  -21.2333  -13.2392 C   0  0  2  0  0  0  0  0  0  0  0  0
   21.8123  -22.2718  -13.3705 N   0  0  0  0  0  0  0  0  0  0  0  0
   21.3771  -19.9492  -13.7269 C   0  0  0  0  0  0  0  0  0  0  0  0
   22.5688  -19.6440  -13.4331 O   0  0  0  0  0  0  0  0  0  0  0  0
   27.3922  -18.5520  -17.2792 N   0  0  0  0  0  0  0  0  0  0  0  0
   26.8188  -17.3447  -17.8153 C   0  0  0  0  0  0  0  0  0  0  0  0
   27.5851  -16.5352  -18.5009 N   0  0  0  0  0  0  0  0  0  0  0  0
   25.4531  -17.0782  -17.5825 N   0  0  0  0  0  0  0  0  0  0  0  0
   24.7099  -18.0795  -16.7741 C   0  0  0  0  0  0  0  0  0  0  0  0
   23.3392  -17.5450  -16.6400 C   0  0  0  0  0  0  0  0  0  0  0  0
   22.3717  -18.3590  -15.9283 C   0  0  0  0  0  0  0  0  0  0  0  0
   21.3342  -17.7781  -15.0531 C   0  0  2  0  0  0  0  0  0  0  0  0
   20.6639  -19.0397  -14.5164 N   0  0  0  0  0  0  0  0  0  0  0  0
   20.3192  -16.9638  -15.6685 C   0  0  0  0  0  0  0  0  0  0  0  0
   19.3215  -17.5904  -16.2042 O   0  0  0  0  0  0  0  0  0  0  0  0
   20.2417  -15.5861  -15.7646 O   0  0  0  0  0  0  0  0  0  0  0  0
  2  8  1  0
  2  1  1  6
  3  2  1  0
  4  3  1  0
  5  4  1  0
  6  5  1  0
  7  6  1  0
  8  9  2  0
 11 10  1  1
 12 11  1  0
 12  8  1  0
 13 14  2  0
 13 11  1  0
 15 16  1  0
 16 17  2  0
 18 16  1  0
 18 19  1  0
 19 20  1  0
 20 21  1  0
 22 21  1  6
 22 24  1  0
 22 23  1  0
 23 13  1  0
 24 26  1  0
 25 24  2  0
M  END
$$$$
