KAR.pdb
     RDKit          3D

 26 25  0  0  1  0  0  0  0  0999 V2000
   25.9214  -22.4402  -14.9202 N   0  0  0  0  0  0  0  0  0  0  0  0
   24.5655  -22.8388  -15.0739 C   0  0  1  0  0  0  0  0  0  0  0  0
   24.3241  -24.2982  -15.2082 C   0  0  0  0  0  0  0  0  0  0  0  0
   24.9458  -25.0086  -16.3396 C   0  0  0  0  0  0  0  0  0  0  0  0
   26.1497  -25.8313  -16.0901 C   0  0  0  0  0  0  0  0  0  0  0  0
   26.7046  -26.5760  -17.2577 C   0  0  0  0  0  0  0  0  0  0  0  0
   27.8612  -27.3851  -16.9856 N   0  0  0  0  0  0  0  0  0  0  0  0
   23.6242  -22.2785  -14.0697 C   0  0  0  0  0  0  0  0  0  0  0  0
   23.9388  -22.2438  -12.8299 O   0  0  0  0  0  0  0  0  0  0  0  0
   20.8289  -19.9757  -13.9203 C   0  0  0  0  0  0  0  0  0  0  0  0
   21.4864  -21.2010  -13.3241 C   0  0  2  0  0  0  0  0  0  0  0  0
   22.3506  -21.7568  -14.3769 N   0  0  0  0  0  0  0  0  0  0  0  0
   20.4836  -22.2571  -12.9717 C   0  0  0  0  0  0  0  0  0  0  0  0
   20.0775  -23.0746  -13.8472 O   0  0  0  0  0  0  0  0  0  0  0  0
   17.2234  -24.8891   -5.8611 N   0  0  0  0  0  0  0  0  0  0  0  0
   17.4112  -26.2040   -6.4171 C   0  0  0  0  0  0  0  0  0  0  0  0
   16.6954  -27.1936   -5.9470 N   0  0  0  0  0  0  0  0  0  0  0  0
   18.3591  -26.3783   -7.4474 N   0  0  0  0  0  0  0  0  0  0  0  0
   19.0896  -25.1622   -7.8898 C   0  0  0  0  0  0  0  0  0  0  0  0
   18.6571  -24.9220   -9.2817 C   0  0  0  0  0  0  0  0  0  0  0  0
   19.2444  -23.7926   -9.9780 C   0  0  0  0  0  0  0  0  0  0  0  0
   18.9065  -23.4568  -11.3755 C   0  0  2  0  0  0  0  0  0  0  0  0
   19.9553  -22.3915  -11.6825 N   0  0  0  0  0  0  0  0  0  0  0  0
   17.6089  -22.8888  -11.6319 C   0  0  0  0  0  0  0  0  0  0  0  0
   17.4983  -21.6082  -11.4807 O   0  0  0  0  0  0  0  0  0  0  0  0
   16.4436  -23.5154  -12.0352 O   0  0  0  0  0  0  0  0  0  0  0  0
  2  8  1  0
  2  1  1  1
  3  2  1  0
  4  3  1  0
  5  4  1  0
  6  5  1  0
  7  6  1  0
  8  9  2  0
 11 10  1  6
 12 11  1  0
 12  8  1  0
 13 14  2  0
 13 11  1  0
 15 16  1  0
 16 17  2  0
 18 16  1  0
 18 19  1  0
 19 20  1  0
 20 21  1  0
 22 21  1  1
 22 24  1  0
 22 23  1  0
 23 13  1  0
 24 26  1  0
 25 24  2  0
M  END
$$$$
