KAR.pdb
     RDKit          3D

 26 25  0  0  1  0  0  0  0  0999 V2000
   26.2682  -17.1752  -15.5357 N   0  0  0  0  0  0  0  0  0  0  0  0
   25.2587  -17.9526  -16.1662 C   0  0  1  0  0  0  0  0  0  0  0  0
   25.6325  -19.3455  -16.5217 C   0  0  0  0  0  0  0  0  0  0  0  0
   26.5715  -19.5542  -17.6381 C   0  0  0  0  0  0  0  0  0  0  0  0
   26.5658  -18.5942  -18.7635 C   0  0  0  0  0  0  0  0  0  0  0  0
   27.4839  -18.8918  -19.9011 C   0  0  0  0  0  0  0  0  0  0  0  0
   27.5285  -17.8988  -20.9395 N   0  0  0  0  0  0  0  0  0  0  0  0
   23.9434  -17.9614  -15.4748 C   0  0  0  0  0  0  0  0  0  0  0  0
   23.8616  -18.2621  -14.2337 O   0  0  0  0  0  0  0  0  0  0  0  0
   20.5749  -16.6024  -16.0014 C   0  0  0  0  0  0  0  0  0  0  0  0
   21.4634  -17.6231  -15.3246 C   0  0  2  0  0  0  0  0  0  0  0  0
   22.7155  -17.6538  -16.0963 N   0  0  0  0  0  0  0  0  0  0  0  0
   20.8754  -19.0001  -15.3807 C   0  0  0  0  0  0  0  0  0  0  0  0
   21.1363  -19.7707  -16.3490 O   0  0  0  0  0  0  0  0  0  0  0  0
   18.0125  -24.5137   -9.2639 N   0  0  0  0  0  0  0  0  0  0  0  0
   18.8282  -25.2748  -10.1744 C   0  0  0  0  0  0  0  0  0  0  0  0
   18.9691  -26.5595   -9.9688 N   0  0  0  0  0  0  0  0  0  0  0  0
   19.4456  -24.6090  -11.2542 N   0  0  0  0  0  0  0  0  0  0  0  0
   19.1820  -23.1514  -11.3733 C   0  0  0  0  0  0  0  0  0  0  0  0
   19.8440  -22.7278  -12.6242 C   0  0  0  0  0  0  0  0  0  0  0  0
   19.6907  -21.3416  -13.0245 C   0  0  0  0  0  0  0  0  0  0  0  0
   19.5213  -20.9349  -14.4337 C   0  0  2  0  0  0  0  0  0  0  0  0
   20.0246  -19.4951  -14.3855 N   0  0  0  0  0  0  0  0  0  0  0  0
   18.1853  -20.9203  -14.9696 C   0  0  0  0  0  0  0  0  0  0  0  0
   17.5527  -19.7925  -14.9145 O   0  0  0  0  0  0  0  0  0  0  0  0
   17.4668  -21.9460  -15.5570 O   0  0  0  0  0  0  0  0  0  0  0  0
  2  8  1  0
  2  1  1  1
  3  2  1  0
  4  3  1  0
  5  4  1  0
  6  5  1  0
  7  6  1  0
  8  9  2  0
 11 10  1  6
 12 11  1  0
 12  8  1  0
 13 14  2  0
 13 11  1  0
 15 16  1  0
 16 17  2  0
 18 16  1  0
 18 19  1  0
 19 20  1  0
 20 21  1  0
 22 21  1  1
 22 24  1  0
 22 23  1  0
 23 13  1  0
 24 26  1  0
 25 24  2  0
M  END
$$$$
