NEA.pdb
     RDKit          3D

 23 22  0  0  1  0  0  0  0  0999 V2000
    8.2285  -13.9723   18.5901 N   0  0  0  0  0  0  0  0  0  0  0  0
    8.3203  -12.9954   19.6199 C   0  0  0  0  0  0  0  0  0  0  0  0
    8.4334  -11.7811   19.3419 O   0  0  0  0  0  0  0  0  0  0  0  0
    8.2783  -13.4594   21.0282 C   0  0  0  0  0  0  0  0  0  0  0  0
    8.1474  -14.9498   21.0615 C   0  0  2  0  0  0  0  0  0  0  0  0
    6.9287  -15.4431   20.5125 N   0  0  0  0  0  0  0  0  0  0  0  0
    8.3655  -15.4159   22.4712 C   0  0  0  0  0  0  0  0  0  0  0  0
    7.4328  -15.3460   23.3372 O   0  0  0  0  0  0  0  0  0  0  0  0
    9.6331  -15.9424   22.8413 N   0  0  0  0  0  0  0  0  0  0  0  0
    9.9143  -16.4619   24.1519 C   0  0  1  0  0  0  0  0  0  0  0  0
   10.9422  -17.5732   24.1341 C   0  0  0  0  0  0  0  0  0  0  0  0
   10.4177  -18.6995   23.2788 C   0  0  0  0  0  0  0  0  0  0  0  0
   11.3832  -19.7993   23.1449 C   0  0  0  0  0  0  0  0  0  0  0  0
   11.8304  -20.3016   24.2178 O   0  0  0  0  0  0  0  0  0  0  0  0
   10.2427  -15.3991   25.1304 C   0  0  0  0  0  0  0  0  0  0  0  0
   11.2390  -14.6721   24.9155 O   0  0  0  0  0  0  0  0  0  0  0  0
   11.8292  -20.3150   21.9364 O   0  0  0  0  0  0  0  0  0  0  0  0
    8.5737  -13.3684   27.6677 C   0  0  0  0  0  0  0  0  0  0  0  0
    9.7422  -14.2198   27.3010 C   0  0  2  0  0  0  0  0  0  0  0  0
    9.4672  -15.1978   26.2755 N   0  0  0  0  0  0  0  0  0  0  0  0
   10.1561  -14.9736   28.5295 C   0  0  0  0  0  0  0  0  0  0  0  0
   10.0694  -16.2296   28.5889 O   0  0  0  0  0  0  0  0  0  0  0  0
   10.6547  -14.3293   29.6612 O   0  0  0  0  0  0  0  0  0  0  0  0
  2  1  1  0
  2  3  2  0
  4  2  1  0
  5  4  1  0
  5  6  1  1
  7  9  1  0
  7  5  1  0
  8  7  2  0
 10 15  1  0
 10  9  1  0
 10 11  1  6
 12 11  1  0
 13 12  1  0
 13 14  2  0
 15 16  2  0
 17 13  1  0
 19 18  1  1
 20 19  1  0
 20 15  1  0
 21 23  1  0
 21 19  1  0
 22 21  2  0
M  END
$$$$
