NEA.pdb
     RDKit          3D

 23 22  0  0  1  0  0  0  0  0999 V2000
    8.7033  -13.0817   17.3339 N   0  0  0  0  0  0  0  0  0  0  0  0
    7.8073  -14.1814   17.4384 C   0  0  0  0  0  0  0  0  0  0  0  0
    7.2937  -14.6880   16.4165 O   0  0  0  0  0  0  0  0  0  0  0  0
    7.5014  -14.7067   18.7915 C   0  0  0  0  0  0  0  0  0  0  0  0
    8.1666  -13.8513   19.8237 C   0  0  2  0  0  0  0  0  0  0  0  0
    9.5187  -13.5164   19.5240 N   0  0  0  0  0  0  0  0  0  0  0  0
    8.0300  -14.5226   21.1590 C   0  0  0  0  0  0  0  0  0  0  0  0
    6.8821  -14.7587   21.6604 O   0  0  0  0  0  0  0  0  0  0  0  0
    9.2013  -14.8988   21.8713 N   0  0  0  0  0  0  0  0  0  0  0  0
    9.1706  -15.4287   23.2073 C   0  0  1  0  0  0  0  0  0  0  0  0
   10.2958  -16.4050   23.4769 C   0  0  0  0  0  0  0  0  0  0  0  0
    9.9744  -17.7099   22.7919 C   0  0  0  0  0  0  0  0  0  0  0  0
   11.0295  -18.7160   22.9774 C   0  0  0  0  0  0  0  0  0  0  0  0
   10.6555  -19.9171   23.1214 O   0  0  0  0  0  0  0  0  0  0  0  0
    9.0755  -14.3710   24.2403 C   0  0  0  0  0  0  0  0  0  0  0  0
   10.0732  -13.6441   24.4491 O   0  0  0  0  0  0  0  0  0  0  0  0
   12.3887  -18.4382   23.0040 O   0  0  0  0  0  0  0  0  0  0  0  0
    6.3220  -12.6878   26.1471 C   0  0  0  0  0  0  0  0  0  0  0  0
    7.7257  -13.1696   25.9974 C   0  0  2  0  0  0  0  0  0  0  0  0
    7.9040  -14.1744   24.9764 N   0  0  0  0  0  0  0  0  0  0  0  0
    8.1331  -13.7884   27.3011 C   0  0  0  0  0  0  0  0  0  0  0  0
    8.1624  -13.1152   28.3661 O   0  0  0  0  0  0  0  0  0  0  0  0
    8.4977  -15.1306   27.4022 O   0  0  0  0  0  0  0  0  0  0  0  0
  2  1  1  0
  2  3  2  0
  4  2  1  0
  5  4  1  0
  5  6  1  6
  7  9  1  0
  7  5  1  0
  8  7  2  0
 10 15  1  0
 10  9  1  0
 10 11  1  1
 12 11  1  0
 13 12  1  0
 13 14  2  0
 15 16  2  0
 17 13  1  0
 19 18  1  1
 20 19  1  0
 20 15  1  0
 21 23  1  0
 21 19  1  0
 22 21  2  0
M  END
$$$$
