NEA.pdb
     RDKit          3D

 23 22  0  0  1  0  0  0  0  0999 V2000
    8.1501  -12.6357   16.4425 N   0  0  0  0  0  0  0  0  0  0  0  0
    7.4330  -13.8607   16.3515 C   0  0  0  0  0  0  0  0  0  0  0  0
    6.7721  -14.1410   15.3271 O   0  0  0  0  0  0  0  0  0  0  0  0
    7.4923  -14.7918   17.5047 C   0  0  0  0  0  0  0  0  0  0  0  0
    8.2275  -14.1433   18.6355 C   0  0  2  0  0  0  0  0  0  0  0  0
    9.4441  -13.5069   18.2547 N   0  0  0  0  0  0  0  0  0  0  0  0
    8.4340  -15.1633   19.7168 C   0  0  0  0  0  0  0  0  0  0  0  0
    7.4445  -15.7672   20.2469 O   0  0  0  0  0  0  0  0  0  0  0  0
    9.7548  -15.4566   20.1531 N   0  0  0  0  0  0  0  0  0  0  0  0
   10.0404  -16.3415   21.2495 C   0  0  1  0  0  0  0  0  0  0  0  0
   11.3159  -17.1317   21.0484 C   0  0  0  0  0  0  0  0  0  0  0  0
   10.9725  -18.6003   21.0225 C   0  0  0  0  0  0  0  0  0  0  0  0
   12.1472  -19.4471   20.7720 C   0  0  0  0  0  0  0  0  0  0  0  0
   12.7969  -19.2238   19.7083 O   0  0  0  0  0  0  0  0  0  0  0  0
    9.9959  -15.6579   22.5631 C   0  0  0  0  0  0  0  0  0  0  0  0
   10.5310  -14.5313   22.6721 O   0  0  0  0  0  0  0  0  0  0  0  0
   12.5837  -20.4601   21.6139 O   0  0  0  0  0  0  0  0  0  0  0  0
    8.0157  -14.8974   25.2266 C   0  0  0  0  0  0  0  0  0  0  0  0
    9.2813  -15.6472   24.9801 C   0  0  2  0  0  0  0  0  0  0  0  0
    9.3736  -16.2437   23.6688 N   0  0  0  0  0  0  0  0  0  0  0  0
    9.3472  -16.7642   25.9784 C   0  0  0  0  0  0  0  0  0  0  0  0
    9.2981  -17.9707   25.6171 O   0  0  0  0  0  0  0  0  0  0  0  0
    9.4654  -16.5282   27.3476 O   0  0  0  0  0  0  0  0  0  0  0  0
  2  1  1  0
  2  3  2  0
  4  2  1  0
  5  4  1  0
  5  6  1  6
  7  9  1  0
  7  5  1  0
  8  7  2  0
 10 15  1  0
 10  9  1  0
 10 11  1  6
 12 11  1  0
 13 12  1  0
 13 14  2  0
 15 16  2  0
 17 13  1  0
 19 18  1  6
 20 19  1  0
 20 15  1  0
 21 23  1  0
 21 19  1  0
 22 21  2  0
M  END
$$$$
