NEA.pdb
     RDKit          3D

 23 22  0  0  1  0  0  0  0  0999 V2000
    7.3861  -12.3699   17.7734 N   0  0  0  0  0  0  0  0  0  0  0  0
    7.3744  -13.7263   17.3454 C   0  0  0  0  0  0  0  0  0  0  0  0
    6.5344  -14.1264   16.5094 O   0  0  0  0  0  0  0  0  0  0  0  0
    8.3849  -14.6482   17.9192 C   0  0  0  0  0  0  0  0  0  0  0  0
    9.1237  -13.9585   19.0228 C   0  0  2  0  0  0  0  0  0  0  0  0
    9.7722  -12.7524   18.6292 N   0  0  0  0  0  0  0  0  0  0  0  0
   10.0751  -14.9385   19.6446 C   0  0  0  0  0  0  0  0  0  0  0  0
    9.6597  -16.0472   20.1167 O   0  0  0  0  0  0  0  0  0  0  0  0
   11.4594  -14.6207   19.7056 N   0  0  0  0  0  0  0  0  0  0  0  0
   12.4442  -15.5085   20.2612 C   0  0  1  0  0  0  0  0  0  0  0  0
   13.8374  -15.2445   19.7310 C   0  0  0  0  0  0  0  0  0  0  0  0
   13.9038  -15.7141   18.2991 C   0  0  0  0  0  0  0  0  0  0  0  0
   14.8372  -14.9181   17.4900 C   0  0  0  0  0  0  0  0  0  0  0  0
   15.9322  -14.5913   18.0357 O   0  0  0  0  0  0  0  0  0  0  0  0
   12.3990  -15.5591   21.7412 C   0  0  0  0  0  0  0  0  0  0  0  0
   12.9728  -14.6556   22.3907 O   0  0  0  0  0  0  0  0  0  0  0  0
   14.5995  -14.5081   16.1858 O   0  0  0  0  0  0  0  0  0  0  0  0
   10.2145  -16.8983   24.3330 C   0  0  0  0  0  0  0  0  0  0  0  0
   11.6106  -16.6930   23.8496 C   0  0  2  0  0  0  0  0  0  0  0  0
   11.7340  -16.5869   22.4153 N   0  0  0  0  0  0  0  0  0  0  0  0
   12.4163  -17.8841   24.2747 C   0  0  0  0  0  0  0  0  0  0  0  0
   12.6105  -18.1441   25.4925 O   0  0  0  0  0  0  0  0  0  0  0  0
   12.9879  -18.7594   23.3519 O   0  0  0  0  0  0  0  0  0  0  0  0
  2  1  1  0
  2  3  2  0
  4  2  1  0
  5  4  1  0
  5  6  1  6
  7  9  1  0
  7  5  1  0
  8  7  2  0
 10 15  1  0
 10  9  1  0
 10 11  1  1
 12 11  1  0
 13 12  1  0
 13 14  2  0
 15 16  2  0
 17 13  1  0
 19 18  1  6
 20 19  1  0
 20 15  1  0
 21 23  1  0
 21 19  1  0
 22 21  2  0
M  END
$$$$
