NEA.pdb
     RDKit          3D

 23 22  0  0  1  0  0  0  0  0999 V2000
    9.3563  -14.3311   16.7509 N   0  0  0  0  0  0  0  0  0  0  0  0
    7.9392  -14.4540   16.7539 C   0  0  0  0  0  0  0  0  0  0  0  0
    7.3443  -15.0248   15.8132 O   0  0  0  0  0  0  0  0  0  0  0  0
    7.1916  -13.8859   17.9023 C   0  0  0  0  0  0  0  0  0  0  0  0
    8.1545  -13.3052   18.8897 C   0  0  2  0  0  0  0  0  0  0  0  0
    9.3110  -12.7154   18.3027 N   0  0  0  0  0  0  0  0  0  0  0  0
    8.5042  -14.3644   19.8938 C   0  0  0  0  0  0  0  0  0  0  0  0
    7.5962  -14.9692   20.5528 O   0  0  0  0  0  0  0  0  0  0  0  0
    9.8700  -14.6943   20.1094 N   0  0  0  0  0  0  0  0  0  0  0  0
   10.2948  -15.7155   21.0278 C   0  0  1  0  0  0  0  0  0  0  0  0
   11.6398  -16.3080   20.6650 C   0  0  0  0  0  0  0  0  0  0  0  0
   11.9370  -17.4424   21.6137 C   0  0  0  0  0  0  0  0  0  0  0  0
   13.1874  -18.1393   21.2812 C   0  0  0  0  0  0  0  0  0  0  0  0
   13.2614  -19.3634   21.5968 O   0  0  0  0  0  0  0  0  0  0  0  0
   10.2291  -15.2769   22.4414 C   0  0  0  0  0  0  0  0  0  0  0  0
   10.9260  -14.3007   22.8003 O   0  0  0  0  0  0  0  0  0  0  0  0
   14.2755  -17.5509   20.6525 O   0  0  0  0  0  0  0  0  0  0  0  0
    8.0692  -14.8790   25.1528 C   0  0  0  0  0  0  0  0  0  0  0  0
    9.3208  -15.5949   24.7710 C   0  0  2  0  0  0  0  0  0  0  0  0
    9.4116  -15.9280   23.3693 N   0  0  0  0  0  0  0  0  0  0  0  0
    9.3545  -16.8855   25.5339 C   0  0  0  0  0  0  0  0  0  0  0  0
    9.3112  -17.9980   24.9434 O   0  0  0  0  0  0  0  0  0  0  0  0
    9.4354  -16.9215   26.9255 O   0  0  0  0  0  0  0  0  0  0  0  0
  2  1  1  0
  2  3  2  0
  4  2  1  0
  5  4  1  0
  5  6  1  6
  7  9  1  0
  7  5  1  0
  8  7  2  0
 10 15  1  0
 10  9  1  0
 10 11  1  6
 12 11  1  0
 13 12  1  0
 13 14  2  0
 15 16  2  0
 17 13  1  0
 19 18  1  6
 20 19  1  0
 20 15  1  0
 21 23  1  0
 21 19  1  0
 22 21  2  0
M  END
$$$$
