NEA.pdb
     RDKit          3D

 23 22  0  0  1  0  0  0  0  0999 V2000
    7.5032  -12.2971   17.4686 N   0  0  0  0  0  0  0  0  0  0  0  0
    7.7822  -13.6819   17.6346 C   0  0  0  0  0  0  0  0  0  0  0  0
    8.2744  -14.3522   16.7002 O   0  0  0  0  0  0  0  0  0  0  0  0
    7.4723  -14.3044   18.9449 C   0  0  0  0  0  0  0  0  0  0  0  0
    8.6298  -14.1180   19.8750 C   0  0  2  0  0  0  0  0  0  0  0  0
    9.8709  -14.6023   19.3700 N   0  0  0  0  0  0  0  0  0  0  0  0
    8.2788  -14.7277   21.2007 C   0  0  0  0  0  0  0  0  0  0  0  0
    7.1735  -14.4577   21.7752 O   0  0  0  0  0  0  0  0  0  0  0  0
    9.1964  -15.6190   21.8208 N   0  0  0  0  0  0  0  0  0  0  0  0
    9.0238  -16.1172   23.1582 C   0  0  1  0  0  0  0  0  0  0  0  0
    9.8833  -17.3292   23.4481 C   0  0  0  0  0  0  0  0  0  0  0  0
    9.6257  -17.7731   24.8665 C   0  0  0  0  0  0  0  0  0  0  0  0
   10.4686  -18.9106   25.2606 C   0  0  0  0  0  0  0  0  0  0  0  0
   10.2065  -19.4590   26.3714 O   0  0  0  0  0  0  0  0  0  0  0  0
    9.1670  -15.0595   24.1857 C   0  0  0  0  0  0  0  0  0  0  0  0
   10.2840  -14.5141   24.3343 O   0  0  0  0  0  0  0  0  0  0  0  0
   11.5173  -19.4148   24.5047 O   0  0  0  0  0  0  0  0  0  0  0  0
    6.8126  -12.9424   26.2008 C   0  0  0  0  0  0  0  0  0  0  0  0
    8.1255  -13.6098   25.9652 C   0  0  2  0  0  0  0  0  0  0  0  0
    8.0879  -14.6660   24.9819 N   0  0  0  0  0  0  0  0  0  0  0  0
    8.5574  -14.2288   27.2610 C   0  0  0  0  0  0  0  0  0  0  0  0
    8.7179  -13.5327   28.2993 O   0  0  0  0  0  0  0  0  0  0  0  0
    8.8018  -15.5962   27.3837 O   0  0  0  0  0  0  0  0  0  0  0  0
  2  1  1  0
  2  3  2  0
  4  2  1  0
  5  4  1  0
  5  6  1  6
  7  9  1  0
  7  5  1  0
  8  7  2  0
 10 15  1  0
 10  9  1  0
 10 11  1  1
 12 11  1  0
 13 12  1  0
 13 14  2  0
 15 16  2  0
 17 13  1  0
 19 18  1  1
 20 19  1  0
 20 15  1  0
 21 23  1  0
 21 19  1  0
 22 21  2  0
M  END
$$$$
