NEA.pdb
     RDKit          3D

 23 22  0  0  1  0  0  0  0  0999 V2000
    8.7378  -14.0290   16.2660 N   0  0  0  0  0  0  0  0  0  0  0  0
    7.7634  -13.5704   17.1952 C   0  0  0  0  0  0  0  0  0  0  0  0
    6.5815  -13.3711   16.8373 O   0  0  0  0  0  0  0  0  0  0  0  0
    8.1905  -13.3363   18.5963 C   0  0  0  0  0  0  0  0  0  0  0  0
    9.6262  -13.7276   18.7550 C   0  0  2  0  0  0  0  0  0  0  0  0
   10.3023  -13.9847   17.5275 N   0  0  0  0  0  0  0  0  0  0  0  0
    9.7013  -14.8912   19.6998 C   0  0  0  0  0  0  0  0  0  0  0  0
    8.7129  -15.6828   19.8459 O   0  0  0  0  0  0  0  0  0  0  0  0
   10.8948  -15.1095   20.4406 N   0  0  0  0  0  0  0  0  0  0  0  0
   11.0813  -16.2367   21.3132 C   0  0  1  0  0  0  0  0  0  0  0  0
   12.3398  -17.0181   21.0010 C   0  0  0  0  0  0  0  0  0  0  0  0
   12.0655  -17.9212   19.8244 C   0  0  0  0  0  0  0  0  0  0  0  0
   13.2337  -18.7328   19.4554 C   0  0  0  0  0  0  0  0  0  0  0  0
   13.0197  -19.9488   19.1743 O   0  0  0  0  0  0  0  0  0  0  0  0
   10.9773  -15.8746   22.7459 C   0  0  0  0  0  0  0  0  0  0  0  0
   11.8621  -15.1438   23.2463 O   0  0  0  0  0  0  0  0  0  0  0  0
   14.5366  -18.2592   19.3958 O   0  0  0  0  0  0  0  0  0  0  0  0
    8.2904  -15.7135   25.2837 C   0  0  0  0  0  0  0  0  0  0  0  0
    9.7127  -15.9823   24.9236 C   0  0  2  0  0  0  0  0  0  0  0  0
    9.9200  -16.3304   23.5380 N   0  0  0  0  0  0  0  0  0  0  0  0
   10.1748  -17.1485   25.7451 C   0  0  0  0  0  0  0  0  0  0  0  0
   10.4772  -18.2490   25.2104 O   0  0  0  0  0  0  0  0  0  0  0  0
   10.2934  -17.0766   27.1327 O   0  0  0  0  0  0  0  0  0  0  0  0
  2  1  1  0
  2  3  2  0
  4  2  1  0
  5  4  1  0
  5  6  1  6
  7  9  1  0
  7  5  1  0
  8  7  2  0
 10 15  1  0
 10  9  1  0
 10 11  1  1
 12 11  1  0
 13 12  1  0
 13 14  2  0
 15 16  2  0
 17 13  1  0
 19 18  1  6
 20 19  1  0
 20 15  1  0
 21 23  1  0
 21 19  1  0
 22 21  2  0
M  END
$$$$
