NEA.pdb
     RDKit          3D

 23 22  0  0  1  0  0  0  0  0999 V2000
    7.4478  -12.8969   16.2784 N   0  0  0  0  0  0  0  0  0  0  0  0
    7.9194  -14.1046   15.6932 C   0  0  0  0  0  0  0  0  0  0  0  0
    7.5124  -14.4727   14.5692 O   0  0  0  0  0  0  0  0  0  0  0  0
    8.9046  -14.9110   16.4544 C   0  0  0  0  0  0  0  0  0  0  0  0
    9.1179  -14.2995   17.8035 C   0  0  2  0  0  0  0  0  0  0  0  0
    9.5389  -12.9388   17.7698 N   0  0  0  0  0  0  0  0  0  0  0  0
   10.0662  -15.1689   18.5762 C   0  0  0  0  0  0  0  0  0  0  0  0
    9.7748  -16.3802   18.8456 O   0  0  0  0  0  0  0  0  0  0  0  0
   11.3068  -14.6287   19.0120 N   0  0  0  0  0  0  0  0  0  0  0  0
   12.2824  -15.3928   19.7408 C   0  0  1  0  0  0  0  0  0  0  0  0
   13.7046  -15.0589   19.3439 C   0  0  0  0  0  0  0  0  0  0  0  0
   13.8782  -15.3631   17.8767 C   0  0  0  0  0  0  0  0  0  0  0  0
   15.2604  -15.1595   17.4209 C   0  0  0  0  0  0  0  0  0  0  0  0
   15.8219  -14.0772   17.7628 O   0  0  0  0  0  0  0  0  0  0  0  0
   12.0732  -15.3385   21.2064 C   0  0  0  0  0  0  0  0  0  0  0  0
   12.5825  -14.3938   21.8510 O   0  0  0  0  0  0  0  0  0  0  0  0
   15.9790  -16.0637   16.6519 O   0  0  0  0  0  0  0  0  0  0  0  0
    9.6154  -16.5818   23.6295 C   0  0  0  0  0  0  0  0  0  0  0  0
   11.0431  -16.3172   23.2882 C   0  0  2  0  0  0  0  0  0  0  0  0
   11.3255  -16.3133   21.8726 N   0  0  0  0  0  0  0  0  0  0  0  0
   11.8648  -17.4130   23.8987 C   0  0  0  0  0  0  0  0  0  0  0  0
   12.4635  -18.2605   23.1833 O   0  0  0  0  0  0  0  0  0  0  0  0
   12.0085  -17.5502   25.2789 O   0  0  0  0  0  0  0  0  0  0  0  0
  2  1  1  0
  2  3  2  0
  4  2  1  0
  5  4  1  0
  5  6  1  6
  7  9  1  0
  7  5  1  0
  8  7  2  0
 10 15  1  0
 10  9  1  0
 10 11  1  1
 12 11  1  0
 13 12  1  0
 13 14  2  0
 15 16  2  0
 17 13  1  0
 19 18  1  6
 20 19  1  0
 20 15  1  0
 21 23  1  0
 21 19  1  0
 22 21  2  0
M  END
$$$$
