NEA.pdb
     RDKit          3D

 23 22  0  0  1  0  0  0  0  0999 V2000
    8.2646  -18.0854   16.2350 N   0  0  0  0  0  0  0  0  0  0  0  0
    9.5086  -18.1642   16.9202 C   0  0  0  0  0  0  0  0  0  0  0  0
   10.5893  -18.0669   16.2980 O   0  0  0  0  0  0  0  0  0  0  0  0
    9.4847  -18.3652   18.3897 C   0  0  0  0  0  0  0  0  0  0  0  0
   10.2281  -17.2527   19.0601 C   0  0  2  0  0  0  0  0  0  0  0  0
   11.5090  -16.9820   18.4981 N   0  0  0  0  0  0  0  0  0  0  0  0
   10.3031  -17.5474   20.5297 C   0  0  0  0  0  0  0  0  0  0  0  0
    9.2446  -17.7008   21.2231 O   0  0  0  0  0  0  0  0  0  0  0  0
   11.5761  -17.6561   21.1530 N   0  0  0  0  0  0  0  0  0  0  0  0
   11.7423  -17.9213   22.5562 C   0  0  1  0  0  0  0  0  0  0  0  0
   13.1121  -18.4723   22.8906 C   0  0  0  0  0  0  0  0  0  0  0  0
   13.2171  -19.8701   22.3333 C   0  0  0  0  0  0  0  0  0  0  0  0
   14.5587  -20.4443   22.5071 C   0  0  0  0  0  0  0  0  0  0  0  0
   15.2915  -20.5081   21.4764 O   0  0  0  0  0  0  0  0  0  0  0  0
   11.3717  -16.7649   23.4048 C   0  0  0  0  0  0  0  0  0  0  0  0
   12.0828  -15.7355   23.3609 O   0  0  0  0  0  0  0  0  0  0  0  0
   15.0663  -20.9136   23.7102 O   0  0  0  0  0  0  0  0  0  0  0  0
    8.4492  -15.2511   24.8842 C   0  0  0  0  0  0  0  0  0  0  0  0
    9.8392  -15.7371   25.1218 C   0  0  2  0  0  0  0  0  0  0  0  0
   10.2544  -16.8048   24.2435 N   0  0  0  0  0  0  0  0  0  0  0  0
    9.8991  -16.2697   26.5223 C   0  0  0  0  0  0  0  0  0  0  0  0
   10.0623  -17.4984   26.7505 O   0  0  0  0  0  0  0  0  0  0  0  0
    9.7785  -15.4398   27.6364 O   0  0  0  0  0  0  0  0  0  0  0  0
  2  1  1  0
  2  3  2  0
  4  2  1  0
  5  4  1  0
  5  6  1  6
  7  9  1  0
  7  5  1  0
  8  7  2  0
 10 15  1  0
 10  9  1  0
 10 11  1  6
 12 11  1  0
 13 12  1  0
 13 14  2  0
 15 16  2  0
 17 13  1  0
 19 18  1  6
 20 19  1  0
 20 15  1  0
 21 23  1  0
 21 19  1  0
 22 21  2  0
M  END
$$$$
