NEA.pdb
     RDKit          3D

 23 22  0  0  1  0  0  0  0  0999 V2000
   18.1629  -11.3822   15.4744 N   0  0  0  0  0  0  0  0  0  0  0  0
   17.9778  -12.0183   16.7330 C   0  0  0  0  0  0  0  0  0  0  0  0
   18.9591  -12.3293   17.4436 O   0  0  0  0  0  0  0  0  0  0  0  0
   16.5903  -12.3008   17.1751 C   0  0  0  0  0  0  0  0  0  0  0  0
   16.4590  -13.7514   17.5187 C   0  0  2  0  0  0  0  0  0  0  0  0
   16.2409  -14.6018   16.3965 N   0  0  0  0  0  0  0  0  0  0  0  0
   15.3888  -13.8994   18.5604 C   0  0  0  0  0  0  0  0  0  0  0  0
   15.5666  -13.4746   19.7489 O   0  0  0  0  0  0  0  0  0  0  0  0
   14.1602  -14.5236   18.2113 N   0  0  0  0  0  0  0  0  0  0  0  0
   13.1147  -14.7845   19.1630 C   0  0  1  0  0  0  0  0  0  0  0  0
   11.8076  -15.1739   18.5061 C   0  0  0  0  0  0  0  0  0  0  0  0
   12.0539  -16.3652   17.6142 C   0  0  0  0  0  0  0  0  0  0  0  0
   10.8358  -16.8103   16.9229 C   0  0  0  0  0  0  0  0  0  0  0  0
   10.8822  -16.8620   15.6586 O   0  0  0  0  0  0  0  0  0  0  0  0
   13.5271  -15.7385   20.2188 C   0  0  0  0  0  0  0  0  0  0  0  0
   14.2545  -16.7070   19.9021 O   0  0  0  0  0  0  0  0  0  0  0  0
    9.6561  -17.1724   17.5573 O   0  0  0  0  0  0  0  0  0  0  0  0
   14.4964  -15.8520   23.5755 C   0  0  0  0  0  0  0  0  0  0  0  0
   13.4967  -16.4421   22.6389 C   0  0  2  0  0  0  0  0  0  0  0  0
   13.1217  -15.5763   21.5464 N   0  0  0  0  0  0  0  0  0  0  0  0
   12.2515  -16.7243   23.4253 C   0  0  0  0  0  0  0  0  0  0  0  0
   11.1631  -16.1466   23.1603 O   0  0  0  0  0  0  0  0  0  0  0  0
   12.2329  -17.6337   24.4823 O   0  0  0  0  0  0  0  0  0  0  0  0
  2  1  1  0
  2  3  2  0
  4  2  1  0
  5  4  1  0
  5  6  1  6
  7  9  1  0
  7  5  1  0
  8  7  2  0
 10 15  1  0
 10  9  1  0
 10 11  1  6
 12 11  1  0
 13 12  1  0
 13 14  2  0
 15 16  2  0
 17 13  1  0
 19 18  1  1
 20 19  1  0
 20 15  1  0
 21 23  1  0
 21 19  1  0
 22 21  2  0
M  END
$$$$
