NEA.pdb
     RDKit          3D

 23 22  0  0  1  0  0  0  0  0999 V2000
   14.7018  -17.1148   15.3401 N   0  0  0  0  0  0  0  0  0  0  0  0
   13.3417  -17.0703   14.9264 C   0  0  0  0  0  0  0  0  0  0  0  0
   13.0349  -17.1976   13.7204 O   0  0  0  0  0  0  0  0  0  0  0  0
   12.3022  -16.8685   15.9652 C   0  0  0  0  0  0  0  0  0  0  0  0
   11.5732  -18.1540   16.2014 C   0  0  2  0  0  0  0  0  0  0  0  0
   10.6827  -18.5237   15.1525 N   0  0  0  0  0  0  0  0  0  0  0  0
   10.8822  -18.0725   17.5312 C   0  0  0  0  0  0  0  0  0  0  0  0
    9.9243  -17.2540   17.7239 O   0  0  0  0  0  0  0  0  0  0  0  0
   11.3063  -18.9229   18.5885 N   0  0  0  0  0  0  0  0  0  0  0  0
   10.6954  -18.9210   19.8898 C   0  0  1  0  0  0  0  0  0  0  0  0
   10.6397  -20.2992   20.5136 C   0  0  0  0  0  0  0  0  0  0  0  0
    9.5226  -21.0766   19.8631 C   0  0  0  0  0  0  0  0  0  0  0  0
    9.3785  -22.4275   20.4233 C   0  0  0  0  0  0  0  0  0  0  0  0
   10.1937  -22.7592   21.3337 O   0  0  0  0  0  0  0  0  0  0  0  0
   11.2851  -17.9093   20.7973 C   0  0  0  0  0  0  0  0  0  0  0  0
   12.5258  -17.7429   20.7858 O   0  0  0  0  0  0  0  0  0  0  0  0
    8.4204  -23.3488   20.0249 O   0  0  0  0  0  0  0  0  0  0  0  0
    9.8987  -15.3412   23.2287 C   0  0  0  0  0  0  0  0  0  0  0  0
   10.9720  -16.1049   22.5291 C   0  0  2  0  0  0  0  0  0  0  0  0
   10.4878  -17.1471   21.6555 N   0  0  0  0  0  0  0  0  0  0  0  0
   11.8148  -16.7657   23.5788 C   0  0  0  0  0  0  0  0  0  0  0  0
   11.7601  -18.0091   23.7773 O   0  0  0  0  0  0  0  0  0  0  0  0
   12.6963  -16.0445   24.3834 O   0  0  0  0  0  0  0  0  0  0  0  0
  2  1  1  0
  2  3  2  0
  4  2  1  0
  5  4  1  0
  5  6  1  6
  7  9  1  0
  7  5  1  0
  8  7  2  0
 10 15  1  0
 10  9  1  0
 10 11  1  1
 12 11  1  0
 13 12  1  0
 13 14  2  0
 15 16  2  0
 17 13  1  0
 19 18  1  1
 20 19  1  0
 20 15  1  0
 21 23  1  0
 21 19  1  0
 22 21  2  0
M  END
$$$$
