NEA.pdb
     RDKit          3D

 23 22  0  0  1  0  0  0  0  0999 V2000
    8.0621  -12.3810   17.7889 N   0  0  0  0  0  0  0  0  0  0  0  0
    7.7168  -13.6994   18.1960 C   0  0  0  0  0  0  0  0  0  0  0  0
    7.7823  -14.6554   17.3919 O   0  0  0  0  0  0  0  0  0  0  0  0
    7.2777  -13.9047   19.5979 C   0  0  0  0  0  0  0  0  0  0  0  0
    8.4178  -14.4382   20.4074 C   0  0  2  0  0  0  0  0  0  0  0  0
    8.9819  -15.6444   19.9007 N   0  0  0  0  0  0  0  0  0  0  0  0
    7.9670  -14.5763   21.8322 C   0  0  0  0  0  0  0  0  0  0  0  0
    7.3965  -13.6099   22.4366 O   0  0  0  0  0  0  0  0  0  0  0  0
    8.1819  -15.8053   22.5135 N   0  0  0  0  0  0  0  0  0  0  0  0
    7.7294  -16.0473   23.8564 C   0  0  1  0  0  0  0  0  0  0  0  0
    7.7098  -17.5185   24.2125 C   0  0  0  0  0  0  0  0  0  0  0  0
    7.0733  -17.6758   25.5710 C   0  0  0  0  0  0  0  0  0  0  0  0
    6.9607  -19.0832   25.9786 C   0  0  0  0  0  0  0  0  0  0  0  0
    7.2176  -19.3504   27.1894 O   0  0  0  0  0  0  0  0  0  0  0  0
    8.4502  -15.2289   24.8592 C   0  0  0  0  0  0  0  0  0  0  0  0
    9.7003  -15.2858   24.8942 O   0  0  0  0  0  0  0  0  0  0  0  0
    6.5960  -20.1224   25.1345 O   0  0  0  0  0  0  0  0  0  0  0  0
    7.5141  -12.3704   27.1279 C   0  0  0  0  0  0  0  0  0  0  0  0
    8.3882  -13.4966   26.6890 C   0  0  2  0  0  0  0  0  0  0  0  0
    7.7648  -14.4045   25.7558 N   0  0  0  0  0  0  0  0  0  0  0  0
    8.7454  -14.2936   27.9079 C   0  0  0  0  0  0  0  0  0  0  0  0
    8.3232  -15.4701   28.0695 O   0  0  0  0  0  0  0  0  0  0  0  0
    9.5573  -13.7788   28.9180 O   0  0  0  0  0  0  0  0  0  0  0  0
  2  1  1  0
  2  3  2  0
  4  2  1  0
  5  4  1  0
  5  6  1  6
  7  9  1  0
  7  5  1  0
  8  7  2  0
 10 15  1  0
 10  9  1  0
 10 11  1  1
 12 11  1  0
 13 12  1  0
 13 14  2  0
 15 16  2  0
 17 13  1  0
 19 18  1  1
 20 19  1  0
 20 15  1  0
 21 23  1  0
 21 19  1  0
 22 21  2  0
M  END
$$$$
