NEA.pdb
     RDKit          3D

 23 22  0  0  1  0  0  0  0  0999 V2000
    7.7338  -12.7896   16.6242 N   0  0  0  0  0  0  0  0  0  0  0  0
    7.8195  -13.9060   17.5015 C   0  0  0  0  0  0  0  0  0  0  0  0
    8.3112  -14.9887   17.1135 O   0  0  0  0  0  0  0  0  0  0  0  0
    7.3092  -13.7474   18.8853 C   0  0  0  0  0  0  0  0  0  0  0  0
    8.4415  -13.4024   19.8009 C   0  0  2  0  0  0  0  0  0  0  0  0
    9.7276  -13.4634   19.1907 N   0  0  0  0  0  0  0  0  0  0  0  0
    8.3496  -14.2716   21.0208 C   0  0  0  0  0  0  0  0  0  0  0  0
    7.2997  -14.2791   21.7436 O   0  0  0  0  0  0  0  0  0  0  0  0
    9.4527  -15.0970   21.3714 N   0  0  0  0  0  0  0  0  0  0  0  0
    9.4778  -15.9113   22.5558 C   0  0  1  0  0  0  0  0  0  0  0  0
   10.4652  -17.0549   22.4603 C   0  0  0  0  0  0  0  0  0  0  0  0
   10.3781  -17.8720   23.7253 C   0  0  0  0  0  0  0  0  0  0  0  0
   11.3596  -18.9653   23.7560 C   0  0  0  0  0  0  0  0  0  0  0  0
   12.4926  -18.7030   24.2571 O   0  0  0  0  0  0  0  0  0  0  0  0
    9.6472  -15.1155   23.7938 C   0  0  0  0  0  0  0  0  0  0  0  0
   10.7637  -14.5997   24.0281 O   0  0  0  0  0  0  0  0  0  0  0  0
   11.1278  -20.2474   23.2787 O   0  0  0  0  0  0  0  0  0  0  0  0
    7.4152  -13.3393   26.1607 C   0  0  0  0  0  0  0  0  0  0  0  0
    8.6532  -14.1251   25.8876 C   0  0  2  0  0  0  0  0  0  0  0  0
    8.5932  -14.9338   24.6934 N   0  0  0  0  0  0  0  0  0  0  0  0
    8.8603  -15.0589   27.0425 C   0  0  0  0  0  0  0  0  0  0  0  0
    8.7607  -16.3075   26.9027 O   0  0  0  0  0  0  0  0  0  0  0  0
    9.1718  -14.5980   28.3212 O   0  0  0  0  0  0  0  0  0  0  0  0
  2  1  1  0
  2  3  2  0
  4  2  1  0
  5  4  1  0
  5  6  1  6
  7  9  1  0
  7  5  1  0
  8  7  2  0
 10 15  1  0
 10  9  1  0
 10 11  1  6
 12 11  1  0
 13 12  1  0
 13 14  2  0
 15 16  2  0
 17 13  1  0
 19 18  1  1
 20 19  1  0
 20 15  1  0
 21 23  1  0
 21 19  1  0
 22 21  2  0
M  END
$$$$
