WCG.pdb
     RDKit          3D

 25 26  0  0  1  0  0  0  0  0999 V2000
    8.1564  -16.8583   23.7711 N   0  0  0  0  0  0  0  0  0  0  0  0
    7.6258  -16.0198   22.7494 C   0  0  1  0  0  0  0  0  0  0  0  0
    7.1943  -14.6522   23.2336 C   0  0  0  0  0  0  0  0  0  0  0  0
    6.9907  -14.6425   24.6891 C   0  0  0  0  0  0  0  0  0  0  0  0
    6.7622  -15.7508   25.4883 C   0  0  0  0  0  0  0  0  0  0  0  0
    6.5900  -15.3512   26.7494 N   0  0  0  0  0  0  0  0  0  0  0  0
    6.7034  -14.0134   26.7768 C   0  0  0  0  0  0  0  0  0  0  0  0
    6.6152  -13.1377   27.8182 C   0  0  0  0  0  0  0  0  0  0  0  0
    6.7775  -11.7915   27.5982 C   0  0  0  0  0  0  0  0  0  0  0  0
    7.0299  -11.3139   26.3302 C   0  0  0  0  0  0  0  0  0  0  0  0
    7.1221  -12.1770   25.2696 C   0  0  0  0  0  0  0  0  0  0  0  0
    6.9569  -13.5306   25.4963 C   0  0  0  0  0  0  0  0  0  0  0  0
    8.5793  -15.8047   21.6246 C   0  0  0  0  0  0  0  0  0  0  0  0
    9.2899  -16.7860   21.2129 O   0  0  0  0  0  0  0  0  0  0  0  0
    8.7691  -14.5730   20.9552 N   0  0  0  0  0  0  0  0  0  0  0  0
    9.5006  -14.4929   19.6897 C   0  0  1  0  0  0  0  0  0  0  0  0
    8.9131  -13.3366   18.9053 C   0  0  0  0  0  0  0  0  0  0  0  0
    7.1502  -13.4743   18.6833 S   0  0  0  0  0  0  0  0  0  0  0  0
   10.9461  -14.4008   19.9143 C   0  0  0  0  0  0  0  0  0  0  0  0
   11.3462  -13.8829   21.0146 O   0  0  0  0  0  0  0  0  0  0  0  0
   11.9585  -14.8262   19.0414 N   0  0  0  0  0  0  0  0  0  0  0  0
   13.3756  -14.6479   19.3045 C   0  0  0  0  0  0  0  0  0  0  0  0
   14.1843  -15.2764   18.2080 C   0  0  0  0  0  0  0  0  0  0  0  0
   15.5265  -14.9534   18.0745 O   0  0  0  0  0  0  0  0  0  0  0  0
   13.6044  -16.0868   17.4382 O   0  0  0  0  0  0  0  0  0  0  0  0
  2  1  1  1
  2 13  1  0
  3  2  1  0
  4  3  1  0
  5  4  2  0
  6  7  1  0
  6  5  1  0
  7 12  2  0
  8  9  2  0
  8  7  1  0
  9 10  1  0
 10 11  2  0
 12  4  1  0
 12 11  1  0
 13 14  2  0
 15 16  1  0
 15 13  1  0
 16 17  1  1
 17 18  1  0
 19 16  1  0
 19 20  2  0
 21 19  1  0
 22 21  1  0
 23 22  1  0
 24 23  1  0
 25 23  2  0
M  END
$$$$
