WCG.pdb
     RDKit          3D

 25 26  0  0  1  0  0  0  0  0999 V2000
    6.4972  -17.7254   23.8254 N   0  0  0  0  0  0  0  0  0  0  0  0
    7.1635  -16.5062   23.5125 C   0  0  1  0  0  0  0  0  0  0  0  0
    8.0402  -15.9766   24.6269 C   0  0  0  0  0  0  0  0  0  0  0  0
    7.2568  -15.1968   25.5956 C   0  0  0  0  0  0  0  0  0  0  0  0
    6.2740  -15.6920   26.4372 C   0  0  0  0  0  0  0  0  0  0  0  0
    5.7597  -14.6859   27.1466 N   0  0  0  0  0  0  0  0  0  0  0  0
    6.3904  -13.5585   26.7798 C   0  0  0  0  0  0  0  0  0  0  0  0
    6.2341  -12.2748   27.2120 C   0  0  0  0  0  0  0  0  0  0  0  0
    7.0135  -11.2738   26.6854 C   0  0  0  0  0  0  0  0  0  0  0  0
    7.9566  -11.5541   25.7202 C   0  0  0  0  0  0  0  0  0  0  0  0
    8.1295  -12.8375   25.2716 C   0  0  0  0  0  0  0  0  0  0  0  0
    7.3418  -13.8409   25.8040 C   0  0  0  0  0  0  0  0  0  0  0  0
    8.0177  -16.6097   22.2958 C   0  0  0  0  0  0  0  0  0  0  0  0
    8.3710  -17.7665   21.8783 O   0  0  0  0  0  0  0  0  0  0  0  0
    8.4825  -15.5060   21.5429 N   0  0  0  0  0  0  0  0  0  0  0  0
    9.0243  -15.6723   20.1932 C   0  0  1  0  0  0  0  0  0  0  0  0
    8.6095  -14.4549   19.3910 C   0  0  0  0  0  0  0  0  0  0  0  0
    6.8416  -14.2430   19.3171 S   0  0  0  0  0  0  0  0  0  0  0  0
   10.4697  -15.9137   20.2248 C   0  0  0  0  0  0  0  0  0  0  0  0
   11.0922  -15.9502   19.1068 O   0  0  0  0  0  0  0  0  0  0  0  0
   11.2614  -16.1116   21.3659 N   0  0  0  0  0  0  0  0  0  0  0  0
   12.6824  -16.4075   21.3182 C   0  0  0  0  0  0  0  0  0  0  0  0
   13.2256  -16.5423   22.7104 C   0  0  0  0  0  0  0  0  0  0  0  0
   12.3534  -16.5525   23.7887 O   0  0  0  0  0  0  0  0  0  0  0  0
   14.4731  -16.6431   22.8492 O   0  0  0  0  0  0  0  0  0  0  0  0
  2  1  1  1
  2 13  1  0
  3  2  1  0
  4  3  1  0
  5  4  2  0
  6  7  1  0
  6  5  1  0
  7 12  2  0
  8  9  2  0
  8  7  1  0
  9 10  1  0
 10 11  2  0
 12  4  1  0
 12 11  1  0
 13 14  2  0
 15 16  1  0
 15 13  1  0
 16 17  1  6
 17 18  1  0
 19 16  1  0
 19 20  2  0
 21 19  1  0
 22 21  1  0
 23 22  1  0
 24 23  1  0
 25 23  2  0
M  END
$$$$
