WCG.pdb
     RDKit          3D

 25 26  0  0  1  0  0  0  0  0999 V2000
    6.4283  -17.8294   24.2209 N   0  0  0  0  0  0  0  0  0  0  0  0
    7.1848  -16.6939   23.8126 C   0  0  1  0  0  0  0  0  0  0  0  0
    8.0349  -16.0898   24.9096 C   0  0  0  0  0  0  0  0  0  0  0  0
    7.2444  -15.1894   25.7607 C   0  0  0  0  0  0  0  0  0  0  0  0
    6.2221  -15.5647   26.6172 C   0  0  0  0  0  0  0  0  0  0  0  0
    5.7151  -14.4746   27.1953 N   0  0  0  0  0  0  0  0  0  0  0  0
    6.3888  -13.4102   26.7299 C   0  0  0  0  0  0  0  0  0  0  0  0
    6.2559  -12.0834   27.0148 C   0  0  0  0  0  0  0  0  0  0  0  0
    7.0796  -11.1658   26.4094 C   0  0  0  0  0  0  0  0  0  0  0  0
    8.0438  -11.5735   25.5129 C   0  0  0  0  0  0  0  0  0  0  0  0
    8.1938  -12.9023   25.2124 C   0  0  0  0  0  0  0  0  0  0  0  0
    7.3616  -13.8213   25.8235 C   0  0  0  0  0  0  0  0  0  0  0  0
    8.0918  -16.9849   22.6666 C   0  0  0  0  0  0  0  0  0  0  0  0
    8.4775  -18.1884   22.4664 O   0  0  0  0  0  0  0  0  0  0  0  0
    8.5746  -16.0155   21.7564 N   0  0  0  0  0  0  0  0  0  0  0  0
    9.3715  -16.3913   20.5873 C   0  0  1  0  0  0  0  0  0  0  0  0
    9.0354  -15.4099   19.4821 C   0  0  0  0  0  0  0  0  0  0  0  0
    7.2902  -15.3344   19.1293 S   0  0  0  0  0  0  0  0  0  0  0  0
   10.7977  -16.4684   20.9166 C   0  0  0  0  0  0  0  0  0  0  0  0
   11.5118  -15.4242   20.7199 O   0  0  0  0  0  0  0  0  0  0  0  0
   11.4793  -17.5799   21.4341 N   0  0  0  0  0  0  0  0  0  0  0  0
   12.9200  -17.7471   21.3595 C   0  0  0  0  0  0  0  0  0  0  0  0
   13.5820  -17.0019   22.4810 C   0  0  0  0  0  0  0  0  0  0  0  0
   13.8845  -15.6572   22.3263 O   0  0  0  0  0  0  0  0  0  0  0  0
   13.8419  -17.6358   23.5375 O   0  0  0  0  0  0  0  0  0  0  0  0
  2  1  1  1
  2 13  1  0
  3  2  1  0
  4  3  1  0
  5  4  2  0
  6  7  1  0
  6  5  1  0
  7 12  2  0
  8  9  2  0
  8  7  1  0
  9 10  1  0
 10 11  2  0
 12  4  1  0
 12 11  1  0
 13 14  2  0
 15 16  1  0
 15 13  1  0
 16 17  1  6
 17 18  1  0
 19 16  1  0
 19 20  2  0
 21 19  1  0
 22 21  1  0
 23 22  1  0
 24 23  1  0
 25 23  2  0
M  END
$$$$
