WCG.pdb
     RDKit          3D

 25 26  0  0  1  0  0  0  0  0999 V2000
    7.6601  -18.3936   25.0856 N   0  0  0  0  0  0  0  0  0  0  0  0
    7.9709  -17.0998   24.5778 C   0  0  1  0  0  0  0  0  0  0  0  0
    8.4683  -16.1271   25.6254 C   0  0  0  0  0  0  0  0  0  0  0  0
    7.3987  -15.2158   26.0562 C   0  0  0  0  0  0  0  0  0  0  0  0
    6.1034  -15.5776   26.3889 C   0  0  0  0  0  0  0  0  0  0  0  0
    5.4092  -14.4805   26.6957 N   0  0  0  0  0  0  0  0  0  0  0  0
    6.2294  -13.4248   26.5680 C   0  0  0  0  0  0  0  0  0  0  0  0
    6.0017  -12.0960   26.7715 C   0  0  0  0  0  0  0  0  0  0  0  0
    7.0158  -11.1891   26.5816 C   0  0  0  0  0  0  0  0  0  0  0  0
    8.2672  -11.6098   26.1858 C   0  0  0  0  0  0  0  0  0  0  0  0
    8.5171  -12.9408   25.9755 C   0  0  0  0  0  0  0  0  0  0  0  0
    7.4928  -13.8491   26.1670 C   0  0  0  0  0  0  0  0  0  0  0  0
    8.9921  -17.1342   23.4931 C   0  0  0  0  0  0  0  0  0  0  0  0
    9.8498  -18.0835   23.4738 O   0  0  0  0  0  0  0  0  0  0  0  0
    9.0947  -16.1795   22.4542 N   0  0  0  0  0  0  0  0  0  0  0  0
   10.1776  -16.2303   21.4705 C   0  0  1  0  0  0  0  0  0  0  0  0
    9.7585  -15.3659   20.2980 C   0  0  0  0  0  0  0  0  0  0  0  0
    8.2233  -15.8929   19.5623 S   0  0  0  0  0  0  0  0  0  0  0  0
   11.4614  -15.8563   22.0710 C   0  0  0  0  0  0  0  0  0  0  0  0
   11.4397  -15.0746   23.0845 O   0  0  0  0  0  0  0  0  0  0  0  0
   12.7347  -16.2688   21.6510 N   0  0  0  0  0  0  0  0  0  0  0  0
   13.9707  -15.6648   22.1165 C   0  0  0  0  0  0  0  0  0  0  0  0
   14.5314  -16.4588   23.2595 C   0  0  0  0  0  0  0  0  0  0  0  0
   15.7378  -16.0812   23.8301 O   0  0  0  0  0  0  0  0  0  0  0  0
   13.8745  -17.4539   23.6643 O   0  0  0  0  0  0  0  0  0  0  0  0
  2  1  1  1
  2 13  1  0
  3  2  1  0
  4  3  1  0
  5  4  2  0
  6  7  1  0
  6  5  1  0
  7 12  2  0
  8  9  2  0
  8  7  1  0
  9 10  1  0
 10 11  2  0
 12  4  1  0
 12 11  1  0
 13 14  2  0
 15 16  1  0
 15 13  1  0
 16 17  1  6
 17 18  1  0
 19 16  1  0
 19 20  2  0
 21 19  1  0
 22 21  1  0
 23 22  1  0
 24 23  1  0
 25 23  2  0
M  END
$$$$
