WCG.pdb
     RDKit          3D

 25 26  0  0  1  0  0  0  0  0999 V2000
    7.1275  -17.8785   25.9159 N   0  0  0  0  0  0  0  0  0  0  0  0
    6.7670  -17.1720   24.7330 C   0  0  1  0  0  0  0  0  0  0  0  0
    6.2891  -15.7570   24.9789 C   0  0  0  0  0  0  0  0  0  0  0  0
    7.2039  -15.0341   25.8738 C   0  0  0  0  0  0  0  0  0  0  0  0
    8.2141  -15.5976   26.6361 C   0  0  0  0  0  0  0  0  0  0  0  0
    8.8099  -14.6392   27.3477 N   0  0  0  0  0  0  0  0  0  0  0  0
    8.2054  -13.4753   27.0587 C   0  0  0  0  0  0  0  0  0  0  0  0
    8.4468  -12.2138   27.5162 C   0  0  0  0  0  0  0  0  0  0  0  0
    7.6891  -11.1623   27.0612 C   0  0  0  0  0  0  0  0  0  0  0  0
    6.6825  -11.3694   26.1428 C   0  0  0  0  0  0  0  0  0  0  0  0
    6.4232  -12.6295   25.6704 C   0  0  0  0  0  0  0  0  0  0  0  0
    7.1880  -13.6843   26.1323 C   0  0  0  0  0  0  0  0  0  0  0  0
    7.8799  -17.0921   23.7452 C   0  0  0  0  0  0  0  0  0  0  0  0
    8.8997  -17.8510   23.8918 O   0  0  0  0  0  0  0  0  0  0  0  0
    7.9035  -16.2244   22.6282 N   0  0  0  0  0  0  0  0  0  0  0  0
    9.0765  -16.1267   21.7578 C   0  0  1  0  0  0  0  0  0  0  0  0
    8.6946  -15.2396   20.5895 C   0  0  0  0  0  0  0  0  0  0  0  0
    7.3379  -15.8938   19.6370 S   0  0  0  0  0  0  0  0  0  0  0  0
   10.2561  -15.6753   22.5015 C   0  0  0  0  0  0  0  0  0  0  0  0
   10.1004  -14.7264   23.3467 O   0  0  0  0  0  0  0  0  0  0  0  0
   11.5609  -16.1779   22.3885 N   0  0  0  0  0  0  0  0  0  0  0  0
   12.6981  -15.6346   23.1100 C   0  0  0  0  0  0  0  0  0  0  0  0
   13.9649  -16.2839   22.6355 C   0  0  0  0  0  0  0  0  0  0  0  0
   14.7690  -15.6273   21.7158 O   0  0  0  0  0  0  0  0  0  0  0  0
   14.2547  -17.4186   23.0981 O   0  0  0  0  0  0  0  0  0  0  0  0
  2  1  1  1
  2 13  1  0
  3  2  1  0
  4  3  1  0
  5  4  2  0
  6  7  1  0
  6  5  1  0
  7 12  2  0
  8  9  2  0
  8  7  1  0
  9 10  1  0
 10 11  2  0
 12  4  1  0
 12 11  1  0
 13 14  2  0
 15 16  1  0
 15 13  1  0
 16 17  1  6
 17 18  1  0
 19 16  1  0
 19 20  2  0
 21 19  1  0
 22 21  1  0
 23 22  1  0
 24 23  1  0
 25 23  2  0
M  END
$$$$
