WCG.pdb
     RDKit          3D

 25 26  0  0  1  0  0  0  0  0999 V2000
    8.3945  -17.5081   24.0785 N   0  0  0  0  0  0  0  0  0  0  0  0
    8.9315  -16.3123   23.5215 C   0  0  1  0  0  0  0  0  0  0  0  0
    7.8932  -15.2590   23.1998 C   0  0  0  0  0  0  0  0  0  0  0  0
    7.1352  -14.8750   24.3990 C   0  0  0  0  0  0  0  0  0  0  0  0
    6.4350  -15.7333   25.2311 C   0  0  0  0  0  0  0  0  0  0  0  0
    5.8447  -15.0227   26.1935 N   0  0  0  0  0  0  0  0  0  0  0  0
    6.1507  -13.7299   25.9978 C   0  0  0  0  0  0  0  0  0  0  0  0
    5.7996  -12.6190   26.7061 C   0  0  0  0  0  0  0  0  0  0  0  0
    6.2490  -11.3827   26.3108 C   0  0  0  0  0  0  0  0  0  0  0  0
    7.0552  -11.2521   25.2005 C   0  0  0  0  0  0  0  0  0  0  0  0
    7.4196  -12.3559   24.4743 C   0  0  0  0  0  0  0  0  0  0  0  0
    6.9636  -13.5974   24.8759 C   0  0  0  0  0  0  0  0  0  0  0  0
    9.9479  -15.6700   24.4018 C   0  0  0  0  0  0  0  0  0  0  0  0
   10.6088  -14.6663   23.9623 O   0  0  0  0  0  0  0  0  0  0  0  0
   10.2508  -16.0879   25.7189 N   0  0  0  0  0  0  0  0  0  0  0  0
   11.3011  -15.4401   26.5064 C   0  0  1  0  0  0  0  0  0  0  0  0
   10.6180  -14.6885   27.6316 C   0  0  0  0  0  0  0  0  0  0  0  0
   10.0568  -15.7601   28.9403 S   0  0  0  0  0  0  0  0  0  0  0  0
   12.3097  -16.4075   26.9483 C   0  0  0  0  0  0  0  0  0  0  0  0
   13.2143  -15.9979   27.7563 O   0  0  0  0  0  0  0  0  0  0  0  0
   12.3944  -17.7578   26.5779 N   0  0  0  0  0  0  0  0  0  0  0  0
   13.4209  -18.6630   27.0640 C   0  0  0  0  0  0  0  0  0  0  0  0
   14.5900  -18.6659   26.1235 C   0  0  0  0  0  0  0  0  0  0  0  0
   15.6714  -19.4967   26.3765 O   0  0  0  0  0  0  0  0  0  0  0  0
   14.5442  -17.9017   25.1238 O   0  0  0  0  0  0  0  0  0  0  0  0
  2  1  1  1
  2 13  1  0
  3  2  1  0
  4  3  1  0
  5  4  2  0
  6  7  1  0
  6  5  1  0
  7 12  2  0
  8  9  2  0
  8  7  1  0
  9 10  1  0
 10 11  2  0
 12  4  1  0
 12 11  1  0
 13 14  2  0
 15 16  1  0
 15 13  1  0
 16 17  1  1
 17 18  1  0
 19 16  1  0
 19 20  2  0
 21 19  1  0
 22 21  1  0
 23 22  1  0
 24 23  1  0
 25 23  2  0
M  END
$$$$
