WCG.pdb
     RDKit          3D

 25 26  0  0  1  0  0  0  0  0999 V2000
    6.4656  -18.1351   24.5974 N   0  0  0  0  0  0  0  0  0  0  0  0
    7.0234  -16.8940   24.1767 C   0  0  1  0  0  0  0  0  0  0  0  0
    7.8178  -16.1780   25.2478 C   0  0  0  0  0  0  0  0  0  0  0  0
    7.0102  -15.1412   25.9059 C   0  0  0  0  0  0  0  0  0  0  0  0
    5.7279  -15.3006   26.4055 C   0  0  0  0  0  0  0  0  0  0  0  0
    5.3036  -14.1354   26.8976 N   0  0  0  0  0  0  0  0  0  0  0  0
    6.2841  -13.2340   26.7256 C   0  0  0  0  0  0  0  0  0  0  0  0
    6.3431  -11.9139   27.0617 C   0  0  0  0  0  0  0  0  0  0  0  0
    7.4753  -11.1860   26.7873 C   0  0  0  0  0  0  0  0  0  0  0  0
    8.5576  -11.7784   26.1730 C   0  0  0  0  0  0  0  0  0  0  0  0
    8.5187  -13.1038   25.8265 C   0  0  0  0  0  0  0  0  0  0  0  0
    7.3766  -13.8314   26.1040 C   0  0  0  0  0  0  0  0  0  0  0  0
    7.9147  -17.0330   22.9906 C   0  0  0  0  0  0  0  0  0  0  0  0
    8.5639  -18.1228   22.8224 O   0  0  0  0  0  0  0  0  0  0  0  0
    8.1078  -16.0338   22.0079 N   0  0  0  0  0  0  0  0  0  0  0  0
    8.9288  -16.2752   20.8202 C   0  0  1  0  0  0  0  0  0  0  0  0
    8.6507  -15.1470   19.8468 C   0  0  0  0  0  0  0  0  0  0  0  0
    6.9184  -14.9696   19.4679 S   0  0  0  0  0  0  0  0  0  0  0  0
   10.3423  -16.4370   21.1729 C   0  0  0  0  0  0  0  0  0  0  0  0
   10.8935  -15.5112   21.8642 O   0  0  0  0  0  0  0  0  0  0  0  0
   11.1730  -17.5146   20.8315 N   0  0  0  0  0  0  0  0  0  0  0  0
   12.5522  -17.6379   21.2694 C   0  0  0  0  0  0  0  0  0  0  0  0
   13.4521  -16.8567   20.3576 C   0  0  0  0  0  0  0  0  0  0  0  0
   14.8051  -16.7608   20.6469 O   0  0  0  0  0  0  0  0  0  0  0  0
   12.9364  -16.3091   19.3478 O   0  0  0  0  0  0  0  0  0  0  0  0
  2  1  1  1
  2 13  1  0
  3  2  1  0
  4  3  1  0
  5  4  2  0
  6  7  1  0
  6  5  1  0
  7 12  2  0
  8  9  2  0
  8  7  1  0
  9 10  1  0
 10 11  2  0
 12  4  1  0
 12 11  1  0
 13 14  2  0
 15 16  1  0
 15 13  1  0
 16 17  1  6
 17 18  1  0
 19 16  1  0
 19 20  2  0
 21 19  1  0
 22 21  1  0
 23 22  1  0
 24 23  1  0
 25 23  2  0
M  END
$$$$
