WCG.pdb
     RDKit          3D

 25 26  0  0  1  0  0  0  0  0999 V2000
    7.0598  -18.5371   24.8536 N   0  0  0  0  0  0  0  0  0  0  0  0
    7.3110  -17.1851   24.4828 C   0  0  1  0  0  0  0  0  0  0  0  0
    8.0142  -16.3719   25.5482 C   0  0  0  0  0  0  0  0  0  0  0  0
    7.1434  -15.3076   26.0669 C   0  0  0  0  0  0  0  0  0  0  0  0
    5.8240  -15.4537   26.4633 C   0  0  0  0  0  0  0  0  0  0  0  0
    5.3482  -14.2663   26.8419 N   0  0  0  0  0  0  0  0  0  0  0  0
    6.3318  -13.3634   26.6979 C   0  0  0  0  0  0  0  0  0  0  0  0
    6.3497  -12.0241   26.9531 C   0  0  0  0  0  0  0  0  0  0  0  0
    7.4948  -11.2987   26.7315 C   0  0  0  0  0  0  0  0  0  0  0  0
    8.6317  -11.9127   26.2516 C   0  0  0  0  0  0  0  0  0  0  0  0
    8.6349  -13.2577   25.9883 C   0  0  0  0  0  0  0  0  0  0  0  0
    7.4795  -13.9828   26.2120 C   0  0  0  0  0  0  0  0  0  0  0  0
    8.1209  -17.0679   23.2375 C   0  0  0  0  0  0  0  0  0  0  0  0
    8.7506  -18.0940   22.8040 O   0  0  0  0  0  0  0  0  0  0  0  0
    8.2548  -15.8849   22.4733 N   0  0  0  0  0  0  0  0  0  0  0  0
    8.9950  -15.8677   21.2104 C   0  0  1  0  0  0  0  0  0  0  0  0
    8.3702  -14.7957   20.3398 C   0  0  0  0  0  0  0  0  0  0  0  0
    6.6017  -14.9626   20.1966 S   0  0  0  0  0  0  0  0  0  0  0  0
   10.4335  -15.7019   21.4377 C   0  0  0  0  0  0  0  0  0  0  0  0
   11.1882  -15.5764   20.4113 O   0  0  0  0  0  0  0  0  0  0  0  0
   11.0868  -15.6635   22.6785 N   0  0  0  0  0  0  0  0  0  0  0  0
   12.5045  -15.3895   22.8336 C   0  0  0  0  0  0  0  0  0  0  0  0
   13.2848  -16.6695   22.7688 C   0  0  0  0  0  0  0  0  0  0  0  0
   14.6455  -16.6573   23.0374 O   0  0  0  0  0  0  0  0  0  0  0  0
   12.6646  -17.7234   22.4685 O   0  0  0  0  0  0  0  0  0  0  0  0
  2  1  1  1
  2 13  1  0
  3  2  1  0
  4  3  1  0
  5  4  2  0
  6  7  1  0
  6  5  1  0
  7 12  2  0
  8  9  2  0
  8  7  1  0
  9 10  1  0
 10 11  2  0
 12  4  1  0
 12 11  1  0
 13 14  2  0
 15 16  1  0
 15 13  1  0
 16 17  1  6
 17 18  1  0
 19 16  1  0
 19 20  2  0
 21 19  1  0
 22 21  1  0
 23 22  1  0
 24 23  1  0
 25 23  2  0
M  END
$$$$
