WCG.pdb
     RDKit          3D

 25 26  0  0  1  0  0  0  0  0999 V2000
    6.3861  -18.1482   24.1233 N   0  0  0  0  0  0  0  0  0  0  0  0
    6.6844  -16.7731   23.9027 C   0  0  1  0  0  0  0  0  0  0  0  0
    7.5674  -16.1535   24.9645 C   0  0  0  0  0  0  0  0  0  0  0  0
    6.8650  -15.0793   25.6806 C   0  0  0  0  0  0  0  0  0  0  0  0
    5.5682  -15.1338   26.1648 C   0  0  0  0  0  0  0  0  0  0  0  0
    5.2619  -13.9622   26.7245 N   0  0  0  0  0  0  0  0  0  0  0  0
    6.3320  -13.1589   26.6106 C   0  0  0  0  0  0  0  0  0  0  0  0
    6.5241  -11.8744   27.0257 C   0  0  0  0  0  0  0  0  0  0  0  0
    7.7282  -11.2532   26.7998 C   0  0  0  0  0  0  0  0  0  0  0  0
    8.7495  -11.9173   26.1550 C   0  0  0  0  0  0  0  0  0  0  0  0
    8.5771  -13.2086   25.7295 C   0  0  0  0  0  0  0  0  0  0  0  0
    7.3630  -13.8287   25.9584 C   0  0  0  0  0  0  0  0  0  0  0  0
    7.3428  -16.5278   22.5886 C   0  0  0  0  0  0  0  0  0  0  0  0
    8.1809  -17.3850   22.1412 O   0  0  0  0  0  0  0  0  0  0  0  0
    7.1119  -15.3960   21.7719 N   0  0  0  0  0  0  0  0  0  0  0  0
    7.8230  -15.2057   20.5065 C   0  0  1  0  0  0  0  0  0  0  0  0
    7.4074  -13.8552   19.9580 C   0  0  0  0  0  0  0  0  0  0  0  0
    8.2930  -13.4057   18.4783 S   0  0  0  0  0  0  0  0  0  0  0  0
    9.2693  -15.3715   20.6776 C   0  0  0  0  0  0  0  0  0  0  0  0
    9.8260  -14.7682   21.6599 O   0  0  0  0  0  0  0  0  0  0  0  0
   10.1267  -16.1332   19.8698 N   0  0  0  0  0  0  0  0  0  0  0  0
   11.5704  -16.1563   20.0261 C   0  0  0  0  0  0  0  0  0  0  0  0
   12.1974  -16.9127   18.8921 C   0  0  0  0  0  0  0  0  0  0  0  0
   12.6749  -16.2220   17.7882 O   0  0  0  0  0  0  0  0  0  0  0  0
   12.2679  -18.1663   18.9873 O   0  0  0  0  0  0  0  0  0  0  0  0
  2  1  1  1
  2 13  1  0
  3  2  1  0
  4  3  1  0
  5  4  2  0
  6  7  1  0
  6  5  1  0
  7 12  2  0
  8  9  2  0
  8  7  1  0
  9 10  1  0
 10 11  2  0
 12  4  1  0
 12 11  1  0
 13 14  2  0
 15 16  1  0
 15 13  1  0
 16 17  1  1
 17 18  1  0
 19 16  1  0
 19 20  2  0
 21 19  1  0
 22 21  1  0
 23 22  1  0
 24 23  1  0
 25 23  2  0
M  END
$$$$
