WCG.pdb
     RDKit          3D

 25 26  0  0  1  0  0  0  0  0999 V2000
    6.7711  -17.6113   25.5812 N   0  0  0  0  0  0  0  0  0  0  0  0
    7.3048  -16.4600   24.9346 C   0  0  1  0  0  0  0  0  0  0  0  0
    8.5640  -15.9180   25.5763 C   0  0  0  0  0  0  0  0  0  0  0  0
    8.2472  -14.9524   26.6380 C   0  0  0  0  0  0  0  0  0  0  0  0
    8.5540  -15.0880   27.9822 C   0  0  0  0  0  0  0  0  0  0  0  0
    8.0794  -14.0329   28.6465 N   0  0  0  0  0  0  0  0  0  0  0  0
    7.4766  -13.2246   27.7595 C   0  0  0  0  0  0  0  0  0  0  0  0
    6.8465  -12.0284   27.9361 C   0  0  0  0  0  0  0  0  0  0  0  0
    6.3045  -11.3727   26.8576 C   0  0  0  0  0  0  0  0  0  0  0  0
    6.3911  -11.9132   25.5927 C   0  0  0  0  0  0  0  0  0  0  0  0
    7.0199  -13.1145   25.3935 C   0  0  0  0  0  0  0  0  0  0  0  0
    7.5626  -13.7708   26.4823 C   0  0  0  0  0  0  0  0  0  0  0  0
    7.6137  -16.6957   23.4960 C   0  0  0  0  0  0  0  0  0  0  0  0
    7.6730  -17.8970   23.0595 O   0  0  0  0  0  0  0  0  0  0  0  0
    7.8525  -15.6745   22.5466 N   0  0  0  0  0  0  0  0  0  0  0  0
    8.0698  -15.9790   21.1313 C   0  0  1  0  0  0  0  0  0  0  0  0
    7.3485  -14.9148   20.3285 C   0  0  0  0  0  0  0  0  0  0  0  0
    5.5783  -14.9795   20.5243 S   0  0  0  0  0  0  0  0  0  0  0  0
    9.4979  -16.1048   20.8261 C   0  0  0  0  0  0  0  0  0  0  0  0
    9.8388  -16.1888   19.5950 O   0  0  0  0  0  0  0  0  0  0  0  0
   10.5521  -16.1427   21.7508 N   0  0  0  0  0  0  0  0  0  0  0  0
   11.9462  -16.3021   21.3760 C   0  0  0  0  0  0  0  0  0  0  0  0
   12.8092  -16.3168   22.6033 C   0  0  0  0  0  0  0  0  0  0  0  0
   14.1893  -16.2738   22.4716 O   0  0  0  0  0  0  0  0  0  0  0  0
   12.2386  -16.3682   23.7246 O   0  0  0  0  0  0  0  0  0  0  0  0
  2  1  1  1
  2 13  1  0
  3  2  1  0
  4  3  1  0
  5  4  2  0
  6  7  1  0
  6  5  1  0
  7 12  2  0
  8  9  2  0
  8  7  1  0
  9 10  1  0
 10 11  2  0
 12  4  1  0
 12 11  1  0
 13 14  2  0
 15 16  1  0
 15 13  1  0
 16 17  1  6
 17 18  1  0
 19 16  1  0
 19 20  2  0
 21 19  1  0
 22 21  1  0
 23 22  1  0
 24 23  1  0
 25 23  2  0
M  END
$$$$
