WCG.pdb
     RDKit          3D

 25 26  0  0  1  0  0  0  0  0999 V2000
    8.8879  -16.6565   24.9547 N   0  0  0  0  0  0  0  0  0  0  0  0
    8.7011  -16.4066   23.5651 C   0  0  1  0  0  0  0  0  0  0  0  0
    7.7919  -15.2345   23.2641 C   0  0  0  0  0  0  0  0  0  0  0  0
    7.0611  -14.8055   24.4649 C   0  0  0  0  0  0  0  0  0  0  0  0
    6.2065  -15.5891   25.2232 C   0  0  0  0  0  0  0  0  0  0  0  0
    5.7005  -14.8510   26.2126 N   0  0  0  0  0  0  0  0  0  0  0  0
    6.2115  -13.6136   26.1063 C   0  0  0  0  0  0  0  0  0  0  0  0
    6.0132  -12.5040   26.8735 C   0  0  0  0  0  0  0  0  0  0  0  0
    6.6639  -11.3335   26.5681 C   0  0  0  0  0  0  0  0  0  0  0  0
    7.5194  -11.2679   25.4895 C   0  0  0  0  0  0  0  0  0  0  0  0
    7.7325  -12.3715   24.7053 C   0  0  0  0  0  0  0  0  0  0  0  0
    7.0743  -13.5466   25.0163 C   0  0  0  0  0  0  0  0  0  0  0  0
    9.9822  -16.1627   22.8440 C   0  0  0  0  0  0  0  0  0  0  0  0
   10.2955  -14.9662   22.5161 O   0  0  0  0  0  0  0  0  0  0  0  0
   10.9064  -17.1709   22.4825 N   0  0  0  0  0  0  0  0  0  0  0  0
   12.1823  -16.8473   21.8418 C   0  0  1  0  0  0  0  0  0  0  0  0
   12.9565  -15.9687   22.8042 C   0  0  0  0  0  0  0  0  0  0  0  0
   13.1552  -16.7098   24.4127 S   0  0  0  0  0  0  0  0  0  0  0  0
   12.8916  -18.0599   21.4236 C   0  0  0  0  0  0  0  0  0  0  0  0
   12.8059  -19.0904   22.1783 O   0  0  0  0  0  0  0  0  0  0  0  0
   13.6673  -18.2196   20.2657 N   0  0  0  0  0  0  0  0  0  0  0  0
   14.3406  -19.4569   19.9122 C   0  0  0  0  0  0  0  0  0  0  0  0
   15.7903  -19.3788   20.2911 C   0  0  0  0  0  0  0  0  0  0  0  0
   16.7628  -19.6626   19.3438 O   0  0  0  0  0  0  0  0  0  0  0  0
   16.0737  -19.0530   21.4740 O   0  0  0  0  0  0  0  0  0  0  0  0
  2  1  1  1
  2 13  1  0
  3  2  1  0
  4  3  1  0
  5  4  2  0
  6  7  1  0
  6  5  1  0
  7 12  2  0
  8  9  2  0
  8  7  1  0
  9 10  1  0
 10 11  2  0
 12  4  1  0
 12 11  1  0
 13 14  2  0
 15 16  1  0
 15 13  1  0
 16 17  1  1
 17 18  1  0
 19 16  1  0
 19 20  2  0
 21 19  1  0
 22 21  1  0
 23 22  1  0
 24 23  1  0
 25 23  2  0
M  END
$$$$
