WCG.pdb
     RDKit          3D

 25 26  0  0  1  0  0  0  0  0999 V2000
    8.8948  -17.6946   22.4368 N   0  0  0  0  0  0  0  0  0  0  0  0
    9.3300  -16.5087   23.0945 C   0  0  1  0  0  0  0  0  0  0  0  0
    8.2099  -15.5613   23.4670 C   0  0  0  0  0  0  0  0  0  0  0  0
    7.4049  -15.2004   22.2915 C   0  0  0  0  0  0  0  0  0  0  0  0
    6.1564  -15.7082   21.9706 C   0  0  0  0  0  0  0  0  0  0  0  0
    5.7524  -15.1754   20.8162 N   0  0  0  0  0  0  0  0  0  0  0  0
    6.7122  -14.3380   20.3906 C   0  0  0  0  0  0  0  0  0  0  0  0
    6.7746  -13.5545   19.2765 C   0  0  0  0  0  0  0  0  0  0  0  0
    7.8747  -12.7621   19.0557 C   0  0  0  0  0  0  0  0  0  0  0  0
    8.9213  -12.7502   19.9525 C   0  0  0  0  0  0  0  0  0  0  0  0
    8.8787  -13.5304   21.0784 C   0  0  0  0  0  0  0  0  0  0  0  0
    7.7699  -14.3267   21.2952 C   0  0  0  0  0  0  0  0  0  0  0  0
   10.0995  -16.7873   24.3399 C   0  0  0  0  0  0  0  0  0  0  0  0
   10.5262  -15.8064   25.0420 O   0  0  0  0  0  0  0  0  0  0  0  0
   10.4051  -18.0808   24.8243 N   0  0  0  0  0  0  0  0  0  0  0  0
   11.3756  -18.2868   25.9008 C   0  0  1  0  0  0  0  0  0  0  0  0
   10.5948  -18.6857   27.1372 C   0  0  0  0  0  0  0  0  0  0  0  0
   11.3937  -18.1904   28.6513 S   0  0  0  0  0  0  0  0  0  0  0  0
   12.4151  -19.2417   25.5060 C   0  0  0  0  0  0  0  0  0  0  0  0
   12.1396  -20.4893   25.5863 O   0  0  0  0  0  0  0  0  0  0  0  0
   13.7021  -18.9342   25.0401 N   0  0  0  0  0  0  0  0  0  0  0  0
   14.8899  -18.9679   25.8751 C   0  0  0  0  0  0  0  0  0  0  0  0
   15.2011  -20.3821   26.2681 C   0  0  0  0  0  0  0  0  0  0  0  0
   15.0006  -21.4073   25.3556 O   0  0  0  0  0  0  0  0  0  0  0  0
   15.6399  -20.5880   27.4302 O   0  0  0  0  0  0  0  0  0  0  0  0
  2  1  1  1
  2 13  1  0
  3  2  1  0
  4  3  1  0
  5  4  2  0
  6  7  1  0
  6  5  1  0
  7 12  2  0
  8  9  2  0
  8  7  1  0
  9 10  1  0
 10 11  2  0
 12  4  1  0
 12 11  1  0
 13 14  2  0
 15 16  1  0
 15 13  1  0
 16 17  1  1
 17 18  1  0
 19 16  1  0
 19 20  2  0
 21 19  1  0
 22 21  1  0
 23 22  1  0
 24 23  1  0
 25 23  2  0
M  END
$$$$
