WCG.pdb
     RDKit          3D

 25 26  0  0  1  0  0  0  0  0999 V2000
    6.6938  -18.5728   25.1888 N   0  0  0  0  0  0  0  0  0  0  0  0
    6.9714  -17.2041   24.9095 C   0  0  1  0  0  0  0  0  0  0  0  0
    7.5982  -16.4519   26.0639 C   0  0  0  0  0  0  0  0  0  0  0  0
    6.8881  -15.1922   26.3266 C   0  0  0  0  0  0  0  0  0  0  0  0
    5.5207  -15.0462   26.4947 C   0  0  0  0  0  0  0  0  0  0  0  0
    5.2393  -13.7553   26.6792 N   0  0  0  0  0  0  0  0  0  0  0  0
    6.3941  -13.0713   26.6339 C   0  0  0  0  0  0  0  0  0  0  0  0
    6.6399  -11.7372   26.7717 C   0  0  0  0  0  0  0  0  0  0  0  0
    7.9276  -11.2652   26.6942 C   0  0  0  0  0  0  0  0  0  0  0  0
    8.9791  -12.1296   26.4776 C   0  0  0  0  0  0  0  0  0  0  0  0
    8.7538  -13.4741   26.3361 C   0  0  0  0  0  0  0  0  0  0  0  0
    7.4560  -13.9436   26.4139 C   0  0  0  0  0  0  0  0  0  0  0  0
    7.8674  -17.0242   23.7325 C   0  0  0  0  0  0  0  0  0  0  0  0
    8.8454  -17.8318   23.5638 O   0  0  0  0  0  0  0  0  0  0  0  0
    7.7225  -16.0079   22.7590 N   0  0  0  0  0  0  0  0  0  0  0  0
    8.6718  -15.8640   21.6539 C   0  0  1  0  0  0  0  0  0  0  0  0
    8.0445  -14.9231   20.6446 C   0  0  0  0  0  0  0  0  0  0  0  0
    6.6085  -15.6170   19.8492 S   0  0  0  0  0  0  0  0  0  0  0  0
    9.9910  -15.4444   22.1355 C   0  0  0  0  0  0  0  0  0  0  0  0
   10.0335  -14.5972   23.0943 O   0  0  0  0  0  0  0  0  0  0  0  0
   11.2354  -15.8774   21.6540 N   0  0  0  0  0  0  0  0  0  0  0  0
   12.5071  -15.3729   22.1415 C   0  0  0  0  0  0  0  0  0  0  0  0
   13.6376  -16.0823   21.4559 C   0  0  0  0  0  0  0  0  0  0  0  0
   14.9448  -15.6949   21.7100 O   0  0  0  0  0  0  0  0  0  0  0  0
   13.3520  -17.0181   20.6631 O   0  0  0  0  0  0  0  0  0  0  0  0
  2  1  1  1
  2 13  1  0
  3  2  1  0
  4  3  1  0
  5  4  2  0
  6  7  1  0
  6  5  1  0
  7 12  2  0
  8  9  2  0
  8  7  1  0
  9 10  1  0
 10 11  2  0
 12  4  1  0
 12 11  1  0
 13 14  2  0
 15 16  1  0
 15 13  1  0
 16 17  1  6
 17 18  1  0
 19 16  1  0
 19 20  2  0
 21 19  1  0
 22 21  1  0
 23 22  1  0
 24 23  1  0
 25 23  2  0
M  END
$$$$
