WCG.pdb
     RDKit          3D

 25 26  0  0  1  0  0  0  0  0999 V2000
    6.8559  -16.8773   23.1183 N   0  0  0  0  0  0  0  0  0  0  0  0
    8.0769  -16.1441   23.1211 C   0  0  1  0  0  0  0  0  0  0  0  0
    8.5564  -15.7461   24.5005 C   0  0  0  0  0  0  0  0  0  0  0  0
    7.4871  -15.0914   25.2674 C   0  0  0  0  0  0  0  0  0  0  0  0
    6.3856  -15.7167   25.8288 C   0  0  0  0  0  0  0  0  0  0  0  0
    5.6157  -14.7993   26.4164 N   0  0  0  0  0  0  0  0  0  0  0  0
    6.1983  -13.6015   26.2452 C   0  0  0  0  0  0  0  0  0  0  0  0
    5.8125  -12.3610   26.6593 C   0  0  0  0  0  0  0  0  0  0  0  0
    6.5902  -11.2673   26.3664 C   0  0  0  0  0  0  0  0  0  0  0  0
    7.7620  -11.4106   25.6551 C   0  0  0  0  0  0  0  0  0  0  0  0
    8.1678  -12.6485   25.2292 C   0  0  0  0  0  0  0  0  0  0  0  0
    7.3809  -13.7456   25.5257 C   0  0  0  0  0  0  0  0  0  0  0  0
    9.1946  -16.8797   22.4650 C   0  0  0  0  0  0  0  0  0  0  0  0
    8.9411  -17.6366   21.4650 O   0  0  0  0  0  0  0  0  0  0  0  0
   10.5494  -16.8085   22.8659 N   0  0  0  0  0  0  0  0  0  0  0  0
   11.6198  -16.5349   21.9055 C   0  0  1  0  0  0  0  0  0  0  0  0
   11.2475  -15.2625   21.1706 C   0  0  0  0  0  0  0  0  0  0  0  0
   11.9845  -15.1563   19.5515 S   0  0  0  0  0  0  0  0  0  0  0  0
   12.9289  -16.4941   22.5634 C   0  0  0  0  0  0  0  0  0  0  0  0
   13.1992  -15.4749   23.2895 O   0  0  0  0  0  0  0  0  0  0  0  0
   13.9367  -17.4667   22.4850 N   0  0  0  0  0  0  0  0  0  0  0  0
   15.0211  -17.5814   23.4443 C   0  0  0  0  0  0  0  0  0  0  0  0
   16.1828  -16.7373   23.0093 C   0  0  0  0  0  0  0  0  0  0  0  0
   17.2999  -16.6357   23.8250 O   0  0  0  0  0  0  0  0  0  0  0  0
   16.0982  -16.1438   21.9020 O   0  0  0  0  0  0  0  0  0  0  0  0
  2  1  1  1
  2 13  1  0
  3  2  1  0
  4  3  1  0
  5  4  2  0
  6  7  1  0
  6  5  1  0
  7 12  2  0
  8  9  2  0
  8  7  1  0
  9 10  1  0
 10 11  2  0
 12  4  1  0
 12 11  1  0
 13 14  2  0
 15 16  1  0
 15 13  1  0
 16 17  1  1
 17 18  1  0
 19 16  1  0
 19 20  2  0
 21 19  1  0
 22 21  1  0
 23 22  1  0
 24 23  1  0
 25 23  2  0
M  END
$$$$
