WCG.pdb
     RDKit          3D

 25 26  0  0  1  0  0  0  0  0999 V2000
    7.5866  -18.1468   25.0924 N   0  0  0  0  0  0  0  0  0  0  0  0
    7.1713  -17.2315   24.0834 C   0  0  1  0  0  0  0  0  0  0  0  0
    6.3452  -16.0734   24.6007 C   0  0  0  0  0  0  0  0  0  0  0  0
    7.0220  -15.3918   25.7131 C   0  0  0  0  0  0  0  0  0  0  0  0
    7.8932  -15.9754   26.6186 C   0  0  0  0  0  0  0  0  0  0  0  0
    8.2802  -15.0571   27.5055 N   0  0  0  0  0  0  0  0  0  0  0  0
    7.6780  -13.8992   27.1891 C   0  0  0  0  0  0  0  0  0  0  0  0
    7.7508  -12.6723   27.7794 C   0  0  0  0  0  0  0  0  0  0  0  0
    7.0378  -11.6185   27.2617 C   0  0  0  0  0  0  0  0  0  0  0  0
    6.2458  -11.7885   26.1466 C   0  0  0  0  0  0  0  0  0  0  0  0
    6.1584  -13.0135   25.5383 C   0  0  0  0  0  0  0  0  0  0  0  0
    6.8771  -14.0708   26.0639 C   0  0  0  0  0  0  0  0  0  0  0  0
    8.3141  -16.6490   23.3250 C   0  0  0  0  0  0  0  0  0  0  0  0
    8.1308  -15.5826   22.6421 O   0  0  0  0  0  0  0  0  0  0  0  0
    9.6206  -17.1910   23.2968 N   0  0  0  0  0  0  0  0  0  0  0  0
   10.6578  -16.6461   22.4191 C   0  0  1  0  0  0  0  0  0  0  0  0
   11.6055  -15.8451   23.2896 C   0  0  0  0  0  0  0  0  0  0  0  0
   11.1515  -15.8688   25.0127 S   0  0  0  0  0  0  0  0  0  0  0  0
   11.3023  -17.7036   21.6349 C   0  0  0  0  0  0  0  0  0  0  0  0
   11.4319  -18.8546   22.1801 O   0  0  0  0  0  0  0  0  0  0  0  0
   11.8010  -17.5923   20.3285 N   0  0  0  0  0  0  0  0  0  0  0  0
   12.2889  -18.7200   19.5544 C   0  0  0  0  0  0  0  0  0  0  0  0
   13.7888  -18.7081   19.5193 C   0  0  0  0  0  0  0  0  0  0  0  0
   14.4896  -19.8811   19.7577 O   0  0  0  0  0  0  0  0  0  0  0  0
   14.3640  -17.6159   19.2705 O   0  0  0  0  0  0  0  0  0  0  0  0
  2  1  1  1
  2 13  1  0
  3  2  1  0
  4  3  1  0
  5  4  2  0
  6  7  1  0
  6  5  1  0
  7 12  2  0
  8  9  2  0
  8  7  1  0
  9 10  1  0
 10 11  2  0
 12  4  1  0
 12 11  1  0
 13 14  2  0
 15 16  1  0
 15 13  1  0
 16 17  1  1
 17 18  1  0
 19 16  1  0
 19 20  2  0
 21 19  1  0
 22 21  1  0
 23 22  1  0
 24 23  1  0
 25 23  2  0
M  END
$$$$
