CYQ.pdb
     RDKit          3D

 28 28  0  0  1  0  0  0  0  0999 V2000
   28.9334  -36.4202   -6.7257 N   0  0  0  0  0  0  0  0  0  0  0  0
   29.0567  -35.1853   -5.9866 C   0  0  1  0  0  0  0  0  0  0  0  0
   27.7618  -34.7931   -5.3309 C   0  0  0  0  0  0  0  0  0  0  0  0
   26.6770  -34.0557   -6.5757 S   0  0  0  0  0  0  0  0  0  0  0  0
   30.1133  -35.3342   -4.9507 C   0  0  0  0  0  0  0  0  0  0  0  0
   30.2718  -36.4327   -4.3569 O   0  0  0  0  0  0  0  0  0  0  0  0
   37.1774  -33.0741    0.0726 O   0  0  0  0  0  0  0  0  0  0  0  0
   36.0908  -33.0648   -0.7920 C   0  0  0  0  0  0  0  0  0  0  0  0
   34.9469  -32.3474   -0.5394 C   0  0  0  0  0  0  0  0  0  0  0  0
   33.8797  -32.3621   -1.4277 C   0  0  0  0  0  0  0  0  0  0  0  0
   33.9238  -33.0950   -2.5957 C   0  0  0  0  0  0  0  0  0  0  0  0
   32.8154  -33.1326   -3.5428 C   0  0  0  0  0  0  0  0  0  0  0  0
   32.0142  -34.3948   -3.5689 C   0  0  2  0  0  0  0  0  0  0  0  0
   30.9721  -34.2575   -4.5965 N   0  0  0  0  0  0  0  0  0  0  0  0
   31.4131  -34.6218   -2.2381 C   0  0  0  0  0  0  0  0  0  0  0  0
   30.3265  -34.0687   -1.9017 O   0  0  0  0  0  0  0  0  0  0  0  0
   35.0832  -33.8119   -2.8349 C   0  0  0  0  0  0  0  0  0  0  0  0
   36.1406  -33.8014   -1.9618 C   0  0  0  0  0  0  0  0  0  0  0  0
   30.6505  -38.8859    3.7292 N   0  0  0  0  0  0  0  0  0  0  0  0
   31.2379  -38.5440    2.5038 C   0  0  0  0  0  0  0  0  0  0  0  0
   31.9842  -39.3316    1.9099 O   0  0  0  0  0  0  0  0  0  0  0  0
   30.9575  -37.2119    1.9106 C   0  0  0  0  0  0  0  0  0  0  0  0
   31.6208  -37.0396    0.5727 C   0  0  0  0  0  0  0  0  0  0  0  0
   31.3303  -35.6817    0.0458 C   0  0  2  0  0  0  0  0  0  0  0  0
   31.9829  -35.4562   -1.2447 N   0  0  0  0  0  0  0  0  0  0  0  0
   31.8263  -34.6439    0.9625 C   0  0  0  0  0  0  0  0  0  0  0  0
   33.0213  -34.2091    0.7670 O   0  0  0  0  0  0  0  0  0  0  0  0
   31.1187  -34.0859    2.0208 O   0  0  0  0  0  0  0  0  0  0  0  0
  2  3  1  0
  2  1  1  1
  4  3  1  0
  5  2  1  0
  6  5  2  0
  8  9  2  0
  8  7  1  0
 10  9  1  0
 11 10  2  0
 13 12  1  1
 12 11  1  0
 13 14  1  0
 14  5  1  0
 15 25  1  0
 15 13  1  0
 16 15  2  0
 17 11  1  0
 17 18  2  0
 18  8  1  0
 20 19  1  0
 21 20  2  0
 22 20  1  0
 24 23  1  1
 23 22  1  0
 24 25  1  0
 26 24  1  0
 26 28  1  0
 27 26  2  0
M  END
$$$$
