CYQ.pdb
     RDKit          3D

 28 28  0  0  1  0  0  0  0  0999 V2000
   20.6972  -28.8813    6.6043 N   0  0  0  0  0  0  0  0  0  0  0  0
   21.9168  -28.8805    7.3784 C   0  0  1  0  0  0  0  0  0  0  0  0
   21.6634  -29.2097    8.8234 C   0  0  0  0  0  0  0  0  0  0  0  0
   21.0898  -27.7183    9.6700 S   0  0  0  0  0  0  0  0  0  0  0  0
   22.8668  -29.8692    6.8025 C   0  0  0  0  0  0  0  0  0  0  0  0
   22.4398  -30.8510    6.1406 O   0  0  0  0  0  0  0  0  0  0  0  0
   27.5872  -33.1024    0.9094 O   0  0  0  0  0  0  0  0  0  0  0  0
   27.2523  -32.3660    2.0381 C   0  0  0  0  0  0  0  0  0  0  0  0
   27.9928  -32.4014    3.1946 C   0  0  0  0  0  0  0  0  0  0  0  0
   27.6270  -31.6509    4.3041 C   0  0  0  0  0  0  0  0  0  0  0  0
   26.5094  -30.8421    4.2910 C   0  0  0  0  0  0  0  0  0  0  0  0
   26.0998  -30.0483    5.4438 C   0  0  0  0  0  0  0  0  0  0  0  0
   25.2164  -30.7350    6.4358 C   0  0  2  0  0  0  0  0  0  0  0  0
   24.2729  -29.7451    6.9749 N   0  0  0  0  0  0  0  0  0  0  0  0
   26.0459  -31.3120    7.5142 C   0  0  0  0  0  0  0  0  0  0  0  0
   26.5083  -30.5938    8.4471 O   0  0  0  0  0  0  0  0  0  0  0  0
   25.7748  -30.8179    3.1185 C   0  0  0  0  0  0  0  0  0  0  0  0
   26.1306  -31.5566    2.0192 C   0  0  0  0  0  0  0  0  0  0  0  0
   25.3448  -36.9144   10.3228 N   0  0  0  0  0  0  0  0  0  0  0  0
   24.7366  -35.7230    9.9056 C   0  0  0  0  0  0  0  0  0  0  0  0
   23.5598  -35.7042    9.5251 O   0  0  0  0  0  0  0  0  0  0  0  0
   25.5214  -34.4625    9.9217 C   0  0  0  0  0  0  0  0  0  0  0  0
   26.7743  -34.5678    9.0977 C   0  0  0  0  0  0  0  0  0  0  0  0
   27.2147  -33.2099    8.6882 C   0  0  2  0  0  0  0  0  0  0  0  0
   26.3897  -32.6839    7.5997 N   0  0  0  0  0  0  0  0  0  0  0  0
   28.6024  -33.2311    8.2007 C   0  0  0  0  0  0  0  0  0  0  0  0
   28.8007  -32.8882    6.9766 O   0  0  0  0  0  0  0  0  0  0  0  0
   29.7219  -33.5846    8.9447 O   0  0  0  0  0  0  0  0  0  0  0  0
  2  3  1  0
  2  1  1  6
  4  3  1  0
  5  2  1  0
  6  5  2  0
  8  9  2  0
  8  7  1  0
 10  9  1  0
 11 10  2  0
 13 12  1  6
 12 11  1  0
 13 14  1  0
 14  5  1  0
 15 25  1  0
 15 13  1  0
 16 15  2  0
 17 11  1  0
 17 18  2  0
 18  8  1  0
 20 19  1  0
 21 20  2  0
 22 20  1  0
 24 23  1  6
 23 22  1  0
 24 25  1  0
 26 24  1  0
 26 28  1  0
 27 26  2  0
M  END
$$$$
