CYQ.pdb
     RDKit          3D

 28 28  0  0  1  0  0  0  0  0999 V2000
   28.1473  -22.2159  -16.3506 N   0  0  0  0  0  0  0  0  0  0  0  0
   27.2784  -21.0801  -16.1470 C   0  0  1  0  0  0  0  0  0  0  0  0
   26.6252  -20.6378  -17.4270 C   0  0  0  0  0  0  0  0  0  0  0  0
   27.8921  -19.9590  -18.5245 S   0  0  0  0  0  0  0  0  0  0  0  0
   26.2318  -21.4324  -15.1509 C   0  0  0  0  0  0  0  0  0  0  0  0
   25.8827  -22.6313  -14.9918 O   0  0  0  0  0  0  0  0  0  0  0  0
   28.9551  -21.0697   -8.5098 O   0  0  0  0  0  0  0  0  0  0  0  0
   27.9154  -20.7660   -9.3786 C   0  0  0  0  0  0  0  0  0  0  0  0
   26.6046  -20.6985   -8.9733 C   0  0  0  0  0  0  0  0  0  0  0  0
   25.5907  -20.3917   -9.8711 C   0  0  0  0  0  0  0  0  0  0  0  0
   25.8567  -20.1432  -11.2018 C   0  0  0  0  0  0  0  0  0  0  0  0
   24.8105  -19.8245  -12.1667 C   0  0  0  0  0  0  0  0  0  0  0  0
   24.6367  -20.7923  -13.2932 C   0  0  2  0  0  0  0  0  0  0  0  0
   25.5948  -20.4433  -14.3519 N   0  0  0  0  0  0  0  0  0  0  0  0
   23.2487  -20.7168  -13.7948 C   0  0  0  0  0  0  0  0  0  0  0  0
   22.8825  -19.8020  -14.5878 O   0  0  0  0  0  0  0  0  0  0  0  0
   27.1821  -20.2152  -11.5936 C   0  0  0  0  0  0  0  0  0  0  0  0
   28.1880  -20.5176  -10.7119 C   0  0  0  0  0  0  0  0  0  0  0  0
   18.9698  -25.2514  -14.6915 N   0  0  0  0  0  0  0  0  0  0  0  0
   18.2515  -24.0817  -14.9732 C   0  0  0  0  0  0  0  0  0  0  0  0
   17.0940  -24.1301  -15.4067 O   0  0  0  0  0  0  0  0  0  0  0  0
   18.8941  -22.7624  -14.7461 C   0  0  0  0  0  0  0  0  0  0  0  0
   20.2832  -22.9003  -14.1884 C   0  0  0  0  0  0  0  0  0  0  0  0
   20.8821  -21.5532  -14.0087 C   0  0  2  0  0  0  0  0  0  0  0  0
   22.2295  -21.6363  -13.4434 N   0  0  0  0  0  0  0  0  0  0  0  0
   20.0796  -20.7395  -13.0826 C   0  0  0  0  0  0  0  0  0  0  0  0
   19.3004  -19.8563  -13.6003 O   0  0  0  0  0  0  0  0  0  0  0  0
   20.0834  -20.8407  -11.6964 O   0  0  0  0  0  0  0  0  0  0  0  0
  2  3  1  0
  2  1  1  6
  4  3  1  0
  5  2  1  0
  6  5  2  0
  8  9  2  0
  8  7  1  0
 10  9  1  0
 11 10  2  0
 13 12  1  1
 12 11  1  0
 13 14  1  0
 14  5  1  0
 15 25  1  0
 15 13  1  0
 16 15  2  0
 17 11  1  0
 17 18  2  0
 18  8  1  0
 20 19  1  0
 21 20  2  0
 22 20  1  0
 24 23  1  1
 23 22  1  0
 24 25  1  0
 26 24  1  0
 26 28  1  0
 27 26  2  0
M  END
$$$$
