CYQ.pdb
     RDKit          3D

 28 28  0  0  1  0  0  0  0  0999 V2000
   22.3080  -16.2852  -18.5799 N   0  0  0  0  0  0  0  0  0  0  0  0
   21.3004  -16.2436  -19.6140 C   0  0  1  0  0  0  0  0  0  0  0  0
   20.8710  -17.6220  -20.0336 C   0  0  0  0  0  0  0  0  0  0  0  0
   22.3423  -18.6499  -20.2544 S   0  0  0  0  0  0  0  0  0  0  0  0
   20.1205  -15.4835  -19.1223 C   0  0  0  0  0  0  0  0  0  0  0  0
   19.1158  -15.3194  -19.8626 O   0  0  0  0  0  0  0  0  0  0  0  0
   15.6968  -19.8223  -16.8093 O   0  0  0  0  0  0  0  0  0  0  0  0
   16.4014  -18.6412  -16.6179 C   0  0  0  0  0  0  0  0  0  0  0  0
   17.7266  -18.6172  -16.2566 C   0  0  0  0  0  0  0  0  0  0  0  0
   18.3989  -17.4160  -16.0740 C   0  0  0  0  0  0  0  0  0  0  0  0
   17.7666  -16.2022  -16.2469 C   0  0  0  0  0  0  0  0  0  0  0  0
   18.4474  -14.9266  -16.0560 C   0  0  0  0  0  0  0  0  0  0  0  0
   18.8951  -14.2267  -17.2992 C   0  0  2  0  0  0  0  0  0  0  0  0
   20.0827  -14.9215  -17.8165 N   0  0  0  0  0  0  0  0  0  0  0  0
   19.2070  -12.8172  -16.9831 C   0  0  0  0  0  0  0  0  0  0  0  0
   20.3637  -12.4645  -16.6122 O   0  0  0  0  0  0  0  0  0  0  0  0
   16.4320  -16.2441  -16.6108 C   0  0  0  0  0  0  0  0  0  0  0  0
   15.7623  -17.4269  -16.7928 C   0  0  0  0  0  0  0  0  0  0  0  0
   18.4410   -7.5889  -19.8749 N   0  0  0  0  0  0  0  0  0  0  0  0
   17.8224   -7.2478  -18.6648 C   0  0  0  0  0  0  0  0  0  0  0  0
   17.2412   -6.1648  -18.5261 O   0  0  0  0  0  0  0  0  0  0  0  0
   17.8674   -8.2055  -17.5309 C   0  0  0  0  0  0  0  0  0  0  0  0
   18.5498   -9.4914  -17.9057 C   0  0  0  0  0  0  0  0  0  0  0  0
   18.6156  -10.3826  -16.7194 C   0  0  2  0  0  0  0  0  0  0  0  0
   18.2656  -11.7613  -17.0642 N   0  0  0  0  0  0  0  0  0  0  0  0
   17.6685   -9.9482  -15.6813 C   0  0  0  0  0  0  0  0  0  0  0  0
   16.5681  -10.6067  -15.5768 O   0  0  0  0  0  0  0  0  0  0  0  0
   17.8560   -8.8914  -14.7981 O   0  0  0  0  0  0  0  0  0  0  0  0
  2  3  1  0
  2  1  1  1
  4  3  1  0
  5  2  1  0
  6  5  2  0
  8  9  2  0
  8  7  1  0
 10  9  1  0
 11 10  2  0
 13 12  1  1
 12 11  1  0
 13 14  1  0
 14  5  1  0
 15 25  1  0
 15 13  1  0
 16 15  2  0
 17 11  1  0
 17 18  2  0
 18  8  1  0
 20 19  1  0
 21 20  2  0
 22 20  1  0
 24 23  1  6
 23 22  1  0
 24 25  1  0
 26 24  1  0
 26 28  1  0
 27 26  2  0
M  END
$$$$
