CYQ.pdb
     RDKit          3D

 28 28  0  0  1  0  0  0  0  0999 V2000
   29.3968  -23.2602  -17.3758 N   0  0  0  0  0  0  0  0  0  0  0  0
   28.7056  -22.0315  -17.0612 C   0  0  1  0  0  0  0  0  0  0  0  0
   27.9405  -21.5010  -18.2419 C   0  0  0  0  0  0  0  0  0  0  0  0
   29.1169  -20.9281  -19.4901 S   0  0  0  0  0  0  0  0  0  0  0  0
   27.7709  -22.2678  -15.9288 C   0  0  0  0  0  0  0  0  0  0  0  0
   27.1901  -23.3775  -15.8041 O   0  0  0  0  0  0  0  0  0  0  0  0
   23.0580  -20.3908   -8.5304 O   0  0  0  0  0  0  0  0  0  0  0  0
   23.9797  -20.4167   -9.5687 C   0  0  0  0  0  0  0  0  0  0  0  0
   25.2027  -21.0327   -9.4610 C   0  0  0  0  0  0  0  0  0  0  0  0
   26.0994  -21.0383  -10.5213 C   0  0  0  0  0  0  0  0  0  0  0  0
   25.8003  -20.4278  -11.7217 C   0  0  0  0  0  0  0  0  0  0  0  0
   26.7257  -20.4139  -12.8488 C   0  0  0  0  0  0  0  0  0  0  0  0
   26.4925  -21.4465  -13.9050 C   0  0  2  0  0  0  0  0  0  0  0  0
   27.5017  -21.2640  -14.9580 N   0  0  0  0  0  0  0  0  0  0  0  0
   25.1285  -21.2895  -14.4515 C   0  0  0  0  0  0  0  0  0  0  0  0
   24.8687  -20.4277  -15.3401 O   0  0  0  0  0  0  0  0  0  0  0  0
   24.5643  -19.8120  -11.8136 C   0  0  0  0  0  0  0  0  0  0  0  0
   23.6743  -19.8030  -10.7703 C   0  0  0  0  0  0  0  0  0  0  0  0
   21.1448  -25.0576  -16.8816 N   0  0  0  0  0  0  0  0  0  0  0  0
   20.3344  -23.9274  -16.7103 C   0  0  0  0  0  0  0  0  0  0  0  0
   19.2150  -23.8575  -17.2318 O   0  0  0  0  0  0  0  0  0  0  0  0
   20.8312  -22.7954  -15.8875 C   0  0  0  0  0  0  0  0  0  0  0  0
   22.2213  -23.0414  -15.3709 C   0  0  0  0  0  0  0  0  0  0  0  0
   22.6790  -21.8602  -14.5955 C   0  0  2  0  0  0  0  0  0  0  0  0
   24.0177  -22.0681  -14.0418 N   0  0  0  0  0  0  0  0  0  0  0  0
   21.7828  -21.5966  -13.4594 C   0  0  0  0  0  0  0  0  0  0  0  0
   20.8703  -20.7048  -13.6251 O   0  0  0  0  0  0  0  0  0  0  0  0
   21.8292  -22.2273  -12.2217 O   0  0  0  0  0  0  0  0  0  0  0  0
  2  3  1  0
  2  1  1  6
  4  3  1  0
  5  2  1  0
  6  5  2  0
  8  9  2  0
  8  7  1  0
 10  9  1  0
 11 10  2  0
 13 12  1  1
 12 11  1  0
 13 14  1  0
 14  5  1  0
 15 25  1  0
 15 13  1  0
 16 15  2  0
 17 11  1  0
 17 18  2  0
 18  8  1  0
 20 19  1  0
 21 20  2  0
 22 20  1  0
 24 23  1  1
 23 22  1  0
 24 25  1  0
 26 24  1  0
 26 28  1  0
 27 26  2  0
M  END
$$$$
