CYQ.pdb
     RDKit          3D

 28 28  0  0  1  0  0  0  0  0999 V2000
   25.9419  -33.8234   -8.3845 N   0  0  0  0  0  0  0  0  0  0  0  0
   26.2569  -33.3449   -7.0585 C   0  0  1  0  0  0  0  0  0  0  0  0
   25.0647  -33.4020   -6.1443 C   0  0  0  0  0  0  0  0  0  0  0  0
   25.5755  -32.8918   -4.4863 S   0  0  0  0  0  0  0  0  0  0  0  0
   27.3601  -34.1633   -6.4884 C   0  0  0  0  0  0  0  0  0  0  0  0
   27.3362  -35.4182   -6.5838 O   0  0  0  0  0  0  0  0  0  0  0  0
   35.2495  -36.3828   -3.0030 O   0  0  0  0  0  0  0  0  0  0  0  0
   34.1645  -35.7511   -3.5965 C   0  0  0  0  0  0  0  0  0  0  0  0
   33.7364  -36.0482   -4.8675 C   0  0  0  0  0  0  0  0  0  0  0  0
   32.6468  -35.3954   -5.4286 C   0  0  0  0  0  0  0  0  0  0  0  0
   31.9522  -34.4254   -4.7358 C   0  0  0  0  0  0  0  0  0  0  0  0
   30.8084  -33.7207   -5.3033 C   0  0  0  0  0  0  0  0  0  0  0  0
   29.4747  -34.3697   -5.1134 C   0  0  2  0  0  0  0  0  0  0  0  0
   28.4676  -33.5684   -5.8236 N   0  0  0  0  0  0  0  0  0  0  0  0
   29.1659  -34.4426   -3.6701 C   0  0  0  0  0  0  0  0  0  0  0  0
   28.7416  -33.4349   -3.0343 O   0  0  0  0  0  0  0  0  0  0  0  0
   32.3964  -34.1383   -3.4569 C   0  0  0  0  0  0  0  0  0  0  0  0
   33.4716  -34.7794   -2.8970 C   0  0  0  0  0  0  0  0  0  0  0  0
   25.3435  -34.7187   -0.3899 N   0  0  0  0  0  0  0  0  0  0  0  0
   26.0794  -35.3702    0.6088 C   0  0  0  0  0  0  0  0  0  0  0  0
   25.7349  -35.3167    1.7956 O   0  0  0  0  0  0  0  0  0  0  0  0
   27.2937  -36.1376    0.2325 C   0  0  0  0  0  0  0  0  0  0  0  0
   27.5714  -36.0655   -1.2431 C   0  0  0  0  0  0  0  0  0  0  0  0
   28.9782  -35.6435   -1.4635 C   0  0  2  0  0  0  0  0  0  0  0  0
   29.3128  -35.6151   -2.8880 N   0  0  0  0  0  0  0  0  0  0  0  0
   29.9152  -36.5792   -0.8231 C   0  0  0  0  0  0  0  0  0  0  0  0
   29.8497  -36.6927    0.4568 O   0  0  0  0  0  0  0  0  0  0  0  0
   30.8642  -37.3567   -1.4764 O   0  0  0  0  0  0  0  0  0  0  0  0
  2  3  1  0
  2  1  1  6
  4  3  1  0
  5  2  1  0
  6  5  2  0
  8  9  2  0
  8  7  1  0
 10  9  1  0
 11 10  2  0
 13 12  1  1
 12 11  1  0
 13 14  1  0
 14  5  1  0
 15 25  1  0
 15 13  1  0
 16 15  2  0
 17 11  1  0
 17 18  2  0
 18  8  1  0
 20 19  1  0
 21 20  2  0
 22 20  1  0
 24 23  1  6
 23 22  1  0
 24 25  1  0
 26 24  1  0
 26 28  1  0
 27 26  2  0
M  END
$$$$
