CYQ.pdb
     RDKit          3D

 28 28  0  0  1  0  0  0  0  0999 V2000
   27.0419  -19.9894  -10.2331 N   0  0  0  0  0  0  0  0  0  0  0  0
   25.8496  -20.7710  -10.4648 C   0  0  1  0  0  0  0  0  0  0  0  0
   24.8177  -20.5497   -9.3939 C   0  0  0  0  0  0  0  0  0  0  0  0
   25.5506  -20.9399   -7.7874 S   0  0  0  0  0  0  0  0  0  0  0  0
   25.2756  -20.4138  -11.7894 C   0  0  0  0  0  0  0  0  0  0  0  0
   24.9940  -19.2170  -12.0589 O   0  0  0  0  0  0  0  0  0  0  0  0
   29.2198  -18.2541  -17.4565 O   0  0  0  0  0  0  0  0  0  0  0  0
   28.2911  -19.1069  -16.8748 C   0  0  0  0  0  0  0  0  0  0  0  0
   28.6489  -20.1306  -16.0315 C   0  0  0  0  0  0  0  0  0  0  0  0
   27.6917  -20.9639  -15.4680 C   0  0  0  0  0  0  0  0  0  0  0  0
   26.3475  -20.7991  -15.7307 C   0  0  0  0  0  0  0  0  0  0  0  0
   25.3224  -21.6633  -15.1569 C   0  0  0  0  0  0  0  0  0  0  0  0
   24.4610  -21.0505  -14.0994 C   0  0  2  0  0  0  0  0  0  0  0  0
   25.0268  -21.3959  -12.7874 N   0  0  0  0  0  0  0  0  0  0  0  0
   23.0825  -21.5670  -14.2296 C   0  0  0  0  0  0  0  0  0  0  0  0
   22.7967  -22.7650  -13.9414 O   0  0  0  0  0  0  0  0  0  0  0  0
   26.0041  -19.7634  -16.5820 C   0  0  0  0  0  0  0  0  0  0  0  0
   26.9444  -18.9369  -17.1417 C   0  0  0  0  0  0  0  0  0  0  0  0
   19.5170  -22.7991  -11.0426 N   0  0  0  0  0  0  0  0  0  0  0  0
   18.4534  -22.5173  -11.9103 C   0  0  0  0  0  0  0  0  0  0  0  0
   17.3217  -22.9720  -11.7043 O   0  0  0  0  0  0  0  0  0  0  0  0
   18.6925  -21.6573  -13.0970 C   0  0  0  0  0  0  0  0  0  0  0  0
   20.1130  -21.1700  -13.1631 C   0  0  0  0  0  0  0  0  0  0  0  0
   20.6042  -21.2600  -14.5618 C   0  0  2  0  0  0  0  0  0  0  0  0
   21.9854  -20.7896  -14.6765 N   0  0  0  0  0  0  0  0  0  0  0  0
   19.7923  -20.4246  -15.4598 C   0  0  0  0  0  0  0  0  0  0  0  0
   18.5483  -20.7295  -15.5815 O   0  0  0  0  0  0  0  0  0  0  0  0
   20.2465  -19.3310  -16.1875 O   0  0  0  0  0  0  0  0  0  0  0  0
  2  3  1  0
  2  1  1  1
  4  3  1  0
  5  2  1  0
  6  5  2  0
  8  9  2  0
  8  7  1  0
 10  9  1  0
 11 10  2  0
 13 12  1  6
 12 11  1  0
 13 14  1  0
 14  5  1  0
 15 25  1  0
 15 13  1  0
 16 15  2  0
 17 11  1  0
 17 18  2  0
 18  8  1  0
 20 19  1  0
 21 20  2  0
 22 20  1  0
 24 23  1  1
 23 22  1  0
 24 25  1  0
 26 24  1  0
 26 28  1  0
 27 26  2  0
M  END
$$$$
