CYQ.pdb
     RDKit          3D

 28 28  0  0  1  0  0  0  0  0999 V2000
   28.4111  -22.4872  -16.1659 N   0  0  0  0  0  0  0  0  0  0  0  0
   27.7123  -21.2685  -15.8299 C   0  0  1  0  0  0  0  0  0  0  0  0
   27.0878  -20.6292  -17.0390 C   0  0  0  0  0  0  0  0  0  0  0  0
   28.4021  -20.0743  -18.1503 S   0  0  0  0  0  0  0  0  0  0  0  0
   26.6576  -21.5663  -14.8246 C   0  0  0  0  0  0  0  0  0  0  0  0
   26.1057  -22.6972  -14.7974 O   0  0  0  0  0  0  0  0  0  0  0  0
   29.6381  -21.2789   -8.2912 O   0  0  0  0  0  0  0  0  0  0  0  0
   28.5624  -20.9528   -9.1066 C   0  0  0  0  0  0  0  0  0  0  0  0
   27.2931  -20.7579   -8.6188 C   0  0  0  0  0  0  0  0  0  0  0  0
   26.2413  -20.4325   -9.4650 C   0  0  0  0  0  0  0  0  0  0  0  0
   26.4267  -20.2923  -10.8249 C   0  0  0  0  0  0  0  0  0  0  0  0
   25.3387  -19.9570  -11.7364 C   0  0  0  0  0  0  0  0  0  0  0  0
   25.1584  -20.8668  -12.9094 C   0  0  2  0  0  0  0  0  0  0  0  0
   26.2385  -20.5992  -13.8698 N   0  0  0  0  0  0  0  0  0  0  0  0
   23.8368  -20.6199  -13.5227 C   0  0  0  0  0  0  0  0  0  0  0  0
   23.7204  -19.9643  -14.5980 O   0  0  0  0  0  0  0  0  0  0  0  0
   27.7112  -20.4919  -11.2998 C   0  0  0  0  0  0  0  0  0  0  0  0
   28.7542  -20.8133  -10.4694 C   0  0  0  0  0  0  0  0  0  0  0  0
   22.5785  -25.7229  -14.6221 N   0  0  0  0  0  0  0  0  0  0  0  0
   21.4547  -25.2000  -15.2756 C   0  0  0  0  0  0  0  0  0  0  0  0
   20.6762  -25.9338  -15.8965 O   0  0  0  0  0  0  0  0  0  0  0  0
   21.1967  -23.7388  -15.2198 C   0  0  0  0  0  0  0  0  0  0  0  0
   22.2411  -23.0119  -14.4196 C   0  0  0  0  0  0  0  0  0  0  0  0
   21.6346  -21.8156  -13.7819 C   0  0  2  0  0  0  0  0  0  0  0  0
   22.6132  -21.0821  -12.9778 N   0  0  0  0  0  0  0  0  0  0  0  0
   20.5398  -22.1990  -12.8775 C   0  0  0  0  0  0  0  0  0  0  0  0
   20.7940  -22.2051  -11.6163 O   0  0  0  0  0  0  0  0  0  0  0  0
   19.2516  -22.5523  -13.2617 O   0  0  0  0  0  0  0  0  0  0  0  0
  2  3  1  0
  2  1  1  6
  4  3  1  0
  5  2  1  0
  6  5  2  0
  8  9  2  0
  8  7  1  0
 10  9  1  0
 11 10  2  0
 13 12  1  1
 12 11  1  0
 13 14  1  0
 14  5  1  0
 15 25  1  0
 15 13  1  0
 16 15  2  0
 17 11  1  0
 17 18  2  0
 18  8  1  0
 20 19  1  0
 21 20  2  0
 22 20  1  0
 24 23  1  1
 23 22  1  0
 24 25  1  0
 26 24  1  0
 26 28  1  0
 27 26  2  0
M  END
$$$$
