CYQ.pdb
     RDKit          3D

 28 28  0  0  1  0  0  0  0  0999 V2000
   28.5362  -22.6885  -18.0325 N   0  0  0  0  0  0  0  0  0  0  0  0
   28.2410  -21.4277  -17.3925 C   0  0  1  0  0  0  0  0  0  0  0  0
   27.5340  -20.4798  -18.3212 C   0  0  0  0  0  0  0  0  0  0  0  0
   28.6659  -20.0139  -19.6524 S   0  0  0  0  0  0  0  0  0  0  0  0
   27.3968  -21.6698  -16.1923 C   0  0  0  0  0  0  0  0  0  0  0  0
   26.5734  -22.6218  -16.1752 O   0  0  0  0  0  0  0  0  0  0  0  0
   24.1880  -20.2965   -7.9135 O   0  0  0  0  0  0  0  0  0  0  0  0
   24.9320  -20.3190   -9.0858 C   0  0  0  0  0  0  0  0  0  0  0  0
   25.7464  -21.3708   -9.4285 C   0  0  0  0  0  0  0  0  0  0  0  0
   26.4759  -21.3582  -10.6099 C   0  0  0  0  0  0  0  0  0  0  0  0
   26.4135  -20.2932  -11.4846 C   0  0  0  0  0  0  0  0  0  0  0  0
   27.1733  -20.2519  -12.7288 C   0  0  0  0  0  0  0  0  0  0  0  0
   26.6169  -21.0464  -13.8668 C   0  0  2  0  0  0  0  0  0  0  0  0
   27.4861  -20.8476  -15.0355 N   0  0  0  0  0  0  0  0  0  0  0  0
   25.2395  -20.5941  -14.1534 C   0  0  0  0  0  0  0  0  0  0  0  0
   25.0154  -19.5461  -14.8253 O   0  0  0  0  0  0  0  0  0  0  0  0
   25.5885  -19.2421  -11.1245 C   0  0  0  0  0  0  0  0  0  0  0  0
   24.8653  -19.2484   -9.9593 C   0  0  0  0  0  0  0  0  0  0  0  0
   19.8665  -23.4238  -15.3112 N   0  0  0  0  0  0  0  0  0  0  0  0
   19.6114  -22.0619  -15.5201 C   0  0  0  0  0  0  0  0  0  0  0  0
   18.4844  -21.6631  -15.8376 O   0  0  0  0  0  0  0  0  0  0  0  0
   20.7158  -21.0827  -15.3566 C   0  0  0  0  0  0  0  0  0  0  0  0
   21.9793  -21.7342  -14.8680 C   0  0  0  0  0  0  0  0  0  0  0  0
   22.7311  -20.7805  -14.0131 C   0  0  2  0  0  0  0  0  0  0  0  0
   24.0763  -21.2737  -13.7141 N   0  0  0  0  0  0  0  0  0  0  0  0
   22.0525  -20.5817  -12.7233 C   0  0  0  0  0  0  0  0  0  0  0  0
   22.4079  -21.3426  -11.7487 O   0  0  0  0  0  0  0  0  0  0  0  0
   21.0630  -19.6418  -12.4597 O   0  0  0  0  0  0  0  0  0  0  0  0
  2  3  1  0
  2  1  1  6
  4  3  1  0
  5  2  1  0
  6  5  2  0
  8  9  2  0
  8  7  1  0
 10  9  1  0
 11 10  2  0
 13 12  1  1
 12 11  1  0
 13 14  1  0
 14  5  1  0
 15 25  1  0
 15 13  1  0
 16 15  2  0
 17 11  1  0
 17 18  2  0
 18  8  1  0
 20 19  1  0
 21 20  2  0
 22 20  1  0
 24 23  1  6
 23 22  1  0
 24 25  1  0
 26 24  1  0
 26 28  1  0
 27 26  2  0
M  END
$$$$
