EMA.pdb
     RDKit          3D

 23 22  0  0  1  0  0  0  0  0999 V2000
    9.2717  -15.5622   19.6226 N   0  0  0  0  0  0  0  0  0  0  0  0
    9.2411  -16.5526   20.6577 C   0  0  1  0  0  0  0  0  0  0  0  0
   10.2513  -17.6285   20.4691 C   0  0  0  0  0  0  0  0  0  0  0  0
   10.0731  -18.4887   19.2679 C   0  0  0  0  0  0  0  0  0  0  0  0
   11.0301  -19.5765   19.0655 C   0  0  0  0  0  0  0  0  0  0  0  0
   11.4739  -19.8602   17.9407 O   0  0  0  0  0  0  0  0  0  0  0  0
    9.4482  -15.8353   21.9684 C   0  0  0  0  0  0  0  0  0  0  0  0
   10.6182  -15.6166   22.3536 O   0  0  0  0  0  0  0  0  0  0  0  0
   11.5008  -20.3593   20.1223 O   0  0  0  0  0  0  0  0  0  0  0  0
    6.4792  -11.2035   26.2433 C   0  0  0  0  0  0  0  0  0  0  0  0
    7.9015  -12.3083   26.3298 S   0  0  0  0  0  0  0  0  0  0  0  0
    7.4182  -14.0402   26.1853 C   0  0  0  0  0  0  0  0  0  0  0  0
    7.2553  -14.4798   24.7529 C   0  0  0  0  0  0  0  0  0  0  0  0
    8.5204  -15.0696   24.1803 C   0  0  2  0  0  0  0  0  0  0  0  0
    8.3914  -15.3963   22.7864 N   0  0  0  0  0  0  0  0  0  0  0  0
    8.8659  -16.2510   25.0132 C   0  0  0  0  0  0  0  0  0  0  0  0
    8.0416  -17.1947   25.0724 O   0  0  0  0  0  0  0  0  0  0  0  0
   11.9225  -17.7785   26.2677 C   0  0  0  0  0  0  0  0  0  0  0  0
   10.4476  -17.5468   26.5195 C   0  0  2  0  0  0  0  0  0  0  0  0
   10.0710  -16.3780   25.7465 N   0  0  0  0  0  0  0  0  0  0  0  0
   10.2269  -17.3392   27.9793 C   0  0  0  0  0  0  0  0  0  0  0  0
   10.5393  -18.3132   28.9066 O   0  0  0  0  0  0  0  0  0  0  0  0
    9.7480  -16.2618   28.3952 O   0  0  0  0  0  0  0  0  0  0  0  0
  2  1  1  6
  2  7  1  0
  3  2  1  0
  4  3  1  0
  4  5  1  0
  5  6  2  0
  7  8  2  0
  9  5  1  0
 10 11  1  0
 11 12  1  0
 12 13  1  0
 14 13  1  1
 14 16  1  0
 15  7  1  0
 15 14  1  0
 16 17  2  0
 19 18  1  1
 19 21  1  0
 20 19  1  0
 20 16  1  0
 21 22  1  0
 23 21  2  0
M  END
$$$$
