EMA.pdb
     RDKit          3D

 23 22  0  0  1  0  0  0  0  0999 V2000
    8.8564  -16.4383   19.9547 N   0  0  0  0  0  0  0  0  0  0  0  0
    9.4348  -17.1726   21.0407 C   0  0  1  0  0  0  0  0  0  0  0  0
   10.7707  -17.7423   20.7169 C   0  0  0  0  0  0  0  0  0  0  0  0
   11.1834  -17.6692   19.2890 C   0  0  0  0  0  0  0  0  0  0  0  0
   12.4686  -18.2651   18.9238 C   0  0  0  0  0  0  0  0  0  0  0  0
   12.5467  -19.3901   18.4032 O   0  0  0  0  0  0  0  0  0  0  0  0
    9.5139  -16.2365   22.2209 C   0  0  0  0  0  0  0  0  0  0  0  0
   10.6333  -16.0085   22.7310 O   0  0  0  0  0  0  0  0  0  0  0  0
   13.6815  -17.6064   19.1383 O   0  0  0  0  0  0  0  0  0  0  0  0
    7.1959  -11.9258   27.7908 C   0  0  0  0  0  0  0  0  0  0  0  0
    7.5200  -12.5951   26.1483 S   0  0  0  0  0  0  0  0  0  0  0  0
    6.7995  -14.2350   25.9355 C   0  0  0  0  0  0  0  0  0  0  0  0
    6.8957  -14.7316   24.5158 C   0  0  0  0  0  0  0  0  0  0  0  0
    8.2837  -15.2034   24.1596 C   0  0  2  0  0  0  0  0  0  0  0  0
    8.3912  -15.6023   22.7828 N   0  0  0  0  0  0  0  0  0  0  0  0
    8.6248  -16.3026   25.1000 C   0  0  0  0  0  0  0  0  0  0  0  0
    7.7849  -17.2190   25.2684 O   0  0  0  0  0  0  0  0  0  0  0  0
   11.6918  -17.6879   26.5469 C   0  0  0  0  0  0  0  0  0  0  0  0
   10.2040  -17.4629   26.7153 C   0  0  2  0  0  0  0  0  0  0  0  0
    9.8419  -16.3799   25.8200 N   0  0  0  0  0  0  0  0  0  0  0  0
    9.9184  -17.1230   28.1386 C   0  0  0  0  0  0  0  0  0  0  0  0
   10.1467  -18.0234   29.1600 O   0  0  0  0  0  0  0  0  0  0  0  0
    9.4603  -15.9984   28.4360 O   0  0  0  0  0  0  0  0  0  0  0  0
  2  1  1  6
  2  7  1  0
  3  2  1  0
  4  3  1  0
  4  5  1  0
  5  6  2  0
  7  8  2  0
  9  5  1  0
 10 11  1  0
 11 12  1  0
 12 13  1  0
 14 13  1  1
 14 16  1  0
 15  7  1  0
 15 14  1  0
 16 17  2  0
 19 18  1  1
 19 21  1  0
 20 19  1  0
 20 16  1  0
 21 22  1  0
 23 21  2  0
M  END
$$$$
