EMA.pdb
     RDKit          3D

 23 22  0  0  1  0  0  0  0  0999 V2000
    6.7928  -15.7901   20.5810 N   0  0  0  0  0  0  0  0  0  0  0  0
    8.1773  -15.4706   20.3956 C   0  0  1  0  0  0  0  0  0  0  0  0
    8.3970  -14.3462   19.4463 C   0  0  0  0  0  0  0  0  0  0  0  0
    7.6349  -14.4107   18.1696 C   0  0  0  0  0  0  0  0  0  0  0  0
    8.3814  -14.2274   16.9250 C   0  0  0  0  0  0  0  0  0  0  0  0
    9.2010  -15.0685   16.5206 O   0  0  0  0  0  0  0  0  0  0  0  0
    8.7487  -15.1543   21.7554 C   0  0  0  0  0  0  0  0  0  0  0  0
    9.9830  -14.9794   21.8609 O   0  0  0  0  0  0  0  0  0  0  0  0
    8.2178  -13.0984   16.1189 O   0  0  0  0  0  0  0  0  0  0  0  0
    6.2390  -12.2635   27.5115 C   0  0  0  0  0  0  0  0  0  0  0  0
    7.3169  -11.5624   26.2476 S   0  0  0  0  0  0  0  0  0  0  0  0
    7.4053  -12.6100   24.7818 C   0  0  0  0  0  0  0  0  0  0  0  0
    7.5101  -14.0748   25.1207 C   0  0  0  0  0  0  0  0  0  0  0  0
    8.4888  -14.8059   24.2354 C   0  0  2  0  0  0  0  0  0  0  0  0
    7.9649  -15.0445   22.9182 N   0  0  0  0  0  0  0  0  0  0  0  0
    8.8577  -16.0623   24.9385 C   0  0  0  0  0  0  0  0  0  0  0  0
    7.9479  -16.8885   25.1900 O   0  0  0  0  0  0  0  0  0  0  0  0
   12.0411  -17.8488   25.5447 C   0  0  0  0  0  0  0  0  0  0  0  0
   10.5793  -17.6660   25.8943 C   0  0  2  0  0  0  0  0  0  0  0  0
   10.1757  -16.3856   25.3438 N   0  0  0  0  0  0  0  0  0  0  0  0
   10.4219  -17.7053   27.3764 C   0  0  0  0  0  0  0  0  0  0  0  0
   10.5772  -18.8756   28.0923 O   0  0  0  0  0  0  0  0  0  0  0  0
   10.1425  -16.6621   28.0062 O   0  0  0  0  0  0  0  0  0  0  0  0
  2  1  1  1
  2  7  1  0
  3  2  1  0
  4  3  1  0
  4  5  1  0
  5  6  2  0
  7  8  2  0
  9  5  1  0
 10 11  1  0
 11 12  1  0
 12 13  1  0
 14 13  1  1
 14 16  1  0
 15  7  1  0
 15 14  1  0
 16 17  2  0
 19 18  1  1
 19 21  1  0
 20 19  1  0
 20 16  1  0
 21 22  1  0
 23 21  2  0
M  END
$$$$
