EMA.pdb
     RDKit          3D

 23 22  0  0  1  0  0  0  0  0999 V2000
    9.6924  -18.3096   21.6025 N   0  0  0  0  0  0  0  0  0  0  0  0
   10.7851  -17.3970   21.7651 C   0  0  1  0  0  0  0  0  0  0  0  0
   11.1690  -16.7118   20.5014 C   0  0  0  0  0  0  0  0  0  0  0  0
   10.8857  -17.4545   19.2433 C   0  0  0  0  0  0  0  0  0  0  0  0
   11.3062  -16.8398   17.9842 C   0  0  0  0  0  0  0  0  0  0  0  0
   10.6279  -16.9351   16.9480 O   0  0  0  0  0  0  0  0  0  0  0  0
   10.3814  -16.4008   22.8234 C   0  0  0  0  0  0  0  0  0  0  0  0
   11.1039  -15.3961   23.0074 O   0  0  0  0  0  0  0  0  0  0  0  0
   12.4924  -16.1108   17.8721 O   0  0  0  0  0  0  0  0  0  0  0  0
    6.0673  -11.6777   25.7074 C   0  0  0  0  0  0  0  0  0  0  0  0
    7.0454  -13.1703   25.9656 S   0  0  0  0  0  0  0  0  0  0  0  0
    6.6389  -14.4568   24.7684 C   0  0  0  0  0  0  0  0  0  0  0  0
    7.3869  -15.7408   25.0196 C   0  0  0  0  0  0  0  0  0  0  0  0
    8.8510  -15.6365   24.6708 C   0  0  2  0  0  0  0  0  0  0  0  0
    9.2302  -16.5405   23.6195 N   0  0  0  0  0  0  0  0  0  0  0  0
    9.6150  -15.8673   25.9245 C   0  0  0  0  0  0  0  0  0  0  0  0
   10.0247  -17.0288   26.1623 O   0  0  0  0  0  0  0  0  0  0  0  0
   10.5434  -13.7784   28.8952 C   0  0  0  0  0  0  0  0  0  0  0  0
   10.6383  -15.0676   28.1069 C   0  0  2  0  0  0  0  0  0  0  0  0
    9.9097  -14.8551   26.8703 N   0  0  0  0  0  0  0  0  0  0  0  0
   10.0512  -16.1774   28.9111 C   0  0  0  0  0  0  0  0  0  0  0  0
   10.8189  -16.9334   29.7744 O   0  0  0  0  0  0  0  0  0  0  0  0
    8.8339  -16.4462   28.8161 O   0  0  0  0  0  0  0  0  0  0  0  0
  2  1  1  6
  2  7  1  0
  3  2  1  0
  4  3  1  0
  4  5  1  0
  5  6  2  0
  7  8  2  0
  9  5  1  0
 10 11  1  0
 11 12  1  0
 12 13  1  0
 14 13  1  1
 14 16  1  0
 15  7  1  0
 15 14  1  0
 16 17  2  0
 19 18  1  1
 19 21  1  0
 20 19  1  0
 20 16  1  0
 21 22  1  0
 23 21  2  0
M  END
$$$$
