EMA.pdb
     RDKit          3D

 23 22  0  0  1  0  0  0  0  0999 V2000
    9.3789  -18.6149   21.8447 N   0  0  0  0  0  0  0  0  0  0  0  0
   10.5450  -17.7884   21.9472 C   0  0  1  0  0  0  0  0  0  0  0  0
   11.0289  -17.2922   20.6306 C   0  0  0  0  0  0  0  0  0  0  0  0
    9.9811  -17.0234   19.6086 C   0  0  0  0  0  0  0  0  0  0  0  0
   10.4212  -16.5581   18.2933 C   0  0  0  0  0  0  0  0  0  0  0  0
   11.6163  -16.3298   18.0433 O   0  0  0  0  0  0  0  0  0  0  0  0
   10.2014  -16.6435   22.8674 C   0  0  0  0  0  0  0  0  0  0  0  0
   11.0332  -15.7202   23.0116 O   0  0  0  0  0  0  0  0  0  0  0  0
    9.5263  -16.3433   17.2426 O   0  0  0  0  0  0  0  0  0  0  0  0
    6.6126  -11.5556   26.5500 C   0  0  0  0  0  0  0  0  0  0  0  0
    6.9682  -12.8070   25.3016 S   0  0  0  0  0  0  0  0  0  0  0  0
    6.9518  -14.4724   25.9943 C   0  0  0  0  0  0  0  0  0  0  0  0
    7.2524  -15.5320   24.9655 C   0  0  0  0  0  0  0  0  0  0  0  0
    8.7176  -15.5974   24.6119 C   0  0  2  0  0  0  0  0  0  0  0  0
    8.9898  -16.5568   23.5766 N   0  0  0  0  0  0  0  0  0  0  0  0
    9.4562  -15.8891   25.8681 C   0  0  0  0  0  0  0  0  0  0  0  0
    9.7107  -17.0869   26.1403 O   0  0  0  0  0  0  0  0  0  0  0  0
   10.7686  -13.8537   28.7303 C   0  0  0  0  0  0  0  0  0  0  0  0
   10.6959  -15.1548   27.9594 C   0  0  2  0  0  0  0  0  0  0  0  0
    9.8915  -14.8965   26.7798 N   0  0  0  0  0  0  0  0  0  0  0  0
   10.0862  -16.2038   28.8259 C   0  0  0  0  0  0  0  0  0  0  0  0
   10.7850  -16.7820   29.8669 O   0  0  0  0  0  0  0  0  0  0  0  0
    8.9127  -16.5832   28.6216 O   0  0  0  0  0  0  0  0  0  0  0  0
  2  1  1  6
  2  7  1  0
  3  2  1  0
  4  3  1  0
  4  5  1  0
  5  6  2  0
  7  8  2  0
  9  5  1  0
 10 11  1  0
 11 12  1  0
 12 13  1  0
 14 13  1  1
 14 16  1  0
 15  7  1  0
 15 14  1  0
 16 17  2  0
 19 18  1  1
 19 21  1  0
 20 19  1  0
 20 16  1  0
 21 22  1  0
 23 21  2  0
M  END
$$$$
