EMA.pdb
     RDKit          3D

 23 22  0  0  1  0  0  0  0  0999 V2000
    8.7328  -17.2266   20.5000 N   0  0  0  0  0  0  0  0  0  0  0  0
    9.9524  -17.4740   21.2102 C   0  0  1  0  0  0  0  0  0  0  0  0
   11.1633  -17.3568   20.3536 C   0  0  0  0  0  0  0  0  0  0  0  0
   10.9180  -17.1594   18.8991 C   0  0  0  0  0  0  0  0  0  0  0  0
   12.0836  -16.9786   18.0338 C   0  0  0  0  0  0  0  0  0  0  0  0
   11.9699  -16.7196   16.8244 O   0  0  0  0  0  0  0  0  0  0  0  0
   10.0041  -16.5009   22.3617 C   0  0  0  0  0  0  0  0  0  0  0  0
   11.1129  -16.0297   22.6988 O   0  0  0  0  0  0  0  0  0  0  0  0
   13.3907  -17.0861   18.5145 O   0  0  0  0  0  0  0  0  0  0  0  0
    6.4074  -11.6655   26.3668 C   0  0  0  0  0  0  0  0  0  0  0  0
    7.9314  -12.6283   26.3294 S   0  0  0  0  0  0  0  0  0  0  0  0
    7.6060  -14.3996   26.2269 C   0  0  0  0  0  0  0  0  0  0  0  0
    7.5966  -14.9069   24.8078 C   0  0  0  0  0  0  0  0  0  0  0  0
    8.8926  -15.5767   24.4232 C   0  0  2  0  0  0  0  0  0  0  0  0
    8.8669  -16.0918   23.0814 N   0  0  0  0  0  0  0  0  0  0  0  0
    9.1535  -16.6338   25.4348 C   0  0  0  0  0  0  0  0  0  0  0  0
    8.2459  -17.4683   25.6660 O   0  0  0  0  0  0  0  0  0  0  0  0
   12.1891  -17.9580   27.1035 C   0  0  0  0  0  0  0  0  0  0  0  0
   10.6796  -17.8468   27.0624 C   0  0  2  0  0  0  0  0  0  0  0  0
   10.3660  -16.7579   26.1562 N   0  0  0  0  0  0  0  0  0  0  0  0
   10.1704  -17.5851   28.4390 C   0  0  0  0  0  0  0  0  0  0  0  0
   10.2118  -18.5513   29.4244 O   0  0  0  0  0  0  0  0  0  0  0  0
    9.6900  -16.4680   28.7292 O   0  0  0  0  0  0  0  0  0  0  0  0
  2  1  1  6
  2  7  1  0
  3  2  1  0
  4  3  1  0
  4  5  1  0
  5  6  2  0
  7  8  2  0
  9  5  1  0
 10 11  1  0
 11 12  1  0
 12 13  1  0
 14 13  1  1
 14 16  1  0
 15  7  1  0
 15 14  1  0
 16 17  2  0
 19 18  1  1
 19 21  1  0
 20 19  1  0
 20 16  1  0
 21 22  1  0
 23 21  2  0
M  END
$$$$
