EMA.pdb
     RDKit          3D

 23 22  0  0  1  0  0  0  0  0999 V2000
    8.3585  -17.4582   20.5562 N   0  0  0  0  0  0  0  0  0  0  0  0
    9.7232  -17.3108   20.9674 C   0  0  1  0  0  0  0  0  0  0  0  0
   10.5855  -16.6914   19.9250 C   0  0  0  0  0  0  0  0  0  0  0  0
   10.3388  -17.1338   18.5257 C   0  0  0  0  0  0  0  0  0  0  0  0
   11.4956  -17.5505   17.7330 C   0  0  0  0  0  0  0  0  0  0  0  0
   11.3877  -17.8953   16.5446 O   0  0  0  0  0  0  0  0  0  0  0  0
    9.7224  -16.4885   22.2320 C   0  0  0  0  0  0  0  0  0  0  0  0
   10.8120  -16.0493   22.6620 O   0  0  0  0  0  0  0  0  0  0  0  0
   12.7872  -17.5856   18.2635 O   0  0  0  0  0  0  0  0  0  0  0  0
    7.7252  -11.7087   27.3822 C   0  0  0  0  0  0  0  0  0  0  0  0
    7.8977  -12.5986   25.8236 S   0  0  0  0  0  0  0  0  0  0  0  0
    7.1793  -14.2510   25.9090 C   0  0  0  0  0  0  0  0  0  0  0  0
    7.1904  -14.9583   24.5781 C   0  0  0  0  0  0  0  0  0  0  0  0
    8.5401  -15.5439   24.2443 C   0  0  2  0  0  0  0  0  0  0  0  0
    8.5564  -16.1868   22.9587 N   0  0  0  0  0  0  0  0  0  0  0  0
    8.8983  -16.4704   25.3498 C   0  0  0  0  0  0  0  0  0  0  0  0
    8.0513  -17.3258   25.7027 O   0  0  0  0  0  0  0  0  0  0  0  0
   12.0487  -17.5760   26.8933 C   0  0  0  0  0  0  0  0  0  0  0  0
   10.5496  -17.4154   27.0319 C   0  0  2  0  0  0  0  0  0  0  0  0
   10.1394  -16.4477   26.0316 N   0  0  0  0  0  0  0  0  0  0  0  0
   10.2326  -16.9517   28.4130 C   0  0  0  0  0  0  0  0  0  0  0  0
   10.4438  -17.7558   29.5153 O   0  0  0  0  0  0  0  0  0  0  0  0
    9.7630  -15.8082   28.5993 O   0  0  0  0  0  0  0  0  0  0  0  0
  2  1  1  6
  2  7  1  0
  3  2  1  0
  4  3  1  0
  4  5  1  0
  5  6  2  0
  7  8  2  0
  9  5  1  0
 10 11  1  0
 11 12  1  0
 12 13  1  0
 14 13  1  1
 14 16  1  0
 15  7  1  0
 15 14  1  0
 16 17  2  0
 19 18  1  1
 19 21  1  0
 20 19  1  0
 20 16  1  0
 21 22  1  0
 23 21  2  0
M  END
$$$$
