EMA.pdb
     RDKit          3D

 23 22  0  0  1  0  0  0  0  0999 V2000
    8.5602  -17.0961   20.9031 N   0  0  0  0  0  0  0  0  0  0  0  0
    9.8739  -17.3248   21.4276 C   0  0  1  0  0  0  0  0  0  0  0  0
   10.9552  -16.8115   20.5437 C   0  0  0  0  0  0  0  0  0  0  0  0
   10.8551  -17.1827   19.1060 C   0  0  0  0  0  0  0  0  0  0  0  0
   11.8510  -16.6246   18.1913 C   0  0  0  0  0  0  0  0  0  0  0  0
   12.8294  -15.9780   18.6005 O   0  0  0  0  0  0  0  0  0  0  0  0
    9.9304  -16.6772   22.7888 C   0  0  0  0  0  0  0  0  0  0  0  0
   11.0409  -16.5668   23.3543 O   0  0  0  0  0  0  0  0  0  0  0  0
   11.7615  -16.7848   16.8066 O   0  0  0  0  0  0  0  0  0  0  0  0
    5.8266  -11.9140   26.4109 C   0  0  0  0  0  0  0  0  0  0  0  0
    7.4138  -12.5217   25.8089 S   0  0  0  0  0  0  0  0  0  0  0  0
    7.2144  -13.8768   24.6352 C   0  0  0  0  0  0  0  0  0  0  0  0
    7.4441  -15.2273   25.2633 C   0  0  0  0  0  0  0  0  0  0  0  0
    8.7612  -15.8398   24.8554 C   0  0  2  0  0  0  0  0  0  0  0  0
    8.7960  -16.1876   23.4611 N   0  0  0  0  0  0  0  0  0  0  0  0
    8.9897  -17.0112   25.7412 C   0  0  0  0  0  0  0  0  0  0  0  0
    8.0439  -17.8174   25.9117 O   0  0  0  0  0  0  0  0  0  0  0  0
   11.8833  -18.8604   27.0000 C   0  0  0  0  0  0  0  0  0  0  0  0
   10.4570  -18.4232   27.2586 C   0  0  2  0  0  0  0  0  0  0  0  0
   10.2118  -17.2745   26.4068 N   0  0  0  0  0  0  0  0  0  0  0  0
   10.3031  -18.0842   28.7024 C   0  0  0  0  0  0  0  0  0  0  0  0
   10.4020  -19.0456   29.6884 O   0  0  0  0  0  0  0  0  0  0  0  0
   10.0788  -16.9045   29.0501 O   0  0  0  0  0  0  0  0  0  0  0  0
  2  1  1  6
  2  7  1  0
  3  2  1  0
  4  3  1  0
  4  5  1  0
  5  6  2  0
  7  8  2  0
  9  5  1  0
 10 11  1  0
 11 12  1  0
 12 13  1  0
 14 13  1  1
 14 16  1  0
 15  7  1  0
 15 14  1  0
 16 17  2  0
 19 18  1  1
 19 21  1  0
 20 19  1  0
 20 16  1  0
 21 22  1  0
 23 21  2  0
M  END
$$$$
