EMA.pdb
     RDKit          3D

 23 22  0  0  1  0  0  0  0  0999 V2000
   10.0215  -15.8183   20.4981 N   0  0  0  0  0  0  0  0  0  0  0  0
    9.4277  -16.6735   21.4826 C   0  0  1  0  0  0  0  0  0  0  0  0
   10.1804  -17.9403   21.6889 C   0  0  0  0  0  0  0  0  0  0  0  0
   10.8150  -18.5277   20.4778 C   0  0  0  0  0  0  0  0  0  0  0  0
   11.4734  -19.8263   20.6201 C   0  0  0  0  0  0  0  0  0  0  0  0
   11.5625  -20.4008   21.7178 O   0  0  0  0  0  0  0  0  0  0  0  0
    9.3332  -15.8820   22.7633 C   0  0  0  0  0  0  0  0  0  0  0  0
   10.1894  -14.9973   22.9855 O   0  0  0  0  0  0  0  0  0  0  0  0
   12.0398  -20.4962   19.5332 O   0  0  0  0  0  0  0  0  0  0  0  0
    5.9279  -11.0889   25.6744 C   0  0  0  0  0  0  0  0  0  0  0  0
    6.8418  -12.6131   25.9786 S   0  0  0  0  0  0  0  0  0  0  0  0
    6.0634  -14.0341   25.1857 C   0  0  0  0  0  0  0  0  0  0  0  0
    6.7860  -15.3257   25.4705 C   0  0  0  0  0  0  0  0  0  0  0  0
    8.1991  -15.3280   24.9418 C   0  0  2  0  0  0  0  0  0  0  0  0
    8.3291  -16.0855   23.7271 N   0  0  0  0  0  0  0  0  0  0  0  0
    9.0705  -15.8420   26.0305 C   0  0  0  0  0  0  0  0  0  0  0  0
    9.2259  -17.0830   26.1278 O   0  0  0  0  0  0  0  0  0  0  0  0
   10.7715  -14.3602   29.0079 C   0  0  0  0  0  0  0  0  0  0  0  0
   10.6025  -15.5012   28.0271 C   0  0  2  0  0  0  0  0  0  0  0  0
    9.7380  -15.0160   26.9676 N   0  0  0  0  0  0  0  0  0  0  0  0
   10.0073  -16.6709   28.7347 C   0  0  0  0  0  0  0  0  0  0  0  0
    8.6885  -17.0361   28.5515 O   0  0  0  0  0  0  0  0  0  0  0  0
   10.7039  -17.3521   29.5180 O   0  0  0  0  0  0  0  0  0  0  0  0
  2  1  1  6
  2  7  1  0
  3  2  1  0
  4  3  1  0
  4  5  1  0
  5  6  2  0
  7  8  2  0
  9  5  1  0
 10 11  1  0
 11 12  1  0
 12 13  1  0
 14 13  1  1
 14 16  1  0
 15  7  1  0
 15 14  1  0
 16 17  2  0
 19 18  1  1
 19 21  1  0
 20 19  1  0
 20 16  1  0
 21 22  1  0
 23 21  2  0
M  END
$$$$
