EMA.pdb
     RDKit          3D

 23 22  0  0  1  0  0  0  0  0999 V2000
    8.3599  -16.6271   20.0575 N   0  0  0  0  0  0  0  0  0  0  0  0
    9.1035  -17.3676   21.0332 C   0  0  1  0  0  0  0  0  0  0  0  0
   10.3302  -18.0007   20.4781 C   0  0  0  0  0  0  0  0  0  0  0  0
   11.0468  -17.2271   19.4281 C   0  0  0  0  0  0  0  0  0  0  0  0
   12.2487  -17.8254   18.8472 C   0  0  0  0  0  0  0  0  0  0  0  0
   12.1880  -18.6843   17.9520 O   0  0  0  0  0  0  0  0  0  0  0  0
    9.4417  -16.4159   22.1537 C   0  0  0  0  0  0  0  0  0  0  0  0
   10.6438  -16.2548   22.4608 O   0  0  0  0  0  0  0  0  0  0  0  0
   13.5332  -17.4677   19.2634 O   0  0  0  0  0  0  0  0  0  0  0  0
    6.8649  -11.3296   27.7424 C   0  0  0  0  0  0  0  0  0  0  0  0
    6.4435  -12.3799   26.3387 S   0  0  0  0  0  0  0  0  0  0  0  0
    7.8362  -13.4031   25.8217 C   0  0  0  0  0  0  0  0  0  0  0  0
    7.5424  -14.1958   24.5740 C   0  0  0  0  0  0  0  0  0  0  0  0
    8.7181  -15.0284   24.1261 C   0  0  2  0  0  0  0  0  0  0  0  0
    8.4737  -15.6955   22.8766 N   0  0  0  0  0  0  0  0  0  0  0  0
    9.0252  -15.9769   25.2284 C   0  0  0  0  0  0  0  0  0  0  0  0
    8.1066  -16.7278   25.6357 O   0  0  0  0  0  0  0  0  0  0  0  0
   12.0942  -17.4171   26.6532 C   0  0  0  0  0  0  0  0  0  0  0  0
   10.6355  -17.0683   26.8609 C   0  0  2  0  0  0  0  0  0  0  0  0
   10.2934  -16.0859   25.8495 N   0  0  0  0  0  0  0  0  0  0  0  0
   10.4523  -16.5302   28.2392 C   0  0  0  0  0  0  0  0  0  0  0  0
   10.0318  -15.2343   28.4627 O   0  0  0  0  0  0  0  0  0  0  0  0
   10.6793  -17.2554   29.2319 O   0  0  0  0  0  0  0  0  0  0  0  0
  2  1  1  6
  2  7  1  0
  3  2  1  0
  4  3  1  0
  4  5  1  0
  5  6  2  0
  7  8  2  0
  9  5  1  0
 10 11  1  0
 11 12  1  0
 12 13  1  0
 14 13  1  1
 14 16  1  0
 15  7  1  0
 15 14  1  0
 16 17  2  0
 19 18  1  6
 19 21  1  0
 20 19  1  0
 20 16  1  0
 21 22  1  0
 23 21  2  0
M  END
$$$$
