FIV.pdb
     RDKit          3D

 27 27  0  0  1  0  0  0  0  0999 V2000
    6.5058  -15.9452   20.8481 N   0  0  0  0  0  0  0  0  0  0  0  0
    6.0821  -16.0825   22.2277 C   0  0  1  0  0  0  0  0  0  0  0  0
    5.9199  -17.5756   22.4828 C   0  0  0  0  0  0  0  0  0  0  0  0
    4.6678  -18.0187   21.8532 C   0  0  0  0  0  0  0  0  0  0  0  0
    3.4741  -17.8776   22.5188 C   0  0  0  0  0  0  0  0  0  0  0  0
    2.3119  -18.2925   21.9262 C   0  0  0  0  0  0  0  0  0  0  0  0
    2.3433  -18.8512   20.6620 C   0  0  0  0  0  0  0  0  0  0  0  0
    3.5426  -18.9988   19.9800 C   0  0  0  0  0  0  0  0  0  0  0  0
    4.6943  -18.5755   20.5947 C   0  0  0  0  0  0  0  0  0  0  0  0
    7.2013  -15.6297   23.0877 C   0  0  0  0  0  0  0  0  0  0  0  0
    8.3848  -15.7631   22.7233 O   0  0  0  0  0  0  0  0  0  0  0  0
    6.1452  -11.5896   26.4662 C   0  0  0  0  0  0  0  0  0  0  0  0
    6.9068  -12.5090   25.5702 C   0  0  0  0  0  0  0  0  0  0  0  0
    7.5158  -13.6923   26.2677 C   0  0  2  0  0  0  0  0  0  0  0  0
    8.5107  -13.3067   27.3153 C   0  0  0  0  0  0  0  0  0  0  0  0
    8.0874  -14.6507   25.2453 C   0  0  2  0  0  0  0  0  0  0  0  0
    7.0000  -15.0236   24.3634 N   0  0  0  0  0  0  0  0  0  0  0  0
    8.7127  -15.8324   25.8896 C   0  0  0  0  0  0  0  0  0  0  0  0
    7.9756  -16.5687   26.5959 O   0  0  0  0  0  0  0  0  0  0  0  0
   11.3216  -18.1814   23.9848 C   0  0  0  0  0  0  0  0  0  0  0  0
   11.7078  -17.9550   25.4304 C   0  0  2  0  0  0  0  0  0  0  0  0
   12.2353  -19.2330   26.0514 C   0  0  0  0  0  0  0  0  0  0  0  0
   10.5314  -17.4782   26.2509 C   0  0  2  0  0  0  0  0  0  0  0  0
   10.0692  -16.1850   25.7656 N   0  0  0  0  0  0  0  0  0  0  0  0
   10.9967  -17.3407   27.6640 C   0  0  0  0  0  0  0  0  0  0  0  0
   11.4762  -16.2586   28.0897 O   0  0  0  0  0  0  0  0  0  0  0  0
   10.9172  -18.3982   28.5558 O   0  0  0  0  0  0  0  0  0  0  0  0
  2  1  1  6
  3  2  1  0
  4  5  2  0
  4  3  1  0
  6  5  1  0
  7  6  2  0
  8  7  1  0
  8  9  2  0
  9  4  1  0
 10 17  1  0
 10  2  1  0
 11 10  2  0
 13 14  1  0
 13 12  1  0
 14 16  1  0
 14 15  1  1
 16 17  1  6
 18 16  1  0
 19 18  2  0
 21 20  1  6
 21 23  1  0
 22 21  1  0
 23 25  1  0
 23 24  1  6
 24 18  1  0
 25 27  1  0
 26 25  2  0
M  END
$$$$
