FIV.pdb
     RDKit          3D

 27 27  0  0  1  0  0  0  0  0999 V2000
    5.0693  -17.5598   24.8395 N   0  0  0  0  0  0  0  0  0  0  0  0
    5.7458  -16.2800   24.9164 C   0  0  1  0  0  0  0  0  0  0  0  0
    6.0112  -16.0202   26.3938 C   0  0  0  0  0  0  0  0  0  0  0  0
    6.3033  -14.5900   26.5664 C   0  0  0  0  0  0  0  0  0  0  0  0
    7.5937  -14.1715   26.7837 C   0  0  0  0  0  0  0  0  0  0  0  0
    7.8584  -12.8379   26.9436 C   0  0  0  0  0  0  0  0  0  0  0  0
    6.8277  -11.9183   26.8858 C   0  0  0  0  0  0  0  0  0  0  0  0
    5.5205  -12.3289   26.6668 C   0  0  0  0  0  0  0  0  0  0  0  0
    5.2802  -13.6709   26.5096 C   0  0  0  0  0  0  0  0  0  0  0  0
    7.0724  -16.4347   24.2734 C   0  0  0  0  0  0  0  0  0  0  0  0
    7.7277  -17.4864   24.3996 O   0  0  0  0  0  0  0  0  0  0  0  0
    7.8051  -13.3754   20.0238 C   0  0  0  0  0  0  0  0  0  0  0  0
    7.8831  -14.4740   21.0313 C   0  0  0  0  0  0  0  0  0  0  0  0
    9.1367  -14.4691   21.8594 C   0  0  2  0  0  0  0  0  0  0  0  0
   10.3786  -14.6359   21.0434 C   0  0  0  0  0  0  0  0  0  0  0  0
    9.0236  -15.4959   22.9656 C   0  0  2  0  0  0  0  0  0  0  0  0
    7.6733  -15.4097   23.4837 N   0  0  0  0  0  0  0  0  0  0  0  0
   10.0414  -15.2780   24.0234 C   0  0  0  0  0  0  0  0  0  0  0  0
   10.9948  -14.4987   23.7625 O   0  0  0  0  0  0  0  0  0  0  0  0
    9.3644  -13.5584   26.9054 C   0  0  0  0  0  0  0  0  0  0  0  0
   10.1589  -14.7318   27.4363 C   0  0  2  0  0  0  0  0  0  0  0  0
   11.1470  -14.2773   28.4919 C   0  0  0  0  0  0  0  0  0  0  0  0
   10.9261  -15.4263   26.3347 C   0  0  2  0  0  0  0  0  0  0  0  0
   10.0139  -15.8812   25.2943 N   0  0  0  0  0  0  0  0  0  0  0  0
   11.6140  -16.6055   26.9420 C   0  0  0  0  0  0  0  0  0  0  0  0
   12.5493  -16.4589   27.7703 O   0  0  0  0  0  0  0  0  0  0  0  0
   11.2476  -17.9013   26.6158 O   0  0  0  0  0  0  0  0  0  0  0  0
  2  1  1  1
  3  2  1  0
  4  5  2  0
  4  3  1  0
  6  5  1  0
  7  6  2  0
  8  7  1  0
  8  9  2  0
  9  4  1  0
 10 17  1  0
 10  2  1  0
 11 10  2  0
 13 14  1  0
 13 12  1  0
 14 16  1  0
 14 15  1  6
 16 17  1  1
 18 16  1  0
 19 18  2  0
 21 20  1  6
 21 23  1  0
 22 21  1  0
 23 25  1  0
 23 24  1  6
 24 18  1  0
 25 27  1  0
 26 25  2  0
M  END
$$$$
