FIV.pdb
     RDKit          3D

 27 27  0  0  1  0  0  0  0  0999 V2000
    6.4522  -15.4635   20.5867 N   0  0  0  0  0  0  0  0  0  0  0  0
    6.0926  -15.7731   21.9565 C   0  0  1  0  0  0  0  0  0  0  0  0
    6.0192  -17.2919   22.0506 C   0  0  0  0  0  0  0  0  0  0  0  0
    4.7601  -17.7329   21.4335 C   0  0  0  0  0  0  0  0  0  0  0  0
    4.7243  -18.0622   20.1001 C   0  0  0  0  0  0  0  0  0  0  0  0
    3.5482  -18.4720   19.5321 C   0  0  0  0  0  0  0  0  0  0  0  0
    2.4021  -18.5531   20.3011 C   0  0  0  0  0  0  0  0  0  0  0  0
    2.4258  -18.2232   21.6487 C   0  0  0  0  0  0  0  0  0  0  0  0
    3.6166  -17.8151   22.1953 C   0  0  0  0  0  0  0  0  0  0  0  0
    7.2205  -15.3538   22.8220 C   0  0  0  0  0  0  0  0  0  0  0  0
    8.3938  -15.3820   22.4052 O   0  0  0  0  0  0  0  0  0  0  0  0
    5.9820  -11.8031   26.5701 C   0  0  0  0  0  0  0  0  0  0  0  0
    6.8163  -12.5489   25.5822 C   0  0  0  0  0  0  0  0  0  0  0  0
    7.5665  -13.7160   26.1588 C   0  0  2  0  0  0  0  0  0  0  0  0
    8.5982  -13.3112   27.1626 C   0  0  0  0  0  0  0  0  0  0  0  0
    8.1404  -14.5587   25.0402 C   0  0  2  0  0  0  0  0  0  0  0  0
    7.0394  -14.8995   24.1622 N   0  0  0  0  0  0  0  0  0  0  0  0
    8.8325  -15.7641   25.5602 C   0  0  0  0  0  0  0  0  0  0  0  0
    8.1661  -16.5533   26.2796 O   0  0  0  0  0  0  0  0  0  0  0  0
   12.4311  -19.0644   24.8498 C   0  0  0  0  0  0  0  0  0  0  0  0
   11.6254  -17.8472   24.4507 C   0  0  2  0  0  0  0  0  0  0  0  0
   12.5373  -16.6729   24.1564 C   0  0  0  0  0  0  0  0  0  0  0  0
   10.6608  -17.4386   25.5402 C   0  0  2  0  0  0  0  0  0  0  0  0
   10.1786  -16.0844   25.3050 N   0  0  0  0  0  0  0  0  0  0  0  0
   11.4031  -17.4830   26.8361 C   0  0  0  0  0  0  0  0  0  0  0  0
   11.7393  -18.5773   27.3573 O   0  0  0  0  0  0  0  0  0  0  0  0
   11.7479  -16.3225   27.5101 O   0  0  0  0  0  0  0  0  0  0  0  0
  2  1  1  6
  3  2  1  0
  4  5  2  0
  4  3  1  0
  6  5  1  0
  7  6  2  0
  8  7  1  0
  8  9  2  0
  9  4  1  0
 10 17  1  0
 10  2  1  0
 11 10  2  0
 13 14  1  0
 13 12  1  0
 14 16  1  0
 14 15  1  1
 16 17  1  6
 18 16  1  0
 19 18  2  0
 21 20  1  1
 21 23  1  0
 22 21  1  0
 23 25  1  0
 23 24  1  6
 24 18  1  0
 25 27  1  0
 26 25  2  0
M  END
$$$$
