FIV.pdb
     RDKit          3D

 27 27  0  0  1  0  0  0  0  0999 V2000
    5.0457  -17.5114   25.2581 N   0  0  0  0  0  0  0  0  0  0  0  0
    5.7224  -16.2300   25.2221 C   0  0  1  0  0  0  0  0  0  0  0  0
    6.2074  -15.9580   26.6404 C   0  0  0  0  0  0  0  0  0  0  0  0
    6.5466  -14.5318   26.7474 C   0  0  0  0  0  0  0  0  0  0  0  0
    7.8403  -14.1486   27.0062 C   0  0  0  0  0  0  0  0  0  0  0  0
    8.1489  -12.8185   27.1045 C   0  0  0  0  0  0  0  0  0  0  0  0
    7.1590  -11.8669   26.9433 C   0  0  0  0  0  0  0  0  0  0  0  0
    5.8489  -12.2417   26.6816 C   0  0  0  0  0  0  0  0  0  0  0  0
    5.5642  -13.5810   26.5876 C   0  0  0  0  0  0  0  0  0  0  0  0
    6.9369  -16.3875   24.3870 C   0  0  0  0  0  0  0  0  0  0  0  0
    7.6339  -17.4174   24.4564 O   0  0  0  0  0  0  0  0  0  0  0  0
    7.0125  -13.5495   19.8606 C   0  0  0  0  0  0  0  0  0  0  0  0
    7.2355  -14.5723   20.9246 C   0  0  0  0  0  0  0  0  0  0  0  0
    8.5618  -14.4636   21.6222 C   0  0  2  0  0  0  0  0  0  0  0  0
    9.7250  -14.5603   20.6876 C   0  0  0  0  0  0  0  0  0  0  0  0
    8.6325  -15.4731   22.7476 C   0  0  2  0  0  0  0  0  0  0  0  0
    7.3780  -15.3897   23.4676 N   0  0  0  0  0  0  0  0  0  0  0  0
    9.7996  -15.2295   23.6314 C   0  0  0  0  0  0  0  0  0  0  0  0
   10.0875  -14.0339   23.8996 O   0  0  0  0  0  0  0  0  0  0  0  0
   10.2443  -15.7056   27.0202 C   0  0  0  0  0  0  0  0  0  0  0  0
   11.5010  -16.3273   26.4508 C   0  0  2  0  0  0  0  0  0  0  0  0
   12.7114  -15.9456   27.2792 C   0  0  0  0  0  0  0  0  0  0  0  0
   11.7420  -15.8855   25.0256 C   0  0  2  0  0  0  0  0  0  0  0  0
   10.6042  -16.2405   24.1884 N   0  0  0  0  0  0  0  0  0  0  0  0
   12.9604  -16.5979   24.5353 C   0  0  0  0  0  0  0  0  0  0  0  0
   12.8691  -17.6361   23.8311 O   0  0  0  0  0  0  0  0  0  0  0  0
   14.2334  -16.1418   24.8378 O   0  0  0  0  0  0  0  0  0  0  0  0
  2  1  1  1
  3  2  1  0
  4  5  2  0
  4  3  1  0
  6  5  1  0
  7  6  2  0
  8  7  1  0
  8  9  2  0
  9  4  1  0
 10 17  1  0
 10  2  1  0
 11 10  2  0
 13 14  1  0
 13 12  1  0
 14 16  1  0
 14 15  1  6
 16 17  1  1
 18 16  1  0
 19 18  2  0
 21 20  1  1
 21 23  1  0
 22 21  1  0
 23 25  1  0
 23 24  1  6
 24 18  1  0
 25 27  1  0
 26 25  2  0
M  END
$$$$
