FIV.pdb
     RDKit          3D

 27 27  0  0  1  0  0  0  0  0999 V2000
    7.7664  -16.3146   26.6856 N   0  0  0  0  0  0  0  0  0  0  0  0
    7.1932  -15.4944   25.6367 C   0  0  1  0  0  0  0  0  0  0  0  0
    7.7784  -14.0988   25.8118 C   0  0  0  0  0  0  0  0  0  0  0  0
    8.6317  -14.1022   27.0086 C   0  0  0  0  0  0  0  0  0  0  0  0
    8.3111  -13.3122   28.0859 C   0  0  0  0  0  0  0  0  0  0  0  0
    9.1104  -13.3206   29.1972 C   0  0  0  0  0  0  0  0  0  0  0  0
   10.2359  -14.1227   29.2315 C   0  0  0  0  0  0  0  0  0  0  0  0
   10.5700  -14.9248   28.1496 C   0  0  0  0  0  0  0  0  0  0  0  0
    9.7533  -14.8993   27.0471 C   0  0  0  0  0  0  0  0  0  0  0  0
    7.7028  -16.0028   24.3409 C   0  0  0  0  0  0  0  0  0  0  0  0
    7.6881  -17.2203   24.0790 O   0  0  0  0  0  0  0  0  0  0  0  0
    7.0543  -12.4800   20.6814 C   0  0  0  0  0  0  0  0  0  0  0  0
    7.1610  -13.9012   21.1251 C   0  0  0  0  0  0  0  0  0  0  0  0
    8.5523  -14.4656   21.0715 C   0  0  2  0  0  0  0  0  0  0  0  0
    8.9881  -14.8191   19.6855 C   0  0  0  0  0  0  0  0  0  0  0  0
    8.6709  -15.6275   22.0342 C   0  0  2  0  0  0  0  0  0  0  0  0
    8.2328  -15.1477   23.3292 N   0  0  0  0  0  0  0  0  0  0  0  0
   10.0532  -16.1659   22.0776 C   0  0  0  0  0  0  0  0  0  0  0  0
   10.9496  -15.4303   22.5673 O   0  0  0  0  0  0  0  0  0  0  0  0
   13.1382  -19.8812   22.5836 C   0  0  0  0  0  0  0  0  0  0  0  0
   11.7678  -19.2397   22.5564 C   0  0  2  0  0  0  0  0  0  0  0  0
   10.7636  -20.1479   21.8753 C   0  0  0  0  0  0  0  0  0  0  0  0
   11.7881  -17.9185   21.8224 C   0  0  2  0  0  0  0  0  0  0  0  0
   10.4293  -17.4386   21.6103 N   0  0  0  0  0  0  0  0  0  0  0  0
   12.4448  -18.1501   20.5005 C   0  0  0  0  0  0  0  0  0  0  0  0
   13.6968  -18.2135   20.3970 O   0  0  0  0  0  0  0  0  0  0  0  0
   11.7001  -18.3031   19.3420 O   0  0  0  0  0  0  0  0  0  0  0  0
  2  1  1  1
  3  2  1  0
  4  5  2  0
  4  3  1  0
  6  5  1  0
  7  6  2  0
  8  7  1  0
  8  9  2  0
  9  4  1  0
 10 17  1  0
 10  2  1  0
 11 10  2  0
 13 14  1  0
 13 12  1  0
 14 16  1  0
 14 15  1  6
 16 17  1  1
 18 16  1  0
 19 18  2  0
 21 20  1  6
 21 23  1  0
 22 21  1  0
 23 25  1  0
 23 24  1  6
 24 18  1  0
 25 27  1  0
 26 25  2  0
M  END
$$$$
