FIV.pdb
     RDKit          3D

 27 27  0  0  1  0  0  0  0  0999 V2000
    5.1102  -17.6028   25.2052 N   0  0  0  0  0  0  0  0  0  0  0  0
    5.7454  -16.3002   25.1728 C   0  0  1  0  0  0  0  0  0  0  0  0
    6.0515  -15.9332   26.6193 C   0  0  0  0  0  0  0  0  0  0  0  0
    6.2593  -14.4800   26.6934 C   0  0  0  0  0  0  0  0  0  0  0  0
    7.4945  -13.9762   27.0221 C   0  0  0  0  0  0  0  0  0  0  0  0
    7.6807  -12.6217   27.0892 C   0  0  0  0  0  0  0  0  0  0  0  0
    6.6266  -11.7666   26.8264 C   0  0  0  0  0  0  0  0  0  0  0  0
    5.3746  -12.2635   26.4934 C   0  0  0  0  0  0  0  0  0  0  0  0
    5.2127  -13.6249   26.4325 C   0  0  0  0  0  0  0  0  0  0  0  0
    7.0540  -16.4561   24.4942 C   0  0  0  0  0  0  0  0  0  0  0  0
    7.7254  -17.4967   24.6268 O   0  0  0  0  0  0  0  0  0  0  0  0
    7.4233  -13.7059   20.0321 C   0  0  0  0  0  0  0  0  0  0  0  0
    7.5760  -14.6792   21.1534 C   0  0  0  0  0  0  0  0  0  0  0  0
    8.9137  -14.6352   21.8359 C   0  0  2  0  0  0  0  0  0  0  0  0
   10.0556  -14.8866   20.9039 C   0  0  0  0  0  0  0  0  0  0  0  0
    8.9134  -15.5730   23.0239 C   0  0  2  0  0  0  0  0  0  0  0  0
    7.6187  -15.4446   23.6614 N   0  0  0  0  0  0  0  0  0  0  0  0
   10.0270  -15.2756   23.9587 C   0  0  0  0  0  0  0  0  0  0  0  0
   10.5374  -14.1261   23.9095 O   0  0  0  0  0  0  0  0  0  0  0  0
   10.3644  -16.6575   27.7021 C   0  0  0  0  0  0  0  0  0  0  0  0
   11.1740  -15.5060   27.1466 C   0  0  2  0  0  0  0  0  0  0  0  0
   10.3460  -14.2371   27.1081 C   0  0  0  0  0  0  0  0  0  0  0  0
   11.6638  -15.7965   25.7465 C   0  0  2  0  0  0  0  0  0  0  0  0
   10.5498  -16.1879   24.8936 N   0  0  0  0  0  0  0  0  0  0  0  0
   12.6392  -16.9246   25.8379 C   0  0  0  0  0  0  0  0  0  0  0  0
   13.7501  -16.7808   26.4100 O   0  0  0  0  0  0  0  0  0  0  0  0
   12.3563  -18.1685   25.2967 O   0  0  0  0  0  0  0  0  0  0  0  0
  2  1  1  1
  3  2  1  0
  4  5  2  0
  4  3  1  0
  6  5  1  0
  7  6  2  0
  8  7  1  0
  8  9  2  0
  9  4  1  0
 10 17  1  0
 10  2  1  0
 11 10  2  0
 13 14  1  0
 13 12  1  0
 14 16  1  0
 14 15  1  6
 16 17  1  1
 18 16  1  0
 19 18  2  0
 21 20  1  6
 21 23  1  0
 22 21  1  0
 23 25  1  0
 23 24  1  6
 24 18  1  0
 25 27  1  0
 26 25  2  0
M  END
$$$$
