FIV.pdb
     RDKit          3D

 27 27  0  0  1  0  0  0  0  0999 V2000
    4.9864  -17.4817   24.9450 N   0  0  0  0  0  0  0  0  0  0  0  0
    5.7277  -16.2391   25.0341 C   0  0  1  0  0  0  0  0  0  0  0  0
    6.0262  -16.0197   26.5118 C   0  0  0  0  0  0  0  0  0  0  0  0
    6.3524  -14.6005   26.7116 C   0  0  0  0  0  0  0  0  0  0  0  0
    7.6357  -14.2263   27.0290 C   0  0  0  0  0  0  0  0  0  0  0  0
    7.9323  -12.9027   27.2137 C   0  0  0  0  0  0  0  0  0  0  0  0
    6.9408  -11.9485   27.0803 C   0  0  0  0  0  0  0  0  0  0  0  0
    5.6412  -12.3141   26.7600 C   0  0  0  0  0  0  0  0  0  0  0  0
    5.3685  -13.6470   26.5798 C   0  0  0  0  0  0  0  0  0  0  0  0
    7.0357  -16.4485   24.3690 C   0  0  0  0  0  0  0  0  0  0  0  0
    7.6655  -17.5134   24.5132 O   0  0  0  0  0  0  0  0  0  0  0  0
    7.7681  -13.6918   19.9301 C   0  0  0  0  0  0  0  0  0  0  0  0
    7.8240  -14.6764   21.0507 C   0  0  0  0  0  0  0  0  0  0  0  0
    9.1020  -14.6465   21.8401 C   0  0  2  0  0  0  0  0  0  0  0  0
   10.3135  -14.9082   21.0038 C   0  0  0  0  0  0  0  0  0  0  0  0
    8.9955  -15.5857   23.0222 C   0  0  2  0  0  0  0  0  0  0  0  0
    7.6466  -15.4638   23.5368 N   0  0  0  0  0  0  0  0  0  0  0  0
   10.0161  -15.2845   24.0567 C   0  0  0  0  0  0  0  0  0  0  0  0
   10.6802  -14.2231   23.9278 O   0  0  0  0  0  0  0  0  0  0  0  0
    9.4868  -13.7404   26.7485 C   0  0  0  0  0  0  0  0  0  0  0  0
   10.2189  -14.9409   27.3080 C   0  0  2  0  0  0  0  0  0  0  0  0
   11.0868  -14.5399   28.4840 C   0  0  0  0  0  0  0  0  0  0  0  0
   11.1008  -15.5885   26.2652 C   0  0  2  0  0  0  0  0  0  0  0  0
   10.2914  -16.1018   25.1684 N   0  0  0  0  0  0  0  0  0  0  0  0
   11.8179  -16.7210   26.9253 C   0  0  0  0  0  0  0  0  0  0  0  0
   12.7046  -16.5136   27.7929 O   0  0  0  0  0  0  0  0  0  0  0  0
   11.5329  -18.0390   26.6064 O   0  0  0  0  0  0  0  0  0  0  0  0
  2  1  1  1
  3  2  1  0
  4  5  2  0
  4  3  1  0
  6  5  1  0
  7  6  2  0
  8  7  1  0
  8  9  2  0
  9  4  1  0
 10 17  1  0
 10  2  1  0
 11 10  2  0
 13 14  1  0
 13 12  1  0
 14 16  1  0
 14 15  1  6
 16 17  1  1
 18 16  1  0
 19 18  2  0
 21 20  1  6
 21 23  1  0
 22 21  1  0
 23 25  1  0
 23 24  1  6
 24 18  1  0
 25 27  1  0
 26 25  2  0
M  END
$$$$
