FIV.pdb
     RDKit          3D

 27 27  0  0  1  0  0  0  0  0999 V2000
    4.9363  -17.7992   24.4791 N   0  0  0  0  0  0  0  0  0  0  0  0
    5.5434  -16.4922   24.6369 C   0  0  1  0  0  0  0  0  0  0  0  0
    5.6724  -16.2545   26.1361 C   0  0  0  0  0  0  0  0  0  0  0  0
    6.0072  -14.8397   26.3526 C   0  0  0  0  0  0  0  0  0  0  0  0
    5.0437  -13.8723   26.2000 C   0  0  0  0  0  0  0  0  0  0  0  0
    5.3627  -12.5567   26.4032 C   0  0  0  0  0  0  0  0  0  0  0  0
    6.6515  -12.2066   26.7607 C   0  0  0  0  0  0  0  0  0  0  0  0
    7.6332  -13.1746   26.9178 C   0  0  0  0  0  0  0  0  0  0  0  0
    7.2891  -14.4866   26.7086 C   0  0  0  0  0  0  0  0  0  0  0  0
    6.9246  -16.5722   24.1050 C   0  0  0  0  0  0  0  0  0  0  0  0
    7.5795  -17.6292   24.1770 O   0  0  0  0  0  0  0  0  0  0  0  0
    7.8941  -13.0201   20.2440 C   0  0  0  0  0  0  0  0  0  0  0  0
    7.9171  -14.2564   21.0802 C   0  0  0  0  0  0  0  0  0  0  0  0
    9.0851  -14.3481   22.0208 C   0  0  2  0  0  0  0  0  0  0  0  0
   10.4051  -14.3402   21.3183 C   0  0  0  0  0  0  0  0  0  0  0  0
    8.9163  -15.5451   22.9314 C   0  0  2  0  0  0  0  0  0  0  0  0
    7.5810  -15.4659   23.4881 N   0  0  0  0  0  0  0  0  0  0  0  0
    9.9589  -15.5837   23.9869 C   0  0  0  0  0  0  0  0  0  0  0  0
   11.1621  -15.5732   23.6175 O   0  0  0  0  0  0  0  0  0  0  0  0
   10.0568  -13.0803   26.7494 C   0  0  0  0  0  0  0  0  0  0  0  0
   10.3778  -14.4229   27.3694 C   0  0  2  0  0  0  0  0  0  0  0  0
   11.5111  -14.2957   28.3678 C   0  0  0  0  0  0  0  0  0  0  0  0
   10.7787  -15.4363   26.3221 C   0  0  2  0  0  0  0  0  0  0  0  0
    9.6953  -15.6311   25.3682 N   0  0  0  0  0  0  0  0  0  0  0  0
   11.0566  -16.7239   27.0272 C   0  0  0  0  0  0  0  0  0  0  0  0
   12.0240  -16.8352   27.8233 O   0  0  0  0  0  0  0  0  0  0  0  0
   10.2603  -17.8407   26.8304 O   0  0  0  0  0  0  0  0  0  0  0  0
  2  1  1  1
  3  2  1  0
  4  5  2  0
  4  3  1  0
  6  5  1  0
  7  6  2  0
  8  7  1  0
  8  9  2  0
  9  4  1  0
 10 17  1  0
 10  2  1  0
 11 10  2  0
 13 14  1  0
 13 12  1  0
 14 16  1  0
 14 15  1  6
 16 17  1  1
 18 16  1  0
 19 18  2  0
 21 20  1  6
 21 23  1  0
 22 21  1  0
 23 25  1  0
 23 24  1  6
 24 18  1  0
 25 27  1  0
 26 25  2  0
M  END
$$$$
