FIV.pdb
     RDKit          3D

 27 27  0  0  1  0  0  0  0  0999 V2000
    5.0843  -17.6867   24.9037 N   0  0  0  0  0  0  0  0  0  0  0  0
    5.7441  -16.3961   24.9275 C   0  0  1  0  0  0  0  0  0  0  0  0
    6.2915  -16.2172   26.3378 C   0  0  0  0  0  0  0  0  0  0  0  0
    6.6953  -14.8134   26.5022 C   0  0  0  0  0  0  0  0  0  0  0  0
    5.7464  -13.8199   26.5116 C   0  0  0  0  0  0  0  0  0  0  0  0
    6.1298  -12.5147   26.6651 C   0  0  0  0  0  0  0  0  0  0  0  0
    7.4685  -12.2014   26.8100 C   0  0  0  0  0  0  0  0  0  0  0  0
    8.4359  -13.1961   26.8022 C   0  0  0  0  0  0  0  0  0  0  0  0
    8.0271  -14.4969   26.6469 C   0  0  0  0  0  0  0  0  0  0  0  0
    6.9200  -16.4770   24.0287 C   0  0  0  0  0  0  0  0  0  0  0  0
    7.6068  -17.5139   23.9628 O   0  0  0  0  0  0  0  0  0  0  0  0
    6.9140  -12.8115   20.0102 C   0  0  0  0  0  0  0  0  0  0  0  0
    7.0782  -14.0625   20.8077 C   0  0  0  0  0  0  0  0  0  0  0  0
    8.4316  -14.2224   21.4402 C   0  0  2  0  0  0  0  0  0  0  0  0
    9.5507  -14.1723   20.4499 C   0  0  0  0  0  0  0  0  0  0  0  0
    8.4566  -15.4778   22.2853 C   0  0  2  0  0  0  0  0  0  0  0  0
    7.3337  -15.3941   23.1971 N   0  0  0  0  0  0  0  0  0  0  0  0
    9.7467  -15.6314   23.0025 C   0  0  0  0  0  0  0  0  0  0  0  0
   10.0805  -14.7189   23.8027 O   0  0  0  0  0  0  0  0  0  0  0  0
   10.8754  -18.4741   25.2272 C   0  0  0  0  0  0  0  0  0  0  0  0
   11.9892  -18.1734   24.2479 C   0  0  2  0  0  0  0  0  0  0  0  0
   13.3398  -18.2493   24.9315 C   0  0  0  0  0  0  0  0  0  0  0  0
   11.8395  -16.7964   23.6429 C   0  0  2  0  0  0  0  0  0  0  0  0
   10.6200  -16.7241   22.8497 N   0  0  0  0  0  0  0  0  0  0  0  0
   13.0213  -16.5643   22.7587 C   0  0  0  0  0  0  0  0  0  0  0  0
   13.0775  -17.0581   21.6032 O   0  0  0  0  0  0  0  0  0  0  0  0
   14.0967  -15.7978   23.1783 O   0  0  0  0  0  0  0  0  0  0  0  0
  2  1  1  1
  3  2  1  0
  4  5  2  0
  4  3  1  0
  6  5  1  0
  7  6  2  0
  8  7  1  0
  8  9  2  0
  9  4  1  0
 10 17  1  0
 10  2  1  0
 11 10  2  0
 13 14  1  0
 13 12  1  0
 14 16  1  0
 14 15  1  6
 16 17  1  1
 18 16  1  0
 19 18  2  0
 21 20  1  1
 21 23  1  0
 22 21  1  0
 23 25  1  0
 23 24  1  6
 24 18  1  0
 25 27  1  0
 26 25  2  0
M  END
$$$$
