FIV.pdb
     RDKit          3D

 27 27  0  0  1  0  0  0  0  0999 V2000
    9.5878  -15.9820   20.4288 N   0  0  0  0  0  0  0  0  0  0  0  0
    8.5840  -16.2325   21.4442 C   0  0  1  0  0  0  0  0  0  0  0  0
    8.6478  -17.7223   21.7560 C   0  0  0  0  0  0  0  0  0  0  0  0
    7.8954  -18.4439   20.7198 C   0  0  0  0  0  0  0  0  0  0  0  0
    7.8079  -17.9309   19.4483 C   0  0  0  0  0  0  0  0  0  0  0  0
    7.1055  -18.6084   18.4884 C   0  0  0  0  0  0  0  0  0  0  0  0
    6.4873  -19.8048   18.8013 C   0  0  0  0  0  0  0  0  0  0  0  0
    6.5685  -20.3329   20.0819 C   0  0  0  0  0  0  0  0  0  0  0  0
    7.2783  -19.6354   21.0269 C   0  0  0  0  0  0  0  0  0  0  0  0
    9.0081  -15.5279   22.6774 C   0  0  0  0  0  0  0  0  0  0  0  0
   10.2144  -15.3539   22.9342 O   0  0  0  0  0  0  0  0  0  0  0  0
    6.6532  -11.8155   27.0547 C   0  0  0  0  0  0  0  0  0  0  0  0
    7.7373  -12.6805   26.5028 C   0  0  0  0  0  0  0  0  0  0  0  0
    7.3514  -13.4497   25.2712 C   0  0  2  0  0  0  0  0  0  0  0  0
    6.0519  -14.1750   25.4167 C   0  0  0  0  0  0  0  0  0  0  0  0
    8.4864  -14.3632   24.8616 C   0  0  2  0  0  0  0  0  0  0  0  0
    8.0809  -15.0133   23.6319 N   0  0  0  0  0  0  0  0  0  0  0  0
    8.8156  -15.3421   25.9273 C   0  0  0  0  0  0  0  0  0  0  0  0
    7.9109  -16.1417   26.2832 O   0  0  0  0  0  0  0  0  0  0  0  0
   12.8021  -16.1788   27.2745 C   0  0  0  0  0  0  0  0  0  0  0  0
   11.6700  -17.1749   27.1475 C   0  0  2  0  0  0  0  0  0  0  0  0
   11.6016  -17.7329   25.7399 C   0  0  0  0  0  0  0  0  0  0  0  0
   10.3360  -16.5435   27.4738 C   0  0  2  0  0  0  0  0  0  0  0  0
   10.0659  -15.4375   26.5654 N   0  0  0  0  0  0  0  0  0  0  0  0
   10.4145  -16.0281   28.8740 C   0  0  0  0  0  0  0  0  0  0  0  0
   10.3803  -14.7944   29.1171 O   0  0  0  0  0  0  0  0  0  0  0  0
   10.5277  -16.8885   29.9542 O   0  0  0  0  0  0  0  0  0  0  0  0
  2  1  1  6
  3  2  1  0
  4  5  2  0
  4  3  1  0
  6  5  1  0
  7  6  2  0
  8  7  1  0
  8  9  2  0
  9  4  1  0
 10 17  1  0
 10  2  1  0
 11 10  2  0
 13 14  1  0
 13 12  1  0
 14 16  1  0
 14 15  1  1
 16 17  1  6
 18 16  1  0
 19 18  2  0
 21 20  1  6
 21 23  1  0
 22 21  1  0
 23 25  1  0
 23 24  1  6
 24 18  1  0
 25 27  1  0
 26 25  2  0
M  END
$$$$
