FIV.pdb
     RDKit          3D

 27 27  0  0  1  0  0  0  0  0999 V2000
    5.2821  -17.8140   25.0521 N   0  0  0  0  0  0  0  0  0  0  0  0
    5.8197  -16.4683   25.0137 C   0  0  1  0  0  0  0  0  0  0  0  0
    6.2752  -16.1448   26.4310 C   0  0  0  0  0  0  0  0  0  0  0  0
    6.4855  -14.6934   26.5290 C   0  0  0  0  0  0  0  0  0  0  0  0
    5.4280  -13.8313   26.3671 C   0  0  0  0  0  0  0  0  0  0  0  0
    5.6313  -12.4807   26.4596 C   0  0  0  0  0  0  0  0  0  0  0  0
    6.8982  -11.9897   26.7153 C   0  0  0  0  0  0  0  0  0  0  0  0
    7.9739  -12.8505   26.8806 C   0  0  0  0  0  0  0  0  0  0  0  0
    7.7451  -14.2001   26.7834 C   0  0  0  0  0  0  0  0  0  0  0  0
    7.0430  -16.4979   24.1771 C   0  0  0  0  0  0  0  0  0  0  0  0
    7.8488  -17.4446   24.2523 O   0  0  0  0  0  0  0  0  0  0  0  0
    6.9710  -12.8941   20.0158 C   0  0  0  0  0  0  0  0  0  0  0  0
    7.1249  -14.1434   20.8181 C   0  0  0  0  0  0  0  0  0  0  0  0
    8.4606  -14.2890   21.4903 C   0  0  2  0  0  0  0  0  0  0  0  0
    9.6087  -14.2097   20.5356 C   0  0  0  0  0  0  0  0  0  0  0  0
    8.4801  -15.5535   22.3219 C   0  0  2  0  0  0  0  0  0  0  0  0
    7.3708  -15.4646   23.2495 N   0  0  0  0  0  0  0  0  0  0  0  0
    9.7776  -15.7318   23.0200 C   0  0  0  0  0  0  0  0  0  0  0  0
   10.1647  -14.8027   23.7757 O   0  0  0  0  0  0  0  0  0  0  0  0
   10.8829  -18.4917   25.3493 C   0  0  0  0  0  0  0  0  0  0  0  0
   11.9731  -18.2868   24.3199 C   0  0  2  0  0  0  0  0  0  0  0  0
   13.3424  -18.3729   24.9640 C   0  0  0  0  0  0  0  0  0  0  0  0
   11.8504  -16.9414   23.6421 C   0  0  2  0  0  0  0  0  0  0  0  0
   10.6022  -16.8650   22.8953 N   0  0  0  0  0  0  0  0  0  0  0  0
   13.0018  -16.8077   22.6994 C   0  0  0  0  0  0  0  0  0  0  0  0
   12.9832  -17.3538   21.5664 O   0  0  0  0  0  0  0  0  0  0  0  0
   14.1304  -16.0785   23.0379 O   0  0  0  0  0  0  0  0  0  0  0  0
  2  1  1  1
  3  2  1  0
  4  5  2  0
  4  3  1  0
  6  5  1  0
  7  6  2  0
  8  7  1  0
  8  9  2  0
  9  4  1  0
 10 17  1  0
 10  2  1  0
 11 10  2  0
 13 14  1  0
 13 12  1  0
 14 16  1  0
 14 15  1  6
 16 17  1  1
 18 16  1  0
 19 18  2  0
 21 20  1  1
 21 23  1  0
 22 21  1  0
 23 25  1  0
 23 24  1  6
 24 18  1  0
 25 27  1  0
 26 25  2  0
M  END
$$$$
