HCA.pdb
     RDKit          3D

 22 22  0  0  1  0  0  0  0  0999 V2000
   19.0735   -9.3959  -17.1307 N   0  0  0  0  0  0  0  0  0  0  0  0
   19.5694   -8.1030  -16.6267 C   0  0  1  0  0  0  0  0  0  0  0  0
   18.8504   -6.9904  -17.2813 C   0  0  0  0  0  0  0  0  0  0  0  0
   19.1722   -6.7479  -18.7027 C   0  0  0  0  0  0  0  0  0  0  0  0
   19.8732   -5.7377  -19.3136 C   0  0  0  0  0  0  0  0  0  0  0  0
   19.9566   -5.9990  -20.6417 N   0  0  0  0  0  0  0  0  0  0  0  0
   19.3265   -7.1458  -20.8687 C   0  0  0  0  0  0  0  0  0  0  0  0
   18.8493   -7.6114  -19.7200 N   0  0  0  0  0  0  0  0  0  0  0  0
   19.3310   -8.1284  -15.1339 C   0  0  0  0  0  0  0  0  0  0  0  0
   18.2866   -8.5279  -14.6514 O   0  0  0  0  0  0  0  0  0  0  0  0
   20.3180   -7.6842  -14.1980 N   0  0  0  0  0  0  0  0  0  0  0  0
   20.1644   -7.7216  -12.7849 C   0  0  1  0  0  0  0  0  0  0  0  0
   21.4481   -7.7837  -12.0113 C   0  0  0  0  0  0  0  0  0  0  0  0
   22.4789   -9.1801  -12.4444 S   0  0  0  0  0  0  0  0  0  0  0  0
   19.3604   -6.6000  -12.2413 C   0  0  0  0  0  0  0  0  0  0  0  0
   19.7142   -5.4347  -12.5963 O   0  0  0  0  0  0  0  0  0  0  0  0
   16.1997   -5.5035  -11.5568 C   0  0  0  0  0  0  0  0  0  0  0  0
   17.5667   -5.6125  -10.8871 C   0  0  2  0  0  0  0  0  0  0  0  0
   18.2542   -6.7688  -11.3738 N   0  0  0  0  0  0  0  0  0  0  0  0
   17.4257   -5.6083   -9.4090 C   0  0  0  0  0  0  0  0  0  0  0  0
   17.7431   -6.6663   -8.8076 O   0  0  0  0  0  0  0  0  0  0  0  0
   16.9790   -4.5420   -8.6706 O   0  0  0  0  0  0  0  0  0  0  0  0
  2  1  1  6
  2  9  1  0
  2  3  1  0
  3  4  1  0
  4  8  1  0
  4  5  2  0
  5  6  1  0
  7  6  1  0
  8  7  2  0
  9 11  1  0
 10  9  2  0
 11 12  1  0
 12 15  1  0
 12 13  1  1
 13 14  1  0
 15 16  2  0
 15 19  1  0
 18 20  1  0
 18 17  1  6
 19 18  1  0
 20 22  1  0
 21 20  2  0
M  END
$$$$
