HCA.pdb
     RDKit          3D

 22 22  0  0  1  0  0  0  0  0999 V2000
   20.4634  -11.4860  -17.0831 N   0  0  0  0  0  0  0  0  0  0  0  0
   21.4168  -10.3646  -17.0124 C   0  0  1  0  0  0  0  0  0  0  0  0
   21.8869  -10.0083  -18.3672 C   0  0  0  0  0  0  0  0  0  0  0  0
   22.6794  -11.0334  -19.0770 C   0  0  0  0  0  0  0  0  0  0  0  0
   24.0063  -11.3752  -18.9881 C   0  0  0  0  0  0  0  0  0  0  0  0
   24.2440  -12.4356  -19.7993 N   0  0  0  0  0  0  0  0  0  0  0  0
   23.0982  -12.7602  -20.3871 C   0  0  0  0  0  0  0  0  0  0  0  0
   22.1479  -11.9326  -19.9678 N   0  0  0  0  0  0  0  0  0  0  0  0
   20.6627   -9.2283  -16.3597 C   0  0  0  0  0  0  0  0  0  0  0  0
   19.4894   -9.0071  -16.5998 O   0  0  0  0  0  0  0  0  0  0  0  0
   21.2822   -8.3441  -15.4206 N   0  0  0  0  0  0  0  0  0  0  0  0
   20.5976   -7.3334  -14.6914 C   0  0  1  0  0  0  0  0  0  0  0  0
   20.5498   -7.5476  -13.2075 C   0  0  0  0  0  0  0  0  0  0  0  0
   19.7230   -9.0598  -12.7280 S   0  0  0  0  0  0  0  0  0  0  0  0
   21.1154   -5.9654  -14.9362 C   0  0  0  0  0  0  0  0  0  0  0  0
   22.3647   -5.8048  -14.7854 O   0  0  0  0  0  0  0  0  0  0  0  0
   19.9454   -2.7056  -16.3388 C   0  0  0  0  0  0  0  0  0  0  0  0
   20.9174   -3.6047  -15.5799 C   0  0  2  0  0  0  0  0  0  0  0  0
   20.3035   -4.8699  -15.3176 N   0  0  0  0  0  0  0  0  0  0  0  0
   21.3957   -2.9318  -14.3457 C   0  0  0  0  0  0  0  0  0  0  0  0
   20.8956   -3.3209  -13.2594 O   0  0  0  0  0  0  0  0  0  0  0  0
   22.3324   -1.9299  -14.3159 O   0  0  0  0  0  0  0  0  0  0  0  0
  2  1  1  6
  2  9  1  0
  2  3  1  0
  3  4  1  0
  4  8  1  0
  4  5  2  0
  5  6  1  0
  7  6  1  0
  8  7  2  0
  9 11  1  0
 10  9  2  0
 11 12  1  0
 12 15  1  0
 12 13  1  1
 13 14  1  0
 15 16  2  0
 15 19  1  0
 18 20  1  0
 18 17  1  1
 19 18  1  0
 20 22  1  0
 21 20  2  0
M  END
$$$$
