HCA.pdb
     RDKit          3D

 22 22  0  0  1  0  0  0  0  0999 V2000
   20.1497  -12.1255  -16.5456 N   0  0  0  0  0  0  0  0  0  0  0  0
   20.7681  -10.8677  -17.0004 C   0  0  1  0  0  0  0  0  0  0  0  0
   20.5378  -10.6800  -18.4478 C   0  0  0  0  0  0  0  0  0  0  0  0
   21.2219  -11.6299  -19.3492 C   0  0  0  0  0  0  0  0  0  0  0  0
   22.3836  -11.5168  -20.0722 C   0  0  0  0  0  0  0  0  0  0  0  0
   22.6317  -12.6952  -20.6958 N   0  0  0  0  0  0  0  0  0  0  0  0
   21.6542  -13.5356  -20.3764 C   0  0  0  0  0  0  0  0  0  0  0  0
   20.7991  -12.9172  -19.5700 N   0  0  0  0  0  0  0  0  0  0  0  0
   20.1215   -9.7749  -16.1796 C   0  0  0  0  0  0  0  0  0  0  0  0
   18.9165   -9.7175  -16.0120 O   0  0  0  0  0  0  0  0  0  0  0  0
   20.8862   -8.7420  -15.5505 N   0  0  0  0  0  0  0  0  0  0  0  0
   20.3375   -7.7165  -14.7325 C   0  0  1  0  0  0  0  0  0  0  0  0
   20.7946   -7.7355  -13.3039 C   0  0  0  0  0  0  0  0  0  0  0  0
   20.5081   -9.2977  -12.4807 S   0  0  0  0  0  0  0  0  0  0  0  0
   20.5576   -6.3484  -15.2614 C   0  0  0  0  0  0  0  0  0  0  0  0
   21.7017   -6.1182  -15.7586 O   0  0  0  0  0  0  0  0  0  0  0  0
   18.6316   -3.2299  -15.9897 C   0  0  0  0  0  0  0  0  0  0  0  0
   19.9080   -4.0333  -15.7558 C   0  0  2  0  0  0  0  0  0  0  0  0
   19.5797   -5.3248  -15.2359 N   0  0  0  0  0  0  0  0  0  0  0  0
   20.8440   -3.2830  -14.8807 C   0  0  0  0  0  0  0  0  0  0  0  0
   20.8902   -3.6305  -13.6728 O   0  0  0  0  0  0  0  0  0  0  0  0
   21.6475   -2.2528  -15.2988 O   0  0  0  0  0  0  0  0  0  0  0  0
  2  1  1  1
  2  9  1  0
  2  3  1  0
  3  4  1  0
  4  8  1  0
  4  5  2  0
  5  6  1  0
  7  6  1  0
  8  7  2  0
  9 11  1  0
 10  9  2  0
 11 12  1  0
 12 15  1  0
 12 13  1  1
 13 14  1  0
 15 16  2  0
 15 19  1  0
 18 20  1  0
 18 17  1  1
 19 18  1  0
 20 22  1  0
 21 20  2  0
M  END
$$$$
