HCA.pdb
     RDKit          3D

 22 22  0  0  1  0  0  0  0  0999 V2000
   19.1635  -12.4451  -18.2465 N   0  0  0  0  0  0  0  0  0  0  0  0
   20.4495  -11.9637  -17.7120 C   0  0  1  0  0  0  0  0  0  0  0  0
   21.5713  -12.5604  -18.4663 C   0  0  0  0  0  0  0  0  0  0  0  0
   21.7318  -14.0248  -18.3534 C   0  0  0  0  0  0  0  0  0  0  0  0
   21.1761  -15.0554  -19.0704 C   0  0  0  0  0  0  0  0  0  0  0  0
   21.6934  -16.2289  -18.6296 N   0  0  0  0  0  0  0  0  0  0  0  0
   22.5563  -15.9514  -17.6590 C   0  0  0  0  0  0  0  0  0  0  0  0
   22.5946  -14.6362  -17.4779 N   0  0  0  0  0  0  0  0  0  0  0  0
   20.4122  -10.4587  -17.8526 C   0  0  0  0  0  0  0  0  0  0  0  0
   20.0646   -9.9129  -18.8843 O   0  0  0  0  0  0  0  0  0  0  0  0
   20.7833   -9.5850  -16.7819 N   0  0  0  0  0  0  0  0  0  0  0  0
   20.6893   -8.1669  -16.8285 C   0  0  1  0  0  0  0  0  0  0  0  0
   19.2907   -7.6252  -16.8045 C   0  0  0  0  0  0  0  0  0  0  0  0
   18.1736   -8.5711  -15.7761 S   0  0  0  0  0  0  0  0  0  0  0  0
   21.4600   -7.4817  -15.7625 C   0  0  0  0  0  0  0  0  0  0  0  0
   21.4288   -8.0212  -14.6149 O   0  0  0  0  0  0  0  0  0  0  0  0
   23.7868   -4.5694  -15.3523 C   0  0  0  0  0  0  0  0  0  0  0  0
   22.9037   -5.7129  -14.8606 C   0  0  2  0  0  0  0  0  0  0  0  0
   22.2026   -6.2932  -15.9643 N   0  0  0  0  0  0  0  0  0  0  0  0
   21.9937   -5.2442  -13.7850 C   0  0  0  0  0  0  0  0  0  0  0  0
   20.8537   -4.8496  -14.1407 O   0  0  0  0  0  0  0  0  0  0  0  0
   22.3121   -5.2148  -12.4509 O   0  0  0  0  0  0  0  0  0  0  0  0
  2  1  1  6
  2  9  1  0
  2  3  1  0
  3  4  1  0
  4  8  1  0
  4  5  2  0
  5  6  1  0
  7  6  1  0
  8  7  2  0
  9 11  1  0
 10  9  2  0
 11 12  1  0
 12 15  1  0
 12 13  1  1
 13 14  1  0
 15 16  2  0
 15 19  1  0
 18 20  1  0
 18 17  1  6
 19 18  1  0
 20 22  1  0
 21 20  2  0
M  END
$$$$
