HCA.pdb
     RDKit          3D

 22 22  0  0  1  0  0  0  0  0999 V2000
   23.0907  -32.8964  -11.9079 N   0  0  0  0  0  0  0  0  0  0  0  0
   23.5322  -32.1099  -10.7426 C   0  0  1  0  0  0  0  0  0  0  0  0
   22.3669  -31.5079  -10.0621 C   0  0  0  0  0  0  0  0  0  0  0  0
   21.7482  -30.3433  -10.7282 C   0  0  0  0  0  0  0  0  0  0  0  0
   21.1425  -30.2163  -11.9538 C   0  0  0  0  0  0  0  0  0  0  0  0
   20.6667  -28.9529  -12.0820 N   0  0  0  0  0  0  0  0  0  0  0  0
   20.9609  -28.2946  -10.9668 C   0  0  0  0  0  0  0  0  0  0  0  0
   21.6087  -29.1097  -10.1421 N   0  0  0  0  0  0  0  0  0  0  0  0
   24.2674  -33.0826   -9.8486 C   0  0  0  0  0  0  0  0  0  0  0  0
   24.0210  -34.2753   -9.8481 O   0  0  0  0  0  0  0  0  0  0  0  0
   25.2969  -32.6605   -8.9490 N   0  0  0  0  0  0  0  0  0  0  0  0
   26.0728  -33.5375   -8.1423 C   0  0  1  0  0  0  0  0  0  0  0  0
   27.5543  -33.4525   -8.3613 C   0  0  0  0  0  0  0  0  0  0  0  0
   28.5004  -34.5215   -7.2831 S   0  0  0  0  0  0  0  0  0  0  0  0
   25.8197  -33.3924   -6.6881 C   0  0  0  0  0  0  0  0  0  0  0  0
   26.0081  -32.2368   -6.2001 O   0  0  0  0  0  0  0  0  0  0  0  0
   24.0006  -35.0167   -3.9539 C   0  0  0  0  0  0  0  0  0  0  0  0
   25.1874  -34.2002   -4.4578 C   0  0  2  0  0  0  0  0  0  0  0  0
   25.3921  -34.4514   -5.8512 N   0  0  0  0  0  0  0  0  0  0  0  0
   26.3960  -34.4772   -3.6409 C   0  0  0  0  0  0  0  0  0  0  0  0
   27.2522  -35.2503   -4.1419 O   0  0  0  0  0  0  0  0  0  0  0  0
   26.6338  -33.9524   -2.3960 O   0  0  0  0  0  0  0  0  0  0  0  0
  2  1  1  6
  2  9  1  0
  2  3  1  0
  3  4  1  0
  4  8  1  0
  4  5  2  0
  5  6  1  0
  7  6  1  0
  8  7  2  0
  9 11  1  0
 10  9  2  0
 11 12  1  0
 12 15  1  0
 12 13  1  1
 13 14  1  0
 15 16  2  0
 15 19  1  0
 18 20  1  0
 18 17  1  1
 19 18  1  0
 20 22  1  0
 21 20  2  0
M  END
$$$$
