HCA.pdb
     RDKit          3D

 22 22  0  0  1  0  0  0  0  0999 V2000
   22.5268  -11.2850  -18.9953 N   0  0  0  0  0  0  0  0  0  0  0  0
   21.0775  -11.1115  -18.7937 C   0  0  1  0  0  0  0  0  0  0  0  0
   20.4036  -12.4264  -18.7767 C   0  0  0  0  0  0  0  0  0  0  0  0
   20.4056  -13.1806  -20.0470 C   0  0  0  0  0  0  0  0  0  0  0  0
   19.8498  -12.8972  -21.2702 C   0  0  0  0  0  0  0  0  0  0  0  0
   20.1897  -13.8747  -22.1465 N   0  0  0  0  0  0  0  0  0  0  0  0
   20.9429  -14.7554  -21.4978 C   0  0  0  0  0  0  0  0  0  0  0  0
   21.0848  -14.3582  -20.2385 N   0  0  0  0  0  0  0  0  0  0  0  0
   20.9328  -10.3860  -17.4751 C   0  0  0  0  0  0  0  0  0  0  0  0
   19.8633  -10.2952  -16.8997 O   0  0  0  0  0  0  0  0  0  0  0  0
   22.0437   -9.7622  -16.8238 N   0  0  0  0  0  0  0  0  0  0  0  0
   21.9888   -9.1553  -15.5391 C   0  0  1  0  0  0  0  0  0  0  0  0
   22.9778   -9.6889  -14.5455 C   0  0  0  0  0  0  0  0  0  0  0  0
   22.9500  -11.4711  -14.3933 S   0  0  0  0  0  0  0  0  0  0  0  0
   22.1271   -7.6789  -15.5693 C   0  0  0  0  0  0  0  0  0  0  0  0
   23.0618   -7.2194  -16.2933 O   0  0  0  0  0  0  0  0  0  0  0  0
   20.0637   -4.7082  -14.9430 C   0  0  0  0  0  0  0  0  0  0  0  0
   21.4281   -5.3829  -15.0533 C   0  0  2  0  0  0  0  0  0  0  0  0
   21.2900   -6.7922  -14.8499 N   0  0  0  0  0  0  0  0  0  0  0  0
   22.3960   -4.7597  -14.1154 C   0  0  0  0  0  0  0  0  0  0  0  0
   22.4754   -5.2649  -12.9664 O   0  0  0  0  0  0  0  0  0  0  0  0
   23.1951   -3.6864  -14.4176 O   0  0  0  0  0  0  0  0  0  0  0  0
  2  1  1  1
  2  9  1  0
  2  3  1  0
  3  4  1  0
  4  8  1  0
  4  5  2  0
  5  6  1  0
  7  6  1  0
  8  7  2  0
  9 11  1  0
 10  9  2  0
 11 12  1  0
 12 15  1  0
 12 13  1  1
 13 14  1  0
 15 16  2  0
 15 19  1  0
 18 20  1  0
 18 17  1  1
 19 18  1  0
 20 22  1  0
 21 20  2  0
M  END
$$$$
