HCA.pdb
     RDKit          3D

 22 22  0  0  1  0  0  0  0  0999 V2000
   22.9773  -19.4265  -17.8201 N   0  0  0  0  0  0  0  0  0  0  0  0
   23.6373  -18.5873  -16.8045 C   0  0  1  0  0  0  0  0  0  0  0  0
   22.6538  -17.6851  -16.1703 C   0  0  0  0  0  0  0  0  0  0  0  0
   21.9277  -16.7684  -17.0730 C   0  0  0  0  0  0  0  0  0  0  0  0
   22.3749  -15.9276  -18.0622 C   0  0  0  0  0  0  0  0  0  0  0  0
   21.3075  -15.3420  -18.6595 N   0  0  0  0  0  0  0  0  0  0  0  0
   20.2107  -15.7996  -18.0666 C   0  0  0  0  0  0  0  0  0  0  0  0
   20.5601  -16.6558  -17.1133 N   0  0  0  0  0  0  0  0  0  0  0  0
   24.2426  -19.5513  -15.8093 C   0  0  0  0  0  0  0  0  0  0  0  0
   23.6966  -20.5967  -15.5056 O   0  0  0  0  0  0  0  0  0  0  0  0
   25.4934  -19.2933  -15.1640 N   0  0  0  0  0  0  0  0  0  0  0  0
   26.1317  -20.1828  -14.2567 C   0  0  1  0  0  0  0  0  0  0  0  0
   27.6165  -20.3053  -14.4311 C   0  0  0  0  0  0  0  0  0  0  0  0
   28.2956  -19.1544  -15.6204 S   0  0  0  0  0  0  0  0  0  0  0  0
   25.8660  -19.8739  -12.8306 C   0  0  0  0  0  0  0  0  0  0  0  0
   25.5186  -18.6816  -12.5718 O   0  0  0  0  0  0  0  0  0  0  0  0
   24.1002  -20.1524  -10.4123 C   0  0  0  0  0  0  0  0  0  0  0  0
   25.5982  -20.4411  -10.4572 C   0  0  2  0  0  0  0  0  0  0  0  0
   25.9795  -20.8196  -11.7830 N   0  0  0  0  0  0  0  0  0  0  0  0
   25.9639  -21.4606   -9.4415 C   0  0  0  0  0  0  0  0  0  0  0  0
   26.4469  -22.5393   -9.8715 O   0  0  0  0  0  0  0  0  0  0  0  0
   25.8111  -21.3032   -8.0873 O   0  0  0  0  0  0  0  0  0  0  0  0
  2  1  1  6
  2  9  1  0
  2  3  1  0
  3  4  1  0
  4  8  1  0
  4  5  2  0
  5  6  1  0
  7  6  1  0
  8  7  2  0
  9 11  1  0
 10  9  2  0
 11 12  1  0
 12 15  1  0
 12 13  1  1
 13 14  1  0
 15 16  2  0
 15 19  1  0
 18 20  1  0
 18 17  1  6
 19 18  1  0
 20 22  1  0
 21 20  2  0
M  END
$$$$
