HCA.pdb
     RDKit          3D

 22 22  0  0  1  0  0  0  0  0999 V2000
   17.6413  -10.2683  -14.5840 N   0  0  0  0  0  0  0  0  0  0  0  0
   18.5892   -9.5746  -15.4737 C   0  0  1  0  0  0  0  0  0  0  0  0
   17.9790   -9.3611  -16.8025 C   0  0  0  0  0  0  0  0  0  0  0  0
   17.7066  -10.5736  -17.6014 C   0  0  0  0  0  0  0  0  0  0  0  0
   16.5419  -11.2619  -17.8355 C   0  0  0  0  0  0  0  0  0  0  0  0
   16.7949  -12.2768  -18.6987 N   0  0  0  0  0  0  0  0  0  0  0  0
   18.0861  -12.2337  -19.0062 C   0  0  0  0  0  0  0  0  0  0  0  0
   18.6508  -11.2203  -18.3596 N   0  0  0  0  0  0  0  0  0  0  0  0
   18.9140   -8.2683  -14.7853 C   0  0  0  0  0  0  0  0  0  0  0  0
   18.1192   -7.7070  -14.0529 O   0  0  0  0  0  0  0  0  0  0  0  0
   20.1747   -7.6126  -14.9529 N   0  0  0  0  0  0  0  0  0  0  0  0
   20.5160   -6.3601  -14.3728 C   0  0  1  0  0  0  0  0  0  0  0  0
   21.9422   -6.2394  -13.9237 C   0  0  0  0  0  0  0  0  0  0  0  0
   22.3923   -4.5881  -13.4036 S   0  0  0  0  0  0  0  0  0  0  0  0
   20.2137   -5.1968  -15.2419 C   0  0  0  0  0  0  0  0  0  0  0  0
   20.8254   -5.1543  -16.3523 O   0  0  0  0  0  0  0  0  0  0  0  0
   17.5743   -2.7976  -15.8897 C   0  0  0  0  0  0  0  0  0  0  0  0
   19.0677   -3.1057  -15.8250 C   0  0  2  0  0  0  0  0  0  0  0  0
   19.3037   -4.1684  -14.8970 N   0  0  0  0  0  0  0  0  0  0  0  0
   19.8402   -1.8794  -15.5022 C   0  0  0  0  0  0  0  0  0  0  0  0
   20.2818   -1.7818  -14.3287 O   0  0  0  0  0  0  0  0  0  0  0  0
   20.0982   -0.8637  -16.3875 O   0  0  0  0  0  0  0  0  0  0  0  0
  2  1  1  1
  2  9  1  0
  2  3  1  0
  3  4  1  0
  4  8  1  0
  4  5  2  0
  5  6  1  0
  7  6  1  0
  8  7  2  0
  9 11  1  0
 10  9  2  0
 11 12  1  0
 12 15  1  0
 12 13  1  6
 13 14  1  0
 15 16  2  0
 15 19  1  0
 18 20  1  0
 18 17  1  1
 19 18  1  0
 20 22  1  0
 21 20  2  0
M  END
$$$$
