HCA.pdb
     RDKit          3D

 22 22  0  0  1  0  0  0  0  0999 V2000
   19.5748  -13.3881  -16.4188 N   0  0  0  0  0  0  0  0  0  0  0  0
   19.5099  -11.9622  -16.7849 C   0  0  1  0  0  0  0  0  0  0  0  0
   18.1057  -11.5524  -16.9938 C   0  0  0  0  0  0  0  0  0  0  0  0
   17.4136  -12.1508  -18.1538 C   0  0  0  0  0  0  0  0  0  0  0  0
   16.4674  -13.1427  -18.2318 C   0  0  0  0  0  0  0  0  0  0  0  0
   16.0878  -13.2896  -19.5254 N   0  0  0  0  0  0  0  0  0  0  0  0
   16.7735  -12.4132  -20.2503 C   0  0  0  0  0  0  0  0  0  0  0  0
   17.5735  -11.7205  -19.4476 N   0  0  0  0  0  0  0  0  0  0  0  0
   20.1507  -11.2163  -15.6364 C   0  0  0  0  0  0  0  0  0  0  0  0
   19.8726  -11.4533  -14.4746 O   0  0  0  0  0  0  0  0  0  0  0  0
   21.1223  -10.1869  -15.8453 N   0  0  0  0  0  0  0  0  0  0  0  0
   21.7299   -9.4285  -14.8072 C   0  0  1  0  0  0  0  0  0  0  0  0
   23.1572   -9.7864  -14.5157 C   0  0  0  0  0  0  0  0  0  0  0  0
   23.6766  -11.3265  -15.2630 S   0  0  0  0  0  0  0  0  0  0  0  0
   21.6641   -7.9623  -15.0214 C   0  0  0  0  0  0  0  0  0  0  0  0
   22.0994   -7.5397  -16.1354 O   0  0  0  0  0  0  0  0  0  0  0  0
   19.7443   -5.0815  -14.1377 C   0  0  0  0  0  0  0  0  0  0  0  0
   21.1389   -5.6511  -14.3820 C   0  0  2  0  0  0  0  0  0  0  0  0
   21.1542   -7.0470  -14.0692 N   0  0  0  0  0  0  0  0  0  0  0  0
   22.1573   -4.8817  -13.6233 C   0  0  0  0  0  0  0  0  0  0  0  0
   22.3556   -3.6942  -13.9871 O   0  0  0  0  0  0  0  0  0  0  0  0
   22.8830   -5.3753  -12.5690 O   0  0  0  0  0  0  0  0  0  0  0  0
  2  1  1  1
  2  9  1  0
  2  3  1  0
  3  4  1  0
  4  8  1  0
  4  5  2  0
  5  6  1  0
  7  6  1  0
  8  7  2  0
  9 11  1  0
 10  9  2  0
 11 12  1  0
 12 15  1  0
 12 13  1  6
 13 14  1  0
 15 16  2  0
 15 19  1  0
 18 20  1  0
 18 17  1  1
 19 18  1  0
 20 22  1  0
 21 20  2  0
M  END
$$$$
