HCA.pdb
     RDKit          3D

 22 22  0  0  1  0  0  0  0  0999 V2000
   17.8151  -11.8421  -15.9813 N   0  0  0  0  0  0  0  0  0  0  0  0
   18.7061  -11.0170  -16.8160 C   0  0  1  0  0  0  0  0  0  0  0  0
   18.1090  -10.8124  -18.1521 C   0  0  0  0  0  0  0  0  0  0  0  0
   17.9728  -12.0144  -19.0004 C   0  0  0  0  0  0  0  0  0  0  0  0
   18.8641  -12.6380  -19.8381 C   0  0  0  0  0  0  0  0  0  0  0  0
   18.2860  -13.7553  -20.3446 N   0  0  0  0  0  0  0  0  0  0  0  0
   17.0601  -13.8403  -19.8409 C   0  0  0  0  0  0  0  0  0  0  0  0
   16.8525  -12.8071  -19.0327 N   0  0  0  0  0  0  0  0  0  0  0  0
   18.8752   -9.7140  -16.0679 C   0  0  0  0  0  0  0  0  0  0  0  0
   17.9396   -9.1497  -15.5301 O   0  0  0  0  0  0  0  0  0  0  0  0
   20.1448   -9.0652  -15.9470 N   0  0  0  0  0  0  0  0  0  0  0  0
   20.3630   -7.8418  -15.2560 C   0  0  1  0  0  0  0  0  0  0  0  0
   21.7087   -7.7149  -14.6055 C   0  0  0  0  0  0  0  0  0  0  0  0
   21.9741   -8.8805  -13.2747 S   0  0  0  0  0  0  0  0  0  0  0  0
   20.1476   -6.6363  -16.0928 C   0  0  0  0  0  0  0  0  0  0  0  0
   20.3784   -6.7679  -17.3332 O   0  0  0  0  0  0  0  0  0  0  0  0
   18.3587   -4.8162  -17.5072 C   0  0  0  0  0  0  0  0  0  0  0  0
   19.3971   -4.3344  -16.4979 C   0  0  2  0  0  0  0  0  0  0  0  0
   19.7110   -5.3893  -15.5840 N   0  0  0  0  0  0  0  0  0  0  0  0
   18.9280   -3.1028  -15.8138 C   0  0  0  0  0  0  0  0  0  0  0  0
   18.4953   -3.2375  -14.6406 O   0  0  0  0  0  0  0  0  0  0  0  0
   18.9363   -1.8492  -16.3708 O   0  0  0  0  0  0  0  0  0  0  0  0
  2  1  1  1
  2  9  1  0
  2  3  1  0
  3  4  1  0
  4  8  1  0
  4  5  2  0
  5  6  1  0
  7  6  1  0
  8  7  2  0
  9 11  1  0
 10  9  2  0
 11 12  1  0
 12 15  1  0
 12 13  1  6
 13 14  1  0
 15 16  2  0
 15 19  1  0
 18 20  1  0
 18 17  1  6
 19 18  1  0
 20 22  1  0
 21 20  2  0
M  END
$$$$
