HCA.pdb
     RDKit          3D

 22 22  0  0  1  0  0  0  0  0999 V2000
   27.8857  -31.9479  -14.0443 N   0  0  0  0  0  0  0  0  0  0  0  0
   26.9416  -33.0483  -13.7812 C   0  0  1  0  0  0  0  0  0  0  0  0
   27.2003  -34.1740  -14.7028 C   0  0  0  0  0  0  0  0  0  0  0  0
   26.9998  -33.9030  -16.1412 C   0  0  0  0  0  0  0  0  0  0  0  0
   27.8917  -33.8291  -17.1824 C   0  0  0  0  0  0  0  0  0  0  0  0
   27.2080  -33.6242  -18.3355 N   0  0  0  0  0  0  0  0  0  0  0  0
   25.9154  -33.5708  -18.0353 C   0  0  0  0  0  0  0  0  0  0  0  0
   25.7688  -33.7360  -16.7256 N   0  0  0  0  0  0  0  0  0  0  0  0
   27.1623  -33.4390  -12.3373 C   0  0  0  0  0  0  0  0  0  0  0  0
   28.2463  -33.3255  -11.7940 O   0  0  0  0  0  0  0  0  0  0  0  0
   26.1108  -33.9657  -11.5222 N   0  0  0  0  0  0  0  0  0  0  0  0
   26.1992  -34.1576  -10.1161 C   0  0  1  0  0  0  0  0  0  0  0  0
   26.3866  -32.9016   -9.3176 C   0  0  0  0  0  0  0  0  0  0  0  0
   25.1306  -31.6647   -9.6224 S   0  0  0  0  0  0  0  0  0  0  0  0
   25.0481  -34.8943   -9.5400 C   0  0  0  0  0  0  0  0  0  0  0  0
   23.9132  -34.6453  -10.0491 O   0  0  0  0  0  0  0  0  0  0  0  0
   24.3821  -37.9221   -7.5460 C   0  0  0  0  0  0  0  0  0  0  0  0
   23.9909  -36.5367   -8.0529 C   0  0  2  0  0  0  0  0  0  0  0  0
   25.1581  -35.8305   -8.4836 N   0  0  0  0  0  0  0  0  0  0  0  0
   23.2234  -35.7995   -7.0175 C   0  0  0  0  0  0  0  0  0  0  0  0
   23.8739  -35.0087   -6.2873 O   0  0  0  0  0  0  0  0  0  0  0  0
   21.8730  -35.9242   -6.8104 O   0  0  0  0  0  0  0  0  0  0  0  0
  2  1  1  6
  2  9  1  0
  2  3  1  0
  3  4  1  0
  4  8  1  0
  4  5  2  0
  5  6  1  0
  7  6  1  0
  8  7  2  0
  9 11  1  0
 10  9  2  0
 11 12  1  0
 12 15  1  0
 12 13  1  1
 13 14  1  0
 15 16  2  0
 15 19  1  0
 18 20  1  0
 18 17  1  1
 19 18  1  0
 20 22  1  0
 21 20  2  0
M  END
$$$$
