WTR.pdb
     RDKit          3D

 33 34  0  0  1  0  0  0  0  0999 V2000
   24.9582  -19.3922  -18.9418 N   0  0  0  0  0  0  0  0  0  0  0  0
   24.4178  -19.0418  -17.6515 C   0  0  1  0  0  0  0  0  0  0  0  0
   22.9689  -19.4859  -17.5934 C   0  0  0  0  0  0  0  0  0  0  0  0
   22.0855  -18.5666  -18.3920 C   0  0  0  0  0  0  0  0  0  0  0  0
   21.4489  -18.8477  -19.5764 C   0  0  0  0  0  0  0  0  0  0  0  0
   20.7912  -17.7587  -19.9873 N   0  0  0  0  0  0  0  0  0  0  0  0
   20.9804  -16.7550  -19.0920 C   0  0  0  0  0  0  0  0  0  0  0  0
   20.4968  -15.4504  -19.0818 C   0  0  0  0  0  0  0  0  0  0  0  0
   20.8314  -14.6191  -18.0371 C   0  0  0  0  0  0  0  0  0  0  0  0
   21.6391  -15.0988  -17.0231 C   0  0  0  0  0  0  0  0  0  0  0  0
   22.0964  -16.3931  -17.0699 C   0  0  0  0  0  0  0  0  0  0  0  0
   21.7853  -17.2554  -18.0976 C   0  0  0  0  0  0  0  0  0  0  0  0
   25.2276  -19.7225  -16.6093 C   0  0  0  0  0  0  0  0  0  0  0  0
   25.5220  -20.9523  -16.6958 O   0  0  0  0  0  0  0  0  0  0  0  0
   28.6702  -19.1522  -15.3572 C   0  0  0  0  0  0  0  0  0  0  0  0
   27.7894  -19.0776  -14.1312 C   0  0  1  0  0  0  0  0  0  0  0  0
   27.5849  -17.7384  -13.7747 O   0  0  0  0  0  0  0  0  0  0  0  0
   26.4291  -19.7546  -14.3929 C   0  0  2  0  0  0  0  0  0  0  0  0
   25.7297  -19.0462  -15.4460 N   0  0  0  0  0  0  0  0  0  0  0  0
   25.7188  -19.7364  -13.1053 C   0  0  0  0  0  0  0  0  0  0  0  0
   25.0094  -18.7133  -12.8290 O   0  0  0  0  0  0  0  0  0  0  0  0
   21.8380  -23.0971   -7.4379 N   0  0  0  0  0  0  0  0  0  0  0  0
   21.1820  -21.8635   -7.1958 C   0  0  0  0  0  0  0  0  0  0  0  0
   20.3897  -21.6841   -6.2047 N   0  0  0  0  0  0  0  0  0  0  0  0
   21.3970  -20.7502   -8.0842 N   0  0  0  0  0  0  0  0  0  0  0  0
   21.9202  -20.9496   -9.4133 C   0  0  0  0  0  0  0  0  0  0  0  0
   23.3551  -21.4913   -9.3280 C   0  0  0  0  0  0  0  0  0  0  0  0
   23.9680  -21.5997  -10.6960 C   0  0  0  0  0  0  0  0  0  0  0  0
   25.1163  -20.6245  -10.8069 C   0  0  2  0  0  0  0  0  0  0  0  0
   25.7528  -20.7711  -12.1329 N   0  0  0  0  0  0  0  0  0  0  0  0
   26.1226  -20.9232   -9.7814 C   0  0  0  0  0  0  0  0  0  0  0  0
   25.9947  -20.2963   -8.5286 O   0  0  0  0  0  0  0  0  0  0  0  0
   27.1043  -21.6855   -9.8885 O   0  0  0  0  0  0  0  0  0  0  0  0
  2  1  1  6
  2  3  1  0
  3  4  1  0
  4  5  2  0
  5  6  1  0
  7  6  1  0
  8  7  2  0
  9  8  1  0
 10 11  1  0
 10  9  2  0
 11 12  2  0
 12  4  1  0
 12  7  1  0
 13  2  1  0
 13 14  2  0
 16 18  1  0
 16 15  1  6
 17 16  1  0
 18 19  1  6
 19 13  1  0
 20 18  1  0
 21 20  2  0
 23 22  1  0
 23 25  1  0
 24 23  2  0
 26 25  1  0
 27 26  1  0
 27 28  1  0
 29 28  1  6
 29 30  1  0
 30 20  1  0
 31 32  1  0
 31 29  1  0
 33 31  2  0
M  END
$$$$
