WTR.pdb
     RDKit          3D

 33 34  0  0  1  0  0  0  0  0999 V2000
   26.8108  -20.1084  -15.5614 N   0  0  0  0  0  0  0  0  0  0  0  0
   25.5972  -19.4388  -15.1633 C   0  0  1  0  0  0  0  0  0  0  0  0
   25.0008  -18.7503  -16.3757 C   0  0  0  0  0  0  0  0  0  0  0  0
   25.8929  -17.6428  -16.8664 C   0  0  0  0  0  0  0  0  0  0  0  0
   26.6231  -17.6180  -18.0298 C   0  0  0  0  0  0  0  0  0  0  0  0
   27.3162  -16.4762  -18.0855 N   0  0  0  0  0  0  0  0  0  0  0  0
   27.0573  -15.7387  -16.9747 C   0  0  0  0  0  0  0  0  0  0  0  0
   27.5313  -14.4885  -16.5895 C   0  0  0  0  0  0  0  0  0  0  0  0
   27.1005  -13.9449  -15.4007 C   0  0  0  0  0  0  0  0  0  0  0  0
   26.2078  -14.6524  -14.6177 C   0  0  0  0  0  0  0  0  0  0  0  0
   25.7635  -15.8840  -15.0330 C   0  0  0  0  0  0  0  0  0  0  0  0
   26.1712  -16.4624  -16.2143 C   0  0  0  0  0  0  0  0  0  0  0  0
   24.6651  -20.4560  -14.6140 C   0  0  0  0  0  0  0  0  0  0  0  0
   24.8328  -21.6940  -14.8281 O   0  0  0  0  0  0  0  0  0  0  0  0
   21.6294  -19.5569  -11.5932 C   0  0  0  0  0  0  0  0  0  0  0  0
   22.3844  -20.8531  -11.7786 C   0  0  1  0  0  0  0  0  0  0  0  0
   21.6531  -21.9116  -11.2246 O   0  0  0  0  0  0  0  0  0  0  0  0
   22.6381  -21.1293  -13.2741 C   0  0  2  0  0  0  0  0  0  0  0  0
   23.5241  -20.1158  -13.8108 N   0  0  0  0  0  0  0  0  0  0  0  0
   21.3119  -21.1412  -13.9094 C   0  0  0  0  0  0  0  0  0  0  0  0
   20.5776  -20.1069  -13.7784 O   0  0  0  0  0  0  0  0  0  0  0  0
   19.0220  -24.1501   -8.6960 N   0  0  0  0  0  0  0  0  0  0  0  0
   17.7997  -24.6896   -9.1711 C   0  0  0  0  0  0  0  0  0  0  0  0
   16.7095  -24.6288   -8.5004 N   0  0  0  0  0  0  0  0  0  0  0  0
   17.7533  -25.3377  -10.4568 N   0  0  0  0  0  0  0  0  0  0  0  0
   18.8661  -25.2574  -11.3707 C   0  0  0  0  0  0  0  0  0  0  0  0
   18.5895  -24.1783  -12.4284 C   0  0  0  0  0  0  0  0  0  0  0  0
   19.7800  -23.9923  -13.3266 C   0  0  0  0  0  0  0  0  0  0  0  0
   19.4997  -22.8725  -14.3010 C   0  0  2  0  0  0  0  0  0  0  0  0
   20.7723  -22.2154  -14.6662 N   0  0  0  0  0  0  0  0  0  0  0  0
   18.6326  -21.8706  -13.6702 C   0  0  0  0  0  0  0  0  0  0  0  0
   17.4040  -21.5772  -14.2893 O   0  0  0  0  0  0  0  0  0  0  0  0
   18.8588  -21.2298  -12.6240 O   0  0  0  0  0  0  0  0  0  0  0  0
  2  1  1  6
  2  3  1  0
  3  4  1  0
  4  5  2  0
  5  6  1  0
  7  6  1  0
  8  7  2  0
  9  8  1  0
 10 11  1  0
 10  9  2  0
 11 12  2  0
 12  4  1  0
 12  7  1  0
 13  2  1  0
 13 14  2  0
 16 18  1  0
 16 15  1  6
 17 16  1  0
 18 19  1  6
 19 13  1  0
 20 18  1  0
 21 20  2  0
 23 22  1  0
 23 25  1  0
 24 23  2  0
 26 25  1  0
 27 26  1  0
 27 28  1  0
 29 28  1  1
 29 30  1  0
 30 20  1  0
 31 32  1  0
 31 29  1  0
 33 31  2  0
M  END
$$$$
