WTR.pdb
     RDKit          3D

 33 34  0  0  1  0  0  0  0  0999 V2000
   27.4146  -18.1200  -17.1541 N   0  0  0  0  0  0  0  0  0  0  0  0
   26.4143  -17.8710  -16.1455 C   0  0  1  0  0  0  0  0  0  0  0  0
   25.2589  -17.1214  -16.7801 C   0  0  0  0  0  0  0  0  0  0  0  0
   25.6686  -15.7316  -17.1848 C   0  0  0  0  0  0  0  0  0  0  0  0
   25.3671  -15.0853  -18.3590 C   0  0  0  0  0  0  0  0  0  0  0  0
   25.9464  -13.8806  -18.3550 N   0  0  0  0  0  0  0  0  0  0  0  0
   26.6301  -13.7146  -17.1932 C   0  0  0  0  0  0  0  0  0  0  0  0
   27.3778  -12.6359  -16.7312 C   0  0  0  0  0  0  0  0  0  0  0  0
   27.9732  -12.7139  -15.4927 C   0  0  0  0  0  0  0  0  0  0  0  0
   27.8146  -13.8604  -14.7370 C   0  0  0  0  0  0  0  0  0  0  0  0
   27.0687  -14.9036  -15.2288 C   0  0  0  0  0  0  0  0  0  0  0  0
   26.4584  -14.8651  -16.4626 C   0  0  0  0  0  0  0  0  0  0  0  0
   25.9685  -19.1790  -15.6018 C   0  0  0  0  0  0  0  0  0  0  0  0
   26.1961  -20.2648  -16.2149 O   0  0  0  0  0  0  0  0  0  0  0  0
   26.9383  -20.8038  -12.4420 C   0  0  0  0  0  0  0  0  0  0  0  0
   25.4273  -20.7787  -12.4160 C   0  0  1  0  0  0  0  0  0  0  0  0
   24.9842  -19.7314  -11.5980 O   0  0  0  0  0  0  0  0  0  0  0  0
   24.8586  -20.5979  -13.8377 C   0  0  2  0  0  0  0  0  0  0  0  0
   25.2592  -19.3067  -14.3595 N   0  0  0  0  0  0  0  0  0  0  0  0
   23.4015  -20.7489  -13.7080 C   0  0  0  0  0  0  0  0  0  0  0  0
   22.6838  -19.6970  -13.7762 O   0  0  0  0  0  0  0  0  0  0  0  0
   18.0457  -25.0178   -8.8599 N   0  0  0  0  0  0  0  0  0  0  0  0
   17.1855  -24.7536   -9.9557 C   0  0  0  0  0  0  0  0  0  0  0  0
   15.9395  -25.0529   -9.9451 N   0  0  0  0  0  0  0  0  0  0  0  0
   17.7072  -24.1241  -11.1417 N   0  0  0  0  0  0  0  0  0  0  0  0
   19.1028  -24.2333  -11.4891 C   0  0  0  0  0  0  0  0  0  0  0  0
   19.3590  -23.5252  -12.8279 C   0  0  0  0  0  0  0  0  0  0  0  0
   20.8300  -23.4720  -13.1318 C   0  0  0  0  0  0  0  0  0  0  0  0
   21.2801  -22.0305  -13.1680 C   0  0  2  0  0  0  0  0  0  0  0  0
   22.7164  -21.9778  -13.5133 N   0  0  0  0  0  0  0  0  0  0  0  0
   21.1059  -21.4222  -11.8439 C   0  0  0  0  0  0  0  0  0  0  0  0
   19.9740  -20.6141  -11.6324 O   0  0  0  0  0  0  0  0  0  0  0  0
   21.8599  -21.5372  -10.8567 O   0  0  0  0  0  0  0  0  0  0  0  0
  2  1  1  6
  2  3  1  0
  3  4  1  0
  4  5  2  0
  5  6  1  0
  7  6  1  0
  8  7  2  0
  9  8  1  0
 10 11  1  0
 10  9  2  0
 11 12  2  0
 12  4  1  0
 12  7  1  0
 13  2  1  0
 13 14  2  0
 16 18  1  0
 16 15  1  6
 17 16  1  0
 18 19  1  1
 19 13  1  0
 20 18  1  0
 21 20  2  0
 23 22  1  0
 23 25  1  0
 24 23  2  0
 26 25  1  0
 27 26  1  0
 27 28  1  0
 29 28  1  1
 29 30  1  0
 30 20  1  0
 31 32  1  0
 31 29  1  0
 33 31  2  0
M  END
$$$$
