WTR.pdb
     RDKit          3D

 33 34  0  0  1  0  0  0  0  0999 V2000
   26.5641  -21.8019  -13.0358 N   0  0  0  0  0  0  0  0  0  0  0  0
   25.7547  -21.4863  -11.8847 C   0  0  1  0  0  0  0  0  0  0  0  0
   26.3513  -20.2798  -11.1859 C   0  0  0  0  0  0  0  0  0  0  0  0
   27.6313  -20.6371  -10.4808 C   0  0  0  0  0  0  0  0  0  0  0  0
   28.6302  -21.4613  -10.9391 C   0  0  0  0  0  0  0  0  0  0  0  0
   29.5815  -21.5551  -10.0046 N   0  0  0  0  0  0  0  0  0  0  0  0
   29.2305  -20.8036   -8.9290 C   0  0  0  0  0  0  0  0  0  0  0  0
   29.8945  -20.5816   -7.7266 C   0  0  0  0  0  0  0  0  0  0  0  0
   29.3217  -19.7552   -6.7867 C   0  0  0  0  0  0  0  0  0  0  0  0
   28.1015  -19.1652   -7.0587 C   0  0  0  0  0  0  0  0  0  0  0  0
   27.4779  -19.4098   -8.2577 C   0  0  0  0  0  0  0  0  0  0  0  0
   28.0171  -20.2306   -9.2230 C   0  0  0  0  0  0  0  0  0  0  0  0
   24.3737  -21.2044  -12.3521 C   0  0  0  0  0  0  0  0  0  0  0  0
   24.0837  -20.1272  -12.9538 O   0  0  0  0  0  0  0  0  0  0  0  0
   22.7490  -20.0689  -14.2122 C   0  0  0  0  0  0  0  0  0  0  0  0
   21.9480  -21.3408  -14.0537 C   0  0  1  0  0  0  0  0  0  0  0  0
   22.4986  -22.3510  -14.8527 O   0  0  0  0  0  0  0  0  0  0  0  0
   21.9340  -21.7985  -12.5814 C   0  0  2  0  0  0  0  0  0  0  0  0
   23.2832  -22.1192  -12.1606 N   0  0  0  0  0  0  0  0  0  0  0  0
   21.0171  -22.9470  -12.5281 C   0  0  0  0  0  0  0  0  0  0  0  0
   21.4854  -24.0987  -12.8120 O   0  0  0  0  0  0  0  0  0  0  0  0
   16.5884  -25.5893   -7.7405 N   0  0  0  0  0  0  0  0  0  0  0  0
   17.6851  -24.8056   -7.3003 C   0  0  0  0  0  0  0  0  0  0  0  0
   18.4689  -25.1798   -6.3580 N   0  0  0  0  0  0  0  0  0  0  0  0
   17.9519  -23.5329   -7.9199 N   0  0  0  0  0  0  0  0  0  0  0  0
   17.0737  -23.0000   -8.9323 C   0  0  0  0  0  0  0  0  0  0  0  0
   17.8315  -22.8810  -10.2633 C   0  0  0  0  0  0  0  0  0  0  0  0
   18.1333  -24.2398  -10.8300 C   0  0  0  0  0  0  0  0  0  0  0  0
   18.7743  -24.0824  -12.1888 C   0  0  2  0  0  0  0  0  0  0  0  0
   19.6409  -22.8850  -12.1822 N   0  0  0  0  0  0  0  0  0  0  0  0
   17.7366  -23.8899  -13.2084 C   0  0  0  0  0  0  0  0  0  0  0  0
   17.5036  -22.5833  -13.6747 O   0  0  0  0  0  0  0  0  0  0  0  0
   17.0164  -24.7675  -13.7255 O   0  0  0  0  0  0  0  0  0  0  0  0
  2  1  1  6
  2  3  1  0
  3  4  1  0
  4  5  2  0
  5  6  1  0
  7  6  1  0
  8  7  2  0
  9  8  1  0
 10 11  1  0
 10  9  2  0
 11 12  2  0
 12  4  1  0
 12  7  1  0
 13  2  1  0
 13 14  2  0
 16 18  1  0
 16 15  1  1
 17 16  1  0
 18 19  1  6
 19 13  1  0
 20 18  1  0
 21 20  2  0
 23 22  1  0
 23 25  1  0
 24 23  2  0
 26 25  1  0
 27 26  1  0
 27 28  1  0
 29 28  1  1
 29 30  1  0
 30 20  1  0
 31 32  1  0
 31 29  1  0
 33 31  2  0
M  END
$$$$
