WTR.pdb
     RDKit          3D

 33 34  0  0  1  0  0  0  0  0999 V2000
   28.5697  -21.4110  -10.1931 N   0  0  0  0  0  0  0  0  0  0  0  0
   27.4385  -20.7026   -9.6470 C   0  0  1  0  0  0  0  0  0  0  0  0
   27.9438  -19.4972   -8.8780 C   0  0  0  0  0  0  0  0  0  0  0  0
   28.8886  -19.9079   -7.7818 C   0  0  0  0  0  0  0  0  0  0  0  0
   30.0507  -20.6287   -7.9133 C   0  0  0  0  0  0  0  0  0  0  0  0
   30.5843  -20.8208   -6.7027 N   0  0  0  0  0  0  0  0  0  0  0  0
   29.7935  -20.2369   -5.7654 C   0  0  0  0  0  0  0  0  0  0  0  0
   29.9350  -20.1627   -4.3831 C   0  0  0  0  0  0  0  0  0  0  0  0
   28.9845  -19.4930   -3.6466 C   0  0  0  0  0  0  0  0  0  0  0  0
   27.9126  -18.9100   -4.2961 C   0  0  0  0  0  0  0  0  0  0  0  0
   27.8089  -19.0058   -5.6623 C   0  0  0  0  0  0  0  0  0  0  0  0
   28.7375  -19.6675   -6.4344 C   0  0  0  0  0  0  0  0  0  0  0  0
   26.5626  -20.2895  -10.7729 C   0  0  0  0  0  0  0  0  0  0  0  0
   26.8344  -19.2797  -11.4891 O   0  0  0  0  0  0  0  0  0  0  0  0
   26.6611  -19.9649  -13.5272 C   0  0  0  0  0  0  0  0  0  0  0  0
   25.4214  -20.8287  -13.5649 C   0  0  1  0  0  0  0  0  0  0  0  0
   25.7854  -22.1764  -13.6808 O   0  0  0  0  0  0  0  0  0  0  0  0
   24.5776  -20.6307  -12.2897 C   0  0  2  0  0  0  0  0  0  0  0  0
   25.3629  -20.9950  -11.1275 N   0  0  0  0  0  0  0  0  0  0  0  0
   23.3793  -21.4640  -12.4694 C   0  0  0  0  0  0  0  0  0  0  0  0
   22.9900  -22.1710  -11.4820 O   0  0  0  0  0  0  0  0  0  0  0  0
   18.2593  -22.1099  -10.6933 N   0  0  0  0  0  0  0  0  0  0  0  0
   17.1462  -21.2664  -10.9386 C   0  0  0  0  0  0  0  0  0  0  0  0
   16.0214  -21.4143  -10.3427 N   0  0  0  0  0  0  0  0  0  0  0  0
   17.2568  -20.1916  -11.8914 N   0  0  0  0  0  0  0  0  0  0  0  0
   18.3361  -20.1533  -12.8473 C   0  0  0  0  0  0  0  0  0  0  0  0
   19.6818  -20.1333  -12.1067 C   0  0  0  0  0  0  0  0  0  0  0  0
   20.8231  -19.9974  -13.0751 C   0  0  0  0  0  0  0  0  0  0  0  0
   21.1433  -21.3521  -13.6619 C   0  0  2  0  0  0  0  0  0  0  0  0
   22.6082  -21.5496  -13.6591 N   0  0  0  0  0  0  0  0  0  0  0  0
   20.6765  -21.4143  -15.0518 C   0  0  0  0  0  0  0  0  0  0  0  0
   19.4676  -22.0846  -15.3127 O   0  0  0  0  0  0  0  0  0  0  0  0
   21.2366  -20.9327  -16.0570 O   0  0  0  0  0  0  0  0  0  0  0  0
  2  1  1  6
  2  3  1  0
  3  4  1  0
  4  5  2  0
  5  6  1  0
  7  6  1  0
  8  7  2  0
  9  8  1  0
 10 11  1  0
 10  9  2  0
 11 12  2  0
 12  4  1  0
 12  7  1  0
 13  2  1  0
 13 14  2  0
 16 18  1  0
 16 15  1  1
 17 16  1  0
 18 19  1  1
 19 13  1  0
 20 18  1  0
 21 20  2  0
 23 22  1  0
 23 25  1  0
 24 23  2  0
 26 25  1  0
 27 26  1  0
 27 28  1  0
 29 28  1  6
 29 30  1  0
 30 20  1  0
 31 32  1  0
 31 29  1  0
 33 31  2  0
M  END
$$$$
