WTR.pdb
     RDKit          3D

 33 34  0  0  1  0  0  0  0  0999 V2000
   28.4034  -20.3104  -11.7029 N   0  0  0  0  0  0  0  0  0  0  0  0
   27.1741  -20.9713  -11.3399 C   0  0  1  0  0  0  0  0  0  0  0  0
   26.7269  -20.4581   -9.9848 C   0  0  0  0  0  0  0  0  0  0  0  0
   27.8762  -20.4087   -9.0152 C   0  0  0  0  0  0  0  0  0  0  0  0
   27.9970  -19.6011   -7.9106 C   0  0  0  0  0  0  0  0  0  0  0  0
   29.1799  -19.8289   -7.3309 N   0  0  0  0  0  0  0  0  0  0  0  0
   29.8495  -20.7784   -8.0344 C   0  0  0  0  0  0  0  0  0  0  0  0
   31.1011  -21.3472   -7.8196 C   0  0  0  0  0  0  0  0  0  0  0  0
   31.5560  -22.3145   -8.6866 C   0  0  0  0  0  0  0  0  0  0  0  0
   30.7598  -22.6986   -9.7493 C   0  0  0  0  0  0  0  0  0  0  0  0
   29.5303  -22.1129   -9.9271 C   0  0  0  0  0  0  0  0  0  0  0  0
   29.0400  -21.1414   -9.0831 C   0  0  0  0  0  0  0  0  0  0  0  0
   26.1617  -20.6737  -12.3848 C   0  0  0  0  0  0  0  0  0  0  0  0
   26.4933  -20.2121  -13.5177 O   0  0  0  0  0  0  0  0  0  0  0  0
   25.5418  -21.1337  -14.9868 C   0  0  0  0  0  0  0  0  0  0  0  0
   24.1639  -21.4957  -14.4822 C   0  0  1  0  0  0  0  0  0  0  0  0
   24.1236  -22.8549  -14.1459 O   0  0  0  0  0  0  0  0  0  0  0  0
   23.7930  -20.6485  -13.2486 C   0  0  2  0  0  0  0  0  0  0  0  0
   24.7545  -20.8858  -12.1906 N   0  0  0  0  0  0  0  0  0  0  0  0
   22.4219  -21.0417  -12.8906 C   0  0  0  0  0  0  0  0  0  0  0  0
   22.2694  -22.0665  -12.1472 O   0  0  0  0  0  0  0  0  0  0  0  0
   18.3587  -14.7388  -14.1108 N   0  0  0  0  0  0  0  0  0  0  0  0
   18.6433  -15.7279  -15.0862 C   0  0  0  0  0  0  0  0  0  0  0  0
   19.1027  -15.4421  -16.2479 N   0  0  0  0  0  0  0  0  0  0  0  0
   18.4162  -17.1182  -14.7854 N   0  0  0  0  0  0  0  0  0  0  0  0
   18.0601  -17.5425  -13.4538 C   0  0  0  0  0  0  0  0  0  0  0  0
   19.1023  -18.5445  -12.9345 C   0  0  0  0  0  0  0  0  0  0  0  0
   18.8545  -19.9148  -13.4997 C   0  0  0  0  0  0  0  0  0  0  0  0
   19.8920  -20.8717  -12.9611 C   0  0  2  0  0  0  0  0  0  0  0  0
   21.2399  -20.3710  -13.3035 N   0  0  0  0  0  0  0  0  0  0  0  0
   19.7225  -22.1899  -13.5833 C   0  0  0  0  0  0  0  0  0  0  0  0
   18.9572  -23.1503  -12.8971 O   0  0  0  0  0  0  0  0  0  0  0  0
   20.1875  -22.5729  -14.6757 O   0  0  0  0  0  0  0  0  0  0  0  0
  2  1  1  6
  2  3  1  0
  3  4  1  0
  4  5  2  0
  5  6  1  0
  7  6  1  0
  8  7  2  0
  9  8  1  0
 10 11  1  0
 10  9  2  0
 11 12  2  0
 12  4  1  0
 12  7  1  0
 13  2  1  0
 13 14  2  0
 16 18  1  0
 16 15  1  1
 17 16  1  0
 18 19  1  1
 19 13  1  0
 20 18  1  0
 21 20  2  0
 23 22  1  0
 23 25  1  0
 24 23  2  0
 26 25  1  0
 27 26  1  0
 27 28  1  0
 29 28  1  6
 29 30  1  0
 30 20  1  0
 31 32  1  0
 31 29  1  0
 33 31  2  0
M  END
$$$$
