WTR.pdb
     RDKit          3D

 33 34  0  0  1  0  0  0  0  0999 V2000
   24.9089  -20.5586   -8.5467 N   0  0  0  0  0  0  0  0  0  0  0  0
   26.2052  -20.2525   -9.0997 C   0  0  1  0  0  0  0  0  0  0  0  0
   27.2714  -20.8377   -8.1940 C   0  0  0  0  0  0  0  0  0  0  0  0
   27.4642  -19.9933   -6.9640 C   0  0  0  0  0  0  0  0  0  0  0  0
   26.7873  -18.8455   -6.6298 C   0  0  0  0  0  0  0  0  0  0  0  0
   27.2751  -18.3707   -5.4793 N   0  0  0  0  0  0  0  0  0  0  0  0
   28.2683  -19.1872   -5.0413 C   0  0  0  0  0  0  0  0  0  0  0  0
   29.0617  -19.1131   -3.9007 C   0  0  0  0  0  0  0  0  0  0  0  0
   30.0072  -20.0880   -3.6768 C   0  0  0  0  0  0  0  0  0  0  0  0
   30.1465  -21.1172   -4.5891 C   0  0  0  0  0  0  0  0  0  0  0  0
   29.3439  -21.1545   -5.7030 C   0  0  0  0  0  0  0  0  0  0  0  0
   28.3877  -20.1983   -5.9635 C   0  0  0  0  0  0  0  0  0  0  0  0
   26.2790  -20.8403  -10.4613 C   0  0  0  0  0  0  0  0  0  0  0  0
   26.2213  -22.0928  -10.6474 O   0  0  0  0  0  0  0  0  0  0  0  0
   24.9043  -22.5389  -12.3001 C   0  0  0  0  0  0  0  0  0  0  0  0
   25.0494  -21.3380  -13.2063 C   0  0  1  0  0  0  0  0  0  0  0  0
   24.0052  -20.4350  -12.9683 O   0  0  0  0  0  0  0  0  0  0  0  0
   26.4016  -20.6355  -12.9714 C   0  0  2  0  0  0  0  0  0  0  0  0
   26.4172  -20.0440  -11.6485 N   0  0  0  0  0  0  0  0  0  0  0  0
   26.5334  -19.6488  -14.0539 C   0  0  0  0  0  0  0  0  0  0  0  0
   26.8693  -18.4593  -13.7400 O   0  0  0  0  0  0  0  0  0  0  0  0
   29.7915  -15.7088  -19.2059 N   0  0  0  0  0  0  0  0  0  0  0  0
   30.7066  -16.5373  -18.5081 C   0  0  0  0  0  0  0  0  0  0  0  0
   31.7358  -16.0737  -17.9014 N   0  0  0  0  0  0  0  0  0  0  0  0
   30.4947  -17.9614  -18.4633 N   0  0  0  0  0  0  0  0  0  0  0  0
   29.3457  -18.5626  -19.0947 C   0  0  0  0  0  0  0  0  0  0  0  0
   28.0791  -18.2212  -18.2953 C   0  0  0  0  0  0  0  0  0  0  0  0
   27.8531  -19.2231  -17.1981 C   0  0  0  0  0  0  0  0  0  0  0  0
   26.5704  -18.8886  -16.4736 C   0  0  2  0  0  0  0  0  0  0  0  0
   26.3188  -19.9085  -15.4337 N   0  0  0  0  0  0  0  0  0  0  0  0
   25.4466  -18.9111  -17.4171 C   0  0  0  0  0  0  0  0  0  0  0  0
   25.1987  -17.7531  -18.1763 O   0  0  0  0  0  0  0  0  0  0  0  0
   24.6630  -19.8575  -17.6332 O   0  0  0  0  0  0  0  0  0  0  0  0
  2  1  1  1
  2  3  1  0
  3  4  1  0
  4  5  2  0
  5  6  1  0
  7  6  1  0
  8  7  2  0
  9  8  1  0
 10 11  1  0
 10  9  2  0
 11 12  2  0
 12  4  1  0
 12  7  1  0
 13  2  1  0
 13 14  2  0
 16 18  1  0
 16 15  1  1
 17 16  1  0
 18 19  1  1
 19 13  1  0
 20 18  1  0
 21 20  2  0
 23 22  1  0
 23 25  1  0
 24 23  2  0
 26 25  1  0
 27 26  1  0
 27 28  1  0
 29 28  1  6
 29 30  1  0
 30 20  1  0
 31 32  1  0
 31 29  1  0
 33 31  2  0
M  END
$$$$
