WTR.pdb
     RDKit          3D

 33 34  0  0  1  0  0  0  0  0999 V2000
   27.7378  -21.9333  -10.3888 N   0  0  0  0  0  0  0  0  0  0  0  0
   26.9374  -20.8899   -9.7967 C   0  0  1  0  0  0  0  0  0  0  0  0
   27.8557  -19.7765   -9.3313 C   0  0  0  0  0  0  0  0  0  0  0  0
   28.7258  -20.2296   -8.1907 C   0  0  0  0  0  0  0  0  0  0  0  0
   29.9064  -20.9272   -8.2726 C   0  0  0  0  0  0  0  0  0  0  0  0
   30.3544  -21.1733   -7.0374 N   0  0  0  0  0  0  0  0  0  0  0  0
   29.4881  -20.6483   -6.1324 C   0  0  0  0  0  0  0  0  0  0  0  0
   29.5282  -20.6424   -4.7416 C   0  0  0  0  0  0  0  0  0  0  0  0
   28.5157  -20.0236   -4.0440 C   0  0  0  0  0  0  0  0  0  0  0  0
   27.4838  -19.4228   -4.7404 C   0  0  0  0  0  0  0  0  0  0  0  0
   27.4806  -19.4506   -6.1136 C   0  0  0  0  0  0  0  0  0  0  0  0
   28.4737  -20.0599   -6.8477 C   0  0  0  0  0  0  0  0  0  0  0  0
   25.9813  -20.4006  -10.8223 C   0  0  0  0  0  0  0  0  0  0  0  0
   25.9446  -19.1815  -11.1672 O   0  0  0  0  0  0  0  0  0  0  0  0
   25.9367  -19.1447  -13.3051 C   0  0  0  0  0  0  0  0  0  0  0  0
   25.0421  -20.2865  -13.7299 C   0  0  1  0  0  0  0  0  0  0  0  0
   25.8215  -21.3458  -14.2123 O   0  0  0  0  0  0  0  0  0  0  0  0
   24.1818  -20.7763  -12.5479 C   0  0  2  0  0  0  0  0  0  0  0  0
   25.0441  -21.2609  -11.4888 N   0  0  0  0  0  0  0  0  0  0  0  0
   23.2962  -21.8125  -13.0999 C   0  0  0  0  0  0  0  0  0  0  0  0
   23.3998  -22.9958  -12.6359 O   0  0  0  0  0  0  0  0  0  0  0  0
   16.3549  -21.3462  -10.2020 N   0  0  0  0  0  0  0  0  0  0  0  0
   15.9100  -22.3151  -11.1368 C   0  0  0  0  0  0  0  0  0  0  0  0
   14.6687  -22.5352  -11.3673 N   0  0  0  0  0  0  0  0  0  0  0  0
   16.8708  -23.0980  -11.8709 N   0  0  0  0  0  0  0  0  0  0  0  0
   18.2849  -22.9662  -11.6198 C   0  0  0  0  0  0  0  0  0  0  0  0
   19.0556  -23.0539  -12.9458 C   0  0  0  0  0  0  0  0  0  0  0  0
   20.3097  -22.2275  -12.8910 C   0  0  0  0  0  0  0  0  0  0  0  0
   21.0777  -22.4003  -14.1803 C   0  0  2  0  0  0  0  0  0  0  0  0
   22.3235  -21.6075  -14.1145 N   0  0  0  0  0  0  0  0  0  0  0  0
   20.2780  -21.9022  -15.3055 C   0  0  0  0  0  0  0  0  0  0  0  0
   19.5144  -22.8313  -16.0351 O   0  0  0  0  0  0  0  0  0  0  0  0
   20.1911  -20.7234  -15.7046 O   0  0  0  0  0  0  0  0  0  0  0  0
  2  1  1  6
  2  3  1  0
  3  4  1  0
  4  5  2  0
  5  6  1  0
  7  6  1  0
  8  7  2  0
  9  8  1  0
 10 11  1  0
 10  9  2  0
 11 12  2  0
 12  4  1  0
 12  7  1  0
 13  2  1  0
 13 14  2  0
 16 18  1  0
 16 15  1  1
 17 16  1  0
 18 19  1  1
 19 13  1  0
 20 18  1  0
 21 20  2  0
 23 22  1  0
 23 25  1  0
 24 23  2  0
 26 25  1  0
 27 26  1  0
 27 28  1  0
 29 28  1  1
 29 30  1  0
 30 20  1  0
 31 32  1  0
 31 29  1  0
 33 31  2  0
M  END
$$$$
