WTR.pdb
     RDKit          3D

 33 34  0  0  1  0  0  0  0  0999 V2000
   27.3764  -21.3815  -10.9731 N   0  0  0  0  0  0  0  0  0  0  0  0
   26.3544  -20.8289  -10.1187 C   0  0  1  0  0  0  0  0  0  0  0  0
   26.9480  -19.6762   -9.3322 C   0  0  0  0  0  0  0  0  0  0  0  0
   28.1257  -20.1265   -8.5116 C   0  0  0  0  0  0  0  0  0  0  0  0
   29.2605  -20.7557   -8.9626 C   0  0  0  0  0  0  0  0  0  0  0  0
   30.0530  -21.0259   -7.9204 N   0  0  0  0  0  0  0  0  0  0  0  0
   29.4617  -20.5846   -6.7801 C   0  0  0  0  0  0  0  0  0  0  0  0
   29.8980  -20.6314   -5.4597 C   0  0  0  0  0  0  0  0  0  0  0  0
   29.1036  -20.0961   -4.4713 C   0  0  0  0  0  0  0  0  0  0  0  0
   27.8921  -19.5247   -4.8128 C   0  0  0  0  0  0  0  0  0  0  0  0
   27.4970  -19.4983   -6.1280 C   0  0  0  0  0  0  0  0  0  0  0  0
   28.2620  -20.0238   -7.1453 C   0  0  0  0  0  0  0  0  0  0  0  0
   25.2321  -20.3694  -10.9758 C   0  0  0  0  0  0  0  0  0  0  0  0
   25.2083  -19.2016  -11.4682 O   0  0  0  0  0  0  0  0  0  0  0  0
   24.8186  -19.6567  -13.7098 C   0  0  0  0  0  0  0  0  0  0  0  0
   23.7309  -20.7054  -13.6676 C   0  0  1  0  0  0  0  0  0  0  0  0
   24.2618  -21.9539  -14.0164 O   0  0  0  0  0  0  0  0  0  0  0  0
   23.1037  -20.7868  -12.2615 C   0  0  2  0  0  0  0  0  0  0  0  0
   24.1099  -21.2030  -11.3052 N   0  0  0  0  0  0  0  0  0  0  0  0
   21.9824  -21.7312  -12.3776 C   0  0  0  0  0  0  0  0  0  0  0  0
   22.2555  -22.9608  -12.5770 O   0  0  0  0  0  0  0  0  0  0  0  0
   19.2088  -24.3065   -5.9608 N   0  0  0  0  0  0  0  0  0  0  0  0
   18.6690  -24.7508   -7.1944 C   0  0  0  0  0  0  0  0  0  0  0  0
   17.9352  -25.7969   -7.2918 N   0  0  0  0  0  0  0  0  0  0  0  0
   18.9406  -24.0152   -8.4028 N   0  0  0  0  0  0  0  0  0  0  0  0
   19.7606  -22.8289   -8.3828 C   0  0  0  0  0  0  0  0  0  0  0  0
   19.6917  -22.1300   -9.7491 C   0  0  0  0  0  0  0  0  0  0  0  0
   19.6746  -23.1371  -10.8645 C   0  0  0  0  0  0  0  0  0  0  0  0
   19.5475  -22.4159  -12.1858 C   0  0  2  0  0  0  0  0  0  0  0  0
   20.6069  -21.3898  -12.2839 N   0  0  0  0  0  0  0  0  0  0  0  0
   18.2475  -21.7391  -12.2594 C   0  0  0  0  0  0  0  0  0  0  0  0
   18.2368  -20.3331  -12.3034 O   0  0  0  0  0  0  0  0  0  0  0  0
   17.1205  -22.2732  -12.2879 O   0  0  0  0  0  0  0  0  0  0  0  0
  2  1  1  6
  2  3  1  0
  3  4  1  0
  4  5  2  0
  5  6  1  0
  7  6  1  0
  8  7  2  0
  9  8  1  0
 10 11  1  0
 10  9  2  0
 11 12  2  0
 12  4  1  0
 12  7  1  0
 13  2  1  0
 13 14  2  0
 16 18  1  0
 16 15  1  1
 17 16  1  0
 18 19  1  1
 19 13  1  0
 20 18  1  0
 21 20  2  0
 23 22  1  0
 23 25  1  0
 24 23  2  0
 26 25  1  0
 27 26  1  0
 27 28  1  0
 29 28  1  1
 29 30  1  0
 30 20  1  0
 31 32  1  0
 31 29  1  0
 33 31  2  0
M  END
$$$$
