WTR.pdb
     RDKit          3D

 33 34  0  0  1  0  0  0  0  0999 V2000
   23.6382  -19.7609  -15.1106 N   0  0  0  0  0  0  0  0  0  0  0  0
   23.7427  -20.9790  -14.3456 C   0  0  1  0  0  0  0  0  0  0  0  0
   25.1006  -21.0156  -13.6714 C   0  0  0  0  0  0  0  0  0  0  0  0
   26.2035  -21.1963  -14.6784 C   0  0  0  0  0  0  0  0  0  0  0  0
   27.1315  -20.2625  -15.0708 C   0  0  0  0  0  0  0  0  0  0  0  0
   27.9169  -20.7965  -16.0115 N   0  0  0  0  0  0  0  0  0  0  0  0
   27.5252  -22.0747  -16.2514 C   0  0  0  0  0  0  0  0  0  0  0  0
   28.0353  -23.0263  -17.1292 C   0  0  0  0  0  0  0  0  0  0  0  0
   27.4563  -24.2741  -17.1763 C   0  0  0  0  0  0  0  0  0  0  0  0
   26.3829  -24.5531  -16.3512 C   0  0  0  0  0  0  0  0  0  0  0  0
   25.9087  -23.5863  -15.4986 C   0  0  0  0  0  0  0  0  0  0  0  0
   26.4592  -22.3264  -15.4225 C   0  0  0  0  0  0  0  0  0  0  0  0
   22.6476  -20.9920  -13.3428 C   0  0  0  0  0  0  0  0  0  0  0  0
   22.3834  -19.9740  -12.6355 O   0  0  0  0  0  0  0  0  0  0  0  0
   20.1734  -19.7213  -12.8193 C   0  0  0  0  0  0  0  0  0  0  0  0
   19.6270  -21.1281  -12.7361 C   0  0  1  0  0  0  0  0  0  0  0  0
   19.2113  -21.5514  -14.0050 O   0  0  0  0  0  0  0  0  0  0  0  0
   20.6951  -22.0986  -12.1935 C   0  0  2  0  0  0  0  0  0  0  0  0
   21.8197  -22.1416  -13.1066 N   0  0  0  0  0  0  0  0  0  0  0  0
   20.0173  -23.3947  -12.0404 C   0  0  0  0  0  0  0  0  0  0  0  0
   20.7421  -24.4372  -11.9215 O   0  0  0  0  0  0  0  0  0  0  0  0
   18.9324  -26.4761   -6.1843 N   0  0  0  0  0  0  0  0  0  0  0  0
   17.6809  -25.9990   -5.7189 C   0  0  0  0  0  0  0  0  0  0  0  0
   16.9236  -26.6843   -4.9450 N   0  0  0  0  0  0  0  0  0  0  0  0
   17.2176  -24.6943   -6.1166 N   0  0  0  0  0  0  0  0  0  0  0  0
   17.9041  -23.9404   -7.1367 C   0  0  0  0  0  0  0  0  0  0  0  0
   17.5708  -24.5199   -8.5198 C   0  0  0  0  0  0  0  0  0  0  0  0
   18.2350  -23.7232   -9.6074 C   0  0  0  0  0  0  0  0  0  0  0  0
   17.9465  -24.3660  -10.9437 C   0  0  2  0  0  0  0  0  0  0  0  0
   18.6106  -23.5884  -12.0111 N   0  0  0  0  0  0  0  0  0  0  0  0
   16.5016  -24.3525  -11.1999 C   0  0  0  0  0  0  0  0  0  0  0  0
   15.7908  -25.5552  -11.0358 O   0  0  0  0  0  0  0  0  0  0  0  0
   15.8086  -23.3781  -11.5556 O   0  0  0  0  0  0  0  0  0  0  0  0
  2  1  1  1
  2  3  1  0
  3  4  1  0
  4  5  2  0
  5  6  1  0
  7  6  1  0
  8  7  2  0
  9  8  1  0
 10 11  1  0
 10  9  2  0
 11 12  2  0
 12  4  1  0
 12  7  1  0
 13  2  1  0
 13 14  2  0
 16 18  1  0
 16 15  1  6
 17 16  1  0
 18 19  1  6
 19 13  1  0
 20 18  1  0
 21 20  2  0
 23 22  1  0
 23 25  1  0
 24 23  2  0
 26 25  1  0
 27 26  1  0
 27 28  1  0
 29 28  1  1
 29 30  1  0
 30 20  1  0
 31 32  1  0
 31 29  1  0
 33 31  2  0
M  END
$$$$
