WTR.pdb
     RDKit          3D

 33 34  0  0  1  0  0  0  0  0999 V2000
   28.5223  -21.9062   -9.7376 N   0  0  0  0  0  0  0  0  0  0  0  0
   27.1677  -21.4245   -9.6247 C   0  0  1  0  0  0  0  0  0  0  0  0
   27.1723  -20.1442   -8.8119 C   0  0  0  0  0  0  0  0  0  0  0  0
   28.2442  -20.1734   -7.7567 C   0  0  0  0  0  0  0  0  0  0  0  0
   29.5985  -20.2957   -7.9513 C   0  0  0  0  0  0  0  0  0  0  0  0
   30.2098  -20.3190   -6.7626 N   0  0  0  0  0  0  0  0  0  0  0  0
   29.2807  -20.2131   -5.7775 C   0  0  0  0  0  0  0  0  0  0  0  0
   29.4298  -20.1835   -4.3944 C   0  0  0  0  0  0  0  0  0  0  0  0
   28.3117  -20.0568   -3.6018 C   0  0  0  0  0  0  0  0  0  0  0  0
   27.0679  -19.9618   -4.1972 C   0  0  0  0  0  0  0  0  0  0  0  0
   26.9627  -19.9951   -5.5663 C   0  0  0  0  0  0  0  0  0  0  0  0
   28.0563  -20.1218   -6.3936 C   0  0  0  0  0  0  0  0  0  0  0  0
   26.6446  -21.1864  -10.9940 C   0  0  0  0  0  0  0  0  0  0  0  0
   27.4111  -21.1685  -12.0033 O   0  0  0  0  0  0  0  0  0  0  0  0
   24.2762  -22.4850  -14.5898 C   0  0  0  0  0  0  0  0  0  0  0  0
   24.8399  -22.4196  -13.1889 C   0  0  1  0  0  0  0  0  0  0  0  0
   26.1836  -22.8152  -13.1992 O   0  0  0  0  0  0  0  0  0  0  0  0
   24.7278  -20.9909  -12.6202 C   0  0  2  0  0  0  0  0  0  0  0  0
   25.2528  -20.9641  -11.2698 N   0  0  0  0  0  0  0  0  0  0  0  0
   23.3021  -20.6393  -12.6996 C   0  0  0  0  0  0  0  0  0  0  0  0
   22.5023  -21.1995  -11.8794 O   0  0  0  0  0  0  0  0  0  0  0  0
   17.1481  -15.0833  -14.6358 N   0  0  0  0  0  0  0  0  0  0  0  0
   18.4938  -14.6433  -14.5573 C   0  0  0  0  0  0  0  0  0  0  0  0
   18.8202  -13.4945  -14.0926 N   0  0  0  0  0  0  0  0  0  0  0  0
   19.5571  -15.5025  -15.0115 N   0  0  0  0  0  0  0  0  0  0  0  0
   19.2747  -16.7936  -15.5888 C   0  0  0  0  0  0  0  0  0  0  0  0
   19.5823  -17.8963  -14.5644 C   0  0  0  0  0  0  0  0  0  0  0  0
   21.0383  -18.2669  -14.5987 C   0  0  0  0  0  0  0  0  0  0  0  0
   21.3057  -19.3352  -13.5647 C   0  0  2  0  0  0  0  0  0  0  0  0
   22.7322  -19.7187  -13.6189 N   0  0  0  0  0  0  0  0  0  0  0  0
   20.5009  -20.5260  -13.8611 C   0  0  0  0  0  0  0  0  0  0  0  0
   19.3777  -20.7815  -13.0536 O   0  0  0  0  0  0  0  0  0  0  0  0
   20.6971  -21.3620  -14.7661 O   0  0  0  0  0  0  0  0  0  0  0  0
  2  1  1  6
  2  3  1  0
  3  4  1  0
  4  5  2  0
  5  6  1  0
  7  6  1  0
  8  7  2  0
  9  8  1  0
 10 11  1  0
 10  9  2  0
 11 12  2  0
 12  4  1  0
 12  7  1  0
 13  2  1  0
 13 14  2  0
 16 18  1  0
 16 15  1  6
 17 16  1  0
 18 19  1  1
 19 13  1  0
 20 18  1  0
 21 20  2  0
 23 22  1  0
 23 25  1  0
 24 23  2  0
 26 25  1  0
 27 26  1  0
 27 28  1  0
 29 28  1  6
 29 30  1  0
 30 20  1  0
 31 32  1  0
 31 29  1  0
 33 31  2  0
M  END
$$$$
