WTR.pdb
     RDKit          3D

 33 34  0  0  1  0  0  0  0  0999 V2000
   26.4680  -22.2722  -13.4305 N   0  0  0  0  0  0  0  0  0  0  0  0
   25.8199  -21.6132  -12.3235 C   0  0  1  0  0  0  0  0  0  0  0  0
   26.6072  -20.3660  -11.9707 C   0  0  0  0  0  0  0  0  0  0  0  0
   27.8309  -20.7049  -11.1640 C   0  0  0  0  0  0  0  0  0  0  0  0
   29.0947  -20.9591  -11.6386 C   0  0  0  0  0  0  0  0  0  0  0  0
   29.8950  -21.2578  -10.6103 N   0  0  0  0  0  0  0  0  0  0  0  0
   29.1815  -21.2057   -9.4557 C   0  0  0  0  0  0  0  0  0  0  0  0
   29.5749  -21.4284   -8.1398 C   0  0  0  0  0  0  0  0  0  0  0  0
   28.6469  -21.3002   -7.1314 C   0  0  0  0  0  0  0  0  0  0  0  0
   27.3470  -20.9531   -7.4488 C   0  0  0  0  0  0  0  0  0  0  0  0
   26.9983  -20.7418   -8.7604 C   0  0  0  0  0  0  0  0  0  0  0  0
   27.8964  -20.8612   -9.7975 C   0  0  0  0  0  0  0  0  0  0  0  0
   24.4341  -21.2722  -12.7338 C   0  0  0  0  0  0  0  0  0  0  0  0
   24.2022  -20.4308  -13.6529 O   0  0  0  0  0  0  0  0  0  0  0  0
   22.5917  -20.8872  -14.8327 C   0  0  0  0  0  0  0  0  0  0  0  0
   21.6676  -21.7100  -13.9647 C   0  0  1  0  0  0  0  0  0  0  0  0
   21.8549  -23.0725  -14.2305 O   0  0  0  0  0  0  0  0  0  0  0  0
   21.9318  -21.4355  -12.4706 C   0  0  2  0  0  0  0  0  0  0  0  0
   23.2734  -21.8637  -12.1289 N   0  0  0  0  0  0  0  0  0  0  0  0
   20.8829  -22.1615  -11.7388 C   0  0  0  0  0  0  0  0  0  0  0  0
   21.1572  -22.5878  -10.5686 O   0  0  0  0  0  0  0  0  0  0  0  0
   16.2791  -24.4708   -6.3215 N   0  0  0  0  0  0  0  0  0  0  0  0
   16.3837  -25.4797   -7.3123 C   0  0  0  0  0  0  0  0  0  0  0  0
   15.6970  -26.5610   -7.2740 N   0  0  0  0  0  0  0  0  0  0  0  0
   17.2911  -25.3081   -8.4179 N   0  0  0  0  0  0  0  0  0  0  0  0
   18.1082  -24.1251   -8.5325 C   0  0  0  0  0  0  0  0  0  0  0  0
   17.3297  -23.0294   -9.2761 C   0  0  0  0  0  0  0  0  0  0  0  0
   18.2350  -22.2629  -10.1990 C   0  0  0  0  0  0  0  0  0  0  0  0
   18.5564  -23.1152  -11.4041 C   0  0  2  0  0  0  0  0  0  0  0  0
   19.5762  -22.4305  -12.2262 N   0  0  0  0  0  0  0  0  0  0  0  0
   17.3518  -23.2914  -12.2235 C   0  0  0  0  0  0  0  0  0  0  0  0
   16.7581  -24.5662  -12.2588 O   0  0  0  0  0  0  0  0  0  0  0  0
   16.7751  -22.4251  -12.9114 O   0  0  0  0  0  0  0  0  0  0  0  0
  2  1  1  6
  2  3  1  0
  3  4  1  0
  4  5  2  0
  5  6  1  0
  7  6  1  0
  8  7  2  0
  9  8  1  0
 10 11  1  0
 10  9  2  0
 11 12  2  0
 12  4  1  0
 12  7  1  0
 13  2  1  0
 13 14  2  0
 16 18  1  0
 16 15  1  6
 17 16  1  0
 18 19  1  1
 19 13  1  0
 20 18  1  0
 21 20  2  0
 23 22  1  0
 23 25  1  0
 24 23  2  0
 26 25  1  0
 27 26  1  0
 27 28  1  0
 29 28  1  1
 29 30  1  0
 30 20  1  0
 31 32  1  0
 31 29  1  0
 33 31  2  0
M  END
$$$$
