WTR.pdb
     RDKit          3D

 33 34  0  0  1  0  0  0  0  0999 V2000
   27.9633  -20.6840   -9.0742 N   0  0  0  0  0  0  0  0  0  0  0  0
   26.5293  -20.7577   -8.9391 C   0  0  1  0  0  0  0  0  0  0  0  0
   26.0858  -19.7479   -7.8982 C   0  0  0  0  0  0  0  0  0  0  0  0
   27.2161  -19.3874   -6.9733 C   0  0  0  0  0  0  0  0  0  0  0  0
   28.1718  -18.4197   -7.1670 C   0  0  0  0  0  0  0  0  0  0  0  0
   29.0227  -18.4344   -6.1361 N   0  0  0  0  0  0  0  0  0  0  0  0
   28.6467  -19.3990   -5.2568 C   0  0  0  0  0  0  0  0  0  0  0  0
   29.2088  -19.7843   -4.0437 C   0  0  0  0  0  0  0  0  0  0  0  0
   28.6215  -20.8008   -3.3252 C   0  0  0  0  0  0  0  0  0  0  0  0
   27.4880  -21.4146   -3.8245 C   0  0  0  0  0  0  0  0  0  0  0  0
   26.9639  -21.0052   -5.0262 C   0  0  0  0  0  0  0  0  0  0  0  0
   27.5221  -19.9934   -5.7753 C   0  0  0  0  0  0  0  0  0  0  0  0
   25.9232  -20.4627  -10.2623 C   0  0  0  0  0  0  0  0  0  0  0  0
   26.2009  -19.4016  -10.8976 O   0  0  0  0  0  0  0  0  0  0  0  0
   26.5994  -19.8937  -12.8361 C   0  0  0  0  0  0  0  0  0  0  0  0
   25.6158  -20.9673  -13.2417 C   0  0  1  0  0  0  0  0  0  0  0  0
   26.2696  -22.2035  -13.3235 O   0  0  0  0  0  0  0  0  0  0  0  0
   24.4598  -21.0621  -12.2260 C   0  0  2  0  0  0  0  0  0  0  0  0
   24.9936  -21.3460  -10.9090 N   0  0  0  0  0  0  0  0  0  0  0  0
   23.5665  -22.1144  -12.7333 C   0  0  0  0  0  0  0  0  0  0  0  0
   23.8145  -23.3201  -12.4000 O   0  0  0  0  0  0  0  0  0  0  0  0
   17.2650  -23.9842   -8.2786 N   0  0  0  0  0  0  0  0  0  0  0  0
   18.6806  -24.0668   -8.2765 C   0  0  0  0  0  0  0  0  0  0  0  0
   19.3309  -24.7778   -7.4317 N   0  0  0  0  0  0  0  0  0  0  0  0
   19.4435  -23.3318   -9.2526 N   0  0  0  0  0  0  0  0  0  0  0  0
   18.7905  -22.6095  -10.3165 C   0  0  0  0  0  0  0  0  0  0  0  0
   19.3964  -23.0196  -11.6673 C   0  0  0  0  0  0  0  0  0  0  0  0
   20.6393  -22.2266  -11.9587 C   0  0  0  0  0  0  0  0  0  0  0  0
   21.1476  -22.5838  -13.3357 C   0  0  2  0  0  0  0  0  0  0  0  0
   22.4383  -21.9025  -13.5697 N   0  0  0  0  0  0  0  0  0  0  0  0
   20.1957  -22.1210  -14.3522 C   0  0  0  0  0  0  0  0  0  0  0  0
   20.2489  -20.7699  -14.7400 O   0  0  0  0  0  0  0  0  0  0  0  0
   19.3212  -22.7982  -14.9293 O   0  0  0  0  0  0  0  0  0  0  0  0
  2  1  1  6
  2  3  1  0
  3  4  1  0
  4  5  2  0
  5  6  1  0
  7  6  1  0
  8  7  2  0
  9  8  1  0
 10 11  1  0
 10  9  2  0
 11 12  2  0
 12  4  1  0
 12  7  1  0
 13  2  1  0
 13 14  2  0
 16 18  1  0
 16 15  1  1
 17 16  1  0
 18 19  1  1
 19 13  1  0
 20 18  1  0
 21 20  2  0
 23 22  1  0
 23 25  1  0
 24 23  2  0
 26 25  1  0
 27 26  1  0
 27 28  1  0
 29 28  1  1
 29 30  1  0
 30 20  1  0
 31 32  1  0
 31 29  1  0
 33 31  2  0
M  END
$$$$
