HAQ.pdb
     RDKit          3D

 25 25  0  0  1  0  0  0  0  0999 V2000
   20.5385  -14.9079  -16.9528 N   0  0  0  0  0  0  0  0  0  0  0  0
   19.5694  -14.1266  -16.2521 C   0  0  1  0  0  0  0  0  0  0  0  0
   19.6856  -14.3361  -14.7550 C   0  0  0  0  0  0  0  0  0  0  0  0
   19.4714  -15.7619  -14.4583 C   0  0  0  0  0  0  0  0  0  0  0  0
   18.3857  -16.5098  -14.8622 C   0  0  0  0  0  0  0  0  0  0  0  0
   18.5946  -17.7564  -14.3750 N   0  0  0  0  0  0  0  0  0  0  0  0
   19.7575  -17.7811  -13.6992 C   0  0  0  0  0  0  0  0  0  0  0  0
   20.2916  -16.5475  -13.7554 N   0  0  0  0  0  0  0  0  0  0  0  0
   19.5699  -12.7002  -16.6156 C   0  0  0  0  0  0  0  0  0  0  0  0
   20.6546  -12.0792  -16.5713 O   0  0  0  0  0  0  0  0  0  0  0  0
   17.1324  -10.1711  -18.0742 C   0  0  0  0  0  0  0  0  0  0  0  0
   18.4226  -10.6049  -17.4059 C   0  0  2  0  0  0  0  0  0  0  0  0
   18.3906  -11.9887  -17.0171 N   0  0  0  0  0  0  0  0  0  0  0  0
   18.6347   -9.7646  -16.2048 C   0  0  0  0  0  0  0  0  0  0  0  0
   18.3271  -10.2179  -15.0611 O   0  0  0  0  0  0  0  0  0  0  0  0
   23.2149   -5.3507  -15.7626 N   0  0  0  0  0  0  0  0  0  0  0  0
   22.4197   -5.2394  -14.5677 C   0  0  0  0  0  0  0  0  0  0  0  0
   22.8527   -4.4255  -13.7299 O   0  0  0  0  0  0  0  0  0  0  0  0
   21.2161   -6.0087  -14.3469 C   0  0  0  0  0  0  0  0  0  0  0  0
   20.7044   -6.9214  -15.3764 C   0  0  0  0  0  0  0  0  0  0  0  0
   19.4343   -7.6545  -15.1215 C   0  0  2  0  0  0  0  0  0  0  0  0
   19.1790   -8.4620  -16.3399 N   0  0  0  0  0  0  0  0  0  0  0  0
   18.2339   -6.8645  -14.8836 C   0  0  0  0  0  0  0  0  0  0  0  0
   17.8371   -6.4204  -13.6426 O   0  0  0  0  0  0  0  0  0  0  0  0
   17.4809   -6.5481  -15.8722 O   0  0  0  0  0  0  0  0  0  0  0  0
  2  1  1  6
  2  9  1  0
  3  2  1  0
  4  5  2  0
  4  3  1  0
  6  5  1  0
  7  8  2  0
  7  6  1  0
  8  4  1  0
  9 10  2  0
 12 11  1  1
 12 14  1  0
 13 12  1  0
 13  9  1  0
 14 15  2  0
 16 17  1  0
 17 19  1  0
 18 17  2  0
 19 20  1  0
 21 20  1  6
 21 23  1  0
 22 14  1  0
 22 21  1  0
 23 25  2  0
 23 24  1  0
M  END
$$$$
