HAQ.pdb
     RDKit          3D

 25 25  0  0  1  0  0  0  0  0999 V2000
   25.9404  -32.3207   -9.8220 N   0  0  0  0  0  0  0  0  0  0  0  0
   24.6103  -32.8298   -9.7118 C   0  0  1  0  0  0  0  0  0  0  0  0
   24.4529  -34.1092  -10.5101 C   0  0  0  0  0  0  0  0  0  0  0  0
   25.4347  -35.0932  -10.0261 C   0  0  0  0  0  0  0  0  0  0  0  0
   25.7337  -35.3425   -8.7033 C   0  0  0  0  0  0  0  0  0  0  0  0
   26.6802  -36.3116   -8.7153 N   0  0  0  0  0  0  0  0  0  0  0  0
   26.9560  -36.6486   -9.9880 C   0  0  0  0  0  0  0  0  0  0  0  0
   26.1840  -35.8929  -10.7898 N   0  0  0  0  0  0  0  0  0  0  0  0
   24.1354  -32.9771   -8.3263 C   0  0  0  0  0  0  0  0  0  0  0  0
   24.9064  -32.6465   -7.3988 O   0  0  0  0  0  0  0  0  0  0  0  0
   20.8149  -33.2528   -6.6200 C   0  0  0  0  0  0  0  0  0  0  0  0
   22.3196  -33.4380   -6.6465 C   0  0  2  0  0  0  0  0  0  0  0  0
   22.8350  -33.4799   -7.9879 N   0  0  0  0  0  0  0  0  0  0  0  0
   22.6487  -34.7067   -5.9567 C   0  0  0  0  0  0  0  0  0  0  0  0
   23.1469  -35.6678   -6.6174 O   0  0  0  0  0  0  0  0  0  0  0  0
   23.1954  -35.2395    0.4849 N   0  0  0  0  0  0  0  0  0  0  0  0
   23.4417  -36.5379   -0.0861 C   0  0  0  0  0  0  0  0  0  0  0  0
   23.7392  -37.4207    0.7409 O   0  0  0  0  0  0  0  0  0  0  0  0
   23.3569  -36.8048   -1.5041 C   0  0  0  0  0  0  0  0  0  0  0  0
   22.9658  -35.7509   -2.4482 C   0  0  0  0  0  0  0  0  0  0  0  0
   22.7811  -36.1021   -3.8828 C   0  0  2  0  0  0  0  0  0  0  0  0
   22.4057  -34.8394   -4.5658 N   0  0  0  0  0  0  0  0  0  0  0  0
   21.7518  -37.0785   -4.2126 C   0  0  0  0  0  0  0  0  0  0  0  0
   21.9701  -38.4360   -4.2783 O   0  0  0  0  0  0  0  0  0  0  0  0
   20.5594  -36.6782   -4.4619 O   0  0  0  0  0  0  0  0  0  0  0  0
  2  1  1  1
  2  9  1  0
  3  2  1  0
  4  5  2  0
  4  3  1  0
  6  5  1  0
  7  8  2  0
  7  6  1  0
  8  4  1  0
  9 10  2  0
 12 11  1  6
 12 14  1  0
 13 12  1  0
 13  9  1  0
 14 15  2  0
 16 17  1  0
 17 19  1  0
 18 17  2  0
 19 20  1  0
 21 20  1  1
 21 23  1  0
 22 14  1  0
 22 21  1  0
 23 25  2  0
 23 24  1  0
M  END
$$$$
