HAQ.pdb
     RDKit          3D

 25 25  0  0  1  0  0  0  0  0999 V2000
   28.7366  -19.6178  -14.3682 N   0  0  0  0  0  0  0  0  0  0  0  0
   27.4405  -19.6478  -14.9679 C   0  0  1  0  0  0  0  0  0  0  0  0
   27.5306  -20.0317  -16.4320 C   0  0  0  0  0  0  0  0  0  0  0  0
   28.3542  -19.0336  -17.1334 C   0  0  0  0  0  0  0  0  0  0  0  0
   29.4671  -18.4061  -16.6148 C   0  0  0  0  0  0  0  0  0  0  0  0
   29.9101  -17.5757  -17.5891 N   0  0  0  0  0  0  0  0  0  0  0  0
   29.1083  -17.6828  -18.6638 C   0  0  0  0  0  0  0  0  0  0  0  0
   28.1517  -18.5836  -18.3747 N   0  0  0  0  0  0  0  0  0  0  0  0
   26.4587  -20.4663  -14.2380 C   0  0  0  0  0  0  0  0  0  0  0  0
   25.6886  -21.1962  -14.9001 O   0  0  0  0  0  0  0  0  0  0  0  0
   25.5010  -21.1567  -10.6119 C   0  0  0  0  0  0  0  0  0  0  0  0
   25.3617  -21.2626  -12.1181 C   0  0  2  0  0  0  0  0  0  0  0  0
   26.3415  -20.4684  -12.8081 N   0  0  0  0  0  0  0  0  0  0  0  0
   24.0055  -20.8038  -12.4976 C   0  0  0  0  0  0  0  0  0  0  0  0
   23.7199  -19.5701  -12.4295 O   0  0  0  0  0  0  0  0  0  0  0  0
   19.4623  -24.7107  -15.0969 N   0  0  0  0  0  0  0  0  0  0  0  0
   18.9056  -23.3870  -14.9942 C   0  0  0  0  0  0  0  0  0  0  0  0
   17.7363  -23.2818  -15.4104 O   0  0  0  0  0  0  0  0  0  0  0  0
   19.6381  -22.2630  -14.4562 C   0  0  0  0  0  0  0  0  0  0  0  0
   21.0170  -22.4202  -13.9779 C   0  0  0  0  0  0  0  0  0  0  0  0
   21.6871  -21.2647  -13.3210 C   0  0  2  0  0  0  0  0  0  0  0  0
   23.0370  -21.7436  -12.9336 N   0  0  0  0  0  0  0  0  0  0  0  0
   21.0734  -20.7228  -12.1163 C   0  0  0  0  0  0  0  0  0  0  0  0
   20.3241  -19.5685  -12.0855 O   0  0  0  0  0  0  0  0  0  0  0  0
   21.2232  -21.3376  -11.0010 O   0  0  0  0  0  0  0  0  0  0  0  0
  2  1  1  1
  2  9  1  0
  3  2  1  0
  4  5  2  0
  4  3  1  0
  6  5  1  0
  7  8  2  0
  7  6  1  0
  8  4  1  0
  9 10  2  0
 12 11  1  1
 12 14  1  0
 13 12  1  0
 13  9  1  0
 14 15  2  0
 16 17  1  0
 17 19  1  0
 18 17  2  0
 19 20  1  0
 21 20  1  1
 21 23  1  0
 22 14  1  0
 22 21  1  0
 23 25  2  0
 23 24  1  0
M  END
$$$$
