HAQ.pdb
     RDKit          3D

 25 25  0  0  1  0  0  0  0  0999 V2000
   16.7038  -21.7886    5.4196 N   0  0  0  0  0  0  0  0  0  0  0  0
   17.7788  -22.1234    6.2988 C   0  0  1  0  0  0  0  0  0  0  0  0
   18.9912  -22.5907    5.5174 C   0  0  0  0  0  0  0  0  0  0  0  0
   18.6583  -23.8527    4.8368 C   0  0  0  0  0  0  0  0  0  0  0  0
   18.9644  -25.1160    5.2971 C   0  0  0  0  0  0  0  0  0  0  0  0
   18.4776  -25.9747    4.3692 N   0  0  0  0  0  0  0  0  0  0  0  0
   17.8956  -25.2759    3.3780 C   0  0  0  0  0  0  0  0  0  0  0  0
   18.0113  -23.9686    3.6740 N   0  0  0  0  0  0  0  0  0  0  0  0
   18.1149  -21.0672    7.2674 C   0  0  0  0  0  0  0  0  0  0  0  0
   18.4391  -19.9425    6.8269 O   0  0  0  0  0  0  0  0  0  0  0  0
   17.7324  -20.4405   10.9685 C   0  0  0  0  0  0  0  0  0  0  0  0
   18.3761  -20.2035    9.6163 C   0  0  2  0  0  0  0  0  0  0  0  0
   18.0893  -21.2635    8.6883 N   0  0  0  0  0  0  0  0  0  0  0  0
   19.8417  -20.1027    9.8052 C   0  0  0  0  0  0  0  0  0  0  0  0
   20.5939  -21.0277    9.3730 O   0  0  0  0  0  0  0  0  0  0  0  0
   23.0444  -14.5901   10.2339 N   0  0  0  0  0  0  0  0  0  0  0  0
   23.9658  -15.6252   10.6238 C   0  0  0  0  0  0  0  0  0  0  0  0
   25.1187  -15.2262   10.8755 O   0  0  0  0  0  0  0  0  0  0  0  0
   23.5935  -17.0189   10.7152 C   0  0  0  0  0  0  0  0  0  0  0  0
   22.2066  -17.4456   10.4933 C   0  0  0  0  0  0  0  0  0  0  0  0
   21.8651  -18.8872   10.6381 C   0  0  2  0  0  0  0  0  0  0  0  0
   20.3940  -18.9760   10.4662 N   0  0  0  0  0  0  0  0  0  0  0  0
   22.1783  -19.5320   11.9060 C   0  0  0  0  0  0  0  0  0  0  0  0
   23.3125  -20.2788   12.1313 O   0  0  0  0  0  0  0  0  0  0  0  0
   21.3659  -19.4141   12.8911 O   0  0  0  0  0  0  0  0  0  0  0  0
  2  1  1  6
  2  9  1  0
  3  2  1  0
  4  5  2  0
  4  3  1  0
  6  5  1  0
  7  8  2  0
  7  6  1  0
  8  4  1  0
  9 10  2  0
 12 11  1  1
 12 14  1  0
 13 12  1  0
 13  9  1  0
 14 15  2  0
 16 17  1  0
 17 19  1  0
 18 17  2  0
 19 20  1  0
 21 20  1  1
 21 23  1  0
 22 14  1  0
 22 21  1  0
 23 25  2  0
 23 24  1  0
M  END
$$$$
