HAQ.pdb
     RDKit          3D

 25 25  0  0  1  0  0  0  0  0999 V2000
   25.1291  -14.1564  -18.2616 N   0  0  0  0  0  0  0  0  0  0  0  0
   24.5254  -13.6253  -17.0810 C   0  0  1  0  0  0  0  0  0  0  0  0
   25.5318  -13.5404  -15.9501 C   0  0  0  0  0  0  0  0  0  0  0  0
   26.0984  -14.8792  -15.7190 C   0  0  0  0  0  0  0  0  0  0  0  0
   25.3823  -16.0005  -15.3569 C   0  0  0  0  0  0  0  0  0  0  0  0
   26.2904  -17.0004  -15.2529 N   0  0  0  0  0  0  0  0  0  0  0  0
   27.5146  -16.5213  -15.5376 C   0  0  0  0  0  0  0  0  0  0  0  0
   27.3875  -15.2129  -15.8238 N   0  0  0  0  0  0  0  0  0  0  0  0
   23.8143  -12.3533  -17.2889 C   0  0  0  0  0  0  0  0  0  0  0  0
   24.4917  -11.3297  -17.5289 O   0  0  0  0  0  0  0  0  0  0  0  0
   20.2230  -11.1856  -17.7136 C   0  0  0  0  0  0  0  0  0  0  0  0
   21.7103  -10.9886  -17.4938 C   0  0  2  0  0  0  0  0  0  0  0  0
   22.3862  -12.2298  -17.2300 N   0  0  0  0  0  0  0  0  0  0  0  0
   21.8979  -10.0757  -16.3427 C   0  0  0  0  0  0  0  0  0  0  0  0
   22.1825  -10.5548  -15.2034 O   0  0  0  0  0  0  0  0  0  0  0  0
   23.0545   -3.7142  -16.7376 N   0  0  0  0  0  0  0  0  0  0  0  0
   22.6533   -3.9915  -15.3831 C   0  0  0  0  0  0  0  0  0  0  0  0
   22.6501   -2.9998  -14.6293 O   0  0  0  0  0  0  0  0  0  0  0  0
   22.2855   -5.3119  -14.9241 C   0  0  0  0  0  0  0  0  0  0  0  0
   22.1787   -6.4347  -15.8636 C   0  0  0  0  0  0  0  0  0  0  0  0
   21.8390   -7.7846  -15.3363 C   0  0  2  0  0  0  0  0  0  0  0  0
   21.7589   -8.6755  -16.5201 N   0  0  0  0  0  0  0  0  0  0  0  0
   20.5821   -7.9321  -14.6153 C   0  0  0  0  0  0  0  0  0  0  0  0
   20.4536   -7.7858  -13.2526 O   0  0  0  0  0  0  0  0  0  0  0  0
   19.5126   -8.2156  -15.2636 O   0  0  0  0  0  0  0  0  0  0  0  0
  2  1  1  6
  2  9  1  0
  3  2  1  0
  4  5  2  0
  4  3  1  0
  6  5  1  0
  7  8  2  0
  7  6  1  0
  8  4  1  0
  9 10  2  0
 12 11  1  1
 12 14  1  0
 13 12  1  0
 13  9  1  0
 14 15  2  0
 16 17  1  0
 17 19  1  0
 18 17  2  0
 19 20  1  0
 21 20  1  6
 21 23  1  0
 22 14  1  0
 22 21  1  0
 23 25  2  0
 23 24  1  0
M  END
$$$$
