HAQ.pdb
     RDKit          3D

 25 25  0  0  1  0  0  0  0  0999 V2000
   21.5051  -14.4770  -16.9231 N   0  0  0  0  0  0  0  0  0  0  0  0
   21.6899  -13.1528  -17.4260 C   0  0  1  0  0  0  0  0  0  0  0  0
   20.4628  -12.6861  -18.1843 C   0  0  0  0  0  0  0  0  0  0  0  0
   20.1881  -13.6383  -19.2727 C   0  0  0  0  0  0  0  0  0  0  0  0
   19.0746  -14.4460  -19.3683 C   0  0  0  0  0  0  0  0  0  0  0  0
   19.2291  -15.1531  -20.5135 N   0  0  0  0  0  0  0  0  0  0  0  0
   20.3861  -14.8002  -21.1018 C   0  0  0  0  0  0  0  0  0  0  0  0
   20.9712  -13.8659  -20.3305 N   0  0  0  0  0  0  0  0  0  0  0  0
   22.1198  -12.1781  -16.4102 C   0  0  0  0  0  0  0  0  0  0  0  0
   21.2864  -11.8111  -15.5529 O   0  0  0  0  0  0  0  0  0  0  0  0
   25.3188  -10.3898  -15.3785 C   0  0  0  0  0  0  0  0  0  0  0  0
   23.8209  -10.6248  -15.3978 C   0  0  2  0  0  0  0  0  0  0  0  0
   23.4442  -11.6294  -16.3548 N   0  0  0  0  0  0  0  0  0  0  0  0
   23.1499   -9.3492  -15.7387 C   0  0  0  0  0  0  0  0  0  0  0  0
   22.8832   -9.0860  -16.9503 O   0  0  0  0  0  0  0  0  0  0  0  0
   17.8934   -8.3794  -16.1747 N   0  0  0  0  0  0  0  0  0  0  0  0
   18.2852   -7.0169  -15.9244 C   0  0  0  0  0  0  0  0  0  0  0  0
   17.3589   -6.1877  -16.0029 O   0  0  0  0  0  0  0  0  0  0  0  0
   19.6424   -6.6316  -15.6102 C   0  0  0  0  0  0  0  0  0  0  0  0
   20.6909   -7.6427  -15.4283 C   0  0  0  0  0  0  0  0  0  0  0  0
   22.0633   -7.1985  -15.0610 C   0  0  2  0  0  0  0  0  0  0  0  0
   22.8104   -8.4319  -14.7117 N   0  0  0  0  0  0  0  0  0  0  0  0
   22.2000   -6.2914  -13.9296 C   0  0  0  0  0  0  0  0  0  0  0  0
   22.1403   -4.9199  -14.0298 O   0  0  0  0  0  0  0  0  0  0  0  0
   22.3885   -6.7716  -12.7555 O   0  0  0  0  0  0  0  0  0  0  0  0
  2  1  1  1
  2  9  1  0
  3  2  1  0
  4  5  2  0
  4  3  1  0
  6  5  1  0
  7  8  2  0
  7  6  1  0
  8  4  1  0
  9 10  2  0
 12 11  1  6
 12 14  1  0
 13 12  1  0
 13  9  1  0
 14 15  2  0
 16 17  1  0
 17 19  1  0
 18 17  2  0
 19 20  1  0
 21 20  1  1
 21 23  1  0
 22 14  1  0
 22 21  1  0
 23 25  2  0
 23 24  1  0
M  END
$$$$
