HAQ.pdb
     RDKit          3D

 25 25  0  0  1  0  0  0  0  0999 V2000
   25.3240  -15.5193  -18.6084 N   0  0  0  0  0  0  0  0  0  0  0  0
   25.6810  -14.1561  -18.8424 C   0  0  1  0  0  0  0  0  0  0  0  0
   25.0612  -13.6478  -20.1294 C   0  0  0  0  0  0  0  0  0  0  0  0
   25.6019  -14.4268  -21.2552 C   0  0  0  0  0  0  0  0  0  0  0  0
   26.7303  -15.2182  -21.2131 C   0  0  0  0  0  0  0  0  0  0  0  0
   26.8591  -15.7434  -22.4552 N   0  0  0  0  0  0  0  0  0  0  0  0
   25.8561  -15.2981  -23.2330 C   0  0  0  0  0  0  0  0  0  0  0  0
   25.0856  -14.4870  -22.4857 N   0  0  0  0  0  0  0  0  0  0  0  0
   25.4138  -13.2605  -17.7051 C   0  0  0  0  0  0  0  0  0  0  0  0
   24.3110  -13.3569  -17.1232 O   0  0  0  0  0  0  0  0  0  0  0  0
   27.2580  -10.5702  -15.7339 C   0  0  0  0  0  0  0  0  0  0  0  0
   26.0499  -11.3853  -16.1527 C   0  0  2  0  0  0  0  0  0  0  0  0
   26.3534  -12.2850  -17.2323 N   0  0  0  0  0  0  0  0  0  0  0  0
   24.9801  -10.4539  -16.5789 C   0  0  0  0  0  0  0  0  0  0  0  0
   24.9512  -10.0393  -17.7771 O   0  0  0  0  0  0  0  0  0  0  0  0
   19.1438  -11.4673  -16.4891 N   0  0  0  0  0  0  0  0  0  0  0  0
   19.1960  -10.0358  -16.6333 C   0  0  0  0  0  0  0  0  0  0  0  0
   18.0955   -9.4959  -16.8551 O   0  0  0  0  0  0  0  0  0  0  0  0
   20.4226   -9.2775  -16.5342 C   0  0  0  0  0  0  0  0  0  0  0  0
   21.6911   -9.9350  -16.1976 C   0  0  0  0  0  0  0  0  0  0  0  0
   22.9251   -9.1089  -16.0955 C   0  0  2  0  0  0  0  0  0  0  0  0
   23.9969  -10.0321  -15.6477 N   0  0  0  0  0  0  0  0  0  0  0  0
   22.9158   -7.9928  -15.1596 C   0  0  0  0  0  0  0  0  0  0  0  0
   22.5231   -6.7151  -15.4880 O   0  0  0  0  0  0  0  0  0  0  0  0
   23.2915   -8.1823  -13.9483 O   0  0  0  0  0  0  0  0  0  0  0  0
  2  1  1  1
  2  9  1  0
  3  2  1  0
  4  5  2  0
  4  3  1  0
  6  5  1  0
  7  8  2  0
  7  6  1  0
  8  4  1  0
  9 10  2  0
 12 11  1  6
 12 14  1  0
 13 12  1  0
 13  9  1  0
 14 15  2  0
 16 17  1  0
 17 19  1  0
 18 17  2  0
 19 20  1  0
 21 20  1  1
 21 23  1  0
 22 14  1  0
 22 21  1  0
 23 25  2  0
 23 24  1  0
M  END
$$$$
