HAQ.pdb
     RDKit          3D

 25 25  0  0  1  0  0  0  0  0999 V2000
   28.2911  -21.3025  -16.0025 N   0  0  0  0  0  0  0  0  0  0  0  0
   27.4748  -20.4006  -15.2537 C   0  0  1  0  0  0  0  0  0  0  0  0
   26.8952  -19.3240  -16.1503 C   0  0  0  0  0  0  0  0  0  0  0  0
   27.9956  -18.4915  -16.6629 C   0  0  0  0  0  0  0  0  0  0  0  0
   28.5763  -17.4329  -15.9970 C   0  0  0  0  0  0  0  0  0  0  0  0
   29.5371  -16.9582  -16.8257 N   0  0  0  0  0  0  0  0  0  0  0  0
   29.5520  -17.6892  -17.9548 C   0  0  0  0  0  0  0  0  0  0  0  0
   28.5987  -18.6324  -17.8464 N   0  0  0  0  0  0  0  0  0  0  0  0
   26.4421  -21.0599  -14.4378 C   0  0  0  0  0  0  0  0  0  0  0  0
   25.7036  -21.9053  -14.9891 O   0  0  0  0  0  0  0  0  0  0  0  0
   25.2554  -21.0235  -10.8147 C   0  0  0  0  0  0  0  0  0  0  0  0
   25.1798  -21.3846  -12.2855 C   0  0  2  0  0  0  0  0  0  0  0  0
   26.2413  -20.7815  -13.0448 N   0  0  0  0  0  0  0  0  0  0  0  0
   23.8762  -20.9229  -12.8158 C   0  0  0  0  0  0  0  0  0  0  0  0
   23.7395  -19.7151  -13.1775 O   0  0  0  0  0  0  0  0  0  0  0  0
   17.6544  -21.2399  -15.4446 N   0  0  0  0  0  0  0  0  0  0  0  0
   18.5069  -22.3410  -15.0792 C   0  0  0  0  0  0  0  0  0  0  0  0
   17.9045  -23.3447  -14.6531 O   0  0  0  0  0  0  0  0  0  0  0  0
   19.9473  -22.2939  -15.1906 C   0  0  0  0  0  0  0  0  0  0  0  0
   20.8022  -22.5089  -14.0168 C   0  0  0  0  0  0  0  0  0  0  0  0
   21.4761  -21.3375  -13.3930 C   0  0  2  0  0  0  0  0  0  0  0  0
   22.7916  -21.8312  -12.9161 N   0  0  0  0  0  0  0  0  0  0  0  0
   20.8243  -20.7121  -12.2503 C   0  0  0  0  0  0  0  0  0  0  0  0
   19.8968  -19.7000  -12.3510 O   0  0  0  0  0  0  0  0  0  0  0  0
   21.1125  -21.1081  -11.0652 O   0  0  0  0  0  0  0  0  0  0  0  0
  2  1  1  6
  2  9  1  0
  3  2  1  0
  4  5  2  0
  4  3  1  0
  6  5  1  0
  7  8  2  0
  7  6  1  0
  8  4  1  0
  9 10  2  0
 12 11  1  1
 12 14  1  0
 13 12  1  0
 13  9  1  0
 14 15  2  0
 16 17  1  0
 17 19  1  0
 18 17  2  0
 19 20  1  0
 21 20  1  1
 21 23  1  0
 22 14  1  0
 22 21  1  0
 23 25  2  0
 23 24  1  0
M  END
$$$$
