HAQ.pdb
     RDKit          3D

 25 25  0  0  1  0  0  0  0  0999 V2000
   24.7355  -17.5680  -19.7460 N   0  0  0  0  0  0  0  0  0  0  0  0
   24.7078  -17.7408  -18.3284 C   0  0  1  0  0  0  0  0  0  0  0  0
   25.2030  -16.4941  -17.6216 C   0  0  0  0  0  0  0  0  0  0  0  0
   26.5754  -16.2087  -18.0708 C   0  0  0  0  0  0  0  0  0  0  0  0
   27.6310  -17.0951  -18.0337 C   0  0  0  0  0  0  0  0  0  0  0  0
   28.6943  -16.4237  -18.5375 N   0  0  0  0  0  0  0  0  0  0  0  0
   28.3158  -15.1771  -18.8721 C   0  0  0  0  0  0  0  0  0  0  0  0
   27.0081  -15.0527  -18.5812 N   0  0  0  0  0  0  0  0  0  0  0  0
   23.4113  -18.1994  -17.8035 C   0  0  0  0  0  0  0  0  0  0  0  0
   22.3931  -17.5242  -18.0706 O   0  0  0  0  0  0  0  0  0  0  0  0
   22.0392  -21.2387  -15.9718 C   0  0  0  0  0  0  0  0  0  0  0  0
   21.9746  -19.8352  -16.5420 C   0  0  2  0  0  0  0  0  0  0  0  0
   23.2581  -19.3798  -17.0026 N   0  0  0  0  0  0  0  0  0  0  0  0
   21.4821  -18.9214  -15.4855 C   0  0  0  0  0  0  0  0  0  0  0  0
   22.3106  -18.2290  -14.8203 O   0  0  0  0  0  0  0  0  0  0  0  0
   19.6504  -13.8255  -16.1815 N   0  0  0  0  0  0  0  0  0  0  0  0
   19.2084  -14.0335  -14.8273 C   0  0  0  0  0  0  0  0  0  0  0  0
   18.7459  -13.0195  -14.2707 O   0  0  0  0  0  0  0  0  0  0  0  0
   19.2939  -15.3113  -14.1572 C   0  0  0  0  0  0  0  0  0  0  0  0
   19.7853  -16.5016  -14.8621 C   0  0  0  0  0  0  0  0  0  0  0  0
   19.6081  -17.8372  -14.2293 C   0  0  2  0  0  0  0  0  0  0  0  0
   20.0914  -18.8261  -15.2243 N   0  0  0  0  0  0  0  0  0  0  0  0
   18.2564  -18.2377  -13.8633 C   0  0  0  0  0  0  0  0  0  0  0  0
   17.6738  -17.9625  -12.6469 O   0  0  0  0  0  0  0  0  0  0  0  0
   17.5413  -18.8881  -14.7060 O   0  0  0  0  0  0  0  0  0  0  0  0
  2  1  1  6
  2  9  1  0
  3  2  1  0
  4  5  2  0
  4  3  1  0
  6  5  1  0
  7  8  2  0
  7  6  1  0
  8  4  1  0
  9 10  2  0
 12 11  1  1
 12 14  1  0
 13 12  1  0
 13  9  1  0
 14 15  2  0
 16 17  1  0
 17 19  1  0
 18 17  2  0
 19 20  1  0
 21 20  1  6
 21 23  1  0
 22 14  1  0
 22 21  1  0
 23 25  2  0
 23 24  1  0
M  END
$$$$
