HAQ.pdb
     RDKit          3D

 25 25  0  0  1  0  0  0  0  0999 V2000
   24.4770  -20.2697  -15.2311 N   0  0  0  0  0  0  0  0  0  0  0  0
   23.1093  -20.5457  -15.5369 C   0  0  1  0  0  0  0  0  0  0  0  0
   22.9907  -21.7594  -16.4380 C   0  0  0  0  0  0  0  0  0  0  0  0
   23.7237  -21.4954  -17.6868 C   0  0  0  0  0  0  0  0  0  0  0  0
   23.1651  -21.0418  -18.8630 C   0  0  0  0  0  0  0  0  0  0  0  0
   24.1900  -20.9393  -19.7428 N   0  0  0  0  0  0  0  0  0  0  0  0
   25.3331  -21.3124  -19.1399 C   0  0  0  0  0  0  0  0  0  0  0  0
   25.0370  -21.6538  -17.8727 N   0  0  0  0  0  0  0  0  0  0  0  0
   22.2365  -20.6429  -14.3557 C   0  0  0  0  0  0  0  0  0  0  0  0
   22.6286  -21.3282  -13.3856 O   0  0  0  0  0  0  0  0  0  0  0  0
   19.0411  -19.0097  -13.0995 C   0  0  0  0  0  0  0  0  0  0  0  0
   20.1689  -20.0226  -13.0627 C   0  0  2  0  0  0  0  0  0  0  0  0
   20.9613  -19.9922  -14.2619 N   0  0  0  0  0  0  0  0  0  0  0  0
   19.5823  -21.3726  -12.8986 C   0  0  0  0  0  0  0  0  0  0  0  0
   19.4884  -22.1410  -13.9032 O   0  0  0  0  0  0  0  0  0  0  0  0
   19.7104  -24.5238   -7.3220 N   0  0  0  0  0  0  0  0  0  0  0  0
   18.9316  -25.3266   -8.2284 C   0  0  0  0  0  0  0  0  0  0  0  0
   18.5862  -26.4342   -7.7749 O   0  0  0  0  0  0  0  0  0  0  0  0
   18.5770  -24.8927   -9.5608 C   0  0  0  0  0  0  0  0  0  0  0  0
   18.9343  -23.5510  -10.0374 C   0  0  0  0  0  0  0  0  0  0  0  0
   18.6489  -23.1905  -11.4532 C   0  0  2  0  0  0  0  0  0  0  0  0
   19.1303  -21.7974  -11.6232 N   0  0  0  0  0  0  0  0  0  0  0  0
   17.2590  -23.2095  -11.8885 C   0  0  0  0  0  0  0  0  0  0  0  0
   16.6411  -24.3056  -12.4465 O   0  0  0  0  0  0  0  0  0  0  0  0
   16.5423  -22.1544  -11.7563 O   0  0  0  0  0  0  0  0  0  0  0  0
  2  1  1  1
  2  9  1  0
  3  2  1  0
  4  5  2  0
  4  3  1  0
  6  5  1  0
  7  8  2  0
  7  6  1  0
  8  4  1  0
  9 10  2  0
 12 11  1  6
 12 14  1  0
 13 12  1  0
 13  9  1  0
 14 15  2  0
 16 17  1  0
 17 19  1  0
 18 17  2  0
 19 20  1  0
 21 20  1  1
 21 23  1  0
 22 14  1  0
 22 21  1  0
 23 25  2  0
 23 24  1  0
M  END
$$$$
