HAQ.pdb
     RDKit          3D

 25 25  0  0  1  0  0  0  0  0999 V2000
   25.6900  -35.4734   -5.8491 N   0  0  0  0  0  0  0  0  0  0  0  0
   26.7760  -34.7821   -5.2302 C   0  0  1  0  0  0  0  0  0  0  0  0
   26.5031  -33.2920   -5.1669 C   0  0  0  0  0  0  0  0  0  0  0  0
   26.3125  -32.7869   -6.5363 C   0  0  0  0  0  0  0  0  0  0  0  0
   27.2744  -32.7677   -7.5241 C   0  0  0  0  0  0  0  0  0  0  0  0
   26.6755  -32.2260   -8.6118 N   0  0  0  0  0  0  0  0  0  0  0  0
   25.3996  -31.9227   -8.3126 C   0  0  0  0  0  0  0  0  0  0  0  0
   25.1839  -32.2717   -7.0312 N   0  0  0  0  0  0  0  0  0  0  0  0
   27.1716  -35.3308   -3.9229 C   0  0  0  0  0  0  0  0  0  0  0  0
   26.2692  -35.6944   -3.1369 O   0  0  0  0  0  0  0  0  0  0  0  0
   30.3989  -35.9918   -2.0013 C   0  0  0  0  0  0  0  0  0  0  0  0
   28.8998  -36.0175   -2.2279 C   0  0  2  0  0  0  0  0  0  0  0  0
   28.5375  -35.4690   -3.5065 N   0  0  0  0  0  0  0  0  0  0  0  0
   28.2494  -35.2292   -1.1559 C   0  0  0  0  0  0  0  0  0  0  0  0
   28.0543  -33.9872   -1.3223 O   0  0  0  0  0  0  0  0  0  0  0  0
   22.5844  -35.4879    3.1851 N   0  0  0  0  0  0  0  0  0  0  0  0
   23.8543  -36.0918    2.8762 C   0  0  0  0  0  0  0  0  0  0  0  0
   23.8863  -37.3300    3.0090 O   0  0  0  0  0  0  0  0  0  0  0  0
   25.0065  -35.3306    2.4492 C   0  0  0  0  0  0  0  0  0  0  0  0
   25.9138  -35.8495    1.4184 C   0  0  0  0  0  0  0  0  0  0  0  0
   27.1396  -35.0748    1.0824 C   0  0  2  0  0  0  0  0  0  0  0  0
   27.8496  -35.8655    0.0469 N   0  0  0  0  0  0  0  0  0  0  0  0
   28.0978  -34.8285    2.1514 C   0  0  0  0  0  0  0  0  0  0  0  0
   29.3225  -35.4497    2.2468 O   0  0  0  0  0  0  0  0  0  0  0  0
   27.8101  -33.9863    3.0746 O   0  0  0  0  0  0  0  0  0  0  0  0
  2  1  1  1
  2  9  1  0
  3  2  1  0
  4  5  2  0
  4  3  1  0
  6  5  1  0
  7  8  2  0
  7  6  1  0
  8  4  1  0
  9 10  2  0
 12 11  1  1
 12 14  1  0
 13 12  1  0
 13  9  1  0
 14 15  2  0
 16 17  1  0
 17 19  1  0
 18 17  2  0
 19 20  1  0
 21 20  1  1
 21 23  1  0
 22 14  1  0
 22 21  1  0
 23 25  2  0
 23 24  1  0
M  END
$$$$
