HAQ.pdb
     RDKit          3D

 25 25  0  0  1  0  0  0  0  0999 V2000
   18.3157  -12.6240  -16.4208 N   0  0  0  0  0  0  0  0  0  0  0  0
   19.3267  -11.7535  -16.9312 C   0  0  1  0  0  0  0  0  0  0  0  0
   18.8158  -10.9732  -18.1265 C   0  0  0  0  0  0  0  0  0  0  0  0
   18.3626  -11.9243  -19.1544 C   0  0  0  0  0  0  0  0  0  0  0  0
   17.0604  -12.0858  -19.5780 C   0  0  0  0  0  0  0  0  0  0  0  0
   17.0976  -13.0549  -20.5238 N   0  0  0  0  0  0  0  0  0  0  0  0
   18.3656  -13.4758  -20.6801 C   0  0  0  0  0  0  0  0  0  0  0  0
   19.1392  -12.7739  -19.8323 N   0  0  0  0  0  0  0  0  0  0  0  0
   19.9365  -10.8793  -15.9159 C   0  0  0  0  0  0  0  0  0  0  0  0
   19.1783  -10.2196  -15.1715 O   0  0  0  0  0  0  0  0  0  0  0  0
   23.3710  -10.1941  -14.4619 C   0  0  0  0  0  0  0  0  0  0  0  0
   21.9272   -9.8500  -14.7719 C   0  0  2  0  0  0  0  0  0  0  0  0
   21.3539  -10.7468  -15.7383 N   0  0  0  0  0  0  0  0  0  0  0  0
   21.8769   -8.4667  -15.2987 C   0  0  0  0  0  0  0  0  0  0  0  0
   22.0861   -8.2583  -16.5321 O   0  0  0  0  0  0  0  0  0  0  0  0
   17.1349   -4.8924  -14.7326 N   0  0  0  0  0  0  0  0  0  0  0  0
   18.1675   -3.9673  -15.1206 C   0  0  0  0  0  0  0  0  0  0  0  0
   17.7713   -2.8050  -15.3299 O   0  0  0  0  0  0  0  0  0  0  0  0
   19.5547   -4.3479  -15.2624 C   0  0  0  0  0  0  0  0  0  0  0  0
   19.9997   -5.7101  -14.9441 C   0  0  0  0  0  0  0  0  0  0  0  0
   21.4552   -6.0195  -14.9841 C   0  0  2  0  0  0  0  0  0  0  0  0
   21.5961   -7.3862  -14.4240 N   0  0  0  0  0  0  0  0  0  0  0  0
   22.3502   -5.1600  -14.2215 C   0  0  0  0  0  0  0  0  0  0  0  0
   22.8347   -3.9547  -14.6767 O   0  0  0  0  0  0  0  0  0  0  0  0
   22.7270   -5.5226  -13.0506 O   0  0  0  0  0  0  0  0  0  0  0  0
  2  1  1  1
  2  9  1  0
  3  2  1  0
  4  5  2  0
  4  3  1  0
  6  5  1  0
  7  8  2  0
  7  6  1  0
  8  4  1  0
  9 10  2  0
 12 11  1  6
 12 14  1  0
 13 12  1  0
 13  9  1  0
 14 15  2  0
 16 17  1  0
 17 19  1  0
 18 17  2  0
 19 20  1  0
 21 20  1  1
 21 23  1  0
 22 14  1  0
 22 21  1  0
 23 25  2  0
 23 24  1  0
M  END
$$$$
