HAQ.pdb
     RDKit          3D

 25 25  0  0  1  0  0  0  0  0999 V2000
   37.0820   -7.6018  -15.8107 N   0  0  0  0  0  0  0  0  0  0  0  0
   36.7410   -6.8121  -14.6702 C   0  0  1  0  0  0  0  0  0  0  0  0
   35.3578   -7.1667  -14.1607 C   0  0  0  0  0  0  0  0  0  0  0  0
   34.3599   -6.7051  -15.1393 C   0  0  0  0  0  0  0  0  0  0  0  0
   33.5508   -7.5193  -15.9032 C   0  0  0  0  0  0  0  0  0  0  0  0
   32.7946   -6.6855  -16.6570 N   0  0  0  0  0  0  0  0  0  0  0  0
   33.1197   -5.4114  -16.3737 C   0  0  0  0  0  0  0  0  0  0  0  0
   34.0854   -5.4322  -15.4372 N   0  0  0  0  0  0  0  0  0  0  0  0
   37.7506   -6.8347  -13.5993 C   0  0  0  0  0  0  0  0  0  0  0  0
   38.1052   -7.9444  -13.1443 O   0  0  0  0  0  0  0  0  0  0  0  0
   40.1190   -4.3664  -11.9500 C   0  0  0  0  0  0  0  0  0  0  0  0
   39.4093   -5.6995  -12.0855 C   0  0  2  0  0  0  0  0  0  0  0  0
   38.3468   -5.6497  -13.0527 N   0  0  0  0  0  0  0  0  0  0  0  0
   38.8508   -6.0703  -10.7647 C   0  0  0  0  0  0  0  0  0  0  0  0
   37.6607   -5.7426  -10.4736 O   0  0  0  0  0  0  0  0  0  0  0  0
   41.2324  -10.8906   -7.1997 N   0  0  0  0  0  0  0  0  0  0  0  0
   40.1661  -10.2879   -6.4432 C   0  0  0  0  0  0  0  0  0  0  0  0
   39.8902  -10.8726   -5.3784 O   0  0  0  0  0  0  0  0  0  0  0  0
   39.4635   -9.1018   -6.8776 C   0  0  0  0  0  0  0  0  0  0  0  0
   39.8204   -8.4309   -8.1336 C   0  0  0  0  0  0  0  0  0  0  0  0
   39.0416   -7.2353   -8.5575 C   0  0  2  0  0  0  0  0  0  0  0  0
   39.6472   -6.7875   -9.8359 N   0  0  0  0  0  0  0  0  0  0  0  0
   39.0379   -6.0811   -7.6690 C   0  0  0  0  0  0  0  0  0  0  0  0
   38.0646   -5.8371   -6.7267 O   0  0  0  0  0  0  0  0  0  0  0  0
   39.9871   -5.2224   -7.7466 O   0  0  0  0  0  0  0  0  0  0  0  0
  2  1  1  6
  2  9  1  0
  3  2  1  0
  4  5  2  0
  4  3  1  0
  6  5  1  0
  7  8  2  0
  7  6  1  0
  8  4  1  0
  9 10  2  0
 12 11  1  1
 12 14  1  0
 13 12  1  0
 13  9  1  0
 14 15  2  0
 16 17  1  0
 17 19  1  0
 18 17  2  0
 19 20  1  0
 21 20  1  1
 21 23  1  0
 22 14  1  0
 22 21  1  0
 23 25  2  0
 23 24  1  0
M  END
$$$$
