FFQ.pdb
     RDKit          3D

 32 33  0  0  1  0  0  0  0  0999 V2000
   20.8940  -20.2973  -13.1198 N   0  0  0  0  0  0  0  0  0  0  0  0
   21.9752  -21.2455  -13.1382 C   0  0  1  0  0  0  0  0  0  0  0  0
   22.2051  -21.6415  -14.5823 C   0  0  0  0  0  0  0  0  0  0  0  0
   21.0444  -22.3787  -15.1370 C   0  0  0  0  0  0  0  0  0  0  0  0
   20.2433  -21.7818  -16.0639 C   0  0  0  0  0  0  0  0  0  0  0  0
   19.1636  -22.4742  -16.5768 C   0  0  0  0  0  0  0  0  0  0  0  0
   18.8872  -23.7637  -16.1613 C   0  0  0  0  0  0  0  0  0  0  0  0
   19.7058  -24.3406  -15.2304 C   0  0  0  0  0  0  0  0  0  0  0  0
   20.7868  -23.6633  -14.7088 C   0  0  0  0  0  0  0  0  0  0  0  0
   23.1837  -20.6583  -12.5253 C   0  0  0  0  0  0  0  0  0  0  0  0
   23.4111  -19.4078  -12.6004 O   0  0  0  0  0  0  0  0  0  0  0  0
   24.1253  -21.4359  -11.8412 N   0  0  0  0  0  0  0  0  0  0  0  0
   25.3361  -20.8330  -11.2135 C   0  0  1  0  0  0  0  0  0  0  0  0
   25.5248  -21.5266   -9.9066 C   0  0  0  0  0  0  0  0  0  0  0  0
   26.6675  -21.1158   -9.0869 C   0  0  0  0  0  0  0  0  0  0  0  0
   27.9742  -21.4848   -9.3084 C   0  0  0  0  0  0  0  0  0  0  0  0
   29.0111  -21.0637   -8.5021 C   0  0  0  0  0  0  0  0  0  0  0  0
   28.7740  -20.2423   -7.4239 C   0  0  0  0  0  0  0  0  0  0  0  0
   27.4716  -19.8586   -7.1811 C   0  0  0  0  0  0  0  0  0  0  0  0
   26.4460  -20.2839   -7.9908 C   0  0  0  0  0  0  0  0  0  0  0  0
   26.4465  -21.1105  -12.1287 C   0  0  0  0  0  0  0  0  0  0  0  0
   26.7637  -22.3354  -12.3326 O   0  0  0  0  0  0  0  0  0  0  0  0
   26.9624  -23.8359  -15.2456 N   0  0  0  0  0  0  0  0  0  0  0  0
   27.3429  -22.9488  -16.3001 C   0  0  0  0  0  0  0  0  0  0  0  0
   28.0357  -23.4671  -17.2248 O   0  0  0  0  0  0  0  0  0  0  0  0
   26.9498  -21.5125  -16.3084 C   0  0  0  0  0  0  0  0  0  0  0  0
   26.5462  -21.1500  -14.8992 C   0  0  0  0  0  0  0  0  0  0  0  0
   27.6791  -20.4435  -14.1646 C   0  0  2  0  0  0  0  0  0  0  0  0
   27.2102  -20.1401  -12.8250 N   0  0  0  0  0  0  0  0  0  0  0  0
   28.1436  -19.2638  -14.9101 C   0  0  0  0  0  0  0  0  0  0  0  0
   29.2004  -19.3676  -15.8427 O   0  0  0  0  0  0  0  0  0  0  0  0
   27.6749  -18.1038  -14.8015 O   0  0  0  0  0  0  0  0  0  0  0  0
  2 10  1  0
  2  3  1  0
  2  1  1  6
  3  4  1  0
  4  5  2  0
  5  6  1  0
  7  6  2  0
  8  7  1  0
  9  8  2  0
  9  4  1  0
 10 11  2  0
 12 13  1  0
 12 10  1  0
 13 21  1  0
 13 14  1  1
 15 14  1  0
 16 15  2  0
 17 16  1  0
 18 17  2  0
 18 19  1  0
 19 20  2  0
 20 15  1  0
 21 22  2  0
 21 29  1  0
 23 24  1  0
 24 26  1  0
 24 25  2  0
 26 27  1  0
 28 27  1  6
 28 30  1  0
 29 28  1  0
 30 32  2  0
 30 31  1  0
M  END
$$$$
