FFQ.pdb
     RDKit          3D

 32 33  0  0  1  0  0  0  0  0999 V2000
   26.0001  -21.4945  -13.2435 N   0  0  0  0  0  0  0  0  0  0  0  0
   25.6400  -20.4859  -12.2836 C   0  0  1  0  0  0  0  0  0  0  0  0
   24.1571  -20.2194  -12.4420 C   0  0  0  0  0  0  0  0  0  0  0  0
   23.8547  -19.5762  -13.7431 C   0  0  0  0  0  0  0  0  0  0  0  0
   24.5283  -18.4514  -14.1153 C   0  0  0  0  0  0  0  0  0  0  0  0
   24.2419  -17.8571  -15.3289 C   0  0  0  0  0  0  0  0  0  0  0  0
   23.2812  -18.3896  -16.1688 C   0  0  0  0  0  0  0  0  0  0  0  0
   22.6192  -19.5185  -15.7729 C   0  0  0  0  0  0  0  0  0  0  0  0
   22.8932  -20.1234  -14.5653 C   0  0  0  0  0  0  0  0  0  0  0  0
   25.9802  -20.9324  -10.9175 C   0  0  0  0  0  0  0  0  0  0  0  0
   25.8199  -22.1465  -10.5693 O   0  0  0  0  0  0  0  0  0  0  0  0
   26.4884  -20.0557   -9.9519 N   0  0  0  0  0  0  0  0  0  0  0  0
   26.7786  -20.5025   -8.5592 C   0  0  1  0  0  0  0  0  0  0  0  0
   27.8172  -19.5749   -8.0252 C   0  0  0  0  0  0  0  0  0  0  0  0
   28.1909  -19.7241   -6.6164 C   0  0  0  0  0  0  0  0  0  0  0  0
   28.7337  -20.8577   -6.0571 C   0  0  0  0  0  0  0  0  0  0  0  0
   29.0685  -20.9390   -4.7215 C   0  0  0  0  0  0  0  0  0  0  0  0
   28.8684  -19.8684   -3.8803 C   0  0  0  0  0  0  0  0  0  0  0  0
   28.3251  -18.7203   -4.4179 C   0  0  0  0  0  0  0  0  0  0  0  0
   27.9952  -18.6500   -5.7501 C   0  0  0  0  0  0  0  0  0  0  0  0
   25.5188  -20.3723   -7.8221 C   0  0  0  0  0  0  0  0  0  0  0  0
   24.9184  -19.2405   -7.8562 O   0  0  0  0  0  0  0  0  0  0  0  0
   20.8435  -20.4424   -9.3062 N   0  0  0  0  0  0  0  0  0  0  0  0
   20.8782  -21.7290   -8.6841 C   0  0  0  0  0  0  0  0  0  0  0  0
   20.1010  -22.5961   -9.1820 O   0  0  0  0  0  0  0  0  0  0  0  0
   21.7689  -22.0271   -7.5286 C   0  0  0  0  0  0  0  0  0  0  0  0
   22.5745  -20.7807   -7.2502 C   0  0  0  0  0  0  0  0  0  0  0  0
   23.7152  -21.0654   -6.2807 C   0  0  2  0  0  0  0  0  0  0  0  0
   24.8882  -21.3948   -7.0694 N   0  0  0  0  0  0  0  0  0  0  0  0
   23.3429  -22.1066   -5.3109 C   0  0  0  0  0  0  0  0  0  0  0  0
   24.0343  -23.3387   -5.2717 O   0  0  0  0  0  0  0  0  0  0  0  0
   22.4217  -22.0145   -4.4625 O   0  0  0  0  0  0  0  0  0  0  0  0
  2 10  1  0
  2  3  1  0
  2  1  1  6
  3  4  1  0
  4  5  2  0
  5  6  1  0
  7  6  2  0
  8  7  1  0
  9  8  2  0
  9  4  1  0
 10 11  2  0
 12 13  1  0
 12 10  1  0
 13 21  1  0
 13 14  1  1
 15 14  1  0
 16 15  2  0
 17 16  1  0
 18 17  2  0
 18 19  1  0
 19 20  2  0
 20 15  1  0
 21 22  2  0
 21 29  1  0
 23 24  1  0
 24 26  1  0
 24 25  2  0
 26 27  1  0
 28 27  1  6
 28 30  1  0
 29 28  1  0
 30 32  2  0
 30 31  1  0
M  END
$$$$
