FFQ.pdb
     RDKit          3D

 32 33  0  0  1  0  0  0  0  0999 V2000
   27.1311  -24.3881  -16.3030 N   0  0  0  0  0  0  0  0  0  0  0  0
   26.5221  -23.1305  -16.6435 C   0  0  1  0  0  0  0  0  0  0  0  0
   25.6428  -23.3667  -17.8543 C   0  0  0  0  0  0  0  0  0  0  0  0
   26.4422  -23.4536  -19.1001 C   0  0  0  0  0  0  0  0  0  0  0  0
   26.8043  -22.3137  -19.7532 C   0  0  0  0  0  0  0  0  0  0  0  0
   27.5492  -22.4016  -20.9132 C   0  0  0  0  0  0  0  0  0  0  0  0
   27.9308  -23.6309  -21.4181 C   0  0  0  0  0  0  0  0  0  0  0  0
   27.5551  -24.7600  -20.7446 C   0  0  0  0  0  0  0  0  0  0  0  0
   26.8119  -24.6892  -19.5862 C   0  0  0  0  0  0  0  0  0  0  0  0
   25.7558  -22.6037  -15.4962 C   0  0  0  0  0  0  0  0  0  0  0  0
   25.4958  -23.3414  -14.4916 O   0  0  0  0  0  0  0  0  0  0  0  0
   25.2842  -21.2864  -15.4568 N   0  0  0  0  0  0  0  0  0  0  0  0
   24.5035  -20.7651  -14.2983 C   0  0  1  0  0  0  0  0  0  0  0  0
   25.3933  -19.8018  -13.5877 C   0  0  0  0  0  0  0  0  0  0  0  0
   26.5057  -20.3597  -12.8144 C   0  0  0  0  0  0  0  0  0  0  0  0
   26.3979  -20.9170  -11.5613 C   0  0  0  0  0  0  0  0  0  0  0  0
   27.4829  -21.4297  -10.8813 C   0  0  0  0  0  0  0  0  0  0  0  0
   28.7398  -21.4029  -11.4409 C   0  0  0  0  0  0  0  0  0  0  0  0
   28.8735  -20.8489  -12.6969 C   0  0  0  0  0  0  0  0  0  0  0  0
   27.7857  -20.3409  -13.3657 C   0  0  0  0  0  0  0  0  0  0  0  0
   23.3354  -20.0891  -14.8694 C   0  0  0  0  0  0  0  0  0  0  0  0
   23.2894  -19.9440  -16.1420 O   0  0  0  0  0  0  0  0  0  0  0  0
   20.4774  -24.2725  -15.9305 N   0  0  0  0  0  0  0  0  0  0  0  0
   19.8286  -22.9994  -15.9721 C   0  0  0  0  0  0  0  0  0  0  0  0
   19.4600  -22.6129  -17.1204 O   0  0  0  0  0  0  0  0  0  0  0  0
   19.6024  -22.1844  -14.7465 C   0  0  0  0  0  0  0  0  0  0  0  0
   20.9318  -21.5845  -14.3553 C   0  0  0  0  0  0  0  0  0  0  0  0
   20.9001  -20.0637  -14.4477 C   0  0  2  0  0  0  0  0  0  0  0  0
   22.2328  -19.5785  -14.1392 N   0  0  0  0  0  0  0  0  0  0  0  0
   19.8507  -19.4992  -13.5855 C   0  0  0  0  0  0  0  0  0  0  0  0
   20.1843  -18.8057  -12.4002 O   0  0  0  0  0  0  0  0  0  0  0  0
   18.6156  -19.5709  -13.8010 O   0  0  0  0  0  0  0  0  0  0  0  0
  2 10  1  0
  2  3  1  0
  2  1  1  1
  3  4  1  0
  4  5  2  0
  5  6  1  0
  7  6  2  0
  8  7  1  0
  9  8  2  0
  9  4  1  0
 10 11  2  0
 12 13  1  0
 12 10  1  0
 13 21  1  0
 13 14  1  6
 15 14  1  0
 16 15  2  0
 17 16  1  0
 18 17  2  0
 18 19  1  0
 19 20  2  0
 20 15  1  0
 21 22  2  0
 21 29  1  0
 23 24  1  0
 24 26  1  0
 24 25  2  0
 26 27  1  0
 28 27  1  1
 28 30  1  0
 29 28  1  0
 30 32  2  0
 30 31  1  0
M  END
$$$$
