FFQ.pdb
     RDKit          3D

 32 33  0  0  1  0  0  0  0  0999 V2000
   21.0122  -19.4391  -13.9480 N   0  0  0  0  0  0  0  0  0  0  0  0
   21.7950  -20.5899  -13.5860 C   0  0  1  0  0  0  0  0  0  0  0  0
   21.8907  -21.4758  -14.8111 C   0  0  0  0  0  0  0  0  0  0  0  0
   20.5628  -22.0026  -15.2080 C   0  0  0  0  0  0  0  0  0  0  0  0
   20.0559  -21.7046  -16.4374 C   0  0  0  0  0  0  0  0  0  0  0  0
   18.8183  -22.1987  -16.8011 C   0  0  0  0  0  0  0  0  0  0  0  0
   18.0894  -22.9909  -15.9334 C   0  0  0  0  0  0  0  0  0  0  0  0
   18.6194  -23.2757  -14.7056 C   0  0  0  0  0  0  0  0  0  0  0  0
   19.8527  -22.7904  -14.3277 C   0  0  0  0  0  0  0  0  0  0  0  0
   23.1253  -20.1732  -13.0980 C   0  0  0  0  0  0  0  0  0  0  0  0
   23.6873  -19.1248  -13.5518 O   0  0  0  0  0  0  0  0  0  0  0  0
   23.8238  -20.8995  -12.1267 N   0  0  0  0  0  0  0  0  0  0  0  0
   25.2113  -20.5355  -11.7192 C   0  0  1  0  0  0  0  0  0  0  0  0
   25.4393  -21.1640  -10.3860 C   0  0  0  0  0  0  0  0  0  0  0  0
   26.7099  -20.8760   -9.7160 C   0  0  0  0  0  0  0  0  0  0  0  0
   27.9366  -21.3659  -10.1003 C   0  0  0  0  0  0  0  0  0  0  0  0
   29.1021  -21.0573   -9.4302 C   0  0  0  0  0  0  0  0  0  0  0  0
   29.0825  -20.2314   -8.3298 C   0  0  0  0  0  0  0  0  0  0  0  0
   27.8641  -19.7275   -7.9248 C   0  0  0  0  0  0  0  0  0  0  0  0
   26.7089  -20.0413   -8.5997 C   0  0  0  0  0  0  0  0  0  0  0  0
   26.0953  -21.1101  -12.7370 C   0  0  0  0  0  0  0  0  0  0  0  0
   26.0285  -22.3729  -12.9453 O   0  0  0  0  0  0  0  0  0  0  0  0
   28.1095  -22.9592  -17.3512 N   0  0  0  0  0  0  0  0  0  0  0  0
   26.7266  -22.6889  -17.1101 C   0  0  0  0  0  0  0  0  0  0  0  0
   25.9114  -23.4855  -17.6618 O   0  0  0  0  0  0  0  0  0  0  0  0
   26.2774  -21.5469  -16.2665 C   0  0  0  0  0  0  0  0  0  0  0  0
   27.5127  -20.7868  -15.8463 C   0  0  0  0  0  0  0  0  0  0  0  0
   27.9101  -21.1267  -14.4150 C   0  0  2  0  0  0  0  0  0  0  0  0
   27.0262  -20.3918  -13.5289 N   0  0  0  0  0  0  0  0  0  0  0  0
   29.3375  -20.8606  -14.1808 C   0  0  0  0  0  0  0  0  0  0  0  0
   29.7502  -19.9810  -13.1544 O   0  0  0  0  0  0  0  0  0  0  0  0
   30.2872  -21.3602  -14.8332 O   0  0  0  0  0  0  0  0  0  0  0  0
  2 10  1  0
  2  3  1  0
  2  1  1  6
  3  4  1  0
  4  5  2  0
  5  6  1  0
  7  6  2  0
  8  7  1  0
  9  8  2  0
  9  4  1  0
 10 11  2  0
 12 13  1  0
 12 10  1  0
 13 21  1  0
 13 14  1  1
 15 14  1  0
 16 15  2  0
 17 16  1  0
 18 17  2  0
 18 19  1  0
 19 20  2  0
 20 15  1  0
 21 22  2  0
 21 29  1  0
 23 24  1  0
 24 26  1  0
 24 25  2  0
 26 27  1  0
 28 27  1  6
 28 30  1  0
 29 28  1  0
 30 32  2  0
 30 31  1  0
M  END
$$$$
