FFQ.pdb
     RDKit          3D

 32 33  0  0  1  0  0  0  0  0999 V2000
   28.2427  -22.5413  -15.9117 N   0  0  0  0  0  0  0  0  0  0  0  0
   27.4625  -21.3813  -15.5742 C   0  0  1  0  0  0  0  0  0  0  0  0
   26.5122  -21.1244  -16.7256 C   0  0  0  0  0  0  0  0  0  0  0  0
   27.2262  -20.6038  -17.9162 C   0  0  0  0  0  0  0  0  0  0  0  0
   27.4445  -21.4200  -18.9855 C   0  0  0  0  0  0  0  0  0  0  0  0
   28.1102  -20.9287  -20.0917 C   0  0  0  0  0  0  0  0  0  0  0  0
   28.5566  -19.6205  -20.1261 C   0  0  0  0  0  0  0  0  0  0  0  0
   28.3254  -18.8215  -19.0410 C   0  0  0  0  0  0  0  0  0  0  0  0
   27.6629  -19.2965  -17.9297 C   0  0  0  0  0  0  0  0  0  0  0  0
   26.7455  -21.5972  -14.3012 C   0  0  0  0  0  0  0  0  0  0  0  0
   26.4141  -22.7691  -13.9301 O   0  0  0  0  0  0  0  0  0  0  0  0
   26.3998  -20.5397  -13.4520 N   0  0  0  0  0  0  0  0  0  0  0  0
   25.6711  -20.7659  -12.1708 C   0  0  1  0  0  0  0  0  0  0  0  0
   26.2459  -19.8084  -11.1824 C   0  0  0  0  0  0  0  0  0  0  0  0
   27.1071  -20.3613  -10.1340 C   0  0  0  0  0  0  0  0  0  0  0  0
   28.3056  -21.0013  -10.3495 C   0  0  0  0  0  0  0  0  0  0  0  0
   29.0761  -21.5003   -9.3200 C   0  0  0  0  0  0  0  0  0  0  0  0
   28.6677  -21.3750   -8.0119 C   0  0  0  0  0  0  0  0  0  0  0  0
   27.4690  -20.7370   -7.7702 C   0  0  0  0  0  0  0  0  0  0  0  0
   26.7091  -20.2434   -8.8034 C   0  0  0  0  0  0  0  0  0  0  0  0
   24.2639  -20.4647  -12.4477 C   0  0  0  0  0  0  0  0  0  0  0  0
   24.0005  -19.6705  -13.4185 O   0  0  0  0  0  0  0  0  0  0  0  0
   21.4638  -20.2838  -15.9362 N   0  0  0  0  0  0  0  0  0  0  0  0
   20.3723  -20.7328  -15.1298 C   0  0  0  0  0  0  0  0  0  0  0  0
   19.3006  -20.0679  -15.2443 O   0  0  0  0  0  0  0  0  0  0  0  0
   20.4897  -21.9039  -14.2175 C   0  0  0  0  0  0  0  0  0  0  0  0
   21.8514  -21.8322  -13.5689 C   0  0  0  0  0  0  0  0  0  0  0  0
   21.8357  -20.9161  -12.3512 C   0  0  2  0  0  0  0  0  0  0  0  0
   23.1498  -20.9799  -11.7384 N   0  0  0  0  0  0  0  0  0  0  0  0
   20.7386  -21.2653  -11.4359 C   0  0  0  0  0  0  0  0  0  0  0  0
   19.6011  -20.4345  -11.3204 O   0  0  0  0  0  0  0  0  0  0  0  0
   20.7003  -22.2830  -10.7012 O   0  0  0  0  0  0  0  0  0  0  0  0
  2 10  1  0
  2  3  1  0
  2  1  1  6
  3  4  1  0
  4  5  2  0
  5  6  1  0
  7  6  2  0
  8  7  1  0
  9  8  2  0
  9  4  1  0
 10 11  2  0
 12 13  1  0
 12 10  1  0
 13 21  1  0
 13 14  1  1
 15 14  1  0
 16 15  2  0
 17 16  1  0
 18 17  2  0
 18 19  1  0
 19 20  2  0
 20 15  1  0
 21 22  2  0
 21 29  1  0
 23 24  1  0
 24 26  1  0
 24 25  2  0
 26 27  1  0
 28 27  1  6
 28 30  1  0
 29 28  1  0
 30 32  2  0
 30 31  1  0
M  END
$$$$
