FFQ.pdb
     RDKit          3D

 32 33  0  0  1  0  0  0  0  0999 V2000
   34.9589  -27.4101    3.7321 N   0  0  0  0  0  0  0  0  0  0  0  0
   35.0451  -26.0394    4.1591 C   0  0  1  0  0  0  0  0  0  0  0  0
   33.7748  -25.7221    4.9211 C   0  0  0  0  0  0  0  0  0  0  0  0
   33.3276  -24.3293    4.6795 C   0  0  0  0  0  0  0  0  0  0  0  0
   32.8901  -23.9637    3.4416 C   0  0  0  0  0  0  0  0  0  0  0  0
   32.4746  -22.6645    3.2232 C   0  0  0  0  0  0  0  0  0  0  0  0
   32.4974  -21.7327    4.2445 C   0  0  0  0  0  0  0  0  0  0  0  0
   32.9406  -22.1240    5.4773 C   0  0  0  0  0  0  0  0  0  0  0  0
   33.3586  -23.4162    5.7114 C   0  0  0  0  0  0  0  0  0  0  0  0
   36.2526  -25.8336    4.9842 C   0  0  0  0  0  0  0  0  0  0  0  0
   36.6546  -26.7353    5.7881 O   0  0  0  0  0  0  0  0  0  0  0  0
   37.0040  -24.6542    4.9242 N   0  0  0  0  0  0  0  0  0  0  0  0
   38.2845  -24.4988    5.6723 C   0  0  1  0  0  0  0  0  0  0  0  0
   39.0741  -23.4611    4.9482 C   0  0  0  0  0  0  0  0  0  0  0  0
   40.3673  -23.0796    5.5215 C   0  0  0  0  0  0  0  0  0  0  0  0
   40.5375  -22.3404    6.6692 C   0  0  0  0  0  0  0  0  0  0  0  0
   41.7830  -22.0131    7.1632 C   0  0  0  0  0  0  0  0  0  0  0  0
   42.9259  -22.4212    6.5145 C   0  0  0  0  0  0  0  0  0  0  0  0
   42.7811  -23.1636    5.3612 C   0  0  0  0  0  0  0  0  0  0  0  0
   41.5354  -23.4842    4.8776 C   0  0  0  0  0  0  0  0  0  0  0  0
   37.9152  -24.0455    7.0160 C   0  0  0  0  0  0  0  0  0  0  0  0
   36.7299  -23.5904    7.1905 O   0  0  0  0  0  0  0  0  0  0  0  0
   34.9970  -27.7395    8.7154 N   0  0  0  0  0  0  0  0  0  0  0  0
   35.6352  -27.0120    9.7674 C   0  0  0  0  0  0  0  0  0  0  0  0
   35.7950  -27.6481   10.8508 O   0  0  0  0  0  0  0  0  0  0  0  0
   36.0814  -25.6014    9.5985 C   0  0  0  0  0  0  0  0  0  0  0  0
   37.5913  -25.6067    9.5895 C   0  0  0  0  0  0  0  0  0  0  0  0
   38.1479  -24.1929    9.4723 C   0  0  2  0  0  0  0  0  0  0  0  0
   38.7534  -24.0683    8.1591 N   0  0  0  0  0  0  0  0  0  0  0  0
   39.0677  -23.8889   10.5790 C   0  0  0  0  0  0  0  0  0  0  0  0
   40.4438  -23.6756   10.3377 O   0  0  0  0  0  0  0  0  0  0  0  0
   38.7438  -23.7924   11.7884 O   0  0  0  0  0  0  0  0  0  0  0  0
  2 10  1  0
  2  3  1  0
  2  1  1  1
  3  4  1  0
  4  5  2  0
  5  6  1  0
  7  6  2  0
  8  7  1  0
  9  8  2  0
  9  4  1  0
 10 11  2  0
 12 13  1  0
 12 10  1  0
 13 21  1  0
 13 14  1  6
 15 14  1  0
 16 15  2  0
 17 16  1  0
 18 17  2  0
 18 19  1  0
 19 20  2  0
 20 15  1  0
 21 22  2  0
 21 29  1  0
 23 24  1  0
 24 26  1  0
 24 25  2  0
 26 27  1  0
 28 27  1  1
 28 30  1  0
 29 28  1  0
 30 32  2  0
 30 31  1  0
M  END
$$$$
