FFQ.pdb
     RDKit          3D

 32 33  0  0  1  0  0  0  0  0999 V2000
   20.4506   -9.2648  -21.3886 N   0  0  0  0  0  0  0  0  0  0  0  0
   21.3059   -8.2915  -20.7645 C   0  0  1  0  0  0  0  0  0  0  0  0
   21.3260   -7.0679  -21.6575 C   0  0  0  0  0  0  0  0  0  0  0  0
   22.0801   -7.3188  -22.9092 C   0  0  0  0  0  0  0  0  0  0  0  0
   23.4243   -7.5368  -22.8578 C   0  0  0  0  0  0  0  0  0  0  0  0
   24.1210   -7.7701  -24.0276 C   0  0  0  0  0  0  0  0  0  0  0  0
   23.4708   -7.7851  -25.2478 C   0  0  0  0  0  0  0  0  0  0  0  0
   22.1218   -7.5637  -25.2731 C   0  0  0  0  0  0  0  0  0  0  0  0
   21.4125   -7.3293  -24.1150 C   0  0  0  0  0  0  0  0  0  0  0  0
   20.8205   -7.9778  -19.4054 C   0  0  0  0  0  0  0  0  0  0  0  0
   19.5924   -8.1217  -19.1021 O   0  0  0  0  0  0  0  0  0  0  0  0
   21.6742   -7.5138  -18.3978 N   0  0  0  0  0  0  0  0  0  0  0  0
   21.1614   -7.1087  -17.0575 C   0  0  1  0  0  0  0  0  0  0  0  0
   22.1514   -7.6047  -16.0583 C   0  0  0  0  0  0  0  0  0  0  0  0
   21.9543   -7.2059  -14.6624 C   0  0  0  0  0  0  0  0  0  0  0  0
   22.4059   -6.0333  -14.1025 C   0  0  0  0  0  0  0  0  0  0  0  0
   22.1876   -5.7102  -12.7795 C   0  0  0  0  0  0  0  0  0  0  0  0
   21.4960   -6.5651  -11.9521 C   0  0  0  0  0  0  0  0  0  0  0  0
   21.0330   -7.7475  -12.4904 C   0  0  0  0  0  0  0  0  0  0  0  0
   21.2561   -8.0596  -13.8100 C   0  0  0  0  0  0  0  0  0  0  0  0
   21.1068   -5.6443  -17.0713 C   0  0  0  0  0  0  0  0  0  0  0  0
   22.1208   -5.0109  -17.5331 O   0  0  0  0  0  0  0  0  0  0  0  0
   17.6149   -1.5724  -20.2853 N   0  0  0  0  0  0  0  0  0  0  0  0
   18.0419   -1.7085  -18.9279 C   0  0  0  0  0  0  0  0  0  0  0  0
   17.9915   -0.6515  -18.2322 O   0  0  0  0  0  0  0  0  0  0  0  0
   18.5138   -3.0067  -18.3717 C   0  0  0  0  0  0  0  0  0  0  0  0
   18.8499   -2.7759  -16.9177 C   0  0  0  0  0  0  0  0  0  0  0  0
   20.1867   -3.4097  -16.5525 C   0  0  2  0  0  0  0  0  0  0  0  0
   20.0219   -4.8501  -16.6222 N   0  0  0  0  0  0  0  0  0  0  0  0
   20.6640   -2.9315  -15.2461 C   0  0  0  0  0  0  0  0  0  0  0  0
   20.2697   -3.5763  -14.0519 O   0  0  0  0  0  0  0  0  0  0  0  0
   21.4302   -1.9531  -15.0653 O   0  0  0  0  0  0  0  0  0  0  0  0
  2 10  1  0
  2  3  1  0
  2  1  1  6
  3  4  1  0
  4  5  2  0
  5  6  1  0
  7  6  2  0
  8  7  1  0
  9  8  2  0
  9  4  1  0
 10 11  2  0
 12 13  1  0
 12 10  1  0
 13 21  1  0
 13 14  1  1
 15 14  1  0
 16 15  2  0
 17 16  1  0
 18 17  2  0
 18 19  1  0
 19 20  2  0
 20 15  1  0
 21 22  2  0
 21 29  1  0
 23 24  1  0
 24 26  1  0
 24 25  2  0
 26 27  1  0
 28 27  1  1
 28 30  1  0
 29 28  1  0
 30 32  2  0
 30 31  1  0
M  END
$$$$
