FFQ.pdb
     RDKit          3D

 32 33  0  0  1  0  0  0  0  0999 V2000
   30.2102  -29.0947  -17.8583 N   0  0  0  0  0  0  0  0  0  0  0  0
   29.3233  -28.0561  -18.3089 C   0  0  1  0  0  0  0  0  0  0  0  0
   28.8141  -28.4583  -19.6779 C   0  0  0  0  0  0  0  0  0  0  0  0
   29.8606  -28.3016  -20.7165 C   0  0  0  0  0  0  0  0  0  0  0  0
   30.1161  -27.0696  -21.2400 C   0  0  0  0  0  0  0  0  0  0  0  0
   31.0924  -26.9304  -22.2071 C   0  0  0  0  0  0  0  0  0  0  0  0
   31.8122  -28.0251  -22.6493 C   0  0  0  0  0  0  0  0  0  0  0  0
   31.5372  -29.2505  -22.1087 C   0  0  0  0  0  0  0  0  0  0  0  0
   30.5663  -29.4061  -21.1431 C   0  0  0  0  0  0  0  0  0  0  0  0
   28.2230  -27.8653  -17.3424 C   0  0  0  0  0  0  0  0  0  0  0  0
   28.0593  -28.6737  -16.3726 O   0  0  0  0  0  0  0  0  0  0  0  0
   27.3189  -26.8015  -17.4430 N   0  0  0  0  0  0  0  0  0  0  0  0
   26.2283  -26.5995  -16.4463 C   0  0  1  0  0  0  0  0  0  0  0  0
   26.0534  -25.1252  -16.3037 C   0  0  0  0  0  0  0  0  0  0  0  0
   24.8531  -24.6553  -15.6074 C   0  0  0  0  0  0  0  0  0  0  0  0
   24.6122  -24.7979  -14.2604 C   0  0  0  0  0  0  0  0  0  0  0  0
   23.4618  -24.3320  -13.6588 C   0  0  0  0  0  0  0  0  0  0  0  0
   22.4914  -23.6941  -14.3971 C   0  0  0  0  0  0  0  0  0  0  0  0
   22.7099  -23.5391  -15.7501 C   0  0  0  0  0  0  0  0  0  0  0  0
   23.8598  -24.0071  -16.3394 C   0  0  0  0  0  0  0  0  0  0  0  0
   25.0341  -27.2242  -17.0216 C   0  0  0  0  0  0  0  0  0  0  0  0
   24.8410  -27.1003  -18.2826 O   0  0  0  0  0  0  0  0  0  0  0  0
   20.9001  -32.7966  -18.0612 N   0  0  0  0  0  0  0  0  0  0  0  0
   21.7295  -31.8913  -17.3291 C   0  0  0  0  0  0  0  0  0  0  0  0
   22.7742  -32.3975  -16.8228 O   0  0  0  0  0  0  0  0  0  0  0  0
   21.3863  -30.4507  -17.1737 C   0  0  0  0  0  0  0  0  0  0  0  0
   22.5140  -29.8013  -16.4077 C   0  0  0  0  0  0  0  0  0  0  0  0
   22.8907  -28.4552  -17.0147 C   0  0  2  0  0  0  0  0  0  0  0  0
   24.0612  -27.9684  -16.3079 N   0  0  0  0  0  0  0  0  0  0  0  0
   21.7539  -27.5223  -16.9893 C   0  0  0  0  0  0  0  0  0  0  0  0
   21.1109  -27.1333  -18.1862 O   0  0  0  0  0  0  0  0  0  0  0  0
   21.2627  -27.0022  -15.9573 O   0  0  0  0  0  0  0  0  0  0  0  0
  2 10  1  0
  2  3  1  0
  2  1  1  1
  3  4  1  0
  4  5  2  0
  5  6  1  0
  7  6  2  0
  8  7  1  0
  9  8  2  0
  9  4  1  0
 10 11  2  0
 12 13  1  0
 12 10  1  0
 13 21  1  0
 13 14  1  6
 15 14  1  0
 16 15  2  0
 17 16  1  0
 18 17  2  0
 18 19  1  0
 19 20  2  0
 20 15  1  0
 21 22  2  0
 21 29  1  0
 23 24  1  0
 24 26  1  0
 24 25  2  0
 26 27  1  0
 28 27  1  1
 28 30  1  0
 29 28  1  0
 30 32  2  0
 30 31  1  0
M  END
$$$$
