FFQ.pdb
     RDKit          3D

 32 33  0  0  1  0  0  0  0  0999 V2000
   28.2249  -21.0498  -13.7864 N   0  0  0  0  0  0  0  0  0  0  0  0
   27.8652  -20.0232  -12.8457 C   0  0  1  0  0  0  0  0  0  0  0  0
   26.6390  -19.3198  -13.3904 C   0  0  0  0  0  0  0  0  0  0  0  0
   26.9816  -18.4236  -14.5208 C   0  0  0  0  0  0  0  0  0  0  0  0
   26.8247  -18.8597  -15.8024 C   0  0  0  0  0  0  0  0  0  0  0  0
   27.1455  -18.0198  -16.8510 C   0  0  0  0  0  0  0  0  0  0  0  0
   27.6232  -16.7438  -16.6154 C   0  0  0  0  0  0  0  0  0  0  0  0
   27.7719  -16.3295  -15.3209 C   0  0  0  0  0  0  0  0  0  0  0  0
   27.4564  -17.1554  -14.2637 C   0  0  0  0  0  0  0  0  0  0  0  0
   27.6210  -20.6107  -11.5129 C   0  0  0  0  0  0  0  0  0  0  0  0
   27.1667  -21.7942  -11.3952 O   0  0  0  0  0  0  0  0  0  0  0  0
   27.8732  -19.9058  -10.3302 N   0  0  0  0  0  0  0  0  0  0  0  0
   27.5982  -20.4965   -8.9890 C   0  0  1  0  0  0  0  0  0  0  0  0
   28.3853  -19.6978   -8.0056 C   0  0  0  0  0  0  0  0  0  0  0  0
   28.1041  -19.9160   -6.5844 C   0  0  0  0  0  0  0  0  0  0  0  0
   27.3942  -19.0579   -5.7768 C   0  0  0  0  0  0  0  0  0  0  0  0
   27.1586  -19.3183   -4.4430 C   0  0  0  0  0  0  0  0  0  0  0  0
   27.6339  -20.4691   -3.8570 C   0  0  0  0  0  0  0  0  0  0  0  0
   28.3489  -21.3455   -4.6463 C   0  0  0  0  0  0  0  0  0  0  0  0
   28.5778  -21.0762   -5.9743 C   0  0  0  0  0  0  0  0  0  0  0  0
   26.1576  -20.3436   -8.7677 C   0  0  0  0  0  0  0  0  0  0  0  0
   25.6507  -19.1744   -8.9048 O   0  0  0  0  0  0  0  0  0  0  0  0
   23.5531  -21.8489  -12.0870 N   0  0  0  0  0  0  0  0  0  0  0  0
   22.9148  -20.6327  -11.6911 C   0  0  0  0  0  0  0  0  0  0  0  0
   22.5891  -19.8554  -12.6364 O   0  0  0  0  0  0  0  0  0  0  0  0
   22.6516  -20.3040  -10.2627 C   0  0  0  0  0  0  0  0  0  0  0  0
   23.0885  -21.4933   -9.4412 C   0  0  0  0  0  0  0  0  0  0  0  0
   23.8592  -21.0552   -8.2017 C   0  0  2  0  0  0  0  0  0  0  0  0
   25.2570  -21.3809   -8.4176 N   0  0  0  0  0  0  0  0  0  0  0  0
   23.2937  -21.6540   -6.9832 C   0  0  0  0  0  0  0  0  0  0  0  0
   21.9958  -21.3087   -6.5431 O   0  0  0  0  0  0  0  0  0  0  0  0
   23.8738  -22.4893   -6.2464 O   0  0  0  0  0  0  0  0  0  0  0  0
  2 10  1  0
  2  3  1  0
  2  1  1  6
  3  4  1  0
  4  5  2  0
  5  6  1  0
  7  6  2  0
  8  7  1  0
  9  8  2  0
  9  4  1  0
 10 11  2  0
 12 13  1  0
 12 10  1  0
 13 21  1  0
 13 14  1  1
 15 14  1  0
 16 15  2  0
 17 16  1  0
 18 17  2  0
 18 19  1  0
 19 20  2  0
 20 15  1  0
 21 22  2  0
 21 29  1  0
 23 24  1  0
 24 26  1  0
 24 25  2  0
 26 27  1  0
 28 27  1  6
 28 30  1  0
 29 28  1  0
 30 32  2  0
 30 31  1  0
M  END
$$$$
