FFQ.pdb
     RDKit          3D

 32 33  0  0  1  0  0  0  0  0999 V2000
   27.2723  -19.7862  -18.4222 N   0  0  0  0  0  0  0  0  0  0  0  0
   27.0122  -18.9678  -17.2685 C   0  0  1  0  0  0  0  0  0  0  0  0
   26.0257  -17.8968  -17.6867 C   0  0  0  0  0  0  0  0  0  0  0  0
   26.6278  -16.9490  -18.6549 C   0  0  0  0  0  0  0  0  0  0  0  0
   26.1610  -16.9002  -19.9344 C   0  0  0  0  0  0  0  0  0  0  0  0
   26.7262  -16.0147  -20.8314 C   0  0  0  0  0  0  0  0  0  0  0  0
   27.7582  -15.1789  -20.4465 C   0  0  0  0  0  0  0  0  0  0  0  0
   28.2089  -15.2468  -19.1574 C   0  0  0  0  0  0  0  0  0  0  0  0
   27.6558  -16.1247  -18.2504 C   0  0  0  0  0  0  0  0  0  0  0  0
   26.4959  -19.7940  -16.1586 C   0  0  0  0  0  0  0  0  0  0  0  0
   25.7555  -20.8042  -16.3872 O   0  0  0  0  0  0  0  0  0  0  0  0
   26.7908  -19.5118  -14.8198 N   0  0  0  0  0  0  0  0  0  0  0  0
   26.2220  -20.3187  -13.7023 C   0  0  1  0  0  0  0  0  0  0  0  0
   27.0404  -20.0058  -12.4953 C   0  0  0  0  0  0  0  0  0  0  0  0
   26.5168  -20.4397  -11.1976 C   0  0  0  0  0  0  0  0  0  0  0  0
   26.3205  -21.7480  -10.8203 C   0  0  0  0  0  0  0  0  0  0  0  0
   25.8255  -22.0967   -9.5811 C   0  0  0  0  0  0  0  0  0  0  0  0
   25.5023  -21.1305   -8.6560 C   0  0  0  0  0  0  0  0  0  0  0  0
   25.6903  -19.8111   -9.0111 C   0  0  0  0  0  0  0  0  0  0  0  0
   26.1842  -19.4747  -10.2485 C   0  0  0  0  0  0  0  0  0  0  0  0
   24.8382  -19.8647  -13.5395 C   0  0  0  0  0  0  0  0  0  0  0  0
   24.6329  -18.6083  -13.3911 O   0  0  0  0  0  0  0  0  0  0  0  0
   19.8106  -18.9673  -15.9655 N   0  0  0  0  0  0  0  0  0  0  0  0
   20.9913  -19.6456  -16.4008 C   0  0  0  0  0  0  0  0  0  0  0  0
   21.0275  -19.9411  -17.6317 O   0  0  0  0  0  0  0  0  0  0  0  0
   22.1024  -19.9809  -15.4678 C   0  0  0  0  0  0  0  0  0  0  0  0
   21.7363  -19.4201  -14.1145 C   0  0  0  0  0  0  0  0  0  0  0  0
   22.4468  -20.1710  -12.9949 C   0  0  2  0  0  0  0  0  0  0  0  0
   23.6879  -20.6932  -13.5368 N   0  0  0  0  0  0  0  0  0  0  0  0
   21.5769  -21.2023  -12.4092 C   0  0  0  0  0  0  0  0  0  0  0  0
   20.4066  -20.8448  -11.7020 O   0  0  0  0  0  0  0  0  0  0  0  0
   21.7728  -22.4411  -12.4728 O   0  0  0  0  0  0  0  0  0  0  0  0
  2 10  1  0
  2  3  1  0
  2  1  1  6
  3  4  1  0
  4  5  2  0
  5  6  1  0
  7  6  2  0
  8  7  1  0
  9  8  2  0
  9  4  1  0
 10 11  2  0
 12 13  1  0
 12 10  1  0
 13 21  1  0
 13 14  1  1
 15 14  1  0
 16 15  2  0
 17 16  1  0
 18 17  2  0
 18 19  1  0
 19 20  2  0
 20 15  1  0
 21 22  2  0
 21 29  1  0
 23 24  1  0
 24 26  1  0
 24 25  2  0
 26 27  1  0
 28 27  1  6
 28 30  1  0
 29 28  1  0
 30 32  2  0
 30 31  1  0
M  END
$$$$
