FFQ.pdb
     RDKit          3D

 32 33  0  0  1  0  0  0  0  0999 V2000
   28.4589  -20.5992  -14.6160 N   0  0  0  0  0  0  0  0  0  0  0  0
   27.3887  -20.5608  -13.6559 C   0  0  1  0  0  0  0  0  0  0  0  0
   27.8933  -19.8015  -12.4460 C   0  0  0  0  0  0  0  0  0  0  0  0
   29.0104  -20.5149  -11.7816 C   0  0  0  0  0  0  0  0  0  0  0  0
   30.2906  -20.0825  -11.9587 C   0  0  0  0  0  0  0  0  0  0  0  0
   31.3269  -20.7514  -11.3368 C   0  0  0  0  0  0  0  0  0  0  0  0
   31.0803  -21.8527  -10.5379 C   0  0  0  0  0  0  0  0  0  0  0  0
   29.7874  -22.2670  -10.3758 C   0  0  0  0  0  0  0  0  0  0  0  0
   28.7425  -21.6106  -10.9895 C   0  0  0  0  0  0  0  0  0  0  0  0
   26.1913  -19.9295  -14.2467 C   0  0  0  0  0  0  0  0  0  0  0  0
   26.1119  -18.6643  -14.3641 O   0  0  0  0  0  0  0  0  0  0  0  0
   25.1004  -20.6800  -14.7004 N   0  0  0  0  0  0  0  0  0  0  0  0
   23.9145  -20.0380  -15.3368 C   0  0  1  0  0  0  0  0  0  0  0  0
   24.0103  -20.3260  -16.7970 C   0  0  0  0  0  0  0  0  0  0  0  0
   24.9627  -19.5319  -17.5773 C   0  0  0  0  0  0  0  0  0  0  0  0
   26.2471  -19.9155  -17.8865 C   0  0  0  0  0  0  0  0  0  0  0  0
   27.0995  -19.1247  -18.6286 C   0  0  0  0  0  0  0  0  0  0  0  0
   26.6901  -17.8974  -19.0974 C   0  0  0  0  0  0  0  0  0  0  0  0
   25.4062  -17.4905  -18.8001 C   0  0  0  0  0  0  0  0  0  0  0  0
   24.5651  -18.2863  -18.0600 C   0  0  0  0  0  0  0  0  0  0  0  0
   22.7393  -20.6815  -14.7431 C   0  0  0  0  0  0  0  0  0  0  0  0
   22.7663  -21.9535  -14.5886 O   0  0  0  0  0  0  0  0  0  0  0  0
   21.9982  -20.7596   -8.8928 N   0  0  0  0  0  0  0  0  0  0  0  0
   21.0439  -20.6034   -9.9456 C   0  0  0  0  0  0  0  0  0  0  0  0
   19.9583  -20.0395   -9.6180 O   0  0  0  0  0  0  0  0  0  0  0  0
   21.3106  -21.0730  -11.3334 C   0  0  0  0  0  0  0  0  0  0  0  0
   20.3715  -20.3240  -12.2484 C   0  0  0  0  0  0  0  0  0  0  0  0
   20.5068  -20.8012  -13.6893 C   0  0  2  0  0  0  0  0  0  0  0  0
   21.5612  -20.0217  -14.3115 N   0  0  0  0  0  0  0  0  0  0  0  0
   19.2201  -20.7278  -14.3980 C   0  0  0  0  0  0  0  0  0  0  0  0
   18.2146  -21.6952  -14.1735 O   0  0  0  0  0  0  0  0  0  0  0  0
   18.8981  -19.8454  -15.2316 O   0  0  0  0  0  0  0  0  0  0  0  0
  2 10  1  0
  2  3  1  0
  2  1  1  6
  3  4  1  0
  4  5  2  0
  5  6  1  0
  7  6  2  0
  8  7  1  0
  9  8  2  0
  9  4  1  0
 10 11  2  0
 12 13  1  0
 12 10  1  0
 13 21  1  0
 13 14  1  6
 15 14  1  0
 16 15  2  0
 17 16  1  0
 18 17  2  0
 18 19  1  0
 19 20  2  0
 20 15  1  0
 21 22  2  0
 21 29  1  0
 23 24  1  0
 24 26  1  0
 24 25  2  0
 26 27  1  0
 28 27  1  1
 28 30  1  0
 29 28  1  0
 30 32  2  0
 30 31  1  0
M  END
$$$$
