FFQ.pdb
     RDKit          3D

 32 33  0  0  1  0  0  0  0  0999 V2000
   20.4837  -20.1366  -12.1819 N   0  0  0  0  0  0  0  0  0  0  0  0
   21.5509  -21.0600  -12.4587 C   0  0  1  0  0  0  0  0  0  0  0  0
   21.5276  -21.3457  -13.9463 C   0  0  0  0  0  0  0  0  0  0  0  0
   20.3064  -22.0889  -14.3397 C   0  0  0  0  0  0  0  0  0  0  0  0
   19.3817  -21.4941  -15.1448 C   0  0  0  0  0  0  0  0  0  0  0  0
   18.2462  -22.1920  -15.5078 C   0  0  0  0  0  0  0  0  0  0  0  0
   18.0377  -23.4849  -15.0642 C   0  0  0  0  0  0  0  0  0  0  0  0
   18.9802  -24.0597  -14.2574 C   0  0  0  0  0  0  0  0  0  0  0  0
   20.1182  -23.3768  -13.8862 C   0  0  0  0  0  0  0  0  0  0  0  0
   22.8443  -20.4956  -12.0229 C   0  0  0  0  0  0  0  0  0  0  0  0
   23.1145  -19.2653  -12.2082 O   0  0  0  0  0  0  0  0  0  0  0  0
   23.8228  -21.2739  -11.3936 N   0  0  0  0  0  0  0  0  0  0  0  0
   25.1320  -20.6994  -10.9699 C   0  0  1  0  0  0  0  0  0  0  0  0
   25.6224  -21.5482   -9.8459 C   0  0  0  0  0  0  0  0  0  0  0  0
   26.7785  -21.0596   -9.0900 C   0  0  0  0  0  0  0  0  0  0  0  0
   28.0738  -21.4916   -9.2573 C   0  0  0  0  0  0  0  0  0  0  0  0
   29.1243  -20.9919   -8.5162 C   0  0  0  0  0  0  0  0  0  0  0  0
   28.9131  -20.0230   -7.5620 C   0  0  0  0  0  0  0  0  0  0  0  0
   27.6225  -19.5737   -7.3757 C   0  0  0  0  0  0  0  0  0  0  0  0
   26.5831  -20.0784   -8.1197 C   0  0  0  0  0  0  0  0  0  0  0  0
   26.0135  -20.7990  -12.1364 C   0  0  0  0  0  0  0  0  0  0  0  0
   25.8904  -21.8247  -12.8950 O   0  0  0  0  0  0  0  0  0  0  0  0
   26.4621  -18.3785  -16.4661 N   0  0  0  0  0  0  0  0  0  0  0  0
   27.8765  -18.4423  -16.6633 C   0  0  0  0  0  0  0  0  0  0  0  0
   28.2625  -18.3729  -17.8674 O   0  0  0  0  0  0  0  0  0  0  0  0
   28.8298  -18.5809  -15.5278 C   0  0  0  0  0  0  0  0  0  0  0  0
   28.0183  -18.5502  -14.2547 C   0  0  0  0  0  0  0  0  0  0  0  0
   27.6008  -19.9535  -13.8319 C   0  0  2  0  0  0  0  0  0  0  0  0
   26.9992  -19.8531  -12.5149 N   0  0  0  0  0  0  0  0  0  0  0  0
   28.7346  -20.8883  -13.8946 C   0  0  0  0  0  0  0  0  0  0  0  0
   29.2708  -21.4547  -12.7160 O   0  0  0  0  0  0  0  0  0  0  0  0
   29.3133  -21.2605  -14.9451 O   0  0  0  0  0  0  0  0  0  0  0  0
  2 10  1  0
  2  3  1  0
  2  1  1  6
  3  4  1  0
  4  5  2  0
  5  6  1  0
  7  6  2  0
  8  7  1  0
  9  8  2  0
  9  4  1  0
 10 11  2  0
 12 13  1  0
 12 10  1  0
 13 21  1  0
 13 14  1  1
 15 14  1  0
 16 15  2  0
 17 16  1  0
 18 17  2  0
 18 19  1  0
 19 20  2  0
 20 15  1  0
 21 22  2  0
 21 29  1  0
 23 24  1  0
 24 26  1  0
 24 25  2  0
 26 27  1  0
 28 27  1  1
 28 30  1  0
 29 28  1  0
 30 32  2  0
 30 31  1  0
M  END
$$$$
