FFQ.pdb
     RDKit          3D

 32 33  0  0  1  0  0  0  0  0999 V2000
   26.5830  -21.6945  -13.6065 N   0  0  0  0  0  0  0  0  0  0  0  0
   26.1436  -20.6242  -12.7523 C   0  0  1  0  0  0  0  0  0  0  0  0
   24.6953  -20.3391  -13.0929 C   0  0  0  0  0  0  0  0  0  0  0  0
   24.5577  -19.7659  -14.4533 C   0  0  0  0  0  0  0  0  0  0  0  0
   23.9813  -20.5036  -15.4438 C   0  0  0  0  0  0  0  0  0  0  0  0
   23.8559  -19.9638  -16.7090 C   0  0  0  0  0  0  0  0  0  0  0  0
   24.3078  -18.6857  -16.9815 C   0  0  0  0  0  0  0  0  0  0  0  0
   24.8824  -17.9657  -15.9711 C   0  0  0  0  0  0  0  0  0  0  0  0
   25.0149  -18.4900  -14.7034 C   0  0  0  0  0  0  0  0  0  0  0  0
   26.3167  -20.9956  -11.3334 C   0  0  0  0  0  0  0  0  0  0  0  0
   26.0958  -22.1859  -10.9393 O   0  0  0  0  0  0  0  0  0  0  0  0
   26.7263  -20.0710  -10.3657 N   0  0  0  0  0  0  0  0  0  0  0  0
   26.8191  -20.4326   -8.9221 C   0  0  1  0  0  0  0  0  0  0  0  0
   27.6964  -19.4085   -8.2850 C   0  0  0  0  0  0  0  0  0  0  0  0
   27.8450  -19.4635   -6.8285 C   0  0  0  0  0  0  0  0  0  0  0  0
   27.4428  -18.4808   -5.9539 C   0  0  0  0  0  0  0  0  0  0  0  0
   27.6071  -18.5897   -4.5887 C   0  0  0  0  0  0  0  0  0  0  0  0
   28.1913  -19.7073   -4.0380 C   0  0  0  0  0  0  0  0  0  0  0  0
   28.6032  -20.7066   -4.8948 C   0  0  0  0  0  0  0  0  0  0  0  0
   28.4346  -20.5880   -6.2534 C   0  0  0  0  0  0  0  0  0  0  0  0
   25.4520  -20.3622   -8.3991 C   0  0  0  0  0  0  0  0  0  0  0  0
   24.7759  -19.2981   -8.6297 O   0  0  0  0  0  0  0  0  0  0  0  0
   20.9914  -21.2796  -10.7170 N   0  0  0  0  0  0  0  0  0  0  0  0
   20.3337  -21.1783   -9.4518 C   0  0  0  0  0  0  0  0  0  0  0  0
   19.0693  -21.1242   -9.4977 O   0  0  0  0  0  0  0  0  0  0  0  0
   21.0867  -21.1392   -8.1678 C   0  0  0  0  0  0  0  0  0  0  0  0
   22.5569  -21.1909   -8.5084 C   0  0  0  0  0  0  0  0  0  0  0  0
   23.4166  -21.1664   -7.2503 C   0  0  2  0  0  0  0  0  0  0  0  0
   24.7940  -21.3753   -7.6572 N   0  0  0  0  0  0  0  0  0  0  0  0
   22.9382  -22.1419   -6.2590 C   0  0  0  0  0  0  0  0  0  0  0  0
   21.6521  -22.0190   -5.6859 O   0  0  0  0  0  0  0  0  0  0  0  0
   23.5875  -23.1322   -5.8409 O   0  0  0  0  0  0  0  0  0  0  0  0
  2 10  1  0
  2  3  1  0
  2  1  1  6
  3  4  1  0
  4  5  2  0
  5  6  1  0
  7  6  2  0
  8  7  1  0
  9  8  2  0
  9  4  1  0
 10 11  2  0
 12 13  1  0
 12 10  1  0
 13 21  1  0
 13 14  1  1
 15 14  1  0
 16 15  2  0
 17 16  1  0
 18 17  2  0
 18 19  1  0
 19 20  2  0
 20 15  1  0
 21 22  2  0
 21 29  1  0
 23 24  1  0
 24 26  1  0
 24 25  2  0
 26 27  1  0
 28 27  1  6
 28 30  1  0
 29 28  1  0
 30 32  2  0
 30 31  1  0
M  END
$$$$
