FFQ.pdb
     RDKit          3D

 32 33  0  0  1  0  0  0  0  0999 V2000
   23.3686   -9.6618  -17.3296 N   0  0  0  0  0  0  0  0  0  0  0  0
   22.0497   -9.7737  -17.8923 C   0  0  1  0  0  0  0  0  0  0  0  0
   21.8081  -11.2391  -18.1911 C   0  0  0  0  0  0  0  0  0  0  0  0
   22.5202  -11.6700  -19.4181 C   0  0  0  0  0  0  0  0  0  0  0  0
   23.5802  -12.5211  -19.3223 C   0  0  0  0  0  0  0  0  0  0  0  0
   24.2392  -12.9188  -20.4693 C   0  0  0  0  0  0  0  0  0  0  0  0
   23.8361  -12.4639  -21.7113 C   0  0  0  0  0  0  0  0  0  0  0  0
   22.7700  -11.6107  -21.7811 C   0  0  0  0  0  0  0  0  0  0  0  0
   22.1020  -11.2044  -20.6462 C   0  0  0  0  0  0  0  0  0  0  0  0
   21.0451   -9.2254  -16.9589 C   0  0  0  0  0  0  0  0  0  0  0  0
   21.1930   -9.3413  -15.6997 O   0  0  0  0  0  0  0  0  0  0  0  0
   19.8973   -8.5606  -17.4058 N   0  0  0  0  0  0  0  0  0  0  0  0
   18.8941   -7.9987  -16.4563 C   0  0  1  0  0  0  0  0  0  0  0  0
   19.0982   -6.5213  -16.4508 C   0  0  0  0  0  0  0  0  0  0  0  0
   20.2315   -6.0025  -15.6807 C   0  0  0  0  0  0  0  0  0  0  0  0
   20.2934   -5.9395  -14.3079 C   0  0  0  0  0  0  0  0  0  0  0  0
   21.3908   -5.4418  -13.6366 C   0  0  0  0  0  0  0  0  0  0  0  0
   22.4875   -4.9800  -14.3277 C   0  0  0  0  0  0  0  0  0  0  0  0
   22.4492   -5.0327  -15.7054 C   0  0  0  0  0  0  0  0  0  0  0  0
   21.3508   -5.5306  -16.3642 C   0  0  0  0  0  0  0  0  0  0  0  0
   17.5802   -8.3527  -17.0003 C   0  0  0  0  0  0  0  0  0  0  0  0
   17.3506   -8.0881  -18.2331 O   0  0  0  0  0  0  0  0  0  0  0  0
   14.3934  -13.3138  -16.1254 N   0  0  0  0  0  0  0  0  0  0  0  0
   14.1892  -12.3579  -15.0824 C   0  0  0  0  0  0  0  0  0  0  0  0
   13.7755  -12.8310  -13.9829 O   0  0  0  0  0  0  0  0  0  0  0  0
   14.4465  -10.9042  -15.2778 C   0  0  0  0  0  0  0  0  0  0  0  0
   14.9316  -10.7214  -16.6960 C   0  0  0  0  0  0  0  0  0  0  0  0
   15.2833   -9.2653  -16.9761 C   0  0  2  0  0  0  0  0  0  0  0  0
   16.5260   -8.9743  -16.2849 N   0  0  0  0  0  0  0  0  0  0  0  0
   14.1771   -8.3693  -16.6065 C   0  0  0  0  0  0  0  0  0  0  0  0
   14.2841   -7.5112  -15.4886 O   0  0  0  0  0  0  0  0  0  0  0  0
   13.0811   -8.2783  -17.2129 O   0  0  0  0  0  0  0  0  0  0  0  0
  2 10  1  0
  2  3  1  0
  2  1  1  1
  3  4  1  0
  4  5  2  0
  5  6  1  0
  7  6  2  0
  8  7  1  0
  9  8  2  0
  9  4  1  0
 10 11  2  0
 12 13  1  0
 12 10  1  0
 13 21  1  0
 13 14  1  6
 15 14  1  0
 16 15  2  0
 17 16  1  0
 18 17  2  0
 18 19  1  0
 19 20  2  0
 20 15  1  0
 21 22  2  0
 21 29  1  0
 23 24  1  0
 24 26  1  0
 24 25  2  0
 26 27  1  0
 28 27  1  1
 28 30  1  0
 29 28  1  0
 30 32  2  0
 30 31  1  0
M  END
$$$$
