WWN.pdb
     RDKit          3D

 37 40  0  0  1  0  0  0  0  0999 V2000
    8.9235  -17.0987   21.9704 N   0  0  0  0  0  0  0  0  0  0  0  0
    9.0729  -15.6924   22.2487 C   0  0  1  0  0  0  0  0  0  0  0  0
    7.7548  -14.9538   22.1477 C   0  0  0  0  0  0  0  0  0  0  0  0
    7.3588  -14.6789   20.7656 C   0  0  0  0  0  0  0  0  0  0  0  0
    6.3535  -15.2939   20.0489 C   0  0  0  0  0  0  0  0  0  0  0  0
    6.2919  -14.7737   18.8096 N   0  0  0  0  0  0  0  0  0  0  0  0
    7.2333  -13.8189   18.6696 C   0  0  0  0  0  0  0  0  0  0  0  0
    7.6123  -12.9830   17.6481 C   0  0  0  0  0  0  0  0  0  0  0  0
    8.6384  -12.0720   17.7760 C   0  0  0  0  0  0  0  0  0  0  0  0
    9.3054  -12.0116   18.9968 C   0  0  0  0  0  0  0  0  0  0  0  0
    8.9355  -12.8445   20.0298 C   0  0  0  0  0  0  0  0  0  0  0  0
    7.9062  -13.7469   19.8769 C   0  0  0  0  0  0  0  0  0  0  0  0
    9.6182  -15.5054   23.6188 C   0  0  0  0  0  0  0  0  0  0  0  0
   10.2653  -14.4718   23.8750 O   0  0  0  0  0  0  0  0  0  0  0  0
    9.4121  -16.4812   24.6300 N   0  0  0  0  0  0  0  0  0  0  0  0
   10.1400  -16.4864   25.9024 C   0  0  1  0  0  0  0  0  0  0  0  0
    9.1380  -16.3751   27.0129 C   0  0  0  0  0  0  0  0  0  0  0  0
    7.9155  -15.6382   26.7105 C   0  0  0  0  0  0  0  0  0  0  0  0
    6.6582  -16.1492   26.4724 C   0  0  0  0  0  0  0  0  0  0  0  0
    5.8084  -15.1167   26.2040 N   0  0  0  0  0  0  0  0  0  0  0  0
    6.4681  -13.9606   26.2596 C   0  0  0  0  0  0  0  0  0  0  0  0
    6.0511  -12.6609   26.0669 C   0  0  0  0  0  0  0  0  0  0  0  0
    6.9364  -11.6089   26.1811 C   0  0  0  0  0  0  0  0  0  0  0  0
    8.2457  -11.9120   26.4941 C   0  0  0  0  0  0  0  0  0  0  0  0
    8.6839  -13.2122   26.6917 C   0  0  0  0  0  0  0  0  0  0  0  0
    7.7973  -14.2643   26.5771 C   0  0  0  0  0  0  0  0  0  0  0  0
   11.0444  -17.6333   25.9642 C   0  0  0  0  0  0  0  0  0  0  0  0
   11.6944  -17.7993   27.0608 O   0  0  0  0  0  0  0  0  0  0  0  0
   12.4724  -23.0718   25.1141 N   0  0  0  0  0  0  0  0  0  0  0  0
   12.8622  -21.9337   24.3185 C   0  0  0  0  0  0  0  0  0  0  0  0
   14.0164  -22.0059   23.8104 O   0  0  0  0  0  0  0  0  0  0  0  0
   11.9345  -20.7976   24.1479 C   0  0  0  0  0  0  0  0  0  0  0  0
   12.2031  -19.6913   25.1362 C   0  0  2  0  0  0  0  0  0  0  0  0
   11.2771  -18.5858   24.9395 N   0  0  0  0  0  0  0  0  0  0  0  0
   13.6027  -19.2611   25.0044 C   0  0  0  0  0  0  0  0  0  0  0  0
   14.5562  -20.0603   25.2849 O   0  0  0  0  0  0  0  0  0  0  0  0
   13.9606  -17.9946   24.5772 O   0  0  0  0  0  0  0  0  0  0  0  0
  2  1  1  1
  3  4  1  0
  3  2  1  0
  4  5  2  0
  6  5  1  0
  7  6  1  0
  8  7  2  0
  9  8  1  0
 10  9  2  0
 10 11  1  0
 11 12  2  0
 12  7  1  0
 12  4  1  0
 13  2  1  0
 13 15  1  0
 14 13  2  0
 16 15  1  0
 16 17  1  1
 18 17  1  0
 18 19  2  0
 20 19  1  0
 21 20  1  0
 22 21  2  0
 23 22  1  0
 24 23  2  0
 24 25  1  0
 25 26  2  0
 26 21  1  0
 26 18  1  0
 27 28  2  0
 27 16  1  0
 29 30  1  0
 30 31  2  0
 30 32  1  0
 33 32  1  6
 33 34  1  0
 33 35  1  0
 34 27  1  0
 35 37  1  0
 36 35  2  0
M  END
$$$$
