WWN.pdb
     RDKit          3D

 37 40  0  0  1  0  0  0  0  0999 V2000
    7.5306  -16.4382   21.9541 N   0  0  0  0  0  0  0  0  0  0  0  0
    8.7559  -17.1865   21.8279 C   0  0  1  0  0  0  0  0  0  0  0  0
    9.4573  -16.9042   20.5158 C   0  0  0  0  0  0  0  0  0  0  0  0
    9.4628  -15.4829   20.1657 C   0  0  0  0  0  0  0  0  0  0  0  0
   10.5280  -14.7458   19.6918 C   0  0  0  0  0  0  0  0  0  0  0  0
   10.1469  -13.4717   19.4873 N   0  0  0  0  0  0  0  0  0  0  0  0
    8.8463  -13.3281   19.8120 C   0  0  0  0  0  0  0  0  0  0  0  0
    7.9614  -12.2780   19.8004 C   0  0  0  0  0  0  0  0  0  0  0  0
    6.6476  -12.4099   20.1948 C   0  0  0  0  0  0  0  0  0  0  0  0
    6.2190  -13.6650   20.6185 C   0  0  0  0  0  0  0  0  0  0  0  0
    7.0964  -14.7270   20.6351 C   0  0  0  0  0  0  0  0  0  0  0  0
    8.4052  -14.5696   20.2359 C   0  0  0  0  0  0  0  0  0  0  0  0
    9.6758  -16.8382   22.9425 C   0  0  0  0  0  0  0  0  0  0  0  0
   10.7652  -16.2942   22.6784 O   0  0  0  0  0  0  0  0  0  0  0  0
    9.3308  -17.1150   24.2922 N   0  0  0  0  0  0  0  0  0  0  0  0
   10.2489  -16.9061   25.4156 C   0  0  1  0  0  0  0  0  0  0  0  0
    9.8564  -15.6348   26.1079 C   0  0  0  0  0  0  0  0  0  0  0  0
    8.4789  -15.1928   25.9181 C   0  0  0  0  0  0  0  0  0  0  0  0
    7.3834  -15.9606   25.5877 C   0  0  0  0  0  0  0  0  0  0  0  0
    6.2932  -15.1478   25.4833 N   0  0  0  0  0  0  0  0  0  0  0  0
    6.6425  -13.8866   25.7331 C   0  0  0  0  0  0  0  0  0  0  0  0
    5.9062  -12.7214   25.7511 C   0  0  0  0  0  0  0  0  0  0  0  0
    6.5018  -11.5120   26.0440 C   0  0  0  0  0  0  0  0  0  0  0  0
    7.8546  -11.5196   26.3160 C   0  0  0  0  0  0  0  0  0  0  0  0
    8.6118  -12.6808   26.3029 C   0  0  0  0  0  0  0  0  0  0  0  0
    8.0148  -13.8907   26.0096 C   0  0  0  0  0  0  0  0  0  0  0  0
   10.3065  -18.1034   26.2525 C   0  0  0  0  0  0  0  0  0  0  0  0
    9.2237  -18.7881   26.3583 O   0  0  0  0  0  0  0  0  0  0  0  0
   14.5731  -19.4610   28.7573 N   0  0  0  0  0  0  0  0  0  0  0  0
   13.8204  -19.7645   27.5651 C   0  0  0  0  0  0  0  0  0  0  0  0
   14.2753  -19.2574   26.5013 O   0  0  0  0  0  0  0  0  0  0  0  0
   12.6144  -20.6126   27.6473 C   0  0  0  0  0  0  0  0  0  0  0  0
   11.3530  -19.7962   27.7699 C   0  0  2  0  0  0  0  0  0  0  0  0
   11.4359  -18.5909   26.9583 N   0  0  0  0  0  0  0  0  0  0  0  0
   11.1204  -19.4845   29.1878 C   0  0  0  0  0  0  0  0  0  0  0  0
   11.0411  -20.4184   30.0527 O   0  0  0  0  0  0  0  0  0  0  0  0
   10.9785  -18.1907   29.6575 O   0  0  0  0  0  0  0  0  0  0  0  0
  2  1  1  1
  3  4  1  0
  3  2  1  0
  4  5  2  0
  6  5  1  0
  7  6  1  0
  8  7  2  0
  9  8  1  0
 10  9  2  0
 10 11  1  0
 11 12  2  0
 12  7  1  0
 12  4  1  0
 13  2  1  0
 13 15  1  0
 14 13  2  0
 16 15  1  0
 16 17  1  1
 18 17  1  0
 18 19  2  0
 20 19  1  0
 21 20  1  0
 22 21  2  0
 23 22  1  0
 24 23  2  0
 24 25  1  0
 25 26  2  0
 26 21  1  0
 26 18  1  0
 27 28  2  0
 27 16  1  0
 29 30  1  0
 30 31  2  0
 30 32  1  0
 33 32  1  1
 33 34  1  0
 33 35  1  0
 34 27  1  0
 35 37  1  0
 36 35  2  0
M  END
$$$$
