WWN.pdb
     RDKit          3D

 37 40  0  0  1  0  0  0  0  0999 V2000
    9.9221  -17.0026   25.8372 N   0  0  0  0  0  0  0  0  0  0  0  0
    8.8477  -17.5134   25.0235 C   0  0  1  0  0  0  0  0  0  0  0  0
    7.5307  -16.8348   25.3364 C   0  0  0  0  0  0  0  0  0  0  0  0
    7.6633  -15.7549   26.3157 C   0  0  0  0  0  0  0  0  0  0  0  0
    8.1043  -15.8611   27.6183 C   0  0  0  0  0  0  0  0  0  0  0  0
    8.0849  -14.6514   28.2072 N   0  0  0  0  0  0  0  0  0  0  0  0
    7.6406  -13.7267   27.3326 C   0  0  0  0  0  0  0  0  0  0  0  0
    7.4249  -12.3717   27.3909 C   0  0  0  0  0  0  0  0  0  0  0  0
    6.9521  -11.6483   26.3174 C   0  0  0  0  0  0  0  0  0  0  0  0
    6.6886  -12.3359   25.1357 C   0  0  0  0  0  0  0  0  0  0  0  0
    6.9005  -13.6952   25.0636 C   0  0  0  0  0  0  0  0  0  0  0  0
    7.3738  -14.3959   26.1509 C   0  0  0  0  0  0  0  0  0  0  0  0
    9.1607  -17.3024   23.5857 C   0  0  0  0  0  0  0  0  0  0  0  0
    8.4312  -17.8316   22.7252 O   0  0  0  0  0  0  0  0  0  0  0  0
   10.2706  -16.5120   23.1848 N   0  0  0  0  0  0  0  0  0  0  0  0
   10.6845  -16.3577   21.7871 C   0  0  1  0  0  0  0  0  0  0  0  0
   10.3941  -14.9470   21.3682 C   0  0  0  0  0  0  0  0  0  0  0  0
    8.9859  -14.5801   21.2620 C   0  0  0  0  0  0  0  0  0  0  0  0
    7.9077  -15.1824   21.8730 C   0  0  0  0  0  0  0  0  0  0  0  0
    6.7683  -14.5423   21.4831 N   0  0  0  0  0  0  0  0  0  0  0  0
    7.0692  -13.5513   20.6450 C   0  0  0  0  0  0  0  0  0  0  0  0
    6.2739  -12.6340   19.9921 C   0  0  0  0  0  0  0  0  0  0  0  0
    6.8270  -11.6835   19.1591 C   0  0  0  0  0  0  0  0  0  0  0  0
    8.1987  -11.6910   19.0094 C   0  0  0  0  0  0  0  0  0  0  0  0
    9.0150  -12.6051   19.6574 C   0  0  0  0  0  0  0  0  0  0  0  0
    8.4606  -13.5560   20.4909 C   0  0  0  0  0  0  0  0  0  0  0  0
   12.0640  -16.8093   21.6142 C   0  0  0  0  0  0  0  0  0  0  0  0
   12.2957  -17.5959   20.6241 O   0  0  0  0  0  0  0  0  0  0  0  0
   14.3037  -14.1255   20.0674 N   0  0  0  0  0  0  0  0  0  0  0  0
   14.9621  -15.3970   20.2400 C   0  0  0  0  0  0  0  0  0  0  0  0
   15.1356  -16.0584   19.1779 O   0  0  0  0  0  0  0  0  0  0  0  0
   15.3791  -15.8375   21.5862 C   0  0  0  0  0  0  0  0  0  0  0  0
   14.5123  -16.9527   22.1131 C   0  0  2  0  0  0  0  0  0  0  0  0
   13.1763  -16.4665   22.4246 N   0  0  0  0  0  0  0  0  0  0  0  0
   15.1632  -17.5507   23.2880 C   0  0  0  0  0  0  0  0  0  0  0  0
   14.5926  -17.5261   24.4284 O   0  0  0  0  0  0  0  0  0  0  0  0
   16.4030  -18.1621   23.2281 O   0  0  0  0  0  0  0  0  0  0  0  0
  2  1  1  1
  3  4  1  0
  3  2  1  0
  4  5  2  0
  6  5  1  0
  7  6  1  0
  8  7  2  0
  9  8  1  0
 10  9  2  0
 10 11  1  0
 11 12  2  0
 12  7  1  0
 12  4  1  0
 13  2  1  0
 13 15  1  0
 14 13  2  0
 16 15  1  0
 16 17  1  1
 18 17  1  0
 18 19  2  0
 20 19  1  0
 21 20  1  0
 22 21  2  0
 23 22  1  0
 24 23  2  0
 24 25  1  0
 25 26  2  0
 26 21  1  0
 26 18  1  0
 27 28  2  0
 27 16  1  0
 29 30  1  0
 30 31  2  0
 30 32  1  0
 33 32  1  1
 33 34  1  0
 33 35  1  0
 34 27  1  0
 35 37  1  0
 36 35  2  0
M  END
$$$$
