WWN.pdb
     RDKit          3D

 37 40  0  0  1  0  0  0  0  0999 V2000
    6.3122  -16.3867   21.0633 N   0  0  0  0  0  0  0  0  0  0  0  0
    7.5073  -15.6838   21.4571 C   0  0  1  0  0  0  0  0  0  0  0  0
    7.4234  -14.2056   21.1396 C   0  0  0  0  0  0  0  0  0  0  0  0
    8.1842  -13.8339   19.9456 C   0  0  0  0  0  0  0  0  0  0  0  0
    7.6786  -13.4872   18.7100 C   0  0  0  0  0  0  0  0  0  0  0  0
    8.6881  -13.2132   17.8638 N   0  0  0  0  0  0  0  0  0  0  0  0
    9.8678  -13.3662   18.4981 C   0  0  0  0  0  0  0  0  0  0  0  0
   11.1835  -13.2229   18.1318 C   0  0  0  0  0  0  0  0  0  0  0  0
   12.2260  -13.4482   19.0046 C   0  0  0  0  0  0  0  0  0  0  0  0
   11.9129  -13.8358   20.3048 C   0  0  0  0  0  0  0  0  0  0  0  0
   10.5971  -13.9833   20.6854 C   0  0  0  0  0  0  0  0  0  0  0  0
    9.5728  -13.7521   19.7941 C   0  0  0  0  0  0  0  0  0  0  0  0
    7.7272  -15.8438   22.9185 C   0  0  0  0  0  0  0  0  0  0  0  0
    6.8984  -15.3555   23.7106 O   0  0  0  0  0  0  0  0  0  0  0  0
    8.8595  -16.5404   23.4182 N   0  0  0  0  0  0  0  0  0  0  0  0
    9.4355  -16.2928   24.7431 C   0  0  1  0  0  0  0  0  0  0  0  0
    8.3500  -16.4678   25.7633 C   0  0  0  0  0  0  0  0  0  0  0  0
    7.4195  -15.3543   25.9160 C   0  0  0  0  0  0  0  0  0  0  0  0
    6.0470  -15.3780   25.7967 C   0  0  0  0  0  0  0  0  0  0  0  0
    5.5678  -14.1158   25.9897 N   0  0  0  0  0  0  0  0  0  0  0  0
    6.5770  -13.2794   26.2285 C   0  0  0  0  0  0  0  0  0  0  0  0
    6.5999  -11.9245   26.4814 C   0  0  0  0  0  0  0  0  0  0  0  0
    7.7917  -11.2659   26.7034 C   0  0  0  0  0  0  0  0  0  0  0  0
    8.9492  -12.0160   26.6618 C   0  0  0  0  0  0  0  0  0  0  0  0
    8.9464  -13.3790   26.4092 C   0  0  0  0  0  0  0  0  0  0  0  0
    7.7532  -14.0373   26.1871 C   0  0  0  0  0  0  0  0  0  0  0  0
   10.6354  -17.1057   24.9343 C   0  0  0  0  0  0  0  0  0  0  0  0
   10.4615  -18.3730   25.0622 O   0  0  0  0  0  0  0  0  0  0  0  0
   13.4301  -17.0223   22.5395 N   0  0  0  0  0  0  0  0  0  0  0  0
   14.4925  -16.6255   23.4306 C   0  0  0  0  0  0  0  0  0  0  0  0
   15.4618  -16.0336   22.8777 O   0  0  0  0  0  0  0  0  0  0  0  0
   14.3951  -16.9185   24.8746 C   0  0  0  0  0  0  0  0  0  0  0  0
   13.0784  -17.5566   25.2374 C   0  0  2  0  0  0  0  0  0  0  0  0
   11.9743  -16.6413   24.9897 N   0  0  0  0  0  0  0  0  0  0  0  0
   13.1260  -17.9868   26.6425 C   0  0  0  0  0  0  0  0  0  0  0  0
   12.3291  -17.4842   27.5021 O   0  0  0  0  0  0  0  0  0  0  0  0
   14.0157  -18.9403   27.1049 O   0  0  0  0  0  0  0  0  0  0  0  0
  2  1  1  1
  3  4  1  0
  3  2  1  0
  4  5  2  0
  6  5  1  0
  7  6  1  0
  8  7  2  0
  9  8  1  0
 10  9  2  0
 10 11  1  0
 11 12  2  0
 12  7  1  0
 12  4  1  0
 13  2  1  0
 13 15  1  0
 14 13  2  0
 16 15  1  0
 16 17  1  1
 18 17  1  0
 18 19  2  0
 20 19  1  0
 21 20  1  0
 22 21  2  0
 23 22  1  0
 24 23  2  0
 24 25  1  0
 25 26  2  0
 26 21  1  0
 26 18  1  0
 27 28  2  0
 27 16  1  0
 29 30  1  0
 30 31  2  0
 30 32  1  0
 33 32  1  1
 33 34  1  0
 33 35  1  0
 34 27  1  0
 35 37  1  0
 36 35  2  0
M  END
$$$$
