WWN.pdb
     RDKit          3D

 37 40  0  0  1  0  0  0  0  0999 V2000
   10.2792  -17.1585   21.4295 N   0  0  0  0  0  0  0  0  0  0  0  0
    9.6277  -16.2175   22.3055 C   0  0  1  0  0  0  0  0  0  0  0  0
    8.1202  -16.3526   22.2584 C   0  0  0  0  0  0  0  0  0  0  0  0
    7.5371  -15.8161   21.0276 C   0  0  0  0  0  0  0  0  0  0  0  0
    6.5200  -16.3689   20.2777 C   0  0  0  0  0  0  0  0  0  0  0  0
    6.2598  -15.5872   19.2139 N   0  0  0  0  0  0  0  0  0  0  0  0
    7.0780  -14.5158   19.2256 C   0  0  0  0  0  0  0  0  0  0  0  0
    7.2475  -13.4249   18.4089 C   0  0  0  0  0  0  0  0  0  0  0  0
    8.1857  -12.4474   18.6609 C   0  0  0  0  0  0  0  0  0  0  0  0
    8.9838  -12.5889   19.7930 C   0  0  0  0  0  0  0  0  0  0  0  0
    8.8243  -13.6785   20.6208 C   0  0  0  0  0  0  0  0  0  0  0  0
    7.8792  -14.6423   20.3471 C   0  0  0  0  0  0  0  0  0  0  0  0
   10.0804  -16.4352   23.7046 C   0  0  0  0  0  0  0  0  0  0  0  0
   10.7792  -17.4337   23.9644 O   0  0  0  0  0  0  0  0  0  0  0  0
    9.7297  -15.5273   24.7389 N   0  0  0  0  0  0  0  0  0  0  0  0
   10.1301  -15.7082   26.1373 C   0  0  1  0  0  0  0  0  0  0  0  0
    9.5398  -14.5870   26.9399 C   0  0  0  0  0  0  0  0  0  0  0  0
    8.1281  -14.2991   26.7092 C   0  0  0  0  0  0  0  0  0  0  0  0
    7.0964  -15.1996   26.5560 C   0  0  0  0  0  0  0  0  0  0  0  0
    5.9412  -14.5098   26.3331 N   0  0  0  0  0  0  0  0  0  0  0  0
    6.1873  -13.2004   26.3365 C   0  0  0  0  0  0  0  0  0  0  0  0
    5.3569  -12.1146   26.1592 C   0  0  0  0  0  0  0  0  0  0  0  0
    5.8532  -10.8282   26.2078 C   0  0  0  0  0  0  0  0  0  0  0  0
    7.2052  -10.6775   26.4397 C   0  0  0  0  0  0  0  0  0  0  0  0
    8.0561  -11.7569   26.6204 C   0  0  0  0  0  0  0  0  0  0  0  0
    7.5584  -13.0438   26.5716 C   0  0  0  0  0  0  0  0  0  0  0  0
    9.8062  -17.0612   26.5864 C   0  0  0  0  0  0  0  0  0  0  0  0
   10.1018  -17.3535   27.8028 O   0  0  0  0  0  0  0  0  0  0  0  0
    6.0990  -21.5680   26.9734 N   0  0  0  0  0  0  0  0  0  0  0  0
    7.3728  -21.3280   26.3409 C   0  0  0  0  0  0  0  0  0  0  0  0
    8.1547  -22.3199   26.3187 O   0  0  0  0  0  0  0  0  0  0  0  0
    7.6809  -19.9977   25.7790 C   0  0  0  0  0  0  0  0  0  0  0  0
    8.9162  -19.3925   26.3959 C   0  0  2  0  0  0  0  0  0  0  0  0
    9.1952  -18.0857   25.8192 N   0  0  0  0  0  0  0  0  0  0  0  0
   10.0434  -20.3195   26.2180 C   0  0  0  0  0  0  0  0  0  0  0  0
   10.5297  -20.9483   27.2153 O   0  0  0  0  0  0  0  0  0  0  0  0
   10.6289  -20.5605   24.9877 O   0  0  0  0  0  0  0  0  0  0  0  0
  2  1  1  6
  3  4  1  0
  3  2  1  0
  4  5  2  0
  6  5  1  0
  7  6  1  0
  8  7  2  0
  9  8  1  0
 10  9  2  0
 10 11  1  0
 11 12  2  0
 12  7  1  0
 12  4  1  0
 13  2  1  0
 13 15  1  0
 14 13  2  0
 16 15  1  0
 16 17  1  1
 18 17  1  0
 18 19  2  0
 20 19  1  0
 21 20  1  0
 22 21  2  0
 23 22  1  0
 24 23  2  0
 24 25  1  0
 25 26  2  0
 26 21  1  0
 26 18  1  0
 27 28  2  0
 27 16  1  0
 29 30  1  0
 30 31  2  0
 30 32  1  0
 33 32  1  6
 33 34  1  0
 33 35  1  0
 34 27  1  0
 35 37  1  0
 36 35  2  0
M  END
$$$$
