WWN.pdb
     RDKit          3D

 37 40  0  0  1  0  0  0  0  0999 V2000
    9.9996  -16.6316   19.8955 N   0  0  0  0  0  0  0  0  0  0  0  0
   10.0664  -17.6314   20.9317 C   0  0  1  0  0  0  0  0  0  0  0  0
   11.2504  -18.5572   20.7475 C   0  0  0  0  0  0  0  0  0  0  0  0
   11.1328  -19.4053   19.5603 C   0  0  0  0  0  0  0  0  0  0  0  0
   11.6804  -19.1764   18.3153 C   0  0  0  0  0  0  0  0  0  0  0  0
   11.3509  -20.1784   17.4799 N   0  0  0  0  0  0  0  0  0  0  0  0
   10.5917  -21.0825   18.1309 C   0  0  0  0  0  0  0  0  0  0  0  0
    9.9933  -22.2678   17.7806 C   0  0  0  0  0  0  0  0  0  0  0  0
    9.2512  -23.0158   18.6689 C   0  0  0  0  0  0  0  0  0  0  0  0
    9.1143  -22.5345   19.9682 C   0  0  0  0  0  0  0  0  0  0  0  0
    9.7094  -21.3468   20.3329 C   0  0  0  0  0  0  0  0  0  0  0  0
   10.4463  -20.6172   19.4263 C   0  0  0  0  0  0  0  0  0  0  0  0
   10.1803  -16.9732   22.2597 C   0  0  0  0  0  0  0  0  0  0  0  0
   11.0223  -16.0678   22.4143 O   0  0  0  0  0  0  0  0  0  0  0  0
    9.3485  -17.3601   23.3440 N   0  0  0  0  0  0  0  0  0  0  0  0
    9.4811  -16.8083   24.6955 C   0  0  1  0  0  0  0  0  0  0  0  0
    8.1044  -16.6324   25.2642 C   0  0  0  0  0  0  0  0  0  0  0  0
    7.4448  -15.3619   24.9818 C   0  0  0  0  0  0  0  0  0  0  0  0
    6.6638  -15.0392   23.8934 C   0  0  0  0  0  0  0  0  0  0  0  0
    6.2665  -13.7395   24.0082 N   0  0  0  0  0  0  0  0  0  0  0  0
    6.7603  -13.2118   25.1274 C   0  0  0  0  0  0  0  0  0  0  0  0
    6.6399  -11.9519   25.6736 C   0  0  0  0  0  0  0  0  0  0  0  0
    7.2549  -11.6361   26.8675 C   0  0  0  0  0  0  0  0  0  0  0  0
    7.9892  -12.6277   27.4854 C   0  0  0  0  0  0  0  0  0  0  0  0
    8.1218  -13.9003   26.9519 C   0  0  0  0  0  0  0  0  0  0  0  0
    7.5060  -14.2154   25.7571 C   0  0  0  0  0  0  0  0  0  0  0  0
   10.4050  -17.6199   25.4860 C   0  0  0  0  0  0  0  0  0  0  0  0
   10.3899  -18.8875   25.2725 O   0  0  0  0  0  0  0  0  0  0  0  0
   15.1916  -19.1804   27.9564 N   0  0  0  0  0  0  0  0  0  0  0  0
   14.2034  -18.3248   28.5658 C   0  0  0  0  0  0  0  0  0  0  0  0
   14.1120  -18.4228   29.8219 O   0  0  0  0  0  0  0  0  0  0  0  0
   13.3891  -17.4217   27.7282 C   0  0  0  0  0  0  0  0  0  0  0  0
   12.1211  -18.0810   27.2483 C   0  0  2  0  0  0  0  0  0  0  0  0
   11.3207  -17.1530   26.4632 N   0  0  0  0  0  0  0  0  0  0  0  0
   11.3795  -18.5944   28.4093 C   0  0  0  0  0  0  0  0  0  0  0  0
   11.5964  -19.7719   28.8486 O   0  0  0  0  0  0  0  0  0  0  0  0
   10.4260  -17.8485   29.0794 O   0  0  0  0  0  0  0  0  0  0  0  0
  2  1  1  6
  3  4  1  0
  3  2  1  0
  4  5  2  0
  6  5  1  0
  7  6  1  0
  8  7  2  0
  9  8  1  0
 10  9  2  0
 10 11  1  0
 11 12  2  0
 12  7  1  0
 12  4  1  0
 13  2  1  0
 13 15  1  0
 14 13  2  0
 16 15  1  0
 16 17  1  1
 18 17  1  0
 18 19  2  0
 20 19  1  0
 21 20  1  0
 22 21  2  0
 23 22  1  0
 24 23  2  0
 24 25  1  0
 25 26  2  0
 26 21  1  0
 26 18  1  0
 27 28  2  0
 27 16  1  0
 29 30  1  0
 30 31  2  0
 30 32  1  0
 33 32  1  1
 33 34  1  0
 33 35  1  0
 34 27  1  0
 35 37  1  0
 36 35  2  0
M  END
$$$$
