WWN.pdb
     RDKit          3D

 37 40  0  0  1  0  0  0  0  0999 V2000
   11.3754  -15.9619   20.9458 N   0  0  0  0  0  0  0  0  0  0  0  0
   10.1118  -15.9686   21.6392 C   0  0  1  0  0  0  0  0  0  0  0  0
    9.0897  -16.8413   20.9416 C   0  0  0  0  0  0  0  0  0  0  0  0
    8.0747  -16.0689   20.2232 C   0  0  0  0  0  0  0  0  0  0  0  0
    7.0119  -16.5629   19.4959 C   0  0  0  0  0  0  0  0  0  0  0  0
    6.2997  -15.5452   18.9791 N   0  0  0  0  0  0  0  0  0  0  0  0
    6.8557  -14.3713   19.3399 C   0  0  0  0  0  0  0  0  0  0  0  0
    6.5566  -13.0517   19.1046 C   0  0  0  0  0  0  0  0  0  0  0  0
    7.3143  -12.0173   19.6095 C   0  0  0  0  0  0  0  0  0  0  0  0
    8.4229  -12.3427   20.3866 C   0  0  0  0  0  0  0  0  0  0  0  0
    8.7342  -13.6624   20.6304 C   0  0  0  0  0  0  0  0  0  0  0  0
    7.9609  -14.6786   20.1142 C   0  0  0  0  0  0  0  0  0  0  0  0
   10.3004  -16.4732   23.0247 C   0  0  0  0  0  0  0  0  0  0  0  0
   11.4563  -16.6933   23.4347 O   0  0  0  0  0  0  0  0  0  0  0  0
    9.1895  -16.7048   23.8787 N   0  0  0  0  0  0  0  0  0  0  0  0
    9.3063  -16.8245   25.3350 C   0  0  1  0  0  0  0  0  0  0  0  0
    7.9299  -16.7241   25.9227 C   0  0  0  0  0  0  0  0  0  0  0  0
    7.2717  -15.4267   25.8120 C   0  0  0  0  0  0  0  0  0  0  0  0
    6.0751  -15.1366   25.1935 C   0  0  0  0  0  0  0  0  0  0  0  0
    5.8401  -13.7973   25.2986 N   0  0  0  0  0  0  0  0  0  0  0  0
    6.8377  -13.2126   25.9603 C   0  0  0  0  0  0  0  0  0  0  0  0
    7.0523  -11.8975   26.3136 C   0  0  0  0  0  0  0  0  0  0  0  0
    8.1829  -11.5276   27.0125 C   0  0  0  0  0  0  0  0  0  0  0  0
    9.0813  -12.5227   27.3395 C   0  0  0  0  0  0  0  0  0  0  0  0
    8.8830  -13.8503   26.9931 C   0  0  0  0  0  0  0  0  0  0  0  0
    7.7513  -14.2195   26.2937 C   0  0  0  0  0  0  0  0  0  0  0  0
   10.0702  -18.0206   25.6857 C   0  0  0  0  0  0  0  0  0  0  0  0
    9.5920  -19.1479   25.2946 O   0  0  0  0  0  0  0  0  0  0  0  0
   13.2907  -21.6556   27.3902 N   0  0  0  0  0  0  0  0  0  0  0  0
   14.0782  -20.5063   27.0175 C   0  0  0  0  0  0  0  0  0  0  0  0
   15.3261  -20.6999   26.9858 O   0  0  0  0  0  0  0  0  0  0  0  0
   13.4149  -19.2241   26.7070 C   0  0  0  0  0  0  0  0  0  0  0  0
   11.9122  -19.3358   26.7537 C   0  0  2  0  0  0  0  0  0  0  0  0
   11.2882  -18.0664   26.4107 N   0  0  0  0  0  0  0  0  0  0  0  0
   11.5079  -19.7996   28.0890 C   0  0  0  0  0  0  0  0  0  0  0  0
   10.9386  -19.0040   28.9072 O   0  0  0  0  0  0  0  0  0  0  0  0
   11.7146  -21.0958   28.5267 O   0  0  0  0  0  0  0  0  0  0  0  0
  2  1  1  6
  3  4  1  0
  3  2  1  0
  4  5  2  0
  6  5  1  0
  7  6  1  0
  8  7  2  0
  9  8  1  0
 10  9  2  0
 10 11  1  0
 11 12  2  0
 12  7  1  0
 12  4  1  0
 13  2  1  0
 13 15  1  0
 14 13  2  0
 16 15  1  0
 16 17  1  1
 18 17  1  0
 18 19  2  0
 20 19  1  0
 21 20  1  0
 22 21  2  0
 23 22  1  0
 24 23  2  0
 24 25  1  0
 25 26  2  0
 26 21  1  0
 26 18  1  0
 27 28  2  0
 27 16  1  0
 29 30  1  0
 30 31  2  0
 30 32  1  0
 33 32  1  1
 33 34  1  0
 33 35  1  0
 34 27  1  0
 35 37  1  0
 36 35  2  0
M  END
$$$$
