WWN.pdb
     RDKit          3D

 37 40  0  0  1  0  0  0  0  0999 V2000
    8.2302  -18.4355   26.8197 N   0  0  0  0  0  0  0  0  0  0  0  0
    8.1106  -17.2195   26.0552 C   0  0  1  0  0  0  0  0  0  0  0  0
    9.3778  -16.3922   26.1084 C   0  0  0  0  0  0  0  0  0  0  0  0
    9.2500  -15.2062   26.9569 C   0  0  0  0  0  0  0  0  0  0  0  0
    9.7959  -15.0149   28.2090 C   0  0  0  0  0  0  0  0  0  0  0  0
    9.4562  -13.7991   28.6747 N   0  0  0  0  0  0  0  0  0  0  0  0
    8.6918  -13.1611   27.7658 C   0  0  0  0  0  0  0  0  0  0  0  0
    8.0830  -11.9312   27.7131 C   0  0  0  0  0  0  0  0  0  0  0  0
    7.3377  -11.5175   26.6303 C   0  0  0  0  0  0  0  0  0  0  0  0
    7.2082  -12.3949   25.5570 C   0  0  0  0  0  0  0  0  0  0  0  0
    7.8137  -13.6317   25.5968 C   0  0  0  0  0  0  0  0  0  0  0  0
    8.5537  -14.0220   26.6910 C   0  0  0  0  0  0  0  0  0  0  0  0
    7.8152  -17.5446   24.6350 C   0  0  0  0  0  0  0  0  0  0  0  0
    8.0406  -18.6979   24.2204 O   0  0  0  0  0  0  0  0  0  0  0  0
    7.2837  -16.5659   23.7536 N   0  0  0  0  0  0  0  0  0  0  0  0
    7.3805  -16.6614   22.2941 C   0  0  1  0  0  0  0  0  0  0  0  0
    6.5553  -15.5590   21.6993 C   0  0  0  0  0  0  0  0  0  0  0  0
    6.7939  -15.2592   20.2914 C   0  0  0  0  0  0  0  0  0  0  0  0
    6.4430  -16.0166   19.1952 C   0  0  0  0  0  0  0  0  0  0  0  0
    6.8777  -15.3845   18.0676 N   0  0  0  0  0  0  0  0  0  0  0  0
    7.4949  -14.2497   18.3935 C   0  0  0  0  0  0  0  0  0  0  0  0
    8.0943  -13.2806   17.6176 C   0  0  0  0  0  0  0  0  0  0  0  0
    8.6784  -12.1723   18.1953 C   0  0  0  0  0  0  0  0  0  0  0  0
    8.6366  -12.0769   19.5713 C   0  0  0  0  0  0  0  0  0  0  0  0
    8.0386  -13.0408   20.3683 C   0  0  0  0  0  0  0  0  0  0  0  0
    7.4544  -14.1497   19.7892 C   0  0  0  0  0  0  0  0  0  0  0  0
    8.7820  -16.7107   21.8811 C   0  0  0  0  0  0  0  0  0  0  0  0
    9.0347  -17.2838   20.7585 O   0  0  0  0  0  0  0  0  0  0  0  0
   14.3171  -14.7260   22.2172 N   0  0  0  0  0  0  0  0  0  0  0  0
   13.1766  -14.8553   21.3439 C   0  0  0  0  0  0  0  0  0  0  0  0
   13.4527  -14.9730   20.1168 O   0  0  0  0  0  0  0  0  0  0  0  0
   11.8105  -14.8440   21.9043 C   0  0  0  0  0  0  0  0  0  0  0  0
   11.2342  -16.2318   22.0249 C   0  0  2  0  0  0  0  0  0  0  0  0
    9.8937  -16.1880   22.5899 N   0  0  0  0  0  0  0  0  0  0  0  0
   12.1412  -17.0581   22.8349 C   0  0  0  0  0  0  0  0  0  0  0  0
   12.8574  -17.9612   22.2890 O   0  0  0  0  0  0  0  0  0  0  0  0
   12.2700  -16.9081   24.2044 O   0  0  0  0  0  0  0  0  0  0  0  0
  2  1  1  1
  3  4  1  0
  3  2  1  0
  4  5  2  0
  6  5  1  0
  7  6  1  0
  8  7  2  0
  9  8  1  0
 10  9  2  0
 10 11  1  0
 11 12  2  0
 12  7  1  0
 12  4  1  0
 13  2  1  0
 13 15  1  0
 14 13  2  0
 16 15  1  0
 16 17  1  6
 18 17  1  0
 18 19  2  0
 20 19  1  0
 21 20  1  0
 22 21  2  0
 23 22  1  0
 24 23  2  0
 24 25  1  0
 25 26  2  0
 26 21  1  0
 26 18  1  0
 27 28  2  0
 27 16  1  0
 29 30  1  0
 30 31  2  0
 30 32  1  0
 33 32  1  1
 33 34  1  0
 33 35  1  0
 34 27  1  0
 35 37  1  0
 36 35  2  0
M  END
$$$$
