WWN.pdb
     RDKit          3D

 37 40  0  0  1  0  0  0  0  0999 V2000
    7.1258  -16.3944   21.7061 N   0  0  0  0  0  0  0  0  0  0  0  0
    8.3828  -17.0939   21.6166 C   0  0  1  0  0  0  0  0  0  0  0  0
    9.0497  -16.8870   20.2729 C   0  0  0  0  0  0  0  0  0  0  0  0
    8.9031  -15.5213   19.7671 C   0  0  0  0  0  0  0  0  0  0  0  0
    9.3854  -15.0173   18.5772 C   0  0  0  0  0  0  0  0  0  0  0  0
    9.0532  -13.7185   18.4631 N   0  0  0  0  0  0  0  0  0  0  0  0
    8.3558  -13.3300   19.5494 C   0  0  0  0  0  0  0  0  0  0  0  0
    7.7818  -12.1498   19.9537 C   0  0  0  0  0  0  0  0  0  0  0  0
    7.1054  -12.0238   21.1477 C   0  0  0  0  0  0  0  0  0  0  0  0
    7.0107  -13.1486   21.9629 C   0  0  0  0  0  0  0  0  0  0  0  0
    7.5820  -14.3388   21.5695 C   0  0  0  0  0  0  0  0  0  0  0  0
    8.2532  -14.4392   20.3709 C   0  0  0  0  0  0  0  0  0  0  0  0
    9.3025  -16.6151   22.6819 C   0  0  0  0  0  0  0  0  0  0  0  0
    9.9267  -15.5509   22.5068 O   0  0  0  0  0  0  0  0  0  0  0  0
    9.4762  -17.3487   23.8855 N   0  0  0  0  0  0  0  0  0  0  0  0
   10.4468  -16.9784   24.9197 C   0  0  1  0  0  0  0  0  0  0  0  0
   10.1011  -15.6047   25.4127 C   0  0  0  0  0  0  0  0  0  0  0  0
    8.6865  -15.2475   25.3953 C   0  0  0  0  0  0  0  0  0  0  0  0
    7.6046  -16.0890   25.2541 C   0  0  0  0  0  0  0  0  0  0  0  0
    6.4634  -15.3422   25.2649 N   0  0  0  0  0  0  0  0  0  0  0  0
    6.7669  -14.0528   25.4074 C   0  0  0  0  0  0  0  0  0  0  0  0
    5.9710  -12.9293   25.4746 C   0  0  0  0  0  0  0  0  0  0  0  0
    6.5270  -11.6760   25.6280 C   0  0  0  0  0  0  0  0  0  0  0  0
    7.9022  -11.5970   25.7105 C   0  0  0  0  0  0  0  0  0  0  0  0
    8.7190  -12.7152   25.6451 C   0  0  0  0  0  0  0  0  0  0  0  0
    8.1617  -13.9690   25.4916 C   0  0  0  0  0  0  0  0  0  0  0  0
   10.5284  -18.0255   25.9365 C   0  0  0  0  0  0  0  0  0  0  0  0
    9.4356  -18.6376   26.2259 O   0  0  0  0  0  0  0  0  0  0  0  0
   13.2129  -21.4306   25.6333 N   0  0  0  0  0  0  0  0  0  0  0  0
   13.6138  -20.3566   26.5085 C   0  0  0  0  0  0  0  0  0  0  0  0
   14.5483  -19.6289   26.0695 O   0  0  0  0  0  0  0  0  0  0  0  0
   12.9418  -20.1733   27.8105 C   0  0  0  0  0  0  0  0  0  0  0  0
   11.6217  -19.4583   27.6729 C   0  0  2  0  0  0  0  0  0  0  0  0
   11.6907  -18.4397   26.6357 N   0  0  0  0  0  0  0  0  0  0  0  0
   11.2488  -18.8870   28.9752 C   0  0  0  0  0  0  0  0  0  0  0  0
   11.1886  -17.6232   29.1358 O   0  0  0  0  0  0  0  0  0  0  0  0
   10.9470  -19.6671   30.0774 O   0  0  0  0  0  0  0  0  0  0  0  0
  2  1  1  6
  3  4  1  0
  3  2  1  0
  4  5  2  0
  6  5  1  0
  7  6  1  0
  8  7  2  0
  9  8  1  0
 10  9  2  0
 10 11  1  0
 11 12  2  0
 12  7  1  0
 12  4  1  0
 13  2  1  0
 13 15  1  0
 14 13  2  0
 16 15  1  0
 16 17  1  1
 18 17  1  0
 18 19  2  0
 20 19  1  0
 21 20  1  0
 22 21  2  0
 23 22  1  0
 24 23  2  0
 24 25  1  0
 25 26  2  0
 26 21  1  0
 26 18  1  0
 27 28  2  0
 27 16  1  0
 29 30  1  0
 30 31  2  0
 30 32  1  0
 33 32  1  1
 33 34  1  0
 33 35  1  0
 34 27  1  0
 35 37  1  0
 36 35  2  0
M  END
$$$$
