WWN.pdb
     RDKit          3D

 37 40  0  0  1  0  0  0  0  0999 V2000
    9.0084  -16.9612   21.7877 N   0  0  0  0  0  0  0  0  0  0  0  0
    9.0143  -15.6223   22.3213 C   0  0  1  0  0  0  0  0  0  0  0  0
    7.6881  -14.9233   22.1071 C   0  0  0  0  0  0  0  0  0  0  0  0
    7.3813  -14.7018   20.6931 C   0  0  0  0  0  0  0  0  0  0  0  0
    6.5548  -15.4609   19.8911 C   0  0  0  0  0  0  0  0  0  0  0  0
    6.5252  -14.9459   18.6484 N   0  0  0  0  0  0  0  0  0  0  0  0
    7.3133  -13.8538   18.5896 C   0  0  0  0  0  0  0  0  0  0  0  0
    7.6473  -12.9596   17.6023 C   0  0  0  0  0  0  0  0  0  0  0  0
    8.5013  -11.8998   17.8183 C   0  0  0  0  0  0  0  0  0  0  0  0
    9.0365  -11.7460   19.0945 C   0  0  0  0  0  0  0  0  0  0  0  0
    8.7099  -12.6359   20.0941 C   0  0  0  0  0  0  0  0  0  0  0  0
    7.8537  -13.6875   19.8529 C   0  0  0  0  0  0  0  0  0  0  0  0
    9.2996  -15.6626   23.7796 C   0  0  0  0  0  0  0  0  0  0  0  0
    9.5432  -14.5964   24.3767 O   0  0  0  0  0  0  0  0  0  0  0  0
    9.2976  -16.8903   24.4939 N   0  0  0  0  0  0  0  0  0  0  0  0
    9.6203  -16.9909   25.9202 C   0  0  1  0  0  0  0  0  0  0  0  0
    8.3322  -17.0513   26.6862 C   0  0  0  0  0  0  0  0  0  0  0  0
    7.4330  -15.9127   26.5316 C   0  0  0  0  0  0  0  0  0  0  0  0
    6.1541  -15.9099   26.0188 C   0  0  0  0  0  0  0  0  0  0  0  0
    5.6795  -14.6313   26.0299 N   0  0  0  0  0  0  0  0  0  0  0  0
    6.6018  -13.8099   26.5294 C   0  0  0  0  0  0  0  0  0  0  0  0
    6.5931  -12.4478   26.7415 C   0  0  0  0  0  0  0  0  0  0  0  0
    7.6894  -11.8086   27.2829 C   0  0  0  0  0  0  0  0  0  0  0  0
    8.7849  -12.5853   27.6000 C   0  0  0  0  0  0  0  0  0  0  0  0
    8.8125  -13.9560   27.3943 C   0  0  0  0  0  0  0  0  0  0  0  0
    7.7150  -14.5948   26.8525 C   0  0  0  0  0  0  0  0  0  0  0  0
   10.5586  -18.0879   26.1514 C   0  0  0  0  0  0  0  0  0  0  0  0
   10.1450  -19.2721   25.8703 O   0  0  0  0  0  0  0  0  0  0  0  0
   13.7380  -19.1341   24.7378 N   0  0  0  0  0  0  0  0  0  0  0  0
   14.6052  -18.9198   25.8702 C   0  0  0  0  0  0  0  0  0  0  0  0
   15.8216  -18.7333   25.5851 O   0  0  0  0  0  0  0  0  0  0  0  0
   14.0509  -18.9292   27.2388 C   0  0  0  0  0  0  0  0  0  0  0  0
   12.5562  -19.1255   27.2452 C   0  0  2  0  0  0  0  0  0  0  0  0
   11.8816  -17.9809   26.6511 N   0  0  0  0  0  0  0  0  0  0  0  0
   12.1108  -19.3655   28.6256 C   0  0  0  0  0  0  0  0  0  0  0  0
   11.3248  -18.5455   29.2055 O   0  0  0  0  0  0  0  0  0  0  0  0
   12.5071  -20.4693   29.3600 O   0  0  0  0  0  0  0  0  0  0  0  0
  2  1  1  1
  3  4  1  0
  3  2  1  0
  4  5  2  0
  6  5  1  0
  7  6  1  0
  8  7  2  0
  9  8  1  0
 10  9  2  0
 10 11  1  0
 11 12  2  0
 12  7  1  0
 12  4  1  0
 13  2  1  0
 13 15  1  0
 14 13  2  0
 16 15  1  0
 16 17  1  1
 18 17  1  0
 18 19  2  0
 20 19  1  0
 21 20  1  0
 22 21  2  0
 23 22  1  0
 24 23  2  0
 24 25  1  0
 25 26  2  0
 26 21  1  0
 26 18  1  0
 27 28  2  0
 27 16  1  0
 29 30  1  0
 30 31  2  0
 30 32  1  0
 33 32  1  1
 33 34  1  0
 33 35  1  0
 34 27  1  0
 35 37  1  0
 36 35  2  0
M  END
$$$$
