WWN.pdb
     RDKit          3D

 37 40  0  0  1  0  0  0  0  0999 V2000
    7.8390  -19.3965   26.7732 N   0  0  0  0  0  0  0  0  0  0  0  0
    8.6668  -18.2970   26.3450 C   0  0  1  0  0  0  0  0  0  0  0  0
   10.1393  -18.5870   26.5466 C   0  0  0  0  0  0  0  0  0  0  0  0
   10.7073  -17.8835   27.6977 C   0  0  0  0  0  0  0  0  0  0  0  0
   10.9728  -18.4069   28.9460 C   0  0  0  0  0  0  0  0  0  0  0  0
   11.4897  -17.4524   29.7411 N   0  0  0  0  0  0  0  0  0  0  0  0
   11.5810  -16.2928   29.0596 C   0  0  0  0  0  0  0  0  0  0  0  0
   12.0229  -15.0289   29.3650 C   0  0  0  0  0  0  0  0  0  0  0  0
   12.0058  -13.9958   28.4530 C   0  0  0  0  0  0  0  0  0  0  0  0
   11.5178  -14.2635   27.1767 C   0  0  0  0  0  0  0  0  0  0  0  0
   11.0713  -15.5270   26.8572 C   0  0  0  0  0  0  0  0  0  0  0  0
   11.0986  -16.5431   27.7867 C   0  0  0  0  0  0  0  0  0  0  0  0
    8.4304  -18.0203   24.9037 C   0  0  0  0  0  0  0  0  0  0  0  0
    8.2037  -18.9745   24.1351 O   0  0  0  0  0  0  0  0  0  0  0  0
    8.4589  -16.6937   24.3970 N   0  0  0  0  0  0  0  0  0  0  0  0
    8.4051  -16.3783   22.9665 C   0  0  1  0  0  0  0  0  0  0  0  0
    7.5984  -15.1253   22.7957 C   0  0  0  0  0  0  0  0  0  0  0  0
    6.8198  -14.6940   23.9518 C   0  0  0  0  0  0  0  0  0  0  0  0
    6.0711  -15.4750   24.8050 C   0  0  0  0  0  0  0  0  0  0  0  0
    5.4829  -14.6694   25.7351 N   0  0  0  0  0  0  0  0  0  0  0  0
    5.8227  -13.4001   25.5152 C   0  0  0  0  0  0  0  0  0  0  0  0
    5.4874  -12.2374   26.1754 C   0  0  0  0  0  0  0  0  0  0  0  0
    5.9739  -11.0176   25.7525 C   0  0  0  0  0  0  0  0  0  0  0  0
    6.8034  -11.0125   24.6497 C   0  0  0  0  0  0  0  0  0  0  0  0
    7.1519  -12.1710   23.9728 C   0  0  0  0  0  0  0  0  0  0  0  0
    6.6646  -13.3912   24.3967 C   0  0  0  0  0  0  0  0  0  0  0  0
    9.7530  -16.3581   22.4008 C   0  0  0  0  0  0  0  0  0  0  0  0
   10.7269  -16.2335   23.2305 O   0  0  0  0  0  0  0  0  0  0  0  0
   12.8837  -15.0107   18.6736 N   0  0  0  0  0  0  0  0  0  0  0  0
   12.9573  -14.5293   20.0312 C   0  0  0  0  0  0  0  0  0  0  0  0
   13.7140  -13.5330   20.2056 O   0  0  0  0  0  0  0  0  0  0  0  0
   12.1803  -15.1956   21.0956 C   0  0  0  0  0  0  0  0  0  0  0  0
   11.4890  -16.4403   20.6001 C   0  0  2  0  0  0  0  0  0  0  0  0
   10.0987  -16.4656   21.0296 N   0  0  0  0  0  0  0  0  0  0  0  0
   12.2283  -17.6194   21.0742 C   0  0  0  0  0  0  0  0  0  0  0  0
   12.2732  -17.9001   22.3175 O   0  0  0  0  0  0  0  0  0  0  0  0
   12.9022  -18.4749   20.2207 O   0  0  0  0  0  0  0  0  0  0  0  0
  2  1  1  6
  3  4  1  0
  3  2  1  0
  4  5  2  0
  6  5  1  0
  7  6  1  0
  8  7  2  0
  9  8  1  0
 10  9  2  0
 10 11  1  0
 11 12  2  0
 12  7  1  0
 12  4  1  0
 13  2  1  0
 13 15  1  0
 14 13  2  0
 16 15  1  0
 16 17  1  1
 18 17  1  0
 18 19  2  0
 20 19  1  0
 21 20  1  0
 22 21  2  0
 23 22  1  0
 24 23  2  0
 24 25  1  0
 25 26  2  0
 26 21  1  0
 26 18  1  0
 27 28  2  0
 27 16  1  0
 29 30  1  0
 30 31  2  0
 30 32  1  0
 33 32  1  1
 33 34  1  0
 33 35  1  0
 34 27  1  0
 35 37  1  0
 36 35  2  0
M  END
$$$$
