WWN.pdb
     RDKit          3D

 37 40  0  0  1  0  0  0  0  0999 V2000
    7.4550  -18.7257   21.7630 N   0  0  0  0  0  0  0  0  0  0  0  0
    7.7054  -17.3095   21.6682 C   0  0  1  0  0  0  0  0  0  0  0  0
    6.7287  -16.6247   20.7353 C   0  0  0  0  0  0  0  0  0  0  0  0
    7.3636  -15.6188   19.8822 C   0  0  0  0  0  0  0  0  0  0  0  0
    7.8354  -15.7933   18.5979 C   0  0  0  0  0  0  0  0  0  0  0  0
    8.3551  -14.6392   18.1413 N   0  0  0  0  0  0  0  0  0  0  0  0
    8.2460  -13.6852   19.0876 C   0  0  0  0  0  0  0  0  0  0  0  0
    8.5975  -12.3599   19.1635 C   0  0  0  0  0  0  0  0  0  0  0  0
    8.3626  -11.5924   20.2838 C   0  0  0  0  0  0  0  0  0  0  0  0
    7.7436  -12.2026   21.3715 C   0  0  0  0  0  0  0  0  0  0  0  0
    7.3858  -13.5315   21.3087 C   0  0  0  0  0  0  0  0  0  0  0  0
    7.6315  -14.2774   20.1772 C   0  0  0  0  0  0  0  0  0  0  0  0
    7.5930  -16.6871   23.0134 C   0  0  0  0  0  0  0  0  0  0  0  0
    6.7812  -15.7569   23.1821 O   0  0  0  0  0  0  0  0  0  0  0  0
    8.3918  -17.1359   24.0986 N   0  0  0  0  0  0  0  0  0  0  0  0
    9.4280  -16.3124   24.7285 C   0  0  1  0  0  0  0  0  0  0  0  0
    8.9358  -15.9008   26.0843 C   0  0  0  0  0  0  0  0  0  0  0  0
    7.6886  -15.1443   26.1180 C   0  0  0  0  0  0  0  0  0  0  0  0
    6.4042  -15.6273   25.9931 C   0  0  0  0  0  0  0  0  0  0  0  0
    5.5333  -14.5795   26.0547 N   0  0  0  0  0  0  0  0  0  0  0  0
    6.2055  -13.4403   26.2143 C   0  0  0  0  0  0  0  0  0  0  0  0
    5.7767  -12.1353   26.3294 C   0  0  0  0  0  0  0  0  0  0  0  0
    6.6798  -11.1049   26.4913 C   0  0  0  0  0  0  0  0  0  0  0  0
    8.0191  -11.4350   26.5329 C   0  0  0  0  0  0  0  0  0  0  0  0
    8.4695  -12.7411   26.4190 C   0  0  0  0  0  0  0  0  0  0  0  0
    7.5650  -13.7715   26.2570 C   0  0  0  0  0  0  0  0  0  0  0  0
   10.7156  -17.0039   24.6939 C   0  0  0  0  0  0  0  0  0  0  0  0
   11.1909  -17.3987   25.8212 O   0  0  0  0  0  0  0  0  0  0  0  0
   11.8390  -18.0257   21.0740 N   0  0  0  0  0  0  0  0  0  0  0  0
   12.3236  -19.2486   21.6653 C   0  0  0  0  0  0  0  0  0  0  0  0
   12.2418  -20.2697   20.9261 O   0  0  0  0  0  0  0  0  0  0  0  0
   12.8647  -19.2425   23.0392 C   0  0  0  0  0  0  0  0  0  0  0  0
   12.8239  -17.8692   23.6598 C   0  0  2  0  0  0  0  0  0  0  0  0
   11.4947  -17.2882   23.5434 N   0  0  0  0  0  0  0  0  0  0  0  0
   13.8460  -17.0257   23.0232 C   0  0  0  0  0  0  0  0  0  0  0  0
   15.0767  -17.3586   23.0598 O   0  0  0  0  0  0  0  0  0  0  0  0
   13.5413  -15.8495   22.3612 O   0  0  0  0  0  0  0  0  0  0  0  0
  2  1  1  1
  3  4  1  0
  3  2  1  0
  4  5  2  0
  6  5  1  0
  7  6  1  0
  8  7  2  0
  9  8  1  0
 10  9  2  0
 10 11  1  0
 11 12  2  0
 12  7  1  0
 12  4  1  0
 13  2  1  0
 13 15  1  0
 14 13  2  0
 16 15  1  0
 16 17  1  1
 18 17  1  0
 18 19  2  0
 20 19  1  0
 21 20  1  0
 22 21  2  0
 23 22  1  0
 24 23  2  0
 24 25  1  0
 25 26  2  0
 26 21  1  0
 26 18  1  0
 27 28  2  0
 27 16  1  0
 29 30  1  0
 30 31  2  0
 30 32  1  0
 33 32  1  6
 33 34  1  0
 33 35  1  0
 34 27  1  0
 35 37  1  0
 36 35  2  0
M  END
$$$$
