DKW.pdb
     RDKit          3D

 32 33  0  0  1  0  0  0  0  0999 V2000
   28.3967  -25.1749  -17.2177 N   0  0  0  0  0  0  0  0  0  0  0  0
   27.2813  -24.3021  -17.0248 C   0  0  1  0  0  0  0  0  0  0  0  0
   26.0527  -25.0994  -16.6425 C   0  0  0  0  0  0  0  0  0  0  0  0
   25.5439  -25.9053  -17.7694 C   0  0  0  0  0  0  0  0  0  0  0  0
   24.8786  -26.9442  -17.6659 O   0  0  0  0  0  0  0  0  0  0  0  0
   27.5387  -23.3466  -15.8827 C   0  0  0  0  0  0  0  0  0  0  0  0
   27.8912  -23.8447  -14.7962 O   0  0  0  0  0  0  0  0  0  0  0  0
   25.8498  -25.4391  -19.0551 O   0  0  0  0  0  0  0  0  0  0  0  0
   27.3834  -21.9481  -16.0488 N   0  0  0  0  0  0  0  0  0  0  0  0
   27.5038  -20.9300  -15.0679 C   0  0  1  0  0  0  0  0  0  0  0  0
   27.4003  -19.5300  -15.6426 C   0  0  0  0  0  0  0  0  0  0  0  0
   27.5493  -18.4753  -14.6151 C   0  0  0  0  0  0  0  0  0  0  0  0
   27.5492  -17.1008  -15.1871 C   0  0  0  0  0  0  0  0  0  0  0  0
   26.4931  -16.7577  -16.1709 C   0  0  0  0  0  0  0  0  0  0  0  0
   26.5744  -15.3880  -16.5974 N   0  0  0  0  0  0  0  0  0  0  0  0
   26.7543  -21.1237  -13.8109 C   0  0  0  0  0  0  0  0  0  0  0  0
   25.5421  -21.4095  -13.8362 O   0  0  0  0  0  0  0  0  0  0  0  0
   27.3674  -20.9960  -12.5619 N   0  0  0  0  0  0  0  0  0  0  0  0
   26.6008  -21.1354  -11.3019 C   0  0  1  0  0  0  0  0  0  0  0  0
   27.5289  -21.0975  -10.1443 C   0  0  0  0  0  0  0  0  0  0  0  0
   26.9641  -20.7002   -8.8604 C   0  0  0  0  0  0  0  0  0  0  0  0
   25.6069  -20.6649   -8.5064 C   0  0  0  0  0  0  0  0  0  0  0  0
   25.4523  -20.2146   -7.2577 N   0  0  0  0  0  0  0  0  0  0  0  0
   26.6673  -19.9440   -6.7535 C   0  0  0  0  0  0  0  0  0  0  0  0
   27.0126  -19.4763   -5.5037 C   0  0  0  0  0  0  0  0  0  0  0  0
   28.3662  -19.2919   -5.2054 C   0  0  0  0  0  0  0  0  0  0  0  0
   29.3213  -19.5789   -6.1577 C   0  0  0  0  0  0  0  0  0  0  0  0
   28.9513  -20.0436   -7.3972 C   0  0  0  0  0  0  0  0  0  0  0  0
   27.6042  -20.2365   -7.7234 C   0  0  0  0  0  0  0  0  0  0  0  0
   25.5245  -20.1755  -11.2130 C   0  0  0  0  0  0  0  0  0  0  0  0
   25.6817  -18.9547  -11.5523 O   0  0  0  0  0  0  0  0  0  0  0  0
   24.2741  -20.5337  -10.7630 O   0  0  0  0  0  0  0  0  0  0  0  0
  2  1  1  1
  2  3  1  0
  3  4  1  0
  4  8  1  0
  5  4  2  0
  6  2  1  0
  7  6  2  0
  9  6  1  0
 10  9  1  0
 10 11  1  6
 11 12  1  0
 12 13  1  0
 13 14  1  0
 14 15  1  0
 16 18  1  0
 16 10  1  0
 17 16  2  0
 19 18  1  0
 19 20  1  1
 21 20  1  0
 21 29  1  0
 22 23  1  0
 22 21  2  0
 23 24  1  0
 24 25  1  0
 24 29  2  0
 25 26  2  0
 26 27  1  0
 28 27  2  0
 29 28  1  0
 30 19  1  0
 30 32  1  0
 31 30  2  0
M  END
$$$$
