DKW.pdb
     RDKit          3D

 32 33  0  0  1  0  0  0  0  0999 V2000
   24.5340  -17.6728  -20.7952 N   0  0  0  0  0  0  0  0  0  0  0  0
   23.5543  -17.6931  -19.7547 C   0  0  1  0  0  0  0  0  0  0  0  0
   22.1641  -17.7871  -20.3464 C   0  0  0  0  0  0  0  0  0  0  0  0
   21.8156  -16.5875  -21.1324 C   0  0  0  0  0  0  0  0  0  0  0  0
   21.1658  -16.5838  -22.1861 O   0  0  0  0  0  0  0  0  0  0  0  0
   23.7258  -18.9133  -18.8797 C   0  0  0  0  0  0  0  0  0  0  0  0
   22.7007  -19.5726  -18.6203 O   0  0  0  0  0  0  0  0  0  0  0  0
   22.2667  -15.3606  -20.6271 O   0  0  0  0  0  0  0  0  0  0  0  0
   24.9992  -19.2834  -18.3808 N   0  0  0  0  0  0  0  0  0  0  0  0
   25.3143  -20.3193  -17.4639 C   0  0  1  0  0  0  0  0  0  0  0  0
   26.7435  -20.8127  -17.5863 C   0  0  0  0  0  0  0  0  0  0  0  0
   27.0275  -21.9718  -16.7110 C   0  0  0  0  0  0  0  0  0  0  0  0
   28.4441  -22.4238  -16.7846 C   0  0  0  0  0  0  0  0  0  0  0  0
   28.8572  -23.5582  -15.9223 C   0  0  0  0  0  0  0  0  0  0  0  0
   30.2249  -23.9381  -16.1453 N   0  0  0  0  0  0  0  0  0  0  0  0
   24.8544  -20.1404  -16.0725 C   0  0  0  0  0  0  0  0  0  0  0  0
   25.3811  -19.2826  -15.3388 O   0  0  0  0  0  0  0  0  0  0  0  0
   23.8246  -20.9154  -15.5330 N   0  0  0  0  0  0  0  0  0  0  0  0
   23.3946  -20.7639  -14.1233 C   0  0  1  0  0  0  0  0  0  0  0  0
   21.9984  -20.2627  -14.0769 C   0  0  0  0  0  0  0  0  0  0  0  0
   21.3724  -20.1790  -12.7629 C   0  0  0  0  0  0  0  0  0  0  0  0
   21.7096  -19.3057  -11.7179 C   0  0  0  0  0  0  0  0  0  0  0  0
   20.9487  -19.5332  -10.6431 N   0  0  0  0  0  0  0  0  0  0  0  0
   20.1031  -20.5366  -10.9298 C   0  0  0  0  0  0  0  0  0  0  0  0
   19.1239  -21.1078  -10.1457 C   0  0  0  0  0  0  0  0  0  0  0  0
   18.3485  -22.1394  -10.6841 C   0  0  0  0  0  0  0  0  0  0  0  0
   18.5755  -22.5619  -11.9769 C   0  0  0  0  0  0  0  0  0  0  0  0
   19.5587  -21.9765  -12.7385 C   0  0  0  0  0  0  0  0  0  0  0  0
   20.3503  -20.9429  -12.2252 C   0  0  0  0  0  0  0  0  0  0  0  0
   23.6016  -21.9733  -13.3603 C   0  0  0  0  0  0  0  0  0  0  0  0
   23.5903  -23.1259  -13.9096 O   0  0  0  0  0  0  0  0  0  0  0  0
   23.8274  -21.9400  -12.0030 O   0  0  0  0  0  0  0  0  0  0  0  0
  2  1  1  6
  2  3  1  0
  3  4  1  0
  4  8  1  0
  5  4  2  0
  6  2  1  0
  7  6  2  0
  9  6  1  0
 10  9  1  0
 10 11  1  1
 11 12  1  0
 12 13  1  0
 13 14  1  0
 14 15  1  0
 16 18  1  0
 16 10  1  0
 17 16  2  0
 19 18  1  0
 19 20  1  6
 21 20  1  0
 21 29  1  0
 22 23  1  0
 22 21  2  0
 23 24  1  0
 24 25  1  0
 24 29  2  0
 25 26  2  0
 26 27  1  0
 28 27  2  0
 29 28  1  0
 30 19  1  0
 30 32  1  0
 31 30  2  0
M  END
$$$$
