DKW.pdb
     RDKit          3D

 32 33  0  0  1  0  0  0  0  0999 V2000
   19.7095   -5.2887  -14.9735 N   0  0  0  0  0  0  0  0  0  0  0  0
   20.7264   -6.1572  -15.4781 C   0  0  1  0  0  0  0  0  0  0  0  0
   21.5727   -6.6885  -14.3409 C   0  0  0  0  0  0  0  0  0  0  0  0
   22.3278   -5.6152  -13.6656 C   0  0  0  0  0  0  0  0  0  0  0  0
   22.8246   -4.6275  -14.2225 O   0  0  0  0  0  0  0  0  0  0  0  0
   20.1157   -7.3643  -16.1516 C   0  0  0  0  0  0  0  0  0  0  0  0
   19.5055   -8.1707  -15.4235 O   0  0  0  0  0  0  0  0  0  0  0  0
   22.4842   -5.7431  -12.2788 O   0  0  0  0  0  0  0  0  0  0  0  0
   20.2368   -7.5624  -17.5494 N   0  0  0  0  0  0  0  0  0  0  0  0
   19.7802   -8.6614  -18.3219 C   0  0  1  0  0  0  0  0  0  0  0  0
   19.8315   -8.4052  -19.8161 C   0  0  0  0  0  0  0  0  0  0  0  0
   18.4886   -8.3558  -20.4363 C   0  0  0  0  0  0  0  0  0  0  0  0
   18.5319   -8.0695  -21.8967 C   0  0  0  0  0  0  0  0  0  0  0  0
   17.2464   -8.0348  -22.6364 C   0  0  0  0  0  0  0  0  0  0  0  0
   16.4931   -9.2471  -22.4707 N   0  0  0  0  0  0  0  0  0  0  0  0
   20.2563  -10.0005  -17.9222 C   0  0  0  0  0  0  0  0  0  0  0  0
   21.4760  -10.2331  -17.8224 O   0  0  0  0  0  0  0  0  0  0  0  0
   19.3695  -11.0437  -17.6440 N   0  0  0  0  0  0  0  0  0  0  0  0
   19.8506  -12.4033  -17.3052 C   0  0  1  0  0  0  0  0  0  0  0  0
   19.1271  -12.9074  -16.1114 C   0  0  0  0  0  0  0  0  0  0  0  0
   19.4347  -14.2656  -15.6800 C   0  0  0  0  0  0  0  0  0  0  0  0
   20.3109  -14.6507  -14.6542 C   0  0  0  0  0  0  0  0  0  0  0  0
   20.3762  -15.9822  -14.5588 N   0  0  0  0  0  0  0  0  0  0  0  0
   19.5677  -16.5119  -15.4912 C   0  0  0  0  0  0  0  0  0  0  0  0
   19.2945  -17.8351  -15.7640 C   0  0  0  0  0  0  0  0  0  0  0  0
   18.3881  -18.1376  -16.7850 C   0  0  0  0  0  0  0  0  0  0  0  0
   17.7900  -17.1164  -17.4928 C   0  0  0  0  0  0  0  0  0  0  0  0
   18.0797  -15.8047  -17.2019 C   0  0  0  0  0  0  0  0  0  0  0  0
   18.9835  -15.4729  -16.1863 C   0  0  0  0  0  0  0  0  0  0  0  0
   19.7917  -13.2974  -18.4386 C   0  0  0  0  0  0  0  0  0  0  0  0
   18.7944  -13.3085  -19.2360 O   0  0  0  0  0  0  0  0  0  0  0  0
   20.8126  -14.1776  -18.7168 O   0  0  0  0  0  0  0  0  0  0  0  0
  2  1  1  1
  2  3  1  0
  3  4  1  0
  4  8  1  0
  5  4  2  0
  6  2  1  0
  7  6  2  0
  9  6  1  0
 10  9  1  0
 10 11  1  6
 11 12  1  0
 12 13  1  0
 13 14  1  0
 14 15  1  0
 16 18  1  0
 16 10  1  0
 17 16  2  0
 19 18  1  0
 19 20  1  1
 21 20  1  0
 21 29  1  0
 22 23  1  0
 22 21  2  0
 23 24  1  0
 24 25  1  0
 24 29  2  0
 25 26  2  0
 26 27  1  0
 28 27  2  0
 29 28  1  0
 30 19  1  0
 30 32  1  0
 31 30  2  0
M  END
$$$$
