DKW.pdb
     RDKit          3D

 32 33  0  0  1  0  0  0  0  0999 V2000
   21.0959  -21.0232  -13.8801 N   0  0  0  0  0  0  0  0  0  0  0  0
   21.6102  -20.3251  -12.7438 C   0  0  1  0  0  0  0  0  0  0  0  0
   20.7165  -20.5496  -11.5429 C   0  0  0  0  0  0  0  0  0  0  0  0
   19.3933  -19.9182  -11.7128 C   0  0  0  0  0  0  0  0  0  0  0  0
   19.0336  -19.2595  -12.6973 O   0  0  0  0  0  0  0  0  0  0  0  0
   22.9738  -20.8528  -12.3618 C   0  0  0  0  0  0  0  0  0  0  0  0
   23.0334  -21.5992  -11.3657 O   0  0  0  0  0  0  0  0  0  0  0  0
   18.4828  -20.0903  -10.6614 O   0  0  0  0  0  0  0  0  0  0  0  0
   24.1278  -20.5087  -13.1085 N   0  0  0  0  0  0  0  0  0  0  0  0
   25.4851  -20.7870  -12.8027 C   0  0  1  0  0  0  0  0  0  0  0  0
   26.4306  -20.4878  -13.9506 C   0  0  0  0  0  0  0  0  0  0  0  0
   26.9687  -21.7119  -14.5849 C   0  0  0  0  0  0  0  0  0  0  0  0
   26.0248  -22.3262  -15.5587 C   0  0  0  0  0  0  0  0  0  0  0  0
   26.4621  -23.5513  -16.2721 C   0  0  0  0  0  0  0  0  0  0  0  0
   27.1774  -24.4529  -15.4118 N   0  0  0  0  0  0  0  0  0  0  0  0
   25.9761  -20.3409  -11.4839 C   0  0  0  0  0  0  0  0  0  0  0  0
   25.4500  -19.3683  -10.9102 O   0  0  0  0  0  0  0  0  0  0  0  0
   27.0348  -20.9837  -10.8374 N   0  0  0  0  0  0  0  0  0  0  0  0
   27.7415  -20.3597   -9.6945 C   0  0  1  0  0  0  0  0  0  0  0  0
   26.8192  -20.2464   -8.5371 C   0  0  0  0  0  0  0  0  0  0  0  0
   27.3338  -19.5775   -7.3484 C   0  0  0  0  0  0  0  0  0  0  0  0
   27.2862  -18.2050   -7.0611 C   0  0  0  0  0  0  0  0  0  0  0  0
   27.8879  -17.9411   -5.8973 N   0  0  0  0  0  0  0  0  0  0  0  0
   28.3421  -19.0970   -5.3858 C   0  0  0  0  0  0  0  0  0  0  0  0
   29.0095  -19.3286   -4.2023 C   0  0  0  0  0  0  0  0  0  0  0  0
   29.3636  -20.6415   -3.8762 C   0  0  0  0  0  0  0  0  0  0  0  0
   29.0415  -21.6701   -4.7363 C   0  0  0  0  0  0  0  0  0  0  0  0
   28.3760  -21.4130   -5.9111 C   0  0  0  0  0  0  0  0  0  0  0  0
   28.0102  -20.1089   -6.2633 C   0  0  0  0  0  0  0  0  0  0  0  0
   28.9783  -21.0396   -9.3852 C   0  0  0  0  0  0  0  0  0  0  0  0
   29.1674  -22.2649   -9.6906 O   0  0  0  0  0  0  0  0  0  0  0  0
   30.0161  -20.3956   -8.7506 O   0  0  0  0  0  0  0  0  0  0  0  0
  2  1  1  6
  2  3  1  0
  3  4  1  0
  4  8  1  0
  5  4  2  0
  6  2  1  0
  7  6  2  0
  9  6  1  0
 10  9  1  0
 10 11  1  6
 11 12  1  0
 12 13  1  0
 13 14  1  0
 14 15  1  0
 16 18  1  0
 16 10  1  0
 17 16  2  0
 19 18  1  0
 19 20  1  1
 21 20  1  0
 21 29  1  0
 22 23  1  0
 22 21  2  0
 23 24  1  0
 24 25  1  0
 24 29  2  0
 25 26  2  0
 26 27  1  0
 28 27  2  0
 29 28  1  0
 30 19  1  0
 30 32  1  0
 31 30  2  0
M  END
$$$$
