DKW.pdb
     RDKit          3D

 32 33  0  0  1  0  0  0  0  0999 V2000
   30.2929  -21.6225  -17.2858 N   0  0  0  0  0  0  0  0  0  0  0  0
   29.2346  -22.3233  -16.6286 C   0  0  1  0  0  0  0  0  0  0  0  0
   29.7499  -23.6211  -16.0441 C   0  0  0  0  0  0  0  0  0  0  0  0
   29.9387  -24.6568  -17.0784 C   0  0  0  0  0  0  0  0  0  0  0  0
   29.7309  -24.5076  -18.2897 O   0  0  0  0  0  0  0  0  0  0  0  0
   28.6983  -21.5188  -15.4671 C   0  0  0  0  0  0  0  0  0  0  0  0
   29.5162  -21.1707  -14.5939 O   0  0  0  0  0  0  0  0  0  0  0  0
   30.3913  -25.9058  -16.6322 O   0  0  0  0  0  0  0  0  0  0  0  0
   27.3250  -21.1804  -15.3828 N   0  0  0  0  0  0  0  0  0  0  0  0
   26.6782  -20.3775  -14.4081 C   0  0  1  0  0  0  0  0  0  0  0  0
   25.6933  -19.3897  -15.0041 C   0  0  0  0  0  0  0  0  0  0  0  0
   25.0350  -18.5472  -13.9808 C   0  0  0  0  0  0  0  0  0  0  0  0
   25.1797  -17.0893  -14.2458 C   0  0  0  0  0  0  0  0  0  0  0  0
   24.5579  -16.1437  -13.2866 C   0  0  0  0  0  0  0  0  0  0  0  0
   24.8564  -14.7747  -13.6049 N   0  0  0  0  0  0  0  0  0  0  0  0
   26.1860  -21.0653  -13.1981 C   0  0  0  0  0  0  0  0  0  0  0  0
   25.3682  -22.0003  -13.2919 O   0  0  0  0  0  0  0  0  0  0  0  0
   26.6129  -20.6994  -11.9191 N   0  0  0  0  0  0  0  0  0  0  0  0
   26.2481  -21.4917  -10.7215 C   0  0  1  0  0  0  0  0  0  0  0  0
   27.3029  -21.3501   -9.6871 C   0  0  0  0  0  0  0  0  0  0  0  0
   27.0059  -20.4750   -8.5595 C   0  0  0  0  0  0  0  0  0  0  0  0
   25.8648  -19.6778   -8.3835 C   0  0  0  0  0  0  0  0  0  0  0  0
   25.9447  -18.9763   -7.2487 N   0  0  0  0  0  0  0  0  0  0  0  0
   27.1084  -19.2759   -6.6488 C   0  0  0  0  0  0  0  0  0  0  0  0
   27.6218  -18.8169   -5.4548 C   0  0  0  0  0  0  0  0  0  0  0  0
   28.8620  -19.3003   -5.0263 C   0  0  0  0  0  0  0  0  0  0  0  0
   29.5415  -20.2186   -5.7985 C   0  0  0  0  0  0  0  0  0  0  0  0
   29.0084  -20.6605   -6.9859 C   0  0  0  0  0  0  0  0  0  0  0  0
   27.7699  -20.1930   -7.4396 C   0  0  0  0  0  0  0  0  0  0  0  0
   24.9221  -21.1734  -10.2441 C   0  0  0  0  0  0  0  0  0  0  0  0
   24.3397  -20.0800  -10.5537 O   0  0  0  0  0  0  0  0  0  0  0  0
   24.2196  -22.0381   -9.4360 O   0  0  0  0  0  0  0  0  0  0  0  0
  2  1  1  1
  2  3  1  0
  3  4  1  0
  4  8  1  0
  5  4  2  0
  6  2  1  0
  7  6  2  0
  9  6  1  0
 10  9  1  0
 10 11  1  6
 11 12  1  0
 12 13  1  0
 13 14  1  0
 14 15  1  0
 16 18  1  0
 16 10  1  0
 17 16  2  0
 19 18  1  0
 19 20  1  1
 21 20  1  0
 21 29  1  0
 22 23  1  0
 22 21  2  0
 23 24  1  0
 24 25  1  0
 24 29  2  0
 25 26  2  0
 26 27  1  0
 28 27  2  0
 29 28  1  0
 30 19  1  0
 30 32  1  0
 31 30  2  0
M  END
$$$$
