DKW.pdb
     RDKit          3D

 32 33  0  0  1  0  0  0  0  0999 V2000
   28.4983  -19.5911  -15.5948 N   0  0  0  0  0  0  0  0  0  0  0  0
   28.0040  -18.5556  -14.7426 C   0  0  1  0  0  0  0  0  0  0  0  0
   27.4267  -17.4274  -15.5704 C   0  0  0  0  0  0  0  0  0  0  0  0
   26.9754  -17.8902  -16.8972 C   0  0  0  0  0  0  0  0  0  0  0  0
   25.8613  -17.6744  -17.3919 O   0  0  0  0  0  0  0  0  0  0  0  0
   26.8757  -19.0661  -13.8765 C   0  0  0  0  0  0  0  0  0  0  0  0
   26.2379  -18.2200  -13.2207 O   0  0  0  0  0  0  0  0  0  0  0  0
   27.8994  -18.6340  -17.6435 O   0  0  0  0  0  0  0  0  0  0  0  0
   26.5641  -20.4471  -13.8188 N   0  0  0  0  0  0  0  0  0  0  0  0
   25.7371  -21.1208  -12.8832 C   0  0  1  0  0  0  0  0  0  0  0  0
   25.1172  -22.3896  -13.4371 C   0  0  0  0  0  0  0  0  0  0  0  0
   23.6918  -22.5402  -13.0688 C   0  0  0  0  0  0  0  0  0  0  0  0
   23.0701  -23.7681  -13.6366 C   0  0  0  0  0  0  0  0  0  0  0  0
   22.5716  -23.7125  -15.0328 C   0  0  0  0  0  0  0  0  0  0  0  0
   21.9331  -24.9371  -15.4291 N   0  0  0  0  0  0  0  0  0  0  0  0
   26.2577  -21.2536  -11.5081 C   0  0  0  0  0  0  0  0  0  0  0  0
   27.1039  -22.1259  -11.2348 O   0  0  0  0  0  0  0  0  0  0  0  0
   25.8274  -20.4172  -10.4749 N   0  0  0  0  0  0  0  0  0  0  0  0
   26.2218  -20.6555   -9.0668 C   0  0  1  0  0  0  0  0  0  0  0  0
   27.3018  -19.7126   -8.6829 C   0  0  0  0  0  0  0  0  0  0  0  0
   28.2469  -20.1707   -7.6718 C   0  0  0  0  0  0  0  0  0  0  0  0
   29.1909  -21.2009   -7.7994 C   0  0  0  0  0  0  0  0  0  0  0  0
   29.8649  -21.3728   -6.6582 N   0  0  0  0  0  0  0  0  0  0  0  0
   29.4053  -20.4870   -5.7594 C   0  0  0  0  0  0  0  0  0  0  0  0
   29.8027  -20.2746   -4.4567 C   0  0  0  0  0  0  0  0  0  0  0  0
   29.1775  -19.2642   -3.7195 C   0  0  0  0  0  0  0  0  0  0  0  0
   28.1848  -18.5062   -4.3038 C   0  0  0  0  0  0  0  0  0  0  0  0
   27.8059  -18.7380   -5.6045 C   0  0  0  0  0  0  0  0  0  0  0  0
   28.4136  -19.7430   -6.3654 C   0  0  0  0  0  0  0  0  0  0  0  0
   25.0861  -20.6299   -8.1740 C   0  0  0  0  0  0  0  0  0  0  0  0
   24.0154  -19.9979   -8.4647 O   0  0  0  0  0  0  0  0  0  0  0  0
   25.1021  -21.2921   -6.9674 O   0  0  0  0  0  0  0  0  0  0  0  0
  2  1  1  6
  2  3  1  0
  3  4  1  0
  4  8  1  0
  5  4  2  0
  6  2  1  0
  7  6  2  0
  9  6  1  0
 10  9  1  0
 10 11  1  6
 11 12  1  0
 12 13  1  0
 13 14  1  0
 14 15  1  0
 16 18  1  0
 16 10  1  0
 17 16  2  0
 19 18  1  0
 19 20  1  1
 21 20  1  0
 21 29  1  0
 22 23  1  0
 22 21  2  0
 23 24  1  0
 24 25  1  0
 24 29  2  0
 25 26  2  0
 26 27  1  0
 28 27  2  0
 29 28  1  0
 30 19  1  0
 30 32  1  0
 31 30  2  0
M  END
$$$$
