DKW.pdb
     RDKit          3D

 32 33  0  0  1  0  0  0  0  0999 V2000
   19.3435  -21.8416  -13.2432 N   0  0  0  0  0  0  0  0  0  0  0  0
   20.3903  -20.8709  -13.3141 C   0  0  1  0  0  0  0  0  0  0  0  0
   19.9839  -19.6085  -12.5843 C   0  0  0  0  0  0  0  0  0  0  0  0
   19.3833  -18.6132  -13.4937 C   0  0  0  0  0  0  0  0  0  0  0  0
   19.2610  -18.7423  -14.7189 O   0  0  0  0  0  0  0  0  0  0  0  0
   21.6376  -21.3753  -12.6259 C   0  0  0  0  0  0  0  0  0  0  0  0
   21.5529  -21.6173  -11.4065 O   0  0  0  0  0  0  0  0  0  0  0  0
   18.9189  -17.4308  -12.9019 O   0  0  0  0  0  0  0  0  0  0  0  0
   22.8453  -21.5614  -13.3432 N   0  0  0  0  0  0  0  0  0  0  0  0
   24.0991  -22.0049  -12.8488 C   0  0  1  0  0  0  0  0  0  0  0  0
   24.9483  -22.6922  -13.9012 C   0  0  0  0  0  0  0  0  0  0  0  0
   25.9058  -21.7731  -14.5560 C   0  0  0  0  0  0  0  0  0  0  0  0
   26.8025  -22.4604  -15.5256 C   0  0  0  0  0  0  0  0  0  0  0  0
   27.8315  -21.6463  -16.2179 C   0  0  0  0  0  0  0  0  0  0  0  0
   28.5615  -22.4101  -17.1917 N   0  0  0  0  0  0  0  0  0  0  0  0
   24.8462  -21.0659  -11.9888 C   0  0  0  0  0  0  0  0  0  0  0  0
   25.0314  -19.8886  -12.3513 O   0  0  0  0  0  0  0  0  0  0  0  0
   25.3666  -21.4561  -10.7523 N   0  0  0  0  0  0  0  0  0  0  0  0
   26.3793  -20.6400  -10.0428 C   0  0  1  0  0  0  0  0  0  0  0  0
   26.5675  -21.1616   -8.6660 C   0  0  0  0  0  0  0  0  0  0  0  0
   27.1475  -20.2476   -7.6894 C   0  0  0  0  0  0  0  0  0  0  0  0
   27.0244  -18.8504   -7.6593 C   0  0  0  0  0  0  0  0  0  0  0  0
   27.7192  -18.3332   -6.6415 N   0  0  0  0  0  0  0  0  0  0  0  0
   28.3100  -19.3410   -5.9789 C   0  0  0  0  0  0  0  0  0  0  0  0
   29.1098  -19.3017   -4.8570 C   0  0  0  0  0  0  0  0  0  0  0  0
   29.5945  -20.5048   -4.3346 C   0  0  0  0  0  0  0  0  0  0  0  0
   29.2663  -21.6967   -4.9455 C   0  0  0  0  0  0  0  0  0  0  0  0
   28.4674  -21.7094   -6.0639 C   0  0  0  0  0  0  0  0  0  0  0  0
   27.9691  -20.5205   -6.6088 C   0  0  0  0  0  0  0  0  0  0  0  0
   27.6089  -20.5290  -10.7933 C   0  0  0  0  0  0  0  0  0  0  0  0
   28.0938  -19.3958  -11.1270 O   0  0  0  0  0  0  0  0  0  0  0  0
   28.3209  -21.6416  -11.1799 O   0  0  0  0  0  0  0  0  0  0  0  0
  2  1  1  1
  2  3  1  0
  3  4  1  0
  4  8  1  0
  5  4  2  0
  6  2  1  0
  7  6  2  0
  9  6  1  0
 10  9  1  0
 10 11  1  6
 11 12  1  0
 12 13  1  0
 13 14  1  0
 14 15  1  0
 16 18  1  0
 16 10  1  0
 17 16  2  0
 19 18  1  0
 19 20  1  1
 21 20  1  0
 21 29  1  0
 22 23  1  0
 22 21  2  0
 23 24  1  0
 24 25  1  0
 24 29  2  0
 25 26  2  0
 26 27  1  0
 28 27  2  0
 29 28  1  0
 30 19  1  0
 30 32  1  0
 31 30  2  0
M  END
$$$$
