DKW.pdb
     RDKit          3D

 32 33  0  0  1  0  0  0  0  0999 V2000
   24.9365   -8.7164  -23.7913 N   0  0  0  0  0  0  0  0  0  0  0  0
   24.4792   -9.5816  -22.7496 C   0  0  1  0  0  0  0  0  0  0  0  0
   25.6521  -10.2846  -22.1003 C   0  0  0  0  0  0  0  0  0  0  0  0
   26.2112  -11.3413  -22.9656 C   0  0  0  0  0  0  0  0  0  0  0  0
   27.4096  -11.4834  -23.2419 O   0  0  0  0  0  0  0  0  0  0  0  0
   23.7999   -8.7915  -21.6550 C   0  0  0  0  0  0  0  0  0  0  0  0
   24.5049   -7.9857  -21.0175 O   0  0  0  0  0  0  0  0  0  0  0  0
   25.2931  -12.2495  -23.5100 O   0  0  0  0  0  0  0  0  0  0  0  0
   22.4224   -8.9659  -21.3730 N   0  0  0  0  0  0  0  0  0  0  0  0
   21.6914   -8.4990  -20.2501 C   0  0  1  0  0  0  0  0  0  0  0  0
   20.2600   -9.0000  -20.2173 C   0  0  0  0  0  0  0  0  0  0  0  0
   19.4593   -8.3792  -19.1385 C   0  0  0  0  0  0  0  0  0  0  0  0
   18.6304   -7.2368  -19.6122 C   0  0  0  0  0  0  0  0  0  0  0  0
   17.7723   -6.5428  -18.6207 C   0  0  0  0  0  0  0  0  0  0  0  0
   18.5434   -5.9009  -17.5921 N   0  0  0  0  0  0  0  0  0  0  0  0
   22.3769   -8.5437  -18.9433 C   0  0  0  0  0  0  0  0  0  0  0  0
   22.8014   -9.6234  -18.4896 O   0  0  0  0  0  0  0  0  0  0  0  0
   22.5734   -7.3926  -18.1762 N   0  0  0  0  0  0  0  0  0  0  0  0
   23.3374   -7.4253  -16.9073 C   0  0  1  0  0  0  0  0  0  0  0  0
   24.6826   -6.8344  -17.1175 C   0  0  0  0  0  0  0  0  0  0  0  0
   25.8088   -7.7593  -17.1585 C   0  0  0  0  0  0  0  0  0  0  0  0
   27.0354   -7.5719  -17.8132 C   0  0  0  0  0  0  0  0  0  0  0  0
   27.8205   -8.6438  -17.6690 N   0  0  0  0  0  0  0  0  0  0  0  0
   27.1610   -9.5537  -16.9335 C   0  0  0  0  0  0  0  0  0  0  0  0
   27.5686  -10.8011  -16.5118 C   0  0  0  0  0  0  0  0  0  0  0  0
   26.6979  -11.5628  -15.7264 C   0  0  0  0  0  0  0  0  0  0  0  0
   25.4597  -11.0568  -15.3914 C   0  0  0  0  0  0  0  0  0  0  0  0
   25.0762   -9.8101  -15.8249 C   0  0  0  0  0  0  0  0  0  0  0  0
   25.9268   -9.0264  -16.6128 C   0  0  0  0  0  0  0  0  0  0  0  0
   22.6042   -6.8237  -15.8173 C   0  0  0  0  0  0  0  0  0  0  0  0
   21.8214   -5.8315  -15.9993 O   0  0  0  0  0  0  0  0  0  0  0  0
   22.7104   -7.2963  -14.5290 O   0  0  0  0  0  0  0  0  0  0  0  0
  2  1  1  6
  2  3  1  0
  3  4  1  0
  4  8  1  0
  5  4  2  0
  6  2  1  0
  7  6  2  0
  9  6  1  0
 10  9  1  0
 10 11  1  1
 11 12  1  0
 12 13  1  0
 13 14  1  0
 14 15  1  0
 16 18  1  0
 16 10  1  0
 17 16  2  0
 19 18  1  0
 19 20  1  6
 21 20  1  0
 21 29  1  0
 22 23  1  0
 22 21  2  0
 23 24  1  0
 24 25  1  0
 24 29  2  0
 25 26  2  0
 26 27  1  0
 28 27  2  0
 29 28  1  0
 30 19  1  0
 30 32  1  0
 31 30  2  0
M  END
$$$$
