DKW.pdb
     RDKit          3D

 32 33  0  0  1  0  0  0  0  0999 V2000
   21.5380  -18.0834  -20.6546 N   0  0  0  0  0  0  0  0  0  0  0  0
   22.7345  -17.8799  -19.8997 C   0  0  1  0  0  0  0  0  0  0  0  0
   22.5126  -16.8190  -18.8429 C   0  0  0  0  0  0  0  0  0  0  0  0
   22.3958  -15.4700  -19.4300 C   0  0  0  0  0  0  0  0  0  0  0  0
   23.0272  -15.0573  -20.4116 O   0  0  0  0  0  0  0  0  0  0  0  0
   23.1236  -19.1394  -19.1606 C   0  0  0  0  0  0  0  0  0  0  0  0
   22.2186  -19.7397  -18.5495 O   0  0  0  0  0  0  0  0  0  0  0  0
   21.4895  -14.5988  -18.8104 O   0  0  0  0  0  0  0  0  0  0  0  0
   24.4603  -19.6091  -19.1675 N   0  0  0  0  0  0  0  0  0  0  0  0
   25.0250  -20.6577  -18.3963 C   0  0  1  0  0  0  0  0  0  0  0  0
   26.2642  -21.2640  -19.0270 C   0  0  0  0  0  0  0  0  0  0  0  0
   26.7396  -22.4704  -18.3134 C   0  0  0  0  0  0  0  0  0  0  0  0
   27.9094  -23.1136  -18.9726 C   0  0  0  0  0  0  0  0  0  0  0  0
   28.4468  -24.3595  -18.3725 C   0  0  0  0  0  0  0  0  0  0  0  0
   29.5700  -24.8736  -19.1064 N   0  0  0  0  0  0  0  0  0  0  0  0
   25.1378  -20.4291  -16.9421 C   0  0  0  0  0  0  0  0  0  0  0  0
   25.8906  -19.5410  -16.4991 O   0  0  0  0  0  0  0  0  0  0  0  0
   24.4142  -21.1892  -16.0198 N   0  0  0  0  0  0  0  0  0  0  0  0
   24.5680  -20.9925  -14.5595 C   0  0  1  0  0  0  0  0  0  0  0  0
   23.2540  -20.6527  -13.9589 C   0  0  0  0  0  0  0  0  0  0  0  0
   23.1683  -20.6808  -12.5038 C   0  0  0  0  0  0  0  0  0  0  0  0
   24.0538  -20.0876  -11.5915 C   0  0  0  0  0  0  0  0  0  0  0  0
   23.6858  -20.3475  -10.3333 N   0  0  0  0  0  0  0  0  0  0  0  0
   22.5740  -21.1003  -10.3661 C   0  0  0  0  0  0  0  0  0  0  0  0
   21.8222  -21.5982   -9.3235 C   0  0  0  0  0  0  0  0  0  0  0  0
   20.6788  -22.3476   -9.6172 C   0  0  0  0  0  0  0  0  0  0  0  0
   20.3278  -22.5723  -10.9316 C   0  0  0  0  0  0  0  0  0  0  0  0
   21.0944  -22.0655  -11.9537 C   0  0  0  0  0  0  0  0  0  0  0  0
   22.2442  -21.3129  -11.6890 C   0  0  0  0  0  0  0  0  0  0  0  0
   25.2211  -22.1154  -13.9269 C   0  0  0  0  0  0  0  0  0  0  0  0
   24.9997  -23.3178  -14.2954 O   0  0  0  0  0  0  0  0  0  0  0  0
   26.1194  -21.9418  -12.8987 O   0  0  0  0  0  0  0  0  0  0  0  0
  2  1  1  1
  2  3  1  0
  3  4  1  0
  4  8  1  0
  5  4  2  0
  6  2  1  0
  7  6  2  0
  9  6  1  0
 10  9  1  0
 10 11  1  6
 11 12  1  0
 12 13  1  0
 13 14  1  0
 14 15  1  0
 16 18  1  0
 16 10  1  0
 17 16  2  0
 19 18  1  0
 19 20  1  1
 21 20  1  0
 21 29  1  0
 22 23  1  0
 22 21  2  0
 23 24  1  0
 24 25  1  0
 24 29  2  0
 25 26  2  0
 26 27  1  0
 28 27  2  0
 29 28  1  0
 30 19  1  0
 30 32  1  0
 31 30  2  0
M  END
$$$$
