DKW.pdb
     RDKit          3D

 32 33  0  0  1  0  0  0  0  0999 V2000
   23.1383  -19.5669  -16.6836 N   0  0  0  0  0  0  0  0  0  0  0  0
   24.1600  -18.8266  -16.0120 C   0  0  1  0  0  0  0  0  0  0  0  0
   24.1590  -17.3878  -16.4824 C   0  0  0  0  0  0  0  0  0  0  0  0
   24.5296  -17.2714  -17.9062 C   0  0  0  0  0  0  0  0  0  0  0  0
   23.9208  -17.7905  -18.8510 O   0  0  0  0  0  0  0  0  0  0  0  0
   23.9029  -18.7859  -14.5234 C   0  0  0  0  0  0  0  0  0  0  0  0
   23.9842  -17.6750  -13.9649 O   0  0  0  0  0  0  0  0  0  0  0  0
   25.6679  -16.5055  -18.1917 O   0  0  0  0  0  0  0  0  0  0  0  0
   23.5845  -19.9636  -13.8028 N   0  0  0  0  0  0  0  0  0  0  0  0
   23.3114  -20.0966  -12.4169 C   0  0  1  0  0  0  0  0  0  0  0  0
   21.9219  -20.6329  -12.1294 C   0  0  0  0  0  0  0  0  0  0  0  0
   21.4644  -21.6124  -13.1401 C   0  0  0  0  0  0  0  0  0  0  0  0
   20.1472  -22.2211  -12.8066 C   0  0  0  0  0  0  0  0  0  0  0  0
   19.6509  -23.3201  -13.6708 C   0  0  0  0  0  0  0  0  0  0  0  0
   18.4738  -23.9435  -13.1319 N   0  0  0  0  0  0  0  0  0  0  0  0
   24.3734  -20.6930  -11.5826 C   0  0  0  0  0  0  0  0  0  0  0  0
   24.9590  -21.7288  -11.9513 O   0  0  0  0  0  0  0  0  0  0  0  0
   24.7573  -20.1262  -10.3646 N   0  0  0  0  0  0  0  0  0  0  0  0
   25.7357  -20.7905   -9.4723 C   0  0  1  0  0  0  0  0  0  0  0  0
   26.8422  -19.8532   -9.1564 C   0  0  0  0  0  0  0  0  0  0  0  0
   27.9119  -20.3603   -8.3055 C   0  0  0  0  0  0  0  0  0  0  0  0
   28.8564  -21.3461   -8.6289 C   0  0  0  0  0  0  0  0  0  0  0  0
   29.6663  -21.5873   -7.5935 N   0  0  0  0  0  0  0  0  0  0  0  0
   29.2982  -20.7917   -6.5759 C   0  0  0  0  0  0  0  0  0  0  0  0
   29.8442  -20.6719   -5.3160 C   0  0  0  0  0  0  0  0  0  0  0  0
   29.2897  -19.7445   -4.4285 C   0  0  0  0  0  0  0  0  0  0  0  0
   28.2174  -18.9743   -4.8264 C   0  0  0  0  0  0  0  0  0  0  0  0
   27.6903  -19.1130   -6.0882 C   0  0  0  0  0  0  0  0  0  0  0  0
   28.2246  -20.0337   -6.9967 C   0  0  0  0  0  0  0  0  0  0  0  0
   25.1049  -21.3574   -8.3025 C   0  0  0  0  0  0  0  0  0  0  0  0
   25.7019  -22.2094   -7.5621 O   0  0  0  0  0  0  0  0  0  0  0  0
   23.8299  -21.0006   -7.9263 O   0  0  0  0  0  0  0  0  0  0  0  0
  2  1  1  6
  2  3  1  0
  3  4  1  0
  4  8  1  0
  5  4  2  0
  6  2  1  0
  7  6  2  0
  9  6  1  0
 10  9  1  0
 10 11  1  6
 11 12  1  0
 12 13  1  0
 13 14  1  0
 14 15  1  0
 16 18  1  0
 16 10  1  0
 17 16  2  0
 19 18  1  0
 19 20  1  1
 21 20  1  0
 21 29  1  0
 22 23  1  0
 22 21  2  0
 23 24  1  0
 24 25  1  0
 24 29  2  0
 25 26  2  0
 26 27  1  0
 28 27  2  0
 29 28  1  0
 30 19  1  0
 30 32  1  0
 31 30  2  0
M  END
$$$$
