DKW.pdb
     RDKit          3D

 32 33  0  0  1  0  0  0  0  0999 V2000
   24.4590  -18.3599  -16.7908 N   0  0  0  0  0  0  0  0  0  0  0  0
   25.3514  -19.2097  -16.0667 C   0  0  1  0  0  0  0  0  0  0  0  0
   26.7612  -18.6616  -16.1278 C   0  0  0  0  0  0  0  0  0  0  0  0
   27.3547  -18.8112  -17.4708 C   0  0  0  0  0  0  0  0  0  0  0  0
   26.7799  -19.2820  -18.4610 O   0  0  0  0  0  0  0  0  0  0  0  0
   24.9783  -19.2571  -14.6030 C   0  0  0  0  0  0  0  0  0  0  0  0
   25.2933  -18.2732  -13.9062 O   0  0  0  0  0  0  0  0  0  0  0  0
   28.6796  -18.3783  -17.6167 O   0  0  0  0  0  0  0  0  0  0  0  0
   24.3008  -20.3747  -14.0559 N   0  0  0  0  0  0  0  0  0  0  0  0
   23.9302  -20.6001  -12.7049 C   0  0  1  0  0  0  0  0  0  0  0  0
   22.6425  -21.3890  -12.5612 C   0  0  0  0  0  0  0  0  0  0  0  0
   21.5117  -20.5603  -12.0868 C   0  0  0  0  0  0  0  0  0  0  0  0
   20.8022  -19.8567  -13.1905 C   0  0  0  0  0  0  0  0  0  0  0  0
   19.7077  -18.9227  -12.8288 C   0  0  0  0  0  0  0  0  0  0  0  0
   19.1832  -18.2330  -13.9749 N   0  0  0  0  0  0  0  0  0  0  0  0
   25.0022  -21.0206  -11.7811 C   0  0  0  0  0  0  0  0  0  0  0  0
   25.6561  -22.0574  -12.0028 O   0  0  0  0  0  0  0  0  0  0  0  0
   25.3203  -20.2818  -10.6388 N   0  0  0  0  0  0  0  0  0  0  0  0
   26.2179  -20.8199   -9.5901 C   0  0  1  0  0  0  0  0  0  0  0  0
   27.2014  -19.7821   -9.1920 C   0  0  0  0  0  0  0  0  0  0  0  0
   28.2096  -20.1716   -8.2135 C   0  0  0  0  0  0  0  0  0  0  0  0
   29.1296  -21.2256   -8.3188 C   0  0  0  0  0  0  0  0  0  0  0  0
   29.8801  -21.3142   -7.2164 N   0  0  0  0  0  0  0  0  0  0  0  0
   29.4956  -20.3485   -6.3658 C   0  0  0  0  0  0  0  0  0  0  0  0
   29.9861  -20.0358   -5.1162 C   0  0  0  0  0  0  0  0  0  0  0  0
   29.4267  -18.9565   -4.4253 C   0  0  0  0  0  0  0  0  0  0  0  0
   28.4047  -18.2318   -5.0014 C   0  0  0  0  0  0  0  0  0  0  0  0
   27.9325  -18.5641   -6.2487 C   0  0  0  0  0  0  0  0  0  0  0  0
   28.4729  -19.6398   -6.9624 C   0  0  0  0  0  0  0  0  0  0  0  0
   25.4809  -21.3762   -8.4788 C   0  0  0  0  0  0  0  0  0  0  0  0
   24.3632  -20.8882   -8.1006 O   0  0  0  0  0  0  0  0  0  0  0  0
   25.9467  -22.4649   -7.7771 O   0  0  0  0  0  0  0  0  0  0  0  0
  2  1  1  6
  2  3  1  0
  3  4  1  0
  4  8  1  0
  5  4  2  0
  6  2  1  0
  7  6  2  0
  9  6  1  0
 10  9  1  0
 10 11  1  6
 11 12  1  0
 12 13  1  0
 13 14  1  0
 14 15  1  0
 16 18  1  0
 16 10  1  0
 17 16  2  0
 19 18  1  0
 19 20  1  1
 21 20  1  0
 21 29  1  0
 22 23  1  0
 22 21  2  0
 23 24  1  0
 24 25  1  0
 24 29  2  0
 25 26  2  0
 26 27  1  0
 28 27  2  0
 29 28  1  0
 30 19  1  0
 30 32  1  0
 31 30  2  0
M  END
$$$$
