DKW.pdb
     RDKit          3D

 32 33  0  0  1  0  0  0  0  0999 V2000
   27.9122  -20.4337  -16.8626 N   0  0  0  0  0  0  0  0  0  0  0  0
   27.5157  -21.4457  -15.9344 C   0  0  1  0  0  0  0  0  0  0  0  0
   28.7329  -22.1614  -15.3888 C   0  0  0  0  0  0  0  0  0  0  0  0
   29.3939  -22.9896  -16.4161 C   0  0  0  0  0  0  0  0  0  0  0  0
   29.0903  -23.0227  -17.6158 O   0  0  0  0  0  0  0  0  0  0  0  0
   26.8133  -20.8361  -14.7433 C   0  0  0  0  0  0  0  0  0  0  0  0
   27.3963  -19.9027  -14.1588 O   0  0  0  0  0  0  0  0  0  0  0  0
   30.4507  -23.7987  -15.9770 O   0  0  0  0  0  0  0  0  0  0  0  0
   25.5484  -21.3114  -14.3170 N   0  0  0  0  0  0  0  0  0  0  0  0
   24.7510  -20.8391  -13.2426 C   0  0  1  0  0  0  0  0  0  0  0  0
   23.2655  -20.8506  -13.5497 C   0  0  0  0  0  0  0  0  0  0  0  0
   22.9241  -20.0740  -14.7625 C   0  0  0  0  0  0  0  0  0  0  0  0
   22.6749  -18.6336  -14.4806 C   0  0  0  0  0  0  0  0  0  0  0  0
   22.3188  -17.7539  -15.6209 C   0  0  0  0  0  0  0  0  0  0  0  0
   22.2175  -16.3749  -15.2302 N   0  0  0  0  0  0  0  0  0  0  0  0
   25.0925  -21.3306  -11.8931 C   0  0  0  0  0  0  0  0  0  0  0  0
   24.9530  -22.5346  -11.6056 O   0  0  0  0  0  0  0  0  0  0  0  0
   25.5788  -20.4761  -10.9004 N   0  0  0  0  0  0  0  0  0  0  0  0
   25.7679  -20.9346   -9.5044 C   0  0  1  0  0  0  0  0  0  0  0  0
   26.8839  -20.1834   -8.8774 C   0  0  0  0  0  0  0  0  0  0  0  0
   27.1060  -20.4015   -7.4532 C   0  0  0  0  0  0  0  0  0  0  0  0
   26.5213  -21.3889   -6.6460 C   0  0  0  0  0  0  0  0  0  0  0  0
   26.9274  -21.2695   -5.3784 N   0  0  0  0  0  0  0  0  0  0  0  0
   27.7727  -20.2286   -5.3027 C   0  0  0  0  0  0  0  0  0  0  0  0
   28.4559  -19.7326   -4.2131 C   0  0  0  0  0  0  0  0  0  0  0  0
   29.3057  -18.6371   -4.3943 C   0  0  0  0  0  0  0  0  0  0  0  0
   29.4434  -18.0788   -5.6477 C   0  0  0  0  0  0  0  0  0  0  0  0
   28.7506  -18.5914   -6.7184 C   0  0  0  0  0  0  0  0  0  0  0  0
   27.8926  -19.6864   -6.5659 C   0  0  0  0  0  0  0  0  0  0  0  0
   24.5388  -20.8858   -8.7464 C   0  0  0  0  0  0  0  0  0  0  0  0
   23.6245  -20.0316   -9.0010 O   0  0  0  0  0  0  0  0  0  0  0  0
   24.2919  -21.7636   -7.7154 O   0  0  0  0  0  0  0  0  0  0  0  0
  2  1  1  6
  2  3  1  0
  3  4  1  0
  4  8  1  0
  5  4  2  0
  6  2  1  0
  7  6  2  0
  9  6  1  0
 10  9  1  0
 10 11  1  6
 11 12  1  0
 12 13  1  0
 13 14  1  0
 14 15  1  0
 16 18  1  0
 16 10  1  0
 17 16  2  0
 19 18  1  0
 19 20  1  1
 21 20  1  0
 21 29  1  0
 22 23  1  0
 22 21  2  0
 23 24  1  0
 24 25  1  0
 24 29  2  0
 25 26  2  0
 26 27  1  0
 28 27  2  0
 29 28  1  0
 30 19  1  0
 30 32  1  0
 31 30  2  0
M  END
$$$$
