DKW.pdb
     RDKit          3D

 32 33  0  0  1  0  0  0  0  0999 V2000
   19.3989  -21.2171  -12.7887 N   0  0  0  0  0  0  0  0  0  0  0  0
   20.4079  -20.2177  -12.9505 C   0  0  1  0  0  0  0  0  0  0  0  0
   20.2049  -19.1018  -11.9478 C   0  0  0  0  0  0  0  0  0  0  0  0
   19.0375  -18.2632  -12.2829 C   0  0  0  0  0  0  0  0  0  0  0  0
   18.6020  -18.0624  -13.4242 O   0  0  0  0  0  0  0  0  0  0  0  0
   21.7792  -20.7900  -12.6756 C   0  0  0  0  0  0  0  0  0  0  0  0
   21.9403  -21.3767  -11.5881 O   0  0  0  0  0  0  0  0  0  0  0  0
   18.3812  -17.6524  -11.2057 O   0  0  0  0  0  0  0  0  0  0  0  0
   22.8292  -20.6604  -13.6181 N   0  0  0  0  0  0  0  0  0  0  0  0
   24.1888  -21.0393  -13.4735 C   0  0  1  0  0  0  0  0  0  0  0  0
   24.9383  -21.0941  -14.7912 C   0  0  0  0  0  0  0  0  0  0  0  0
   26.3136  -21.6216  -14.6477 C   0  0  0  0  0  0  0  0  0  0  0  0
   26.5604  -22.8361  -15.4727 C   0  0  0  0  0  0  0  0  0  0  0  0
   27.9123  -23.4454  -15.4251 C   0  0  0  0  0  0  0  0  0  0  0  0
   28.0321  -24.5678  -16.3142 N   0  0  0  0  0  0  0  0  0  0  0  0
   24.9442  -20.4048  -12.3751 C   0  0  0  0  0  0  0  0  0  0  0  0
   25.0153  -19.1640  -12.2921 O   0  0  0  0  0  0  0  0  0  0  0  0
   25.5990  -21.1613  -11.3999 N   0  0  0  0  0  0  0  0  0  0  0  0
   26.6313  -20.5674  -10.5187 C   0  0  1  0  0  0  0  0  0  0  0  0
   26.1339  -20.5281   -9.1208 C   0  0  0  0  0  0  0  0  0  0  0  0
   26.9349  -19.7822   -8.1578 C   0  0  0  0  0  0  0  0  0  0  0  0
   27.2256  -18.4098   -8.1801 C   0  0  0  0  0  0  0  0  0  0  0  0
   28.0194  -18.0748   -7.1585 N   0  0  0  0  0  0  0  0  0  0  0  0
   28.2751  -19.1819   -6.4424 C   0  0  0  0  0  0  0  0  0  0  0  0
   29.0272  -19.3297   -5.2968 C   0  0  0  0  0  0  0  0  0  0  0  0
   29.1273  -20.5984   -4.7175 C   0  0  0  0  0  0  0  0  0  0  0  0
   28.4778  -21.6677   -5.2973 C   0  0  0  0  0  0  0  0  0  0  0  0
   27.7343  -21.4945   -6.4402 C   0  0  0  0  0  0  0  0  0  0  0  0
   27.6175  -20.2365   -7.0420 C   0  0  0  0  0  0  0  0  0  0  0  0
   27.9094  -21.2259  -10.6605 C   0  0  0  0  0  0  0  0  0  0  0  0
   27.9995  -22.4808  -10.8788 O   0  0  0  0  0  0  0  0  0  0  0  0
   29.0933  -20.5294  -10.5728 O   0  0  0  0  0  0  0  0  0  0  0  0
  2  1  1  1
  2  3  1  0
  3  4  1  0
  4  8  1  0
  5  4  2  0
  6  2  1  0
  7  6  2  0
  9  6  1  0
 10  9  1  0
 10 11  1  6
 11 12  1  0
 12 13  1  0
 13 14  1  0
 14 15  1  0
 16 18  1  0
 16 10  1  0
 17 16  2  0
 19 18  1  0
 19 20  1  1
 21 20  1  0
 21 29  1  0
 22 23  1  0
 22 21  2  0
 23 24  1  0
 24 25  1  0
 24 29  2  0
 25 26  2  0
 26 27  1  0
 28 27  2  0
 29 28  1  0
 30 19  1  0
 30 32  1  0
 31 30  2  0
M  END
$$$$
