DKW.pdb
     RDKit          3D

 32 33  0  0  1  0  0  0  0  0999 V2000
   19.5388  -22.6083  -13.9289 N   0  0  0  0  0  0  0  0  0  0  0  0
   20.3643  -21.4432  -13.8653 C   0  0  1  0  0  0  0  0  0  0  0  0
   19.8635  -20.5051  -12.7879 C   0  0  0  0  0  0  0  0  0  0  0  0
   18.7138  -19.7009  -13.2459 C   0  0  0  0  0  0  0  0  0  0  0  0
   18.7821  -18.6959  -13.9656 O   0  0  0  0  0  0  0  0  0  0  0  0
   21.7802  -21.8088  -13.4841 C   0  0  0  0  0  0  0  0  0  0  0  0
   21.9229  -22.6422  -12.5688 O   0  0  0  0  0  0  0  0  0  0  0  0
   17.4483  -20.1267  -12.8201 O   0  0  0  0  0  0  0  0  0  0  0  0
   22.8900  -21.2245  -14.1433 N   0  0  0  0  0  0  0  0  0  0  0  0
   24.2660  -21.3468  -13.8194 C   0  0  1  0  0  0  0  0  0  0  0  0
   25.1775  -21.2322  -15.0265 C   0  0  0  0  0  0  0  0  0  0  0  0
   26.6009  -21.4656  -14.6950 C   0  0  0  0  0  0  0  0  0  0  0  0
   27.4846  -21.4702  -15.8931 C   0  0  0  0  0  0  0  0  0  0  0  0
   28.9154  -21.8116  -15.6999 C   0  0  0  0  0  0  0  0  0  0  0  0
   29.6731  -21.6769  -16.9133 N   0  0  0  0  0  0  0  0  0  0  0  0
   24.7395  -20.6069  -12.6328 C   0  0  0  0  0  0  0  0  0  0  0  0
   24.6278  -19.3676  -12.5754 O   0  0  0  0  0  0  0  0  0  0  0  0
   25.3227  -21.2594  -11.5436 N   0  0  0  0  0  0  0  0  0  0  0  0
   25.8653  -20.5087  -10.3874 C   0  0  1  0  0  0  0  0  0  0  0  0
   26.2295  -21.4542   -9.3029 C   0  0  0  0  0  0  0  0  0  0  0  0
   26.7263  -20.8726   -8.0618 C   0  0  0  0  0  0  0  0  0  0  0  0
   26.0046  -20.0989   -7.1403 C   0  0  0  0  0  0  0  0  0  0  0  0
   26.7895  -19.7020   -6.1340 N   0  0  0  0  0  0  0  0  0  0  0  0
   28.0243  -20.1858   -6.3463 C   0  0  0  0  0  0  0  0  0  0  0  0
   29.1603  -20.0555   -5.5766 C   0  0  0  0  0  0  0  0  0  0  0  0
   30.3370  -20.6781   -6.0043 C   0  0  0  0  0  0  0  0  0  0  0  0
   30.3391  -21.4042   -7.1766 C   0  0  0  0  0  0  0  0  0  0  0  0
   29.1931  -21.5187   -7.9269 C   0  0  0  0  0  0  0  0  0  0  0  0
   28.0017  -20.9054   -7.5235 C   0  0  0  0  0  0  0  0  0  0  0  0
   26.9422  -19.6253  -10.7716 C   0  0  0  0  0  0  0  0  0  0  0  0
   27.7908  -19.9492  -11.6691 O   0  0  0  0  0  0  0  0  0  0  0  0
   27.1015  -18.3875  -10.1914 O   0  0  0  0  0  0  0  0  0  0  0  0
  2  1  1  1
  2  3  1  0
  3  4  1  0
  4  8  1  0
  5  4  2  0
  6  2  1  0
  7  6  2  0
  9  6  1  0
 10  9  1  0
 10 11  1  6
 11 12  1  0
 12 13  1  0
 13 14  1  0
 14 15  1  0
 16 18  1  0
 16 10  1  0
 17 16  2  0
 19 18  1  0
 19 20  1  1
 21 20  1  0
 21 29  1  0
 22 23  1  0
 22 21  2  0
 23 24  1  0
 24 25  1  0
 24 29  2  0
 25 26  2  0
 26 27  1  0
 28 27  2  0
 29 28  1  0
 30 19  1  0
 30 32  1  0
 31 30  2  0
M  END
$$$$
