QAE.pdb
     RDKit          3D

 24 23  0  0  1  0  0  0  0  0999 V2000
    8.2963  -18.6404   16.4605 N   0  0  0  0  0  0  0  0  0  0  0  0
    7.9539  -18.5527   15.0918 C   0  0  0  0  0  0  0  0  0  0  0  0
    7.3168  -19.4888   14.5656 O   0  0  0  0  0  0  0  0  0  0  0  0
    8.3433  -17.3799   14.3084 C   0  0  0  0  0  0  0  0  0  0  0  0
    9.0329  -16.2973   15.0578 C   0  0  0  0  0  0  0  0  0  0  0  0
    8.1322  -15.2601   15.6837 C   0  0  2  0  0  0  0  0  0  0  0  0
    8.1612  -14.1132   14.7587 N   0  0  0  0  0  0  0  0  0  0  0  0
    8.6768  -14.7857   16.9812 C   0  0  0  0  0  0  0  0  0  0  0  0
    9.8551  -15.1202   17.2881 O   0  0  0  0  0  0  0  0  0  0  0  0
    7.4964  -12.7408   19.9770 C   0  0  0  0  0  0  0  0  0  0  0  0
    8.4243  -13.6506   19.2036 C   0  0  2  0  0  0  0  0  0  0  0  0
    7.9577  -13.9797   17.8969 N   0  0  0  0  0  0  0  0  0  0  0  0
    8.7338  -14.8553   20.0248 C   0  0  0  0  0  0  0  0  0  0  0  0
    8.0968  -15.9181   19.9560 O   0  0  0  0  0  0  0  0  0  0  0  0
    9.8222  -14.7699   20.9341 N   0  0  0  0  0  0  0  0  0  0  0  0
   10.2164  -15.8494   21.8289 C   0  0  1  0  0  0  0  0  0  0  0  0
   11.6915  -15.7254   22.0826 C   0  0  0  0  0  0  0  0  0  0  0  0
   12.4501  -16.0376   20.8319 C   0  0  0  0  0  0  0  0  0  0  0  0
   13.9094  -15.9888   21.0348 C   0  0  0  0  0  0  0  0  0  0  0  0
   14.5318  -14.9834   21.4469 O   0  0  0  0  0  0  0  0  0  0  0  0
    9.5141  -15.7253   23.1437 C   0  0  0  0  0  0  0  0  0  0  0  0
    9.5975  -16.7047   24.1151 O   0  0  0  0  0  0  0  0  0  0  0  0
   14.6648  -17.1469   20.7487 O   0  0  0  0  0  0  0  0  0  0  0  0
    8.8243  -14.7042   23.3837 O   0  0  0  0  0  0  0  0  0  0  0  0
  2  1  1  0
  3  2  2  0
  4  2  1  0
  5  4  1  0
  6  7  1  6
  6  5  1  0
  6  8  1  0
  8  9  2  0
 11 10  1  1
 11 13  1  0
 12  8  1  0
 12 11  1  0
 13 15  1  0
 13 14  2  0
 15 16  1  0
 16 21  1  0
 16 17  1  1
 18 17  1  0
 19 18  1  0
 20 19  2  0
 21 22  1  0
 23 19  1  0
 24 21  2  0
M  END
$$$$
