QAE.pdb
     RDKit          3D

 24 23  0  0  1  0  0  0  0  0999 V2000
    8.7925  -17.2287   16.1097 N   0  0  0  0  0  0  0  0  0  0  0  0
    9.0113  -15.8850   15.7290 C   0  0  0  0  0  0  0  0  0  0  0  0
    9.5143  -15.6463   14.6113 O   0  0  0  0  0  0  0  0  0  0  0  0
    8.6518  -14.7943   16.6357 C   0  0  0  0  0  0  0  0  0  0  0  0
    7.8685  -15.1803   17.8384 C   0  0  0  0  0  0  0  0  0  0  0  0
    7.3762  -14.0365   18.6919 C   0  0  2  0  0  0  0  0  0  0  0  0
    7.7620  -12.8153   17.9626 N   0  0  0  0  0  0  0  0  0  0  0  0
    8.0766  -14.0005   20.0008 C   0  0  0  0  0  0  0  0  0  0  0  0
    9.3141  -13.7493   20.0050 O   0  0  0  0  0  0  0  0  0  0  0  0
    7.2404  -14.3882   23.6977 C   0  0  0  0  0  0  0  0  0  0  0  0
    8.1419  -14.3466   22.4841 C   0  0  2  0  0  0  0  0  0  0  0  0
    7.4433  -14.2292   21.2466 N   0  0  0  0  0  0  0  0  0  0  0  0
    9.0669  -15.5149   22.5147 C   0  0  0  0  0  0  0  0  0  0  0  0
    8.8497  -16.5811   21.9180 O   0  0  0  0  0  0  0  0  0  0  0  0
   10.2616  -15.3886   23.2731 N   0  0  0  0  0  0  0  0  0  0  0  0
   11.2725  -16.4325   23.3715 C   0  0  1  0  0  0  0  0  0  0  0  0
   12.6145  -15.8018   23.1327 C   0  0  0  0  0  0  0  0  0  0  0  0
   13.6847  -16.8447   23.1967 C   0  0  0  0  0  0  0  0  0  0  0  0
   15.0306  -16.2796   22.9914 C   0  0  0  0  0  0  0  0  0  0  0  0
   15.9935  -16.4466   23.7742 O   0  0  0  0  0  0  0  0  0  0  0  0
   11.2837  -17.0258   24.7445 C   0  0  0  0  0  0  0  0  0  0  0  0
   10.5379  -16.4940   25.7793 O   0  0  0  0  0  0  0  0  0  0  0  0
   15.2600  -15.4967   21.8389 O   0  0  0  0  0  0  0  0  0  0  0  0
   11.9886  -18.0384   24.9762 O   0  0  0  0  0  0  0  0  0  0  0  0
  2  1  1  0
  3  2  2  0
  4  2  1  0
  5  4  1  0
  6  7  1  6
  6  5  1  0
  6  8  1  0
  8  9  2  0
 11 10  1  1
 11 13  1  0
 12  8  1  0
 12 11  1  0
 13 15  1  0
 13 14  2  0
 15 16  1  0
 16 21  1  0
 16 17  1  1
 18 17  1  0
 19 18  1  0
 20 19  2  0
 21 22  1  0
 23 19  1  0
 24 21  2  0
M  END
$$$$
