QAE.pdb
     RDKit          3D

 24 23  0  0  1  0  0  0  0  0999 V2000
    5.0435  -18.4808   15.9416 N   0  0  0  0  0  0  0  0  0  0  0  0
    6.1256  -19.3904   15.9460 C   0  0  0  0  0  0  0  0  0  0  0  0
    6.0805  -20.3890   15.1978 O   0  0  0  0  0  0  0  0  0  0  0  0
    7.2786  -19.1597   16.8167 C   0  0  0  0  0  0  0  0  0  0  0  0
    7.1615  -18.0187   17.7619 C   0  0  0  0  0  0  0  0  0  0  0  0
    7.5796  -16.6741   17.2176 C   0  0  2  0  0  0  0  0  0  0  0  0
    8.5572  -16.9732   16.1560 N   0  0  0  0  0  0  0  0  0  0  0  0
    8.2881  -15.8724   18.2474 C   0  0  0  0  0  0  0  0  0  0  0  0
    9.3588  -16.3377   18.7287 O   0  0  0  0  0  0  0  0  0  0  0  0
    7.6912  -12.6590   20.2136 C   0  0  0  0  0  0  0  0  0  0  0  0
    8.3786  -13.9613   19.8692 C   0  0  2  0  0  0  0  0  0  0  0  0
    7.8390  -14.6167   18.7235 N   0  0  0  0  0  0  0  0  0  0  0  0
    8.4082  -14.8387   21.0738 C   0  0  0  0  0  0  0  0  0  0  0  0
    7.3946  -15.3365   21.5883 O   0  0  0  0  0  0  0  0  0  0  0  0
    9.6744  -15.1134   21.6568 N   0  0  0  0  0  0  0  0  0  0  0  0
    9.8601  -15.9577   22.8291 C   0  0  1  0  0  0  0  0  0  0  0  0
    9.5400  -17.3717   22.4369 C   0  0  0  0  0  0  0  0  0  0  0  0
   10.4470  -17.8100   21.3314 C   0  0  0  0  0  0  0  0  0  0  0  0
   10.2134  -19.2112   20.9373 C   0  0  0  0  0  0  0  0  0  0  0  0
   10.6550  -19.7327   19.8881 O   0  0  0  0  0  0  0  0  0  0  0  0
   11.2847  -15.9202   23.2835 C   0  0  0  0  0  0  0  0  0  0  0  0
   12.2751  -15.3048   22.5419 O   0  0  0  0  0  0  0  0  0  0  0  0
    9.4420  -20.0280   21.7926 O   0  0  0  0  0  0  0  0  0  0  0  0
   11.6025  -16.4614   24.3708 O   0  0  0  0  0  0  0  0  0  0  0  0
  2  1  1  0
  3  2  2  0
  4  2  1  0
  5  4  1  0
  6  7  1  6
  6  5  1  0
  6  8  1  0
  8  9  2  0
 11 10  1  1
 11 13  1  0
 12  8  1  0
 12 11  1  0
 13 15  1  0
 13 14  2  0
 15 16  1  0
 16 21  1  0
 16 17  1  6
 18 17  1  0
 19 18  1  0
 20 19  2  0
 21 22  1  0
 23 19  1  0
 24 21  2  0
M  END
$$$$
