QAE.pdb
     RDKit          3D

 24 23  0  0  1  0  0  0  0  0999 V2000
    8.4156  -12.6621   15.4532 N   0  0  0  0  0  0  0  0  0  0  0  0
    8.0494  -13.9814   15.1012 C   0  0  0  0  0  0  0  0  0  0  0  0
    7.6675  -14.2134   13.9353 O   0  0  0  0  0  0  0  0  0  0  0  0
    8.1186  -15.0548   16.0931 C   0  0  0  0  0  0  0  0  0  0  0  0
    8.5909  -14.6603   17.4460 C   0  0  0  0  0  0  0  0  0  0  0  0
    8.6277  -15.7661   18.4730 C   0  0  2  0  0  0  0  0  0  0  0  0
    7.2501  -16.2866   18.5310 N   0  0  0  0  0  0  0  0  0  0  0  0
    8.9496  -15.2375   19.8229 C   0  0  0  0  0  0  0  0  0  0  0  0
   10.1314  -14.8507   20.0424 O   0  0  0  0  0  0  0  0  0  0  0  0
    7.1779  -14.1830   22.9935 C   0  0  0  0  0  0  0  0  0  0  0  0
    8.3486  -14.7234   22.2031 C   0  0  2  0  0  0  0  0  0  0  0  0
    8.0133  -15.1384   20.8807 N   0  0  0  0  0  0  0  0  0  0  0  0
    9.0237  -15.7949   22.9892 C   0  0  0  0  0  0  0  0  0  0  0  0
    8.5705  -16.9427   23.1198 O   0  0  0  0  0  0  0  0  0  0  0  0
   10.2551  -15.4717   23.6198 N   0  0  0  0  0  0  0  0  0  0  0  0
   11.1934  -16.4662   24.1215 C   0  0  1  0  0  0  0  0  0  0  0  0
   12.5844  -15.9719   23.8447 C   0  0  0  0  0  0  0  0  0  0  0  0
   13.5848  -16.9766   24.3209 C   0  0  0  0  0  0  0  0  0  0  0  0
   14.9700  -16.5770   24.0135 C   0  0  0  0  0  0  0  0  0  0  0  0
   15.3012  -15.4465   23.5892 O   0  0  0  0  0  0  0  0  0  0  0  0
   11.0502  -16.6243   25.6020 C   0  0  0  0  0  0  0  0  0  0  0  0
   11.5786  -17.7073   26.2784 O   0  0  0  0  0  0  0  0  0  0  0  0
   15.9992  -17.5242   24.2069 O   0  0  0  0  0  0  0  0  0  0  0  0
   10.4328  -15.7524   26.2613 O   0  0  0  0  0  0  0  0  0  0  0  0
  2  1  1  0
  3  2  2  0
  4  2  1  0
  5  4  1  0
  6  7  1  1
  6  5  1  0
  6  8  1  0
  8  9  2  0
 11 10  1  1
 11 13  1  0
 12  8  1  0
 12 11  1  0
 13 15  1  0
 13 14  2  0
 15 16  1  0
 16 21  1  0
 16 17  1  1
 18 17  1  0
 19 18  1  0
 20 19  2  0
 21 22  1  0
 23 19  1  0
 24 21  2  0
M  END
$$$$
