QAE.pdb
     RDKit          3D

 24 23  0  0  1  0  0  0  0  0999 V2000
    6.3813  -18.0401   17.9283 N   0  0  0  0  0  0  0  0  0  0  0  0
    6.1820  -18.3311   16.5594 C   0  0  0  0  0  0  0  0  0  0  0  0
    5.1599  -18.9611   16.2166 O   0  0  0  0  0  0  0  0  0  0  0  0
    7.1626  -17.8981   15.5636 C   0  0  0  0  0  0  0  0  0  0  0  0
    8.2765  -17.0555   16.0719 C   0  0  0  0  0  0  0  0  0  0  0  0
    7.9387  -15.6047   16.3168 C   0  0  2  0  0  0  0  0  0  0  0  0
    8.5733  -14.8671   15.2099 N   0  0  0  0  0  0  0  0  0  0  0  0
    8.5541  -15.1131   17.5757 C   0  0  0  0  0  0  0  0  0  0  0  0
    9.7847  -15.3290   17.7585 O   0  0  0  0  0  0  0  0  0  0  0  0
    7.4947  -13.1972   20.6985 C   0  0  0  0  0  0  0  0  0  0  0  0
    8.4267  -14.0024   19.8209 C   0  0  2  0  0  0  0  0  0  0  0  0
    7.8474  -14.4152   18.5851 N   0  0  0  0  0  0  0  0  0  0  0  0
    8.9834  -15.1414   20.6048 C   0  0  0  0  0  0  0  0  0  0  0  0
    8.4698  -16.2706   20.6385 O   0  0  0  0  0  0  0  0  0  0  0  0
   10.1695  -14.9088   21.3515 N   0  0  0  0  0  0  0  0  0  0  0  0
   10.8525  -15.9352   22.1271 C   0  0  1  0  0  0  0  0  0  0  0  0
   12.2894  -15.5242   22.2756 C   0  0  0  0  0  0  0  0  0  0  0  0
   13.0419  -16.5720   23.0324 C   0  0  0  0  0  0  0  0  0  0  0  0
   14.4777  -16.2579   23.1468 C   0  0  0  0  0  0  0  0  0  0  0  0
   15.0966  -15.4915   22.3740 O   0  0  0  0  0  0  0  0  0  0  0  0
   10.2621  -16.0383   23.4976 C   0  0  0  0  0  0  0  0  0  0  0  0
   10.4408  -17.1556   24.2909 O   0  0  0  0  0  0  0  0  0  0  0  0
   15.2129  -16.8556   24.1936 O   0  0  0  0  0  0  0  0  0  0  0  0
    9.5812  -15.0865   23.9521 O   0  0  0  0  0  0  0  0  0  0  0  0
  2  1  1  0
  3  2  2  0
  4  2  1  0
  5  4  1  0
  6  7  1  6
  6  5  1  0
  6  8  1  0
  8  9  2  0
 11 10  1  1
 11 13  1  0
 12  8  1  0
 12 11  1  0
 13 15  1  0
 13 14  2  0
 15 16  1  0
 16 21  1  0
 16 17  1  1
 18 17  1  0
 19 18  1  0
 20 19  2  0
 21 22  1  0
 23 19  1  0
 24 21  2  0
M  END
$$$$
