QAE.pdb
     RDKit          3D

 24 23  0  0  1  0  0  0  0  0999 V2000
    8.4950  -12.9819   17.6173 N   0  0  0  0  0  0  0  0  0  0  0  0
    8.0696  -14.0443   16.7874 C   0  0  0  0  0  0  0  0  0  0  0  0
    7.8629  -13.8214   15.5764 O   0  0  0  0  0  0  0  0  0  0  0  0
    7.8757  -15.3829   17.3452 C   0  0  0  0  0  0  0  0  0  0  0  0
    9.0729  -16.2638   17.3524 C   0  0  0  0  0  0  0  0  0  0  0  0
    9.4667  -16.8197   18.6995 C   0  0  2  0  0  0  0  0  0  0  0  0
    8.4158  -17.7960   19.0378 N   0  0  0  0  0  0  0  0  0  0  0  0
    9.4355  -15.7673   19.7468 C   0  0  0  0  0  0  0  0  0  0  0  0
   10.4650  -15.0525   19.9007 O   0  0  0  0  0  0  0  0  0  0  0  0
    6.9033  -14.0222   21.9397 C   0  0  0  0  0  0  0  0  0  0  0  0
    8.2943  -14.4970   21.5839 C   0  0  2  0  0  0  0  0  0  0  0  0
    8.3221  -15.5135   20.5842 N   0  0  0  0  0  0  0  0  0  0  0  0
    9.0153  -14.8921   22.8271 C   0  0  0  0  0  0  0  0  0  0  0  0
    9.0983  -14.1713   23.8339 O   0  0  0  0  0  0  0  0  0  0  0  0
    9.6386  -16.1687   22.8488 N   0  0  0  0  0  0  0  0  0  0  0  0
   10.3480  -16.7040   24.0027 C   0  0  1  0  0  0  0  0  0  0  0  0
    9.9989  -18.1594   24.1269 C   0  0  0  0  0  0  0  0  0  0  0  0
   10.5461  -18.9147   22.9576 C   0  0  0  0  0  0  0  0  0  0  0  0
   10.0513  -20.3023   22.9056 C   0  0  0  0  0  0  0  0  0  0  0  0
   10.3976  -21.2057   23.7004 O   0  0  0  0  0  0  0  0  0  0  0  0
   11.8271  -16.6036   23.8034 C   0  0  0  0  0  0  0  0  0  0  0  0
   12.3813  -16.2606   22.5849 O   0  0  0  0  0  0  0  0  0  0  0  0
    9.1251  -20.6460   21.8968 O   0  0  0  0  0  0  0  0  0  0  0  0
   12.5990  -16.8361   24.7658 O   0  0  0  0  0  0  0  0  0  0  0  0
  2  1  1  0
  3  2  2  0
  4  2  1  0
  5  4  1  0
  6  7  1  1
  6  5  1  0
  6  8  1  0
  8  9  2  0
 11 10  1  1
 11 13  1  0
 12  8  1  0
 12 11  1  0
 13 15  1  0
 13 14  2  0
 15 16  1  0
 16 21  1  0
 16 17  1  6
 18 17  1  0
 19 18  1  0
 20 19  2  0
 21 22  1  0
 23 19  1  0
 24 21  2  0
M  END
$$$$
