QAE.pdb
     RDKit          3D

 24 23  0  0  1  0  0  0  0  0999 V2000
    7.2550  -19.1379   17.0417 N   0  0  0  0  0  0  0  0  0  0  0  0
    7.8687  -18.6762   15.8549 C   0  0  0  0  0  0  0  0  0  0  0  0
    8.0297  -19.4726   14.9068 O   0  0  0  0  0  0  0  0  0  0  0  0
    8.3070  -17.2846   15.7452 C   0  0  0  0  0  0  0  0  0  0  0  0
    7.2273  -16.2637   15.7112 C   0  0  0  0  0  0  0  0  0  0  0  0
    7.6876  -14.8293   15.6139 C   0  0  2  0  0  0  0  0  0  0  0  0
    8.6303  -14.8011   14.4814 N   0  0  0  0  0  0  0  0  0  0  0  0
    8.4486  -14.4243   16.8230 C   0  0  0  0  0  0  0  0  0  0  0  0
    9.6769  -14.7126   16.8753 O   0  0  0  0  0  0  0  0  0  0  0  0
    7.7844  -12.6491   20.1334 C   0  0  0  0  0  0  0  0  0  0  0  0
    8.6073  -13.3866   19.1009 C   0  0  2  0  0  0  0  0  0  0  0  0
    7.8835  -13.7330   17.9221 N   0  0  0  0  0  0  0  0  0  0  0  0
    9.2642  -14.5622   19.7396 C   0  0  0  0  0  0  0  0  0  0  0  0
    8.8251  -15.7206   19.6663 O   0  0  0  0  0  0  0  0  0  0  0  0
   10.4601  -14.3309   20.4709 N   0  0  0  0  0  0  0  0  0  0  0  0
   11.2044  -15.3775   21.1579 C   0  0  1  0  0  0  0  0  0  0  0  0
   12.6469  -14.9623   21.2096 C   0  0  0  0  0  0  0  0  0  0  0  0
   13.4630  -16.0396   21.8503 C   0  0  0  0  0  0  0  0  0  0  0  0
   14.8931  -15.6899   21.9244 C   0  0  0  0  0  0  0  0  0  0  0  0
   15.3424  -14.5266   21.8124 O   0  0  0  0  0  0  0  0  0  0  0  0
   10.7212  -15.5288   22.5654 C   0  0  0  0  0  0  0  0  0  0  0  0
   11.0359  -16.6332   23.3341 O   0  0  0  0  0  0  0  0  0  0  0  0
   15.8267  -16.7280   22.1354 O   0  0  0  0  0  0  0  0  0  0  0  0
   10.0069  -14.6310   23.0751 O   0  0  0  0  0  0  0  0  0  0  0  0
  2  1  1  0
  3  2  2  0
  4  2  1  0
  5  4  1  0
  6  7  1  6
  6  5  1  0
  6  8  1  0
  8  9  2  0
 11 10  1  1
 11 13  1  0
 12  8  1  0
 12 11  1  0
 13 15  1  0
 13 14  2  0
 15 16  1  0
 16 21  1  0
 16 17  1  1
 18 17  1  0
 19 18  1  0
 20 19  2  0
 21 22  1  0
 23 19  1  0
 24 21  2  0
M  END
$$$$
