QAE.pdb
     RDKit          3D

 24 23  0  0  1  0  0  0  0  0999 V2000
    7.5307  -15.6032   14.7051 N   0  0  0  0  0  0  0  0  0  0  0  0
    8.7778  -15.1649   15.2061 C   0  0  0  0  0  0  0  0  0  0  0  0
    9.7353  -15.9658   15.2326 O   0  0  0  0  0  0  0  0  0  0  0  0
    8.9378  -13.7918   15.6855 C   0  0  0  0  0  0  0  0  0  0  0  0
    9.0361  -13.6250   17.1591 C   0  0  0  0  0  0  0  0  0  0  0  0
    7.8184  -14.0445   17.9465 C   0  0  2  0  0  0  0  0  0  0  0  0
    6.9198  -12.8767   17.9214 N   0  0  0  0  0  0  0  0  0  0  0  0
    8.1584  -14.3006   19.3692 C   0  0  0  0  0  0  0  0  0  0  0  0
    9.1372  -13.6772   19.8670 O   0  0  0  0  0  0  0  0  0  0  0  0
    6.8075  -16.2336   22.3472 C   0  0  0  0  0  0  0  0  0  0  0  0
    7.8827  -15.5763   21.5110 C   0  0  2  0  0  0  0  0  0  0  0  0
    7.4525  -15.2001   20.2046 N   0  0  0  0  0  0  0  0  0  0  0  0
    9.0937  -16.4451   21.4906 C   0  0  0  0  0  0  0  0  0  0  0  0
    9.2853  -17.3399   20.6524 O   0  0  0  0  0  0  0  0  0  0  0  0
   10.0771  -16.2268   22.4925 N   0  0  0  0  0  0  0  0  0  0  0  0
   11.3184  -16.9828   22.5871 C   0  0  1  0  0  0  0  0  0  0  0  0
   12.3209  -16.1374   23.3193 C   0  0  0  0  0  0  0  0  0  0  0  0
   13.6009  -16.8938   23.4822 C   0  0  0  0  0  0  0  0  0  0  0  0
   14.7843  -16.0567   23.2142 C   0  0  0  0  0  0  0  0  0  0  0  0
   14.7367  -14.8421   22.9138 O   0  0  0  0  0  0  0  0  0  0  0  0
   11.1121  -18.2356   23.3776 C   0  0  0  0  0  0  0  0  0  0  0  0
   10.1036  -18.3536   24.3150 O   0  0  0  0  0  0  0  0  0  0  0  0
   16.0608  -16.6542   23.2993 O   0  0  0  0  0  0  0  0  0  0  0  0
   11.8724  -19.2173   23.1926 O   0  0  0  0  0  0  0  0  0  0  0  0
  2  1  1  0
  3  2  2  0
  4  2  1  0
  5  4  1  0
  6  7  1  1
  6  5  1  0
  6  8  1  0
  8  9  2  0
 11 10  1  6
 11 13  1  0
 12  8  1  0
 12 11  1  0
 13 15  1  0
 13 14  2  0
 15 16  1  0
 16 21  1  0
 16 17  1  1
 18 17  1  0
 19 18  1  0
 20 19  2  0
 21 22  1  0
 23 19  1  0
 24 21  2  0
M  END
$$$$
