QAE.pdb
     RDKit          3D

 24 23  0  0  1  0  0  0  0  0999 V2000
    7.7474  -12.2876   19.8802 N   0  0  0  0  0  0  0  0  0  0  0  0
    7.2206  -12.6451   18.6181 C   0  0  0  0  0  0  0  0  0  0  0  0
    6.1230  -12.1676   18.2625 O   0  0  0  0  0  0  0  0  0  0  0  0
    7.9551  -13.5617   17.7458 C   0  0  0  0  0  0  0  0  0  0  0  0
    9.2669  -14.0364   18.2588 C   0  0  0  0  0  0  0  0  0  0  0  0
   10.0709  -14.8885   17.3068 C   0  0  2  0  0  0  0  0  0  0  0  0
    9.2298  -16.0687   17.0388 N   0  0  0  0  0  0  0  0  0  0  0  0
   11.3183  -15.3798   17.9453 C   0  0  0  0  0  0  0  0  0  0  0  0
   11.2123  -16.1734   18.9218 O   0  0  0  0  0  0  0  0  0  0  0  0
   15.0307  -15.4583   17.2588 C   0  0  0  0  0  0  0  0  0  0  0  0
   13.8157  -15.4696   18.1592 C   0  0  2  0  0  0  0  0  0  0  0  0
   12.6211  -15.0151   17.5270 N   0  0  0  0  0  0  0  0  0  0  0  0
   14.1226  -14.7249   19.4134 C   0  0  0  0  0  0  0  0  0  0  0  0
   14.0776  -13.4885   19.5089 O   0  0  0  0  0  0  0  0  0  0  0  0
   14.4857  -15.4848   20.5577 N   0  0  0  0  0  0  0  0  0  0  0  0
   14.9059  -14.8951   21.8214 C   0  0  1  0  0  0  0  0  0  0  0  0
   14.6803  -15.9109   22.9044 C   0  0  0  0  0  0  0  0  0  0  0  0
   13.2133  -16.1211   23.1062 C   0  0  0  0  0  0  0  0  0  0  0  0
   12.9279  -17.0600   24.2062 C   0  0  0  0  0  0  0  0  0  0  0  0
   13.4015  -16.9597   25.3609 O   0  0  0  0  0  0  0  0  0  0  0  0
   16.3667  -14.5745   21.7920 C   0  0  0  0  0  0  0  0  0  0  0  0
   16.9709  -13.8154   22.7761 O   0  0  0  0  0  0  0  0  0  0  0  0
   12.0647  -18.1480   23.9515 O   0  0  0  0  0  0  0  0  0  0  0  0
   17.0760  -15.0027   20.8489 O   0  0  0  0  0  0  0  0  0  0  0  0
  2  1  1  0
  3  2  2  0
  4  2  1  0
  5  4  1  0
  6  7  1  1
  6  5  1  0
  6  8  1  0
  8  9  2  0
 11 10  1  6
 11 13  1  0
 12  8  1  0
 12 11  1  0
 13 15  1  0
 13 14  2  0
 15 16  1  0
 16 21  1  0
 16 17  1  1
 18 17  1  0
 19 18  1  0
 20 19  2  0
 21 22  1  0
 23 19  1  0
 24 21  2  0
M  END
$$$$
