QAE.pdb
     RDKit          3D

 24 23  0  0  1  0  0  0  0  0999 V2000
    9.5091  -19.5706   19.1429 N   0  0  0  0  0  0  0  0  0  0  0  0
   10.4740  -18.8284   18.4242 C   0  0  0  0  0  0  0  0  0  0  0  0
   11.6720  -19.1752   18.4831 O   0  0  0  0  0  0  0  0  0  0  0  0
   10.0686  -17.6718   17.6250 C   0  0  0  0  0  0  0  0  0  0  0  0
    8.6115  -17.3802   17.5960 C   0  0  0  0  0  0  0  0  0  0  0  0
    8.2095  -16.1349   16.8432 C   0  0  2  0  0  0  0  0  0  0  0  0
    8.9678  -16.1842   15.5804 N   0  0  0  0  0  0  0  0  0  0  0  0
    8.6403  -14.9085   17.5611 C   0  0  0  0  0  0  0  0  0  0  0  0
    9.8144  -14.4873   17.3647 O   0  0  0  0  0  0  0  0  0  0  0  0
    7.1204  -12.2379   19.8017 C   0  0  0  0  0  0  0  0  0  0  0  0
    8.2466  -13.0249   19.1699 C   0  0  2  0  0  0  0  0  0  0  0  0
    7.8160  -14.1796   18.4525 N   0  0  0  0  0  0  0  0  0  0  0  0
    9.2719  -13.3393   20.2051 C   0  0  0  0  0  0  0  0  0  0  0  0
    9.8280  -12.4801   20.9070 O   0  0  0  0  0  0  0  0  0  0  0  0
    9.6241  -14.7033   20.3895 N   0  0  0  0  0  0  0  0  0  0  0  0
   10.4940  -15.1778   21.4569 C   0  0  1  0  0  0  0  0  0  0  0  0
   10.0610  -16.5685   21.8236 C   0  0  0  0  0  0  0  0  0  0  0  0
   10.9176  -17.0915   22.9325 C   0  0  0  0  0  0  0  0  0  0  0  0
   10.5436  -18.4605   23.3313 C   0  0  0  0  0  0  0  0  0  0  0  0
   10.1442  -19.3429   22.5378 O   0  0  0  0  0  0  0  0  0  0  0  0
   11.9121  -15.2492   20.9868 C   0  0  0  0  0  0  0  0  0  0  0  0
   12.9670  -15.4247   21.8620 O   0  0  0  0  0  0  0  0  0  0  0  0
   10.6385  -18.8104   24.6960 O   0  0  0  0  0  0  0  0  0  0  0  0
   12.1643  -15.1478   19.7611 O   0  0  0  0  0  0  0  0  0  0  0  0
  2  1  1  0
  3  2  2  0
  4  2  1  0
  5  4  1  0
  6  7  1  6
  6  5  1  0
  6  8  1  0
  8  9  2  0
 11 10  1  1
 11 13  1  0
 12  8  1  0
 12 11  1  0
 13 15  1  0
 13 14  2  0
 15 16  1  0
 16 21  1  0
 16 17  1  6
 18 17  1  0
 19 18  1  0
 20 19  2  0
 21 22  1  0
 23 19  1  0
 24 21  2  0
M  END
$$$$
