QAE.pdb
     RDKit          3D

 24 23  0  0  1  0  0  0  0  0999 V2000
    8.3708  -20.0530   20.7783 N   0  0  0  0  0  0  0  0  0  0  0  0
    7.4479  -20.5473   19.8285 C   0  0  0  0  0  0  0  0  0  0  0  0
    6.7139  -21.5082   20.1403 O   0  0  0  0  0  0  0  0  0  0  0  0
    7.3587  -19.9381   18.5012 C   0  0  0  0  0  0  0  0  0  0  0  0
    8.2953  -18.8145   18.2375 C   0  0  0  0  0  0  0  0  0  0  0  0
    7.7653  -17.4357   18.5488 C   0  0  2  0  0  0  0  0  0  0  0  0
    7.9331  -16.6660   17.3033 N   0  0  0  0  0  0  0  0  0  0  0  0
    8.5864  -16.7647   19.5884 C   0  0  0  0  0  0  0  0  0  0  0  0
    9.8375  -16.7252   19.4222 O   0  0  0  0  0  0  0  0  0  0  0  0
    8.0251  -14.7246   22.7554 C   0  0  0  0  0  0  0  0  0  0  0  0
    8.8396  -15.4666   21.7195 C   0  0  2  0  0  0  0  0  0  0  0  0
    8.0542  -16.1644   20.7553 N   0  0  0  0  0  0  0  0  0  0  0  0
    9.8268  -16.3481   22.4049 C   0  0  0  0  0  0  0  0  0  0  0  0
    9.6159  -17.5416   22.6714 O   0  0  0  0  0  0  0  0  0  0  0  0
   11.0765  -15.7784   22.7686 N   0  0  0  0  0  0  0  0  0  0  0  0
   12.1823  -16.5425   23.3295 C   0  0  1  0  0  0  0  0  0  0  0  0
   13.3792  -15.6383   23.4044 C   0  0  0  0  0  0  0  0  0  0  0  0
   14.5696  -16.4094   23.8792 C   0  0  0  0  0  0  0  0  0  0  0  0
   15.8073  -16.0140   23.1830 C   0  0  0  0  0  0  0  0  0  0  0  0
   16.1608  -14.8285   22.9896 O   0  0  0  0  0  0  0  0  0  0  0  0
   11.8599  -16.9908   24.7196 C   0  0  0  0  0  0  0  0  0  0  0  0
   12.4583  -18.0980   25.2904 O   0  0  0  0  0  0  0  0  0  0  0  0
   16.6577  -17.0317   22.6982 O   0  0  0  0  0  0  0  0  0  0  0  0
   11.0211  -16.3494   25.3985 O   0  0  0  0  0  0  0  0  0  0  0  0
  2  1  1  0
  3  2  2  0
  4  2  1  0
  5  4  1  0
  6  7  1  6
  6  5  1  0
  6  8  1  0
  8  9  2  0
 11 10  1  1
 11 13  1  0
 12  8  1  0
 12 11  1  0
 13 15  1  0
 13 14  2  0
 15 16  1  0
 16 21  1  0
 16 17  1  1
 18 17  1  0
 19 18  1  0
 20 19  2  0
 21 22  1  0
 23 19  1  0
 24 21  2  0
M  END
$$$$
