QAE.pdb
     RDKit          3D

 24 23  0  0  1  0  0  0  0  0999 V2000
    9.6533  -14.6618   14.9951 N   0  0  0  0  0  0  0  0  0  0  0  0
    8.3545  -14.2284   15.3469 C   0  0  0  0  0  0  0  0  0  0  0  0
    7.5657  -13.8827   14.4429 O   0  0  0  0  0  0  0  0  0  0  0  0
    7.9466  -14.1875   16.7515 C   0  0  0  0  0  0  0  0  0  0  0  0
    8.9486  -14.6771   17.7340 C   0  0  0  0  0  0  0  0  0  0  0  0
    8.4182  -15.6041   18.8009 C   0  0  2  0  0  0  0  0  0  0  0  0
    6.9509  -15.5257   18.6874 N   0  0  0  0  0  0  0  0  0  0  0  0
    8.7754  -15.1225   20.1595 C   0  0  0  0  0  0  0  0  0  0  0  0
    9.9999  -15.0239   20.4513 O   0  0  0  0  0  0  0  0  0  0  0  0
    7.0711  -13.7137   23.2462 C   0  0  0  0  0  0  0  0  0  0  0  0
    8.1697  -14.4297   22.4927 C   0  0  2  0  0  0  0  0  0  0  0  0
    7.8281  -14.7651   21.1495 N   0  0  0  0  0  0  0  0  0  0  0  0
    8.6242  -15.6089   23.2829 C   0  0  0  0  0  0  0  0  0  0  0  0
    7.9488  -16.6390   23.4334 O   0  0  0  0  0  0  0  0  0  0  0  0
    9.9051  -15.5377   23.8935 N   0  0  0  0  0  0  0  0  0  0  0  0
   10.5040  -16.6296   24.6487 C   0  0  1  0  0  0  0  0  0  0  0  0
   11.9951  -16.4529   24.6150 C   0  0  0  0  0  0  0  0  0  0  0  0
   12.4858  -16.5449   23.2051 C   0  0  0  0  0  0  0  0  0  0  0  0
   13.9466  -16.3723   23.1080 C   0  0  0  0  0  0  0  0  0  0  0  0
   14.6958  -16.1337   24.0824 O   0  0  0  0  0  0  0  0  0  0  0  0
   10.0696  -16.5796   26.0792 C   0  0  0  0  0  0  0  0  0  0  0  0
   10.3070  -17.6222   26.9546 O   0  0  0  0  0  0  0  0  0  0  0  0
   14.5511  -16.4811   21.8366 O   0  0  0  0  0  0  0  0  0  0  0  0
    9.4699  -15.5641   26.5094 O   0  0  0  0  0  0  0  0  0  0  0  0
  2  1  1  0
  3  2  2  0
  4  2  1  0
  5  4  1  0
  6  7  1  1
  6  5  1  0
  6  8  1  0
  8  9  2  0
 11 10  1  1
 11 13  1  0
 12  8  1  0
 12 11  1  0
 13 15  1  0
 13 14  2  0
 15 16  1  0
 16 21  1  0
 16 17  1  1
 18 17  1  0
 19 18  1  0
 20 19  2  0
 21 22  1  0
 23 19  1  0
 24 21  2  0
M  END
$$$$
