QAE.pdb
     RDKit          3D

 24 23  0  0  1  0  0  0  0  0999 V2000
    6.7785  -13.3023   16.8722 N   0  0  0  0  0  0  0  0  0  0  0  0
    7.7458  -14.2463   16.4582 C   0  0  0  0  0  0  0  0  0  0  0  0
    7.6204  -14.7926   15.3425 O   0  0  0  0  0  0  0  0  0  0  0  0
    8.8750  -14.5745   17.3289 C   0  0  0  0  0  0  0  0  0  0  0  0
    8.9599  -15.9888   17.7781 C   0  0  0  0  0  0  0  0  0  0  0  0
    8.1532  -16.3334   19.0066 C   0  0  2  0  0  0  0  0  0  0  0  0
    6.8175  -15.7587   18.7665 N   0  0  0  0  0  0  0  0  0  0  0  0
    8.7015  -15.6679   20.2156 C   0  0  0  0  0  0  0  0  0  0  0  0
    9.9555  -15.5584   20.3155 O   0  0  0  0  0  0  0  0  0  0  0  0
    7.4187  -13.9760   23.3782 C   0  0  0  0  0  0  0  0  0  0  0  0
    8.4311  -14.6866   22.5080 C   0  0  2  0  0  0  0  0  0  0  0  0
    7.9058  -15.1465   21.2646 N   0  0  0  0  0  0  0  0  0  0  0  0
    9.0840  -15.7717   23.2939 C   0  0  0  0  0  0  0  0  0  0  0  0
    8.5527  -16.8688   23.5267 O   0  0  0  0  0  0  0  0  0  0  0  0
   10.3884  -15.5244   23.7998 N   0  0  0  0  0  0  0  0  0  0  0  0
   11.2640  -16.5633   24.3245 C   0  0  1  0  0  0  0  0  0  0  0  0
   12.6834  -16.1513   24.0575 C   0  0  0  0  0  0  0  0  0  0  0  0
   13.6233  -17.1360   24.6771 C   0  0  0  0  0  0  0  0  0  0  0  0
   15.0355  -16.8022   24.4176 C   0  0  0  0  0  0  0  0  0  0  0  0
   15.7295  -16.0549   25.1441 O   0  0  0  0  0  0  0  0  0  0  0  0
   11.0963  -16.6938   25.8051 C   0  0  0  0  0  0  0  0  0  0  0  0
   10.3309  -15.8065   26.5375 O   0  0  0  0  0  0  0  0  0  0  0  0
   15.6564  -17.3565   23.2770 O   0  0  0  0  0  0  0  0  0  0  0  0
   11.6638  -17.6348   26.4122 O   0  0  0  0  0  0  0  0  0  0  0  0
  2  1  1  0
  3  2  2  0
  4  2  1  0
  5  4  1  0
  6  7  1  6
  6  5  1  0
  6  8  1  0
  8  9  2  0
 11 10  1  1
 11 13  1  0
 12  8  1  0
 12 11  1  0
 13 15  1  0
 13 14  2  0
 15 16  1  0
 16 21  1  0
 16 17  1  1
 18 17  1  0
 19 18  1  0
 20 19  2  0
 21 22  1  0
 23 19  1  0
 24 21  2  0
M  END
$$$$
