DFN.pdb
     RDKit          3D

 28 28  0  0  1  0  0  0  0  0999 V2000
    7.4999  -16.6657   20.3144 N   0  0  0  0  0  0  0  0  0  0  0  0
    8.6874  -15.8339   20.2679 C   0  0  1  0  0  0  0  0  0  0  0  0
    8.3533  -14.6377   19.3757 C   0  0  0  0  0  0  0  0  0  0  0  0
    8.2097  -15.1347   17.9874 C   0  0  0  0  0  0  0  0  0  0  0  0
    8.2600  -14.3211   17.0251 O   0  0  0  0  0  0  0  0  0  0  0  0
    8.9921  -15.3599   21.6459 C   0  0  0  0  0  0  0  0  0  0  0  0
   10.0017  -14.6122   21.8525 O   0  0  0  0  0  0  0  0  0  0  0  0
    8.0182  -16.4700   17.6613 O   0  0  0  0  0  0  0  0  0  0  0  0
    8.2211  -15.6880   22.7776 N   0  0  0  0  0  0  0  0  0  0  0  0
    8.5626  -15.2873   24.1410 C   0  0  1  0  0  0  0  0  0  0  0  0
    7.2915  -15.0855   24.8611 C   0  0  0  0  0  0  0  0  0  0  0  0
    7.1747  -13.9813   25.7872 C   0  0  0  0  0  0  0  0  0  0  0  0
    6.1762  -13.0318   25.7887 C   0  0  0  0  0  0  0  0  0  0  0  0
    6.1238  -12.0110   26.7053 C   0  0  0  0  0  0  0  0  0  0  0  0
    7.0984  -11.9054   27.6787 C   0  0  0  0  0  0  0  0  0  0  0  0
    8.1120  -12.8401   27.7050 C   0  0  0  0  0  0  0  0  0  0  0  0
    8.1352  -13.8495   26.7730 C   0  0  0  0  0  0  0  0  0  0  0  0
    9.3777  -16.3112   24.8239 C   0  0  0  0  0  0  0  0  0  0  0  0
    8.9521  -17.4906   24.7826 O   0  0  0  0  0  0  0  0  0  0  0  0
   13.5413  -15.6741   23.8384 N   0  0  0  0  0  0  0  0  0  0  0  0
   13.1473  -16.9083   24.4576 C   0  0  0  0  0  0  0  0  0  0  0  0
   13.1404  -17.8948   23.6546 O   0  0  0  0  0  0  0  0  0  0  0  0
   12.7939  -16.9822   25.8856 C   0  0  0  0  0  0  0  0  0  0  0  0
   11.3254  -17.1777   26.0610 C   0  0  2  0  0  0  0  0  0  0  0  0
   10.5786  -16.0445   25.5037 N   0  0  0  0  0  0  0  0  0  0  0  0
   11.0108  -17.1464   27.5321 C   0  0  0  0  0  0  0  0  0  0  0  0
   10.2863  -16.2794   28.0525 O   0  0  0  0  0  0  0  0  0  0  0  0
   11.5317  -18.1091   28.3812 O   0  0  0  0  0  0  0  0  0  0  0  0
  2  6  1  0
  2  1  1  1
  2  3  1  0
  4  8  1  0
  4  3  1  0
  5  4  2  0
  6  9  1  0
  7  6  2  0
  9 10  1  0
 10 11  1  1
 11 12  1  0
 12 17  2  0
 12 13  1  0
 13 14  2  0
 14 15  1  0
 16 15  2  0
 17 16  1  0
 18 19  2  0
 18 10  1  0
 21 20  1  0
 21 23  1  0
 22 21  2  0
 24 23  1  1
 24 25  1  0
 25 18  1  0
 26 24  1  0
 27 26  2  0
 28 26  1  0
M  END
$$$$
