DFN.pdb
     RDKit          3D

 28 28  0  0  1  0  0  0  0  0999 V2000
   10.4454  -16.3169   19.9141 N   0  0  0  0  0  0  0  0  0  0  0  0
   10.2749  -17.1132   21.1145 C   0  0  1  0  0  0  0  0  0  0  0  0
   11.5290  -17.9773   21.2523 C   0  0  0  0  0  0  0  0  0  0  0  0
   11.5771  -18.8938   20.0892 C   0  0  0  0  0  0  0  0  0  0  0  0
   10.5136  -19.1760   19.4728 O   0  0  0  0  0  0  0  0  0  0  0  0
   10.1682  -16.1973   22.2833 C   0  0  0  0  0  0  0  0  0  0  0  0
   11.2144  -15.6507   22.7605 O   0  0  0  0  0  0  0  0  0  0  0  0
   12.7425  -19.4806   19.6163 O   0  0  0  0  0  0  0  0  0  0  0  0
    8.9549  -15.8791   22.9234 N   0  0  0  0  0  0  0  0  0  0  0  0
    8.8524  -14.9974   24.0845 C   0  0  1  0  0  0  0  0  0  0  0  0
    7.5366  -14.3357   24.0070 C   0  0  0  0  0  0  0  0  0  0  0  0
    7.1491  -13.4149   25.0522 C   0  0  0  0  0  0  0  0  0  0  0  0
    7.7764  -12.2255   25.3529 C   0  0  0  0  0  0  0  0  0  0  0  0
    7.3488  -11.3940   26.3582 C   0  0  0  0  0  0  0  0  0  0  0  0
    6.2466  -11.7371   27.1171 C   0  0  0  0  0  0  0  0  0  0  0  0
    5.5956  -12.9213   26.8417 C   0  0  0  0  0  0  0  0  0  0  0  0
    6.0494  -13.7310   25.8284 C   0  0  0  0  0  0  0  0  0  0  0  0
    8.9725  -15.7453   25.3515 C   0  0  0  0  0  0  0  0  0  0  0  0
    8.9269  -15.0729   26.4096 O   0  0  0  0  0  0  0  0  0  0  0  0
    6.6086  -19.2474   25.1275 N   0  0  0  0  0  0  0  0  0  0  0  0
    7.1036  -18.9499   26.4422 C   0  0  0  0  0  0  0  0  0  0  0  0
    6.1948  -18.5750   27.2494 O   0  0  0  0  0  0  0  0  0  0  0  0
    8.5309  -19.0790   26.7819 C   0  0  0  0  0  0  0  0  0  0  0  0
    9.2034  -17.7475   26.7702 C   0  0  2  0  0  0  0  0  0  0  0  0
    9.1317  -17.1391   25.4371 N   0  0  0  0  0  0  0  0  0  0  0  0
   10.6747  -17.9522   27.0098 C   0  0  0  0  0  0  0  0  0  0  0  0
   11.5439  -17.6840   26.1613 O   0  0  0  0  0  0  0  0  0  0  0  0
   11.1244  -18.4607   28.2174 O   0  0  0  0  0  0  0  0  0  0  0  0
  2  6  1  0
  2  1  1  6
  2  3  1  0
  4  8  1  0
  4  3  1  0
  5  4  2  0
  6  9  1  0
  7  6  2  0
  9 10  1  0
 10 11  1  1
 11 12  1  0
 12 17  2  0
 12 13  1  0
 13 14  2  0
 14 15  1  0
 16 15  2  0
 17 16  1  0
 18 19  2  0
 18 10  1  0
 21 20  1  0
 21 23  1  0
 22 21  2  0
 24 23  1  6
 24 25  1  0
 25 18  1  0
 26 24  1  0
 27 26  2  0
 28 26  1  0
M  END
$$$$
