DFN.pdb
     RDKit          3D

 28 28  0  0  1  0  0  0  0  0999 V2000
    9.7523  -18.3793   18.8338 N   0  0  0  0  0  0  0  0  0  0  0  0
   10.9206  -17.5516   18.6011 C   0  0  1  0  0  0  0  0  0  0  0  0
   10.6644  -16.7815   17.3051 C   0  0  0  0  0  0  0  0  0  0  0  0
   10.7882  -17.7366   16.1792 C   0  0  0  0  0  0  0  0  0  0  0  0
   10.9253  -18.9675   16.4173 O   0  0  0  0  0  0  0  0  0  0  0  0
   11.0597  -16.5939   19.7324 C   0  0  0  0  0  0  0  0  0  0  0  0
   12.0125  -15.7493   19.7370 O   0  0  0  0  0  0  0  0  0  0  0  0
   10.7633  -17.3623   14.8430 O   0  0  0  0  0  0  0  0  0  0  0  0
   10.1867  -16.5505   20.8364 N   0  0  0  0  0  0  0  0  0  0  0  0
   10.3696  -15.6671   21.9863 C   0  0  1  0  0  0  0  0  0  0  0  0
    9.0320  -15.1794   22.3708 C   0  0  0  0  0  0  0  0  0  0  0  0
    8.2830  -14.3684   21.4371 C   0  0  0  0  0  0  0  0  0  0  0  0
    8.6600  -13.1324   20.9590 C   0  0  0  0  0  0  0  0  0  0  0  0
    7.9004  -12.4187   20.0654 C   0  0  0  0  0  0  0  0  0  0  0  0
    6.7034  -12.9352   19.6085 C   0  0  0  0  0  0  0  0  0  0  0  0
    6.2971  -14.1705   20.0674 C   0  0  0  0  0  0  0  0  0  0  0  0
    7.0809  -14.8591   20.9616 C   0  0  0  0  0  0  0  0  0  0  0  0
   11.0011  -16.3695   23.1207 C   0  0  0  0  0  0  0  0  0  0  0  0
   10.8701  -15.8443   24.2525 O   0  0  0  0  0  0  0  0  0  0  0  0
   10.0267  -19.4958   23.5666 N   0  0  0  0  0  0  0  0  0  0  0  0
   11.2417  -20.2460   23.7171 C   0  0  0  0  0  0  0  0  0  0  0  0
   11.0966  -21.4897   23.4928 O   0  0  0  0  0  0  0  0  0  0  0  0
   12.5106  -19.6008   24.0953 C   0  0  0  0  0  0  0  0  0  0  0  0
   12.3412  -18.1237   24.2168 C   0  0  2  0  0  0  0  0  0  0  0  0
   11.7256  -17.5684   23.0064 N   0  0  0  0  0  0  0  0  0  0  0  0
   13.7042  -17.4884   24.2691 C   0  0  0  0  0  0  0  0  0  0  0  0
   14.1562  -16.7764   23.3546 O   0  0  0  0  0  0  0  0  0  0  0  0
   14.5254  -17.6799   25.3682 O   0  0  0  0  0  0  0  0  0  0  0  0
  2  6  1  0
  2  1  1  1
  2  3  1  0
  4  8  1  0
  4  3  1  0
  5  4  2  0
  6  9  1  0
  7  6  2  0
  9 10  1  0
 10 11  1  1
 11 12  1  0
 12 17  2  0
 12 13  1  0
 13 14  2  0
 14 15  1  0
 16 15  2  0
 17 16  1  0
 18 19  2  0
 18 10  1  0
 21 20  1  0
 21 23  1  0
 22 21  2  0
 24 23  1  6
 24 25  1  0
 25 18  1  0
 26 24  1  0
 27 26  2  0
 28 26  1  0
M  END
$$$$
