DFN.pdb
     RDKit          3D

 28 28  0  0  1  0  0  0  0  0999 V2000
    9.1640  -18.3394   18.1939 N   0  0  0  0  0  0  0  0  0  0  0  0
   10.5220  -17.9050   18.4606 C   0  0  1  0  0  0  0  0  0  0  0  0
   10.8917  -16.9115   17.3584 C   0  0  0  0  0  0  0  0  0  0  0  0
   11.1129  -17.6805   16.1115 C   0  0  0  0  0  0  0  0  0  0  0  0
   10.5506  -18.7993   15.9604 O   0  0  0  0  0  0  0  0  0  0  0  0
   10.5529  -17.2199   19.7819 C   0  0  0  0  0  0  0  0  0  0  0  0
   11.6013  -16.5995   20.1522 O   0  0  0  0  0  0  0  0  0  0  0  0
   11.9179  -17.2450   15.0683 O   0  0  0  0  0  0  0  0  0  0  0  0
    9.4723  -17.2060   20.6847 N   0  0  0  0  0  0  0  0  0  0  0  0
    9.5245  -16.5910   22.0095 C   0  0  1  0  0  0  0  0  0  0  0  0
    8.2022  -15.9858   22.2550 C   0  0  0  0  0  0  0  0  0  0  0  0
    7.8645  -14.7423   21.5991 C   0  0  0  0  0  0  0  0  0  0  0  0
    7.2930  -14.6174   20.3516 C   0  0  0  0  0  0  0  0  0  0  0  0
    6.9919  -13.4008   19.7913 C   0  0  0  0  0  0  0  0  0  0  0  0
    7.2615  -12.2356   20.4827 C   0  0  0  0  0  0  0  0  0  0  0  0
    7.8334  -12.3257   21.7344 C   0  0  0  0  0  0  0  0  0  0  0  0
    8.1223  -13.5592   22.2666 C   0  0  0  0  0  0  0  0  0  0  0  0
    9.8345  -17.5807   23.0601 C   0  0  0  0  0  0  0  0  0  0  0  0
    9.1126  -18.6060   23.0995 O   0  0  0  0  0  0  0  0  0  0  0  0
   13.1574  -17.4098   23.2362 N   0  0  0  0  0  0  0  0  0  0  0  0
   13.3295  -18.6805   23.8823 C   0  0  0  0  0  0  0  0  0  0  0  0
   14.5459  -19.0430   23.9644 O   0  0  0  0  0  0  0  0  0  0  0  0
   12.1836  -19.4565   24.3863 C   0  0  0  0  0  0  0  0  0  0  0  0
   11.1235  -18.5538   24.9218 C   0  0  2  0  0  0  0  0  0  0  0  0
   10.8711  -17.4416   23.9989 N   0  0  0  0  0  0  0  0  0  0  0  0
   11.6427  -17.8939   26.1705 C   0  0  0  0  0  0  0  0  0  0  0  0
   11.0042  -17.8642   27.2376 O   0  0  0  0  0  0  0  0  0  0  0  0
   12.8844  -17.2796   26.1745 O   0  0  0  0  0  0  0  0  0  0  0  0
  2  6  1  0
  2  1  1  6
  2  3  1  0
  4  8  1  0
  4  3  1  0
  5  4  2  0
  6  9  1  0
  7  6  2  0
  9 10  1  0
 10 11  1  1
 11 12  1  0
 12 17  2  0
 12 13  1  0
 13 14  2  0
 14 15  1  0
 16 15  2  0
 17 16  1  0
 18 19  2  0
 18 10  1  0
 21 20  1  0
 21 23  1  0
 22 21  2  0
 24 23  1  6
 24 25  1  0
 25 18  1  0
 26 24  1  0
 27 26  2  0
 28 26  1  0
M  END
$$$$
