DFN.pdb
     RDKit          3D

 28 28  0  0  1  0  0  0  0  0999 V2000
    9.6411  -16.5175   19.0705 N   0  0  0  0  0  0  0  0  0  0  0  0
    9.1687  -17.2598   20.2238 C   0  0  1  0  0  0  0  0  0  0  0  0
   10.0019  -18.5401   20.2957 C   0  0  0  0  0  0  0  0  0  0  0  0
    9.6312  -19.3869   19.1379 C   0  0  0  0  0  0  0  0  0  0  0  0
   10.5331  -19.9746   18.4807 O   0  0  0  0  0  0  0  0  0  0  0  0
    9.4023  -16.4422   21.4457 C   0  0  0  0  0  0  0  0  0  0  0  0
   10.5914  -16.2035   21.8334 O   0  0  0  0  0  0  0  0  0  0  0  0
    8.3251  -19.5849   18.7128 O   0  0  0  0  0  0  0  0  0  0  0  0
    8.3713  -15.8940   22.2328 N   0  0  0  0  0  0  0  0  0  0  0  0
    8.5988  -15.1328   23.4595 C   0  0  1  0  0  0  0  0  0  0  0  0
    7.3674  -14.3657   23.7242 C   0  0  0  0  0  0  0  0  0  0  0  0
    7.2720  -13.5838   24.9367 C   0  0  0  0  0  0  0  0  0  0  0  0
    6.3543  -13.7711   25.9473 C   0  0  0  0  0  0  0  0  0  0  0  0
    6.3257  -12.9928   27.0778 C   0  0  0  0  0  0  0  0  0  0  0  0
    7.2424  -11.9717   27.2374 C   0  0  0  0  0  0  0  0  0  0  0  0
    8.1748  -11.7577   26.2441 C   0  0  0  0  0  0  0  0  0  0  0  0
    8.1763  -12.5549   25.1249 C   0  0  0  0  0  0  0  0  0  0  0  0
    8.9042  -16.0159   24.6024 C   0  0  0  0  0  0  0  0  0  0  0  0
    8.0374  -16.8723   24.9006 O   0  0  0  0  0  0  0  0  0  0  0  0
   11.1951  -18.5431   24.3578 N   0  0  0  0  0  0  0  0  0  0  0  0
   12.1206  -18.1766   25.3926 C   0  0  0  0  0  0  0  0  0  0  0  0
   13.2869  -18.6528   25.2168 O   0  0  0  0  0  0  0  0  0  0  0  0
   11.7190  -17.3304   26.5293 C   0  0  0  0  0  0  0  0  0  0  0  0
   10.2823  -16.9432   26.4233 C   0  0  2  0  0  0  0  0  0  0  0  0
   10.0868  -15.9522   25.3593 N   0  0  0  0  0  0  0  0  0  0  0  0
    9.8864  -16.2227   27.6835 C   0  0  0  0  0  0  0  0  0  0  0  0
    9.3323  -16.7886   28.6427 O   0  0  0  0  0  0  0  0  0  0  0  0
   10.1324  -14.8666   27.8226 O   0  0  0  0  0  0  0  0  0  0  0  0
  2  6  1  0
  2  1  1  6
  2  3  1  0
  4  8  1  0
  4  3  1  0
  5  4  2  0
  6  9  1  0
  7  6  2  0
  9 10  1  0
 10 11  1  1
 11 12  1  0
 12 17  2  0
 12 13  1  0
 13 14  2  0
 14 15  1  0
 16 15  2  0
 17 16  1  0
 18 19  2  0
 18 10  1  0
 21 20  1  0
 21 23  1  0
 22 21  2  0
 24 23  1  1
 24 25  1  0
 25 18  1  0
 26 24  1  0
 27 26  2  0
 28 26  1  0
M  END
$$$$
