DFN.pdb
     RDKit          3D

 28 28  0  0  1  0  0  0  0  0999 V2000
   10.0809  -15.9633   20.3940 N   0  0  0  0  0  0  0  0  0  0  0  0
    9.6145  -16.9405   21.3593 C   0  0  1  0  0  0  0  0  0  0  0  0
   10.5934  -18.1141   21.3069 C   0  0  0  0  0  0  0  0  0  0  0  0
   10.5271  -18.6985   19.9470 C   0  0  0  0  0  0  0  0  0  0  0  0
   11.5312  -18.6264   19.1873 O   0  0  0  0  0  0  0  0  0  0  0  0
    9.6447  -16.3246   22.7142 C   0  0  0  0  0  0  0  0  0  0  0  0
   10.6387  -15.6111   23.0664 O   0  0  0  0  0  0  0  0  0  0  0  0
    9.4066  -19.3377   19.4351 O   0  0  0  0  0  0  0  0  0  0  0  0
    8.6211  -16.4772   23.6692 N   0  0  0  0  0  0  0  0  0  0  0  0
    8.6345  -15.8451   24.9869 C   0  0  1  0  0  0  0  0  0  0  0  0
    7.2661  -15.3597   25.2449 C   0  0  0  0  0  0  0  0  0  0  0  0
    7.0771  -14.0091   25.7254 C   0  0  0  0  0  0  0  0  0  0  0  0
    6.2022  -13.0818   25.2025 C   0  0  0  0  0  0  0  0  0  0  0  0
    6.0692  -11.8151   25.7150 C   0  0  0  0  0  0  0  0  0  0  0  0
    6.8306  -11.4248   26.7996 C   0  0  0  0  0  0  0  0  0  0  0  0
    7.7160  -12.3294   27.3469 C   0  0  0  0  0  0  0  0  0  0  0  0
    7.8249  -13.5896   26.8101 C   0  0  0  0  0  0  0  0  0  0  0  0
    9.0470  -16.7906   26.0429 C   0  0  0  0  0  0  0  0  0  0  0  0
    8.9380  -16.3946   27.2282 O   0  0  0  0  0  0  0  0  0  0  0  0
    8.1213  -20.6774   24.8504 N   0  0  0  0  0  0  0  0  0  0  0  0
    9.5143  -20.5490   25.1738 C   0  0  0  0  0  0  0  0  0  0  0  0
   10.2758  -20.6191   24.1573 O   0  0  0  0  0  0  0  0  0  0  0  0
    9.9750  -20.3562   26.5595 C   0  0  0  0  0  0  0  0  0  0  0  0
    9.8900  -18.9200   26.9537 C   0  0  2  0  0  0  0  0  0  0  0  0
    9.5446  -18.0824   25.7998 N   0  0  0  0  0  0  0  0  0  0  0  0
   11.2619  -18.4528   27.3584 C   0  0  0  0  0  0  0  0  0  0  0  0
   11.8880  -17.5725   26.7416 O   0  0  0  0  0  0  0  0  0  0  0  0
   11.8923  -19.0024   28.4628 O   0  0  0  0  0  0  0  0  0  0  0  0
  2  6  1  0
  2  1  1  6
  2  3  1  0
  4  8  1  0
  4  3  1  0
  5  4  2  0
  6  9  1  0
  7  6  2  0
  9 10  1  0
 10 11  1  1
 11 12  1  0
 12 17  2  0
 12 13  1  0
 13 14  2  0
 14 15  1  0
 16 15  2  0
 17 16  1  0
 18 19  2  0
 18 10  1  0
 21 20  1  0
 21 23  1  0
 22 21  2  0
 24 23  1  6
 24 25  1  0
 25 18  1  0
 26 24  1  0
 27 26  2  0
 28 26  1  0
M  END
$$$$
