DFN.pdb
     RDKit          3D

 28 28  0  0  1  0  0  0  0  0999 V2000
    8.2638  -17.4759   19.8634 N   0  0  0  0  0  0  0  0  0  0  0  0
    9.6631  -17.3108   20.2083 C   0  0  1  0  0  0  0  0  0  0  0  0
   10.3670  -16.7864   18.9562 C   0  0  0  0  0  0  0  0  0  0  0  0
   10.1237  -17.7543   17.8613 C   0  0  0  0  0  0  0  0  0  0  0  0
   10.7556  -18.8456   17.8413 O   0  0  0  0  0  0  0  0  0  0  0  0
    9.7698  -16.3044   21.3002 C   0  0  0  0  0  0  0  0  0  0  0  0
   10.9056  -15.8187   21.6085 O   0  0  0  0  0  0  0  0  0  0  0  0
    9.2242  -17.5395   16.8265 O   0  0  0  0  0  0  0  0  0  0  0  0
    8.6708  -15.8331   22.0438 N   0  0  0  0  0  0  0  0  0  0  0  0
    8.7905  -15.1351   23.3223 C   0  0  1  0  0  0  0  0  0  0  0  0
    7.5856  -14.2975   23.4693 C   0  0  0  0  0  0  0  0  0  0  0  0
    7.3881  -13.5573   24.6955 C   0  0  0  0  0  0  0  0  0  0  0  0
    8.0674  -12.4180   25.0685 C   0  0  0  0  0  0  0  0  0  0  0  0
    7.8228  -11.7606   26.2487 C   0  0  0  0  0  0  0  0  0  0  0  0
    6.8617  -12.2372   27.1191 C   0  0  0  0  0  0  0  0  0  0  0  0
    6.1635  -13.3757   26.7756 C   0  0  0  0  0  0  0  0  0  0  0  0
    6.4326  -14.0098   25.5866 C   0  0  0  0  0  0  0  0  0  0  0  0
    8.8959  -16.0785   24.4527 C   0  0  0  0  0  0  0  0  0  0  0  0
    8.0324  -16.9867   24.5116 O   0  0  0  0  0  0  0  0  0  0  0  0
   12.2692  -16.2492   25.1501 N   0  0  0  0  0  0  0  0  0  0  0  0
   12.0430  -17.6632   25.2548 C   0  0  0  0  0  0  0  0  0  0  0  0
   12.9706  -18.3614   24.7351 O   0  0  0  0  0  0  0  0  0  0  0  0
   10.8417  -18.2110   25.9077 C   0  0  0  0  0  0  0  0  0  0  0  0
    9.9658  -17.1156   26.4159 C   0  0  2  0  0  0  0  0  0  0  0  0
    9.8885  -16.0177   25.4459 N   0  0  0  0  0  0  0  0  0  0  0  0
   10.6191  -16.5021   27.6247 C   0  0  0  0  0  0  0  0  0  0  0  0
   10.9132  -17.1553   28.6416 O   0  0  0  0  0  0  0  0  0  0  0  0
   10.9240  -15.1510   27.6470 O   0  0  0  0  0  0  0  0  0  0  0  0
  2  6  1  0
  2  1  1  6
  2  3  1  0
  4  8  1  0
  4  3  1  0
  5  4  2  0
  6  9  1  0
  7  6  2  0
  9 10  1  0
 10 11  1  1
 11 12  1  0
 12 17  2  0
 12 13  1  0
 13 14  2  0
 14 15  1  0
 16 15  2  0
 17 16  1  0
 18 19  2  0
 18 10  1  0
 21 20  1  0
 21 23  1  0
 22 21  2  0
 24 23  1  6
 24 25  1  0
 25 18  1  0
 26 24  1  0
 27 26  2  0
 28 26  1  0
M  END
$$$$
