DFN.pdb
     RDKit          3D

 28 28  0  0  1  0  0  0  0  0999 V2000
    9.7735  -16.6361   19.1517 N   0  0  0  0  0  0  0  0  0  0  0  0
    9.0147  -17.1920   20.2560 C   0  0  1  0  0  0  0  0  0  0  0  0
    9.5248  -18.6179   20.4680 C   0  0  0  0  0  0  0  0  0  0  0  0
    9.0967  -19.4293   19.3046 C   0  0  0  0  0  0  0  0  0  0  0  0
    7.8837  -19.7519   19.1813 O   0  0  0  0  0  0  0  0  0  0  0  0
    9.2810  -16.3795   21.4746 C   0  0  0  0  0  0  0  0  0  0  0  0
   10.4791  -16.1022   21.8048 O   0  0  0  0  0  0  0  0  0  0  0  0
    9.9603  -19.8725   18.3127 O   0  0  0  0  0  0  0  0  0  0  0  0
    8.2726  -15.8772   22.3194 N   0  0  0  0  0  0  0  0  0  0  0  0
    8.5304  -15.0331   23.4844 C   0  0  1  0  0  0  0  0  0  0  0  0
    7.3028  -14.2538   23.7308 C   0  0  0  0  0  0  0  0  0  0  0  0
    7.2328  -13.4002   24.8956 C   0  0  0  0  0  0  0  0  0  0  0  0
    8.0786  -12.3497   25.1780 C   0  0  0  0  0  0  0  0  0  0  0  0
    7.9492  -11.5742   26.3034 C   0  0  0  0  0  0  0  0  0  0  0  0
    6.9386  -11.8334   27.2091 C   0  0  0  0  0  0  0  0  0  0  0  0
    6.0746  -12.8779   26.9559 C   0  0  0  0  0  0  0  0  0  0  0  0
    6.2316  -13.6349   25.8199 C   0  0  0  0  0  0  0  0  0  0  0  0
    8.8724  -15.8348   24.6758 C   0  0  0  0  0  0  0  0  0  0  0  0
    8.0789  -16.7570   24.9816 O   0  0  0  0  0  0  0  0  0  0  0  0
   11.2247  -18.4808   24.5080 N   0  0  0  0  0  0  0  0  0  0  0  0
   12.2177  -17.8845   25.3566 C   0  0  0  0  0  0  0  0  0  0  0  0
   13.3993  -18.2835   25.1063 O   0  0  0  0  0  0  0  0  0  0  0  0
   11.8616  -16.9104   26.4024 C   0  0  0  0  0  0  0  0  0  0  0  0
   10.3892  -16.6721   26.4287 C   0  0  2  0  0  0  0  0  0  0  0  0
   10.0132  -15.6271   25.4700 N   0  0  0  0  0  0  0  0  0  0  0  0
   10.0210  -16.0993   27.7705 C   0  0  0  0  0  0  0  0  0  0  0  0
    9.8917  -16.7958   28.7930 O   0  0  0  0  0  0  0  0  0  0  0  0
    9.8073  -14.7384   27.9173 O   0  0  0  0  0  0  0  0  0  0  0  0
  2  6  1  0
  2  1  1  6
  2  3  1  0
  4  8  1  0
  4  3  1  0
  5  4  2  0
  6  9  1  0
  7  6  2  0
  9 10  1  0
 10 11  1  1
 11 12  1  0
 12 17  2  0
 12 13  1  0
 13 14  2  0
 14 15  1  0
 16 15  2  0
 17 16  1  0
 18 19  2  0
 18 10  1  0
 21 20  1  0
 21 23  1  0
 22 21  2  0
 24 23  1  1
 24 25  1  0
 25 18  1  0
 26 24  1  0
 27 26  2  0
 28 26  1  0
M  END
$$$$
