DFN.pdb
     RDKit          3D

 28 28  0  0  1  0  0  0  0  0999 V2000
   10.2996  -16.5084   19.2276 N   0  0  0  0  0  0  0  0  0  0  0  0
    9.2483  -16.8885   20.1520 C   0  0  1  0  0  0  0  0  0  0  0  0
    9.3858  -18.3941   20.3812 C   0  0  0  0  0  0  0  0  0  0  0  0
    9.0785  -19.0765   19.1025 C   0  0  0  0  0  0  0  0  0  0  0  0
    8.1025  -18.6859   18.4057 O   0  0  0  0  0  0  0  0  0  0  0  0
    9.4585  -16.1662   21.4366 C   0  0  0  0  0  0  0  0  0  0  0  0
   10.6314  -16.0555   21.9194 O   0  0  0  0  0  0  0  0  0  0  0  0
    9.8089  -20.1455   18.6027 O   0  0  0  0  0  0  0  0  0  0  0  0
    8.4215  -15.5757   22.1842 N   0  0  0  0  0  0  0  0  0  0  0  0
    8.6270  -14.8695   23.4472 C   0  0  1  0  0  0  0  0  0  0  0  0
    7.4325  -14.0343   23.6721 C   0  0  0  0  0  0  0  0  0  0  0  0
    7.3144  -13.2927   24.9076 C   0  0  0  0  0  0  0  0  0  0  0  0
    6.3400  -13.4708   25.8655 C   0  0  0  0  0  0  0  0  0  0  0  0
    6.2926  -12.7330   27.0224 C   0  0  0  0  0  0  0  0  0  0  0  0
    7.2476  -11.7647   27.2643 C   0  0  0  0  0  0  0  0  0  0  0  0
    8.2371  -11.5614   26.3255 C   0  0  0  0  0  0  0  0  0  0  0  0
    8.2561  -12.3170   25.1779 C   0  0  0  0  0  0  0  0  0  0  0  0
    8.8132  -15.8056   24.5733 C   0  0  0  0  0  0  0  0  0  0  0  0
    7.9836  -16.7415   24.6715 O   0  0  0  0  0  0  0  0  0  0  0  0
   11.3511  -19.4731   26.9310 N   0  0  0  0  0  0  0  0  0  0  0  0
   12.2254  -18.4375   26.4570 C   0  0  0  0  0  0  0  0  0  0  0  0
   13.4509  -18.6532   26.7209 O   0  0  0  0  0  0  0  0  0  0  0  0
   11.7135  -17.2573   25.7397 C   0  0  0  0  0  0  0  0  0  0  0  0
   10.3173  -16.9429   26.1604 C   0  0  2  0  0  0  0  0  0  0  0  0
    9.8459  -15.7091   25.5218 N   0  0  0  0  0  0  0  0  0  0  0  0
   10.3205  -16.6257   27.6313 C   0  0  0  0  0  0  0  0  0  0  0  0
   10.8453  -17.3646   28.4833 O   0  0  0  0  0  0  0  0  0  0  0  0
    9.7225  -15.4673   28.1001 O   0  0  0  0  0  0  0  0  0  0  0  0
  2  6  1  0
  2  1  1  6
  2  3  1  0
  4  8  1  0
  4  3  1  0
  5  4  2  0
  6  9  1  0
  7  6  2  0
  9 10  1  0
 10 11  1  1
 11 12  1  0
 12 17  2  0
 12 13  1  0
 13 14  2  0
 14 15  1  0
 16 15  2  0
 17 16  1  0
 18 19  2  0
 18 10  1  0
 21 20  1  0
 21 23  1  0
 22 21  2  0
 24 23  1  6
 24 25  1  0
 25 18  1  0
 26 24  1  0
 27 26  2  0
 28 26  1  0
M  END
$$$$
