DFN.pdb
     RDKit          3D

 28 28  0  0  1  0  0  0  0  0999 V2000
    8.1985  -16.7763   21.5715 N   0  0  0  0  0  0  0  0  0  0  0  0
    9.5839  -16.3790   21.7361 C   0  0  1  0  0  0  0  0  0  0  0  0
    9.8033  -15.1616   20.8372 C   0  0  0  0  0  0  0  0  0  0  0  0
    9.6634  -15.6063   19.4308 C   0  0  0  0  0  0  0  0  0  0  0  0
    9.7438  -14.7611   18.4982 O   0  0  0  0  0  0  0  0  0  0  0  0
    9.8048  -15.9968   23.1579 C   0  0  0  0  0  0  0  0  0  0  0  0
   10.8458  -15.3410   23.4857 O   0  0  0  0  0  0  0  0  0  0  0  0
    9.4438  -16.9244   19.0561 O   0  0  0  0  0  0  0  0  0  0  0  0
    8.9185  -16.3173   24.2040 N   0  0  0  0  0  0  0  0  0  0  0  0
    9.1537  -15.9758   25.6055 C   0  0  1  0  0  0  0  0  0  0  0  0
    7.8750  -15.4799   26.1477 C   0  0  0  0  0  0  0  0  0  0  0  0
    7.6048  -14.0597   26.1263 C   0  0  0  0  0  0  0  0  0  0  0  0
    8.5056  -13.0624   26.4307 C   0  0  0  0  0  0  0  0  0  0  0  0
    8.1815  -11.7292   26.3827 C   0  0  0  0  0  0  0  0  0  0  0  0
    6.9071  -11.3403   26.0176 C   0  0  0  0  0  0  0  0  0  0  0  0
    5.9814  -12.3140   25.7064 C   0  0  0  0  0  0  0  0  0  0  0  0
    6.3382  -13.6397   25.7643 C   0  0  0  0  0  0  0  0  0  0  0  0
    9.6180  -17.1421   26.3822 C   0  0  0  0  0  0  0  0  0  0  0  0
   10.1573  -16.9036   27.4895 O   0  0  0  0  0  0  0  0  0  0  0  0
   13.2982  -20.7177   24.6532 N   0  0  0  0  0  0  0  0  0  0  0  0
   13.0347  -19.5743   25.4807 C   0  0  0  0  0  0  0  0  0  0  0  0
   13.9401  -19.3616   26.3486 O   0  0  0  0  0  0  0  0  0  0  0  0
   11.8232  -18.7544   25.3092 C   0  0  0  0  0  0  0  0  0  0  0  0
   10.6712  -19.3455   26.0499 C   0  0  2  0  0  0  0  0  0  0  0  0
    9.4925  -18.4767   25.9596 N   0  0  0  0  0  0  0  0  0  0  0  0
   11.0068  -19.3701   27.5165 C   0  0  0  0  0  0  0  0  0  0  0  0
   10.7737  -20.3478   28.2494 O   0  0  0  0  0  0  0  0  0  0  0  0
   11.6037  -18.2740   28.1176 O   0  0  0  0  0  0  0  0  0  0  0  0
  2  6  1  0
  2  1  1  1
  2  3  1  0
  4  8  1  0
  4  3  1  0
  5  4  2  0
  6  9  1  0
  7  6  2  0
  9 10  1  0
 10 11  1  1
 11 12  1  0
 12 17  2  0
 12 13  1  0
 13 14  2  0
 14 15  1  0
 16 15  2  0
 17 16  1  0
 18 19  2  0
 18 10  1  0
 21 20  1  0
 21 23  1  0
 22 21  2  0
 24 23  1  6
 24 25  1  0
 25 18  1  0
 26 24  1  0
 27 26  2  0
 28 26  1  0
M  END
$$$$
