DFN.pdb
     RDKit          3D

 28 28  0  0  1  0  0  0  0  0999 V2000
    9.1458  -15.4108   18.9305 N   0  0  0  0  0  0  0  0  0  0  0  0
    9.2477  -16.4866   19.8982 C   0  0  1  0  0  0  0  0  0  0  0  0
   10.5114  -17.2743   19.5505 C   0  0  0  0  0  0  0  0  0  0  0  0
   10.3324  -17.8408   18.1932 C   0  0  0  0  0  0  0  0  0  0  0  0
   11.3352  -18.2660   17.5574 O   0  0  0  0  0  0  0  0  0  0  0  0
    9.3860  -15.8944   21.2571 C   0  0  0  0  0  0  0  0  0  0  0  0
   10.5318  -15.8282   21.8083 O   0  0  0  0  0  0  0  0  0  0  0  0
    9.1048  -17.9397   17.5535 O   0  0  0  0  0  0  0  0  0  0  0  0
    8.3074  -15.3844   22.0049 N   0  0  0  0  0  0  0  0  0  0  0  0
    8.4409  -14.8141   23.3439 C   0  0  1  0  0  0  0  0  0  0  0  0
    7.4213  -13.7554   23.4641 C   0  0  0  0  0  0  0  0  0  0  0  0
    7.2360  -13.0979   24.7384 C   0  0  0  0  0  0  0  0  0  0  0  0
    6.2605  -13.3948   25.6651 C   0  0  0  0  0  0  0  0  0  0  0  0
    6.1471  -12.7319   26.8620 C   0  0  0  0  0  0  0  0  0  0  0  0
    7.0331  -11.7204   27.1786 C   0  0  0  0  0  0  0  0  0  0  0  0
    8.0217  -11.3984   26.2726 C   0  0  0  0  0  0  0  0  0  0  0  0
    8.1077  -12.0816   25.0834 C   0  0  0  0  0  0  0  0  0  0  0  0
    8.2437  -15.8325   24.3943 C   0  0  0  0  0  0  0  0  0  0  0  0
    7.3468  -16.6858   24.1909 O   0  0  0  0  0  0  0  0  0  0  0  0
   10.4205  -20.1824   25.7299 N   0  0  0  0  0  0  0  0  0  0  0  0
   11.1462  -18.9480   25.6233 C   0  0  0  0  0  0  0  0  0  0  0  0
   12.3486  -19.0341   26.0292 O   0  0  0  0  0  0  0  0  0  0  0  0
   10.5228  -17.7245   25.0906 C   0  0  0  0  0  0  0  0  0  0  0  0
    9.4785  -17.2098   26.0231 C   0  0  2  0  0  0  0  0  0  0  0  0
    8.9886  -15.8984   25.5843 N   0  0  0  0  0  0  0  0  0  0  0  0
   10.1186  -16.9429   27.3584 C   0  0  0  0  0  0  0  0  0  0  0  0
   10.3081  -17.8302   28.2093 O   0  0  0  0  0  0  0  0  0  0  0  0
   10.5305  -15.6638   27.6954 O   0  0  0  0  0  0  0  0  0  0  0  0
  2  6  1  0
  2  1  1  6
  2  3  1  0
  4  8  1  0
  4  3  1  0
  5  4  2  0
  6  9  1  0
  7  6  2  0
  9 10  1  0
 10 11  1  1
 11 12  1  0
 12 17  2  0
 12 13  1  0
 13 14  2  0
 14 15  1  0
 16 15  2  0
 17 16  1  0
 18 19  2  0
 18 10  1  0
 21 20  1  0
 21 23  1  0
 22 21  2  0
 24 23  1  6
 24 25  1  0
 25 18  1  0
 26 24  1  0
 27 26  2  0
 28 26  1  0
M  END
$$$$
