DFN.pdb
     RDKit          3D

 28 28  0  0  1  0  0  0  0  0999 V2000
    8.6692  -17.7058   20.5868 N   0  0  0  0  0  0  0  0  0  0  0  0
   10.0222  -17.2260   20.7950 C   0  0  1  0  0  0  0  0  0  0  0  0
   10.4909  -16.6370   19.4639 C   0  0  0  0  0  0  0  0  0  0  0  0
   10.5906  -17.7472   18.4878 C   0  0  0  0  0  0  0  0  0  0  0  0
    9.5636  -18.1161   17.8555 O   0  0  0  0  0  0  0  0  0  0  0  0
    9.9954  -16.1584   21.8321 C   0  0  0  0  0  0  0  0  0  0  0  0
   11.0460  -15.4812   22.0749 O   0  0  0  0  0  0  0  0  0  0  0  0
   11.7672  -18.4295   18.2120 O   0  0  0  0  0  0  0  0  0  0  0  0
    8.8561  -15.8298   22.5916 N   0  0  0  0  0  0  0  0  0  0  0  0
    8.8633  -14.8817   23.7039 C   0  0  1  0  0  0  0  0  0  0  0  0
    7.4924  -14.3520   23.8262 C   0  0  0  0  0  0  0  0  0  0  0  0
    7.1733  -13.4724   24.9285 C   0  0  0  0  0  0  0  0  0  0  0  0
    6.3032  -13.7536   25.9592 C   0  0  0  0  0  0  0  0  0  0  0  0
    6.0519  -12.8710   26.9804 C   0  0  0  0  0  0  0  0  0  0  0  0
    6.6827  -11.6422   27.0028 C   0  0  0  0  0  0  0  0  0  0  0  0
    7.5600  -11.3295   25.9858 C   0  0  0  0  0  0  0  0  0  0  0  0
    7.7893  -12.2355   24.9784 C   0  0  0  0  0  0  0  0  0  0  0  0
    9.2757  -15.5240   24.9675 C   0  0  0  0  0  0  0  0  0  0  0  0
    9.2374  -14.8128   26.0002 O   0  0  0  0  0  0  0  0  0  0  0  0
    9.6382  -20.1534   28.5532 N   0  0  0  0  0  0  0  0  0  0  0  0
    9.6819  -18.7396   28.3066 C   0  0  0  0  0  0  0  0  0  0  0  0
   10.2170  -18.0796   29.2533 O   0  0  0  0  0  0  0  0  0  0  0  0
    9.1486  -18.1510   27.0662 C   0  0  0  0  0  0  0  0  0  0  0  0
   10.1857  -17.3281   26.3787 C   0  0  2  0  0  0  0  0  0  0  0  0
    9.6999  -16.8595   25.0761 N   0  0  0  0  0  0  0  0  0  0  0  0
   11.3559  -18.2134   26.0456 C   0  0  0  0  0  0  0  0  0  0  0  0
   11.6514  -18.5377   24.8816 O   0  0  0  0  0  0  0  0  0  0  0  0
   12.1670  -18.7117   27.0520 O   0  0  0  0  0  0  0  0  0  0  0  0
  2  6  1  0
  2  1  1  6
  2  3  1  0
  4  8  1  0
  4  3  1  0
  5  4  2  0
  6  9  1  0
  7  6  2  0
  9 10  1  0
 10 11  1  1
 11 12  1  0
 12 17  2  0
 12 13  1  0
 13 14  2  0
 14 15  1  0
 16 15  2  0
 17 16  1  0
 18 19  2  0
 18 10  1  0
 21 20  1  0
 21 23  1  0
 22 21  2  0
 24 23  1  6
 24 25  1  0
 25 18  1  0
 26 24  1  0
 27 26  2  0
 28 26  1  0
M  END
$$$$
