DFN.pdb
     RDKit          3D

 28 28  0  0  1  0  0  0  0  0999 V2000
   10.4159  -16.5115   19.3600 N   0  0  0  0  0  0  0  0  0  0  0  0
    9.3072  -16.8471   20.2331 C   0  0  1  0  0  0  0  0  0  0  0  0
    9.3800  -18.3546   20.4788 C   0  0  0  0  0  0  0  0  0  0  0  0
    8.9827  -19.0372   19.2253 C   0  0  0  0  0  0  0  0  0  0  0  0
    8.7501  -18.3552   18.1902 O   0  0  0  0  0  0  0  0  0  0  0  0
    9.4785  -16.1218   21.5219 C   0  0  0  0  0  0  0  0  0  0  0  0
   10.6473  -15.8869   21.9689 O   0  0  0  0  0  0  0  0  0  0  0  0
    8.8442  -20.4129   19.1056 O   0  0  0  0  0  0  0  0  0  0  0  0
    8.4079  -15.6602   22.3115 N   0  0  0  0  0  0  0  0  0  0  0  0
    8.5757  -14.9410   23.5727 C   0  0  1  0  0  0  0  0  0  0  0  0
    7.2875  -14.2873   23.8696 C   0  0  0  0  0  0  0  0  0  0  0  0
    7.1384  -13.5553   25.1075 C   0  0  0  0  0  0  0  0  0  0  0  0
    6.1912  -13.7969   26.0786 C   0  0  0  0  0  0  0  0  0  0  0  0
    6.1117  -13.0640   27.2368 C   0  0  0  0  0  0  0  0  0  0  0  0
    7.0045  -12.0351   27.4664 C   0  0  0  0  0  0  0  0  0  0  0  0
    7.9653  -11.7673   26.5141 C   0  0  0  0  0  0  0  0  0  0  0  0
    8.0177  -12.5199   25.3656 C   0  0  0  0  0  0  0  0  0  0  0  0
    8.9520  -15.8488   24.6742 C   0  0  0  0  0  0  0  0  0  0  0  0
    9.1370  -15.3245   25.7988 O   0  0  0  0  0  0  0  0  0  0  0  0
   11.7211  -18.5798   28.1389 N   0  0  0  0  0  0  0  0  0  0  0  0
   10.4718  -17.8958   27.9571 C   0  0  0  0  0  0  0  0  0  0  0  0
    9.6843  -18.0136   28.9491 O   0  0  0  0  0  0  0  0  0  0  0  0
   10.1708  -17.1426   26.7277 C   0  0  0  0  0  0  0  0  0  0  0  0
    9.4935  -18.0125   25.7229 C   0  0  2  0  0  0  0  0  0  0  0  0
    9.1113  -17.2385   24.5366 N   0  0  0  0  0  0  0  0  0  0  0  0
    8.1861  -18.4827   26.3005 C   0  0  0  0  0  0  0  0  0  0  0  0
    7.9913  -19.6532   26.6738 O   0  0  0  0  0  0  0  0  0  0  0  0
    7.1248  -17.6034   26.4404 O   0  0  0  0  0  0  0  0  0  0  0  0
  2  6  1  0
  2  1  1  6
  2  3  1  0
  4  8  1  0
  4  3  1  0
  5  4  2  0
  6  9  1  0
  7  6  2  0
  9 10  1  0
 10 11  1  1
 11 12  1  0
 12 17  2  0
 12 13  1  0
 13 14  2  0
 14 15  1  0
 16 15  2  0
 17 16  1  0
 18 19  2  0
 18 10  1  0
 21 20  1  0
 21 23  1  0
 22 21  2  0
 24 23  1  1
 24 25  1  0
 25 18  1  0
 26 24  1  0
 27 26  2  0
 28 26  1  0
M  END
$$$$
