DFN.pdb
     RDKit          3D

 28 28  0  0  1  0  0  0  0  0999 V2000
   10.2559  -15.3308   15.2115 N   0  0  0  0  0  0  0  0  0  0  0  0
   11.1336  -16.1818   15.9922 C   0  0  1  0  0  0  0  0  0  0  0  0
   12.3474  -16.4874   15.1138 C   0  0  0  0  0  0  0  0  0  0  0  0
   11.9314  -17.4813   14.0968 C   0  0  0  0  0  0  0  0  0  0  0  0
   11.2469  -18.4816   14.4454 O   0  0  0  0  0  0  0  0  0  0  0  0
   11.5690  -15.4344   17.2038 C   0  0  0  0  0  0  0  0  0  0  0  0
   12.2163  -14.3449   17.0805 O   0  0  0  0  0  0  0  0  0  0  0  0
   12.2504  -17.3871   12.7494 O   0  0  0  0  0  0  0  0  0  0  0  0
   11.3101  -15.8564   18.5221 N   0  0  0  0  0  0  0  0  0  0  0  0
   11.6774  -15.0894   19.7107 C   0  0  1  0  0  0  0  0  0  0  0  0
   10.5036  -15.0914   20.6035 C   0  0  0  0  0  0  0  0  0  0  0  0
    9.3412  -14.3123   20.2397 C   0  0  0  0  0  0  0  0  0  0  0  0
    8.0407  -14.7670   20.2147 C   0  0  0  0  0  0  0  0  0  0  0  0
    6.9812  -13.9673   19.8646 C   0  0  0  0  0  0  0  0  0  0  0  0
    7.1963  -12.6474   19.5181 C   0  0  0  0  0  0  0  0  0  0  0  0
    8.4865  -12.1607   19.5331 C   0  0  0  0  0  0  0  0  0  0  0  0
    9.5248  -12.9877   19.8884 C   0  0  0  0  0  0  0  0  0  0  0  0
   12.8432  -15.6756   20.4011 C   0  0  0  0  0  0  0  0  0  0  0  0
   12.8420  -16.9210   20.5513 O   0  0  0  0  0  0  0  0  0  0  0  0
   16.5636  -13.4212   19.1106 N   0  0  0  0  0  0  0  0  0  0  0  0
   16.5500  -14.7286   19.7042 C   0  0  0  0  0  0  0  0  0  0  0  0
   16.7224  -15.6659   18.8617 O   0  0  0  0  0  0  0  0  0  0  0  0
   16.3530  -14.9223   21.1509 C   0  0  0  0  0  0  0  0  0  0  0  0
   15.0869  -15.6633   21.4212 C   0  0  2  0  0  0  0  0  0  0  0  0
   13.9315  -14.9321   20.8894 N   0  0  0  0  0  0  0  0  0  0  0  0
   14.8584  -15.6942   22.9081 C   0  0  0  0  0  0  0  0  0  0  0  0
   15.7106  -16.1027   23.7169 O   0  0  0  0  0  0  0  0  0  0  0  0
   13.6575  -15.2564   23.4423 O   0  0  0  0  0  0  0  0  0  0  0  0
  2  6  1  0
  2  1  1  6
  2  3  1  0
  4  8  1  0
  4  3  1  0
  5  4  2  0
  6  9  1  0
  7  6  2  0
  9 10  1  0
 10 11  1  1
 11 12  1  0
 12 17  2  0
 12 13  1  0
 13 14  2  0
 14 15  1  0
 16 15  2  0
 17 16  1  0
 18 19  2  0
 18 10  1  0
 21 20  1  0
 21 23  1  0
 22 21  2  0
 24 23  1  1
 24 25  1  0
 25 18  1  0
 26 24  1  0
 27 26  2  0
 28 26  1  0
M  END
$$$$
