PAE.pdb
     RDKit          3D

 22 22  0  0  1  0  0  0  0  0999 V2000
    7.2630  -15.0544   20.3866 N   0  0  0  0  0  0  0  0  0  0  0  0
    6.8159  -14.6400   19.0833 C   0  0  0  0  0  0  0  0  0  0  0  0
    7.6850  -13.4805   18.6497 C   0  0  0  0  0  0  0  0  0  0  0  0
    8.3001  -13.0621   19.9664 C   0  0  0  0  0  0  0  0  0  0  0  0
    8.5498  -14.4225   20.6057 C   0  0  1  0  0  0  0  0  0  0  0  0
    8.8966  -14.3149   22.0231 C   0  0  0  0  0  0  0  0  0  0  0  0
   10.0538  -13.9575   22.3570 O   0  0  0  0  0  0  0  0  0  0  0  0
    7.0716  -13.9511   25.2106 C   0  0  0  0  0  0  0  0  0  0  0  0
    8.2165  -14.5527   24.4335 C   0  0  2  0  0  0  0  0  0  0  0  0
    7.9497  -14.6066   23.0165 N   0  0  0  0  0  0  0  0  0  0  0  0
    8.5588  -15.9119   24.9053 C   0  0  0  0  0  0  0  0  0  0  0  0
    7.7999  -16.8764   24.6688 O   0  0  0  0  0  0  0  0  0  0  0  0
    9.7450  -16.0922   25.6176 N   0  0  0  0  0  0  0  0  0  0  0  0
   10.2620  -17.4239   26.0345 C   0  0  1  0  0  0  0  0  0  0  0  0
   11.6125  -17.4802   25.4426 C   0  0  0  0  0  0  0  0  0  0  0  0
   11.8154  -17.5249   23.9969 C   0  0  0  0  0  0  0  0  0  0  0  0
   13.2404  -17.5727   23.6323 C   0  0  0  0  0  0  0  0  0  0  0  0
   14.0382  -18.4834   23.9658 O   0  0  0  0  0  0  0  0  0  0  0  0
   10.1017  -17.4831   27.4692 C   0  0  0  0  0  0  0  0  0  0  0  0
    9.8931  -16.3962   28.1145 O   0  0  0  0  0  0  0  0  0  0  0  0
   13.7111  -16.5034   22.8486 O   0  0  0  0  0  0  0  0  0  0  0  0
   10.1380  -18.5968   28.2930 O   0  0  0  0  0  0  0  0  0  0  0  0
  1  2  1  0
  1  5  1  0
  2  3  1  0
  3  4  1  0
  5  4  1  0
  6 10  1  0
  5  6  1  1
  7  6  2  0
  9  8  1  1
  9 11  1  0
  9 10  1  0
 11 13  1  0
 12 11  2  0
 13 14  1  0
 14 15  1  1
 15 16  1  0
 17 21  1  0
 17 16  1  0
 18 17  2  0
 19 14  1  0
 20 19  2  0
 22 19  1  0
M  END
$$$$
