PAE.pdb
     RDKit          3D

 22 22  0  0  1  0  0  0  0  0999 V2000
    7.5427  -15.0398   19.8768 N   0  0  0  0  0  0  0  0  0  0  0  0
    7.0082  -14.5970   18.6165 C   0  0  0  0  0  0  0  0  0  0  0  0
    7.5658  -13.2177   18.3433 C   0  0  0  0  0  0  0  0  0  0  0  0
    8.0583  -12.8196   19.7166 C   0  0  0  0  0  0  0  0  0  0  0  0
    8.6344  -14.1432   20.2042 C   0  0  1  0  0  0  0  0  0  0  0  0
    8.9432  -14.1215   21.6342 C   0  0  0  0  0  0  0  0  0  0  0  0
    9.9649  -13.5153   22.0429 O   0  0  0  0  0  0  0  0  0  0  0  0
    7.0383  -14.4967   24.7462 C   0  0  0  0  0  0  0  0  0  0  0  0
    8.3147  -14.7589   23.9854 C   0  0  2  0  0  0  0  0  0  0  0  0
    8.1096  -14.7710   22.5572 N   0  0  0  0  0  0  0  0  0  0  0  0
    8.9520  -16.0321   24.3854 C   0  0  0  0  0  0  0  0  0  0  0  0
    8.2552  -17.0323   24.6612 O   0  0  0  0  0  0  0  0  0  0  0  0
   10.3448  -16.0909   24.4468 N   0  0  0  0  0  0  0  0  0  0  0  0
   11.0991  -17.2783   24.9324 C   0  0  1  0  0  0  0  0  0  0  0  0
   12.4964  -16.9867   24.5585 C   0  0  0  0  0  0  0  0  0  0  0  0
   12.8861  -16.7503   23.1708 C   0  0  0  0  0  0  0  0  0  0  0  0
   14.3188  -16.4421   23.0358 C   0  0  0  0  0  0  0  0  0  0  0  0
   15.1113  -16.2703   23.9948 O   0  0  0  0  0  0  0  0  0  0  0  0
   10.7440  -17.4349   26.3242 C   0  0  0  0  0  0  0  0  0  0  0  0
   10.7535  -18.6087   26.8375 O   0  0  0  0  0  0  0  0  0  0  0  0
   14.8051  -16.3418   21.7195 O   0  0  0  0  0  0  0  0  0  0  0  0
   10.3798  -16.4551   27.2339 O   0  0  0  0  0  0  0  0  0  0  0  0
  1  2  1  0
  1  5  1  0
  2  3  1  0
  3  4  1  0
  5  4  1  0
  6 10  1  0
  5  6  1  1
  7  6  2  0
  9  8  1  1
  9 11  1  0
  9 10  1  0
 11 13  1  0
 12 11  2  0
 13 14  1  0
 14 15  1  1
 15 16  1  0
 17 21  1  0
 17 16  1  0
 18 17  2  0
 19 14  1  0
 20 19  2  0
 22 19  1  0
M  END
$$$$
