PAE.pdb
     RDKit          3D

 22 22  0  0  1  0  0  0  0  0999 V2000
    7.0868  -15.0459   19.9969 N   0  0  0  0  0  0  0  0  0  0  0  0
    6.4394  -14.4450   18.8611 C   0  0  0  0  0  0  0  0  0  0  0  0
    7.2818  -13.2667   18.4257 C   0  0  0  0  0  0  0  0  0  0  0  0
    8.1440  -13.0502   19.6492 C   0  0  0  0  0  0  0  0  0  0  0  0
    8.4257  -14.4918   20.0541 C   0  0  1  0  0  0  0  0  0  0  0  0
    9.0246  -14.5878   21.3857 C   0  0  0  0  0  0  0  0  0  0  0  0
   10.2577  -14.3959   21.5308 O   0  0  0  0  0  0  0  0  0  0  0  0
    7.6318  -14.6522   24.8704 C   0  0  0  0  0  0  0  0  0  0  0  0
    8.7253  -14.9091   23.8629 C   0  0  2  0  0  0  0  0  0  0  0  0
    8.2361  -14.8923   22.5057 N   0  0  0  0  0  0  0  0  0  0  0  0
    9.4163  -16.1943   24.1038 C   0  0  0  0  0  0  0  0  0  0  0  0
    8.9539  -17.2602   23.6434 O   0  0  0  0  0  0  0  0  0  0  0  0
   10.5929  -16.1891   24.8538 N   0  0  0  0  0  0  0  0  0  0  0  0
   11.3525  -17.4199   25.2042 C   0  0  1  0  0  0  0  0  0  0  0  0
   12.7448  -17.0913   24.8424 C   0  0  0  0  0  0  0  0  0  0  0  0
   13.1332  -16.8102   23.4628 C   0  0  0  0  0  0  0  0  0  0  0  0
   14.5872  -16.6390   23.3137 C   0  0  0  0  0  0  0  0  0  0  0  0
   15.3071  -15.9238   24.0536 O   0  0  0  0  0  0  0  0  0  0  0  0
   11.0169  -17.7187   26.5774 C   0  0  0  0  0  0  0  0  0  0  0  0
   10.4692  -16.8084   27.2934 O   0  0  0  0  0  0  0  0  0  0  0  0
   15.1845  -17.3457   22.2539 O   0  0  0  0  0  0  0  0  0  0  0  0
   11.2051  -18.9043   27.2698 O   0  0  0  0  0  0  0  0  0  0  0  0
  1  2  1  0
  1  5  1  0
  2  3  1  0
  3  4  1  0
  5  4  1  0
  6 10  1  0
  5  6  1  1
  7  6  2  0
  9  8  1  1
  9 11  1  0
  9 10  1  0
 11 13  1  0
 12 11  2  0
 13 14  1  0
 14 15  1  1
 15 16  1  0
 17 21  1  0
 17 16  1  0
 18 17  2  0
 19 14  1  0
 20 19  2  0
 22 19  1  0
M  END
$$$$
