PAE.pdb
     RDKit          3D

 22 22  0  0  1  0  0  0  0  0999 V2000
    6.9386  -14.6818   20.9345 N   0  0  0  0  0  0  0  0  0  0  0  0
    6.4929  -14.2432   19.6387 C   0  0  0  0  0  0  0  0  0  0  0  0
    7.4615  -13.1862   19.1564 C   0  0  0  0  0  0  0  0  0  0  0  0
    8.1600  -12.8138   20.4450 C   0  0  0  0  0  0  0  0  0  0  0  0
    8.2900  -14.1829   21.1010 C   0  0  1  0  0  0  0  0  0  0  0  0
    8.6933  -14.0904   22.5044 C   0  0  0  0  0  0  0  0  0  0  0  0
    9.9038  -13.9234   22.7962 O   0  0  0  0  0  0  0  0  0  0  0  0
    6.8782  -13.4759   25.7140 C   0  0  0  0  0  0  0  0  0  0  0  0
    8.0428  -14.0345   24.9340 C   0  0  2  0  0  0  0  0  0  0  0  0
    7.7417  -14.1859   23.5311 N   0  0  0  0  0  0  0  0  0  0  0  0
    8.4984  -15.3369   25.4663 C   0  0  0  0  0  0  0  0  0  0  0  0
    7.7628  -16.3448   25.3950 O   0  0  0  0  0  0  0  0  0  0  0  0
    9.7647  -15.4144   26.0472 N   0  0  0  0  0  0  0  0  0  0  0  0
   10.3256  -16.6596   26.6384 C   0  0  1  0  0  0  0  0  0  0  0  0
   11.5908  -16.8600   25.9060 C   0  0  0  0  0  0  0  0  0  0  0  0
   11.6108  -17.1592   24.4765 C   0  0  0  0  0  0  0  0  0  0  0  0
   12.9792  -17.2794   23.9483 C   0  0  0  0  0  0  0  0  0  0  0  0
   14.0270  -17.1209   24.6221 O   0  0  0  0  0  0  0  0  0  0  0  0
   10.3468  -16.4485   28.0676 C   0  0  0  0  0  0  0  0  0  0  0  0
   10.1927  -15.2601   28.5206 O   0  0  0  0  0  0  0  0  0  0  0  0
   13.0855  -17.5994   22.5824 O   0  0  0  0  0  0  0  0  0  0  0  0
   10.5136  -17.3877   29.0728 O   0  0  0  0  0  0  0  0  0  0  0  0
  1  2  1  0
  1  5  1  0
  2  3  1  0
  3  4  1  0
  5  4  1  0
  6 10  1  0
  5  6  1  1
  7  6  2  0
  9  8  1  1
  9 11  1  0
  9 10  1  0
 11 13  1  0
 12 11  2  0
 13 14  1  0
 14 15  1  6
 15 16  1  0
 17 21  1  0
 17 16  1  0
 18 17  2  0
 19 14  1  0
 20 19  2  0
 22 19  1  0
M  END
$$$$
