PAE.pdb
     RDKit          3D

 22 22  0  0  1  0  0  0  0  0999 V2000
    7.2439  -15.1265   19.3207 N   0  0  0  0  0  0  0  0  0  0  0  0
    6.5471  -14.5804   18.1865 C   0  0  0  0  0  0  0  0  0  0  0  0
    7.2940  -13.3414   17.7450 C   0  0  0  0  0  0  0  0  0  0  0  0
    8.1417  -13.0558   18.9644 C   0  0  0  0  0  0  0  0  0  0  0  0
    8.5360  -14.4703   19.3711 C   0  0  1  0  0  0  0  0  0  0  0  0
    9.1460  -14.5164   20.7003 C   0  0  0  0  0  0  0  0  0  0  0  0
   10.3695  -14.2649   20.8346 O   0  0  0  0  0  0  0  0  0  0  0  0
    7.7843  -14.8320   24.2093 C   0  0  0  0  0  0  0  0  0  0  0  0
    8.8874  -14.8534   23.1800 C   0  0  2  0  0  0  0  0  0  0  0  0
    8.3786  -14.8387   21.8299 N   0  0  0  0  0  0  0  0  0  0  0  0
    9.7784  -16.0229   23.3401 C   0  0  0  0  0  0  0  0  0  0  0  0
    9.4950  -17.1156   22.8039 O   0  0  0  0  0  0  0  0  0  0  0  0
   10.9393  -15.8783   24.1006 N   0  0  0  0  0  0  0  0  0  0  0  0
   11.9408  -16.9626   24.2905 C   0  0  1  0  0  0  0  0  0  0  0  0
   13.2375  -16.2819   24.1103 C   0  0  0  0  0  0  0  0  0  0  0  0
   14.5049  -16.9850   24.2916 C   0  0  0  0  0  0  0  0  0  0  0  0
   15.5127  -16.5893   23.2948 C   0  0  0  0  0  0  0  0  0  0  0  0
   16.4717  -15.8082   23.5122 O   0  0  0  0  0  0  0  0  0  0  0  0
   11.6228  -17.5824   25.5563 C   0  0  0  0  0  0  0  0  0  0  0  0
   10.9715  -16.9084   26.4297 O   0  0  0  0  0  0  0  0  0  0  0  0
   15.3624  -17.1484   22.0125 O   0  0  0  0  0  0  0  0  0  0  0  0
   11.9293  -18.8633   25.9873 O   0  0  0  0  0  0  0  0  0  0  0  0
  1  2  1  0
  1  5  1  0
  2  3  1  0
  3  4  1  0
  5  4  1  0
  6 10  1  0
  5  6  1  1
  7  6  2  0
  9  8  1  1
  9 11  1  0
  9 10  1  0
 11 13  1  0
 12 11  2  0
 13 14  1  0
 14 15  1  1
 15 16  1  0
 17 21  1  0
 17 16  1  0
 18 17  2  0
 19 14  1  0
 20 19  2  0
 22 19  1  0
M  END
$$$$
