PAE.pdb
     RDKit          3D

 22 22  0  0  1  0  0  0  0  0999 V2000
    8.8089  -15.0244   20.9980 N   0  0  0  0  0  0  0  0  0  0  0  0
    8.2205  -15.8164   19.9507 C   0  0  0  0  0  0  0  0  0  0  0  0
    6.9104  -16.3632   20.4728 C   0  0  0  0  0  0  0  0  0  0  0  0
    7.0776  -16.1618   21.9623 C   0  0  0  0  0  0  0  0  0  0  0  0
    7.7715  -14.8055   21.9873 C   0  0  1  0  0  0  0  0  0  0  0  0
    8.3062  -14.4795   23.3097 C   0  0  0  0  0  0  0  0  0  0  0  0
    9.4266  -14.9287   23.6580 O   0  0  0  0  0  0  0  0  0  0  0  0
    7.1094  -12.3160   26.1865 C   0  0  0  0  0  0  0  0  0  0  0  0
    8.0290  -13.3091   25.5193 C   0  0  2  0  0  0  0  0  0  0  0  0
    7.5809  -13.6687   24.1958 N   0  0  0  0  0  0  0  0  0  0  0  0
    8.1926  -14.5430   26.3180 C   0  0  0  0  0  0  0  0  0  0  0  0
    7.2998  -15.4174   26.3264 O   0  0  0  0  0  0  0  0  0  0  0  0
    9.3635  -14.7080   27.0589 N   0  0  0  0  0  0  0  0  0  0  0  0
    9.6491  -15.9070   27.8929 C   0  0  1  0  0  0  0  0  0  0  0  0
   10.5427  -16.7214   27.0470 C   0  0  0  0  0  0  0  0  0  0  0  0
   11.8002  -16.1912   26.5264 C   0  0  0  0  0  0  0  0  0  0  0  0
   12.5409  -17.1844   25.7321 C   0  0  0  0  0  0  0  0  0  0  0  0
   12.1630  -18.3632   25.5205 O   0  0  0  0  0  0  0  0  0  0  0  0
   10.1198  -15.4063   29.1639 C   0  0  0  0  0  0  0  0  0  0  0  0
   10.4355  -16.2434   30.0809 O   0  0  0  0  0  0  0  0  0  0  0  0
   13.7590  -16.7466   25.1808 O   0  0  0  0  0  0  0  0  0  0  0  0
   10.2931  -14.0891   29.5579 O   0  0  0  0  0  0  0  0  0  0  0  0
  1  2  1  0
  1  5  1  0
  2  3  1  0
  3  4  1  0
  5  4  1  0
  6 10  1  0
  5  6  1  1
  7  6  2  0
  9  8  1  1
  9 11  1  0
  9 10  1  0
 11 13  1  0
 12 11  2  0
 13 14  1  0
 14 15  1  6
 15 16  1  0
 17 21  1  0
 17 16  1  0
 18 17  2  0
 19 14  1  0
 20 19  2  0
 22 19  1  0
M  END
$$$$
