PAE.pdb
     RDKit          3D

 22 22  0  0  1  0  0  0  0  0999 V2000
    6.5161  -15.7973   21.1626 N   0  0  0  0  0  0  0  0  0  0  0  0
    6.2431  -15.4639   19.7898 C   0  0  0  0  0  0  0  0  0  0  0  0
    7.4270  -14.6820   19.2656 C   0  0  0  0  0  0  0  0  0  0  0  0
    8.1070  -14.2745   20.5535 C   0  0  0  0  0  0  0  0  0  0  0  0
    7.9267  -15.5414   21.3806 C   0  0  1  0  0  0  0  0  0  0  0  0
    8.2561  -15.3354   22.7913 C   0  0  0  0  0  0  0  0  0  0  0  0
    9.4367  -15.5018   23.1872 O   0  0  0  0  0  0  0  0  0  0  0  0
    6.7113  -13.5445   25.6390 C   0  0  0  0  0  0  0  0  0  0  0  0
    7.5093  -14.7112   25.1112 C   0  0  2  0  0  0  0  0  0  0  0  0
    7.2666  -14.9529   23.7096 N   0  0  0  0  0  0  0  0  0  0  0  0
    7.2415  -15.9568   25.8622 C   0  0  0  0  0  0  0  0  0  0  0  0
    6.0927  -16.4481   25.8886 O   0  0  0  0  0  0  0  0  0  0  0  0
    8.2978  -16.5690   26.5378 N   0  0  0  0  0  0  0  0  0  0  0  0
    8.1655  -17.8467   27.2893 C   0  0  1  0  0  0  0  0  0  0  0  0
    8.0379  -18.8676   26.2315 C   0  0  0  0  0  0  0  0  0  0  0  0
    6.7487  -19.4650   25.8933 C   0  0  0  0  0  0  0  0  0  0  0  0
    6.8780  -20.5657   24.9249 C   0  0  0  0  0  0  0  0  0  0  0  0
    7.6426  -21.5532   25.0560 O   0  0  0  0  0  0  0  0  0  0  0  0
    9.2853  -17.8911   28.2013 C   0  0  0  0  0  0  0  0  0  0  0  0
   10.3143  -17.1689   27.9543 O   0  0  0  0  0  0  0  0  0  0  0  0
    6.0679  -20.4746   23.7783 O   0  0  0  0  0  0  0  0  0  0  0  0
    9.4179  -18.6329   29.3642 O   0  0  0  0  0  0  0  0  0  0  0  0
  1  2  1  0
  1  5  1  0
  2  3  1  0
  3  4  1  0
  5  4  1  0
  6 10  1  0
  5  6  1  1
  7  6  2  0
  9  8  1  1
  9 11  1  0
  9 10  1  0
 11 13  1  0
 12 11  2  0
 13 14  1  0
 14 15  1  6
 15 16  1  0
 17 21  1  0
 17 16  1  0
 18 17  2  0
 19 14  1  0
 20 19  2  0
 22 19  1  0
M  END
$$$$
