PAE.pdb
     RDKit          3D

 22 22  0  0  1  0  0  0  0  0999 V2000
    7.1223  -14.6847   20.0914 N   0  0  0  0  0  0  0  0  0  0  0  0
    6.6747  -14.0207   18.8961 C   0  0  0  0  0  0  0  0  0  0  0  0
    7.7081  -12.9751   18.5403 C   0  0  0  0  0  0  0  0  0  0  0  0
    8.4707  -12.8571   19.8409 C   0  0  0  0  0  0  0  0  0  0  0  0
    8.5127  -14.3166   20.2764 C   0  0  1  0  0  0  0  0  0  0  0  0
    8.9626  -14.4707   21.6602 C   0  0  0  0  0  0  0  0  0  0  0  0
   10.1916  -14.5304   21.9138 O   0  0  0  0  0  0  0  0  0  0  0  0
    7.2530  -14.0399   24.9772 C   0  0  0  0  0  0  0  0  0  0  0  0
    8.3881  -14.5239   24.1089 C   0  0  2  0  0  0  0  0  0  0  0  0
    8.0355  -14.5524   22.7101 N   0  0  0  0  0  0  0  0  0  0  0  0
    8.8631  -15.8665   24.5074 C   0  0  0  0  0  0  0  0  0  0  0  0
    8.1957  -16.8854   24.2278 O   0  0  0  0  0  0  0  0  0  0  0  0
   10.0702  -15.9691   25.1999 N   0  0  0  0  0  0  0  0  0  0  0  0
   10.7095  -17.2653   25.5546 C   0  0  1  0  0  0  0  0  0  0  0  0
   12.1247  -17.0751   25.1827 C   0  0  0  0  0  0  0  0  0  0  0  0
   12.5309  -16.8529   23.7974 C   0  0  0  0  0  0  0  0  0  0  0  0
   13.9871  -16.6911   23.6595 C   0  0  0  0  0  0  0  0  0  0  0  0
   14.6614  -15.7699   24.1828 O   0  0  0  0  0  0  0  0  0  0  0  0
   10.3552  -17.5215   26.9317 C   0  0  0  0  0  0  0  0  0  0  0  0
    9.8895  -16.5612   27.6405 O   0  0  0  0  0  0  0  0  0  0  0  0
   14.6425  -17.6600   22.8779 O   0  0  0  0  0  0  0  0  0  0  0  0
   10.4448  -18.7121   27.6351 O   0  0  0  0  0  0  0  0  0  0  0  0
  1  2  1  0
  1  5  1  0
  2  3  1  0
  3  4  1  0
  5  4  1  0
  6 10  1  0
  5  6  1  1
  7  6  2  0
  9  8  1  1
  9 11  1  0
  9 10  1  0
 11 13  1  0
 12 11  2  0
 13 14  1  0
 14 15  1  1
 15 16  1  0
 17 21  1  0
 17 16  1  0
 18 17  2  0
 19 14  1  0
 20 19  2  0
 22 19  1  0
M  END
$$$$
