PAE.pdb
     RDKit          3D

 22 22  0  0  1  0  0  0  0  0999 V2000
    7.3152  -15.1918   19.6799 N   0  0  0  0  0  0  0  0  0  0  0  0
    6.6143  -14.5608   18.5934 C   0  0  0  0  0  0  0  0  0  0  0  0
    7.3400  -13.2742   18.2679 C   0  0  0  0  0  0  0  0  0  0  0  0
    8.1757  -13.0817   19.5135 C   0  0  0  0  0  0  0  0  0  0  0  0
    8.5945  -14.5190   19.7969 C   0  0  1  0  0  0  0  0  0  0  0  0
    9.1981  -14.6709   21.1211 C   0  0  0  0  0  0  0  0  0  0  0  0
   10.4194  -14.4246   21.2822 O   0  0  0  0  0  0  0  0  0  0  0  0
    7.8105  -15.2652   24.5834 C   0  0  0  0  0  0  0  0  0  0  0  0
    8.9234  -15.1911   23.5672 C   0  0  2  0  0  0  0  0  0  0  0  0
    8.4271  -15.0893   22.2162 N   0  0  0  0  0  0  0  0  0  0  0  0
    9.8362  -16.3516   23.6526 C   0  0  0  0  0  0  0  0  0  0  0  0
    9.5637  -17.4190   23.0625 O   0  0  0  0  0  0  0  0  0  0  0  0
   11.0052  -16.2272   24.4043 N   0  0  0  0  0  0  0  0  0  0  0  0
   12.0093  -17.3155   24.5529 C   0  0  1  0  0  0  0  0  0  0  0  0
   13.2751  -16.6898   24.1242 C   0  0  0  0  0  0  0  0  0  0  0  0
   14.5496  -17.3976   24.2129 C   0  0  0  0  0  0  0  0  0  0  0  0
   15.6497  -16.6523   23.5804 C   0  0  0  0  0  0  0  0  0  0  0  0
   16.3843  -15.8189   24.1661 O   0  0  0  0  0  0  0  0  0  0  0  0
   11.8701  -17.8052   25.9051 C   0  0  0  0  0  0  0  0  0  0  0  0
   12.3084  -18.9752   26.1883 O   0  0  0  0  0  0  0  0  0  0  0  0
   15.8695  -16.9191   22.2167 O   0  0  0  0  0  0  0  0  0  0  0  0
   11.3081  -17.1644   26.9977 O   0  0  0  0  0  0  0  0  0  0  0  0
  1  2  1  0
  1  5  1  0
  2  3  1  0
  3  4  1  0
  5  4  1  0
  6 10  1  0
  5  6  1  1
  7  6  2  0
  9  8  1  1
  9 11  1  0
  9 10  1  0
 11 13  1  0
 12 11  2  0
 13 14  1  0
 14 15  1  1
 15 16  1  0
 17 21  1  0
 17 16  1  0
 18 17  2  0
 19 14  1  0
 20 19  2  0
 22 19  1  0
M  END
$$$$
