PAE.pdb
     RDKit          3D

 22 22  0  0  1  0  0  0  0  0999 V2000
    7.6054  -15.2301   18.2228 N   0  0  0  0  0  0  0  0  0  0  0  0
    7.0992  -14.8344   16.9354 C   0  0  0  0  0  0  0  0  0  0  0  0
    7.9133  -13.6478   16.4696 C   0  0  0  0  0  0  0  0  0  0  0  0
    8.5599  -13.2055   17.7633 C   0  0  0  0  0  0  0  0  0  0  0  0
    8.8772  -14.5550   18.3955 C   0  0  1  0  0  0  0  0  0  0  0  0
    9.2698  -14.4320   19.7997 C   0  0  0  0  0  0  0  0  0  0  0  0
   10.4674  -14.1926   20.0942 O   0  0  0  0  0  0  0  0  0  0  0  0
    7.3982  -14.2430   23.0709 C   0  0  0  0  0  0  0  0  0  0  0  0
    8.6274  -14.4898   22.2314 C   0  0  2  0  0  0  0  0  0  0  0  0
    8.3221  -14.5784   20.8240 N   0  0  0  0  0  0  0  0  0  0  0  0
    9.3464  -15.7158   22.6405 C   0  0  0  0  0  0  0  0  0  0  0  0
    9.0173  -16.8294   22.1785 O   0  0  0  0  0  0  0  0  0  0  0  0
   10.3978  -15.6005   23.5506 N   0  0  0  0  0  0  0  0  0  0  0  0
   11.2152  -16.7537   24.0161 C   0  0  1  0  0  0  0  0  0  0  0  0
   12.6061  -16.2833   23.8698 C   0  0  0  0  0  0  0  0  0  0  0  0
   13.5368  -16.9174   22.9397 C   0  0  0  0  0  0  0  0  0  0  0  0
   14.8591  -16.2715   22.9424 C   0  0  0  0  0  0  0  0  0  0  0  0
   15.5027  -15.9540   23.9731 O   0  0  0  0  0  0  0  0  0  0  0  0
   10.7067  -17.1017   25.3230 C   0  0  0  0  0  0  0  0  0  0  0  0
   10.0134  -16.2387   25.9678 O   0  0  0  0  0  0  0  0  0  0  0  0
   15.4167  -16.0058   21.6784 O   0  0  0  0  0  0  0  0  0  0  0  0
   10.8615  -18.2913   26.0168 O   0  0  0  0  0  0  0  0  0  0  0  0
  1  2  1  0
  1  5  1  0
  2  3  1  0
  3  4  1  0
  5  4  1  0
  6 10  1  0
  5  6  1  1
  7  6  2  0
  9  8  1  1
  9 11  1  0
  9 10  1  0
 11 13  1  0
 12 11  2  0
 13 14  1  0
 14 15  1  1
 15 16  1  0
 17 21  1  0
 17 16  1  0
 18 17  2  0
 19 14  1  0
 20 19  2  0
 22 19  1  0
M  END
$$$$
