HMK.pdb
     RDKit          3D

 28 28  0  0  1  0  0  0  0  0999 V2000
    8.0486  -16.2028   20.6519 N   0  0  0  0  0  0  0  0  0  0  0  0
    9.4201  -16.0583   21.1629 C   0  0  1  0  0  0  0  0  0  0  0  0
   10.0869  -15.0672   20.1989 C   0  0  0  0  0  0  0  0  0  0  0  0
    9.1818  -14.6176   19.1406 C   0  0  0  0  0  0  0  0  0  0  0  0
    8.5401  -13.4027   19.0739 C   0  0  0  0  0  0  0  0  0  0  0  0
    7.7866  -13.3493   17.9492 N   0  0  0  0  0  0  0  0  0  0  0  0
    7.9736  -14.5395   17.3317 C   0  0  0  0  0  0  0  0  0  0  0  0
    8.8210  -15.3033   18.0602 N   0  0  0  0  0  0  0  0  0  0  0  0
    9.4096  -15.3923   22.4807 C   0  0  0  0  0  0  0  0  0  0  0  0
   10.5262  -15.1506   23.0052 O   0  0  0  0  0  0  0  0  0  0  0  0
    5.8201  -10.6908   27.6815 C   0  0  0  0  0  0  0  0  0  0  0  0
    5.7141  -11.5589   26.0866 S   0  0  0  0  0  0  0  0  0  0  0  0
    7.1513  -12.6870   25.9407 C   0  0  0  0  0  0  0  0  0  0  0  0
    7.1797  -13.3341   24.5888 C   0  0  0  0  0  0  0  0  0  0  0  0
    8.2895  -14.3039   24.4690 C   0  0  2  0  0  0  0  0  0  0  0  0
    8.2592  -15.0105   23.1890 N   0  0  0  0  0  0  0  0  0  0  0  0
    8.3588  -15.2878   25.5938 C   0  0  0  0  0  0  0  0  0  0  0  0
    8.4070  -14.9164   26.7915 O   0  0  0  0  0  0  0  0  0  0  0  0
    8.3683  -16.6653   25.2538 N   0  0  0  0  0  0  0  0  0  0  0  0
    8.4490  -17.7543   26.2032 C   0  0  1  0  0  0  0  0  0  0  0  0
    7.5080  -18.8383   25.8999 C   0  0  0  0  0  0  0  0  0  0  0  0
    7.4474  -19.9401   26.8703 C   0  0  0  0  0  0  0  0  0  0  0  0
    7.4468  -21.3136   26.2436 C   0  0  0  0  0  0  0  0  0  0  0  0
    7.3679  -22.3945   27.3255 C   0  0  0  0  0  0  0  0  0  0  0  0
    7.5832  -23.6937   26.7638 N   0  0  0  0  0  0  0  0  0  0  0  0
    9.7277  -17.9570   26.8172 C   0  0  0  0  0  0  0  0  0  0  0  0
   10.6775  -18.4799   26.1140 O   0  0  0  0  0  0  0  0  0  0  0  0
   10.1068  -17.6654   28.1029 O   0  0  0  0  0  0  0  0  0  0  0  0
  2  9  1  0
  2  1  1  6
  3  2  1  0
  4  3  1  0
  4  5  2  0
  6  5  1  0
  7  6  1  0
  8  7  2  0
  8  4  1  0
  9 16  1  0
 10  9  2  0
 12 11  1  0
 13 12  1  0
 14 13  1  0
 15 14  1  1
 16 15  1  0
 17 18  2  0
 17 15  1  0
 19 17  1  0
 20 19  1  0
 20 26  1  0
 20 21  1  6
 22 21  1  0
 23 22  1  0
 24 23  1  0
 24 25  1  0
 26 28  1  0
 27 26  2  0
M  END
$$$$
