HMK.pdb
     RDKit          3D

 28 28  0  0  1  0  0  0  0  0999 V2000
   10.4892  -14.6746   19.9505 N   0  0  0  0  0  0  0  0  0  0  0  0
    9.2395  -14.1604   20.5307 C   0  0  1  0  0  0  0  0  0  0  0  0
    8.1355  -14.9937   19.8652 C   0  0  0  0  0  0  0  0  0  0  0  0
    8.0326  -14.7436   18.4271 C   0  0  0  0  0  0  0  0  0  0  0  0
    7.9148  -13.5168   17.8161 C   0  0  0  0  0  0  0  0  0  0  0  0
    7.8446  -13.6841   16.4735 N   0  0  0  0  0  0  0  0  0  0  0  0
    7.9205  -15.0205   16.2710 C   0  0  0  0  0  0  0  0  0  0  0  0
    8.0343  -15.6565   17.4605 N   0  0  0  0  0  0  0  0  0  0  0  0
    9.1720  -14.4801   21.9707 C   0  0  0  0  0  0  0  0  0  0  0  0
    9.8543  -15.4577   22.3693 O   0  0  0  0  0  0  0  0  0  0  0  0
    5.2327  -11.7328   26.7126 C   0  0  0  0  0  0  0  0  0  0  0  0
    6.8346  -12.0122   27.5276 S   0  0  0  0  0  0  0  0  0  0  0  0
    7.7421  -13.3069   26.6002 C   0  0  0  0  0  0  0  0  0  0  0  0
    7.7094  -13.0233   25.1285 C   0  0  0  0  0  0  0  0  0  0  0  0
    8.5240  -13.9933   24.3657 C   0  0  2  0  0  0  0  0  0  0  0  0
    8.4113  -13.7832   22.9229 N   0  0  0  0  0  0  0  0  0  0  0  0
    8.2332  -15.4228   24.6977 C   0  0  0  0  0  0  0  0  0  0  0  0
    7.1181  -15.9424   24.4505 O   0  0  0  0  0  0  0  0  0  0  0  0
    9.2718  -16.1738   25.3064 N   0  0  0  0  0  0  0  0  0  0  0  0
    9.1432  -17.5338   25.7831 C   0  0  1  0  0  0  0  0  0  0  0  0
    9.2205  -18.5211   24.7005 C   0  0  0  0  0  0  0  0  0  0  0  0
   10.5463  -18.7315   24.1030 C   0  0  0  0  0  0  0  0  0  0  0  0
   10.5130  -19.3994   22.7495 C   0  0  0  0  0  0  0  0  0  0  0  0
   11.9340  -19.5810   22.2081 C   0  0  0  0  0  0  0  0  0  0  0  0
   11.9116  -20.1962   20.9155 N   0  0  0  0  0  0  0  0  0  0  0  0
    9.6048  -17.7764   27.1178 C   0  0  0  0  0  0  0  0  0  0  0  0
    9.4799  -18.9644   27.6109 O   0  0  0  0  0  0  0  0  0  0  0  0
   10.1843  -16.8894   27.9890 O   0  0  0  0  0  0  0  0  0  0  0  0
  2  9  1  0
  2  1  1  6
  3  2  1  0
  4  3  1  0
  4  5  2  0
  6  5  1  0
  7  6  1  0
  8  7  2  0
  8  4  1  0
  9 16  1  0
 10  9  2  0
 12 11  1  0
 13 12  1  0
 14 13  1  0
 15 14  1  1
 16 15  1  0
 17 18  2  0
 17 15  1  0
 19 17  1  0
 20 19  1  0
 20 26  1  0
 20 21  1  6
 22 21  1  0
 23 22  1  0
 24 23  1  0
 24 25  1  0
 26 28  1  0
 27 26  2  0
M  END
$$$$
