HMK.pdb
     RDKit          3D

 28 28  0  0  1  0  0  0  0  0999 V2000
    7.0435  -18.5132   20.4202 N   0  0  0  0  0  0  0  0  0  0  0  0
    7.9006  -17.3575   20.1160 C   0  0  1  0  0  0  0  0  0  0  0  0
    7.3975  -16.2492   21.0511 C   0  0  0  0  0  0  0  0  0  0  0  0
    7.6622  -14.9088   20.5269 C   0  0  0  0  0  0  0  0  0  0  0  0
    8.3021  -14.6027   19.3483 C   0  0  0  0  0  0  0  0  0  0  0  0
    8.3612  -13.2572   19.2010 N   0  0  0  0  0  0  0  0  0  0  0  0
    7.7531  -12.7462   20.2973 C   0  0  0  0  0  0  0  0  0  0  0  0
    7.3318  -13.7540   21.0967 N   0  0  0  0  0  0  0  0  0  0  0  0
    9.2930  -17.6285   20.5262 C   0  0  0  0  0  0  0  0  0  0  0  0
    9.4604  -18.4446   21.4677 O   0  0  0  0  0  0  0  0  0  0  0  0
   15.3355  -18.6394   17.3525 C   0  0  0  0  0  0  0  0  0  0  0  0
   15.3705  -17.1577   18.4069 S   0  0  0  0  0  0  0  0  0  0  0  0
   14.1846  -17.3947   19.7843 C   0  0  0  0  0  0  0  0  0  0  0  0
   12.7994  -17.0085   19.3609 C   0  0  0  0  0  0  0  0  0  0  0  0
   11.8000  -17.3239   20.4040 C   0  0  2  0  0  0  0  0  0  0  0  0
   10.4363  -17.0509   19.9518 N   0  0  0  0  0  0  0  0  0  0  0  0
   12.0510  -16.6401   21.7107 C   0  0  0  0  0  0  0  0  0  0  0  0
   11.1761  -15.9274   22.2597 O   0  0  0  0  0  0  0  0  0  0  0  0
   13.3233  -16.8284   22.3099 N   0  0  0  0  0  0  0  0  0  0  0  0
   13.5501  -17.0716   23.7181 C   0  0  1  0  0  0  0  0  0  0  0  0
   12.4635  -17.8358   24.3410 C   0  0  0  0  0  0  0  0  0  0  0  0
   12.6178  -18.1432   25.7696 C   0  0  0  0  0  0  0  0  0  0  0  0
   11.4202  -18.8252   26.3858 C   0  0  0  0  0  0  0  0  0  0  0  0
   11.7203  -19.2280   27.8325 C   0  0  0  0  0  0  0  0  0  0  0  0
   10.6365  -19.9818   28.3864 N   0  0  0  0  0  0  0  0  0  0  0  0
   14.9209  -17.1571   24.1266 C   0  0  0  0  0  0  0  0  0  0  0  0
   15.6553  -18.1024   23.6399 O   0  0  0  0  0  0  0  0  0  0  0  0
   15.5972  -16.3452   25.0013 O   0  0  0  0  0  0  0  0  0  0  0  0
  2  9  1  0
  2  1  1  1
  3  2  1  0
  4  3  1  0
  4  5  2  0
  6  5  1  0
  7  6  1  0
  8  7  2  0
  8  4  1  0
  9 16  1  0
 10  9  2  0
 12 11  1  0
 13 12  1  0
 14 13  1  0
 15 14  1  6
 16 15  1  0
 17 18  2  0
 17 15  1  0
 19 17  1  0
 20 19  1  0
 20 26  1  0
 20 21  1  6
 22 21  1  0
 23 22  1  0
 24 23  1  0
 24 25  1  0
 26 28  1  0
 27 26  2  0
M  END
$$$$
