HMK.pdb
     RDKit          3D

 28 28  0  0  1  0  0  0  0  0999 V2000
   10.1685  -16.0187   19.5378 N   0  0  0  0  0  0  0  0  0  0  0  0
    8.9120  -16.0579   20.3012 C   0  0  1  0  0  0  0  0  0  0  0  0
    8.5054  -17.5381   20.2963 C   0  0  0  0  0  0  0  0  0  0  0  0
    7.9126  -17.9535   19.0245 C   0  0  0  0  0  0  0  0  0  0  0  0
    7.7901  -17.1863   17.8894 C   0  0  0  0  0  0  0  0  0  0  0  0
    7.1897  -17.9114   16.9150 N   0  0  0  0  0  0  0  0  0  0  0  0
    6.9476  -19.1248   17.4642 C   0  0  0  0  0  0  0  0  0  0  0  0
    7.3887  -19.1428   18.7438 N   0  0  0  0  0  0  0  0  0  0  0  0
    9.1594  -15.7135   21.7156 C   0  0  0  0  0  0  0  0  0  0  0  0
   10.2569  -16.0797   22.2071 O   0  0  0  0  0  0  0  0  0  0  0  0
    6.8665  -12.1943   28.4507 C   0  0  0  0  0  0  0  0  0  0  0  0
    6.4618  -12.5116   26.7060 S   0  0  0  0  0  0  0  0  0  0  0  0
    7.6858  -13.6969   26.0303 C   0  0  0  0  0  0  0  0  0  0  0  0
    7.4720  -13.8960   24.5600 C   0  0  0  0  0  0  0  0  0  0  0  0
    8.5256  -14.7450   23.9635 C   0  0  2  0  0  0  0  0  0  0  0  0
    8.2718  -15.0142   22.5487 N   0  0  0  0  0  0  0  0  0  0  0  0
    8.7549  -16.0300   24.6945 C   0  0  0  0  0  0  0  0  0  0  0  0
    7.9344  -16.9775   24.6339 O   0  0  0  0  0  0  0  0  0  0  0  0
    9.9421  -16.1380   25.4641 N   0  0  0  0  0  0  0  0  0  0  0  0
   10.3240  -17.2959   26.2432 C   0  0  1  0  0  0  0  0  0  0  0  0
   11.2129  -18.2026   25.5081 C   0  0  0  0  0  0  0  0  0  0  0  0
   11.6791  -19.3911   26.2357 C   0  0  0  0  0  0  0  0  0  0  0  0
   12.5487  -20.3135   25.4159 C   0  0  0  0  0  0  0  0  0  0  0  0
   12.9595  -21.5355   26.2425 C   0  0  0  0  0  0  0  0  0  0  0  0
   13.7346  -22.4457   25.4548 N   0  0  0  0  0  0  0  0  0  0  0  0
   10.3743  -17.1073   27.6627 C   0  0  0  0  0  0  0  0  0  0  0  0
   10.6165  -15.9244   28.1230 O   0  0  0  0  0  0  0  0  0  0  0  0
   10.1969  -18.0437   28.6493 O   0  0  0  0  0  0  0  0  0  0  0  0
  2  9  1  0
  2  1  1  6
  3  2  1  0
  4  3  1  0
  4  5  2  0
  6  5  1  0
  7  6  1  0
  8  7  2  0
  8  4  1  0
  9 16  1  0
 10  9  2  0
 12 11  1  0
 13 12  1  0
 14 13  1  0
 15 14  1  1
 16 15  1  0
 17 18  2  0
 17 15  1  0
 19 17  1  0
 20 19  1  0
 20 26  1  0
 20 21  1  6
 22 21  1  0
 23 22  1  0
 24 23  1  0
 24 25  1  0
 26 28  1  0
 27 26  2  0
M  END
$$$$
