HMK.pdb
     RDKit          3D

 28 28  0  0  1  0  0  0  0  0999 V2000
    9.9724  -16.1366   19.7464 N   0  0  0  0  0  0  0  0  0  0  0  0
    8.6617  -16.0458   20.4071 C   0  0  1  0  0  0  0  0  0  0  0  0
    8.1382  -17.4887   20.4225 C   0  0  0  0  0  0  0  0  0  0  0  0
    7.6830  -17.9351   19.1053 C   0  0  0  0  0  0  0  0  0  0  0  0
    7.8270  -17.2577   17.9168 C   0  0  0  0  0  0  0  0  0  0  0  0
    7.2808  -17.9842   16.9121 N   0  0  0  0  0  0  0  0  0  0  0  0
    6.8033  -19.1081   17.4966 C   0  0  0  0  0  0  0  0  0  0  0  0
    7.0510  -19.0711   18.8268 N   0  0  0  0  0  0  0  0  0  0  0  0
    8.8259  -15.6625   21.8236 C   0  0  0  0  0  0  0  0  0  0  0  0
    9.8705  -16.0554   22.4022 O   0  0  0  0  0  0  0  0  0  0  0  0
    6.8920  -11.1002   27.9718 C   0  0  0  0  0  0  0  0  0  0  0  0
    6.3722  -11.6967   26.3340 S   0  0  0  0  0  0  0  0  0  0  0  0
    7.4923  -13.0559   25.8265 C   0  0  0  0  0  0  0  0  0  0  0  0
    7.2017  -13.4820   24.4189 C   0  0  0  0  0  0  0  0  0  0  0  0
    8.0830  -14.5888   23.9888 C   0  0  2  0  0  0  0  0  0  0  0  0
    7.9140  -14.8992   22.5698 N   0  0  0  0  0  0  0  0  0  0  0  0
    7.9349  -15.8338   24.8049 C   0  0  0  0  0  0  0  0  0  0  0  0
    7.0735  -16.7035   24.5289 O   0  0  0  0  0  0  0  0  0  0  0  0
    8.8102  -15.9955   25.9099 N   0  0  0  0  0  0  0  0  0  0  0  0
    9.5478  -17.2023   26.2152 C   0  0  1  0  0  0  0  0  0  0  0  0
    9.8529  -17.9951   25.0190 C   0  0  0  0  0  0  0  0  0  0  0  0
   10.5396  -19.2748   25.2422 C   0  0  0  0  0  0  0  0  0  0  0  0
   10.7896  -20.0678   23.9820 C   0  0  0  0  0  0  0  0  0  0  0  0
   11.9977  -20.9914   24.1627 C   0  0  0  0  0  0  0  0  0  0  0  0
   11.6461  -22.3504   23.8815 N   0  0  0  0  0  0  0  0  0  0  0  0
   10.3933  -17.1447   27.3706 C   0  0  0  0  0  0  0  0  0  0  0  0
   10.9021  -18.2434   27.8222 O   0  0  0  0  0  0  0  0  0  0  0  0
   10.7559  -16.0423   28.1019 O   0  0  0  0  0  0  0  0  0  0  0  0
  2  9  1  0
  2  1  1  6
  3  2  1  0
  4  3  1  0
  4  5  2  0
  6  5  1  0
  7  6  1  0
  8  7  2  0
  8  4  1  0
  9 16  1  0
 10  9  2  0
 12 11  1  0
 13 12  1  0
 14 13  1  0
 15 14  1  1
 16 15  1  0
 17 18  2  0
 17 15  1  0
 19 17  1  0
 20 19  1  0
 20 26  1  0
 20 21  1  6
 22 21  1  0
 23 22  1  0
 24 23  1  0
 24 25  1  0
 26 28  1  0
 27 26  2  0
M  END
$$$$
