HMK.pdb
     RDKit          3D

 28 28  0  0  1  0  0  0  0  0999 V2000
    8.7955  -16.7114   19.5874 N   0  0  0  0  0  0  0  0  0  0  0  0
    7.8722  -16.4931   20.7111 C   0  0  1  0  0  0  0  0  0  0  0  0
    7.4409  -17.9043   21.1339 C   0  0  0  0  0  0  0  0  0  0  0  0
    6.5819  -18.5503   20.1408 C   0  0  0  0  0  0  0  0  0  0  0  0
    6.1546  -18.0074   18.9513 C   0  0  0  0  0  0  0  0  0  0  0  0
    5.3744  -18.9025   18.2990 N   0  0  0  0  0  0  0  0  0  0  0  0
    5.3295  -19.9938   19.0989 C   0  0  0  0  0  0  0  0  0  0  0  0
    6.0642  -19.7727   20.2141 N   0  0  0  0  0  0  0  0  0  0  0  0
    8.5957  -15.9300   21.8685 C   0  0  0  0  0  0  0  0  0  0  0  0
    9.8103  -16.2330   21.9829 O   0  0  0  0  0  0  0  0  0  0  0  0
    5.5296  -12.6063   27.7330 C   0  0  0  0  0  0  0  0  0  0  0  0
    7.0011  -12.2893   26.7119 S   0  0  0  0  0  0  0  0  0  0  0  0
    7.0279  -13.5008   25.3367 C   0  0  0  0  0  0  0  0  0  0  0  0
    8.1992  -13.2507   24.4352 C   0  0  0  0  0  0  0  0  0  0  0  0
    8.7987  -14.5135   23.9531 C   0  0  2  0  0  0  0  0  0  0  0  0
    8.0381  -15.0887   22.8443 N   0  0  0  0  0  0  0  0  0  0  0  0
    8.9946  -15.5394   25.0242 C   0  0  0  0  0  0  0  0  0  0  0  0
    8.0393  -16.2261   25.4609 O   0  0  0  0  0  0  0  0  0  0  0  0
   10.3090  -15.7079   25.5314 N   0  0  0  0  0  0  0  0  0  0  0  0
   10.7194  -16.7539   26.4430 C   0  0  1  0  0  0  0  0  0  0  0  0
   11.7548  -17.6240   25.8743 C   0  0  0  0  0  0  0  0  0  0  0  0
   11.2824  -18.7931   25.1200 C   0  0  0  0  0  0  0  0  0  0  0  0
   12.3884  -19.6259   24.5179 C   0  0  0  0  0  0  0  0  0  0  0  0
   11.8062  -20.8372   23.7839 C   0  0  0  0  0  0  0  0  0  0  0  0
   12.8485  -21.6372   23.2152 N   0  0  0  0  0  0  0  0  0  0  0  0
   10.6152  -16.4455   27.8385 C   0  0  0  0  0  0  0  0  0  0  0  0
   10.9861  -17.3348   28.6995 O   0  0  0  0  0  0  0  0  0  0  0  0
   10.1555  -15.2912   28.4198 O   0  0  0  0  0  0  0  0  0  0  0  0
  2  9  1  0
  2  1  1  6
  3  2  1  0
  4  3  1  0
  4  5  2  0
  6  5  1  0
  7  6  1  0
  8  7  2  0
  8  4  1  0
  9 16  1  0
 10  9  2  0
 12 11  1  0
 13 12  1  0
 14 13  1  0
 15 14  1  1
 16 15  1  0
 17 18  2  0
 17 15  1  0
 19 17  1  0
 20 19  1  0
 20 26  1  0
 20 21  1  6
 22 21  1  0
 23 22  1  0
 24 23  1  0
 24 25  1  0
 26 28  1  0
 27 26  2  0
M  END
$$$$
