HMK.pdb
     RDKit          3D

 28 28  0  0  1  0  0  0  0  0999 V2000
   10.5650  -15.0816   21.1960 N   0  0  0  0  0  0  0  0  0  0  0  0
    9.2334  -14.6192   21.6155 C   0  0  1  0  0  0  0  0  0  0  0  0
    8.2548  -15.4721   20.7963 C   0  0  0  0  0  0  0  0  0  0  0  0
    8.0021  -14.9159   19.4666 C   0  0  0  0  0  0  0  0  0  0  0  0
    8.6488  -13.8476   18.8899 C   0  0  0  0  0  0  0  0  0  0  0  0
    8.1428  -13.6254   17.6529 N   0  0  0  0  0  0  0  0  0  0  0  0
    7.1839  -14.5654   17.4802 C   0  0  0  0  0  0  0  0  0  0  0  0
    7.1044  -15.3443   18.5844 N   0  0  0  0  0  0  0  0  0  0  0  0
    8.9888  -14.9718   23.0283 C   0  0  0  0  0  0  0  0  0  0  0  0
    9.8278  -15.7283   23.5797 O   0  0  0  0  0  0  0  0  0  0  0  0
    6.5253   -9.8772   26.9448 C   0  0  0  0  0  0  0  0  0  0  0  0
    5.9146  -11.5884   26.8594 S   0  0  0  0  0  0  0  0  0  0  0  0
    7.1042  -12.5835   25.8825 C   0  0  0  0  0  0  0  0  0  0  0  0
    6.6861  -14.0227   25.8484 C   0  0  0  0  0  0  0  0  0  0  0  0
    7.7102  -14.8754   25.2075 C   0  0  2  0  0  0  0  0  0  0  0  0
    7.9010  -14.5316   23.7989 N   0  0  0  0  0  0  0  0  0  0  0  0
    7.4500  -16.3422   25.3444 C   0  0  0  0  0  0  0  0  0  0  0  0
    6.5956  -16.9282   24.6363 O   0  0  0  0  0  0  0  0  0  0  0  0
    8.2098  -17.0506   26.3109 N   0  0  0  0  0  0  0  0  0  0  0  0
    8.2647  -18.4915   26.4305 C   0  0  1  0  0  0  0  0  0  0  0  0
    8.1955  -19.1688   25.1309 C   0  0  0  0  0  0  0  0  0  0  0  0
    8.2688  -20.6362   25.1553 C   0  0  0  0  0  0  0  0  0  0  0  0
    8.1993  -21.2792   23.7911 C   0  0  0  0  0  0  0  0  0  0  0  0
    8.3027  -22.8023   23.9125 C   0  0  0  0  0  0  0  0  0  0  0  0
    8.4712  -23.4053   22.6249 N   0  0  0  0  0  0  0  0  0  0  0  0
    8.9902  -18.9997   27.5568 C   0  0  0  0  0  0  0  0  0  0  0  0
    8.8595  -20.2473   27.8671 O   0  0  0  0  0  0  0  0  0  0  0  0
    9.8407  -18.3224   28.3933 O   0  0  0  0  0  0  0  0  0  0  0  0
  2  9  1  0
  2  1  1  6
  3  2  1  0
  4  3  1  0
  4  5  2  0
  6  5  1  0
  7  6  1  0
  8  7  2  0
  8  4  1  0
  9 16  1  0
 10  9  2  0
 12 11  1  0
 13 12  1  0
 14 13  1  0
 15 14  1  6
 16 15  1  0
 17 18  2  0
 17 15  1  0
 19 17  1  0
 20 19  1  0
 20 26  1  0
 20 21  1  6
 22 21  1  0
 23 22  1  0
 24 23  1  0
 24 25  1  0
 26 28  1  0
 27 26  2  0
M  END
$$$$
