HMK.pdb
     RDKit          3D

 28 28  0  0  1  0  0  0  0  0999 V2000
    7.6187  -16.3237   20.2385 N   0  0  0  0  0  0  0  0  0  0  0  0
    9.0196  -16.4245   20.6746 C   0  0  1  0  0  0  0  0  0  0  0  0
    9.7882  -15.5071   19.7135 C   0  0  0  0  0  0  0  0  0  0  0  0
    8.9294  -14.4975   19.0932 C   0  0  0  0  0  0  0  0  0  0  0  0
    8.8937  -13.1560   19.3954 C   0  0  0  0  0  0  0  0  0  0  0  0
    7.9738  -12.5400   18.6145 N   0  0  0  0  0  0  0  0  0  0  0  0
    7.4498  -13.5150   17.8350 C   0  0  0  0  0  0  0  0  0  0  0  0
    8.0343  -14.6994   18.1311 N   0  0  0  0  0  0  0  0  0  0  0  0
    9.1840  -15.8296   22.0161 C   0  0  0  0  0  0  0  0  0  0  0  0
   10.3578  -15.7318   22.4554 O   0  0  0  0  0  0  0  0  0  0  0  0
    6.6432  -11.3701   27.9870 C   0  0  0  0  0  0  0  0  0  0  0  0
    6.2658  -12.0540   26.3444 S   0  0  0  0  0  0  0  0  0  0  0  0
    7.5152  -13.3345   25.9454 C   0  0  0  0  0  0  0  0  0  0  0  0
    7.3135  -13.8536   24.5536 C   0  0  0  0  0  0  0  0  0  0  0  0
    8.3346  -14.8599   24.1911 C   0  0  2  0  0  0  0  0  0  0  0  0
    8.1403  -15.3680   22.8337 N   0  0  0  0  0  0  0  0  0  0  0  0
    8.4304  -16.0005   25.1544 C   0  0  0  0  0  0  0  0  0  0  0  0
    7.4486  -16.7445   25.3937 O   0  0  0  0  0  0  0  0  0  0  0  0
    9.6805  -16.2110   25.7915 N   0  0  0  0  0  0  0  0  0  0  0  0
    9.9825  -17.3078   26.6856 C   0  0  1  0  0  0  0  0  0  0  0  0
   10.6336  -18.4307   26.0017 C   0  0  0  0  0  0  0  0  0  0  0  0
   11.0009  -19.5805   26.8396 C   0  0  0  0  0  0  0  0  0  0  0  0
   11.7817  -20.6484   26.1123 C   0  0  0  0  0  0  0  0  0  0  0  0
   12.0838  -21.8213   27.0495 C   0  0  0  0  0  0  0  0  0  0  0  0
   12.8432  -22.8299   26.3744 N   0  0  0  0  0  0  0  0  0  0  0  0
   10.2329  -16.9526   28.0511 C   0  0  0  0  0  0  0  0  0  0  0  0
   10.7145  -15.7815   28.3090 O   0  0  0  0  0  0  0  0  0  0  0  0
   10.0284  -17.7109   29.1757 O   0  0  0  0  0  0  0  0  0  0  0  0
  2  9  1  0
  2  1  1  6
  3  2  1  0
  4  3  1  0
  4  5  2  0
  6  5  1  0
  7  6  1  0
  8  7  2  0
  8  4  1  0
  9 16  1  0
 10  9  2  0
 12 11  1  0
 13 12  1  0
 14 13  1  0
 15 14  1  1
 16 15  1  0
 17 18  2  0
 17 15  1  0
 19 17  1  0
 20 19  1  0
 20 26  1  0
 20 21  1  6
 22 21  1  0
 23 22  1  0
 24 23  1  0
 24 25  1  0
 26 28  1  0
 27 26  2  0
M  END
$$$$
