HMK.pdb
     RDKit          3D

 28 28  0  0  1  0  0  0  0  0999 V2000
   10.5129  -15.9266   20.5763 N   0  0  0  0  0  0  0  0  0  0  0  0
    9.3750  -16.4874   21.3203 C   0  0  1  0  0  0  0  0  0  0  0  0
    9.5198  -18.0067   21.1562 C   0  0  0  0  0  0  0  0  0  0  0  0
    9.1778  -18.4611   19.8079 C   0  0  0  0  0  0  0  0  0  0  0  0
    9.6124  -17.9115   18.6242 C   0  0  0  0  0  0  0  0  0  0  0  0
    9.0852  -18.6009   17.5839 N   0  0  0  0  0  0  0  0  0  0  0  0
    8.3270  -19.5738   18.1418 C   0  0  0  0  0  0  0  0  0  0  0  0
    8.3881  -19.4826   19.4909 N   0  0  0  0  0  0  0  0  0  0  0  0
    9.5255  -16.2228   22.7652 C   0  0  0  0  0  0  0  0  0  0  0  0
   10.6826  -16.3266   23.2454 O   0  0  0  0  0  0  0  0  0  0  0  0
    6.3891  -10.9051   25.9238 C   0  0  0  0  0  0  0  0  0  0  0  0
    6.2618  -12.6741   26.3272 S   0  0  0  0  0  0  0  0  0  0  0  0
    7.5204  -13.5854   25.3549 C   0  0  0  0  0  0  0  0  0  0  0  0
    7.5131  -15.0408   25.7139 C   0  0  0  0  0  0  0  0  0  0  0  0
    8.6411  -15.7646   25.0892 C   0  0  2  0  0  0  0  0  0  0  0  0
    8.4856  -15.8670   23.6387 N   0  0  0  0  0  0  0  0  0  0  0  0
    8.8900  -17.1193   25.6729 C   0  0  0  0  0  0  0  0  0  0  0  0
    8.5749  -18.1682   25.0603 O   0  0  0  0  0  0  0  0  0  0  0  0
    9.4992  -17.1744   26.9531 N   0  0  0  0  0  0  0  0  0  0  0  0
   10.3887  -18.2224   27.4049 C   0  0  1  0  0  0  0  0  0  0  0  0
   11.2293  -18.7533   26.3259 C   0  0  0  0  0  0  0  0  0  0  0  0
   12.1010  -19.8838   26.6743 C   0  0  0  0  0  0  0  0  0  0  0  0
   12.9617  -20.3721   25.5341 C   0  0  0  0  0  0  0  0  0  0  0  0
   13.9329  -21.4511   26.0218 C   0  0  0  0  0  0  0  0  0  0  0  0
   14.6909  -21.9846   24.9307 N   0  0  0  0  0  0  0  0  0  0  0  0
   10.8036  -18.1452   28.7743 C   0  0  0  0  0  0  0  0  0  0  0  0
   10.7268  -17.0076   29.3824 O   0  0  0  0  0  0  0  0  0  0  0  0
   11.2953  -19.1492   29.5692 O   0  0  0  0  0  0  0  0  0  0  0  0
  2  9  1  0
  2  1  1  6
  3  2  1  0
  4  3  1  0
  4  5  2  0
  6  5  1  0
  7  6  1  0
  8  7  2  0
  8  4  1  0
  9 16  1  0
 10  9  2  0
 12 11  1  0
 13 12  1  0
 14 13  1  0
 15 14  1  1
 16 15  1  0
 17 18  2  0
 17 15  1  0
 19 17  1  0
 20 19  1  0
 20 26  1  0
 20 21  1  6
 22 21  1  0
 23 22  1  0
 24 23  1  0
 24 25  1  0
 26 28  1  0
 27 26  2  0
M  END
$$$$
