HMK.pdb
     RDKit          3D

 28 28  0  0  1  0  0  0  0  0999 V2000
   10.3413  -16.3169   19.8674 N   0  0  0  0  0  0  0  0  0  0  0  0
    9.0557  -16.3830   20.5785 C   0  0  1  0  0  0  0  0  0  0  0  0
    8.7731  -17.8848   20.7227 C   0  0  0  0  0  0  0  0  0  0  0  0
    8.3428  -18.4987   19.4660 C   0  0  0  0  0  0  0  0  0  0  0  0
    7.5931  -17.9027   18.4787 C   0  0  0  0  0  0  0  0  0  0  0  0
    7.3935  -18.7824   17.4678 N   0  0  0  0  0  0  0  0  0  0  0  0
    8.0266  -19.9177   17.8460 C   0  0  0  0  0  0  0  0  0  0  0  0
    8.6000  -19.7380   19.0589 N   0  0  0  0  0  0  0  0  0  0  0  0
    9.2025  -15.8674   21.9543 C   0  0  0  0  0  0  0  0  0  0  0  0
   10.2716  -16.1443   22.5549 O   0  0  0  0  0  0  0  0  0  0  0  0
    6.9524  -11.1179   27.8409 C   0  0  0  0  0  0  0  0  0  0  0  0
    6.4799  -11.8133   26.2280 S   0  0  0  0  0  0  0  0  0  0  0  0
    7.6313  -13.1808   25.8233 C   0  0  0  0  0  0  0  0  0  0  0  0
    7.4232  -13.6467   24.4137 C   0  0  0  0  0  0  0  0  0  0  0  0
    8.3638  -14.7281   24.0499 C   0  0  2  0  0  0  0  0  0  0  0  0
    8.2491  -15.0978   22.6396 N   0  0  0  0  0  0  0  0  0  0  0  0
    8.2469  -15.9476   24.9085 C   0  0  0  0  0  0  0  0  0  0  0  0
    7.5398  -16.9270   24.5685 O   0  0  0  0  0  0  0  0  0  0  0  0
    8.9698  -15.9557   26.1294 N   0  0  0  0  0  0  0  0  0  0  0  0
    9.5775  -17.1250   26.7268 C   0  0  1  0  0  0  0  0  0  0  0  0
   10.0383  -18.0947   25.7268 C   0  0  0  0  0  0  0  0  0  0  0  0
   11.4258  -17.9475   25.2662 C   0  0  0  0  0  0  0  0  0  0  0  0
   11.8530  -18.9852   24.2563 C   0  0  0  0  0  0  0  0  0  0  0  0
   13.2926  -18.7277   23.8018 C   0  0  0  0  0  0  0  0  0  0  0  0
   13.6627  -19.6256   22.7499 N   0  0  0  0  0  0  0  0  0  0  0  0
   10.2158  -16.9217   27.9935 C   0  0  0  0  0  0  0  0  0  0  0  0
   10.2549  -17.9035   28.8329 O   0  0  0  0  0  0  0  0  0  0  0  0
   10.8167  -15.7832   28.4672 O   0  0  0  0  0  0  0  0  0  0  0  0
  2  9  1  0
  2  1  1  6
  3  2  1  0
  4  3  1  0
  4  5  2  0
  6  5  1  0
  7  6  1  0
  8  7  2  0
  8  4  1  0
  9 16  1  0
 10  9  2  0
 12 11  1  0
 13 12  1  0
 14 13  1  0
 15 14  1  1
 16 15  1  0
 17 18  2  0
 17 15  1  0
 19 17  1  0
 20 19  1  0
 20 26  1  0
 20 21  1  6
 22 21  1  0
 23 22  1  0
 24 23  1  0
 24 25  1  0
 26 28  1  0
 27 26  2  0
M  END
$$$$
