HMK.pdb
     RDKit          3D

 28 28  0  0  1  0  0  0  0  0999 V2000
    8.5849  -12.8522   18.9898 N   0  0  0  0  0  0  0  0  0  0  0  0
    8.0612  -14.0196   19.7151 C   0  0  1  0  0  0  0  0  0  0  0  0
    8.7615  -15.2213   19.0658 C   0  0  0  0  0  0  0  0  0  0  0  0
    8.3444  -15.4326   17.6791 C   0  0  0  0  0  0  0  0  0  0  0  0
    7.6037  -14.5684   16.9066 C   0  0  0  0  0  0  0  0  0  0  0  0
    7.4152  -15.1070   15.6778 N   0  0  0  0  0  0  0  0  0  0  0  0
    8.0459  -16.3046   15.7073 C   0  0  0  0  0  0  0  0  0  0  0  0
    8.6070  -16.4950   16.9242 N   0  0  0  0  0  0  0  0  0  0  0  0
    8.5173  -13.9989   21.1193 C   0  0  0  0  0  0  0  0  0  0  0  0
    9.7012  -13.6313   21.3279 O   0  0  0  0  0  0  0  0  0  0  0  0
    6.6829  -10.8840   27.5160 C   0  0  0  0  0  0  0  0  0  0  0  0
    6.1814  -12.3475   26.5595 S   0  0  0  0  0  0  0  0  0  0  0  0
    7.5170  -12.7525   25.3712 C   0  0  0  0  0  0  0  0  0  0  0  0
    7.1573  -13.9642   24.5653 C   0  0  0  0  0  0  0  0  0  0  0  0
    8.2271  -14.3238   23.6099 C   0  0  2  0  0  0  0  0  0  0  0  0
    7.7385  -14.3547   22.2319 N   0  0  0  0  0  0  0  0  0  0  0  0
    8.9227  -15.6081   23.9338 C   0  0  0  0  0  0  0  0  0  0  0  0
    8.5612  -16.6984   23.4286 O   0  0  0  0  0  0  0  0  0  0  0  0
   10.0132  -15.5471   24.8396 N   0  0  0  0  0  0  0  0  0  0  0  0
   10.7670  -16.6892   25.3096 C   0  0  1  0  0  0  0  0  0  0  0  0
   10.1337  -17.3505   26.4559 C   0  0  0  0  0  0  0  0  0  0  0  0
   10.7980  -18.5605   26.9598 C   0  0  0  0  0  0  0  0  0  0  0  0
   10.1095  -19.1929   28.1452 C   0  0  0  0  0  0  0  0  0  0  0  0
   10.8917  -20.4185   28.6261 C   0  0  0  0  0  0  0  0  0  0  0  0
   10.3482  -20.9206   29.8518 N   0  0  0  0  0  0  0  0  0  0  0  0
   11.5437  -17.3772   24.3213 C   0  0  0  0  0  0  0  0  0  0  0  0
   10.9425  -17.8543   23.2817 O   0  0  0  0  0  0  0  0  0  0  0  0
   12.8945  -17.6159   24.3197 O   0  0  0  0  0  0  0  0  0  0  0  0
  2  9  1  0
  2  1  1  6
  3  2  1  0
  4  3  1  0
  4  5  2  0
  6  5  1  0
  7  6  1  0
  8  7  2  0
  8  4  1  0
  9 16  1  0
 10  9  2  0
 12 11  1  0
 13 12  1  0
 14 13  1  0
 15 14  1  1
 16 15  1  0
 17 18  2  0
 17 15  1  0
 19 17  1  0
 20 19  1  0
 20 26  1  0
 20 21  1  6
 22 21  1  0
 23 22  1  0
 24 23  1  0
 24 25  1  0
 26 28  1  0
 27 26  2  0
M  END
$$$$
