HMK.pdb
     RDKit          3D

 28 28  0  0  1  0  0  0  0  0999 V2000
   10.5930  -13.7926   19.9863 N   0  0  0  0  0  0  0  0  0  0  0  0
    9.1644  -13.8819   20.3241 C   0  0  1  0  0  0  0  0  0  0  0  0
    8.6586  -15.0983   19.5362 C   0  0  0  0  0  0  0  0  0  0  0  0
    8.3995  -14.7883   18.1296 C   0  0  0  0  0  0  0  0  0  0  0  0
    8.6764  -13.6033   17.4884 C   0  0  0  0  0  0  0  0  0  0  0  0
    8.2957  -13.6904   16.1911 N   0  0  0  0  0  0  0  0  0  0  0  0
    7.7853  -14.9359   16.0467 C   0  0  0  0  0  0  0  0  0  0  0  0
    7.8517  -15.5958   17.2267 N   0  0  0  0  0  0  0  0  0  0  0  0
    8.9942  -14.2271   21.7496 C   0  0  0  0  0  0  0  0  0  0  0  0
   10.0108  -14.6455   22.3593 O   0  0  0  0  0  0  0  0  0  0  0  0
    6.9506  -11.7546   28.3688 C   0  0  0  0  0  0  0  0  0  0  0  0
    7.0511  -11.7054   26.5533 S   0  0  0  0  0  0  0  0  0  0  0  0
    6.4412  -13.3027   25.8926 C   0  0  0  0  0  0  0  0  0  0  0  0
    6.5329  -13.3249   24.3965 C   0  0  0  0  0  0  0  0  0  0  0  0
    7.7285  -14.0608   23.9321 C   0  0  2  0  0  0  0  0  0  0  0  0
    7.7951  -14.1254   22.4727 N   0  0  0  0  0  0  0  0  0  0  0  0
    7.8576  -15.4344   24.5104 C   0  0  0  0  0  0  0  0  0  0  0  0
    7.1218  -16.3789   24.1344 O   0  0  0  0  0  0  0  0  0  0  0  0
    8.8489  -15.6308   25.5063 N   0  0  0  0  0  0  0  0  0  0  0  0
    9.3399  -16.9187   25.9466 C   0  0  1  0  0  0  0  0  0  0  0  0
    8.2693  -17.7923   26.4399 C   0  0  0  0  0  0  0  0  0  0  0  0
    8.6699  -19.1429   26.8576 C   0  0  0  0  0  0  0  0  0  0  0  0
    7.5274  -20.0014   27.3443 C   0  0  0  0  0  0  0  0  0  0  0  0
    8.0428  -21.3710   27.7958 C   0  0  0  0  0  0  0  0  0  0  0  0
    8.3320  -21.3692   29.1980 N   0  0  0  0  0  0  0  0  0  0  0  0
   10.5205  -17.3971   25.2904 C   0  0  0  0  0  0  0  0  0  0  0  0
   10.3904  -18.2128   24.2966 O   0  0  0  0  0  0  0  0  0  0  0  0
   11.8290  -17.1032   25.5788 O   0  0  0  0  0  0  0  0  0  0  0  0
  2  9  1  0
  2  1  1  1
  3  2  1  0
  4  3  1  0
  4  5  2  0
  6  5  1  0
  7  6  1  0
  8  7  2  0
  8  4  1  0
  9 16  1  0
 10  9  2  0
 12 11  1  0
 13 12  1  0
 14 13  1  0
 15 14  1  6
 16 15  1  0
 17 18  2  0
 17 15  1  0
 19 17  1  0
 20 19  1  0
 20 26  1  0
 20 21  1  6
 22 21  1  0
 23 22  1  0
 24 23  1  0
 24 25  1  0
 26 28  1  0
 27 26  2  0
M  END
$$$$
