HMK.pdb
     RDKit          3D

 28 28  0  0  1  0  0  0  0  0999 V2000
    8.1993  -12.6587   19.8083 N   0  0  0  0  0  0  0  0  0  0  0  0
    8.0130  -13.9878   20.4097 C   0  0  1  0  0  0  0  0  0  0  0  0
    8.8033  -14.9365   19.4977 C   0  0  0  0  0  0  0  0  0  0  0  0
    8.1904  -15.0867   18.1774 C   0  0  0  0  0  0  0  0  0  0  0  0
    7.1214  -14.3743   17.6856 C   0  0  0  0  0  0  0  0  0  0  0  0
    6.8379  -14.7926   16.4285 N   0  0  0  0  0  0  0  0  0  0  0  0
    7.7412  -15.7640   16.1582 C   0  0  0  0  0  0  0  0  0  0  0  0
    8.5581  -15.9368   17.2236 N   0  0  0  0  0  0  0  0  0  0  0  0
    8.6753  -14.0526   21.7278 C   0  0  0  0  0  0  0  0  0  0  0  0
    9.3864  -13.0695   22.0565 O   0  0  0  0  0  0  0  0  0  0  0  0
    7.5341  -12.0519   28.1686 C   0  0  0  0  0  0  0  0  0  0  0  0
    7.0508  -12.1817   26.4199 S   0  0  0  0  0  0  0  0  0  0  0  0
    7.1433  -13.9425   25.9191 C   0  0  0  0  0  0  0  0  0  0  0  0
    7.3149  -14.0610   24.4345 C   0  0  0  0  0  0  0  0  0  0  0  0
    8.4479  -14.9438   24.0831 C   0  0  2  0  0  0  0  0  0  0  0  0
    8.5739  -15.1179   22.6366 N   0  0  0  0  0  0  0  0  0  0  0  0
    8.4078  -16.2790   24.7565 C   0  0  0  0  0  0  0  0  0  0  0  0
    7.3849  -17.0050   24.7188 O   0  0  0  0  0  0  0  0  0  0  0  0
    9.5766  -16.6966   25.4440 N   0  0  0  0  0  0  0  0  0  0  0  0
    9.7318  -17.9645   26.1236 C   0  0  1  0  0  0  0  0  0  0  0  0
   10.9005  -18.7171   25.6542 C   0  0  0  0  0  0  0  0  0  0  0  0
   11.2072  -18.6183   24.2206 C   0  0  0  0  0  0  0  0  0  0  0  0
   12.4784  -19.3232   23.8126 C   0  0  0  0  0  0  0  0  0  0  0  0
   12.7574  -19.1024   22.3231 C   0  0  0  0  0  0  0  0  0  0  0  0
   14.0127  -19.6803   21.9491 N   0  0  0  0  0  0  0  0  0  0  0  0
    9.2334  -18.0213   27.4659 C   0  0  0  0  0  0  0  0  0  0  0  0
    9.0797  -16.9160   28.1176 O   0  0  0  0  0  0  0  0  0  0  0  0
    8.8820  -19.1296   28.1937 O   0  0  0  0  0  0  0  0  0  0  0  0
  2  9  1  0
  2  1  1  6
  3  2  1  0
  4  3  1  0
  4  5  2  0
  6  5  1  0
  7  6  1  0
  8  7  2  0
  8  4  1  0
  9 16  1  0
 10  9  2  0
 12 11  1  0
 13 12  1  0
 14 13  1  0
 15 14  1  6
 16 15  1  0
 17 18  2  0
 17 15  1  0
 19 17  1  0
 20 19  1  0
 20 26  1  0
 20 21  1  1
 22 21  1  0
 23 22  1  0
 24 23  1  0
 24 25  1  0
 26 28  1  0
 27 26  2  0
M  END
$$$$
