HMK.pdb
     RDKit          3D

 28 28  0  0  1  0  0  0  0  0999 V2000
    7.7802  -17.0048   20.2821 N   0  0  0  0  0  0  0  0  0  0  0  0
    9.1653  -16.5516   20.4794 C   0  0  1  0  0  0  0  0  0  0  0  0
    9.4265  -15.5934   19.3090 C   0  0  0  0  0  0  0  0  0  0  0  0
    9.2846  -16.2455   18.0067 C   0  0  0  0  0  0  0  0  0  0  0  0
   10.1325  -17.1830   17.4642 C   0  0  0  0  0  0  0  0  0  0  0  0
    9.6756  -17.5553   16.2443 N   0  0  0  0  0  0  0  0  0  0  0  0
    8.5441  -16.8385   16.0476 C   0  0  0  0  0  0  0  0  0  0  0  0
    8.3135  -16.0464   17.1208 N   0  0  0  0  0  0  0  0  0  0  0  0
    9.2677  -15.7301   21.7021 C   0  0  0  0  0  0  0  0  0  0  0  0
   10.4116  -15.3114   22.0124 O   0  0  0  0  0  0  0  0  0  0  0  0
    6.7989  -11.0019   27.2813 C   0  0  0  0  0  0  0  0  0  0  0  0
    6.1545  -12.1807   26.0552 S   0  0  0  0  0  0  0  0  0  0  0  0
    7.4777  -13.3832   25.6516 C   0  0  0  0  0  0  0  0  0  0  0  0
    7.2557  -13.9765   24.2929 C   0  0  0  0  0  0  0  0  0  0  0  0
    8.3588  -14.8809   23.9034 C   0  0  2  0  0  0  0  0  0  0  0  0
    8.1958  -15.3824   22.5394 N   0  0  0  0  0  0  0  0  0  0  0  0
    8.5674  -16.0237   24.8461 C   0  0  0  0  0  0  0  0  0  0  0  0
    7.7046  -16.9231   24.9916 O   0  0  0  0  0  0  0  0  0  0  0  0
    9.7849  -16.0528   25.5742 N   0  0  0  0  0  0  0  0  0  0  0  0
   10.2052  -17.1280   26.4464 C   0  0  1  0  0  0  0  0  0  0  0  0
   11.2520  -17.9639   25.8479 C   0  0  0  0  0  0  0  0  0  0  0  0
   11.6987  -19.1174   26.6410 C   0  0  0  0  0  0  0  0  0  0  0  0
   12.7811  -19.9370   25.9807 C   0  0  0  0  0  0  0  0  0  0  0  0
   13.1163  -21.1647   26.8324 C   0  0  0  0  0  0  0  0  0  0  0  0
   13.9740  -22.0612   26.1179 N   0  0  0  0  0  0  0  0  0  0  0  0
   10.0940  -16.8744   27.8523 C   0  0  0  0  0  0  0  0  0  0  0  0
   10.1113  -17.8776   28.6668 O   0  0  0  0  0  0  0  0  0  0  0  0
    9.9635  -15.6660   28.4882 O   0  0  0  0  0  0  0  0  0  0  0  0
  2  9  1  0
  2  1  1  6
  3  2  1  0
  4  3  1  0
  4  5  2  0
  6  5  1  0
  7  6  1  0
  8  7  2  0
  8  4  1  0
  9 16  1  0
 10  9  2  0
 12 11  1  0
 13 12  1  0
 14 13  1  0
 15 14  1  1
 16 15  1  0
 17 18  2  0
 17 15  1  0
 19 17  1  0
 20 19  1  0
 20 26  1  0
 20 21  1  1
 22 21  1  0
 23 22  1  0
 24 23  1  0
 24 25  1  0
 26 28  1  0
 27 26  2  0
M  END
$$$$
