GLF.pdb
     RDKit          3D

 24 24  0  0  1  0  0  0  0  0999 V2000
   12.8026  -18.1745   19.3007 N   0  0  0  0  0  0  0  0  0  0  0  0
   11.5365  -18.4555   19.9230 C   0  0  0  0  0  0  0  0  0  0  0  0
   11.0804  -17.2987   20.7587 C   0  0  0  0  0  0  0  0  0  0  0  0
   11.9106  -16.7393   21.5216 O   0  0  0  0  0  0  0  0  0  0  0  0
    8.4090  -12.7767   21.4157 C   0  0  0  0  0  0  0  0  0  0  0  0
    7.5166  -13.9460   21.7511 C   0  0  1  0  0  0  0  0  0  0  0  0
    6.1266  -13.5925   21.1999 C   0  0  0  0  0  0  0  0  0  0  0  0
    7.9192  -15.2169   21.1049 C   0  0  0  0  0  0  0  0  0  0  0  0
    9.2186  -15.8115   21.5118 C   0  0  2  0  0  0  0  0  0  0  0  0
    9.7314  -16.8538   20.6797 N   0  0  0  0  0  0  0  0  0  0  0  0
    9.0160  -16.3165   22.9246 C   0  0  0  0  0  0  0  0  0  0  0  0
    8.5537  -17.4737   23.0836 O   0  0  0  0  0  0  0  0  0  0  0  0
    9.3222  -15.5482   24.0596 N   0  0  0  0  0  0  0  0  0  0  0  0
    9.2666  -16.0646   25.4174 C   0  0  1  0  0  0  0  0  0  0  0  0
    9.5286  -14.8574   26.3276 C   0  0  0  0  0  0  0  0  0  0  0  0
    8.3258  -14.0087   26.2637 C   0  0  0  0  0  0  0  0  0  0  0  0
    8.3014  -12.8080   26.9410 C   0  0  0  0  0  0  0  0  0  0  0  0
    7.1954  -11.9846   26.9070 C   0  0  0  0  0  0  0  0  0  0  0  0
    6.0654  -12.3328   26.1903 C   0  0  0  0  0  0  0  0  0  0  0  0
    6.1126  -13.5402   25.5196 C   0  0  0  0  0  0  0  0  0  0  0  0
    7.1997  -14.3780   25.5367 C   0  0  0  0  0  0  0  0  0  0  0  0
    7.9354  -16.5743   25.7670 C   0  0  0  0  0  0  0  0  0  0  0  0
    6.8997  -16.3984   24.8614 O   0  0  0  0  0  0  0  0  0  0  0  0
    7.6997  -17.1558   26.8396 O   0  0  0  0  0  0  0  0  0  0  0  0
  1  2  1  0
  3  4  2  0
  3  2  1  0
  6  5  1  6
  6  8  1  0
  7  6  1  0
  9  8  1  6
  9 11  1  0
  9 10  1  0
 10  3  1  0
 11 12  2  0
 13 11  1  0
 13 14  1  0
 14 15  1  1
 14 22  1  0
 16 15  1  0
 17 16  2  0
 18 17  1  0
 19 20  1  0
 19 18  2  0
 20 21  2  0
 21 16  1  0
 22 24  2  0
 22 23  1  0
M  END
$$$$
