GLF.pdb
     RDKit          3D

 24 24  0  0  1  0  0  0  0  0999 V2000
    5.7084  -20.2433   23.0313 N   0  0  0  0  0  0  0  0  0  0  0  0
    5.5897  -18.8282   23.2606 C   0  0  0  0  0  0  0  0  0  0  0  0
    6.6351  -18.0712   22.5000 C   0  0  0  0  0  0  0  0  0  0  0  0
    7.6761  -18.6779   22.1360 O   0  0  0  0  0  0  0  0  0  0  0  0
    7.1595  -12.5374   19.7045 C   0  0  0  0  0  0  0  0  0  0  0  0
    7.6605  -13.9211   20.0369 C   0  0  1  0  0  0  0  0  0  0  0  0
    9.1729  -13.7820   20.2692 C   0  0  0  0  0  0  0  0  0  0  0  0
    7.0898  -14.4864   21.2817 C   0  0  0  0  0  0  0  0  0  0  0  0
    7.4683  -15.8779   21.6394 C   0  0  2  0  0  0  0  0  0  0  0  0
    6.4393  -16.6938   22.2030 N   0  0  0  0  0  0  0  0  0  0  0  0
    8.6296  -15.7542   22.6027 C   0  0  0  0  0  0  0  0  0  0  0  0
    9.7803  -15.5790   22.1302 O   0  0  0  0  0  0  0  0  0  0  0  0
    8.4744  -15.8269   23.9966 N   0  0  0  0  0  0  0  0  0  0  0  0
    9.5836  -15.7492   24.9330 C   0  0  1  0  0  0  0  0  0  0  0  0
    9.8330  -14.2510   25.1517 C   0  0  0  0  0  0  0  0  0  0  0  0
    8.6134  -13.7038   25.7717 C   0  0  0  0  0  0  0  0  0  0  0  0
    8.6121  -13.3920   27.1147 C   0  0  0  0  0  0  0  0  0  0  0  0
    7.4915  -12.8779   27.7333 C   0  0  0  0  0  0  0  0  0  0  0  0
    6.3233  -12.6550   27.0281 C   0  0  0  0  0  0  0  0  0  0  0  0
    6.3480  -12.9748   25.6839 C   0  0  0  0  0  0  0  0  0  0  0  0
    7.4488  -13.4873   25.0439 C   0  0  0  0  0  0  0  0  0  0  0  0
    9.2481  -16.3159   26.2445 C   0  0  0  0  0  0  0  0  0  0  0  0
    8.0157  -16.9316   26.4047 O   0  0  0  0  0  0  0  0  0  0  0  0
   10.0225  -16.2663   27.2153 O   0  0  0  0  0  0  0  0  0  0  0  0
  1  2  1  0
  3  4  2  0
  3  2  1  0
  6  5  1  1
  6  8  1  0
  7  6  1  0
  9  8  1  1
  9 11  1  0
  9 10  1  0
 10  3  1  0
 11 12  2  0
 13 11  1  0
 13 14  1  0
 14 15  1  1
 14 22  1  0
 16 15  1  0
 17 16  2  0
 18 17  1  0
 19 20  1  0
 19 18  2  0
 20 21  2  0
 21 16  1  0
 22 24  2  0
 22 23  1  0
M  END
$$$$
