GLF.pdb
     RDKit          3D

 24 24  0  0  1  0  0  0  0  0999 V2000
    5.4758  -20.0302   22.5396 N   0  0  0  0  0  0  0  0  0  0  0  0
    5.6522  -18.7808   23.2304 C   0  0  0  0  0  0  0  0  0  0  0  0
    6.7533  -17.9754   22.6112 C   0  0  0  0  0  0  0  0  0  0  0  0
    7.8333  -18.5518   22.3190 O   0  0  0  0  0  0  0  0  0  0  0  0
    8.6258  -14.0882   19.4312 C   0  0  0  0  0  0  0  0  0  0  0  0
    8.2736  -13.5613   20.8004 C   0  0  1  0  0  0  0  0  0  0  0  0
    7.6651  -12.1683   20.5769 C   0  0  0  0  0  0  0  0  0  0  0  0
    7.2500  -14.3631   21.5103 C   0  0  0  0  0  0  0  0  0  0  0  0
    7.6302  -15.7329   21.9424 C   0  0  2  0  0  0  0  0  0  0  0  0
    6.5653  -16.5870   22.3648 N   0  0  0  0  0  0  0  0  0  0  0  0
    8.6332  -15.5483   23.0613 C   0  0  0  0  0  0  0  0  0  0  0  0
    9.7663  -15.0870   22.7764 O   0  0  0  0  0  0  0  0  0  0  0  0
    8.3503  -15.8700   24.3988 N   0  0  0  0  0  0  0  0  0  0  0  0
    9.3133  -15.7307   25.4789 C   0  0  1  0  0  0  0  0  0  0  0  0
    8.4800  -15.4836   26.7434 C   0  0  0  0  0  0  0  0  0  0  0  0
    7.8181  -14.1790   26.5673 C   0  0  0  0  0  0  0  0  0  0  0  0
    6.4674  -14.1306   26.2947 C   0  0  0  0  0  0  0  0  0  0  0  0
    5.8101  -12.9302   26.1230 C   0  0  0  0  0  0  0  0  0  0  0  0
    6.4827  -11.7259   26.2179 C   0  0  0  0  0  0  0  0  0  0  0  0
    7.8352  -11.7988   26.4917 C   0  0  0  0  0  0  0  0  0  0  0  0
    8.5135  -12.9792   26.6670 C   0  0  0  0  0  0  0  0  0  0  0  0
   10.0747  -16.9638   25.7107 C   0  0  0  0  0  0  0  0  0  0  0  0
   11.0600  -16.9605   26.6869 O   0  0  0  0  0  0  0  0  0  0  0  0
    9.8724  -18.0084   25.0688 O   0  0  0  0  0  0  0  0  0  0  0  0
  1  2  1  0
  3  4  2  0
  3  2  1  0
  6  5  1  6
  6  8  1  0
  7  6  1  0
  9  8  1  1
  9 11  1  0
  9 10  1  0
 10  3  1  0
 11 12  2  0
 13 11  1  0
 13 14  1  0
 14 15  1  1
 14 22  1  0
 16 15  1  0
 17 16  2  0
 18 17  1  0
 19 20  1  0
 19 18  2  0
 20 21  2  0
 21 16  1  0
 22 24  2  0
 22 23  1  0
M  END
$$$$
