GLF.pdb
     RDKit          3D

 24 24  0  0  1  0  0  0  0  0999 V2000
   11.2300  -18.7322   18.4685 N   0  0  0  0  0  0  0  0  0  0  0  0
   10.1699  -18.6982   19.4402 C   0  0  0  0  0  0  0  0  0  0  0  0
   10.3464  -17.5510   20.3875 C   0  0  0  0  0  0  0  0  0  0  0  0
   11.5137  -17.1889   20.6880 O   0  0  0  0  0  0  0  0  0  0  0  0
    6.3723  -13.4599   21.1395 C   0  0  0  0  0  0  0  0  0  0  0  0
    7.6778  -14.1852   20.9252 C   0  0  1  0  0  0  0  0  0  0  0  0
    8.7413  -13.0957   20.7193 C   0  0  0  0  0  0  0  0  0  0  0  0
    8.1166  -14.9931   22.0869 C   0  0  0  0  0  0  0  0  0  0  0  0
    9.3103  -15.8596   21.9078 C   0  0  2  0  0  0  0  0  0  0  0  0
    9.2058  -16.8945   20.9279 N   0  0  0  0  0  0  0  0  0  0  0  0
    9.5976  -16.4518   23.2711 C   0  0  0  0  0  0  0  0  0  0  0  0
    9.0185  -17.5194   23.5917 O   0  0  0  0  0  0  0  0  0  0  0  0
   10.4811  -15.8594   24.1882 N   0  0  0  0  0  0  0  0  0  0  0  0
   11.0384  -16.5604   25.3334 C   0  0  1  0  0  0  0  0  0  0  0  0
   11.7327  -15.4830   26.1770 C   0  0  0  0  0  0  0  0  0  0  0  0
   10.6687  -14.7350   26.8694 C   0  0  0  0  0  0  0  0  0  0  0  0
    9.7352  -14.0374   26.1327 C   0  0  0  0  0  0  0  0  0  0  0  0
    8.7236  -13.3247   26.7420 C   0  0  0  0  0  0  0  0  0  0  0  0
    8.6067  -13.2825   28.1191 C   0  0  0  0  0  0  0  0  0  0  0  0
    9.5532  -13.9889   28.8367 C   0  0  0  0  0  0  0  0  0  0  0  0
   10.5694  -14.7058   28.2559 C   0  0  0  0  0  0  0  0  0  0  0  0
   10.0004  -17.1561   26.1828 C   0  0  0  0  0  0  0  0  0  0  0  0
    8.6757  -17.0439   25.7876 O   0  0  0  0  0  0  0  0  0  0  0  0
   10.2604  -17.7558   27.2398 O   0  0  0  0  0  0  0  0  0  0  0  0
  1  2  1  0
  3  4  2  0
  3  2  1  0
  6  5  1  1
  6  8  1  0
  7  6  1  0
  9  8  1  1
  9 11  1  0
  9 10  1  0
 10  3  1  0
 11 12  2  0
 13 11  1  0
 13 14  1  0
 14 15  1  1
 14 22  1  0
 16 15  1  0
 17 16  2  0
 18 17  1  0
 19 20  1  0
 19 18  2  0
 20 21  2  0
 21 16  1  0
 22 24  2  0
 22 23  1  0
M  END
$$$$
