GLF.pdb
     RDKit          3D

 24 24  0  0  1  0  0  0  0  0999 V2000
    4.6563  -19.6652   23.4587 N   0  0  0  0  0  0  0  0  0  0  0  0
    5.4369  -19.0912   24.5219 C   0  0  0  0  0  0  0  0  0  0  0  0
    5.8412  -17.6865   24.1934 C   0  0  0  0  0  0  0  0  0  0  0  0
    5.8576  -17.3285   22.9869 O   0  0  0  0  0  0  0  0  0  0  0  0
    6.4237  -12.3376   25.2271 C   0  0  0  0  0  0  0  0  0  0  0  0
    7.4801  -13.2462   25.8057 C   0  0  1  0  0  0  0  0  0  0  0  0
    7.9001  -12.6139   27.1416 C   0  0  0  0  0  0  0  0  0  0  0  0
    6.9973  -14.6120   26.1154 C   0  0  0  0  0  0  0  0  0  0  0  0
    6.9335  -15.5870   24.9960 C   0  0  2  0  0  0  0  0  0  0  0  0
    6.1967  -16.7874   25.2370 N   0  0  0  0  0  0  0  0  0  0  0  0
    8.3712  -15.9116   24.6502 C   0  0  0  0  0  0  0  0  0  0  0  0
    8.9359  -16.8489   25.2670 O   0  0  0  0  0  0  0  0  0  0  0  0
    9.0965  -15.2112   23.6725 N   0  0  0  0  0  0  0  0  0  0  0  0
   10.1852  -15.7967   22.9075 C   0  0  1  0  0  0  0  0  0  0  0  0
   10.5408  -14.7571   21.8364 C   0  0  0  0  0  0  0  0  0  0  0  0
    9.2667  -14.2601   21.2878 C   0  0  0  0  0  0  0  0  0  0  0  0
    8.9938  -12.9089   21.3138 C   0  0  0  0  0  0  0  0  0  0  0  0
    7.8132  -12.4031   20.8108 C   0  0  0  0  0  0  0  0  0  0  0  0
    6.8555  -13.2342   20.2596 C   0  0  0  0  0  0  0  0  0  0  0  0
    7.1507  -14.5842   20.2443 C   0  0  0  0  0  0  0  0  0  0  0  0
    8.3169  -15.1136   20.7378 C   0  0  0  0  0  0  0  0  0  0  0  0
   11.3926  -15.9965   23.7175 C   0  0  0  0  0  0  0  0  0  0  0  0
   11.3589  -15.6378   25.0569 O   0  0  0  0  0  0  0  0  0  0  0  0
   12.4417  -16.4732   23.2523 O   0  0  0  0  0  0  0  0  0  0  0  0
  1  2  1  0
  3  4  2  0
  3  2  1  0
  6  5  1  1
  6  8  1  0
  7  6  1  0
  9  8  1  1
  9 11  1  0
  9 10  1  0
 10  3  1  0
 11 12  2  0
 13 11  1  0
 13 14  1  0
 14 15  1  6
 14 22  1  0
 16 15  1  0
 17 16  2  0
 18 17  1  0
 19 20  1  0
 19 18  2  0
 20 21  2  0
 21 16  1  0
 22 24  2  0
 22 23  1  0
M  END
$$$$
