GLF.pdb
     RDKit          3D

 24 24  0  0  1  0  0  0  0  0999 V2000
    7.1628  -19.7658   20.3263 N   0  0  0  0  0  0  0  0  0  0  0  0
    6.7536  -18.7152   21.2196 C   0  0  0  0  0  0  0  0  0  0  0  0
    7.8505  -17.7122   21.4073 C   0  0  0  0  0  0  0  0  0  0  0  0
    9.0451  -18.1001   21.3253 O   0  0  0  0  0  0  0  0  0  0  0  0
    7.0015  -12.2233   20.1866 C   0  0  0  0  0  0  0  0  0  0  0  0
    7.5104  -13.6385   20.3079 C   0  0  1  0  0  0  0  0  0  0  0  0
    8.6173  -13.7848   19.2524 C   0  0  0  0  0  0  0  0  0  0  0  0
    8.1292  -13.9467   21.6181 C   0  0  0  0  0  0  0  0  0  0  0  0
    8.5342  -15.3536   21.8712 C   0  0  2  0  0  0  0  0  0  0  0  0
    7.5308  -16.3516   21.6725 N   0  0  0  0  0  0  0  0  0  0  0  0
    9.0355  -15.3874   23.2993 C   0  0  0  0  0  0  0  0  0  0  0  0
   10.0990  -14.7771   23.5726 O   0  0  0  0  0  0  0  0  0  0  0  0
    8.3638  -16.0699   24.3266 N   0  0  0  0  0  0  0  0  0  0  0  0
    8.8474  -16.1365   25.6959 C   0  0  1  0  0  0  0  0  0  0  0  0
    7.6409  -15.7835   26.5758 C   0  0  0  0  0  0  0  0  0  0  0  0
    7.4739  -14.3214   26.5005 C   0  0  0  0  0  0  0  0  0  0  0  0
    6.2451  -13.7914   26.1689 C   0  0  0  0  0  0  0  0  0  0  0  0
    6.0469  -12.4288   26.0876 C   0  0  0  0  0  0  0  0  0  0  0  0
    7.0762  -11.5396   26.3362 C   0  0  0  0  0  0  0  0  0  0  0  0
    8.2985  -12.0934   26.6666 C   0  0  0  0  0  0  0  0  0  0  0  0
    8.5227  -13.4447   26.7544 C   0  0  0  0  0  0  0  0  0  0  0  0
    9.2635  -17.4916   26.0760 C   0  0  0  0  0  0  0  0  0  0  0  0
    9.1438  -18.5084   25.1403 O   0  0  0  0  0  0  0  0  0  0  0  0
    9.7177  -17.7639   27.2002 O   0  0  0  0  0  0  0  0  0  0  0  0
  1  2  1  0
  3  4  2  0
  3  2  1  0
  6  5  1  1
  6  8  1  0
  7  6  1  0
  9  8  1  1
  9 11  1  0
  9 10  1  0
 10  3  1  0
 11 12  2  0
 13 11  1  0
 13 14  1  0
 14 15  1  1
 14 22  1  0
 16 15  1  0
 17 16  2  0
 18 17  1  0
 19 20  1  0
 19 18  2  0
 20 21  2  0
 21 16  1  0
 22 24  2  0
 22 23  1  0
M  END
$$$$
