GLF.pdb
     RDKit          3D

 24 24  0  0  1  0  0  0  0  0999 V2000
    5.5440  -18.5300   22.0784 N   0  0  0  0  0  0  0  0  0  0  0  0
    6.6268  -18.5805   21.1328 C   0  0  0  0  0  0  0  0  0  0  0  0
    7.6927  -17.5877   21.4833 C   0  0  0  0  0  0  0  0  0  0  0  0
    8.8626  -18.0038   21.6887 O   0  0  0  0  0  0  0  0  0  0  0  0
    7.4197  -12.4098   19.3829 C   0  0  0  0  0  0  0  0  0  0  0  0
    7.8005  -13.7906   19.8567 C   0  0  1  0  0  0  0  0  0  0  0  0
    9.0773  -14.1670   19.0894 C   0  0  0  0  0  0  0  0  0  0  0  0
    8.1342  -13.8630   21.2983 C   0  0  0  0  0  0  0  0  0  0  0  0
    8.3510  -15.2106   21.8851 C   0  0  2  0  0  0  0  0  0  0  0  0
    7.3718  -16.2050   21.5780 N   0  0  0  0  0  0  0  0  0  0  0  0
    8.4358  -14.9993   23.3819 C   0  0  0  0  0  0  0  0  0  0  0  0
    7.5400  -14.3178   23.9396 O   0  0  0  0  0  0  0  0  0  0  0  0
    9.4700  -15.5313   24.1690 N   0  0  0  0  0  0  0  0  0  0  0  0
    9.3764  -15.7006   25.6098 C   0  0  1  0  0  0  0  0  0  0  0  0
    7.8757  -15.6825   25.9293 C   0  0  0  0  0  0  0  0  0  0  0  0
    7.5137  -14.2777   26.1879 C   0  0  0  0  0  0  0  0  0  0  0  0
    6.1926  -13.8897   26.1175 C   0  0  0  0  0  0  0  0  0  0  0  0
    5.8119  -12.5849   26.3524 C   0  0  0  0  0  0  0  0  0  0  0  0
    6.7434  -11.6133   26.6685 C   0  0  0  0  0  0  0  0  0  0  0  0
    8.0610  -12.0251   26.7334 C   0  0  0  0  0  0  0  0  0  0  0  0
    8.4668  -13.3162   26.5043 C   0  0  0  0  0  0  0  0  0  0  0  0
    9.8856  -17.0036   26.0534 C   0  0  0  0  0  0  0  0  0  0  0  0
   10.0258  -17.2319   27.4142 O   0  0  0  0  0  0  0  0  0  0  0  0
   10.1954  -17.9086   25.2601 O   0  0  0  0  0  0  0  0  0  0  0  0
  1  2  1  0
  3  4  2  0
  3  2  1  0
  6  5  1  6
  6  8  1  0
  7  6  1  0
  9  8  1  6
  9 11  1  0
  9 10  1  0
 10  3  1  0
 11 12  2  0
 13 11  1  0
 13 14  1  0
 14 15  1  6
 14 22  1  0
 16 15  1  0
 17 16  2  0
 18 17  1  0
 19 20  1  0
 19 18  2  0
 20 21  2  0
 21 16  1  0
 22 24  2  0
 22 23  1  0
M  END
$$$$
