GLF.pdb
     RDKit          3D

 24 24  0  0  1  0  0  0  0  0999 V2000
    5.3231  -19.8630   21.7613 N   0  0  0  0  0  0  0  0  0  0  0  0
    5.5892  -18.8397   22.7367 C   0  0  0  0  0  0  0  0  0  0  0  0
    6.7037  -17.9454   22.2866 C   0  0  0  0  0  0  0  0  0  0  0  0
    7.8456  -18.4444   22.1098 O   0  0  0  0  0  0  0  0  0  0  0  0
    8.5249  -13.8425   19.3570 C   0  0  0  0  0  0  0  0  0  0  0  0
    8.0991  -13.3935   20.7330 C   0  0  1  0  0  0  0  0  0  0  0  0
    7.4418  -12.0172   20.5473 C   0  0  0  0  0  0  0  0  0  0  0  0
    7.0836  -14.2675   21.3653 C   0  0  0  0  0  0  0  0  0  0  0  0
    7.5040  -15.6394   21.7507 C   0  0  2  0  0  0  0  0  0  0  0  0
    6.4591  -16.5612   22.0678 N   0  0  0  0  0  0  0  0  0  0  0  0
    8.4329  -15.4684   22.9340 C   0  0  0  0  0  0  0  0  0  0  0  0
    9.5661  -14.9643   22.7346 O   0  0  0  0  0  0  0  0  0  0  0  0
    8.0815  -15.8483   24.2395 N   0  0  0  0  0  0  0  0  0  0  0  0
    8.9867  -15.7568   25.3733 C   0  0  1  0  0  0  0  0  0  0  0  0
    8.0918  -15.5099   26.5951 C   0  0  0  0  0  0  0  0  0  0  0  0
    7.6401  -14.1096   26.5143 C   0  0  0  0  0  0  0  0  0  0  0  0
    8.5473  -13.0884   26.7014 C   0  0  0  0  0  0  0  0  0  0  0  0
    8.1652  -11.7647   26.6340 C   0  0  0  0  0  0  0  0  0  0  0  0
    6.8540  -11.4104   26.3753 C   0  0  0  0  0  0  0  0  0  0  0  0
    5.9627  -12.4503   26.1912 C   0  0  0  0  0  0  0  0  0  0  0  0
    6.3161  -13.7752   26.2530 C   0  0  0  0  0  0  0  0  0  0  0  0
    9.7001  -17.0151   25.6214 C   0  0  0  0  0  0  0  0  0  0  0  0
    9.4342  -18.1007   24.8000 O   0  0  0  0  0  0  0  0  0  0  0  0
   10.5310  -17.1467   26.5361 O   0  0  0  0  0  0  0  0  0  0  0  0
  1  2  1  0
  3  4  2  0
  3  2  1  0
  6  5  1  6
  6  8  1  0
  7  6  1  0
  9  8  1  1
  9 11  1  0
  9 10  1  0
 10  3  1  0
 11 12  2  0
 13 11  1  0
 13 14  1  0
 14 15  1  1
 14 22  1  0
 16 15  1  0
 17 16  2  0
 18 17  1  0
 19 20  1  0
 19 18  2  0
 20 21  2  0
 21 16  1  0
 22 24  2  0
 22 23  1  0
M  END
$$$$
