GLF.pdb
     RDKit          3D

 24 24  0  0  1  0  0  0  0  0999 V2000
   13.2853  -16.5785   20.5887 N   0  0  0  0  0  0  0  0  0  0  0  0
   11.9312  -17.0620   20.6297 C   0  0  0  0  0  0  0  0  0  0  0  0
   11.1085  -16.2735   21.6022 C   0  0  0  0  0  0  0  0  0  0  0  0
   11.6450  -15.8848   22.6723 O   0  0  0  0  0  0  0  0  0  0  0  0
    6.2170  -13.5379   20.0218 C   0  0  0  0  0  0  0  0  0  0  0  0
    7.5928  -13.9411   20.4915 C   0  0  1  0  0  0  0  0  0  0  0  0
    8.2994  -12.6410   20.9053 C   0  0  0  0  0  0  0  0  0  0  0  0
    7.5894  -14.8207   21.6836 C   0  0  0  0  0  0  0  0  0  0  0  0
    8.9053  -15.2640   22.2123 C   0  0  2  0  0  0  0  0  0  0  0  0
    9.7486  -15.9785   21.3066 N   0  0  0  0  0  0  0  0  0  0  0  0
    8.5961  -16.1141   23.4264 C   0  0  0  0  0  0  0  0  0  0  0  0
    9.0320  -17.2919   23.4564 O   0  0  0  0  0  0  0  0  0  0  0  0
    7.8455  -15.6423   24.5156 N   0  0  0  0  0  0  0  0  0  0  0  0
    7.6183  -16.4124   25.7275 C   0  0  1  0  0  0  0  0  0  0  0  0
    6.5070  -15.6716   26.4831 C   0  0  0  0  0  0  0  0  0  0  0  0
    6.9412  -14.2691   26.6087 C   0  0  0  0  0  0  0  0  0  0  0  0
    8.1416  -13.9791   27.2217 C   0  0  0  0  0  0  0  0  0  0  0  0
    8.5842  -12.6800   27.3594 C   0  0  0  0  0  0  0  0  0  0  0  0
    7.8388  -11.6158   26.8866 C   0  0  0  0  0  0  0  0  0  0  0  0
    6.6396  -11.9304   26.2761 C   0  0  0  0  0  0  0  0  0  0  0  0
    6.1759  -13.2135   26.1260 C   0  0  0  0  0  0  0  0  0  0  0  0
    7.1098  -17.7600   25.4458 C   0  0  0  0  0  0  0  0  0  0  0  0
    7.1330  -18.7029   26.4627 O   0  0  0  0  0  0  0  0  0  0  0  0
    6.6602  -18.0893   24.3351 O   0  0  0  0  0  0  0  0  0  0  0  0
  1  2  1  0
  3  4  2  0
  3  2  1  0
  6  5  1  1
  6  8  1  0
  7  6  1  0
  9  8  1  6
  9 11  1  0
  9 10  1  0
 10  3  1  0
 11 12  2  0
 13 11  1  0
 13 14  1  0
 14 15  1  1
 14 22  1  0
 16 15  1  0
 17 16  2  0
 18 17  1  0
 19 20  1  0
 19 18  2  0
 20 21  2  0
 21 16  1  0
 22 24  2  0
 22 23  1  0
M  END
$$$$
