GLF.pdb
     RDKit          3D

 24 24  0  0  1  0  0  0  0  0999 V2000
    5.3783  -19.4100   21.7331 N   0  0  0  0  0  0  0  0  0  0  0  0
    5.4003  -18.0112   22.0680 C   0  0  0  0  0  0  0  0  0  0  0  0
    6.7809  -17.4469   21.9270 C   0  0  0  0  0  0  0  0  0  0  0  0
    7.7387  -18.2365   21.7192 O   0  0  0  0  0  0  0  0  0  0  0  0
    7.5385  -12.1717   20.0477 C   0  0  0  0  0  0  0  0  0  0  0  0
    7.5922  -13.6576   20.3034 C   0  0  1  0  0  0  0  0  0  0  0  0
    8.3465  -14.2676   19.1119 C   0  0  0  0  0  0  0  0  0  0  0  0
    8.3472  -14.0331   21.5214 C   0  0  0  0  0  0  0  0  0  0  0  0
    8.2874  -15.4531   21.9547 C   0  0  2  0  0  0  0  0  0  0  0  0
    6.9880  -16.0431   22.0288 N   0  0  0  0  0  0  0  0  0  0  0  0
    8.9654  -15.4999   23.3075 C   0  0  0  0  0  0  0  0  0  0  0  0
   10.1674  -15.1433   23.3848 O   0  0  0  0  0  0  0  0  0  0  0  0
    8.3088  -15.9235   24.4745 N   0  0  0  0  0  0  0  0  0  0  0  0
    8.9605  -16.0264   25.7699 C   0  0  1  0  0  0  0  0  0  0  0  0
    7.8661  -15.7347   26.8051 C   0  0  0  0  0  0  0  0  0  0  0  0
    7.5077  -14.3134   26.6549 C   0  0  0  0  0  0  0  0  0  0  0  0
    6.2633  -13.9713   26.1698 C   0  0  0  0  0  0  0  0  0  0  0  0
    5.8887  -12.6530   26.0141 C   0  0  0  0  0  0  0  0  0  0  0  0
    6.7495  -11.6210   26.3395 C   0  0  0  0  0  0  0  0  0  0  0  0
    7.9908  -11.9875   26.8236 C   0  0  0  0  0  0  0  0  0  0  0  0
    8.3888  -13.2908   26.9883 C   0  0  0  0  0  0  0  0  0  0  0  0
    9.4480  -17.3833   26.0435 C   0  0  0  0  0  0  0  0  0  0  0  0
   10.2106  -17.5964   27.1823 O   0  0  0  0  0  0  0  0  0  0  0  0
    9.2054  -18.3470   25.2974 O   0  0  0  0  0  0  0  0  0  0  0  0
  1  2  1  0
  3  4  2  0
  3  2  1  0
  6  5  1  6
  6  8  1  0
  7  6  1  0
  9  8  1  1
  9 11  1  0
  9 10  1  0
 10  3  1  0
 11 12  2  0
 13 11  1  0
 13 14  1  0
 14 15  1  1
 14 22  1  0
 16 15  1  0
 17 16  2  0
 18 17  1  0
 19 20  1  0
 19 18  2  0
 20 21  2  0
 21 16  1  0
 22 24  2  0
 22 23  1  0
M  END
$$$$
