GLF.pdb
     RDKit          3D

 24 24  0  0  1  0  0  0  0  0999 V2000
    5.2118  -19.2242   21.0744 N   0  0  0  0  0  0  0  0  0  0  0  0
    5.2745  -17.9312   21.7018 C   0  0  0  0  0  0  0  0  0  0  0  0
    6.6587  -17.3632   21.6245 C   0  0  0  0  0  0  0  0  0  0  0  0
    7.6090  -18.1268   21.3118 O   0  0  0  0  0  0  0  0  0  0  0  0
    7.3834  -12.0527   20.0726 C   0  0  0  0  0  0  0  0  0  0  0  0
    7.4395  -13.5460   20.2803 C   0  0  1  0  0  0  0  0  0  0  0  0
    8.1452  -14.1218   19.0429 C   0  0  0  0  0  0  0  0  0  0  0  0
    8.2381  -13.9618   21.4567 C   0  0  0  0  0  0  0  0  0  0  0  0
    8.1762  -15.3913   21.8570 C   0  0  2  0  0  0  0  0  0  0  0  0
    6.8772  -15.9852   21.9023 N   0  0  0  0  0  0  0  0  0  0  0  0
    8.8381  -15.4674   23.2164 C   0  0  0  0  0  0  0  0  0  0  0  0
   10.0395  -15.1140   23.3154 O   0  0  0  0  0  0  0  0  0  0  0  0
    8.1674  -15.9148   24.3664 N   0  0  0  0  0  0  0  0  0  0  0  0
    8.8135  -16.0845   25.6575 C   0  0  1  0  0  0  0  0  0  0  0  0
    7.7479  -15.7240   26.7012 C   0  0  0  0  0  0  0  0  0  0  0  0
    7.5468  -14.2667   26.6165 C   0  0  0  0  0  0  0  0  0  0  0  0
    6.3302  -13.7691   26.2005 C   0  0  0  0  0  0  0  0  0  0  0  0
    6.1011  -12.4121   26.1075 C   0  0  0  0  0  0  0  0  0  0  0  0
    7.0858  -11.4962   26.4289 C   0  0  0  0  0  0  0  0  0  0  0  0
    8.2966  -12.0178   26.8432 C   0  0  0  0  0  0  0  0  0  0  0  0
    8.5509  -13.3628   26.9446 C   0  0  0  0  0  0  0  0  0  0  0  0
    9.1967  -17.4782   25.9114 C   0  0  0  0  0  0  0  0  0  0  0  0
    9.9311  -17.7663   27.0522 O   0  0  0  0  0  0  0  0  0  0  0  0
    8.8903  -18.4086   25.1467 O   0  0  0  0  0  0  0  0  0  0  0  0
  1  2  1  0
  3  4  2  0
  3  2  1  0
  6  5  1  6
  6  8  1  0
  7  6  1  0
  9  8  1  1
  9 11  1  0
  9 10  1  0
 10  3  1  0
 11 12  2  0
 13 11  1  0
 13 14  1  0
 14 15  1  1
 14 22  1  0
 16 15  1  0
 17 16  2  0
 18 17  1  0
 19 20  1  0
 19 18  2  0
 20 21  2  0
 21 16  1  0
 22 24  2  0
 22 23  1  0
M  END
$$$$
