GLF.pdb
     RDKit          3D

 24 24  0  0  1  0  0  0  0  0999 V2000
    8.3361  -16.3733   18.9475 N   0  0  0  0  0  0  0  0  0  0  0  0
    7.6584  -16.7380   20.1628 C   0  0  0  0  0  0  0  0  0  0  0  0
    8.1834  -15.9541   21.3265 C   0  0  0  0  0  0  0  0  0  0  0  0
    9.4132  -15.6907   21.3727 O   0  0  0  0  0  0  0  0  0  0  0  0
    7.9071  -12.2309   25.2933 C   0  0  0  0  0  0  0  0  0  0  0  0
    7.1717  -13.5126   25.5979 C   0  0  1  0  0  0  0  0  0  0  0  0
    5.9085  -13.1050   26.3718 C   0  0  0  0  0  0  0  0  0  0  0  0
    6.7146  -14.2463   24.3948 C   0  0  0  0  0  0  0  0  0  0  0  0
    7.7538  -14.8766   23.5401 C   0  0  2  0  0  0  0  0  0  0  0  0
    7.2954  -15.5233   22.3511 N   0  0  0  0  0  0  0  0  0  0  0  0
    8.4771  -15.8637   24.4315 C   0  0  0  0  0  0  0  0  0  0  0  0
    7.9247  -16.9660   24.6719 O   0  0  0  0  0  0  0  0  0  0  0  0
    9.7345  -15.5991   24.9981 N   0  0  0  0  0  0  0  0  0  0  0  0
   10.6012  -16.6298   25.5456 C   0  0  1  0  0  0  0  0  0  0  0  0
   11.7275  -15.8789   26.2683 C   0  0  0  0  0  0  0  0  0  0  0  0
   11.1168  -15.2192   27.4358 C   0  0  0  0  0  0  0  0  0  0  0  0
   10.5220  -13.9843   27.2877 C   0  0  0  0  0  0  0  0  0  0  0  0
    9.9393  -13.3332   28.3550 C   0  0  0  0  0  0  0  0  0  0  0  0
    9.9293  -13.8959   29.6180 C   0  0  0  0  0  0  0  0  0  0  0  0
   10.5310  -15.1337   29.7425 C   0  0  0  0  0  0  0  0  0  0  0  0
   11.1178  -15.8030   28.6977 C   0  0  0  0  0  0  0  0  0  0  0  0
    9.9244  -17.4490   26.5579 C   0  0  0  0  0  0  0  0  0  0  0  0
   10.5935  -18.5472   27.0774 O   0  0  0  0  0  0  0  0  0  0  0  0
    8.7781  -17.1986   26.9673 O   0  0  0  0  0  0  0  0  0  0  0  0
  1  2  1  0
  3  4  2  0
  3  2  1  0
  6  5  1  6
  6  8  1  0
  7  6  1  0
  9  8  1  1
  9 11  1  0
  9 10  1  0
 10  3  1  0
 11 12  2  0
 13 11  1  0
 13 14  1  0
 14 15  1  1
 14 22  1  0
 16 15  1  0
 17 16  2  0
 18 17  1  0
 19 20  1  0
 19 18  2  0
 20 21  2  0
 21 16  1  0
 22 24  2  0
 22 23  1  0
M  END
$$$$
