GLF.pdb
     RDKit          3D

 24 24  0  0  1  0  0  0  0  0999 V2000
    5.4042  -20.1033   21.8211 N   0  0  0  0  0  0  0  0  0  0  0  0
    5.2547  -18.8150   22.4434 C   0  0  0  0  0  0  0  0  0  0  0  0
    6.4432  -17.9450   22.1695 C   0  0  0  0  0  0  0  0  0  0  0  0
    7.5946  -18.4193   22.3520 O   0  0  0  0  0  0  0  0  0  0  0  0
    9.0385  -14.0267   19.6195 C   0  0  0  0  0  0  0  0  0  0  0  0
    8.1411  -13.4610   20.6923 C   0  0  1  0  0  0  0  0  0  0  0  0
    7.5331  -12.1777   20.1057 C   0  0  0  0  0  0  0  0  0  0  0  0
    7.0063  -14.3414   21.0554 C   0  0  0  0  0  0  0  0  0  0  0  0
    7.3280  -15.6682   21.6415 C   0  0  2  0  0  0  0  0  0  0  0  0
    6.2563  -16.6109   21.7124 N   0  0  0  0  0  0  0  0  0  0  0  0
    7.8739  -15.3860   23.0251 C   0  0  0  0  0  0  0  0  0  0  0  0
    7.1143  -14.8454   23.8670 O   0  0  0  0  0  0  0  0  0  0  0  0
    9.1886  -15.7022   23.4045 N   0  0  0  0  0  0  0  0  0  0  0  0
    9.7899  -15.2673   24.6545 C   0  0  1  0  0  0  0  0  0  0  0  0
    8.9784  -15.9529   25.7617 C   0  0  0  0  0  0  0  0  0  0  0  0
    9.4171  -15.3612   27.0379 C   0  0  0  0  0  0  0  0  0  0  0  0
    9.0728  -14.0610   27.3410 C   0  0  0  0  0  0  0  0  0  0  0  0
    9.4634  -13.4700   28.5245 C   0  0  0  0  0  0  0  0  0  0  0  0
   10.2174  -14.1610   29.4550 C   0  0  0  0  0  0  0  0  0  0  0  0
   10.5506  -15.4621   29.1299 C   0  0  0  0  0  0  0  0  0  0  0  0
   10.1752  -16.0740   27.9600 C   0  0  0  0  0  0  0  0  0  0  0  0
   11.1748  -15.7309   24.7991 C   0  0  0  0  0  0  0  0  0  0  0  0
   11.4464  -17.0774   24.6064 O   0  0  0  0  0  0  0  0  0  0  0  0
   12.1119  -14.9671   25.0867 O   0  0  0  0  0  0  0  0  0  0  0  0
  1  2  1  0
  3  4  2  0
  3  2  1  0
  6  5  1  6
  6  8  1  0
  7  6  1  0
  9  8  1  1
  9 11  1  0
  9 10  1  0
 10  3  1  0
 11 12  2  0
 13 11  1  0
 13 14  1  0
 14 15  1  1
 14 22  1  0
 16 15  1  0
 17 16  2  0
 18 17  1  0
 19 20  1  0
 19 18  2  0
 20 21  2  0
 21 16  1  0
 22 24  2  0
 22 23  1  0
M  END
$$$$
