GLF.pdb
     RDKit          3D

 24 24  0  0  1  0  0  0  0  0999 V2000
   12.7629  -17.0825   19.4867 N   0  0  0  0  0  0  0  0  0  0  0  0
   11.4755  -17.4974   19.9762 C   0  0  0  0  0  0  0  0  0  0  0  0
   10.9584  -16.5401   21.0061 C   0  0  0  0  0  0  0  0  0  0  0  0
   11.7741  -16.0178   21.8098 O   0  0  0  0  0  0  0  0  0  0  0  0
    5.9362  -13.7875   20.3645 C   0  0  0  0  0  0  0  0  0  0  0  0
    7.3881  -14.1124   20.6143 C   0  0  1  0  0  0  0  0  0  0  0  0
    8.0961  -12.7649   20.8232 C   0  0  0  0  0  0  0  0  0  0  0  0
    7.6254  -14.9113   21.8391 C   0  0  0  0  0  0  0  0  0  0  0  0
    9.0055  -15.4072   22.0776 C   0  0  2  0  0  0  0  0  0  0  0  0
    9.5693  -16.2380   21.0608 N   0  0  0  0  0  0  0  0  0  0  0  0
    8.9544  -16.1493   23.3962 C   0  0  0  0  0  0  0  0  0  0  0  0
    8.7970  -17.3954   23.3735 O   0  0  0  0  0  0  0  0  0  0  0  0
    9.0751  -15.5051   24.6383 N   0  0  0  0  0  0  0  0  0  0  0  0
    9.0435  -16.2050   25.9120 C   0  0  1  0  0  0  0  0  0  0  0  0
    9.1345  -15.1113   26.9846 C   0  0  0  0  0  0  0  0  0  0  0  0
    8.2080  -14.0401   26.5781 C   0  0  0  0  0  0  0  0  0  0  0  0
    8.7084  -12.8108   26.2047 C   0  0  0  0  0  0  0  0  0  0  0  0
    7.8753  -11.7818   25.8177 C   0  0  0  0  0  0  0  0  0  0  0  0
    6.5026  -11.9442   25.7893 C   0  0  0  0  0  0  0  0  0  0  0  0
    6.0239  -13.1842   26.1674 C   0  0  0  0  0  0  0  0  0  0  0  0
    6.8301  -14.2247   26.5566 C   0  0  0  0  0  0  0  0  0  0  0  0
    7.7732  -16.9061   26.1326 C   0  0  0  0  0  0  0  0  0  0  0  0
    6.7760  -16.7875   25.1759 O   0  0  0  0  0  0  0  0  0  0  0  0
    7.5558  -17.6005   27.1401 O   0  0  0  0  0  0  0  0  0  0  0  0
  1  2  1  0
  3  4  2  0
  3  2  1  0
  6  5  1  1
  6  8  1  0
  7  6  1  0
  9  8  1  6
  9 11  1  0
  9 10  1  0
 10  3  1  0
 11 12  2  0
 13 11  1  0
 13 14  1  0
 14 15  1  1
 14 22  1  0
 16 15  1  0
 17 16  2  0
 18 17  1  0
 19 20  1  0
 19 18  2  0
 20 21  2  0
 21 16  1  0
 22 24  2  0
 22 23  1  0
M  END
$$$$
