GLF.pdb
     RDKit          3D

 24 24  0  0  1  0  0  0  0  0999 V2000
    6.5011  -19.7119   20.0683 N   0  0  0  0  0  0  0  0  0  0  0  0
    6.0695  -18.5380   20.7788 C   0  0  0  0  0  0  0  0  0  0  0  0
    7.2121  -17.5953   21.0029 C   0  0  0  0  0  0  0  0  0  0  0  0
    8.3695  -18.0700   21.1412 O   0  0  0  0  0  0  0  0  0  0  0  0
    7.1866  -11.9409   19.6670 C   0  0  0  0  0  0  0  0  0  0  0  0
    7.5142  -13.4044   19.8317 C   0  0  1  0  0  0  0  0  0  0  0  0
    8.8649  -13.6197   19.1317 C   0  0  0  0  0  0  0  0  0  0  0  0
    7.6933  -13.8277   21.2400 C   0  0  0  0  0  0  0  0  0  0  0  0
    7.9702  -15.2652   21.4940 C   0  0  2  0  0  0  0  0  0  0  0  0
    6.9761  -16.1934   21.0556 N   0  0  0  0  0  0  0  0  0  0  0  0
    8.1816  -15.3861   22.9883 C   0  0  0  0  0  0  0  0  0  0  0  0
    7.2643  -14.9979   23.7537 O   0  0  0  0  0  0  0  0  0  0  0  0
    9.3557  -15.9120   23.5515 N   0  0  0  0  0  0  0  0  0  0  0  0
    9.9752  -15.3831   24.7555 C   0  0  1  0  0  0  0  0  0  0  0  0
    9.0278  -15.7562   25.9035 C   0  0  0  0  0  0  0  0  0  0  0  0
    9.5684  -15.1272   27.1214 C   0  0  0  0  0  0  0  0  0  0  0  0
    9.4895  -13.7594   27.2753 C   0  0  0  0  0  0  0  0  0  0  0  0
    9.9834  -13.1317   28.3999 C   0  0  0  0  0  0  0  0  0  0  0  0
   10.5783  -13.8525   29.4189 C   0  0  0  0  0  0  0  0  0  0  0  0
   10.6462  -15.2215   29.2430 C   0  0  0  0  0  0  0  0  0  0  0  0
   10.1630  -15.8710   28.1345 C   0  0  0  0  0  0  0  0  0  0  0  0
   11.2633  -16.0227   25.0481 C   0  0  0  0  0  0  0  0  0  0  0  0
   11.3432  -17.4064   24.9953 O   0  0  0  0  0  0  0  0  0  0  0  0
   12.2831  -15.3756   25.3406 O   0  0  0  0  0  0  0  0  0  0  0  0
  1  2  1  0
  3  4  2  0
  3  2  1  0
  6  5  1  1
  6  8  1  0
  7  6  1  0
  9  8  1  1
  9 11  1  0
  9 10  1  0
 10  3  1  0
 11 12  2  0
 13 11  1  0
 13 14  1  0
 14 15  1  1
 14 22  1  0
 16 15  1  0
 17 16  2  0
 18 17  1  0
 19 20  1  0
 19 18  2  0
 20 21  2  0
 21 16  1  0
 22 24  2  0
 22 23  1  0
M  END
$$$$
