KFM.pdb
     RDKit          3D

 29 29  0  0  1  0  0  0  0  0999 V2000
    8.6409  -18.8874   20.1107 N   0  0  0  0  0  0  0  0  0  0  0  0
    9.8831  -18.1411   20.0185 C   0  0  1  0  0  0  0  0  0  0  0  0
   10.1143  -17.6334   18.6175 C   0  0  0  0  0  0  0  0  0  0  0  0
   10.0137  -18.7653   17.6126 C   0  0  0  0  0  0  0  0  0  0  0  0
   10.2928  -18.2866   16.2093 C   0  0  0  0  0  0  0  0  0  0  0  0
   10.2210  -19.4037   15.2052 C   0  0  0  0  0  0  0  0  0  0  0  0
   10.3700  -18.8658   13.8552 N   0  0  0  0  0  0  0  0  0  0  0  0
    9.8155  -16.9868   20.9837 C   0  0  0  0  0  0  0  0  0  0  0  0
   10.7863  -16.2007   21.0669 O   0  0  0  0  0  0  0  0  0  0  0  0
    8.6654  -16.7830   21.7992 N   0  0  0  0  0  0  0  0  0  0  0  0
    8.5596  -15.7676   22.7894 C   0  0  1  0  0  0  0  0  0  0  0  0
    7.2576  -15.0742   22.9153 C   0  0  0  0  0  0  0  0  0  0  0  0
    7.1060  -14.0950   23.9812 C   0  0  0  0  0  0  0  0  0  0  0  0
    6.4711  -14.3881   25.1810 C   0  0  0  0  0  0  0  0  0  0  0  0
    6.3678  -13.4147   26.1523 C   0  0  0  0  0  0  0  0  0  0  0  0
    6.8761  -12.1447   25.9724 C   0  0  0  0  0  0  0  0  0  0  0  0
    7.4989  -11.8549   24.7958 C   0  0  0  0  0  0  0  0  0  0  0  0
    7.6065  -12.8282   23.8190 C   0  0  0  0  0  0  0  0  0  0  0  0
    9.0872  -16.2147   24.1312 C   0  0  0  0  0  0  0  0  0  0  0  0
    8.4560  -17.0150   24.8071 O   0  0  0  0  0  0  0  0  0  0  0  0
   10.1487  -12.8359   28.8452 C   0  0  0  0  0  0  0  0  0  0  0  0
    9.8277  -14.4872   29.5223 S   0  0  0  0  0  0  0  0  0  0  0  0
   10.3612  -15.7886   28.3860 C   0  0  0  0  0  0  0  0  0  0  0  0
    9.7609  -15.6407   26.9973 C   0  0  0  0  0  0  0  0  0  0  0  0
   10.8156  -15.8494   25.9318 C   0  0  2  0  0  0  0  0  0  0  0  0
   10.3462  -15.6682   24.5907 N   0  0  0  0  0  0  0  0  0  0  0  0
   11.4642  -17.1949   26.0934 C   0  0  0  0  0  0  0  0  0  0  0  0
   12.6672  -17.3485   26.4195 O   0  0  0  0  0  0  0  0  0  0  0  0
   10.7656  -18.3956   25.8863 O   0  0  0  0  0  0  0  0  0  0  0  0
  2  3  1  0
  2  1  1  6
  4  5  1  0
  4  3  1  0
  6  5  1  0
  7  6  1  0
  8 10  1  0
  8  2  1  0
  9  8  2  0
 11 10  1  0
 11 12  1  1
 13 12  1  0
 13 14  2  0
 15 14  1  0
 16 15  2  0
 17 18  2  0
 17 16  1  0
 18 13  1  0
 19 26  1  0
 19 11  1  0
 20 19  2  0
 21 22  1  0
 22 23  1  0
 23 24  1  0
 25 24  1  1
 25 27  1  0
 25 26  1  0
 27 29  1  0
 28 27  2  0
M  END
$$$$
