KFM.pdb
     RDKit          3D

 29 29  0  0  1  0  0  0  0  0999 V2000
    8.4464  -18.8125   20.1372 N   0  0  0  0  0  0  0  0  0  0  0  0
    9.5612  -17.9234   19.8631 C   0  0  1  0  0  0  0  0  0  0  0  0
    9.4708  -17.3437   18.4740 C   0  0  0  0  0  0  0  0  0  0  0  0
    9.5838  -18.4362   17.4277 C   0  0  0  0  0  0  0  0  0  0  0  0
    8.8682  -18.0595   16.1540 C   0  0  0  0  0  0  0  0  0  0  0  0
    8.8557  -19.1854   15.1572 C   0  0  0  0  0  0  0  0  0  0  0  0
    8.1877  -18.7539   13.9319 N   0  0  0  0  0  0  0  0  0  0  0  0
    9.5500  -16.8193   20.8876 C   0  0  0  0  0  0  0  0  0  0  0  0
   10.4045  -15.9073   20.8139 O   0  0  0  0  0  0  0  0  0  0  0  0
    8.5837  -16.8037   21.9341 N   0  0  0  0  0  0  0  0  0  0  0  0
    8.4988  -15.7882   22.9261 C   0  0  1  0  0  0  0  0  0  0  0  0
    7.2059  -15.6324   23.6303 C   0  0  0  0  0  0  0  0  0  0  0  0
    7.0652  -14.5228   24.5615 C   0  0  0  0  0  0  0  0  0  0  0  0
    7.5752  -13.2579   24.2999 C   0  0  0  0  0  0  0  0  0  0  0  0
    7.4004  -12.2489   25.2234 C   0  0  0  0  0  0  0  0  0  0  0  0
    6.7316  -12.4533   26.4128 C   0  0  0  0  0  0  0  0  0  0  0  0
    6.2309  -13.6937   26.6716 C   0  0  0  0  0  0  0  0  0  0  0  0
    6.4022  -14.7088   25.7479 C   0  0  0  0  0  0  0  0  0  0  0  0
    9.6597  -15.8268   23.8903 C   0  0  0  0  0  0  0  0  0  0  0  0
   10.6252  -15.0950   23.7233 O   0  0  0  0  0  0  0  0  0  0  0  0
   10.9719  -12.6332   28.0190 C   0  0  0  0  0  0  0  0  0  0  0  0
   11.2277  -14.0914   29.0662 S   0  0  0  0  0  0  0  0  0  0  0  0
   10.8034  -15.6190   28.1967 C   0  0  0  0  0  0  0  0  0  0  0  0
   10.9000  -15.4831   26.6858 C   0  0  0  0  0  0  0  0  0  0  0  0
   10.6160  -16.8068   26.0088 C   0  0  2  0  0  0  0  0  0  0  0  0
    9.5980  -16.7507   25.0026 N   0  0  0  0  0  0  0  0  0  0  0  0
   10.2986  -17.8606   27.0315 C   0  0  0  0  0  0  0  0  0  0  0  0
    9.1467  -18.3286   27.2085 O   0  0  0  0  0  0  0  0  0  0  0  0
   11.2780  -18.4051   27.8782 O   0  0  0  0  0  0  0  0  0  0  0  0
  2  3  1  0
  2  1  1  1
  4  5  1  0
  4  3  1  0
  6  5  1  0
  7  6  1  0
  8 10  1  0
  8  2  1  0
  9  8  2  0
 11 10  1  0
 11 12  1  1
 13 12  1  0
 13 14  2  0
 15 14  1  0
 16 15  2  0
 17 18  2  0
 17 16  1  0
 18 13  1  0
 19 26  1  0
 19 11  1  0
 20 19  2  0
 21 22  1  0
 22 23  1  0
 23 24  1  0
 25 24  1  1
 25 27  1  0
 25 26  1  0
 27 29  1  0
 28 27  2  0
M  END
$$$$
