KFM.pdb
     RDKit          3D

 29 29  0  0  1  0  0  0  0  0999 V2000
    8.9554  -18.6546   19.5948 N   0  0  0  0  0  0  0  0  0  0  0  0
   10.1972  -17.9157   19.7377 C   0  0  1  0  0  0  0  0  0  0  0  0
   10.5458  -17.1797   18.4685 C   0  0  0  0  0  0  0  0  0  0  0  0
   10.8109  -18.1552   17.3375 C   0  0  0  0  0  0  0  0  0  0  0  0
   12.2752  -18.2003   16.9768 C   0  0  0  0  0  0  0  0  0  0  0  0
   12.5530  -19.1639   15.8562 C   0  0  0  0  0  0  0  0  0  0  0  0
   13.9604  -19.0848   15.4731 N   0  0  0  0  0  0  0  0  0  0  0  0
   10.0409  -16.9416   20.8758 C   0  0  0  0  0  0  0  0  0  0  0  0
   11.0076  -16.2127   21.1947 O   0  0  0  0  0  0  0  0  0  0  0  0
    8.8122  -16.8433   21.5896 N   0  0  0  0  0  0  0  0  0  0  0  0
    8.6020  -15.9809   22.7008 C   0  0  1  0  0  0  0  0  0  0  0  0
    7.2278  -15.4746   22.9179 C   0  0  0  0  0  0  0  0  0  0  0  0
    7.0264  -14.4675   23.9490 C   0  0  0  0  0  0  0  0  0  0  0  0
    6.3584  -14.7363   25.1365 C   0  0  0  0  0  0  0  0  0  0  0  0
    6.2084  -13.7369   26.0746 C   0  0  0  0  0  0  0  0  0  0  0  0
    6.7014  -12.4641   25.8731 C   0  0  0  0  0  0  0  0  0  0  0  0
    7.3568  -12.1981   24.7087 C   0  0  0  0  0  0  0  0  0  0  0  0
    7.5112  -13.1975   23.7650 C   0  0  0  0  0  0  0  0  0  0  0  0
    9.2055  -16.5242   23.9734 C   0  0  0  0  0  0  0  0  0  0  0  0
    9.1874  -17.7256   24.2012 O   0  0  0  0  0  0  0  0  0  0  0  0
    9.6005  -12.9968   29.5352 C   0  0  0  0  0  0  0  0  0  0  0  0
   10.7292  -14.3606   29.9283 S   0  0  0  0  0  0  0  0  0  0  0  0
   10.9034  -15.5032   28.5378 C   0  0  0  0  0  0  0  0  0  0  0  0
   10.1773  -15.0275   27.2899 C   0  0  0  0  0  0  0  0  0  0  0  0
   10.3670  -16.0079   26.1522 C   0  0  2  0  0  0  0  0  0  0  0  0
    9.7941  -15.5889   24.9080 N   0  0  0  0  0  0  0  0  0  0  0  0
    9.8605  -17.3674   26.5425 C   0  0  0  0  0  0  0  0  0  0  0  0
    8.6673  -17.7300   26.3947 O   0  0  0  0  0  0  0  0  0  0  0  0
   10.6934  -18.3446   27.1116 O   0  0  0  0  0  0  0  0  0  0  0  0
  2  3  1  0
  2  1  1  6
  4  5  1  0
  4  3  1  0
  6  5  1  0
  7  6  1  0
  8 10  1  0
  8  2  1  0
  9  8  2  0
 11 10  1  0
 11 12  1  1
 13 12  1  0
 13 14  2  0
 15 14  1  0
 16 15  2  0
 17 18  2  0
 17 16  1  0
 18 13  1  0
 19 26  1  0
 19 11  1  0
 20 19  2  0
 21 22  1  0
 22 23  1  0
 23 24  1  0
 25 24  1  1
 25 27  1  0
 25 26  1  0
 27 29  1  0
 28 27  2  0
M  END
$$$$
