KFM.pdb
     RDKit          3D

 29 29  0  0  1  0  0  0  0  0999 V2000
    9.0960  -18.6248   19.5646 N   0  0  0  0  0  0  0  0  0  0  0  0
   10.4023  -18.1010   19.9219 C   0  0  1  0  0  0  0  0  0  0  0  0
   11.0539  -17.4088   18.7513 C   0  0  0  0  0  0  0  0  0  0  0  0
   10.9345  -18.2508   17.4952 C   0  0  0  0  0  0  0  0  0  0  0  0
   12.2041  -18.2142   16.6810 C   0  0  0  0  0  0  0  0  0  0  0  0
   12.1245  -19.0989   15.4676 C   0  0  0  0  0  0  0  0  0  0  0  0
   13.3483  -18.9703   14.6805 N   0  0  0  0  0  0  0  0  0  0  0  0
   10.2294  -17.1352   21.0647 C   0  0  0  0  0  0  0  0  0  0  0  0
   11.2350  -16.5552   21.5334 O   0  0  0  0  0  0  0  0  0  0  0  0
    8.9410  -16.8781   21.6152 N   0  0  0  0  0  0  0  0  0  0  0  0
    8.7069  -16.0394   22.7396 C   0  0  1  0  0  0  0  0  0  0  0  0
    7.3322  -15.5231   22.9281 C   0  0  0  0  0  0  0  0  0  0  0  0
    7.1121  -14.5326   23.9713 C   0  0  0  0  0  0  0  0  0  0  0  0
    6.5218  -14.8470   25.1884 C   0  0  0  0  0  0  0  0  0  0  0  0
    6.3490  -13.8607   26.1364 C   0  0  0  0  0  0  0  0  0  0  0  0
    6.7435  -12.5570   25.9162 C   0  0  0  0  0  0  0  0  0  0  0  0
    7.3224  -12.2463   24.7227 C   0  0  0  0  0  0  0  0  0  0  0  0
    7.4994  -13.2323   23.7691 C   0  0  0  0  0  0  0  0  0  0  0  0
    9.2668  -16.6185   24.0163 C   0  0  0  0  0  0  0  0  0  0  0  0
    9.3184  -17.8302   24.1738 O   0  0  0  0  0  0  0  0  0  0  0  0
   10.3187  -12.9504   29.6416 C   0  0  0  0  0  0  0  0  0  0  0  0
   11.4117  -14.3842   29.8374 S   0  0  0  0  0  0  0  0  0  0  0  0
   11.0824  -15.6487   28.5876 C   0  0  0  0  0  0  0  0  0  0  0  0
   10.4874  -15.0751   27.3117 C   0  0  0  0  0  0  0  0  0  0  0  0
   10.2898  -16.1614   26.2763 C   0  0  2  0  0  0  0  0  0  0  0  0
    9.7297  -15.7053   25.0394 N   0  0  0  0  0  0  0  0  0  0  0  0
    9.4763  -17.2879   26.8478 C   0  0  0  0  0  0  0  0  0  0  0  0
    9.9581  -18.1872   27.5802 O   0  0  0  0  0  0  0  0  0  0  0  0
    8.1005  -17.4222   26.5999 O   0  0  0  0  0  0  0  0  0  0  0  0
  2  3  1  0
  2  1  1  6
  4  5  1  0
  4  3  1  0
  6  5  1  0
  7  6  1  0
  8 10  1  0
  8  2  1  0
  9  8  2  0
 11 10  1  0
 11 12  1  1
 13 12  1  0
 13 14  2  0
 15 14  1  0
 16 15  2  0
 17 18  2  0
 17 16  1  0
 18 13  1  0
 19 26  1  0
 19 11  1  0
 20 19  2  0
 21 22  1  0
 22 23  1  0
 23 24  1  0
 25 24  1  1
 25 27  1  0
 25 26  1  0
 27 29  1  0
 28 27  2  0
M  END
$$$$
