KFM.pdb
     RDKit          3D

 29 29  0  0  1  0  0  0  0  0999 V2000
    9.9365  -17.4193   18.3686 N   0  0  0  0  0  0  0  0  0  0  0  0
    9.6945  -18.0645   19.6467 C   0  0  1  0  0  0  0  0  0  0  0  0
   10.7417  -19.1092   19.9398 C   0  0  0  0  0  0  0  0  0  0  0  0
   10.2196  -20.4973   19.6209 C   0  0  0  0  0  0  0  0  0  0  0  0
   11.2500  -21.5585   19.9180 C   0  0  0  0  0  0  0  0  0  0  0  0
   10.7536  -22.9386   19.5859 C   0  0  0  0  0  0  0  0  0  0  0  0
   11.8095  -23.9171   19.8338 N   0  0  0  0  0  0  0  0  0  0  0  0
    9.7016  -17.0079   20.7201 C   0  0  0  0  0  0  0  0  0  0  0  0
   10.5571  -16.0950   20.6747 O   0  0  0  0  0  0  0  0  0  0  0  0
    8.7513  -17.0378   21.7808 N   0  0  0  0  0  0  0  0  0  0  0  0
    8.6723  -16.0582   22.8088 C   0  0  1  0  0  0  0  0  0  0  0  0
    7.3390  -15.4838   23.0993 C   0  0  0  0  0  0  0  0  0  0  0  0
    7.2488  -14.4500   24.1195 C   0  0  0  0  0  0  0  0  0  0  0  0
    7.7843  -13.1803   23.9469 C   0  0  0  0  0  0  0  0  0  0  0  0
    7.6573  -12.2453   24.9524 C   0  0  0  0  0  0  0  0  0  0  0  0
    7.0121  -12.5292   26.1385 C   0  0  0  0  0  0  0  0  0  0  0  0
    6.4863  -13.7744   26.3101 C   0  0  0  0  0  0  0  0  0  0  0  0
    6.6098  -14.7154   25.3040 C   0  0  0  0  0  0  0  0  0  0  0  0
    9.3829  -16.4878   24.0694 C   0  0  0  0  0  0  0  0  0  0  0  0
    9.0713  -17.5296   24.6290 O   0  0  0  0  0  0  0  0  0  0  0  0
    8.5255  -13.4511   29.1594 C   0  0  0  0  0  0  0  0  0  0  0  0
   10.1999  -14.0049   29.5816 S   0  0  0  0  0  0  0  0  0  0  0  0
   10.8662  -15.1267   28.3299 C   0  0  0  0  0  0  0  0  0  0  0  0
   10.3242  -14.8450   26.9379 C   0  0  0  0  0  0  0  0  0  0  0  0
   10.9425  -15.7812   25.9217 C   0  0  2  0  0  0  0  0  0  0  0  0
   10.4287  -15.6350   24.5927 N   0  0  0  0  0  0  0  0  0  0  0  0
   10.8284  -17.2058   26.3848 C   0  0  0  0  0  0  0  0  0  0  0  0
    9.7443  -17.8392   26.4144 O   0  0  0  0  0  0  0  0  0  0  0  0
   11.9387  -17.9433   26.8273 O   0  0  0  0  0  0  0  0  0  0  0  0
  2  3  1  0
  2  1  1  6
  4  5  1  0
  4  3  1  0
  6  5  1  0
  7  6  1  0
  8 10  1  0
  8  2  1  0
  9  8  2  0
 11 10  1  0
 11 12  1  1
 13 12  1  0
 13 14  2  0
 15 14  1  0
 16 15  2  0
 17 18  2  0
 17 16  1  0
 18 13  1  0
 19 26  1  0
 19 11  1  0
 20 19  2  0
 21 22  1  0
 22 23  1  0
 23 24  1  0
 25 24  1  1
 25 27  1  0
 25 26  1  0
 27 29  1  0
 28 27  2  0
M  END
$$$$
