KFM.pdb
     RDKit          3D

 29 29  0  0  1  0  0  0  0  0999 V2000
    8.9344  -18.8451   19.7334 N   0  0  0  0  0  0  0  0  0  0  0  0
   10.1441  -18.0492   19.8416 C   0  0  1  0  0  0  0  0  0  0  0  0
   10.3897  -17.2524   18.5852 C   0  0  0  0  0  0  0  0  0  0  0  0
   10.6430  -18.1729   17.4063 C   0  0  0  0  0  0  0  0  0  0  0  0
   12.0154  -17.9555   16.8187 C   0  0  0  0  0  0  0  0  0  0  0  0
   12.2022  -18.7002   15.5256 C   0  0  0  0  0  0  0  0  0  0  0  0
   13.5327  -18.4296   14.9867 N   0  0  0  0  0  0  0  0  0  0  0  0
    9.9994  -17.1248   21.0219 C   0  0  0  0  0  0  0  0  0  0  0  0
   10.9470  -16.3644   21.3237 O   0  0  0  0  0  0  0  0  0  0  0  0
    8.8028  -17.1085   21.7946 N   0  0  0  0  0  0  0  0  0  0  0  0
    8.6132  -16.3078   22.9546 C   0  0  1  0  0  0  0  0  0  0  0  0
    7.2664  -15.7320   23.1703 C   0  0  0  0  0  0  0  0  0  0  0  0
    7.1089  -14.7399   24.2234 C   0  0  0  0  0  0  0  0  0  0  0  0
    6.4562  -15.0146   25.4179 C   0  0  0  0  0  0  0  0  0  0  0  0
    6.3482  -14.0298   26.3770 C   0  0  0  0  0  0  0  0  0  0  0  0
    6.8689  -12.7659   26.1899 C   0  0  0  0  0  0  0  0  0  0  0  0
    7.5094  -12.4941   25.0185 C   0  0  0  0  0  0  0  0  0  0  0  0
    7.6217  -13.4789   24.0538 C   0  0  0  0  0  0  0  0  0  0  0  0
    9.1458  -16.9680   24.2033 C   0  0  0  0  0  0  0  0  0  0  0  0
    9.2088  -18.1871   24.2779 O   0  0  0  0  0  0  0  0  0  0  0  0
    9.8934  -12.3713   28.6571 C   0  0  0  0  0  0  0  0  0  0  0  0
   11.4555  -13.2723   28.4668 S   0  0  0  0  0  0  0  0  0  0  0  0
   11.3161  -14.5967   27.2437 C   0  0  0  0  0  0  0  0  0  0  0  0
   10.2799  -15.6422   27.6230 C   0  0  0  0  0  0  0  0  0  0  0  0
   10.1108  -16.6575   26.5130 C   0  0  2  0  0  0  0  0  0  0  0  0
    9.5689  -16.1231   25.2995 N   0  0  0  0  0  0  0  0  0  0  0  0
    9.2976  -17.8264   26.9920 C   0  0  0  0  0  0  0  0  0  0  0  0
    8.0432  -17.8178   27.0539 O   0  0  0  0  0  0  0  0  0  0  0  0
    9.8870  -19.0293   27.4141 O   0  0  0  0  0  0  0  0  0  0  0  0
  2  3  1  0
  2  1  1  6
  4  5  1  0
  4  3  1  0
  6  5  1  0
  7  6  1  0
  8 10  1  0
  8  2  1  0
  9  8  2  0
 11 10  1  0
 11 12  1  1
 13 12  1  0
 13 14  2  0
 15 14  1  0
 16 15  2  0
 17 18  2  0
 17 16  1  0
 18 13  1  0
 19 26  1  0
 19 11  1  0
 20 19  2  0
 21 22  1  0
 22 23  1  0
 23 24  1  0
 25 24  1  1
 25 27  1  0
 25 26  1  0
 27 29  1  0
 28 27  2  0
M  END
$$$$
