KFM.pdb
     RDKit          3D

 29 29  0  0  1  0  0  0  0  0999 V2000
    8.8609  -19.2947   20.7350 N   0  0  0  0  0  0  0  0  0  0  0  0
    9.9009  -18.4110   20.2391 C   0  0  1  0  0  0  0  0  0  0  0  0
    9.7265  -18.1315   18.7676 C   0  0  0  0  0  0  0  0  0  0  0  0
    9.2321  -19.3679   18.0410 C   0  0  0  0  0  0  0  0  0  0  0  0
    9.0711  -19.1142   16.5625 C   0  0  0  0  0  0  0  0  0  0  0  0
    8.4382  -20.2797   15.8536 C   0  0  0  0  0  0  0  0  0  0  0  0
    7.8926  -19.8417   14.5712 N   0  0  0  0  0  0  0  0  0  0  0  0
    9.8434  -17.1252   21.0215 C   0  0  0  0  0  0  0  0  0  0  0  0
   10.6323  -16.1970   20.7325 O   0  0  0  0  0  0  0  0  0  0  0  0
    8.9072  -16.9566   22.0818 N   0  0  0  0  0  0  0  0  0  0  0  0
    8.7062  -15.7349   22.7816 C   0  0  1  0  0  0  0  0  0  0  0  0
    7.3230  -15.4095   23.1974 C   0  0  0  0  0  0  0  0  0  0  0  0
    7.1344  -14.3308   24.1559 C   0  0  0  0  0  0  0  0  0  0  0  0
    7.4423  -13.0085   23.8638 C   0  0  0  0  0  0  0  0  0  0  0  0
    7.2326  -12.0341   24.8166 C   0  0  0  0  0  0  0  0  0  0  0  0
    6.7244  -12.3286   26.0650 C   0  0  0  0  0  0  0  0  0  0  0  0
    6.4221  -13.6253   26.3539 C   0  0  0  0  0  0  0  0  0  0  0  0
    6.6292  -14.6063   25.4011 C   0  0  0  0  0  0  0  0  0  0  0  0
    9.6883  -15.5512   23.9131 C   0  0  0  0  0  0  0  0  0  0  0  0
   10.2214  -14.4661   24.0975 O   0  0  0  0  0  0  0  0  0  0  0  0
    9.3249  -13.5207   29.1152 C   0  0  0  0  0  0  0  0  0  0  0  0
   11.0267  -14.1364   29.2297 S   0  0  0  0  0  0  0  0  0  0  0  0
   11.3006  -15.5461   28.1311 C   0  0  0  0  0  0  0  0  0  0  0  0
   10.4198  -15.5079   26.8928 C   0  0  0  0  0  0  0  0  0  0  0  0
   10.8256  -16.5873   25.9121 C   0  0  2  0  0  0  0  0  0  0  0  0
    9.9807  -16.6881   24.7598 N   0  0  0  0  0  0  0  0  0  0  0  0
   10.9379  -17.9132   26.6097 C   0  0  0  0  0  0  0  0  0  0  0  0
   11.5910  -18.0849   27.6685 O   0  0  0  0  0  0  0  0  0  0  0  0
   10.3158  -19.0740   26.1218 O   0  0  0  0  0  0  0  0  0  0  0  0
  2  3  1  0
  2  1  1  1
  4  5  1  0
  4  3  1  0
  6  5  1  0
  7  6  1  0
  8 10  1  0
  8  2  1  0
  9  8  2  0
 11 10  1  0
 11 12  1  1
 13 12  1  0
 13 14  2  0
 15 14  1  0
 16 15  2  0
 17 18  2  0
 17 16  1  0
 18 13  1  0
 19 26  1  0
 19 11  1  0
 20 19  2  0
 21 22  1  0
 22 23  1  0
 23 24  1  0
 25 24  1  1
 25 27  1  0
 25 26  1  0
 27 29  1  0
 28 27  2  0
M  END
$$$$
