KFM.pdb
     RDKit          3D

 29 29  0  0  1  0  0  0  0  0999 V2000
   11.7993  -16.6528   19.4134 N   0  0  0  0  0  0  0  0  0  0  0  0
   10.5249  -17.0588   19.9785 C   0  0  1  0  0  0  0  0  0  0  0  0
   10.4954  -18.5409   20.2547 C   0  0  0  0  0  0  0  0  0  0  0  0
   10.9149  -19.3247   19.0255 C   0  0  0  0  0  0  0  0  0  0  0  0
   10.8165  -20.8123   19.2570 C   0  0  0  0  0  0  0  0  0  0  0  0
   11.0338  -21.5976   17.9930 C   0  0  0  0  0  0  0  0  0  0  0  0
   11.0036  -23.0280   18.2880 N   0  0  0  0  0  0  0  0  0  0  0  0
   10.3054  -16.2891   21.2545 C   0  0  0  0  0  0  0  0  0  0  0  0
   11.2962  -15.8679   21.8934 O   0  0  0  0  0  0  0  0  0  0  0  0
    8.9896  -16.0387   21.7393 N   0  0  0  0  0  0  0  0  0  0  0  0
    8.7038  -15.3755   22.9645 C   0  0  1  0  0  0  0  0  0  0  0  0
    7.4602  -14.5748   23.0300 C   0  0  0  0  0  0  0  0  0  0  0  0
    7.1366  -13.9182   24.2878 C   0  0  0  0  0  0  0  0  0  0  0  0
    6.3640  -14.5235   25.2703 C   0  0  0  0  0  0  0  0  0  0  0  0
    6.1007  -13.8469   26.4425 C   0  0  0  0  0  0  0  0  0  0  0  0
    6.5804  -12.5746   26.6767 C   0  0  0  0  0  0  0  0  0  0  0  0
    7.3382  -11.9787   25.7140 C   0  0  0  0  0  0  0  0  0  0  0  0
    7.6065  -12.6537   24.5369 C   0  0  0  0  0  0  0  0  0  0  0  0
    8.8457  -16.2870   24.1594 C   0  0  0  0  0  0  0  0  0  0  0  0
    8.2637  -17.3622   24.1879 O   0  0  0  0  0  0  0  0  0  0  0  0
    9.3692  -13.5043   29.2693 C   0  0  0  0  0  0  0  0  0  0  0  0
   11.0558  -13.6172   28.6126 S   0  0  0  0  0  0  0  0  0  0  0  0
   11.1175  -14.6081   27.1014 C   0  0  0  0  0  0  0  0  0  0  0  0
   10.9589  -16.0966   27.3661 C   0  0  0  0  0  0  0  0  0  0  0  0
   10.1314  -16.7496   26.2797 C   0  0  2  0  0  0  0  0  0  0  0  0
    9.6777  -15.8511   25.2606 N   0  0  0  0  0  0  0  0  0  0  0  0
    8.9782  -17.5018   26.8808 C   0  0  0  0  0  0  0  0  0  0  0  0
    7.7753  -17.2295   26.6435 O   0  0  0  0  0  0  0  0  0  0  0  0
    9.1617  -18.5767   27.7659 O   0  0  0  0  0  0  0  0  0  0  0  0
  2  3  1  0
  2  1  1  1
  4  5  1  0
  4  3  1  0
  6  5  1  0
  7  6  1  0
  8 10  1  0
  8  2  1  0
  9  8  2  0
 11 10  1  0
 11 12  1  6
 13 12  1  0
 13 14  2  0
 15 14  1  0
 16 15  2  0
 17 18  2  0
 17 16  1  0
 18 13  1  0
 19 26  1  0
 19 11  1  0
 20 19  2  0
 21 22  1  0
 22 23  1  0
 23 24  1  0
 25 24  1  1
 25 27  1  0
 25 26  1  0
 27 29  1  0
 28 27  2  0
M  END
$$$$
