KFM.pdb
     RDKit          3D

 29 29  0  0  1  0  0  0  0  0999 V2000
    9.5536  -17.7071   19.9723 N   0  0  0  0  0  0  0  0  0  0  0  0
    8.8100  -18.0218   21.1792 C   0  0  1  0  0  0  0  0  0  0  0  0
    9.2566  -19.3349   21.7708 C   0  0  0  0  0  0  0  0  0  0  0  0
    9.2764  -20.4218   20.7127 C   0  0  0  0  0  0  0  0  0  0  0  0
    9.6800  -21.7540   21.2946 C   0  0  0  0  0  0  0  0  0  0  0  0
    9.6338  -22.8558   20.2722 C   0  0  0  0  0  0  0  0  0  0  0  0
    9.9967  -24.1256   20.8966 N   0  0  0  0  0  0  0  0  0  0  0  0
    9.0216  -16.9077   22.1704 C   0  0  0  0  0  0  0  0  0  0  0  0
   10.1836  -16.4975   22.3914 O   0  0  0  0  0  0  0  0  0  0  0  0
    7.9195  -16.3209   22.8560 N   0  0  0  0  0  0  0  0  0  0  0  0
    8.0469  -15.3463   23.8839 C   0  0  1  0  0  0  0  0  0  0  0  0
    6.9348  -14.3831   24.0490 C   0  0  0  0  0  0  0  0  0  0  0  0
    7.0546  -13.3743   25.0910 C   0  0  0  0  0  0  0  0  0  0  0  0
    8.0227  -12.3791   25.0606 C   0  0  0  0  0  0  0  0  0  0  0  0
    8.0760  -11.4497   26.0779 C   0  0  0  0  0  0  0  0  0  0  0  0
    7.1939  -11.4743   27.1385 C   0  0  0  0  0  0  0  0  0  0  0  0
    6.2437  -12.4501   27.1706 C   0  0  0  0  0  0  0  0  0  0  0  0
    6.1849  -13.3838   26.1519 C   0  0  0  0  0  0  0  0  0  0  0  0
    8.4630  -15.9515   25.2028 C   0  0  0  0  0  0  0  0  0  0  0  0
    7.8033  -16.8507   25.7047 O   0  0  0  0  0  0  0  0  0  0  0  0
   14.5652  -17.6039   26.1929 C   0  0  0  0  0  0  0  0  0  0  0  0
   14.0123  -17.5081   27.9173 S   0  0  0  0  0  0  0  0  0  0  0  0
   12.2440  -17.1477   28.0310 C   0  0  0  0  0  0  0  0  0  0  0  0
   11.7238  -16.3667   26.8350 C   0  0  0  0  0  0  0  0  0  0  0  0
   10.2450  -16.0800   26.9835 C   0  0  2  0  0  0  0  0  0  0  0  0
    9.6502  -15.4361   25.8506 N   0  0  0  0  0  0  0  0  0  0  0  0
    9.9869  -15.2969   28.2394 C   0  0  0  0  0  0  0  0  0  0  0  0
    9.9546  -14.0420   28.2782 O   0  0  0  0  0  0  0  0  0  0  0  0
    9.7630  -15.9175   29.4792 O   0  0  0  0  0  0  0  0  0  0  0  0
  2  3  1  0
  2  1  1  6
  4  5  1  0
  4  3  1  0
  6  5  1  0
  7  6  1  0
  8 10  1  0
  8  2  1  0
  9  8  2  0
 11 10  1  0
 11 12  1  1
 13 12  1  0
 13 14  2  0
 15 14  1  0
 16 15  2  0
 17 18  2  0
 17 16  1  0
 18 13  1  0
 19 26  1  0
 19 11  1  0
 20 19  2  0
 21 22  1  0
 22 23  1  0
 23 24  1  0
 25 24  1  6
 25 27  1  0
 25 26  1  0
 27 29  1  0
 28 27  2  0
M  END
$$$$
