KFM.pdb
     RDKit          3D

 29 29  0  0  1  0  0  0  0  0999 V2000
   10.8699  -17.1161   18.5704 N   0  0  0  0  0  0  0  0  0  0  0  0
   10.1360  -17.7714   19.6383 C   0  0  1  0  0  0  0  0  0  0  0  0
   10.8357  -19.0275   20.0931 C   0  0  0  0  0  0  0  0  0  0  0  0
   10.6691  -20.1354   19.0704 C   0  0  0  0  0  0  0  0  0  0  0  0
    9.3493  -20.8475   19.2353 C   0  0  0  0  0  0  0  0  0  0  0  0
    9.1950  -21.9860   18.2650 C   0  0  0  0  0  0  0  0  0  0  0  0
    7.8286  -22.4998   18.3185 N   0  0  0  0  0  0  0  0  0  0  0  0
   10.0063  -16.8053   20.7865 C   0  0  0  0  0  0  0  0  0  0  0  0
   11.0141  -16.1669   21.1662 O   0  0  0  0  0  0  0  0  0  0  0  0
    8.7562  -16.6134   21.4419 N   0  0  0  0  0  0  0  0  0  0  0  0
    8.5702  -15.7741   22.5749 C   0  0  1  0  0  0  0  0  0  0  0  0
    7.2141  -15.2237   22.7977 C   0  0  0  0  0  0  0  0  0  0  0  0
    7.0274  -14.2951   23.9027 C   0  0  0  0  0  0  0  0  0  0  0  0
    6.5516  -14.6963   25.1442 C   0  0  0  0  0  0  0  0  0  0  0  0
    6.4047  -13.7650   26.1504 C   0  0  0  0  0  0  0  0  0  0  0  0
    6.7144  -12.4332   25.9659 C   0  0  0  0  0  0  0  0  0  0  0  0
    7.1808  -12.0374   24.7485 C   0  0  0  0  0  0  0  0  0  0  0  0
    7.3314  -12.9679   23.7363 C   0  0  0  0  0  0  0  0  0  0  0  0
    9.1447  -16.3733   23.8357 C   0  0  0  0  0  0  0  0  0  0  0  0
    9.1678  -17.5866   23.9875 O   0  0  0  0  0  0  0  0  0  0  0  0
    9.1644  -13.4355   29.8044 C   0  0  0  0  0  0  0  0  0  0  0  0
   10.6377  -14.4868   29.9152 S   0  0  0  0  0  0  0  0  0  0  0  0
   10.7979  -15.5639   28.4717 C   0  0  0  0  0  0  0  0  0  0  0  0
   10.1498  -14.9805   27.2265 C   0  0  0  0  0  0  0  0  0  0  0  0
   10.2375  -15.9533   26.0701 C   0  0  2  0  0  0  0  0  0  0  0  0
    9.6561  -15.4771   24.8507 N   0  0  0  0  0  0  0  0  0  0  0  0
    9.6525  -17.2817   26.4577 C   0  0  0  0  0  0  0  0  0  0  0  0
    8.4178  -17.5067   26.5054 O   0  0  0  0  0  0  0  0  0  0  0  0
   10.4526  -18.3832   26.8027 O   0  0  0  0  0  0  0  0  0  0  0  0
  2  3  1  0
  2  1  1  6
  4  5  1  0
  4  3  1  0
  6  5  1  0
  7  6  1  0
  8 10  1  0
  8  2  1  0
  9  8  2  0
 11 10  1  0
 11 12  1  1
 13 12  1  0
 13 14  2  0
 15 14  1  0
 16 15  2  0
 17 18  2  0
 17 16  1  0
 18 13  1  0
 19 26  1  0
 19 11  1  0
 20 19  2  0
 21 22  1  0
 22 23  1  0
 23 24  1  0
 25 24  1  1
 25 27  1  0
 25 26  1  0
 27 29  1  0
 28 27  2  0
M  END
$$$$
