KFM.pdb
     RDKit          3D

 29 29  0  0  1  0  0  0  0  0999 V2000
    9.1726  -18.8468   19.8863 N   0  0  0  0  0  0  0  0  0  0  0  0
   10.2695  -17.9022   19.7723 C   0  0  1  0  0  0  0  0  0  0  0  0
   10.3382  -17.3071   18.3885 C   0  0  0  0  0  0  0  0  0  0  0  0
   10.5883  -18.3858   17.3517 C   0  0  0  0  0  0  0  0  0  0  0  0
   11.5281  -17.9092   16.2720 C   0  0  0  0  0  0  0  0  0  0  0  0
   11.6856  -18.9213   15.1710 C   0  0  0  0  0  0  0  0  0  0  0  0
   12.6325  -18.4257   14.1752 N   0  0  0  0  0  0  0  0  0  0  0  0
   10.0669  -16.8150   20.7949 C   0  0  0  0  0  0  0  0  0  0  0  0
   10.9102  -15.8939   20.8842 O   0  0  0  0  0  0  0  0  0  0  0  0
    8.9332  -16.8254   21.6573 N   0  0  0  0  0  0  0  0  0  0  0  0
    8.7445  -15.9197   22.7375 C   0  0  1  0  0  0  0  0  0  0  0  0
    7.3880  -15.3564   22.9230 C   0  0  0  0  0  0  0  0  0  0  0  0
    7.1869  -14.4025   24.0036 C   0  0  0  0  0  0  0  0  0  0  0  0
    6.6016  -14.7548   25.2127 C   0  0  0  0  0  0  0  0  0  0  0  0
    6.4471  -13.8021   26.1975 C   0  0  0  0  0  0  0  0  0  0  0  0
    6.8554  -12.4959   26.0226 C   0  0  0  0  0  0  0  0  0  0  0  0
    7.4295  -12.1480   24.8370 C   0  0  0  0  0  0  0  0  0  0  0  0
    7.5881  -13.1002   23.8464 C   0  0  0  0  0  0  0  0  0  0  0  0
    9.3150  -16.4425   24.0336 C   0  0  0  0  0  0  0  0  0  0  0  0
    8.8095  -17.4103   24.5845 O   0  0  0  0  0  0  0  0  0  0  0  0
    9.3845  -12.9716   28.8354 C   0  0  0  0  0  0  0  0  0  0  0  0
   10.5876  -14.2080   29.3942 S   0  0  0  0  0  0  0  0  0  0  0  0
   10.5066  -15.7146   28.3977 C   0  0  0  0  0  0  0  0  0  0  0  0
    9.9474  -15.4707   27.0054 C   0  0  0  0  0  0  0  0  0  0  0  0
   10.8956  -15.9927   25.9473 C   0  0  2  0  0  0  0  0  0  0  0  0
   10.4623  -15.7667   24.6008 N   0  0  0  0  0  0  0  0  0  0  0  0
   11.1870  -17.4485   26.1774 C   0  0  0  0  0  0  0  0  0  0  0  0
   11.9347  -17.8679   27.0951 O   0  0  0  0  0  0  0  0  0  0  0  0
   10.6406  -18.4606   25.3715 O   0  0  0  0  0  0  0  0  0  0  0  0
  2  3  1  0
  2  1  1  6
  4  5  1  0
  4  3  1  0
  6  5  1  0
  7  6  1  0
  8 10  1  0
  8  2  1  0
  9  8  2  0
 11 10  1  0
 11 12  1  1
 13 12  1  0
 13 14  2  0
 15 14  1  0
 16 15  2  0
 17 18  2  0
 17 16  1  0
 18 13  1  0
 19 26  1  0
 19 11  1  0
 20 19  2  0
 21 22  1  0
 22 23  1  0
 23 24  1  0
 25 24  1  1
 25 27  1  0
 25 26  1  0
 27 29  1  0
 28 27  2  0
M  END
$$$$
