KFM.pdb
     RDKit          3D

 29 29  0  0  1  0  0  0  0  0999 V2000
    7.9583  -18.5512   19.3363 N   0  0  0  0  0  0  0  0  0  0  0  0
    9.2226  -18.1139   19.9009 C   0  0  1  0  0  0  0  0  0  0  0  0
   10.1918  -17.7033   18.8211 C   0  0  0  0  0  0  0  0  0  0  0  0
   10.1375  -18.6711   17.6543 C   0  0  0  0  0  0  0  0  0  0  0  0
   11.2609  -18.4249   16.6777 C   0  0  0  0  0  0  0  0  0  0  0  0
   11.2971  -19.4567   15.5843 C   0  0  0  0  0  0  0  0  0  0  0  0
   12.3653  -19.1394   14.6399 N   0  0  0  0  0  0  0  0  0  0  0  0
    8.9537  -16.9549   20.8245 C   0  0  0  0  0  0  0  0  0  0  0  0
    8.4930  -15.8906   20.3529 O   0  0  0  0  0  0  0  0  0  0  0  0
    9.2184  -17.0566   22.2205 N   0  0  0  0  0  0  0  0  0  0  0  0
    9.0070  -16.0023   23.1513 C   0  0  1  0  0  0  0  0  0  0  0  0
    7.6219  -15.7816   23.6251 C   0  0  0  0  0  0  0  0  0  0  0  0
    7.3828  -14.6801   24.5458 C   0  0  0  0  0  0  0  0  0  0  0  0
    7.7639  -13.3746   24.2649 C   0  0  0  0  0  0  0  0  0  0  0  0
    7.5008  -12.3767   25.1794 C   0  0  0  0  0  0  0  0  0  0  0  0
    6.8674  -12.6313   26.3784 C   0  0  0  0  0  0  0  0  0  0  0  0
    6.4930  -13.9115   26.6562 C   0  0  0  0  0  0  0  0  0  0  0  0
    6.7534  -14.9159   25.7416 C   0  0  0  0  0  0  0  0  0  0  0  0
    9.9905  -16.0390   24.2958 C   0  0  0  0  0  0  0  0  0  0  0  0
   11.0323  -15.4013   24.2350 O   0  0  0  0  0  0  0  0  0  0  0  0
    8.6843  -13.8813   29.5325 C   0  0  0  0  0  0  0  0  0  0  0  0
   10.1532  -13.3426   28.6157 S   0  0  0  0  0  0  0  0  0  0  0  0
   10.6466  -14.5597   27.3729 C   0  0  0  0  0  0  0  0  0  0  0  0
   10.1812  -15.9672   27.7095 C   0  0  0  0  0  0  0  0  0  0  0  0
   10.5300  -16.9288   26.5937 C   0  0  2  0  0  0  0  0  0  0  0  0
    9.6688  -16.8481   25.4519 N   0  0  0  0  0  0  0  0  0  0  0  0
   10.5939  -18.3360   27.1161 C   0  0  0  0  0  0  0  0  0  0  0  0
    9.7730  -19.2310   26.7960 O   0  0  0  0  0  0  0  0  0  0  0  0
   11.5868  -18.7596   28.0146 O   0  0  0  0  0  0  0  0  0  0  0  0
  2  3  1  0
  2  1  1  6
  4  5  1  0
  4  3  1  0
  6  5  1  0
  7  6  1  0
  8 10  1  0
  8  2  1  0
  9  8  2  0
 11 10  1  0
 11 12  1  1
 13 12  1  0
 13 14  2  0
 15 14  1  0
 16 15  2  0
 17 18  2  0
 17 16  1  0
 18 13  1  0
 19 26  1  0
 19 11  1  0
 20 19  2  0
 21 22  1  0
 22 23  1  0
 23 24  1  0
 25 24  1  1
 25 27  1  0
 25 26  1  0
 27 29  1  0
 28 27  2  0
M  END
$$$$
