KFM.pdb
     RDKit          3D

 29 29  0  0  1  0  0  0  0  0999 V2000
   10.4566  -16.9546   18.9026 N   0  0  0  0  0  0  0  0  0  0  0  0
   10.1892  -17.8077   20.0468 C   0  0  1  0  0  0  0  0  0  0  0  0
   11.2732  -18.8406   20.2251 C   0  0  0  0  0  0  0  0  0  0  0  0
   11.0137  -20.0489   19.3455 C   0  0  0  0  0  0  0  0  0  0  0  0
   11.8238  -19.9925   18.0739 C   0  0  0  0  0  0  0  0  0  0  0  0
   11.6159  -21.2097   17.2156 C   0  0  0  0  0  0  0  0  0  0  0  0
   12.3358  -21.0543   15.9541 N   0  0  0  0  0  0  0  0  0  0  0  0
   10.0936  -16.9392   21.2736 C   0  0  0  0  0  0  0  0  0  0  0  0
   11.1423  -16.4881   21.7875 O   0  0  0  0  0  0  0  0  0  0  0  0
    8.8295  -16.6292   21.8525 N   0  0  0  0  0  0  0  0  0  0  0  0
    8.6552  -15.7798   22.9797 C   0  0  1  0  0  0  0  0  0  0  0  0
    7.3716  -15.0501   23.0889 C   0  0  0  0  0  0  0  0  0  0  0  0
    7.2296  -14.0754   24.1602 C   0  0  0  0  0  0  0  0  0  0  0  0
    7.7203  -12.7799   24.0624 C   0  0  0  0  0  0  0  0  0  0  0  0
    7.5454  -11.9043   25.1132 C   0  0  0  0  0  0  0  0  0  0  0  0
    6.8951  -12.2734   26.2727 C   0  0  0  0  0  0  0  0  0  0  0  0
    6.4134  -13.5441   26.3710 C   0  0  0  0  0  0  0  0  0  0  0  0
    6.5849  -14.4257   25.3193 C   0  0  0  0  0  0  0  0  0  0  0  0
    9.0237  -16.4603   24.2758 C   0  0  0  0  0  0  0  0  0  0  0  0
    8.4768  -17.5044   24.6019 O   0  0  0  0  0  0  0  0  0  0  0  0
   11.2127  -13.8061   30.0047 C   0  0  0  0  0  0  0  0  0  0  0  0
   10.1400  -13.2242   28.6635 S   0  0  0  0  0  0  0  0  0  0  0  0
   10.3984  -14.1713   27.1450 C   0  0  0  0  0  0  0  0  0  0  0  0
   10.9255  -15.5727   27.4073 C   0  0  0  0  0  0  0  0  0  0  0  0
   10.5779  -16.4997   26.2622 C   0  0  2  0  0  0  0  0  0  0  0  0
   10.0287  -15.8423   25.1142 N   0  0  0  0  0  0  0  0  0  0  0  0
    9.6682  -17.5979   26.7351 C   0  0  0  0  0  0  0  0  0  0  0  0
    9.9836  -18.4207   27.6299 O   0  0  0  0  0  0  0  0  0  0  0  0
    8.3828  -17.7901   26.2029 O   0  0  0  0  0  0  0  0  0  0  0  0
  2  3  1  0
  2  1  1  6
  4  5  1  0
  4  3  1  0
  6  5  1  0
  7  6  1  0
  8 10  1  0
  8  2  1  0
  9  8  2  0
 11 10  1  0
 11 12  1  1
 13 12  1  0
 13 14  2  0
 15 14  1  0
 16 15  2  0
 17 18  2  0
 17 16  1  0
 18 13  1  0
 19 26  1  0
 19 11  1  0
 20 19  2  0
 21 22  1  0
 22 23  1  0
 23 24  1  0
 25 24  1  1
 25 27  1  0
 25 26  1  0
 27 29  1  0
 28 27  2  0
M  END
$$$$
