PQR.pdb
     RDKit          3D

 28 28  0  0  1  0  0  0  0  0999 V2000
    7.0712  -18.1789   18.5216 N   0  0  0  0  0  0  0  0  0  0  0  0
    6.6566  -18.8732   17.3257 C   0  0  0  0  0  0  0  0  0  0  0  0
    7.3557  -18.2050   16.1667 C   0  0  0  0  0  0  0  0  0  0  0  0
    8.2344  -17.1383   16.8293 C   0  0  0  0  0  0  0  0  0  0  0  0
    8.4044  -17.7487   18.2087 C   0  0  1  0  0  0  0  0  0  0  0  0
    8.9108  -16.7611   19.1988 C   0  0  0  0  0  0  0  0  0  0  0  0
   10.1430  -16.7629   19.4438 O   0  0  0  0  0  0  0  0  0  0  0  0
   10.0986  -12.6243   19.5047 N   0  0  0  0  0  0  0  0  0  0  0  0
    8.8694  -12.6519   18.7551 C   0  0  0  0  0  0  0  0  0  0  0  0
    8.9469  -12.4539   17.5223 O   0  0  0  0  0  0  0  0  0  0  0  0
    7.5874  -12.9034   19.4210 C   0  0  0  0  0  0  0  0  0  0  0  0
    7.6567  -13.6437   20.7074 C   0  0  0  0  0  0  0  0  0  0  0  0
    8.5238  -14.8600   20.7154 C   0  0  2  0  0  0  0  0  0  0  0  0
    7.9949  -15.8701   19.8167 N   0  0  0  0  0  0  0  0  0  0  0  0
    8.4478  -15.4388   22.1065 C   0  0  0  0  0  0  0  0  0  0  0  0
    7.3477  -15.8127   22.5819 O   0  0  0  0  0  0  0  0  0  0  0  0
   10.8739  -17.1376   29.4176 N   0  0  0  0  0  0  0  0  0  0  0  0
   11.7496  -18.1054   28.8574 C   0  0  0  0  0  0  0  0  0  0  0  0
   12.8863  -18.4107   29.3956 N   0  0  0  0  0  0  0  0  0  0  0  0
   11.4487  -18.8155   27.6639 N   0  0  0  0  0  0  0  0  0  0  0  0
   11.4666  -18.2356   26.3854 C   0  0  0  0  0  0  0  0  0  0  0  0
   10.8980  -16.8838   26.2192 C   0  0  0  0  0  0  0  0  0  0  0  0
   10.9896  -16.3874   24.7973 C   0  0  0  0  0  0  0  0  0  0  0  0
    9.6244  -16.0690   24.2565 C   0  0  2  0  0  0  0  0  0  0  0  0
    9.6123  -15.5742   22.9098 N   0  0  0  0  0  0  0  0  0  0  0  0
    8.8995  -15.1093   25.1295 C   0  0  0  0  0  0  0  0  0  0  0  0
    8.2195  -15.5174   26.2739 O   0  0  0  0  0  0  0  0  0  0  0  0
    8.9057  -13.9010   24.8193 O   0  0  0  0  0  0  0  0  0  0  0  0
  1  2  1  0
  3  2  1  0
  4  5  1  0
  4  3  1  0
  5  1  1  0
  6  7  2  0
  5  6  1  1
  9  8  1  0
 10  9  2  0
 11  9  1  0
 13 12  1  1
 12 11  1  0
 13 14  1  0
 14  6  1  0
 15 25  1  0
 15 13  1  0
 16 15  2  0
 18 19  2  0
 18 17  1  0
 20 18  1  0
 21 20  1  0
 22 21  1  0
 24 23  1  1
 23 22  1  0
 24 25  1  0
 26 24  1  0
 27 26  1  0
 28 26  2  0
M  END
$$$$
