PQR.pdb
     RDKit          3D

 28 28  0  0  1  0  0  0  0  0999 V2000
    7.3063  -14.6922   19.5016 N   0  0  0  0  0  0  0  0  0  0  0  0
    6.3783  -13.6237   19.2166 C   0  0  0  0  0  0  0  0  0  0  0  0
    7.2031  -12.4122   18.8549 C   0  0  0  0  0  0  0  0  0  0  0  0
    8.6480  -12.9213   18.8988 C   0  0  0  0  0  0  0  0  0  0  0  0
    8.4200  -14.4004   18.6444 C   0  0  1  0  0  0  0  0  0  0  0  0
    9.6123  -15.2182   18.9931 C   0  0  0  0  0  0  0  0  0  0  0  0
   10.1308  -15.9086   18.0805 O   0  0  0  0  0  0  0  0  0  0  0  0
   15.7520  -13.9653   20.4322 N   0  0  0  0  0  0  0  0  0  0  0  0
   14.9628  -14.8505   19.6152 C   0  0  0  0  0  0  0  0  0  0  0  0
   15.2596  -14.9256   18.4022 O   0  0  0  0  0  0  0  0  0  0  0  0
   13.8608  -15.6259   20.1934 C   0  0  0  0  0  0  0  0  0  0  0  0
   12.4916  -15.1309   19.8975 C   0  0  0  0  0  0  0  0  0  0  0  0
   11.3761  -15.8374   20.5961 C   0  0  2  0  0  0  0  0  0  0  0  0
   10.1081  -15.1853   20.3226 N   0  0  0  0  0  0  0  0  0  0  0  0
   11.6267  -15.6885   22.0762 C   0  0  0  0  0  0  0  0  0  0  0  0
   11.7807  -14.5513   22.5852 O   0  0  0  0  0  0  0  0  0  0  0  0
    6.8104  -20.5245   24.4755 N   0  0  0  0  0  0  0  0  0  0  0  0
    6.7667  -20.1372   25.8412 C   0  0  0  0  0  0  0  0  0  0  0  0
    6.3269  -20.9198   26.7736 N   0  0  0  0  0  0  0  0  0  0  0  0
    7.2019  -18.8624   26.2934 N   0  0  0  0  0  0  0  0  0  0  0  0
    8.5467  -18.4596   26.3154 C   0  0  0  0  0  0  0  0  0  0  0  0
    8.9850  -17.4223   25.3613 C   0  0  0  0  0  0  0  0  0  0  0  0
   10.0469  -17.9198   24.4118 C   0  0  0  0  0  0  0  0  0  0  0  0
   11.1331  -16.8951   24.2452 C   0  0  2  0  0  0  0  0  0  0  0  0
   11.6953  -16.8248   22.9270 N   0  0  0  0  0  0  0  0  0  0  0  0
   12.2303  -17.0952   25.2274 C   0  0  0  0  0  0  0  0  0  0  0  0
   13.5293  -17.4051   24.8334 O   0  0  0  0  0  0  0  0  0  0  0  0
   11.9701  -16.9799   26.4420 O   0  0  0  0  0  0  0  0  0  0  0  0
  1  2  1  0
  3  2  1  0
  4  5  1  0
  4  3  1  0
  5  1  1  0
  6  7  2  0
  5  6  1  1
  9  8  1  0
 10  9  2  0
 11  9  1  0
 13 12  1  6
 12 11  1  0
 13 14  1  0
 14  6  1  0
 15 25  1  0
 15 13  1  0
 16 15  2  0
 18 19  2  0
 18 17  1  0
 20 18  1  0
 21 20  1  0
 22 21  1  0
 24 23  1  6
 23 22  1  0
 24 25  1  0
 26 24  1  0
 27 26  1  0
 28 26  2  0
M  END
$$$$
