PQR.pdb
     RDKit          3D

 28 28  0  0  1  0  0  0  0  0999 V2000
    8.8479  -13.8481   17.5088 N   0  0  0  0  0  0  0  0  0  0  0  0
    7.8504  -13.0169   16.8779 C   0  0  0  0  0  0  0  0  0  0  0  0
    6.5193  -13.3965   17.4802 C   0  0  0  0  0  0  0  0  0  0  0  0
    6.8769  -14.4493   18.5350 C   0  0  0  0  0  0  0  0  0  0  0  0
    8.3158  -14.0621   18.8247 C   0  0  1  0  0  0  0  0  0  0  0  0
    9.0492  -15.1354   19.5473 C   0  0  0  0  0  0  0  0  0  0  0  0
    8.4969  -15.6385   20.5573 O   0  0  0  0  0  0  0  0  0  0  0  0
   14.3081  -18.1990   17.3903 N   0  0  0  0  0  0  0  0  0  0  0  0
   14.0383  -18.7513   18.6926 C   0  0  0  0  0  0  0  0  0  0  0  0
   14.7967  -19.6608   19.0962 O   0  0  0  0  0  0  0  0  0  0  0  0
   12.9190  -18.2590   19.5017 C   0  0  0  0  0  0  0  0  0  0  0  0
   12.1280  -17.1487   18.9107 C   0  0  0  0  0  0  0  0  0  0  0  0
   10.9660  -16.6717   19.7193 C   0  0  2  0  0  0  0  0  0  0  0  0
   10.3239  -15.5414   19.0729 N   0  0  0  0  0  0  0  0  0  0  0  0
   11.5249  -16.1613   21.0243 C   0  0  0  0  0  0  0  0  0  0  0  0
   12.2088  -15.1090   21.0565 O   0  0  0  0  0  0  0  0  0  0  0  0
    7.9408  -18.6942   27.2651 N   0  0  0  0  0  0  0  0  0  0  0  0
    7.6133  -17.4537   26.6559 C   0  0  0  0  0  0  0  0  0  0  0  0
    6.5288  -17.2786   25.9715 N   0  0  0  0  0  0  0  0  0  0  0  0
    8.4474  -16.3071   26.7492 N   0  0  0  0  0  0  0  0  0  0  0  0
    9.4649  -16.0056   25.8300 C   0  0  0  0  0  0  0  0  0  0  0  0
    9.8058  -17.0110   24.8047 C   0  0  0  0  0  0  0  0  0  0  0  0
   11.2929  -17.2377   24.6872 C   0  0  0  0  0  0  0  0  0  0  0  0
   11.8537  -16.4879   23.5121 C   0  0  2  0  0  0  0  0  0  0  0  0
   11.2936  -16.8546   22.2431 N   0  0  0  0  0  0  0  0  0  0  0  0
   13.3330  -16.6100   23.4398 C   0  0  0  0  0  0  0  0  0  0  0  0
   14.1786  -15.8561   24.2492 O   0  0  0  0  0  0  0  0  0  0  0  0
   13.8244  -17.4164   22.6245 O   0  0  0  0  0  0  0  0  0  0  0  0
  1  2  1  0
  3  2  1  0
  4  5  1  0
  4  3  1  0
  5  1  1  0
  6  7  2  0
  5  6  1  6
  9  8  1  0
 10  9  2  0
 11  9  1  0
 13 12  1  6
 12 11  1  0
 13 14  1  0
 14  6  1  0
 15 25  1  0
 15 13  1  0
 16 15  2  0
 18 19  2  0
 18 17  1  0
 20 18  1  0
 21 20  1  0
 22 21  1  0
 24 23  1  1
 23 22  1  0
 24 25  1  0
 26 24  1  0
 27 26  1  0
 28 26  2  0
M  END
$$$$
