PQR.pdb
     RDKit          3D

 28 28  0  0  1  0  0  0  0  0999 V2000
    8.1488  -14.1639   19.7205 N   0  0  0  0  0  0  0  0  0  0  0  0
    7.2933  -13.0013   19.7438 C   0  0  0  0  0  0  0  0  0  0  0  0
    8.0644  -11.8771   19.0955 C   0  0  0  0  0  0  0  0  0  0  0  0
    9.3779  -12.5336   18.6569 C   0  0  0  0  0  0  0  0  0  0  0  0
    8.9274  -13.9776   18.5290 C   0  0  1  0  0  0  0  0  0  0  0  0
   10.0772  -14.9191   18.4699 C   0  0  0  0  0  0  0  0  0  0  0  0
   10.4146  -15.3546   17.3409 O   0  0  0  0  0  0  0  0  0  0  0  0
   15.5484  -15.1523   18.0178 N   0  0  0  0  0  0  0  0  0  0  0  0
   14.7109  -14.1687   18.6541 C   0  0  0  0  0  0  0  0  0  0  0  0
   15.1852  -13.0199   18.7965 O   0  0  0  0  0  0  0  0  0  0  0  0
   13.3605  -14.5123   19.1108 C   0  0  0  0  0  0  0  0  0  0  0  0
   12.9370  -15.9190   18.8890 C   0  0  0  0  0  0  0  0  0  0  0  0
   11.7114  -16.3559   19.6228 C   0  0  2  0  0  0  0  0  0  0  0  0
   10.7365  -15.2812   19.6736 N   0  0  0  0  0  0  0  0  0  0  0  0
   12.1303  -16.6251   21.0468 C   0  0  0  0  0  0  0  0  0  0  0  0
   11.9969  -15.7412   21.9284 O   0  0  0  0  0  0  0  0  0  0  0  0
   10.1419  -23.7730   21.9045 N   0  0  0  0  0  0  0  0  0  0  0  0
    9.2029  -22.7701   21.5446 C   0  0  0  0  0  0  0  0  0  0  0  0
    8.2710  -22.9702   20.6689 N   0  0  0  0  0  0  0  0  0  0  0  0
    9.2101  -21.4691   22.1160 N   0  0  0  0  0  0  0  0  0  0  0  0
   10.2981  -20.9339   22.8240 C   0  0  0  0  0  0  0  0  0  0  0  0
   11.3718  -20.2665   22.0624 C   0  0  0  0  0  0  0  0  0  0  0  0
   12.5175  -19.8267   22.9402 C   0  0  0  0  0  0  0  0  0  0  0  0
   12.7806  -18.3568   22.7739 C   0  0  2  0  0  0  0  0  0  0  0  0
   12.6839  -17.8783   21.4247 N   0  0  0  0  0  0  0  0  0  0  0  0
   14.1043  -17.9710   23.3287 C   0  0  0  0  0  0  0  0  0  0  0  0
   14.3956  -18.0712   24.6865 O   0  0  0  0  0  0  0  0  0  0  0  0
   14.9765  -17.5446   22.5452 O   0  0  0  0  0  0  0  0  0  0  0  0
  1  2  1  0
  3  2  1  0
  4  5  1  0
  4  3  1  0
  5  1  1  0
  6  7  2  0
  5  6  1  1
  9  8  1  0
 10  9  2  0
 11  9  1  0
 13 12  1  6
 12 11  1  0
 13 14  1  0
 14  6  1  0
 15 25  1  0
 15 13  1  0
 16 15  2  0
 18 19  2  0
 18 17  1  0
 20 18  1  0
 21 20  1  0
 22 21  1  0
 24 23  1  6
 23 22  1  0
 24 25  1  0
 26 24  1  0
 27 26  1  0
 28 26  2  0
M  END
$$$$
