PQR.pdb
     RDKit          3D

 28 28  0  0  1  0  0  0  0  0999 V2000
    7.2195  -19.1105   17.6633 N   0  0  0  0  0  0  0  0  0  0  0  0
    6.4979  -19.8048   16.6234 C   0  0  0  0  0  0  0  0  0  0  0  0
    6.9312  -19.1991   15.3104 C   0  0  0  0  0  0  0  0  0  0  0  0
    7.9934  -18.1691   15.7102 C   0  0  0  0  0  0  0  0  0  0  0  0
    8.4585  -18.7602   17.0287 C   0  0  1  0  0  0  0  0  0  0  0  0
    9.2342  -17.7823   17.8375 C   0  0  0  0  0  0  0  0  0  0  0  0
   10.3807  -17.4702   17.4297 O   0  0  0  0  0  0  0  0  0  0  0  0
    6.9936  -12.5946   19.8878 N   0  0  0  0  0  0  0  0  0  0  0  0
    7.5239  -13.0463   18.6275 C   0  0  0  0  0  0  0  0  0  0  0  0
    7.2220  -12.3840   17.6099 O   0  0  0  0  0  0  0  0  0  0  0  0
    8.3809  -14.2337   18.5538 C   0  0  0  0  0  0  0  0  0  0  0  0
    8.5858  -14.9683   19.8289 C   0  0  0  0  0  0  0  0  0  0  0  0
    9.3899  -16.2239   19.7377 C   0  0  2  0  0  0  0  0  0  0  0  0
    8.6556  -17.2495   19.0190 N   0  0  0  0  0  0  0  0  0  0  0  0
    9.5677  -16.7295   21.1479 C   0  0  0  0  0  0  0  0  0  0  0  0
    8.7580  -16.4013   22.0494 O   0  0  0  0  0  0  0  0  0  0  0  0
   13.1733  -23.8625   24.5254 N   0  0  0  0  0  0  0  0  0  0  0  0
   13.3689  -22.9441   25.5910 C   0  0  0  0  0  0  0  0  0  0  0  0
   13.8325  -23.3041   26.7446 N   0  0  0  0  0  0  0  0  0  0  0  0
   13.0729  -21.5591   25.4768 N   0  0  0  0  0  0  0  0  0  0  0  0
   12.2665  -21.0144   24.4647 C   0  0  0  0  0  0  0  0  0  0  0  0
   12.2109  -19.5462   24.3247 C   0  0  0  0  0  0  0  0  0  0  0  0
   12.0001  -19.1078   22.8964 C   0  0  0  0  0  0  0  0  0  0  0  0
   10.9409  -18.0451   22.8175 C   0  0  2  0  0  0  0  0  0  0  0  0
   10.6499  -17.5847   21.4901 N   0  0  0  0  0  0  0  0  0  0  0  0
   11.2739  -16.8753   23.6715 C   0  0  0  0  0  0  0  0  0  0  0  0
   10.8721  -16.7916   25.0019 O   0  0  0  0  0  0  0  0  0  0  0  0
   11.9352  -15.9428   23.1719 O   0  0  0  0  0  0  0  0  0  0  0  0
  1  2  1  0
  3  2  1  0
  4  5  1  0
  4  3  1  0
  5  1  1  0
  6  7  2  0
  5  6  1  1
  9  8  1  0
 10  9  2  0
 11  9  1  0
 13 12  1  1
 12 11  1  0
 13 14  1  0
 14  6  1  0
 15 25  1  0
 15 13  1  0
 16 15  2  0
 18 19  2  0
 18 17  1  0
 20 18  1  0
 21 20  1  0
 22 21  1  0
 24 23  1  6
 23 22  1  0
 24 25  1  0
 26 24  1  0
 27 26  1  0
 28 26  2  0
M  END
$$$$
