PQR.pdb
     RDKit          3D

 28 28  0  0  1  0  0  0  0  0999 V2000
    7.3232  -14.6102   20.2356 N   0  0  0  0  0  0  0  0  0  0  0  0
    7.1834  -14.1927   18.8607 C   0  0  0  0  0  0  0  0  0  0  0  0
    7.9821  -12.9213   18.7057 C   0  0  0  0  0  0  0  0  0  0  0  0
    8.6221  -12.7156   20.0829 C   0  0  0  0  0  0  0  0  0  0  0  0
    8.6345  -14.1463   20.5902 C   0  0  1  0  0  0  0  0  0  0  0  0
    8.8656  -14.2175   22.0577 C   0  0  0  0  0  0  0  0  0  0  0  0
   10.0555  -14.2031   22.4603 O   0  0  0  0  0  0  0  0  0  0  0  0
    5.3890  -11.2219   26.2092 N   0  0  0  0  0  0  0  0  0  0  0  0
    6.3121  -11.9687   27.0240 C   0  0  0  0  0  0  0  0  0  0  0  0
    6.3521  -11.6912   28.2433 O   0  0  0  0  0  0  0  0  0  0  0  0
    7.1631  -13.0085   26.4370 C   0  0  0  0  0  0  0  0  0  0  0  0
    7.0751  -13.1653   24.9622 C   0  0  0  0  0  0  0  0  0  0  0  0
    7.9865  -14.1828   24.3577 C   0  0  2  0  0  0  0  0  0  0  0  0
    7.7487  -14.2972   22.9300 N   0  0  0  0  0  0  0  0  0  0  0  0
    7.6155  -15.5134   24.9641 C   0  0  0  0  0  0  0  0  0  0  0  0
    6.5472  -16.0867   24.6382 O   0  0  0  0  0  0  0  0  0  0  0  0
    6.7958  -22.8696   23.7569 N   0  0  0  0  0  0  0  0  0  0  0  0
    6.3464  -21.5233   23.8091 C   0  0  0  0  0  0  0  0  0  0  0  0
    5.0946  -21.2101   23.9082 N   0  0  0  0  0  0  0  0  0  0  0  0
    7.2330  -20.4141   23.7574 N   0  0  0  0  0  0  0  0  0  0  0  0
    8.6268  -20.5225   23.8872 C   0  0  0  0  0  0  0  0  0  0  0  0
    9.3038  -19.6962   24.9057 C   0  0  0  0  0  0  0  0  0  0  0  0
    9.0661  -18.2196   24.7056 C   0  0  0  0  0  0  0  0  0  0  0  0
    8.6772  -17.5637   26.0001 C   0  0  2  0  0  0  0  0  0  0  0  0
    8.4603  -16.1480   25.9146 N   0  0  0  0  0  0  0  0  0  0  0  0
    9.6701  -17.8356   27.0720 C   0  0  0  0  0  0  0  0  0  0  0  0
    9.6500  -19.0103   27.8192 O   0  0  0  0  0  0  0  0  0  0  0  0
   10.5464  -16.9781   27.3028 O   0  0  0  0  0  0  0  0  0  0  0  0
  1  2  1  0
  3  2  1  0
  4  5  1  0
  4  3  1  0
  5  1  1  0
  6  7  2  0
  5  6  1  1
  9  8  1  0
 10  9  2  0
 11  9  1  0
 13 12  1  1
 12 11  1  0
 13 14  1  0
 14  6  1  0
 15 25  1  0
 15 13  1  0
 16 15  2  0
 18 19  2  0
 18 17  1  0
 20 18  1  0
 21 20  1  0
 22 21  1  0
 24 23  1  6
 23 22  1  0
 24 25  1  0
 26 24  1  0
 27 26  1  0
 28 26  2  0
M  END
$$$$
