PQR.pdb
     RDKit          3D

 28 28  0  0  1  0  0  0  0  0999 V2000
   12.6837  -16.6681   17.7223 N   0  0  0  0  0  0  0  0  0  0  0  0
   13.4339  -16.9570   16.5232 C   0  0  0  0  0  0  0  0  0  0  0  0
   13.6610  -15.6402   15.8208 C   0  0  0  0  0  0  0  0  0  0  0  0
   13.0363  -14.6053   16.7630 C   0  0  0  0  0  0  0  0  0  0  0  0
   13.1288  -15.3515   18.0816 C   0  0  1  0  0  0  0  0  0  0  0  0
   12.2647  -14.7451   19.1293 C   0  0  0  0  0  0  0  0  0  0  0  0
   12.7146  -13.7494   19.7494 O   0  0  0  0  0  0  0  0  0  0  0  0
    6.3992  -12.5836   18.8769 N   0  0  0  0  0  0  0  0  0  0  0  0
    7.5106  -13.0760   18.1048 C   0  0  0  0  0  0  0  0  0  0  0  0
    7.3172  -13.2707   16.8842 O   0  0  0  0  0  0  0  0  0  0  0  0
    8.8093  -13.3336   18.7349 C   0  0  0  0  0  0  0  0  0  0  0  0
    8.8132  -14.3374   19.8304 C   0  0  0  0  0  0  0  0  0  0  0  0
   10.1524  -14.6846   20.3937 C   0  0  2  0  0  0  0  0  0  0  0  0
   10.9861  -15.3076   19.3814 N   0  0  0  0  0  0  0  0  0  0  0  0
    9.9187  -15.7259   21.4599 C   0  0  0  0  0  0  0  0  0  0  0  0
    9.2353  -16.7495   21.2122 O   0  0  0  0  0  0  0  0  0  0  0  0
   16.4958  -19.3142   20.9959 N   0  0  0  0  0  0  0  0  0  0  0  0
   16.5899  -17.9300   21.2996 C   0  0  0  0  0  0  0  0  0  0  0  0
   17.6539  -17.2343   21.0567 N   0  0  0  0  0  0  0  0  0  0  0  0
   15.5257  -17.1986   21.8926 N   0  0  0  0  0  0  0  0  0  0  0  0
   14.2394  -17.7220   22.0995 C   0  0  0  0  0  0  0  0  0  0  0  0
   13.2508  -16.8933   22.8166 C   0  0  0  0  0  0  0  0  0  0  0  0
   11.9102  -17.5732   22.9469 C   0  0  0  0  0  0  0  0  0  0  0  0
   10.9103  -16.6572   23.5939 C   0  0  2  0  0  0  0  0  0  0  0  0
   10.4622  -15.5756   22.7644 N   0  0  0  0  0  0  0  0  0  0  0  0
   11.4232  -16.1029   24.8739 C   0  0  0  0  0  0  0  0  0  0  0  0
   11.5435  -14.7331   25.0921 O   0  0  0  0  0  0  0  0  0  0  0  0
   11.7543  -16.8980   25.7764 O   0  0  0  0  0  0  0  0  0  0  0  0
  1  2  1  0
  3  2  1  0
  4  5  1  0
  4  3  1  0
  5  1  1  0
  6  7  2  0
  5  6  1  1
  9  8  1  0
 10  9  2  0
 11  9  1  0
 13 12  1  6
 12 11  1  0
 13 14  1  0
 14  6  1  0
 15 25  1  0
 15 13  1  0
 16 15  2  0
 18 19  2  0
 18 17  1  0
 20 18  1  0
 21 20  1  0
 22 21  1  0
 24 23  1  6
 23 22  1  0
 24 25  1  0
 26 24  1  0
 27 26  1  0
 28 26  2  0
M  END
$$$$
