PQR.pdb
     RDKit          3D

 28 28  0  0  1  0  0  0  0  0999 V2000
    8.9176  -12.7851   19.5243 N   0  0  0  0  0  0  0  0  0  0  0  0
    7.6604  -12.2014   19.1206 C   0  0  0  0  0  0  0  0  0  0  0  0
    7.0644  -13.1202   18.0819 C   0  0  0  0  0  0  0  0  0  0  0  0
    8.0600  -14.2826   18.0005 C   0  0  0  0  0  0  0  0  0  0  0  0
    8.6893  -14.1948   19.3792 C   0  0  1  0  0  0  0  0  0  0  0  0
    9.9559  -14.9695   19.4663 C   0  0  0  0  0  0  0  0  0  0  0  0
    9.8874  -16.2147   19.3144 O   0  0  0  0  0  0  0  0  0  0  0  0
   15.8724  -13.6226   17.4779 N   0  0  0  0  0  0  0  0  0  0  0  0
   14.9596  -14.5797   16.9083 C   0  0  0  0  0  0  0  0  0  0  0  0
   15.1031  -14.8556   15.6966 O   0  0  0  0  0  0  0  0  0  0  0  0
   13.9109  -15.1981   17.7256 C   0  0  0  0  0  0  0  0  0  0  0  0
   13.4478  -14.4086   18.8960 C   0  0  0  0  0  0  0  0  0  0  0  0
   12.4011  -15.0522   19.7454 C   0  0  2  0  0  0  0  0  0  0  0  0
   11.1719  -14.2803   19.7133 N   0  0  0  0  0  0  0  0  0  0  0  0
   12.9039  -15.0025   21.1669 C   0  0  0  0  0  0  0  0  0  0  0  0
   13.1833  -13.9037   21.7060 O   0  0  0  0  0  0  0  0  0  0  0  0
   16.7936  -21.9422   22.6912 N   0  0  0  0  0  0  0  0  0  0  0  0
   15.3868  -21.8563   22.5160 C   0  0  0  0  0  0  0  0  0  0  0  0
   14.7542  -22.5365   21.6146 N   0  0  0  0  0  0  0  0  0  0  0  0
   14.5620  -21.0192   23.3147 N   0  0  0  0  0  0  0  0  0  0  0  0
   13.9725  -19.8326   22.8505 C   0  0  0  0  0  0  0  0  0  0  0  0
   14.5939  -18.5469   23.2236 C   0  0  0  0  0  0  0  0  0  0  0  0
   13.6199  -17.6027   23.8843 C   0  0  0  0  0  0  0  0  0  0  0  0
   13.6663  -16.2496   23.2327 C   0  0  2  0  0  0  0  0  0  0  0  0
   13.0738  -16.1911   21.9273 N   0  0  0  0  0  0  0  0  0  0  0  0
   15.0550  -15.7259   23.1560 C   0  0  0  0  0  0  0  0  0  0  0  0
   15.7026  -15.1800   24.2610 O   0  0  0  0  0  0  0  0  0  0  0  0
   15.6522  -15.7812   22.0620 O   0  0  0  0  0  0  0  0  0  0  0  0
  1  2  1  0
  3  2  1  0
  4  5  1  0
  4  3  1  0
  5  1  1  0
  6  7  2  0
  5  6  1  6
  9  8  1  0
 10  9  2  0
 11  9  1  0
 13 12  1  6
 12 11  1  0
 13 14  1  0
 14  6  1  0
 15 25  1  0
 15 13  1  0
 16 15  2  0
 18 19  2  0
 18 17  1  0
 20 18  1  0
 21 20  1  0
 22 21  1  0
 24 23  1  6
 23 22  1  0
 24 25  1  0
 26 24  1  0
 27 26  1  0
 28 26  2  0
M  END
$$$$
