PQR.pdb
     RDKit          3D

 28 28  0  0  1  0  0  0  0  0999 V2000
    8.4311  -14.7642   18.8971 N   0  0  0  0  0  0  0  0  0  0  0  0
    7.9242  -14.2645   17.6412 C   0  0  0  0  0  0  0  0  0  0  0  0
    7.2612  -12.9400   17.9324 C   0  0  0  0  0  0  0  0  0  0  0  0
    7.5054  -12.7249   19.4300 C   0  0  0  0  0  0  0  0  0  0  0  0
    8.7526  -13.5684   19.6231 C   0  0  1  0  0  0  0  0  0  0  0  0
    9.0201  -13.8510   21.0586 C   0  0  0  0  0  0  0  0  0  0  0  0
    9.8655  -13.1304   21.6454 O   0  0  0  0  0  0  0  0  0  0  0  0
    6.7300  -17.8910   24.8763 N   0  0  0  0  0  0  0  0  0  0  0  0
    6.9880  -16.8165   25.7997 C   0  0  0  0  0  0  0  0  0  0  0  0
    6.8476  -17.0636   27.0180 O   0  0  0  0  0  0  0  0  0  0  0  0
    7.3982  -15.4934   25.3190 C   0  0  0  0  0  0  0  0  0  0  0  0
    7.2809  -15.2679   23.8551 C   0  0  0  0  0  0  0  0  0  0  0  0
    8.5684  -15.1382   23.1088 C   0  0  2  0  0  0  0  0  0  0  0  0
    8.3193  -14.9072   21.6973 N   0  0  0  0  0  0  0  0  0  0  0  0
    9.2661  -16.4718   23.2105 C   0  0  0  0  0  0  0  0  0  0  0  0
    8.6931  -17.5216   22.8286 O   0  0  0  0  0  0  0  0  0  0  0  0
   15.1158  -14.1483   21.5777 N   0  0  0  0  0  0  0  0  0  0  0  0
   14.8834  -14.9742   20.4459 C   0  0  0  0  0  0  0  0  0  0  0  0
   14.9302  -14.5239   19.2334 N   0  0  0  0  0  0  0  0  0  0  0  0
   14.5822  -16.3587   20.5531 N   0  0  0  0  0  0  0  0  0  0  0  0
   14.2938  -17.0029   21.7668 C   0  0  0  0  0  0  0  0  0  0  0  0
   12.8950  -17.0210   22.2374 C   0  0  0  0  0  0  0  0  0  0  0  0
   12.7271  -17.7869   23.5265 C   0  0  0  0  0  0  0  0  0  0  0  0
   11.2855  -17.8060   23.9494 C   0  0  2  0  0  0  0  0  0  0  0  0
   10.5815  -16.5737   23.7388 N   0  0  0  0  0  0  0  0  0  0  0  0
   11.1374  -18.2089   25.3722 C   0  0  0  0  0  0  0  0  0  0  0  0
   11.2066  -17.2875   26.4137 O   0  0  0  0  0  0  0  0  0  0  0  0
   10.9451  -19.4138   25.6325 O   0  0  0  0  0  0  0  0  0  0  0  0
  1  2  1  0
  3  2  1  0
  4  5  1  0
  4  3  1  0
  5  1  1  0
  6  7  2  0
  5  6  1  1
  9  8  1  0
 10  9  2  0
 11  9  1  0
 13 12  1  1
 12 11  1  0
 13 14  1  0
 14  6  1  0
 15 25  1  0
 15 13  1  0
 16 15  2  0
 18 19  2  0
 18 17  1  0
 20 18  1  0
 21 20  1  0
 22 21  1  0
 24 23  1  1
 23 22  1  0
 24 25  1  0
 26 24  1  0
 27 26  1  0
 28 26  2  0
M  END
$$$$
