PQR.pdb
     RDKit          3D

 28 28  0  0  1  0  0  0  0  0999 V2000
    7.8556  -14.7228   18.0455 N   0  0  0  0  0  0  0  0  0  0  0  0
    7.8353  -13.8586   16.8892 C   0  0  0  0  0  0  0  0  0  0  0  0
    7.4313  -12.4875   17.3744 C   0  0  0  0  0  0  0  0  0  0  0  0
    7.2996  -12.6555   18.8921 C   0  0  0  0  0  0  0  0  0  0  0  0
    8.2257  -13.8378   19.1133 C   0  0  1  0  0  0  0  0  0  0  0  0
    8.0215  -14.4667   20.4455 C   0  0  0  0  0  0  0  0  0  0  0  0
    8.3896  -13.8188   21.4569 O   0  0  0  0  0  0  0  0  0  0  0  0
    3.5061  -18.5857   22.0157 N   0  0  0  0  0  0  0  0  0  0  0  0
    4.4213  -18.8166   20.9281 C   0  0  0  0  0  0  0  0  0  0  0  0
    4.0976  -19.6792   20.0818 O   0  0  0  0  0  0  0  0  0  0  0  0
    5.6763  -18.0649   20.8282 C   0  0  0  0  0  0  0  0  0  0  0  0
    5.9166  -17.0556   21.8918 C   0  0  0  0  0  0  0  0  0  0  0  0
    7.2270  -16.3413   21.8307 C   0  0  2  0  0  0  0  0  0  0  0  0
    7.4276  -15.7538   20.5183 N   0  0  0  0  0  0  0  0  0  0  0  0
    8.3006  -17.3870   22.0032 C   0  0  0  0  0  0  0  0  0  0  0  0
    8.1093  -18.5663   21.6176 O   0  0  0  0  0  0  0  0  0  0  0  0
   10.0304  -13.2385   28.9859 N   0  0  0  0  0  0  0  0  0  0  0  0
   10.1694  -14.6141   29.3108 C   0  0  0  0  0  0  0  0  0  0  0  0
   10.7792  -15.0197   30.3780 N   0  0  0  0  0  0  0  0  0  0  0  0
    9.6507  -15.6538   28.4928 N   0  0  0  0  0  0  0  0  0  0  0  0
    9.8259  -15.7126   27.1011 C   0  0  0  0  0  0  0  0  0  0  0  0
    9.2561  -16.8607   26.3693 C   0  0  0  0  0  0  0  0  0  0  0  0
    8.9233  -16.5269   24.9359 C   0  0  0  0  0  0  0  0  0  0  0  0
    9.8547  -17.2372   23.9948 C   0  0  2  0  0  0  0  0  0  0  0  0
    9.5481  -17.0662   22.6037 N   0  0  0  0  0  0  0  0  0  0  0  0
    9.9345  -18.6903   24.2961 C   0  0  0  0  0  0  0  0  0  0  0  0
    8.8155  -19.5177   24.2540 O   0  0  0  0  0  0  0  0  0  0  0  0
   11.0440  -19.1759   24.5953 O   0  0  0  0  0  0  0  0  0  0  0  0
  1  2  1  0
  3  2  1  0
  4  5  1  0
  4  3  1  0
  5  1  1  0
  6  7  2  0
  5  6  1  1
  9  8  1  0
 10  9  2  0
 11  9  1  0
 13 12  1  6
 12 11  1  0
 13 14  1  0
 14  6  1  0
 15 25  1  0
 15 13  1  0
 16 15  2  0
 18 19  2  0
 18 17  1  0
 20 18  1  0
 21 20  1  0
 22 21  1  0
 24 23  1  1
 23 22  1  0
 24 25  1  0
 26 24  1  0
 27 26  1  0
 28 26  2  0
M  END
$$$$
