PQR.pdb
     RDKit          3D

 28 28  0  0  1  0  0  0  0  0999 V2000
    9.3678  -13.9704   19.5094 N   0  0  0  0  0  0  0  0  0  0  0  0
    8.8648  -12.8116   18.8106 C   0  0  0  0  0  0  0  0  0  0  0  0
    7.3997  -12.6945   19.1548 C   0  0  0  0  0  0  0  0  0  0  0  0
    7.1599  -13.8374   20.1472 C   0  0  0  0  0  0  0  0  0  0  0  0
    8.5634  -14.0150   20.6975 C   0  0  1  0  0  0  0  0  0  0  0  0
    8.7215  -15.3046   21.4213 C   0  0  0  0  0  0  0  0  0  0  0  0
    7.9072  -15.5571   22.3440 O   0  0  0  0  0  0  0  0  0  0  0  0
   11.3156  -19.9827   18.2659 N   0  0  0  0  0  0  0  0  0  0  0  0
   12.1597  -19.1876   19.1196 C   0  0  0  0  0  0  0  0  0  0  0  0
   13.3884  -19.4203   19.0859 O   0  0  0  0  0  0  0  0  0  0  0  0
   11.5903  -18.1513   19.9868 C   0  0  0  0  0  0  0  0  0  0  0  0
   10.3348  -18.5128   20.6943 C   0  0  0  0  0  0  0  0  0  0  0  0
    9.8135  -17.4989   21.6595 C   0  0  2  0  0  0  0  0  0  0  0  0
    9.7701  -16.1842   21.0451 N   0  0  0  0  0  0  0  0  0  0  0  0
   10.8144  -17.4155   22.7852 C   0  0  0  0  0  0  0  0  0  0  0  0
   11.7159  -16.5419   22.7729 O   0  0  0  0  0  0  0  0  0  0  0  0
   11.4623  -21.6406   30.8196 N   0  0  0  0  0  0  0  0  0  0  0  0
   12.6364  -20.8668   30.6203 C   0  0  0  0  0  0  0  0  0  0  0  0
   13.5467  -20.7350   31.5309 N   0  0  0  0  0  0  0  0  0  0  0  0
   12.9063  -20.1768   29.4078 N   0  0  0  0  0  0  0  0  0  0  0  0
   11.9828  -20.0548   28.3573 C   0  0  0  0  0  0  0  0  0  0  0  0
   12.3376  -19.2028   27.2056 C   0  0  0  0  0  0  0  0  0  0  0  0
   11.2869  -19.2250   26.1229 C   0  0  0  0  0  0  0  0  0  0  0  0
   11.6606  -18.2985   25.0006 C   0  0  2  0  0  0  0  0  0  0  0  0
   10.7632  -18.3186   23.8813 N   0  0  0  0  0  0  0  0  0  0  0  0
   13.0420  -18.5544   24.5159 C   0  0  0  0  0  0  0  0  0  0  0  0
   14.1452  -17.8821   25.0352 O   0  0  0  0  0  0  0  0  0  0  0  0
   13.2092  -19.4004   23.6145 O   0  0  0  0  0  0  0  0  0  0  0  0
  1  2  1  0
  3  2  1  0
  4  5  1  0
  4  3  1  0
  5  1  1  0
  6  7  2  0
  5  6  1  6
  9  8  1  0
 10  9  2  0
 11  9  1  0
 13 12  1  6
 12 11  1  0
 13 14  1  0
 14  6  1  0
 15 25  1  0
 15 13  1  0
 16 15  2  0
 18 19  2  0
 18 17  1  0
 20 18  1  0
 21 20  1  0
 22 21  1  0
 24 23  1  1
 23 22  1  0
 24 25  1  0
 26 24  1  0
 27 26  1  0
 28 26  2  0
M  END
$$$$
