CTF.pdb
     RDKit          3D

 25 25  0  0  1  0  0  0  0  0999 V2000
    8.0650  -14.2606   17.5726 N   0  0  0  0  0  0  0  0  0  0  0  0
    8.4471  -13.8311   18.8814 C   0  0  1  0  0  0  0  0  0  0  0  0
    7.8256  -12.5097   19.2739 C   0  0  0  0  0  0  0  0  0  0  0  0
    8.2173  -12.0265   20.9557 S   0  0  0  0  0  0  0  0  0  0  0  0
    7.9555  -14.8403   19.8841 C   0  0  0  0  0  0  0  0  0  0  0  0
    7.0018  -15.6113   19.6019 O   0  0  0  0  0  0  0  0  0  0  0  0
    8.8335  -18.5496   22.0809 C   0  0  0  0  0  0  0  0  0  0  0  0
    8.8868  -17.3328   21.2033 C   0  0  1  0  0  0  0  0  0  0  0  0
    8.1557  -17.6043   20.0487 O   0  0  0  0  0  0  0  0  0  0  0  0
    8.2790  -16.1469   21.9595 C   0  0  2  0  0  0  0  0  0  0  0  0
    8.5387  -14.9605   21.1673 N   0  0  0  0  0  0  0  0  0  0  0  0
    8.9323  -16.0241   23.2929 C   0  0  0  0  0  0  0  0  0  0  0  0
   10.1542  -15.7527   23.3490 O   0  0  0  0  0  0  0  0  0  0  0  0
    8.2272  -16.2018   24.4959 N   0  0  0  0  0  0  0  0  0  0  0  0
    8.8537  -16.0556   25.7978 C   0  0  1  0  0  0  0  0  0  0  0  0
    7.7987  -15.5895   26.7477 C   0  0  0  0  0  0  0  0  0  0  0  0
    7.4086  -14.1799   26.5158 C   0  0  0  0  0  0  0  0  0  0  0  0
    8.3692  -13.1937   26.6797 C   0  0  0  0  0  0  0  0  0  0  0  0
    8.0911  -11.8606   26.4798 C   0  0  0  0  0  0  0  0  0  0  0  0
    6.8140  -11.5056   26.1050 C   0  0  0  0  0  0  0  0  0  0  0  0
    5.8413  -12.4699   25.9358 C   0  0  0  0  0  0  0  0  0  0  0  0
    6.1454  -13.7992   26.1423 C   0  0  0  0  0  0  0  0  0  0  0  0
    9.5548  -17.2696   26.2204 C   0  0  0  0  0  0  0  0  0  0  0  0
   10.6100  -17.2027   27.1490 O   0  0  0  0  0  0  0  0  0  0  0  0
    9.2619  -18.4084   25.7897 O   0  0  0  0  0  0  0  0  0  0  0  0
  2  1  1  6
  3  2  1  0
  4  3  1  0
  5  2  1  0
  5  6  2  0
  8  7  1  1
  8  9  1  0
  8 10  1  0
 10 11  1  6
 11  5  1  0
 12 10  1  0
 13 12  2  0
 14 12  1  0
 15 14  1  0
 15 16  1  1
 16 17  1  0
 17 22  2  0
 18 19  2  0
 18 17  1  0
 19 20  1  0
 20 21  2  0
 22 21  1  0
 23 15  1  0
 24 23  1  0
 25 23  2  0
M  END
$$$$
