CTF.pdb
     RDKit          3D

 25 25  0  0  1  0  0  0  0  0999 V2000
   -5.4203  -29.6961   28.0341 N   0  0  0  0  0  0  0  0  0  0  0  0
   -6.3718  -28.7637   28.5524 C   0  0  1  0  0  0  0  0  0  0  0  0
   -6.9528  -29.1905   29.8816 C   0  0  0  0  0  0  0  0  0  0  0  0
   -8.0042  -27.9384   30.6179 S   0  0  0  0  0  0  0  0  0  0  0  0
   -5.6774  -27.4515   28.8000 C   0  0  0  0  0  0  0  0  0  0  0  0
   -4.7351  -27.3720   29.6304 O   0  0  0  0  0  0  0  0  0  0  0  0
   -3.6301  -25.4919   26.6889 C   0  0  0  0  0  0  0  0  0  0  0  0
   -4.7366  -24.5552   27.0787 C   0  0  1  0  0  0  0  0  0  0  0  0
   -5.6890  -24.5696   26.0617 O   0  0  0  0  0  0  0  0  0  0  0  0
   -5.3506  -25.0324   28.3988 C   0  0  2  0  0  0  0  0  0  0  0  0
   -6.0517  -26.2702   28.1176 N   0  0  0  0  0  0  0  0  0  0  0  0
   -6.3074  -24.0054   28.8984 C   0  0  0  0  0  0  0  0  0  0  0  0
   -5.8625  -22.9096   29.3122 O   0  0  0  0  0  0  0  0  0  0  0  0
   -7.6964  -24.2196   28.9235 N   0  0  0  0  0  0  0  0  0  0  0  0
   -8.6320  -23.2235   29.4150 C   0  0  1  0  0  0  0  0  0  0  0  0
   -9.6890  -23.0553   28.3725 C   0  0  0  0  0  0  0  0  0  0  0  0
   -9.1285  -22.7072   27.0467 C   0  0  0  0  0  0  0  0  0  0  0  0
   -9.2008  -23.6487   26.0317 C   0  0  0  0  0  0  0  0  0  0  0  0
   -8.7084  -23.4040   24.7699 C   0  0  0  0  0  0  0  0  0  0  0  0
   -8.1269  -22.1809   24.5180 C   0  0  0  0  0  0  0  0  0  0  0  0
   -8.0437  -21.2280   25.5130 C   0  0  0  0  0  0  0  0  0  0  0  0
   -8.5448  -21.4978   26.7692 C   0  0  0  0  0  0  0  0  0  0  0  0
   -9.1433  -23.5466   30.7485 C   0  0  0  0  0  0  0  0  0  0  0  0
   -8.7472  -24.7280   31.4023 O   0  0  0  0  0  0  0  0  0  0  0  0
   -9.9425  -22.8074   31.3673 O   0  0  0  0  0  0  0  0  0  0  0  0
  2  1  1  1
  3  2  1  0
  4  3  1  0
  5  2  1  0
  5  6  2  0
  8  7  1  6
  8  9  1  0
  8 10  1  0
 10 11  1  6
 11  5  1  0
 12 10  1  0
 13 12  2  0
 14 12  1  0
 15 14  1  0
 15 16  1  6
 16 17  1  0
 17 22  2  0
 18 19  2  0
 18 17  1  0
 19 20  1  0
 20 21  2  0
 22 21  1  0
 23 15  1  0
 24 23  1  0
 25 23  2  0
M  END
$$$$
