CTF.pdb
     RDKit          3D

 25 25  0  0  1  0  0  0  0  0999 V2000
    8.2888  -13.2928   18.3128 N   0  0  0  0  0  0  0  0  0  0  0  0
    8.8772  -14.4139   18.9765 C   0  0  1  0  0  0  0  0  0  0  0  0
   10.3360  -14.2016   19.3132 C   0  0  0  0  0  0  0  0  0  0  0  0
   10.6603  -12.5878   20.0242 S   0  0  0  0  0  0  0  0  0  0  0  0
    8.1702  -14.6246   20.2885 C   0  0  0  0  0  0  0  0  0  0  0  0
    7.3320  -13.7842   20.7067 O   0  0  0  0  0  0  0  0  0  0  0  0
    6.0933  -17.4091   20.8593 C   0  0  0  0  0  0  0  0  0  0  0  0
    6.9756  -17.4084   22.0738 C   0  0  1  0  0  0  0  0  0  0  0  0
    7.9797  -18.3538   21.8750 O   0  0  0  0  0  0  0  0  0  0  0  0
    7.5786  -16.0110   22.2500 C   0  0  2  0  0  0  0  0  0  0  0  0
    8.4168  -15.7616   21.0932 N   0  0  0  0  0  0  0  0  0  0  0  0
    8.4002  -15.9805   23.4925 C   0  0  0  0  0  0  0  0  0  0  0  0
    9.6485  -15.9340   23.3954 O   0  0  0  0  0  0  0  0  0  0  0  0
    7.8261  -16.0020   24.7754 N   0  0  0  0  0  0  0  0  0  0  0  0
    8.6241  -16.0080   25.9887 C   0  0  1  0  0  0  0  0  0  0  0  0
    7.7826  -15.4225   27.0757 C   0  0  0  0  0  0  0  0  0  0  0  0
    7.4146  -14.0126   26.8118 C   0  0  0  0  0  0  0  0  0  0  0  0
    6.1002  -13.7250   26.4776 C   0  0  0  0  0  0  0  0  0  0  0  0
    5.6742  -12.4415   26.2214 C   0  0  0  0  0  0  0  0  0  0  0  0
    6.5914  -11.4170   26.3024 C   0  0  0  0  0  0  0  0  0  0  0  0
    7.9053  -11.6792   26.6334 C   0  0  0  0  0  0  0  0  0  0  0  0
    8.3072  -12.9742   26.8856 C   0  0  0  0  0  0  0  0  0  0  0  0
    9.1697  -17.3323   26.2926 C   0  0  0  0  0  0  0  0  0  0  0  0
   10.1618  -17.4911   27.2778 O   0  0  0  0  0  0  0  0  0  0  0  0
    8.7931  -18.3732   25.7070 O   0  0  0  0  0  0  0  0  0  0  0  0
  2  1  1  1
  3  2  1  0
  4  3  1  0
  5  2  1  0
  5  6  2  0
  8  7  1  6
  8  9  1  0
  8 10  1  0
 10 11  1  6
 11  5  1  0
 12 10  1  0
 13 12  2  0
 14 12  1  0
 15 14  1  0
 15 16  1  1
 16 17  1  0
 17 22  2  0
 18 19  2  0
 18 17  1  0
 19 20  1  0
 20 21  2  0
 22 21  1  0
 23 15  1  0
 24 23  1  0
 25 23  2  0
M  END
$$$$
