CTF.pdb
     RDKit          3D

 25 25  0  0  1  0  0  0  0  0999 V2000
    8.5740  -14.7496   17.5490 N   0  0  0  0  0  0  0  0  0  0  0  0
    8.7195  -14.0945   18.8112 C   0  0  1  0  0  0  0  0  0  0  0  0
    7.9676  -12.7847   18.8866 C   0  0  0  0  0  0  0  0  0  0  0  0
    8.1384  -11.9726   20.4761 S   0  0  0  0  0  0  0  0  0  0  0  0
    8.1362  -14.9754   19.8832 C   0  0  0  0  0  0  0  0  0  0  0  0
    7.1348  -15.6988   19.6433 O   0  0  0  0  0  0  0  0  0  0  0  0
    7.5438  -17.4659   20.2696 C   0  0  0  0  0  0  0  0  0  0  0  0
    8.3509  -17.3740   21.5320 C   0  0  1  0  0  0  0  0  0  0  0  0
    9.6879  -17.5875   21.2029 O   0  0  0  0  0  0  0  0  0  0  0  0
    8.1621  -15.9816   22.1430 C   0  0  2  0  0  0  0  0  0  0  0  0
    8.6838  -15.0245   21.1867 N   0  0  0  0  0  0  0  0  0  0  0  0
    8.9243  -15.8951   23.4202 C   0  0  0  0  0  0  0  0  0  0  0  0
   10.1297  -15.5551   23.3875 O   0  0  0  0  0  0  0  0  0  0  0  0
    8.3402  -16.1816   24.6663 N   0  0  0  0  0  0  0  0  0  0  0  0
    9.0529  -16.0140   25.9204 C   0  0  1  0  0  0  0  0  0  0  0  0
    8.0481  -15.6140   26.9514 C   0  0  0  0  0  0  0  0  0  0  0  0
    7.5427  -14.2371   26.7475 C   0  0  0  0  0  0  0  0  0  0  0  0
    8.4090  -13.1770   26.9662 C   0  0  0  0  0  0  0  0  0  0  0  0
    8.0210  -11.8675   26.7954 C   0  0  0  0  0  0  0  0  0  0  0  0
    6.7281  -11.6130   26.3940 C   0  0  0  0  0  0  0  0  0  0  0  0
    5.8480  -12.6522   26.1702 C   0  0  0  0  0  0  0  0  0  0  0  0
    6.2613  -13.9559   26.3484 C   0  0  0  0  0  0  0  0  0  0  0  0
    9.8466  -17.1924   26.2743 C   0  0  0  0  0  0  0  0  0  0  0  0
    9.7562  -18.3734   25.5145 O   0  0  0  0  0  0  0  0  0  0  0  0
   10.6317  -17.2151   27.2497 O   0  0  0  0  0  0  0  0  0  0  0  0
  2  1  1  6
  3  2  1  0
  4  3  1  0
  5  2  1  0
  5  6  2  0
  8  7  1  6
  8  9  1  0
  8 10  1  0
 10 11  1  6
 11  5  1  0
 12 10  1  0
 13 12  2  0
 14 12  1  0
 15 14  1  0
 15 16  1  1
 16 17  1  0
 17 22  2  0
 18 19  2  0
 18 17  1  0
 19 20  1  0
 20 21  2  0
 22 21  1  0
 23 15  1  0
 24 23  1  0
 25 23  2  0
M  END
$$$$
