CTF.pdb
     RDKit          3D

 25 25  0  0  1  0  0  0  0  0999 V2000
    8.4672  -14.9011   17.3161 N   0  0  0  0  0  0  0  0  0  0  0  0
    8.6682  -14.3157   18.6046 C   0  0  1  0  0  0  0  0  0  0  0  0
    7.7733  -13.1233   18.8573 C   0  0  0  0  0  0  0  0  0  0  0  0
    8.5116  -11.9182   19.9608 S   0  0  0  0  0  0  0  0  0  0  0  0
    8.3191  -15.3330   19.6576 C   0  0  0  0  0  0  0  0  0  0  0  0
    7.4015  -16.1712   19.4592 O   0  0  0  0  0  0  0  0  0  0  0  0
    8.7547  -18.1411   20.1054 C   0  0  0  0  0  0  0  0  0  0  0  0
    9.3353  -17.7029   21.4186 C   0  0  1  0  0  0  0  0  0  0  0  0
   10.7002  -17.4912   21.2347 O   0  0  0  0  0  0  0  0  0  0  0  0
    8.6442  -16.4090   21.8612 C   0  0  2  0  0  0  0  0  0  0  0  0
    9.0000  -15.3866   20.8964 N   0  0  0  0  0  0  0  0  0  0  0  0
    9.1333  -16.0260   23.2154 C   0  0  0  0  0  0  0  0  0  0  0  0
   10.2293  -15.4280   23.3198 O   0  0  0  0  0  0  0  0  0  0  0  0
    8.4090  -16.3112   24.3858 N   0  0  0  0  0  0  0  0  0  0  0  0
    8.8229  -15.8395   25.6955 C   0  0  1  0  0  0  0  0  0  0  0  0
    7.5854  -15.4580   26.4409 C   0  0  0  0  0  0  0  0  0  0  0  0
    7.2002  -14.0458   26.2168 C   0  0  0  0  0  0  0  0  0  0  0  0
    6.0305  -13.5807   26.7975 C   0  0  0  0  0  0  0  0  0  0  0  0
    5.6028  -12.2816   26.6428 C   0  0  0  0  0  0  0  0  0  0  0  0
    6.3691  -11.4242   25.8845 C   0  0  0  0  0  0  0  0  0  0  0  0
    7.5374  -11.8648   25.2967 C   0  0  0  0  0  0  0  0  0  0  0  0
    7.9443  -13.1715   25.4669 C   0  0  0  0  0  0  0  0  0  0  0  0
    9.6765  -16.8033   26.3929 C   0  0  0  0  0  0  0  0  0  0  0  0
   10.4855  -16.3975   27.4704 O   0  0  0  0  0  0  0  0  0  0  0  0
    9.7333  -18.0137   26.0772 O   0  0  0  0  0  0  0  0  0  0  0  0
  2  1  1  6
  3  2  1  0
  4  3  1  0
  5  2  1  0
  5  6  2  0
  8  7  1  6
  8  9  1  0
  8 10  1  0
 10 11  1  6
 11  5  1  0
 12 10  1  0
 13 12  2  0
 14 12  1  0
 15 14  1  0
 15 16  1  1
 16 17  1  0
 17 22  2  0
 18 19  2  0
 18 17  1  0
 19 20  1  0
 20 21  2  0
 22 21  1  0
 23 15  1  0
 24 23  1  0
 25 23  2  0
M  END
$$$$
