CTF.pdb
     RDKit          3D

 25 25  0  0  1  0  0  0  0  0999 V2000
    8.4709  -14.3854   17.6948 N   0  0  0  0  0  0  0  0  0  0  0  0
    9.1938  -14.3131   18.9259 C   0  0  1  0  0  0  0  0  0  0  0  0
    9.4470  -12.8930   19.3792 C   0  0  0  0  0  0  0  0  0  0  0  0
    7.9388  -12.0073   19.7744 S   0  0  0  0  0  0  0  0  0  0  0  0
    8.3708  -14.9586   20.0083 C   0  0  0  0  0  0  0  0  0  0  0  0
    7.2127  -15.3860   19.7636 O   0  0  0  0  0  0  0  0  0  0  0  0
    7.5665  -17.4431   20.3241 C   0  0  0  0  0  0  0  0  0  0  0  0
    8.2940  -17.4180   21.6370 C   0  0  1  0  0  0  0  0  0  0  0  0
    9.6262  -17.7473   21.3956 O   0  0  0  0  0  0  0  0  0  0  0  0
    8.1867  -16.0130   22.2386 C   0  0  2  0  0  0  0  0  0  0  0  0
    8.8605  -15.1086   21.3270 N   0  0  0  0  0  0  0  0  0  0  0  0
    8.8583  -15.9923   23.5683 C   0  0  0  0  0  0  0  0  0  0  0  0
   10.0905  -15.7727   23.6242 O   0  0  0  0  0  0  0  0  0  0  0  0
    8.1592  -16.2106   24.7681 N   0  0  0  0  0  0  0  0  0  0  0  0
    8.7831  -16.0728   26.0723 C   0  0  1  0  0  0  0  0  0  0  0  0
    7.7174  -15.6525   27.0315 C   0  0  0  0  0  0  0  0  0  0  0  0
    7.2507  -14.2679   26.7906 C   0  0  0  0  0  0  0  0  0  0  0  0
    8.1803  -13.2404   26.8385 C   0  0  0  0  0  0  0  0  0  0  0  0
    7.8310  -11.9267   26.6221 C   0  0  0  0  0  0  0  0  0  0  0  0
    6.5127  -11.6344   26.3500 C   0  0  0  0  0  0  0  0  0  0  0  0
    5.5697  -12.6407   26.2971 C   0  0  0  0  0  0  0  0  0  0  0  0
    5.9453  -13.9493   26.5177 C   0  0  0  0  0  0  0  0  0  0  0  0
    9.5162  -17.2759   26.4713 C   0  0  0  0  0  0  0  0  0  0  0  0
    9.4271  -18.4562   25.7104 O   0  0  0  0  0  0  0  0  0  0  0  0
   10.2461  -17.3210   27.4878 O   0  0  0  0  0  0  0  0  0  0  0  0
  2  1  1  6
  3  2  1  0
  4  3  1  0
  5  2  1  0
  5  6  2  0
  8  7  1  6
  8  9  1  0
  8 10  1  0
 10 11  1  6
 11  5  1  0
 12 10  1  0
 13 12  2  0
 14 12  1  0
 15 14  1  0
 15 16  1  1
 16 17  1  0
 17 22  2  0
 18 19  2  0
 18 17  1  0
 19 20  1  0
 20 21  2  0
 22 21  1  0
 23 15  1  0
 24 23  1  0
 25 23  2  0
M  END
$$$$
