CTF.pdb
     RDKit          3D

 25 25  0  0  1  0  0  0  0  0999 V2000
    7.9449  -13.9113   18.0301 N   0  0  0  0  0  0  0  0  0  0  0  0
    9.0015  -14.1878   18.9524 C   0  0  1  0  0  0  0  0  0  0  0  0
    9.7240  -12.9419   19.4131 C   0  0  0  0  0  0  0  0  0  0  0  0
    8.6106  -11.6728   20.0172 S   0  0  0  0  0  0  0  0  0  0  0  0
    8.4129  -14.8128   20.1887 C   0  0  0  0  0  0  0  0  0  0  0  0
    7.1887  -14.6845   20.4506 O   0  0  0  0  0  0  0  0  0  0  0  0
    8.0154  -18.0961   20.5156 C   0  0  0  0  0  0  0  0  0  0  0  0
    8.7343  -17.8031   21.8005 C   0  0  1  0  0  0  0  0  0  0  0  0
   10.0823  -18.1033   21.6159 O   0  0  0  0  0  0  0  0  0  0  0  0
    8.5545  -16.3209   22.1445 C   0  0  2  0  0  0  0  0  0  0  0  0
    9.2026  -15.5600   21.0938 N   0  0  0  0  0  0  0  0  0  0  0  0
    9.2023  -16.0360   23.4556 C   0  0  0  0  0  0  0  0  0  0  0  0
   10.3640  -15.5669   23.4711 O   0  0  0  0  0  0  0  0  0  0  0  0
    8.5571  -16.2742   24.6815 N   0  0  0  0  0  0  0  0  0  0  0  0
    9.1518  -15.9227   25.9589 C   0  0  1  0  0  0  0  0  0  0  0  0
    8.0335  -15.5889   26.8918 C   0  0  0  0  0  0  0  0  0  0  0  0
    7.3795  -14.3031   26.5571 C   0  0  0  0  0  0  0  0  0  0  0  0
    8.0870  -13.1291   26.7648 C   0  0  0  0  0  0  0  0  0  0  0  0
    7.5548  -11.8930   26.4762 C   0  0  0  0  0  0  0  0  0  0  0  0
    6.2772  -11.8315   25.9650 C   0  0  0  0  0  0  0  0  0  0  0  0
    5.5537  -12.9870   25.7498 C   0  0  0  0  0  0  0  0  0  0  0  0
    6.1098  -14.2136   26.0472 C   0  0  0  0  0  0  0  0  0  0  0  0
   10.0648  -16.9550   26.4536 C   0  0  0  0  0  0  0  0  0  0  0  0
   10.9666  -16.6755   27.4971 O   0  0  0  0  0  0  0  0  0  0  0  0
   10.0938  -18.1168   25.9873 O   0  0  0  0  0  0  0  0  0  0  0  0
  2  1  1  6
  3  2  1  0
  4  3  1  0
  5  2  1  0
  5  6  2  0
  8  7  1  6
  8  9  1  0
  8 10  1  0
 10 11  1  6
 11  5  1  0
 12 10  1  0
 13 12  2  0
 14 12  1  0
 15 14  1  0
 15 16  1  1
 16 17  1  0
 17 22  2  0
 18 19  2  0
 18 17  1  0
 19 20  1  0
 20 21  2  0
 22 21  1  0
 23 15  1  0
 24 23  1  0
 25 23  2  0
M  END
$$$$
