CTF.pdb
     RDKit          3D

 25 25  0  0  1  0  0  0  0  0999 V2000
    7.5246  -14.6713   17.8868 N   0  0  0  0  0  0  0  0  0  0  0  0
    8.4180  -14.3040   18.9405 C   0  0  1  0  0  0  0  0  0  0  0  0
    8.1663  -12.9097   19.4687 C   0  0  0  0  0  0  0  0  0  0  0  0
    9.6788  -12.0085   19.8083 S   0  0  0  0  0  0  0  0  0  0  0  0
    8.2053  -15.2374   20.1020 C   0  0  0  0  0  0  0  0  0  0  0  0
    7.0480  -15.4528   20.5471 O   0  0  0  0  0  0  0  0  0  0  0  0
    9.4054  -18.9431   22.8698 C   0  0  0  0  0  0  0  0  0  0  0  0
    9.5536  -18.1076   21.6315 C   0  0  1  0  0  0  0  0  0  0  0  0
    8.8061  -18.7052   20.6188 O   0  0  0  0  0  0  0  0  0  0  0  0
    9.0370  -16.6943   21.9201 C   0  0  2  0  0  0  0  0  0  0  0  0
    9.2843  -15.9013   20.7314 N   0  0  0  0  0  0  0  0  0  0  0  0
    9.7800  -16.1237   23.0786 C   0  0  0  0  0  0  0  0  0  0  0  0
   10.9554  -15.7238   22.9103 O   0  0  0  0  0  0  0  0  0  0  0  0
    9.2103  -16.0164   24.3591 N   0  0  0  0  0  0  0  0  0  0  0  0
    9.9385  -15.4818   25.4962 C   0  0  1  0  0  0  0  0  0  0  0  0
    9.7329  -14.0019   25.4985 C   0  0  0  0  0  0  0  0  0  0  0  0
    8.3302  -13.6241   25.7860 C   0  0  0  0  0  0  0  0  0  0  0  0
    8.0297  -13.1033   27.0352 C   0  0  0  0  0  0  0  0  0  0  0  0
    6.7531  -12.7231   27.3819 C   0  0  0  0  0  0  0  0  0  0  0  0
    5.7489  -12.8689   26.4503 C   0  0  0  0  0  0  0  0  0  0  0  0
    6.0243  -13.3850   25.2003 C   0  0  0  0  0  0  0  0  0  0  0  0
    7.3120  -13.7586   24.8773 C   0  0  0  0  0  0  0  0  0  0  0  0
    9.5799  -16.1445   26.7516 C   0  0  0  0  0  0  0  0  0  0  0  0
   10.2889  -15.8706   27.9359 O   0  0  0  0  0  0  0  0  0  0  0  0
    8.6446  -16.9724   26.8400 O   0  0  0  0  0  0  0  0  0  0  0  0
  2  1  1  6
  3  2  1  0
  4  3  1  0
  5  2  1  0
  5  6  2  0
  8  7  1  1
  8  9  1  0
  8 10  1  0
 10 11  1  6
 11  5  1  0
 12 10  1  0
 13 12  2  0
 14 12  1  0
 15 14  1  0
 15 16  1  1
 16 17  1  0
 17 22  2  0
 18 19  2  0
 18 17  1  0
 19 20  1  0
 20 21  2  0
 22 21  1  0
 23 15  1  0
 24 23  1  0
 25 23  2  0
M  END
$$$$
