CTF.pdb
     RDKit          3D

 25 25  0  0  1  0  0  0  0  0999 V2000
    7.7819  -14.5170   18.0944 N   0  0  0  0  0  0  0  0  0  0  0  0
    8.3693  -14.1491   19.3446 C   0  0  1  0  0  0  0  0  0  0  0  0
    8.0311  -12.7358   19.7625 C   0  0  0  0  0  0  0  0  0  0  0  0
    9.0814  -11.5080   18.9849 S   0  0  0  0  0  0  0  0  0  0  0  0
    7.8197  -15.0475   20.4199 C   0  0  0  0  0  0  0  0  0  0  0  0
    6.5878  -15.2984   20.4773 O   0  0  0  0  0  0  0  0  0  0  0  0
    7.4208  -18.2051   20.8124 C   0  0  0  0  0  0  0  0  0  0  0  0
    8.2677  -17.9211   22.0189 C   0  0  1  0  0  0  0  0  0  0  0  0
    9.5975  -18.1535   21.6738 O   0  0  0  0  0  0  0  0  0  0  0  0
    8.0666  -16.4604   22.4355 C   0  0  2  0  0  0  0  0  0  0  0  0
    8.6557  -15.6380   21.3965 N   0  0  0  0  0  0  0  0  0  0  0  0
    8.7574  -16.2171   23.7329 C   0  0  0  0  0  0  0  0  0  0  0  0
    9.9604  -15.8674   23.7254 O   0  0  0  0  0  0  0  0  0  0  0  0
    8.1081  -16.3655   24.9708 N   0  0  0  0  0  0  0  0  0  0  0  0
    8.7296  -15.9916   26.2289 C   0  0  1  0  0  0  0  0  0  0  0  0
    7.6702  -15.3690   27.0790 C   0  0  0  0  0  0  0  0  0  0  0  0
    7.2830  -14.0201   26.6064 C   0  0  0  0  0  0  0  0  0  0  0  0
    6.0693  -13.8730   25.9527 C   0  0  0  0  0  0  0  0  0  0  0  0
    5.6323  -12.6541   25.4860 C   0  0  0  0  0  0  0  0  0  0  0  0
    6.4344  -11.5511   25.6797 C   0  0  0  0  0  0  0  0  0  0  0  0
    7.6468  -11.6733   26.3278 C   0  0  0  0  0  0  0  0  0  0  0  0
    8.0620  -12.9060   26.7862 C   0  0  0  0  0  0  0  0  0  0  0  0
    9.4317  -17.1107   26.8601 C   0  0  0  0  0  0  0  0  0  0  0  0
   10.3499  -16.8859   27.9026 O   0  0  0  0  0  0  0  0  0  0  0  0
    9.2589  -18.3023   26.5161 O   0  0  0  0  0  0  0  0  0  0  0  0
  2  1  1  6
  3  2  1  0
  4  3  1  0
  5  2  1  0
  5  6  2  0
  8  7  1  6
  8  9  1  0
  8 10  1  0
 10 11  1  6
 11  5  1  0
 12 10  1  0
 13 12  2  0
 14 12  1  0
 15 14  1  0
 15 16  1  1
 16 17  1  0
 17 22  2  0
 18 19  2  0
 18 17  1  0
 19 20  1  0
 20 21  2  0
 22 21  1  0
 23 15  1  0
 24 23  1  0
 25 23  2  0
M  END
$$$$
