CTF.pdb
     RDKit          3D

 25 25  0  0  1  0  0  0  0  0999 V2000
    8.5590  -14.2377   17.7376 N   0  0  0  0  0  0  0  0  0  0  0  0
    9.2377  -14.1280   18.9910 C   0  0  1  0  0  0  0  0  0  0  0  0
    9.1761  -12.7348   19.5756 C   0  0  0  0  0  0  0  0  0  0  0  0
    7.4995  -12.1204   19.7395 S   0  0  0  0  0  0  0  0  0  0  0  0
    8.5618  -15.0314   19.9873 C   0  0  0  0  0  0  0  0  0  0  0  0
    7.4652  -15.5833   19.7107 O   0  0  0  0  0  0  0  0  0  0  0  0
   10.4263  -17.7960   21.6026 C   0  0  0  0  0  0  0  0  0  0  0  0
    8.9320  -17.6660   21.5397 C   0  0  1  0  0  0  0  0  0  0  0  0
    8.3796  -18.6970   22.2968 O   0  0  0  0  0  0  0  0  0  0  0  0
    8.5268  -16.3025   22.1092 C   0  0  2  0  0  0  0  0  0  0  0  0
    9.1254  -15.2924   21.2583 N   0  0  0  0  0  0  0  0  0  0  0  0
    9.0471  -16.1733   23.4993 C   0  0  0  0  0  0  0  0  0  0  0  0
   10.2350  -15.8153   23.6735 O   0  0  0  0  0  0  0  0  0  0  0  0
    8.2527  -16.4390   24.6282 N   0  0  0  0  0  0  0  0  0  0  0  0
    8.7204  -16.2113   25.9840 C   0  0  1  0  0  0  0  0  0  0  0  0
    7.5435  -15.7671   26.7903 C   0  0  0  0  0  0  0  0  0  0  0  0
    7.2252  -14.3350   26.5887 C   0  0  0  0  0  0  0  0  0  0  0  0
    8.1999  -13.3943   26.8839 C   0  0  0  0  0  0  0  0  0  0  0  0
    7.9874  -12.0442   26.7207 C   0  0  0  0  0  0  0  0  0  0  0  0
    6.7633  -11.6247   26.2484 C   0  0  0  0  0  0  0  0  0  0  0  0
    5.7777  -12.5429   25.9478 C   0  0  0  0  0  0  0  0  0  0  0  0
    6.0156  -13.8905   26.1200 C   0  0  0  0  0  0  0  0  0  0  0  0
    9.4277  -17.3697   26.5334 C   0  0  0  0  0  0  0  0  0  0  0  0
    9.3619  -18.6210   25.8931 O   0  0  0  0  0  0  0  0  0  0  0  0
   10.1146  -17.3133   27.5789 O   0  0  0  0  0  0  0  0  0  0  0  0
  2  1  1  6
  3  2  1  0
  4  3  1  0
  5  2  1  0
  5  6  2  0
  8  7  1  1
  8  9  1  0
  8 10  1  0
 10 11  1  6
 11  5  1  0
 12 10  1  0
 13 12  2  0
 14 12  1  0
 15 14  1  0
 15 16  1  1
 16 17  1  0
 17 22  2  0
 18 19  2  0
 18 17  1  0
 19 20  1  0
 20 21  2  0
 22 21  1  0
 23 15  1  0
 24 23  1  0
 25 23  2  0
M  END
$$$$
