CTF.pdb
     RDKit          3D

 25 25  0  0  1  0  0  0  0  0999 V2000
    8.0444  -14.5414   17.4782 N   0  0  0  0  0  0  0  0  0  0  0  0
    8.6340  -14.1795   18.7291 C   0  0  1  0  0  0  0  0  0  0  0  0
    8.5257  -12.7010   19.0269 C   0  0  0  0  0  0  0  0  0  0  0  0
    9.2857  -12.2457   20.5859 S   0  0  0  0  0  0  0  0  0  0  0  0
    7.8950  -14.8853   19.8342 C   0  0  0  0  0  0  0  0  0  0  0  0
    6.7460  -15.3589   19.6357 O   0  0  0  0  0  0  0  0  0  0  0  0
    6.9703  -17.2843   20.2179 C   0  0  0  0  0  0  0  0  0  0  0  0
    7.7668  -17.3098   21.4901 C   0  0  1  0  0  0  0  0  0  0  0  0
    9.0566  -17.7359   21.1802 O   0  0  0  0  0  0  0  0  0  0  0  0
    7.7944  -15.8995   22.0882 C   0  0  2  0  0  0  0  0  0  0  0  0
    8.4556  -15.0424   21.1234 N   0  0  0  0  0  0  0  0  0  0  0  0
    8.5622  -15.9192   23.3649 C   0  0  0  0  0  0  0  0  0  0  0  0
    9.8068  -15.7802   23.3285 O   0  0  0  0  0  0  0  0  0  0  0  0
    7.9409  -16.0886   24.6144 N   0  0  0  0  0  0  0  0  0  0  0  0
    8.6522  -15.9230   25.8696 C   0  0  1  0  0  0  0  0  0  0  0  0
    7.6695  -15.4108   26.8719 C   0  0  0  0  0  0  0  0  0  0  0  0
    7.2674  -14.0102   26.6083 C   0  0  0  0  0  0  0  0  0  0  0  0
    5.9564  -13.7593   26.2336 C   0  0  0  0  0  0  0  0  0  0  0  0
    5.4999  -12.4869   25.9746 C   0  0  0  0  0  0  0  0  0  0  0  0
    6.3822  -11.4359   26.0946 C   0  0  0  0  0  0  0  0  0  0  0  0
    7.6921  -11.6614   26.4663 C   0  0  0  0  0  0  0  0  0  0  0  0
    8.1249  -12.9461   26.7203 C   0  0  0  0  0  0  0  0  0  0  0  0
    9.3551  -17.1405   26.2789 C   0  0  0  0  0  0  0  0  0  0  0  0
    9.1621  -18.3488   25.5840 O   0  0  0  0  0  0  0  0  0  0  0  0
   10.1485  -17.1741   27.2472 O   0  0  0  0  0  0  0  0  0  0  0  0
  2  1  1  6
  3  2  1  0
  4  3  1  0
  5  2  1  0
  5  6  2  0
  8  7  1  6
  8  9  1  0
  8 10  1  0
 10 11  1  6
 11  5  1  0
 12 10  1  0
 13 12  2  0
 14 12  1  0
 15 14  1  0
 15 16  1  1
 16 17  1  0
 17 22  2  0
 18 19  2  0
 18 17  1  0
 19 20  1  0
 20 21  2  0
 22 21  1  0
 23 15  1  0
 24 23  1  0
 25 23  2  0
M  END
$$$$
