CTF.pdb
     RDKit          3D

 25 25  0  0  1  0  0  0  0  0999 V2000
27742.4062 4333.6362-12338.9814 N   0  0  0  0  0  0  0  0  0  0  0  0
27743.7793 4333.4819-12339.3662 C   0  0  1  0  0  0  0  0  0  0  0  0
27743.9883 4333.7358-12340.8389 C   0  0  0  0  0  0  0  0  0  0  0  0
27743.5664 4332.3184-12341.8633 S   0  0  0  0  0  0  0  0  0  0  0  0
27744.5918 4334.5083-12338.6387 C   0  0  0  0  0  0  0  0  0  0  0  0
27744.6172 4335.7095-12339.0205 O   0  0  0  0  0  0  0  0  0  0  0  0
27746.9219 4332.6016-12336.2002 C   0  0  0  0  0  0  0  0  0  0  0  0
27747.4141 4334.0239-12336.2217 C   0  0  1  0  0  0  0  0  0  0  0  0
27748.7852 4334.0000-12336.4492 O   0  0  0  0  0  0  0  0  0  0  0  0
27746.6934 4334.7808-12337.3457 C   0  0  2  0  0  0  0  0  0  0  0  0
27745.3926 4334.1660-12337.5117 N   0  0  0  0  0  0  0  0  0  0  0  0
27747.4863 4334.6577-12338.6016 C   0  0  0  0  0  0  0  0  0  0  0  0
27748.3301 4333.7383-12338.6982 O   0  0  0  0  0  0  0  0  0  0  0  0
27747.3125 4335.5303-12339.6924 N   0  0  0  0  0  0  0  0  0  0  0  0
27747.9453 4335.3188-12340.9785 C   0  0  1  0  0  0  0  0  0  0  0  0
27747.2695 4336.2188-12341.9551 C   0  0  0  0  0  0  0  0  0  0  0  0
27747.2129 4335.6387-12343.3193 C   0  0  0  0  0  0  0  0  0  0  0  0
27747.1934 4336.5112-12344.3994 C   0  0  0  0  0  0  0  0  0  0  0  0
27747.1641 4336.0576-12345.7012 C   0  0  0  0  0  0  0  0  0  0  0  0
27747.1484 4334.6934-12345.9189 C   0  0  0  0  0  0  0  0  0  0  0  0
27747.1719 4333.8174-12344.8525 C   0  0  0  0  0  0  0  0  0  0  0  0
27747.2188 4334.2896-12343.5684 C   0  0  0  0  0  0  0  0  0  0  0  0
27749.4062 4335.4717-12340.9160 C   0  0  0  0  0  0  0  0  0  0  0  0
27749.9746 4336.6665-12340.4248 O   0  0  0  0  0  0  0  0  0  0  0  0
27750.1953 4334.5830-12341.2871 O   0  0  0  0  0  0  0  0  0  0  0  0
  2  1  1  6
  3  2  1  0
  4  3  1  0
  5  2  1  0
  5  6  2  0
  8  7  1  6
  8  9  1  0
  8 10  1  0
 10 11  1  6
 11  5  1  0
 12 10  1  0
 13 12  2  0
 14 12  1  0
 15 14  1  0
 15 16  1  6
 16 17  1  0
 17 22  2  0
 18 19  2  0
 18 17  1  0
 19 20  1  0
 20 21  2  0
 22 21  1  0
 23 15  1  0
 24 23  1  0
 25 23  2  0
M  END
$$$$
