CTF.pdb
     RDKit          3D

 25 25  0  0  1  0  0  0  0  0999 V2000
    8.8095  -18.3248   17.2512 N   0  0  0  0  0  0  0  0  0  0  0  0
    8.5929  -17.1872   18.0893 C   0  0  1  0  0  0  0  0  0  0  0  0
    7.1860  -16.6418   17.9923 C   0  0  0  0  0  0  0  0  0  0  0  0
    6.8073  -15.4547   19.2817 S   0  0  0  0  0  0  0  0  0  0  0  0
    8.7848  -17.6002   19.5240 C   0  0  0  0  0  0  0  0  0  0  0  0
    8.0766  -18.5098   20.0289 O   0  0  0  0  0  0  0  0  0  0  0  0
   11.4472  -19.1532   21.0052 C   0  0  0  0  0  0  0  0  0  0  0  0
   11.2794  -17.9749   21.9200 C   0  0  1  0  0  0  0  0  0  0  0  0
   12.2432  -17.0276   21.5806 O   0  0  0  0  0  0  0  0  0  0  0  0
    9.8710  -17.3998   21.7375 C   0  0  2  0  0  0  0  0  0  0  0  0
    9.7566  -16.9899   20.3512 N   0  0  0  0  0  0  0  0  0  0  0  0
    9.6979  -16.2227   22.6343 C   0  0  0  0  0  0  0  0  0  0  0  0
   10.0629  -15.0933   22.2331 O   0  0  0  0  0  0  0  0  0  0  0  0
    9.1382  -16.3312   23.9192 N   0  0  0  0  0  0  0  0  0  0  0  0
    8.9916  -15.1910   24.8065 C   0  0  1  0  0  0  0  0  0  0  0  0
    7.5275  -14.9388   24.9662 C   0  0  0  0  0  0  0  0  0  0  0  0
    7.2439  -13.7604   25.8169 C   0  0  0  0  0  0  0  0  0  0  0  0
    7.5232  -13.8422   27.1724 C   0  0  0  0  0  0  0  0  0  0  0  0
    7.2937  -12.7918   28.0317 C   0  0  0  0  0  0  0  0  0  0  0  0
    6.7693  -11.6261   27.5182 C   0  0  0  0  0  0  0  0  0  0  0  0
    6.4833  -11.5214   26.1720 C   0  0  0  0  0  0  0  0  0  0  0  0
    6.7225  -12.5886   25.3317 C   0  0  0  0  0  0  0  0  0  0  0  0
    9.7164  -15.3662   26.0666 C   0  0  0  0  0  0  0  0  0  0  0  0
   10.3773  -14.2811   26.6714 O   0  0  0  0  0  0  0  0  0  0  0  0
    9.7871  -16.4652   26.6628 O   0  0  0  0  0  0  0  0  0  0  0  0
  2  1  1  6
  3  2  1  0
  4  3  1  0
  5  2  1  0
  5  6  2  0
  8  7  1  6
  8  9  1  0
  8 10  1  0
 10 11  1  6
 11  5  1  0
 12 10  1  0
 13 12  2  0
 14 12  1  0
 15 14  1  0
 15 16  1  1
 16 17  1  0
 17 22  2  0
 18 19  2  0
 18 17  1  0
 19 20  1  0
 20 21  2  0
 22 21  1  0
 23 15  1  0
 24 23  1  0
 25 23  2  0
M  END
$$$$
