IPC.pdb
     RDKit          3D

 22 22  0  0  1  0  0  0  0  0999 V2000
   29.6596  -29.1791  -17.3688 C   0  0  0  0  0  0  0  0  0  0  0  0
   30.6105  -28.1017  -16.9296 C   0  0  0  0  0  0  0  0  0  0  0  0
   30.0386  -26.7179  -17.0997 C   0  0  2  0  0  0  0  0  0  0  0  0
   29.6660  -26.5026  -18.5351 C   0  0  0  0  0  0  0  0  0  0  0  0
   31.0566  -25.6836  -16.6337 C   0  0  2  0  0  0  0  0  0  0  0  0
   31.4667  -26.0195  -15.3210 N   0  0  0  0  0  0  0  0  0  0  0  0
   30.5636  -24.3263  -16.8586 C   0  0  0  0  0  0  0  0  0  0  0  0
   30.0398  -23.7750  -15.8243 O   0  0  0  0  0  0  0  0  0  0  0  0
   30.5951  -23.5737  -18.0440 N   0  0  0  0  0  0  0  0  0  0  0  0
   31.0991  -23.8680  -19.3586 C   0  0  0  0  0  0  0  0  0  0  0  0
   31.9922  -22.6643  -19.5921 C   0  0  0  0  0  0  0  0  0  0  0  0
   31.0700  -21.5510  -19.0807 C   0  0  0  0  0  0  0  0  0  0  0  0
   30.0685  -22.2187  -18.1717 C   0  0  1  0  0  0  0  0  0  0  0  0
   28.6971  -22.2097  -18.7455 C   0  0  0  0  0  0  0  0  0  0  0  0
   28.0962  -23.3160  -18.7678 O   0  0  0  0  0  0  0  0  0  0  0  0
   28.0434  -21.0777  -19.2524 N   0  0  0  0  0  0  0  0  0  0  0  0
   26.6374  -20.8712  -19.0301 C   0  0  1  0  0  0  0  0  0  0  0  0
   26.2973  -20.7662  -17.5583 C   0  0  0  0  0  0  0  0  0  0  0  0
   24.4935  -20.5915  -17.4429 S   0  0  0  0  0  0  0  0  0  0  0  0
   26.1342  -19.6409  -19.6821 C   0  0  0  0  0  0  0  0  0  0  0  0
   24.9560  -19.6621  -20.3773 O   0  0  0  0  0  0  0  0  0  0  0  0
   26.8131  -18.5927  -19.5786 O   0  0  0  0  0  0  0  0  0  0  0  0
  1  2  1  0
  2  3  1  0
  3  5  1  0
  3  4  1  6
  5  7  1  0
  5  6  1  1
  7  9  1  0
  7  8  2  0
  9 10  1  0
 11 10  1  0
 12 13  1  0
 12 11  1  0
 13  9  1  0
 13 14  1  6
 14 16  1  0
 15 14  2  0
 17 16  1  0
 17 20  1  0
 17 18  1  1
 18 19  1  0
 20 21  1  0
 22 20  2  0
M  END
$$$$
