IPC.pdb
     RDKit          3D

 22 22  0  0  1  0  0  0  0  0999 V2000
   23.0638  -25.6205  -14.3155 C   0  0  0  0  0  0  0  0  0  0  0  0
   23.2850  -25.2763  -15.7613 C   0  0  0  0  0  0  0  0  0  0  0  0
   24.3288  -26.1468  -16.4122 C   0  0  2  0  0  0  0  0  0  0  0  0
   25.6271  -26.0076  -15.6768 C   0  0  0  0  0  0  0  0  0  0  0  0
   24.4806  -25.7538  -17.8771 C   0  0  2  0  0  0  0  0  0  0  0  0
   23.2097  -25.8339  -18.4956 N   0  0  0  0  0  0  0  0  0  0  0  0
   25.5813  -26.4834  -18.5030 C   0  0  0  0  0  0  0  0  0  0  0  0
   25.2315  -27.5736  -19.0838 O   0  0  0  0  0  0  0  0  0  0  0  0
   26.9426  -26.1401  -18.5423 N   0  0  0  0  0  0  0  0  0  0  0  0
   27.6688  -25.0183  -18.0102 C   0  0  0  0  0  0  0  0  0  0  0  0
   28.4033  -24.5463  -19.2506 C   0  0  0  0  0  0  0  0  0  0  0  0
   28.8766  -25.8959  -19.8040 C   0  0  0  0  0  0  0  0  0  0  0  0
   27.9736  -26.9398  -19.1958 C   0  0  1  0  0  0  0  0  0  0  0  0
   28.6940  -27.8104  -18.2297 C   0  0  0  0  0  0  0  0  0  0  0  0
   28.5959  -27.4935  -17.0151 O   0  0  0  0  0  0  0  0  0  0  0  0
   29.4583  -28.9345  -18.5730 N   0  0  0  0  0  0  0  0  0  0  0  0
   29.4985  -30.0927  -17.7210 C   0  0  1  0  0  0  0  0  0  0  0  0
   28.1309  -30.7139  -17.5301 C   0  0  0  0  0  0  0  0  0  0  0  0
   28.3182  -32.0399  -16.3036 S   0  0  0  0  0  0  0  0  0  0  0  0
   30.3890  -31.1528  -18.2456 C   0  0  0  0  0  0  0  0  0  0  0  0
   30.8843  -31.0691  -19.5183 O   0  0  0  0  0  0  0  0  0  0  0  0
   30.6713  -32.1170  -17.4967 O   0  0  0  0  0  0  0  0  0  0  0  0
  1  2  1  0
  2  3  1  0
  3  5  1  0
  3  4  1  1
  5  7  1  0
  5  6  1  6
  7  9  1  0
  7  8  2  0
  9 10  1  0
 11 10  1  0
 12 13  1  0
 12 11  1  0
 13  9  1  0
 13 14  1  1
 14 16  1  0
 15 14  2  0
 17 16  1  0
 17 20  1  0
 17 18  1  6
 18 19  1  0
 20 21  1  0
 22 20  2  0
M  END
$$$$
