IPC.pdb
     RDKit          3D

 22 22  0  0  1  0  0  0  0  0999 V2000
   18.9422  -20.7918  -11.8537 C   0  0  0  0  0  0  0  0  0  0  0  0
   18.2153  -22.0124  -12.3433 C   0  0  0  0  0  0  0  0  0  0  0  0
   19.1180  -22.9701  -13.0777 C   0  0  2  0  0  0  0  0  0  0  0  0
   19.6684  -22.3019  -14.3009 C   0  0  0  0  0  0  0  0  0  0  0  0
   18.3395  -24.2291  -13.4409 C   0  0  2  0  0  0  0  0  0  0  0  0
   17.3146  -23.8742  -14.3508 N   0  0  0  0  0  0  0  0  0  0  0  0
   17.9492  -24.9670  -12.2414 C   0  0  0  0  0  0  0  0  0  0  0  0
   16.7092  -24.8523  -11.9290 O   0  0  0  0  0  0  0  0  0  0  0  0
   18.7518  -25.7668  -11.4114 N   0  0  0  0  0  0  0  0  0  0  0  0
   20.1444  -26.1218  -11.4703 C   0  0  0  0  0  0  0  0  0  0  0  0
   20.0522  -27.6331  -11.3785 C   0  0  0  0  0  0  0  0  0  0  0  0
   19.0143  -27.7645  -10.2573 C   0  0  0  0  0  0  0  0  0  0  0  0
   18.2711  -26.4526  -10.2164 C   0  0  1  0  0  0  0  0  0  0  0  0
   18.5637  -25.6808   -8.9799 C   0  0  0  0  0  0  0  0  0  0  0  0
   19.0018  -24.5119   -9.1444 O   0  0  0  0  0  0  0  0  0  0  0  0
   18.3888  -26.1568   -7.6728 N   0  0  0  0  0  0  0  0  0  0  0  0
   18.6206  -25.3063   -6.5362 C   0  0  1  0  0  0  0  0  0  0  0  0
   17.6877  -24.1140   -6.5105 C   0  0  0  0  0  0  0  0  0  0  0  0
   15.9939  -24.7677   -6.4738 S   0  0  0  0  0  0  0  0  0  0  0  0
   18.4515  -26.0194   -5.2498 C   0  0  0  0  0  0  0  0  0  0  0  0
   18.8302  -25.4245   -4.0773 O   0  0  0  0  0  0  0  0  0  0  0  0
   17.9568  -27.1706   -5.2684 O   0  0  0  0  0  0  0  0  0  0  0  0
  1  2  1  0
  2  3  1  0
  3  5  1  0
  3  4  1  6
  5  7  1  0
  5  6  1  1
  7  9  1  0
  7  8  2  0
  9 10  1  0
 11 10  1  0
 12 13  1  0
 12 11  1  0
 13  9  1  0
 13 14  1  1
 14 16  1  0
 15 14  2  0
 17 16  1  0
 17 20  1  0
 17 18  1  1
 18 19  1  0
 20 21  1  0
 22 20  2  0
M  END
$$$$
