IPC.pdb
     RDKit          3D

 22 22  0  0  1  0  0  0  0  0999 V2000
   17.3828  -14.5400  -17.8700 C   0  0  0  0  0  0  0  0  0  0  0  0
   18.8426  -14.1960  -17.9622 C   0  0  0  0  0  0  0  0  0  0  0  0
   19.1786  -12.9002  -17.2700 C   0  0  2  0  0  0  0  0  0  0  0  0
   18.4232  -11.7775  -17.9139 C   0  0  0  0  0  0  0  0  0  0  0  0
   20.6825  -12.6611  -17.3355 C   0  0  2  0  0  0  0  0  0  0  0  0
   21.3421  -13.8586  -16.9679 N   0  0  0  0  0  0  0  0  0  0  0  0
   21.0500  -11.4423  -16.6178 C   0  0  0  0  0  0  0  0  0  0  0  0
   21.0762  -11.5673  -15.3404 O   0  0  0  0  0  0  0  0  0  0  0  0
   21.3699  -10.1820  -17.1488 N   0  0  0  0  0  0  0  0  0  0  0  0
   21.5110   -9.7145  -18.5018 C   0  0  0  0  0  0  0  0  0  0  0  0
   22.8845   -9.0741  -18.4349 C   0  0  0  0  0  0  0  0  0  0  0  0
   22.7577   -8.3208  -17.1052 C   0  0  0  0  0  0  0  0  0  0  0  0
   21.6446   -8.9963  -16.3437 C   0  0  1  0  0  0  0  0  0  0  0  0
   20.4463   -8.1262  -16.2128 C   0  0  0  0  0  0  0  0  0  0  0  0
   19.3657   -8.5977  -16.6549 O   0  0  0  0  0  0  0  0  0  0  0  0
   20.4393   -6.8450  -15.6436 N   0  0  0  0  0  0  0  0  0  0  0  0
   19.2234   -6.0826  -15.5470 C   0  0  1  0  0  0  0  0  0  0  0  0
   18.2384   -6.6923  -14.5719 C   0  0  0  0  0  0  0  0  0  0  0  0
   16.8137   -5.5696  -14.4870 S   0  0  0  0  0  0  0  0  0  0  0  0
   19.4611   -4.6878  -15.1111 C   0  0  0  0  0  0  0  0  0  0  0  0
   18.6997   -3.6691  -15.6156 O   0  0  0  0  0  0  0  0  0  0  0  0
   20.3702   -4.4724  -14.2760 O   0  0  0  0  0  0  0  0  0  0  0  0
  1  2  1  0
  2  3  1  0
  3  5  1  0
  3  4  1  6
  5  7  1  0
  5  6  1  1
  7  9  1  0
  7  8  2  0
  9 10  1  0
 11 10  1  0
 12 13  1  0
 12 11  1  0
 13  9  1  0
 13 14  1  6
 14 16  1  0
 15 14  2  0
 17 16  1  0
 17 20  1  0
 17 18  1  1
 18 19  1  0
 20 21  1  0
 22 20  2  0
M  END
$$$$
