IPC.pdb
     RDKit          3D

 22 22  0  0  1  0  0  0  0  0999 V2000
   23.9498  -18.6137  -14.0701 C   0  0  0  0  0  0  0  0  0  0  0  0
   24.6930  -19.9175  -13.9959 C   0  0  0  0  0  0  0  0  0  0  0  0
   25.3628  -20.1289  -12.6625 C   0  0  2  0  0  0  0  0  0  0  0  0
   26.3333  -19.0159  -12.4071 C   0  0  0  0  0  0  0  0  0  0  0  0
   26.0623  -21.4831  -12.6512 C   0  0  2  0  0  0  0  0  0  0  0  0
   25.1527  -22.4602  -13.1225 N   0  0  0  0  0  0  0  0  0  0  0  0
   26.7061  -21.7284  -11.3624 C   0  0  0  0  0  0  0  0  0  0  0  0
   25.9799  -22.3716  -10.5215 O   0  0  0  0  0  0  0  0  0  0  0  0
   27.9938  -21.3523  -10.9467 N   0  0  0  0  0  0  0  0  0  0  0  0
   29.0115  -20.5501  -11.5710 C   0  0  0  0  0  0  0  0  0  0  0  0
   30.1993  -21.4898  -11.4875 C   0  0  0  0  0  0  0  0  0  0  0  0
   30.0374  -21.9890  -10.0466 C   0  0  0  0  0  0  0  0  0  0  0  0
   28.5955  -21.7458   -9.6768 C   0  0  1  0  0  0  0  0  0  0  0  0
   28.4525  -20.6855   -8.6445 C   0  0  0  0  0  0  0  0  0  0  0  0
   28.1534  -19.5369   -9.0647 O   0  0  0  0  0  0  0  0  0  0  0  0
   28.6251  -20.8748   -7.2661 N   0  0  0  0  0  0  0  0  0  0  0  0
   28.4288  -19.7932   -6.3384 C   0  0  1  0  0  0  0  0  0  0  0  0
   27.0936  -19.8790   -5.6294 C   0  0  0  0  0  0  0  0  0  0  0  0
   27.0885  -18.5881   -4.3521 S   0  0  0  0  0  0  0  0  0  0  0  0
   29.4752  -19.7459   -5.2920 C   0  0  0  0  0  0  0  0  0  0  0  0
   29.9513  -18.5426   -4.8477 O   0  0  0  0  0  0  0  0  0  0  0  0
   29.9058  -20.8291   -4.8320 O   0  0  0  0  0  0  0  0  0  0  0  0
  1  2  1  0
  2  3  1  0
  3  5  1  0
  3  4  1  6
  5  7  1  0
  5  6  1  1
  7  9  1  0
  7  8  2  0
  9 10  1  0
 11 10  1  0
 12 13  1  0
 12 11  1  0
 13  9  1  0
 13 14  1  1
 14 16  1  0
 15 14  2  0
 17 16  1  0
 17 20  1  0
 17 18  1  1
 18 19  1  0
 20 21  1  0
 22 20  2  0
M  END
$$$$
