IPC.pdb
     RDKit          3D

 22 22  0  0  1  0  0  0  0  0999 V2000
   22.2356  -20.9894   -8.4099 C   0  0  0  0  0  0  0  0  0  0  0  0
   23.7098  -21.1079   -8.6754 C   0  0  0  0  0  0  0  0  0  0  0  0
   24.1152  -20.4868   -9.9872 C   0  0  2  0  0  0  0  0  0  0  0  0
   23.3534  -21.1328  -11.1043 C   0  0  0  0  0  0  0  0  0  0  0  0
   25.6187  -20.6430  -10.1833 C   0  0  2  0  0  0  0  0  0  0  0  0
   26.2694  -20.2374   -8.9932 N   0  0  0  0  0  0  0  0  0  0  0  0
   26.0507  -20.0201  -11.4328 C   0  0  0  0  0  0  0  0  0  0  0  0
   26.3195  -18.7685  -11.3354 O   0  0  0  0  0  0  0  0  0  0  0  0
   26.2022  -20.6156  -12.6957 N   0  0  0  0  0  0  0  0  0  0  0  0
   25.9792  -21.9585  -13.1604 C   0  0  0  0  0  0  0  0  0  0  0  0
   27.3129  -22.2513  -13.8211 C   0  0  0  0  0  0  0  0  0  0  0  0
   27.5252  -20.9341  -14.5772 C   0  0  0  0  0  0  0  0  0  0  0  0
   26.6591  -19.9093  -13.8882 C   0  0  1  0  0  0  0  0  0  0  0  0
   25.5232  -19.4707  -14.7410 C   0  0  0  0  0  0  0  0  0  0  0  0
   24.4627  -20.1424  -14.6435 O   0  0  0  0  0  0  0  0  0  0  0  0
   25.5534  -18.3843  -15.6267 N   0  0  0  0  0  0  0  0  0  0  0  0
   24.3494  -17.8976  -16.2453 C   0  0  1  0  0  0  0  0  0  0  0  0
   24.3513  -16.3915  -16.4007 C   0  0  0  0  0  0  0  0  0  0  0  0
   24.4338  -15.6867  -14.7291 S   0  0  0  0  0  0  0  0  0  0  0  0
   24.1297  -18.4741  -17.5912 C   0  0  0  0  0  0  0  0  0  0  0  0
   22.9370  -18.2862  -18.2348 O   0  0  0  0  0  0  0  0  0  0  0  0
   25.0588  -19.1312  -18.1157 O   0  0  0  0  0  0  0  0  0  0  0  0
  1  2  1  0
  2  3  1  0
  3  5  1  0
  3  4  1  6
  5  7  1  0
  5  6  1  1
  7  9  1  0
  7  8  2  0
  9 10  1  0
 11 10  1  0
 12 13  1  0
 12 11  1  0
 13  9  1  0
 13 14  1  6
 14 16  1  0
 15 14  2  0
 17 16  1  0
 17 20  1  0
 17 18  1  6
 18 19  1  0
 20 21  1  0
 22 20  2  0
M  END
$$$$
