IPC.pdb
     RDKit          3D

 22 22  0  0  1  0  0  0  0  0999 V2000
   21.9673  -16.3346  -17.0147 C   0  0  0  0  0  0  0  0  0  0  0  0
   23.0151  -17.3506  -17.3722 C   0  0  0  0  0  0  0  0  0  0  0  0
   23.5438  -18.0874  -16.1687 C   0  0  2  0  0  0  0  0  0  0  0  0
   24.1815  -17.1135  -15.2250 C   0  0  0  0  0  0  0  0  0  0  0  0
   24.5387  -19.1514  -16.6176 C   0  0  2  0  0  0  0  0  0  0  0  0
   23.9574  -19.8885  -17.6773 N   0  0  0  0  0  0  0  0  0  0  0  0
   25.0501  -19.9047  -15.4745 C   0  0  0  0  0  0  0  0  0  0  0  0
   24.3206  -20.9030  -15.1289 O   0  0  0  0  0  0  0  0  0  0  0  0
   26.2169  -19.6701  -14.7287 N   0  0  0  0  0  0  0  0  0  0  0  0
   27.1908  -18.6124  -14.7711 C   0  0  0  0  0  0  0  0  0  0  0  0
   28.4713  -19.4157  -14.8981 C   0  0  0  0  0  0  0  0  0  0  0  0
   28.1992  -20.5083  -13.8571 C   0  0  0  0  0  0  0  0  0  0  0  0
   26.7034  -20.5446  -13.6665 C   0  0  1  0  0  0  0  0  0  0  0  0
   26.2976  -20.0597  -12.3210 C   0  0  0  0  0  0  0  0  0  0  0  0
   26.2589  -18.8105  -12.1683 O   0  0  0  0  0  0  0  0  0  0  0  0
   25.9634  -20.8817  -11.2356 N   0  0  0  0  0  0  0  0  0  0  0  0
   25.5601  -20.3186   -9.9750 C   0  0  1  0  0  0  0  0  0  0  0  0
   24.4481  -21.1111   -9.3207 C   0  0  0  0  0  0  0  0  0  0  0  0
   23.0803  -21.1878  -10.5128 S   0  0  0  0  0  0  0  0  0  0  0  0
   26.6743  -20.2472   -9.0026 C   0  0  0  0  0  0  0  0  0  0  0  0
   26.4994  -19.6204   -7.7991 O   0  0  0  0  0  0  0  0  0  0  0  0
   27.7689  -20.7724   -9.3128 O   0  0  0  0  0  0  0  0  0  0  0  0
  1  2  1  0
  2  3  1  0
  3  5  1  0
  3  4  1  1
  5  7  1  0
  5  6  1  6
  7  9  1  0
  7  8  2  0
  9 10  1  0
 11 10  1  0
 12 13  1  0
 12 11  1  0
 13  9  1  0
 13 14  1  1
 14 16  1  0
 15 14  2  0
 17 16  1  0
 17 20  1  0
 17 18  1  1
 18 19  1  0
 20 21  1  0
 22 20  2  0
M  END
$$$$
