IPC.pdb
     RDKit          3D

 22 22  0  0  1  0  0  0  0  0999 V2000
   22.7265  -14.4660  -18.9932 C   0  0  0  0  0  0  0  0  0  0  0  0
   23.3911  -14.6979  -17.6657 C   0  0  0  0  0  0  0  0  0  0  0  0
   24.8945  -14.6370  -17.7507 C   0  0  2  0  0  0  0  0  0  0  0  0
   25.3982  -15.7945  -18.5583 C   0  0  0  0  0  0  0  0  0  0  0  0
   25.4863  -14.6465  -16.3460 C   0  0  2  0  0  0  0  0  0  0  0  0
   25.1967  -15.8962  -15.7472 N   0  0  0  0  0  0  0  0  0  0  0  0
   25.1056  -13.4428  -15.6100 C   0  0  0  0  0  0  0  0  0  0  0  0
   24.2805  -13.6488  -14.6482 O   0  0  0  0  0  0  0  0  0  0  0  0
   25.5263  -12.1203  -15.8264 N   0  0  0  0  0  0  0  0  0  0  0  0
   26.3955  -11.5351  -16.8117 C   0  0  0  0  0  0  0  0  0  0  0  0
   27.3631  -10.7812  -15.9192 C   0  0  0  0  0  0  0  0  0  0  0  0
   26.3725  -10.1514  -14.9324 C   0  0  0  0  0  0  0  0  0  0  0  0
   25.1165  -10.9831  -15.0088 C   0  0  1  0  0  0  0  0  0  0  0  0
   23.9870  -10.2377  -15.6240 C   0  0  0  0  0  0  0  0  0  0  0  0
   23.8921  -10.3067  -16.8776 O   0  0  0  0  0  0  0  0  0  0  0  0
   23.0422   -9.4799  -14.9177 N   0  0  0  0  0  0  0  0  0  0  0  0
   21.9514   -8.8339  -15.5971 C   0  0  1  0  0  0  0  0  0  0  0  0
   20.6324   -9.0251  -14.8785 C   0  0  0  0  0  0  0  0  0  0  0  0
   19.3883   -8.0680  -15.7916 S   0  0  0  0  0  0  0  0  0  0  0  0
   22.1589   -7.3754  -15.7455 C   0  0  0  0  0  0  0  0  0  0  0  0
   21.3605   -6.6477  -16.5850 O   0  0  0  0  0  0  0  0  0  0  0  0
   23.0775   -6.8353  -15.0861 O   0  0  0  0  0  0  0  0  0  0  0  0
  1  2  1  0
  2  3  1  0
  3  5  1  0
  3  4  1  6
  5  7  1  0
  5  6  1  1
  7  9  1  0
  7  8  2  0
  9 10  1  0
 11 10  1  0
 12 13  1  0
 12 11  1  0
 13  9  1  0
 13 14  1  6
 14 16  1  0
 15 14  2  0
 17 16  1  0
 17 20  1  0
 17 18  1  1
 18 19  1  0
 20 21  1  0
 22 20  2  0
M  END
$$$$
