IPC.pdb
     RDKit          3D

 22 22  0  0  1  0  0  0  0  0999 V2000
   20.9032  -19.2274  -15.1507 C   0  0  0  0  0  0  0  0  0  0  0  0
   22.0724  -20.1524  -15.3380 C   0  0  0  0  0  0  0  0  0  0  0  0
   22.8633  -20.3523  -14.0708 C   0  0  2  0  0  0  0  0  0  0  0  0
   23.4073  -19.0355  -13.6065 C   0  0  0  0  0  0  0  0  0  0  0  0
   23.9844  -21.3541  -14.3212 C   0  0  2  0  0  0  0  0  0  0  0  0
   23.4385  -22.4801  -14.9832 N   0  0  0  0  0  0  0  0  0  0  0  0
   24.7511  -21.5968  -13.1009 C   0  0  0  0  0  0  0  0  0  0  0  0
   24.2079  -22.4322  -12.2914 O   0  0  0  0  0  0  0  0  0  0  0  0
   25.9816  -21.0370  -12.7199 N   0  0  0  0  0  0  0  0  0  0  0  0
   26.7891  -19.9990  -13.3024 C   0  0  0  0  0  0  0  0  0  0  0  0
   28.1266  -20.7076  -13.4025 C   0  0  0  0  0  0  0  0  0  0  0  0
   28.1705  -21.3797  -12.0249 C   0  0  0  0  0  0  0  0  0  0  0  0
   26.7424  -21.4470  -11.5441 C   0  0  1  0  0  0  0  0  0  0  0  0
   26.4979  -20.5482  -10.3855 C   0  0  0  0  0  0  0  0  0  0  0  0
   26.2621  -19.3417  -10.6575 O   0  0  0  0  0  0  0  0  0  0  0  0
   26.5125  -20.9451   -9.0409 N   0  0  0  0  0  0  0  0  0  0  0  0
   26.2257  -20.0084   -7.9876 C   0  0  1  0  0  0  0  0  0  0  0  0
   25.4078  -20.6280   -6.8741 C   0  0  0  0  0  0  0  0  0  0  0  0
   23.7919  -21.0598   -7.5814 S   0  0  0  0  0  0  0  0  0  0  0  0
   27.4524  -19.4548   -7.3706 C   0  0  0  0  0  0  0  0  0  0  0  0
   27.3742  -18.3838   -6.5227 O   0  0  0  0  0  0  0  0  0  0  0  0
   28.5508  -19.9913   -7.6461 O   0  0  0  0  0  0  0  0  0  0  0  0
  1  2  1  0
  2  3  1  0
  3  5  1  0
  3  4  1  6
  5  7  1  0
  5  6  1  1
  7  9  1  0
  7  8  2  0
  9 10  1  0
 11 10  1  0
 12 13  1  0
 12 11  1  0
 13  9  1  0
 13 14  1  1
 14 16  1  0
 15 14  2  0
 17 16  1  0
 17 20  1  0
 17 18  1  1
 18 19  1  0
 20 21  1  0
 22 20  2  0
M  END
$$$$
