IPC.pdb
     RDKit          3D

 22 22  0  0  1  0  0  0  0  0999 V2000
   20.9807  -22.0641  -15.9392 C   0  0  0  0  0  0  0  0  0  0  0  0
   22.4119  -22.5147  -16.0187 C   0  0  0  0  0  0  0  0  0  0  0  0
   23.1592  -22.3051  -14.7269 C   0  0  2  0  0  0  0  0  0  0  0  0
   23.0816  -20.8617  -14.3315 C   0  0  0  0  0  0  0  0  0  0  0  0
   24.6063  -22.7531  -14.8954 C   0  0  2  0  0  0  0  0  0  0  0  0
   24.6092  -24.0684  -15.4188 N   0  0  0  0  0  0  0  0  0  0  0  0
   25.3738  -22.5121  -13.6753 C   0  0  0  0  0  0  0  0  0  0  0  0
   25.3211  -23.4673  -12.8191 O   0  0  0  0  0  0  0  0  0  0  0  0
   26.1429  -21.3863  -13.3385 N   0  0  0  0  0  0  0  0  0  0  0  0
   26.3370  -20.1210  -13.9946 C   0  0  0  0  0  0  0  0  0  0  0  0
   27.8518  -20.0637  -14.0501 C   0  0  0  0  0  0  0  0  0  0  0  0
   28.1838  -20.5356  -12.6292 C   0  0  0  0  0  0  0  0  0  0  0  0
   26.9689  -21.2836  -12.1398 C   0  0  1  0  0  0  0  0  0  0  0  0
   26.2686  -20.5608  -11.0455 C   0  0  0  0  0  0  0  0  0  0  0  0
   25.6210  -19.5348  -11.3819 O   0  0  0  0  0  0  0  0  0  0  0  0
   26.2814  -20.9365   -9.6948 N   0  0  0  0  0  0  0  0  0  0  0  0
   25.6650  -20.1127   -8.6897 C   0  0  1  0  0  0  0  0  0  0  0  0
   25.3806  -20.8778   -7.4143 C   0  0  0  0  0  0  0  0  0  0  0  0
   24.2287  -22.2142   -7.8443 S   0  0  0  0  0  0  0  0  0  0  0  0
   26.4997  -18.9467   -8.3211 C   0  0  0  0  0  0  0  0  0  0  0  0
   25.9874  -17.9554   -7.5294 O   0  0  0  0  0  0  0  0  0  0  0  0
   27.6755  -18.8971   -8.7517 O   0  0  0  0  0  0  0  0  0  0  0  0
  1  2  1  0
  2  3  1  0
  3  5  1  0
  3  4  1  6
  5  7  1  0
  5  6  1  1
  7  9  1  0
  7  8  2  0
  9 10  1  0
 11 10  1  0
 12 13  1  0
 12 11  1  0
 13  9  1  0
 13 14  1  1
 14 16  1  0
 15 14  2  0
 17 16  1  0
 17 20  1  0
 17 18  1  1
 18 19  1  0
 20 21  1  0
 22 20  2  0
M  END
$$$$
