IPC.pdb
     RDKit          3D

 22 22  0  0  1  0  0  0  0  0999 V2000
   17.3747  -11.6240  -19.8739 C   0  0  0  0  0  0  0  0  0  0  0  0
   18.3556  -12.2388  -18.9159 C   0  0  0  0  0  0  0  0  0  0  0  0
   18.8200  -11.2700  -17.8591 C   0  0  2  0  0  0  0  0  0  0  0  0
   19.5973  -10.1617  -18.5020 C   0  0  0  0  0  0  0  0  0  0  0  0
   19.6637  -12.0071  -16.8257 C   0  0  2  0  0  0  0  0  0  0  0  0
   18.9717  -13.1795  -16.4373 N   0  0  0  0  0  0  0  0  0  0  0  0
   20.1016  -11.1013  -15.7657 C   0  0  0  0  0  0  0  0  0  0  0  0
   19.1891  -10.8032  -14.9133 O   0  0  0  0  0  0  0  0  0  0  0  0
   21.3719  -10.5332  -15.5755 N   0  0  0  0  0  0  0  0  0  0  0  0
   22.5821  -10.5988  -16.3500 C   0  0  0  0  0  0  0  0  0  0  0  0
   23.5717  -11.0361  -15.2868 C   0  0  0  0  0  0  0  0  0  0  0  0
   23.1466  -10.1134  -14.1381 C   0  0  0  0  0  0  0  0  0  0  0  0
   21.7325   -9.6863  -14.4430 C   0  0  1  0  0  0  0  0  0  0  0  0
   21.6439   -8.2416  -14.7821 C   0  0  0  0  0  0  0  0  0  0  0  0
   21.9135   -7.9320  -15.9723 O   0  0  0  0  0  0  0  0  0  0  0  0
   21.2888   -7.2240  -13.8853 N   0  0  0  0  0  0  0  0  0  0  0  0
   21.2022   -5.8539  -14.3143 C   0  0  1  0  0  0  0  0  0  0  0  0
   19.9057   -5.1985  -13.8873 C   0  0  0  0  0  0  0  0  0  0  0  0
   19.9687   -3.4767  -14.4611 S   0  0  0  0  0  0  0  0  0  0  0  0
   22.3060   -5.0220  -13.7836 C   0  0  0  0  0  0  0  0  0  0  0  0
   22.8887   -4.0667  -14.5709 O   0  0  0  0  0  0  0  0  0  0  0  0
   22.6850   -5.2180  -12.6054 O   0  0  0  0  0  0  0  0  0  0  0  0
  1  2  1  0
  2  3  1  0
  3  5  1  0
  3  4  1  6
  5  7  1  0
  5  6  1  1
  7  9  1  0
  7  8  2  0
  9 10  1  0
 11 10  1  0
 12 13  1  0
 12 11  1  0
 13  9  1  0
 13 14  1  6
 14 16  1  0
 15 14  2  0
 17 16  1  0
 17 20  1  0
 17 18  1  1
 18 19  1  0
 20 21  1  0
 22 20  2  0
M  END
$$$$
