IPC.pdb
     RDKit          3D

 22 22  0  0  1  0  0  0  0  0999 V2000
   24.3845  -15.9662  -18.0747 C   0  0  0  0  0  0  0  0  0  0  0  0
   25.1461  -17.2604  -18.1302 C   0  0  0  0  0  0  0  0  0  0  0  0
   25.3274  -17.8860  -16.7712 C   0  0  2  0  0  0  0  0  0  0  0  0
   26.0886  -16.9475  -15.8850 C   0  0  0  0  0  0  0  0  0  0  0  0
   26.0533  -19.2185  -16.9151 C   0  0  2  0  0  0  0  0  0  0  0  0
   25.4815  -19.9244  -18.0009 N   0  0  0  0  0  0  0  0  0  0  0  0
   26.1357  -19.9106  -15.6306 C   0  0  0  0  0  0  0  0  0  0  0  0
   25.1185  -20.6451  -15.3585 O   0  0  0  0  0  0  0  0  0  0  0  0
   27.1713  -19.8671  -14.6829 N   0  0  0  0  0  0  0  0  0  0  0  0
   28.3783  -19.0882  -14.6103 C   0  0  0  0  0  0  0  0  0  0  0  0
   29.4071  -20.1841  -14.4066 C   0  0  0  0  0  0  0  0  0  0  0  0
   28.6794  -21.0347  -13.3585 C   0  0  0  0  0  0  0  0  0  0  0  0
   27.2166  -20.6867  -13.4763 C   0  0  1  0  0  0  0  0  0  0  0  0
   26.7183  -19.9479  -12.2864 C   0  0  0  0  0  0  0  0  0  0  0  0
   26.6446  -18.6961  -12.3996 O   0  0  0  0  0  0  0  0  0  0  0  0
   26.3343  -20.5383  -11.0741 N   0  0  0  0  0  0  0  0  0  0  0  0
   25.0894  -20.1927  -10.4420 C   0  0  1  0  0  0  0  0  0  0  0  0
   23.8957  -20.4775  -11.3289 C   0  0  0  0  0  0  0  0  0  0  0  0
   22.4363  -20.5358  -10.2498 S   0  0  0  0  0  0  0  0  0  0  0  0
   24.8742  -20.9253   -9.1735 C   0  0  0  0  0  0  0  0  0  0  0  0
   24.3757  -20.2746   -8.0781 O   0  0  0  0  0  0  0  0  0  0  0  0
   25.1594  -22.1449   -9.1354 O   0  0  0  0  0  0  0  0  0  0  0  0
  1  2  1  0
  2  3  1  0
  3  5  1  0
  3  4  1  1
  5  7  1  0
  5  6  1  6
  7  9  1  0
  7  8  2  0
  9 10  1  0
 11 10  1  0
 12 13  1  0
 12 11  1  0
 13  9  1  0
 13 14  1  1
 14 16  1  0
 15 14  2  0
 17 16  1  0
 17 20  1  0
 17 18  1  6
 18 19  1  0
 20 21  1  0
 22 20  2  0
M  END
$$$$
