VDP.pdb
     RDKit          3D

 23 23  0  0  1  0  0  0  0  0999 V2000
   24.3447  -11.7192  -16.1578 C   0  0  0  0  0  0  0  0  0  0  0  0
   23.3788  -12.5130  -15.2885 C   0  0  2  0  0  0  0  0  0  0  0  0
   23.9603  -13.9013  -15.1355 C   0  0  0  0  0  0  0  0  0  0  0  0
   22.0587  -12.5654  -16.0282 C   0  0  2  0  0  0  0  0  0  0  0  0
   22.1613  -13.2470  -17.2851 N   0  0  0  0  0  0  0  0  0  0  0  0
   21.4881  -11.1940  -16.2062 C   0  0  0  0  0  0  0  0  0  0  0  0
   21.6663  -10.5177  -17.2491 O   0  0  0  0  0  0  0  0  0  0  0  0
   20.6923  -10.5633  -15.1798 N   0  0  0  0  0  0  0  0  0  0  0  0
   20.1521   -9.2499  -15.3313 C   0  0  1  0  0  0  0  0  0  0  0  0
   18.8207   -9.0904  -14.6067 C   0  0  0  0  0  0  0  0  0  0  0  0
   17.7551   -9.8860  -15.2218 C   0  0  0  0  0  0  0  0  0  0  0  0
   16.9747  -10.6237  -14.5726 O   0  0  0  0  0  0  0  0  0  0  0  0
   21.0527   -8.2352  -14.7616 C   0  0  0  0  0  0  0  0  0  0  0  0
   21.6525   -8.6729  -13.6840 O   0  0  0  0  0  0  0  0  0  0  0  0
   17.5851   -9.8324  -16.5978 O   0  0  0  0  0  0  0  0  0  0  0  0
   21.3194   -6.9335  -15.2183 N   0  0  0  0  0  0  0  0  0  0  0  0
   20.7055   -6.2126  -16.2879 C   0  0  0  0  0  0  0  0  0  0  0  0
   21.2709   -4.7800  -16.1925 C   0  0  0  0  0  0  0  0  0  0  0  0
   22.6875   -5.1180  -15.6869 C   0  0  0  0  0  0  0  0  0  0  0  0
   22.3146   -6.0865  -14.6002 C   0  0  1  0  0  0  0  0  0  0  0  0
   21.7210   -5.3042  -13.4802 C   0  0  0  0  0  0  0  0  0  0  0  0
   22.4719   -4.5521  -12.6053 O   0  0  0  0  0  0  0  0  0  0  0  0
   20.4890   -5.3382  -13.3368 O   0  0  0  0  0  0  0  0  0  0  0  0
  2  3  1  6
  2  1  1  0
  4  5  1  6
  4  2  1  0
  6  4  1  0
  7  6  2  0
  8  6  1  0
  9  8  1  0
  9 10  1  1
 10 11  1  0
 11 12  2  0
 13  9  1  0
 13 14  2  0
 15 11  1  0
 16 13  1  0
 17 16  1  0
 18 17  1  0
 19 20  1  0
 19 18  1  0
 20 16  1  0
 21 22  1  0
 20 21  1  1
 23 21  2  0
M  END
$$$$
