VDP.pdb
     RDKit          3D

 23 23  0  0  1  0  0  0  0  0999 V2000
   16.4053  -14.4234  -15.2860 C   0  0  0  0  0  0  0  0  0  0  0  0
   15.5006  -13.2752  -14.8594 C   0  0  2  0  0  0  0  0  0  0  0  0
   14.2395  -13.8920  -14.2954 C   0  0  0  0  0  0  0  0  0  0  0  0
   15.1911  -12.4700  -16.1037 C   0  0  2  0  0  0  0  0  0  0  0  0
   14.4454  -13.2206  -17.0709 N   0  0  0  0  0  0  0  0  0  0  0  0
   16.4411  -11.9105  -16.7059 C   0  0  0  0  0  0  0  0  0  0  0  0
   16.8455  -12.2367  -17.8491 O   0  0  0  0  0  0  0  0  0  0  0  0
   17.2618  -10.9544  -16.0011 N   0  0  0  0  0  0  0  0  0  0  0  0
   18.3713  -10.2992  -16.6173 C   0  0  1  0  0  0  0  0  0  0  0  0
   17.9629   -9.5402  -17.8744 C   0  0  0  0  0  0  0  0  0  0  0  0
   19.1020   -8.8836  -18.5211 C   0  0  0  0  0  0  0  0  0  0  0  0
   20.1796   -9.4672  -18.7915 O   0  0  0  0  0  0  0  0  0  0  0  0
   18.9699   -9.3037  -15.7141 C   0  0  0  0  0  0  0  0  0  0  0  0
   18.0759   -8.4599  -15.2655 O   0  0  0  0  0  0  0  0  0  0  0  0
   19.0008   -7.5421  -18.8605 O   0  0  0  0  0  0  0  0  0  0  0  0
   20.3086   -9.1694  -15.3093 N   0  0  0  0  0  0  0  0  0  0  0  0
   21.4696   -9.8366  -15.8068 C   0  0  0  0  0  0  0  0  0  0  0  0
   22.6648   -9.1461  -15.1172 C   0  0  0  0  0  0  0  0  0  0  0  0
   22.0040   -8.8279  -13.7612 C   0  0  0  0  0  0  0  0  0  0  0  0
   20.7128   -8.2507  -14.2688 C   0  0  1  0  0  0  0  0  0  0  0  0
   21.0099   -6.9062  -14.8370 C   0  0  0  0  0  0  0  0  0  0  0  0
   20.9607   -6.6301  -16.1847 O   0  0  0  0  0  0  0  0  0  0  0  0
   21.3156   -5.9973  -14.0496 O   0  0  0  0  0  0  0  0  0  0  0  0
  2  3  1  6
  2  1  1  0
  4  5  1  6
  4  2  1  0
  6  4  1  0
  7  6  2  0
  8  6  1  0
  9  8  1  0
  9 10  1  6
 10 11  1  0
 11 12  2  0
 13  9  1  0
 13 14  2  0
 15 11  1  0
 16 13  1  0
 17 16  1  0
 18 17  1  0
 19 20  1  0
 19 18  1  0
 20 16  1  0
 21 22  1  0
 20 21  1  6
 23 21  2  0
M  END
$$$$
