VDP.pdb
     RDKit          3D

 23 23  0  0  1  0  0  0  0  0999 V2000
   27.0354  -22.1265  -16.4847 C   0  0  0  0  0  0  0  0  0  0  0  0
   25.9515  -21.4841  -15.6296 C   0  0  2  0  0  0  0  0  0  0  0  0
   25.0222  -22.5929  -15.1871 C   0  0  0  0  0  0  0  0  0  0  0  0
   25.2203  -20.4946  -16.5121 C   0  0  2  0  0  0  0  0  0  0  0  0
   26.1042  -19.5411  -17.1158 N   0  0  0  0  0  0  0  0  0  0  0  0
   24.1253  -19.8091  -15.7577 C   0  0  0  0  0  0  0  0  0  0  0  0
   24.3381  -18.8381  -14.9905 O   0  0  0  0  0  0  0  0  0  0  0  0
   22.7483  -20.2282  -15.8693 N   0  0  0  0  0  0  0  0  0  0  0  0
   21.6952  -19.5927  -15.1433 C   0  0  1  0  0  0  0  0  0  0  0  0
   20.5873  -19.0906  -16.0618 C   0  0  0  0  0  0  0  0  0  0  0  0
   19.4997  -18.4476  -15.3198 C   0  0  0  0  0  0  0  0  0  0  0  0
   18.3382  -18.9163  -15.2426 O   0  0  0  0  0  0  0  0  0  0  0  0
   21.0563  -20.5283  -14.2044 C   0  0  0  0  0  0  0  0  0  0  0  0
   20.7213  -21.6484  -14.7922 O   0  0  0  0  0  0  0  0  0  0  0  0
   19.7506  -17.2534  -14.6596 O   0  0  0  0  0  0  0  0  0  0  0  0
   20.7839  -20.3596  -12.8363 N   0  0  0  0  0  0  0  0  0  0  0  0
   20.9853  -19.2085  -12.0147 C   0  0  0  0  0  0  0  0  0  0  0  0
   20.3271  -19.5518  -10.6619 C   0  0  0  0  0  0  0  0  0  0  0  0
   20.6264  -21.0638  -10.6302 C   0  0  0  0  0  0  0  0  0  0  0  0
   20.2007  -21.4080  -12.0296 C   0  0  1  0  0  0  0  0  0  0  0  0
   18.7131  -21.3469  -12.0786 C   0  0  0  0  0  0  0  0  0  0  0  0
   18.0211  -20.3697  -12.7577 O   0  0  0  0  0  0  0  0  0  0  0  0
   18.0755  -22.2237  -11.4752 O   0  0  0  0  0  0  0  0  0  0  0  0
  2  3  1  6
  2  1  1  0
  4  5  1  1
  4  2  1  0
  6  4  1  0
  7  6  2  0
  8  6  1  0
  9  8  1  0
  9 10  1  6
 10 11  1  0
 11 12  2  0
 13  9  1  0
 13 14  2  0
 15 11  1  0
 16 13  1  0
 17 16  1  0
 18 17  1  0
 19 20  1  0
 19 18  1  0
 20 16  1  0
 21 22  1  0
 20 21  1  1
 23 21  2  0
M  END
$$$$
