VDP.pdb
     RDKit          3D

 23 23  0  0  1  0  0  0  0  0999 V2000
   26.2745   -9.6968  -17.0542 C   0  0  0  0  0  0  0  0  0  0  0  0
   26.0536  -10.2188  -15.6408 C   0  0  2  0  0  0  0  0  0  0  0  0
   27.3692  -10.8024  -15.1743 C   0  0  0  0  0  0  0  0  0  0  0  0
   24.9925  -11.2955  -15.7278 C   0  0  2  0  0  0  0  0  0  0  0  0
   25.3956  -12.3970  -16.5520 N   0  0  0  0  0  0  0  0  0  0  0  0
   23.6881  -10.7277  -16.1906 C   0  0  0  0  0  0  0  0  0  0  0  0
   23.3599  -10.6878  -17.4020 O   0  0  0  0  0  0  0  0  0  0  0  0
   22.7226  -10.1882  -15.2627 N   0  0  0  0  0  0  0  0  0  0  0  0
   21.4681   -9.6552  -15.6895 C   0  0  1  0  0  0  0  0  0  0  0  0
   20.3229  -10.0866  -14.7809 C   0  0  0  0  0  0  0  0  0  0  0  0
   19.0224   -9.6170  -15.2658 C   0  0  0  0  0  0  0  0  0  0  0  0
   18.6017   -9.8154  -16.4314 O   0  0  0  0  0  0  0  0  0  0  0  0
   21.4790   -8.1840  -15.6645 C   0  0  0  0  0  0  0  0  0  0  0  0
   22.0094   -7.7241  -14.5602 O   0  0  0  0  0  0  0  0  0  0  0  0
   18.1972   -8.9122  -14.4014 O   0  0  0  0  0  0  0  0  0  0  0  0
   21.0112   -7.2800  -16.6330 N   0  0  0  0  0  0  0  0  0  0  0  0
   20.3368   -7.5495  -17.8631 C   0  0  0  0  0  0  0  0  0  0  0  0
   19.9045   -6.1701  -18.4029 C   0  0  0  0  0  0  0  0  0  0  0  0
   21.0953   -5.3333  -17.8944 C   0  0  0  0  0  0  0  0  0  0  0  0
   21.1477   -5.8485  -16.4837 C   0  0  1  0  0  0  0  0  0  0  0  0
   19.9824   -5.2802  -15.7503 C   0  0  0  0  0  0  0  0  0  0  0  0
   19.8882   -3.9527  -15.3982 O   0  0  0  0  0  0  0  0  0  0  0  0
   19.0566   -6.0482  -15.4462 O   0  0  0  0  0  0  0  0  0  0  0  0
  2  3  1  6
  2  1  1  0
  4  5  1  6
  4  2  1  0
  6  4  1  0
  7  6  2  0
  8  6  1  0
  9  8  1  0
  9 10  1  1
 10 11  1  0
 11 12  2  0
 13  9  1  0
 13 14  2  0
 15 11  1  0
 16 13  1  0
 17 16  1  0
 18 17  1  0
 19 20  1  0
 19 18  1  0
 20 16  1  0
 21 22  1  0
 20 21  1  1
 23 21  2  0
M  END
$$$$
