VDP.pdb
     RDKit          3D

 23 23  0  0  1  0  0  0  0  0999 V2000
   16.7288  -28.0121   -4.8333 C   0  0  0  0  0  0  0  0  0  0  0  0
   16.6106  -27.0872   -3.6293 C   0  0  2  0  0  0  0  0  0  0  0  0
   15.4111  -27.5502   -2.8321 C   0  0  0  0  0  0  0  0  0  0  0  0
   16.3880  -25.6889   -4.1659 C   0  0  2  0  0  0  0  0  0  0  0  0
   17.4644  -25.2449   -5.0022 N   0  0  0  0  0  0  0  0  0  0  0  0
   16.1377  -24.7204   -3.0535 C   0  0  0  0  0  0  0  0  0  0  0  0
   17.0556  -24.2903   -2.3124 O   0  0  0  0  0  0  0  0  0  0  0  0
   14.8145  -24.2198   -2.7656 N   0  0  0  0  0  0  0  0  0  0  0  0
   14.5617  -23.2936   -1.7082 C   0  0  1  0  0  0  0  0  0  0  0  0
   13.2626  -22.5245   -1.9182 C   0  0  0  0  0  0  0  0  0  0  0  0
   12.9719  -21.6126   -0.8087 C   0  0  0  0  0  0  0  0  0  0  0  0
   13.8541  -20.9816   -0.1776 O   0  0  0  0  0  0  0  0  0  0  0  0
   14.4241  -23.9851   -0.4167 C   0  0  0  0  0  0  0  0  0  0  0  0
   13.6923  -25.0647   -0.5230 O   0  0  0  0  0  0  0  0  0  0  0  0
   11.6530  -21.4244   -0.4212 O   0  0  0  0  0  0  0  0  0  0  0  0
   14.9570  -23.6342    0.8351 N   0  0  0  0  0  0  0  0  0  0  0  0
   15.8099  -22.5396    1.1743 C   0  0  0  0  0  0  0  0  0  0  0  0
   15.9043  -22.5570    2.7144 C   0  0  0  0  0  0  0  0  0  0  0  0
   15.8309  -24.0805    2.9386 C   0  0  0  0  0  0  0  0  0  0  0  0
   14.6693  -24.3863    2.0357 C   0  0  1  0  0  0  0  0  0  0  0  0
   13.4355  -23.8759    2.6961 C   0  0  0  0  0  0  0  0  0  0  0  0
   12.8845  -24.4573    3.8156 O   0  0  0  0  0  0  0  0  0  0  0  0
   12.8849  -22.8777    2.2064 O   0  0  0  0  0  0  0  0  0  0  0  0
  2  3  1  1
  2  1  1  0
  4  5  1  1
  4  2  1  0
  6  4  1  0
  7  6  2  0
  8  6  1  0
  9  8  1  0
  9 10  1  6
 10 11  1  0
 11 12  2  0
 13  9  1  0
 13 14  2  0
 15 11  1  0
 16 13  1  0
 17 16  1  0
 18 17  1  0
 19 20  1  0
 19 18  1  0
 20 16  1  0
 21 22  1  0
 20 21  1  1
 23 21  2  0
M  END
$$$$
