VDP.pdb
     RDKit          3D

 23 23  0  0  1  0  0  0  0  0999 V2000
   21.7760  -33.0012   -9.5833 C   0  0  0  0  0  0  0  0  0  0  0  0
   23.0046  -32.2220  -10.0330 C   0  0  2  0  0  0  0  0  0  0  0  0
   22.6636  -31.5881  -11.3638 C   0  0  0  0  0  0  0  0  0  0  0  0
   24.1298  -33.2228  -10.1908 C   0  0  2  0  0  0  0  0  0  0  0  0
   23.8492  -34.2097  -11.1919 N   0  0  0  0  0  0  0  0  0  0  0  0
   24.4642  -33.8656   -8.8820 C   0  0  0  0  0  0  0  0  0  0  0  0
   24.0178  -34.9907   -8.5478 O   0  0  0  0  0  0  0  0  0  0  0  0
   25.3272  -33.2237   -7.9190 N   0  0  0  0  0  0  0  0  0  0  0  0
   25.6929  -33.8462   -6.6866 C   0  0  1  0  0  0  0  0  0  0  0  0
   26.8688  -33.1449   -6.0168 C   0  0  0  0  0  0  0  0  0  0  0  0
   27.4147  -33.9204   -4.8999 C   0  0  0  0  0  0  0  0  0  0  0  0
   28.4171  -33.5676   -4.2324 O   0  0  0  0  0  0  0  0  0  0  0  0
   24.5850  -33.8027   -5.7193 C   0  0  0  0  0  0  0  0  0  0  0  0
   24.1679  -32.5788   -5.5180 O   0  0  0  0  0  0  0  0  0  0  0  0
   26.8014  -35.1139   -4.5470 O   0  0  0  0  0  0  0  0  0  0  0  0
   23.9685  -34.8625   -5.0331 N   0  0  0  0  0  0  0  0  0  0  0  0
   24.3637  -36.2330   -4.9538 C   0  0  0  0  0  0  0  0  0  0  0  0
   23.4203  -36.8708   -3.9126 C   0  0  0  0  0  0  0  0  0  0  0  0
   22.1511  -36.0468   -4.2073 C   0  0  0  0  0  0  0  0  0  0  0  0
   22.7724  -34.6790   -4.2422 C   0  0  1  0  0  0  0  0  0  0  0  0
   23.1168  -34.3021   -2.8428 C   0  0  0  0  0  0  0  0  0  0  0  0
   22.1726  -33.9693   -1.8980 O   0  0  0  0  0  0  0  0  0  0  0  0
   24.3154  -34.2905   -2.5225 O   0  0  0  0  0  0  0  0  0  0  0  0
  2  3  1  6
  2  1  1  0
  4  5  1  6
  4  2  1  0
  6  4  1  0
  7  6  2  0
  8  6  1  0
  9  8  1  0
  9 10  1  1
 10 11  1  0
 11 12  2  0
 13  9  1  0
 13 14  2  0
 15 11  1  0
 16 13  1  0
 17 16  1  0
 18 17  1  0
 19 20  1  0
 19 18  1  0
 20 16  1  0
 21 22  1  0
 20 21  1  1
 23 21  2  0
M  END
$$$$
