VDP.pdb
     RDKit          3D

 23 23  0  0  1  0  0  0  0  0999 V2000
   13.2236  -10.7389  -17.4509 C   0  0  0  0  0  0  0  0  0  0  0  0
   14.5426  -10.6190  -16.6993 C   0  0  2  0  0  0  0  0  0  0  0  0
   15.1459   -9.2835  -17.0753 C   0  0  0  0  0  0  0  0  0  0  0  0
   15.4251  -11.7555  -17.1706 C   0  0  2  0  0  0  0  0  0  0  0  0
   14.8587  -13.0421  -16.8897 N   0  0  0  0  0  0  0  0  0  0  0  0
   16.8024  -11.6388  -16.5982 C   0  0  0  0  0  0  0  0  0  0  0  0
   17.1184  -12.1371  -15.4898 O   0  0  0  0  0  0  0  0  0  0  0  0
   17.8572  -10.9401  -17.2937 N   0  0  0  0  0  0  0  0  0  0  0  0
   19.1738  -10.8133  -16.7549 C   0  0  1  0  0  0  0  0  0  0  0  0
   20.2433  -11.2662  -17.7419 C   0  0  0  0  0  0  0  0  0  0  0  0
   20.2357  -12.7178  -17.9414 C   0  0  0  0  0  0  0  0  0  0  0  0
   20.5284  -13.5447  -17.0440 O   0  0  0  0  0  0  0  0  0  0  0  0
   19.4831   -9.4119  -16.4302 C   0  0  0  0  0  0  0  0  0  0  0  0
   18.9033   -8.5846  -17.2620 O   0  0  0  0  0  0  0  0  0  0  0  0
   19.8878  -13.2236  -19.1856 O   0  0  0  0  0  0  0  0  0  0  0  0
   20.2817   -8.9001  -15.3936 N   0  0  0  0  0  0  0  0  0  0  0  0
   21.0634   -9.6061  -14.4287 C   0  0  0  0  0  0  0  0  0  0  0  0
   21.8651   -8.5212  -13.6794 C   0  0  0  0  0  0  0  0  0  0  0  0
   20.8219   -7.3868  -13.7186 C   0  0  0  0  0  0  0  0  0  0  0  0
   20.4399   -7.4808  -15.1689 C   0  0  1  0  0  0  0  0  0  0  0  0
   21.5729   -6.9417  -15.9717 C   0  0  0  0  0  0  0  0  0  0  0  0
   21.8787   -5.6011  -16.0380 O   0  0  0  0  0  0  0  0  0  0  0  0
   22.2693   -7.7476  -16.6080 O   0  0  0  0  0  0  0  0  0  0  0  0
  2  3  1  6
  2  1  1  0
  4  5  1  1
  4  2  1  0
  6  4  1  0
  7  6  2  0
  8  6  1  0
  9  8  1  0
  9 10  1  6
 10 11  1  0
 11 12  2  0
 13  9  1  0
 13 14  2  0
 15 11  1  0
 16 13  1  0
 17 16  1  0
 18 17  1  0
 19 20  1  0
 19 18  1  0
 20 16  1  0
 21 22  1  0
 20 21  1  6
 23 21  2  0
M  END
$$$$
