VDP.pdb
     RDKit          3D

 23 23  0  0  1  0  0  0  0  0999 V2000
   29.2782  -30.5958  -21.5017 C   0  0  0  0  0  0  0  0  0  0  0  0
   29.2708  -29.7572  -22.7728 C   0  0  2  0  0  0  0  0  0  0  0  0
   29.7108  -30.6625  -23.9023 C   0  0  0  0  0  0  0  0  0  0  0  0
   30.2669  -28.6354  -22.5684 C   0  0  2  0  0  0  0  0  0  0  0  0
   31.6135  -29.1126  -22.4510 N   0  0  0  0  0  0  0  0  0  0  0  0
   29.8916  -27.7919  -21.3912 C   0  0  0  0  0  0  0  0  0  0  0  0
   30.3475  -27.9975  -20.2394 O   0  0  0  0  0  0  0  0  0  0  0  0
   28.9754  -26.6828  -21.5127 N   0  0  0  0  0  0  0  0  0  0  0  0
   28.5775  -25.8943  -20.3903 C   0  0  1  0  0  0  0  0  0  0  0  0
   27.9407  -24.5756  -20.8129 C   0  0  0  0  0  0  0  0  0  0  0  0
   27.5627  -23.7483  -19.6641 C   0  0  0  0  0  0  0  0  0  0  0  0
   26.4871  -23.1058  -19.5935 O   0  0  0  0  0  0  0  0  0  0  0  0
   27.5695  -26.5945  -19.5787 C   0  0  0  0  0  0  0  0  0  0  0  0
   26.6510  -27.1519  -20.3257 O   0  0  0  0  0  0  0  0  0  0  0  0
   28.4307  -23.6591  -18.5853 O   0  0  0  0  0  0  0  0  0  0  0  0
   27.4911  -26.7197  -18.1815 N   0  0  0  0  0  0  0  0  0  0  0  0
   28.3471  -26.1678  -17.1799 C   0  0  0  0  0  0  0  0  0  0  0  0
   27.6581  -26.4816  -15.8353 C   0  0  0  0  0  0  0  0  0  0  0  0
   27.0320  -27.8417  -16.2021 C   0  0  0  0  0  0  0  0  0  0  0  0
   26.4382  -27.4665  -17.5305 C   0  0  1  0  0  0  0  0  0  0  0  0
   25.2572  -26.5969  -17.2695 C   0  0  0  0  0  0  0  0  0  0  0  0
   24.0741  -27.0695  -16.7480 O   0  0  0  0  0  0  0  0  0  0  0  0
   25.3541  -25.3895  -17.5381 O   0  0  0  0  0  0  0  0  0  0  0  0
  2  3  1  6
  2  1  1  0
  4  5  1  1
  4  2  1  0
  6  4  1  0
  7  6  2  0
  8  6  1  0
  9  8  1  0
  9 10  1  6
 10 11  1  0
 11 12  2  0
 13  9  1  0
 13 14  2  0
 15 11  1  0
 16 13  1  0
 17 16  1  0
 18 17  1  0
 19 20  1  0
 19 18  1  0
 20 16  1  0
 21 22  1  0
 20 21  1  1
 23 21  2  0
M  END
$$$$
