VDP.pdb
     RDKit          3D

 23 23  0  0  1  0  0  0  0  0999 V2000
   13.9000   -6.5243   -7.5941 C   0  0  0  0  0  0  0  0  0  0  0  0
   14.9893   -7.3556   -8.2584 C   0  0  2  0  0  0  0  0  0  0  0  0
   16.0186   -6.3865   -8.7969 C   0  0  0  0  0  0  0  0  0  0  0  0
   14.3341   -8.1215   -9.3883 C   0  0  2  0  0  0  0  0  0  0  0  0
   13.4417   -9.1390   -8.9157 N   0  0  0  0  0  0  0  0  0  0  0  0
   15.3599   -8.6949  -10.3140 C   0  0  0  0  0  0  0  0  0  0  0  0
   15.8330   -9.8488  -10.1676 O   0  0  0  0  0  0  0  0  0  0  0  0
   15.8696   -7.9478  -11.4394 N   0  0  0  0  0  0  0  0  0  0  0  0
   16.7307   -8.5325  -12.4174 C   0  0  1  0  0  0  0  0  0  0  0  0
   16.0014   -8.8208  -13.7244 C   0  0  0  0  0  0  0  0  0  0  0  0
   16.8727   -9.4528  -14.7186 C   0  0  0  0  0  0  0  0  0  0  0  0
   17.2586   -8.8827  -15.7679 O   0  0  0  0  0  0  0  0  0  0  0  0
   17.8402   -7.6281  -12.7583 C   0  0  0  0  0  0  0  0  0  0  0  0
   17.4327   -6.3910  -12.8848 O   0  0  0  0  0  0  0  0  0  0  0  0
   17.3048  -10.7536  -14.5039 O   0  0  0  0  0  0  0  0  0  0  0  0
   19.1989   -7.9293  -12.9512 N   0  0  0  0  0  0  0  0  0  0  0  0
   19.8520   -9.1993  -12.9160 C   0  0  0  0  0  0  0  0  0  0  0  0
   21.2965   -8.9291  -13.3868 C   0  0  0  0  0  0  0  0  0  0  0  0
   21.4778   -7.5171  -12.7954 C   0  0  0  0  0  0  0  0  0  0  0  0
   20.1807   -6.9119  -13.2530 C   0  0  1  0  0  0  0  0  0  0  0  0
   20.2776   -6.6905  -14.7228 C   0  0  0  0  0  0  0  0  0  0  0  0
   19.5604   -7.4204  -15.6436 O   0  0  0  0  0  0  0  0  0  0  0  0
   21.0444   -5.8030  -15.1273 O   0  0  0  0  0  0  0  0  0  0  0  0
  2  3  1  6
  2  1  1  0
  4  5  1  1
  4  2  1  0
  6  4  1  0
  7  6  2  0
  8  6  1  0
  9  8  1  0
  9 10  1  6
 10 11  1  0
 11 12  2  0
 13  9  1  0
 13 14  2  0
 15 11  1  0
 16 13  1  0
 17 16  1  0
 18 17  1  0
 19 20  1  0
 19 18  1  0
 20 16  1  0
 21 22  1  0
 20 21  1  6
 23 21  2  0
M  END
$$$$
