VDP.pdb
     RDKit          3D

 23 23  0  0  1  0  0  0  0  0999 V2000
   15.5903  -11.2166  -14.7404 C   0  0  0  0  0  0  0  0  0  0  0  0
   15.5499  -11.5821  -16.2181 C   0  0  2  0  0  0  0  0  0  0  0  0
   14.1971  -12.2059  -16.4824 C   0  0  0  0  0  0  0  0  0  0  0  0
   16.6571  -12.5872  -16.4557 C   0  0  2  0  0  0  0  0  0  0  0  0
   16.4675  -13.7977  -15.7115 N   0  0  0  0  0  0  0  0  0  0  0  0
   17.9975  -11.9867  -16.1715 C   0  0  0  0  0  0  0  0  0  0  0  0
   18.6456  -12.2432  -15.1270 O   0  0  0  0  0  0  0  0  0  0  0  0
   18.6290  -11.0693  -17.0903 N   0  0  0  0  0  0  0  0  0  0  0  0
   19.9298  -10.5281  -16.8560 C   0  0  1  0  0  0  0  0  0  0  0  0
   20.8064  -10.5827  -18.1017 C   0  0  0  0  0  0  0  0  0  0  0  0
   22.1655  -10.0988  -17.8457 C   0  0  0  0  0  0  0  0  0  0  0  0
   22.9512  -10.6332  -17.0260 O   0  0  0  0  0  0  0  0  0  0  0  0
   19.8545   -9.1102  -16.4699 C   0  0  0  0  0  0  0  0  0  0  0  0
   18.9202   -8.4784  -17.1335 O   0  0  0  0  0  0  0  0  0  0  0  0
   22.6259   -8.9891  -18.5397 O   0  0  0  0  0  0  0  0  0  0  0  0
   20.6268   -8.4079  -15.5294 N   0  0  0  0  0  0  0  0  0  0  0  0
   21.7736   -8.8473  -14.7998 C   0  0  0  0  0  0  0  0  0  0  0  0
   22.3014   -7.5923  -14.0736 C   0  0  0  0  0  0  0  0  0  0  0  0
   20.9551   -6.8920  -13.8027 C   0  0  0  0  0  0  0  0  0  0  0  0
   20.3461   -7.0363  -15.1688 C   0  0  1  0  0  0  0  0  0  0  0  0
   21.0526   -6.0948  -16.0816 C   0  0  0  0  0  0  0  0  0  0  0  0
   20.8944   -4.7285  -16.0242 O   0  0  0  0  0  0  0  0  0  0  0  0
   21.8187   -6.5744  -16.9314 O   0  0  0  0  0  0  0  0  0  0  0  0
  2  3  1  1
  2  1  1  0
  4  5  1  1
  4  2  1  0
  6  4  1  0
  7  6  2  0
  8  6  1  0
  9  8  1  0
  9 10  1  6
 10 11  1  0
 11 12  2  0
 13  9  1  0
 13 14  2  0
 15 11  1  0
 16 13  1  0
 17 16  1  0
 18 17  1  0
 19 20  1  0
 19 18  1  0
 20 16  1  0
 21 22  1  0
 20 21  1  6
 23 21  2  0
M  END
$$$$
