VDP.pdb
     RDKit          3D

 23 23  0  0  1  0  0  0  0  0999 V2000
   33.0721  -33.1837   -5.5566 C   0  0  0  0  0  0  0  0  0  0  0  0
   32.7631  -34.6554   -5.3161 C   0  0  2  0  0  0  0  0  0  0  0  0
   32.4788  -35.2740   -6.6672 C   0  0  0  0  0  0  0  0  0  0  0  0
   31.5338  -34.7108   -4.4339 C   0  0  2  0  0  0  0  0  0  0  0  0
   30.4043  -34.0560   -5.0258 N   0  0  0  0  0  0  0  0  0  0  0  0
   31.8233  -34.1579   -3.0742 C   0  0  0  0  0  0  0  0  0  0  0  0
   31.3053  -33.0946   -2.6525 O   0  0  0  0  0  0  0  0  0  0  0  0
   32.7228  -34.8211   -2.1603 N   0  0  0  0  0  0  0  0  0  0  0  0
   32.9432  -34.3512   -0.8297 C   0  0  1  0  0  0  0  0  0  0  0  0
   32.2284  -35.2096    0.2073 C   0  0  0  0  0  0  0  0  0  0  0  0
   32.3041  -34.6335    1.5524 C   0  0  0  0  0  0  0  0  0  0  0  0
   32.9249  -33.5769    1.8226 O   0  0  0  0  0  0  0  0  0  0  0  0
   34.3721  -34.3922   -0.4808 C   0  0  0  0  0  0  0  0  0  0  0  0
   34.8766  -35.5874   -0.6527 O   0  0  0  0  0  0  0  0  0  0  0  0
   31.6592  -35.2791    2.5975 O   0  0  0  0  0  0  0  0  0  0  0  0
   35.1979  -33.3563   -0.0129 N   0  0  0  0  0  0  0  0  0  0  0  0
   34.8361  -32.0437    0.4194 C   0  0  0  0  0  0  0  0  0  0  0  0
   36.1302  -31.4320    0.9958 C   0  0  0  0  0  0  0  0  0  0  0  0
   37.1488  -32.1003    0.0511 C   0  0  0  0  0  0  0  0  0  0  0  0
   36.6295  -33.5088    0.1184 C   0  0  1  0  0  0  0  0  0  0  0  0
   36.9818  -34.0580    1.4575 C   0  0  0  0  0  0  0  0  0  0  0  0
   38.2698  -34.3726    1.8278 O   0  0  0  0  0  0  0  0  0  0  0  0
   36.0632  -34.2372    2.2719 O   0  0  0  0  0  0  0  0  0  0  0  0
  2  3  1  6
  2  1  1  0
  4  5  1  6
  4  2  1  0
  6  4  1  0
  7  6  2  0
  8  6  1  0
  9  8  1  0
  9 10  1  1
 10 11  1  0
 11 12  2  0
 13  9  1  0
 13 14  2  0
 15 11  1  0
 16 13  1  0
 17 16  1  0
 18 17  1  0
 19 20  1  0
 19 18  1  0
 20 16  1  0
 21 22  1  0
 20 21  1  1
 23 21  2  0
M  END
$$$$
