VDP.pdb
     RDKit          3D

 23 23  0  0  1  0  0  0  0  0999 V2000
   15.6024   -7.8272   -7.7354 C   0  0  0  0  0  0  0  0  0  0  0  0
   14.7173   -7.0778   -8.7223 C   0  0  2  0  0  0  0  0  0  0  0  0
   13.5688   -6.4926   -7.9303 C   0  0  0  0  0  0  0  0  0  0  0  0
   14.2120   -8.0947   -9.7239 C   0  0  2  0  0  0  0  0  0  0  0  0
   13.4366   -9.1316   -9.1086 N   0  0  0  0  0  0  0  0  0  0  0  0
   15.3398   -8.6692  -10.5214 C   0  0  0  0  0  0  0  0  0  0  0  0
   15.5864   -9.9000  -10.5544 O   0  0  0  0  0  0  0  0  0  0  0  0
   16.2177   -7.8340  -11.3064 N   0  0  0  0  0  0  0  0  0  0  0  0
   17.1487   -8.3744  -12.2451 C   0  0  1  0  0  0  0  0  0  0  0  0
   16.4549   -8.9495  -13.4744 C   0  0  0  0  0  0  0  0  0  0  0  0
   17.4041   -9.5373  -14.4234 C   0  0  0  0  0  0  0  0  0  0  0  0
   18.0527  -10.5876  -14.1980 O   0  0  0  0  0  0  0  0  0  0  0  0
   18.0672   -7.3372  -12.7408 C   0  0  0  0  0  0  0  0  0  0  0  0
   17.4321   -6.2322  -13.0377 O   0  0  0  0  0  0  0  0  0  0  0  0
   17.6093   -8.9107  -15.6441 O   0  0  0  0  0  0  0  0  0  0  0  0
   19.4594   -7.4012  -12.9191 N   0  0  0  0  0  0  0  0  0  0  0  0
   20.3302   -8.5273  -12.8000 C   0  0  0  0  0  0  0  0  0  0  0  0
   21.7059   -8.0343  -13.2953 C   0  0  0  0  0  0  0  0  0  0  0  0
   21.6255   -6.5755  -12.8033 C   0  0  0  0  0  0  0  0  0  0  0  0
   20.2441   -6.2467  -13.2950 C   0  0  1  0  0  0  0  0  0  0  0  0
   20.3107   -6.1127  -14.7770 C   0  0  0  0  0  0  0  0  0  0  0  0
   20.8795   -5.0312  -15.4110 O   0  0  0  0  0  0  0  0  0  0  0  0
   19.8277   -7.0251  -15.4651 O   0  0  0  0  0  0  0  0  0  0  0  0
  2  3  1  1
  2  1  1  0
  4  5  1  1
  4  2  1  0
  6  4  1  0
  7  6  2  0
  8  6  1  0
  9  8  1  0
  9 10  1  6
 10 11  1  0
 11 12  2  0
 13  9  1  0
 13 14  2  0
 15 11  1  0
 16 13  1  0
 17 16  1  0
 18 17  1  0
 19 20  1  0
 19 18  1  0
 20 16  1  0
 21 22  1  0
 20 21  1  6
 23 21  2  0
M  END
$$$$
