VDP.pdb
     RDKit          3D

 23 23  0  0  1  0  0  0  0  0999 V2000
   17.7998  -14.9007    1.1718 C   0  0  0  0  0  0  0  0  0  0  0  0
   18.1946  -15.6693    2.4258 C   0  0  2  0  0  0  0  0  0  0  0  0
   18.0428  -17.1408    2.1086 C   0  0  0  0  0  0  0  0  0  0  0  0
   17.2320  -15.2564    3.5192 C   0  0  2  0  0  0  0  0  0  0  0  0
   17.1586  -13.8334    3.6762 N   0  0  0  0  0  0  0  0  0  0  0  0
   17.5729  -15.9227    4.8145 C   0  0  0  0  0  0  0  0  0  0  0  0
   18.4559  -15.4806    5.5902 O   0  0  0  0  0  0  0  0  0  0  0  0
   16.9002  -17.1230    5.2514 N   0  0  0  0  0  0  0  0  0  0  0  0
   17.2803  -17.8233    6.4368 C   0  0  1  0  0  0  0  0  0  0  0  0
   16.1259  -18.6280    7.0224 C   0  0  0  0  0  0  0  0  0  0  0  0
   15.0589  -17.7696    7.5436 C   0  0  0  0  0  0  0  0  0  0  0  0
   15.1306  -17.1567    8.6362 O   0  0  0  0  0  0  0  0  0  0  0  0
   18.3555  -18.7895    6.1623 C   0  0  0  0  0  0  0  0  0  0  0  0
   18.2129  -19.3495    4.9882 O   0  0  0  0  0  0  0  0  0  0  0  0
   13.8976  -17.6145    6.8004 O   0  0  0  0  0  0  0  0  0  0  0  0
   19.4455  -19.1526    6.9713 N   0  0  0  0  0  0  0  0  0  0  0  0
   19.7633  -18.7248    8.2966 C   0  0  0  0  0  0  0  0  0  0  0  0
   20.9576  -19.5990    8.7328 C   0  0  0  0  0  0  0  0  0  0  0  0
   21.6542  -19.7473    7.3655 C   0  0  0  0  0  0  0  0  0  0  0  0
   20.4510  -20.0954    6.5353 C   0  0  1  0  0  0  0  0  0  0  0  0
   20.0523  -21.4892    6.8776 C   0  0  0  0  0  0  0  0  0  0  0  0
   20.7600  -22.5972    6.4693 O   0  0  0  0  0  0  0  0  0  0  0  0
   19.0316  -21.6495    7.5644 O   0  0  0  0  0  0  0  0  0  0  0  0
  2  3  1  6
  2  1  1  0
  4  5  1  1
  4  2  1  0
  6  4  1  0
  7  6  2  0
  8  6  1  0
  9  8  1  0
  9 10  1  6
 10 11  1  0
 11 12  2  0
 13  9  1  0
 13 14  2  0
 15 11  1  0
 16 13  1  0
 17 16  1  0
 18 17  1  0
 19 20  1  0
 19 18  1  0
 20 16  1  0
 21 22  1  0
 20 21  1  1
 23 21  2  0
M  END
$$$$
