PAL.pdb
     RDKit          3D

 21 21  0  0  1  0  0  0  0  0999 V2000
    6.4096  -17.5123   20.7915 N   0  0  0  0  0  0  0  0  0  0  0  0
    6.0540  -17.9236   19.4678 C   0  0  0  0  0  0  0  0  0  0  0  0
    5.8808  -19.4234   19.6042 C   0  0  0  0  0  0  0  0  0  0  0  0
    7.0762  -19.7656   20.4782 C   0  0  0  0  0  0  0  0  0  0  0  0
    7.0241  -18.6127   21.4676 C   0  0  1  0  0  0  0  0  0  0  0  0
    8.3698  -18.2137   21.9334 C   0  0  0  0  0  0  0  0  0  0  0  0
    9.0152  -18.9643   22.7068 O   0  0  0  0  0  0  0  0  0  0  0  0
   10.8161  -15.5222   21.0779 C   0  0  0  0  0  0  0  0  0  0  0  0
   10.2284  -16.5085   22.0959 C   0  0  2  0  0  0  0  0  0  0  0  0
    9.0003  -16.9966   21.5504 N   0  0  0  0  0  0  0  0  0  0  0  0
   10.0246  -15.7234   23.3455 C   0  0  0  0  0  0  0  0  0  0  0  0
   11.0425  -15.3661   23.9918 O   0  0  0  0  0  0  0  0  0  0  0  0
    5.4621  -12.4897   26.0436 C   0  0  0  0  0  0  0  0  0  0  0  0
    6.9206  -12.9820   26.1225 C   0  0  2  0  0  0  0  0  0  0  0  0
    7.7951  -11.7503   26.2451 C   0  0  0  0  0  0  0  0  0  0  0  0
    7.2666  -13.7821   24.9118 C   0  0  0  0  0  0  0  0  0  0  0  0
    8.5340  -14.5725   25.0489 C   0  0  2  0  0  0  0  0  0  0  0  0
    8.7552  -15.3680   23.8288 N   0  0  0  0  0  0  0  0  0  0  0  0
    8.4506  -15.5230   26.1753 C   0  0  0  0  0  0  0  0  0  0  0  0
    9.0492  -15.3585   27.4135 O   0  0  0  0  0  0  0  0  0  0  0  0
    7.7869  -16.5898   26.0362 O   0  0  0  0  0  0  0  0  0  0  0  0
  1  2  1  0
  3  2  1  0
  4  3  1  0
  5  4  1  0
  5  1  1  0
  5  6  1  6
  7  6  2  0
  9  8  1  6
  9 10  1  0
 10  6  1  0
 11  9  1  0
 11 18  1  0
 12 11  2  0
 14 13  1  6
 14 16  1  0
 14 15  1  0
 17 18  1  0
 17 19  1  0
 17 16  1  6
 19 20  1  0
 21 19  2  0
M  END
$$$$
