PAL.pdb
     RDKit          3D

 21 21  0  0  1  0  0  0  0  0999 V2000
    5.1421  -18.0086   22.2796 N   0  0  0  0  0  0  0  0  0  0  0  0
    3.8392  -17.8898   21.6998 C   0  0  0  0  0  0  0  0  0  0  0  0
    3.9137  -18.7973   20.4878 C   0  0  0  0  0  0  0  0  0  0  0  0
    5.2905  -18.4390   19.9531 C   0  0  0  0  0  0  0  0  0  0  0  0
    6.0730  -18.3659   21.2543 C   0  0  1  0  0  0  0  0  0  0  0  0
    7.1552  -17.3593   21.2007 C   0  0  0  0  0  0  0  0  0  0  0  0
    8.3167  -17.7025   20.8670 O   0  0  0  0  0  0  0  0  0  0  0  0
    7.2638  -13.6474   21.1384 C   0  0  0  0  0  0  0  0  0  0  0  0
    7.9715  -14.9779   21.4270 C   0  0  2  0  0  0  0  0  0  0  0  0
    6.9598  -15.9844   21.5125 N   0  0  0  0  0  0  0  0  0  0  0  0
    8.6893  -14.7804   22.7174 C   0  0  0  0  0  0  0  0  0  0  0  0
    9.7595  -14.1202   22.7036 O   0  0  0  0  0  0  0  0  0  0  0  0
    6.9813  -11.8701   26.0461 C   0  0  0  0  0  0  0  0  0  0  0  0
    7.1736  -13.3501   25.6606 C   0  0  2  0  0  0  0  0  0  0  0  0
    6.3168  -14.1666   26.6070 C   0  0  0  0  0  0  0  0  0  0  0  0
    8.6129  -13.7307   25.7567 C   0  0  0  0  0  0  0  0  0  0  0  0
    8.9147  -15.1008   25.2263 C   0  0  2  0  0  0  0  0  0  0  0  0
    8.2260  -15.2955   23.9386 N   0  0  0  0  0  0  0  0  0  0  0  0
    8.4216  -16.1480   26.1426 C   0  0  0  0  0  0  0  0  0  0  0  0
    7.5302  -17.1545   25.8095 O   0  0  0  0  0  0  0  0  0  0  0  0
    8.8227  -16.1597   27.3413 O   0  0  0  0  0  0  0  0  0  0  0  0
  1  2  1  0
  3  2  1  0
  4  3  1  0
  5  4  1  0
  5  1  1  0
  5  6  1  6
  7  6  2  0
  9  8  1  1
  9 10  1  0
 10  6  1  0
 11  9  1  0
 11 18  1  0
 12 11  2  0
 14 13  1  1
 14 16  1  0
 14 15  1  0
 17 18  1  0
 17 19  1  0
 17 16  1  1
 19 20  1  0
 21 19  2  0
M  END
$$$$
