PAL.pdb
     RDKit          3D

 21 21  0  0  1  0  0  0  0  0999 V2000
    8.2656  -14.8611   18.0096 N   0  0  0  0  0  0  0  0  0  0  0  0
    7.4940  -13.8212   17.4004 C   0  0  0  0  0  0  0  0  0  0  0  0
    8.0959  -12.5564   17.9799 C   0  0  0  0  0  0  0  0  0  0  0  0
    8.2639  -12.9660   19.4338 C   0  0  0  0  0  0  0  0  0  0  0  0
    8.7821  -14.3838   19.2550 C   0  0  1  0  0  0  0  0  0  0  0  0
    8.3435  -15.2817   20.3452 C   0  0  0  0  0  0  0  0  0  0  0  0
    7.5923  -16.2565   20.0926 O   0  0  0  0  0  0  0  0  0  0  0  0
    9.0882  -17.3489   22.4398 C   0  0  0  0  0  0  0  0  0  0  0  0
    8.4091  -16.0117   22.7642 C   0  0  2  0  0  0  0  0  0  0  0  0
    8.7293  -15.1075   21.7041 N   0  0  0  0  0  0  0  0  0  0  0  0
    8.9756  -15.5795   24.0725 C   0  0  0  0  0  0  0  0  0  0  0  0
   10.2254  -15.4811   24.1720 O   0  0  0  0  0  0  0  0  0  0  0  0
    7.8324  -11.7847   25.8024 C   0  0  0  0  0  0  0  0  0  0  0  0
    6.9065  -12.9516   26.1990 C   0  0  2  0  0  0  0  0  0  0  0  0
    5.6924  -12.3417   26.8704 C   0  0  0  0  0  0  0  0  0  0  0  0
    7.6190  -13.8964   27.1074 C   0  0  0  0  0  0  0  0  0  0  0  0
    8.7021  -14.6853   26.4333 C   0  0  2  0  0  0  0  0  0  0  0  0
    8.1807  -15.2796   25.1902 N   0  0  0  0  0  0  0  0  0  0  0  0
    9.1596  -15.7999   27.2863 C   0  0  0  0  0  0  0  0  0  0  0  0
    8.9566  -17.1459   27.0295 O   0  0  0  0  0  0  0  0  0  0  0  0
    9.7926  -15.5449   28.3503 O   0  0  0  0  0  0  0  0  0  0  0  0
  1  2  1  0
  3  2  1  0
  4  3  1  0
  5  4  1  0
  5  1  1  0
  5  6  1  1
  7  6  2  0
  9  8  1  6
  9 10  1  0
 10  6  1  0
 11  9  1  0
 11 18  1  0
 12 11  2  0
 14 13  1  1
 14 16  1  0
 14 15  1  0
 17 18  1  0
 17 19  1  0
 17 16  1  1
 19 20  1  0
 21 19  2  0
M  END
$$$$
