PAL.pdb
     RDKit          3D

 21 21  0  0  1  0  0  0  0  0999 V2000
    9.1776  -14.6278   18.9323 N   0  0  0  0  0  0  0  0  0  0  0  0
    8.3897  -14.5570   17.7398 C   0  0  0  0  0  0  0  0  0  0  0  0
    7.8692  -13.1333   17.7508 C   0  0  0  0  0  0  0  0  0  0  0  0
    7.4946  -12.9827   19.2160 C   0  0  0  0  0  0  0  0  0  0  0  0
    8.6852  -13.6657   19.8690 C   0  0  1  0  0  0  0  0  0  0  0  0
    8.3171  -14.3493   21.1278 C   0  0  0  0  0  0  0  0  0  0  0  0
    7.6923  -13.7260   22.0218 O   0  0  0  0  0  0  0  0  0  0  0  0
    8.9372  -17.7918   22.5258 C   0  0  0  0  0  0  0  0  0  0  0  0
    8.2988  -16.3989   22.6068 C   0  0  2  0  0  0  0  0  0  0  0  0
    8.6349  -15.7096   21.4001 N   0  0  0  0  0  0  0  0  0  0  0  0
    8.8889  -15.7553   23.8139 C   0  0  0  0  0  0  0  0  0  0  0  0
   10.1152  -15.4773   23.7958 O   0  0  0  0  0  0  0  0  0  0  0  0
    7.9563  -11.8538   25.5676 C   0  0  0  0  0  0  0  0  0  0  0  0
    6.9794  -12.9899   25.9293 C   0  0  2  0  0  0  0  0  0  0  0  0
    5.7802  -12.3444   26.5942 C   0  0  0  0  0  0  0  0  0  0  0  0
    7.6403  -13.9782   26.8304 C   0  0  0  0  0  0  0  0  0  0  0  0
    8.7020  -14.7969   26.1579 C   0  0  2  0  0  0  0  0  0  0  0  0
    8.1408  -15.4482   24.9616 N   0  0  0  0  0  0  0  0  0  0  0  0
    9.1899  -15.8707   27.0457 C   0  0  0  0  0  0  0  0  0  0  0  0
    8.9948  -17.2280   26.8498 O   0  0  0  0  0  0  0  0  0  0  0  0
    9.8438  -15.5656   28.0836 O   0  0  0  0  0  0  0  0  0  0  0  0
  1  2  1  0
  3  2  1  0
  4  3  1  0
  5  4  1  0
  5  1  1  0
  5  6  1  1
  7  6  2  0
  9  8  1  6
  9 10  1  0
 10  6  1  0
 11  9  1  0
 11 18  1  0
 12 11  2  0
 14 13  1  1
 14 16  1  0
 14 15  1  0
 17 18  1  0
 17 19  1  0
 17 16  1  1
 19 20  1  0
 21 19  2  0
M  END
$$$$
