PAL.pdb
     RDKit          3D

 21 21  0  0  1  0  0  0  0  0999 V2000
    8.3922  -14.8796   18.3271 N   0  0  0  0  0  0  0  0  0  0  0  0
    7.5612  -14.0216   17.5390 C   0  0  0  0  0  0  0  0  0  0  0  0
    7.9339  -12.6347   18.0243 C   0  0  0  0  0  0  0  0  0  0  0  0
    8.0019  -12.8709   19.5241 C   0  0  0  0  0  0  0  0  0  0  0  0
    8.7124  -14.2145   19.5522 C   0  0  1  0  0  0  0  0  0  0  0  0
    8.2818  -15.0516   20.6928 C   0  0  0  0  0  0  0  0  0  0  0  0
    7.0785  -15.3960   20.8005 O   0  0  0  0  0  0  0  0  0  0  0  0
    9.5077  -17.5579   22.8785 C   0  0  0  0  0  0  0  0  0  0  0  0
    8.7693  -16.2128   22.8842 C   0  0  2  0  0  0  0  0  0  0  0  0
    9.1700  -15.5062   21.7077 N   0  0  0  0  0  0  0  0  0  0  0  0
    9.1957  -15.5249   24.1350 C   0  0  0  0  0  0  0  0  0  0  0  0
   10.3807  -15.1100   24.2070 O   0  0  0  0  0  0  0  0  0  0  0  0
    7.9070  -11.7566   25.6222 C   0  0  0  0  0  0  0  0  0  0  0  0
    6.9664  -12.9309   25.9571 C   0  0  2  0  0  0  0  0  0  0  0  0
    5.6680  -12.3274   26.4536 C   0  0  0  0  0  0  0  0  0  0  0  0
    7.5864  -13.8188   26.9832 C   0  0  0  0  0  0  0  0  0  0  0  0
    8.7369  -14.6310   26.4671 C   0  0  2  0  0  0  0  0  0  0  0  0
    8.3384  -15.3215   25.2281 N   0  0  0  0  0  0  0  0  0  0  0  0
    9.1305  -15.6736   27.4352 C   0  0  0  0  0  0  0  0  0  0  0  0
    8.9772  -17.0385   27.2552 O   0  0  0  0  0  0  0  0  0  0  0  0
    9.6538  -15.3314   28.5338 O   0  0  0  0  0  0  0  0  0  0  0  0
  1  2  1  0
  3  2  1  0
  4  3  1  0
  5  4  1  0
  5  1  1  0
  5  6  1  1
  7  6  2  0
  9  8  1  6
  9 10  1  0
 10  6  1  0
 11  9  1  0
 11 18  1  0
 12 11  2  0
 14 13  1  1
 14 16  1  0
 14 15  1  0
 17 18  1  0
 17 19  1  0
 17 16  1  1
 19 20  1  0
 21 19  2  0
M  END
$$$$
