PAL.pdb
     RDKit          3D

 21 21  0  0  1  0  0  0  0  0999 V2000
    8.6777  -14.7489   18.6492 N   0  0  0  0  0  0  0  0  0  0  0  0
    7.9749  -14.1377   17.5627 C   0  0  0  0  0  0  0  0  0  0  0  0
    8.0403  -12.6598   17.8936 C   0  0  0  0  0  0  0  0  0  0  0  0
    7.7548  -12.6934   19.3860 C   0  0  0  0  0  0  0  0  0  0  0  0
    8.5936  -13.8940   19.7927 C   0  0  1  0  0  0  0  0  0  0  0  0
    7.9939  -14.6396   20.9204 C   0  0  0  0  0  0  0  0  0  0  0  0
    6.9970  -14.1708   21.5243 O   0  0  0  0  0  0  0  0  0  0  0  0
    8.5219  -18.0100   22.4796 C   0  0  0  0  0  0  0  0  0  0  0  0
    8.0559  -16.5510   22.5730 C   0  0  2  0  0  0  0  0  0  0  0  0
    8.4885  -15.8925   21.3800 N   0  0  0  0  0  0  0  0  0  0  0  0
    8.7040  -15.9990   23.7956 C   0  0  0  0  0  0  0  0  0  0  0  0
    9.9119  -15.6572   23.7214 O   0  0  0  0  0  0  0  0  0  0  0  0
    8.1270  -12.1752   25.8417 C   0  0  0  0  0  0  0  0  0  0  0  0
    7.0769  -13.2856   26.0419 C   0  0  2  0  0  0  0  0  0  0  0  0
    5.8611  -12.6339   26.6694 C   0  0  0  0  0  0  0  0  0  0  0  0
    7.6248  -14.3712   26.9062 C   0  0  0  0  0  0  0  0  0  0  0  0
    8.6333  -15.2430   26.2187 C   0  0  2  0  0  0  0  0  0  0  0  0
    8.0295  -15.8451   25.0174 N   0  0  0  0  0  0  0  0  0  0  0  0
    9.0603  -16.3547   27.0911 C   0  0  0  0  0  0  0  0  0  0  0  0
    8.7510  -17.6914   26.9013 O   0  0  0  0  0  0  0  0  0  0  0  0
    9.7680  -16.1056   28.1084 O   0  0  0  0  0  0  0  0  0  0  0  0
  1  2  1  0
  3  2  1  0
  4  3  1  0
  5  4  1  0
  5  1  1  0
  5  6  1  1
  7  6  2  0
  9  8  1  6
  9 10  1  0
 10  6  1  0
 11  9  1  0
 11 18  1  0
 12 11  2  0
 14 13  1  1
 14 16  1  0
 14 15  1  0
 17 18  1  0
 17 19  1  0
 17 16  1  1
 19 20  1  0
 21 19  2  0
M  END
$$$$
