PAL.pdb
     RDKit          3D

 21 21  0  0  1  0  0  0  0  0999 V2000
    9.1637  -14.8896   18.1733 N   0  0  0  0  0  0  0  0  0  0  0  0
    8.4315  -14.9080   16.9440 C   0  0  0  0  0  0  0  0  0  0  0  0
    7.9505  -13.4772   16.8041 C   0  0  0  0  0  0  0  0  0  0  0  0
    7.5157  -13.1865   18.2311 C   0  0  0  0  0  0  0  0  0  0  0  0
    8.6571  -13.8357   18.9969 C   0  0  1  0  0  0  0  0  0  0  0  0
    8.2151  -14.3944   20.2930 C   0  0  0  0  0  0  0  0  0  0  0  0
    7.6132  -13.6643   21.1194 O   0  0  0  0  0  0  0  0  0  0  0  0
    8.5494  -17.7501   21.9685 C   0  0  0  0  0  0  0  0  0  0  0  0
    7.9461  -16.3420   21.8814 C   0  0  2  0  0  0  0  0  0  0  0  0
    8.4343  -15.7474   20.6763 N   0  0  0  0  0  0  0  0  0  0  0  0
    8.4160  -15.6266   23.1007 C   0  0  0  0  0  0  0  0  0  0  0  0
    9.6279  -15.2965   23.1624 O   0  0  0  0  0  0  0  0  0  0  0  0
    5.7270  -12.1625   27.4644 C   0  0  0  0  0  0  0  0  0  0  0  0
    7.0423  -12.7349   26.9001 C   0  0  2  0  0  0  0  0  0  0  0  0
    7.8978  -11.5524   26.4919 C   0  0  0  0  0  0  0  0  0  0  0  0
    6.7647  -13.6362   25.7441 C   0  0  0  0  0  0  0  0  0  0  0  0
    7.9569  -14.4251   25.2902 C   0  0  2  0  0  0  0  0  0  0  0  0
    7.5707  -15.3076   24.1755 N   0  0  0  0  0  0  0  0  0  0  0  0
    8.4658  -15.2921   26.3712 C   0  0  0  0  0  0  0  0  0  0  0  0
    8.0894  -16.6064   26.5937 O   0  0  0  0  0  0  0  0  0  0  0  0
    9.3174  -14.8316   27.1840 O   0  0  0  0  0  0  0  0  0  0  0  0
  1  2  1  0
  3  2  1  0
  4  3  1  0
  5  4  1  0
  5  1  1  0
  5  6  1  1
  7  6  2  0
  9  8  1  1
  9 10  1  0
 10  6  1  0
 11  9  1  0
 11 18  1  0
 12 11  2  0
 14 13  1  6
 14 16  1  0
 14 15  1  0
 17 18  1  0
 17 19  1  0
 17 16  1  1
 19 20  1  0
 21 19  2  0
M  END
$$$$
