PAL.pdb
     RDKit          3D

 21 21  0  0  1  0  0  0  0  0999 V2000
    8.0977  -14.7453   18.4743 N   0  0  0  0  0  0  0  0  0  0  0  0
    7.3741  -13.7003   17.8168 C   0  0  0  0  0  0  0  0  0  0  0  0
    8.0726  -12.4416   18.2916 C   0  0  0  0  0  0  0  0  0  0  0  0
    8.2607  -12.7636   19.7650 C   0  0  0  0  0  0  0  0  0  0  0  0
    8.6826  -14.2209   19.6694 C   0  0  1  0  0  0  0  0  0  0  0  0
    8.2231  -15.0138   20.8302 C   0  0  0  0  0  0  0  0  0  0  0  0
    6.9961  -15.1029   21.0843 O   0  0  0  0  0  0  0  0  0  0  0  0
    9.4111  -17.7592   22.8790 C   0  0  0  0  0  0  0  0  0  0  0  0
    8.7080  -16.3954   22.8904 C   0  0  2  0  0  0  0  0  0  0  0  0
    9.1086  -15.7039   21.7050 N   0  0  0  0  0  0  0  0  0  0  0  0
    9.1713  -15.7141   24.1316 C   0  0  0  0  0  0  0  0  0  0  0  0
   10.3675  -15.3294   24.1836 O   0  0  0  0  0  0  0  0  0  0  0  0
    8.0108  -11.8488   25.5931 C   0  0  0  0  0  0  0  0  0  0  0  0
    7.0350  -13.0009   25.9037 C   0  0  2  0  0  0  0  0  0  0  0  0
    5.7421  -12.3675   26.3769 C   0  0  0  0  0  0  0  0  0  0  0  0
    7.6123  -13.9079   26.9379 C   0  0  0  0  0  0  0  0  0  0  0  0
    8.7532  -14.7455   26.4415 C   0  0  2  0  0  0  0  0  0  0  0  0
    8.3366  -15.4848   25.2371 N   0  0  0  0  0  0  0  0  0  0  0  0
    9.1552  -15.7490   27.4468 C   0  0  0  0  0  0  0  0  0  0  0  0
    8.9573  -17.1160   27.3435 O   0  0  0  0  0  0  0  0  0  0  0  0
    9.7301  -15.3672   28.5058 O   0  0  0  0  0  0  0  0  0  0  0  0
  1  2  1  0
  3  2  1  0
  4  3  1  0
  5  4  1  0
  5  1  1  0
  5  6  1  1
  7  6  2  0
  9  8  1  6
  9 10  1  0
 10  6  1  0
 11  9  1  0
 11 18  1  0
 12 11  2  0
 14 13  1  1
 14 16  1  0
 14 15  1  0
 17 18  1  0
 17 19  1  0
 17 16  1  1
 19 20  1  0
 21 19  2  0
M  END
$$$$
