PAL.pdb
     RDKit          3D

 21 21  0  0  1  0  0  0  0  0999 V2000
    8.7769  -14.8141   18.7187 N   0  0  0  0  0  0  0  0  0  0  0  0
    7.8907  -14.6385   17.6089 C   0  0  0  0  0  0  0  0  0  0  0  0
    7.7048  -13.1353   17.5466 C   0  0  0  0  0  0  0  0  0  0  0  0
    7.5467  -12.8106   19.0230 C   0  0  0  0  0  0  0  0  0  0  0  0
    8.6235  -13.7075   19.6118 C   0  0  1  0  0  0  0  0  0  0  0  0
    8.2623  -14.2073   20.9560 C   0  0  0  0  0  0  0  0  0  0  0  0
    7.9952  -13.3961   21.8772 O   0  0  0  0  0  0  0  0  0  0  0  0
    7.9316  -17.6317   22.4913 C   0  0  0  0  0  0  0  0  0  0  0  0
    7.7300  -16.1111   22.5310 C   0  0  2  0  0  0  0  0  0  0  0  0
    8.1955  -15.5908   21.2834 N   0  0  0  0  0  0  0  0  0  0  0  0
    8.5368  -15.6281   23.6865 C   0  0  0  0  0  0  0  0  0  0  0  0
    9.7847  -15.5571   23.5477 O   0  0  0  0  0  0  0  0  0  0  0  0
    7.6323  -11.8693   24.7858 C   0  0  0  0  0  0  0  0  0  0  0  0
    6.9868  -12.9315   25.6973 C   0  0  2  0  0  0  0  0  0  0  0  0
    5.8781  -12.2388   26.4639 C   0  0  0  0  0  0  0  0  0  0  0  0
    8.0054  -13.5181   26.6160 C   0  0  0  0  0  0  0  0  0  0  0  0
    8.7387  -14.6921   26.0384 C   0  0  2  0  0  0  0  0  0  0  0  0
    7.9686  -15.2517   24.9140 N   0  0  0  0  0  0  0  0  0  0  0  0
    8.8910  -15.7693   27.0362 C   0  0  0  0  0  0  0  0  0  0  0  0
    9.7339  -15.7356   28.1348 O   0  0  0  0  0  0  0  0  0  0  0  0
    8.2128  -16.8286   26.9109 O   0  0  0  0  0  0  0  0  0  0  0  0
  1  2  1  0
  3  2  1  0
  4  3  1  0
  5  4  1  0
  5  1  1  0
  5  6  1  1
  7  6  2  0
  9  8  1  6
  9 10  1  0
 10  6  1  0
 11  9  1  0
 11 18  1  0
 12 11  2  0
 14 13  1  6
 14 16  1  0
 14 15  1  0
 17 18  1  0
 17 19  1  0
 17 16  1  1
 19 20  1  0
 21 19  2  0
M  END
$$$$
