PAL.pdb
     RDKit          3D

 21 21  0  0  1  0  0  0  0  0999 V2000
    9.5087  -14.1912   19.3361 N   0  0  0  0  0  0  0  0  0  0  0  0
    9.3249  -14.2685   17.9190 C   0  0  0  0  0  0  0  0  0  0  0  0
    8.3892  -13.1124   17.6260 C   0  0  0  0  0  0  0  0  0  0  0  0
    7.4069  -13.2474   18.7778 C   0  0  0  0  0  0  0  0  0  0  0  0
    8.3678  -13.5524   19.9156 C   0  0  1  0  0  0  0  0  0  0  0  0
    7.7678  -14.4449   20.9308 C   0  0  0  0  0  0  0  0  0  0  0  0
    6.6600  -14.1543   21.4470 O   0  0  0  0  0  0  0  0  0  0  0  0
    8.4584  -17.9342   22.0572 C   0  0  0  0  0  0  0  0  0  0  0  0
    7.7993  -16.5698   22.2990 C   0  0  2  0  0  0  0  0  0  0  0  0
    8.3834  -15.6490   21.3745 N   0  0  0  0  0  0  0  0  0  0  0  0
    8.1007  -16.2228   23.7162 C   0  0  0  0  0  0  0  0  0  0  0  0
    7.6635  -16.9836   24.6170 O   0  0  0  0  0  0  0  0  0  0  0  0
    5.5732  -12.4444   26.6064 C   0  0  0  0  0  0  0  0  0  0  0  0
    6.9961  -13.0346   26.6617 C   0  0  2  0  0  0  0  0  0  0  0  0
    7.9301  -11.8986   27.0275 C   0  0  0  0  0  0  0  0  0  0  0  0
    7.3594  -13.6423   25.3485 C   0  0  0  0  0  0  0  0  0  0  0  0
    8.6694  -14.3728   25.3600 C   0  0  2  0  0  0  0  0  0  0  0  0
    8.8459  -15.0918   24.0863 N   0  0  0  0  0  0  0  0  0  0  0  0
    8.7072  -15.3833   26.4354 C   0  0  0  0  0  0  0  0  0  0  0  0
    9.5788  -15.3810   27.5120 O   0  0  0  0  0  0  0  0  0  0  0  0
    7.8917  -16.3486   26.4057 O   0  0  0  0  0  0  0  0  0  0  0  0
  1  2  1  0
  3  2  1  0
  4  3  1  0
  5  4  1  0
  5  1  1  0
  5  6  1  1
  7  6  2  0
  9  8  1  6
  9 10  1  0
 10  6  1  0
 11  9  1  0
 11 18  1  0
 12 11  2  0
 14 13  1  6
 14 16  1  0
 14 15  1  0
 17 18  1  0
 17 19  1  0
 17 16  1  6
 19 20  1  0
 21 19  2  0
M  END
$$$$
