PAL.pdb
     RDKit          3D

 21 21  0  0  1  0  0  0  0  0999 V2000
    7.2947  -14.6465   21.0460 N   0  0  0  0  0  0  0  0  0  0  0  0
    7.3092  -14.4678   19.6262 C   0  0  0  0  0  0  0  0  0  0  0  0
    6.4512  -15.6116   19.1228 C   0  0  0  0  0  0  0  0  0  0  0  0
    6.9532  -16.7464   20.0004 C   0  0  0  0  0  0  0  0  0  0  0  0
    7.0584  -16.0271   21.3353 C   0  0  1  0  0  0  0  0  0  0  0  0
    8.1629  -16.5506   22.1678 C   0  0  0  0  0  0  0  0  0  0  0  0
    8.0862  -17.7036   22.6607 O   0  0  0  0  0  0  0  0  0  0  0  0
   11.6873  -15.5158   22.7945 C   0  0  0  0  0  0  0  0  0  0  0  0
   10.4405  -16.2951   23.2334 C   0  0  2  0  0  0  0  0  0  0  0  0
    9.3437  -15.8099   22.4554 N   0  0  0  0  0  0  0  0  0  0  0  0
   10.2785  -16.0099   24.6867 C   0  0  0  0  0  0  0  0  0  0  0  0
   11.2632  -16.2123   25.4422 O   0  0  0  0  0  0  0  0  0  0  0  0
    8.4141  -12.2000   26.5818 C   0  0  0  0  0  0  0  0  0  0  0  0
    7.4512  -13.2927   26.0771 C   0  0  2  0  0  0  0  0  0  0  0  0
    6.0496  -12.7248   26.1765 C   0  0  0  0  0  0  0  0  0  0  0  0
    7.5991  -14.5340   26.8913 C   0  0  0  0  0  0  0  0  0  0  0  0
    8.9016  -15.2469   26.6792 C   0  0  2  0  0  0  0  0  0  0  0  0
    9.0833  -15.5287   25.2446 N   0  0  0  0  0  0  0  0  0  0  0  0
    8.9190  -16.5459   27.3802 C   0  0  0  0  0  0  0  0  0  0  0  0
    9.2517  -16.7381   28.7110 O   0  0  0  0  0  0  0  0  0  0  0  0
    8.6116  -17.5951   26.7457 O   0  0  0  0  0  0  0  0  0  0  0  0
  1  2  1  0
  3  2  1  0
  4  3  1  0
  5  4  1  0
  5  1  1  0
  5  6  1  1
  7  6  2  0
  9  8  1  6
  9 10  1  0
 10  6  1  0
 11  9  1  0
 11 18  1  0
 12 11  2  0
 14 13  1  1
 14 16  1  0
 14 15  1  0
 17 18  1  0
 17 19  1  0
 17 16  1  6
 19 20  1  0
 21 19  2  0
M  END
$$$$
