PAL.pdb
     RDKit          3D

 21 21  0  0  1  0  0  0  0  0999 V2000
    6.3701  -17.0022   21.0281 N   0  0  0  0  0  0  0  0  0  0  0  0
    5.9743  -16.6809   19.6910 C   0  0  0  0  0  0  0  0  0  0  0  0
    6.1432  -17.9943   18.9531 C   0  0  0  0  0  0  0  0  0  0  0  0
    7.4692  -18.4688   19.5245 C   0  0  0  0  0  0  0  0  0  0  0  0
    7.2744  -18.1096   20.9887 C   0  0  1  0  0  0  0  0  0  0  0  0
    8.5440  -17.7308   21.6457 C   0  0  0  0  0  0  0  0  0  0  0  0
    9.3502  -18.6206   22.0153 O   0  0  0  0  0  0  0  0  0  0  0  0
   10.6243  -14.7113   21.7930 C   0  0  0  0  0  0  0  0  0  0  0  0
   10.1485  -15.9805   22.5121 C   0  0  2  0  0  0  0  0  0  0  0  0
    8.9233  -16.3817   21.8941 N   0  0  0  0  0  0  0  0  0  0  0  0
    9.9664  -15.5907   23.9384 C   0  0  0  0  0  0  0  0  0  0  0  0
   10.9938  -15.3384   24.6182 O   0  0  0  0  0  0  0  0  0  0  0  0
    5.7383  -12.5638   26.2400 C   0  0  0  0  0  0  0  0  0  0  0  0
    7.1458  -13.1528   26.4593 C   0  0  2  0  0  0  0  0  0  0  0  0
    8.0817  -12.4182   25.5206 C   0  0  0  0  0  0  0  0  0  0  0  0
    7.1434  -14.6208   26.1937 C   0  0  0  0  0  0  0  0  0  0  0  0
    8.5101  -15.2011   25.9818 C   0  0  2  0  0  0  0  0  0  0  0  0
    8.7070  -15.4937   24.5514 N   0  0  0  0  0  0  0  0  0  0  0  0
    8.6668  -16.4762   26.7091 C   0  0  0  0  0  0  0  0  0  0  0  0
    9.1304  -16.6107   28.0074 O   0  0  0  0  0  0  0  0  0  0  0  0
    8.3640  -17.5589   26.1312 O   0  0  0  0  0  0  0  0  0  0  0  0
  1  2  1  0
  3  2  1  0
  4  3  1  0
  5  4  1  0
  5  1  1  0
  5  6  1  6
  7  6  2  0
  9  8  1  6
  9 10  1  0
 10  6  1  0
 11  9  1  0
 11 18  1  0
 12 11  2  0
 14 13  1  6
 14 16  1  0
 14 15  1  0
 17 18  1  0
 17 19  1  0
 17 16  1  6
 19 20  1  0
 21 19  2  0
M  END
$$$$
