PAL.pdb
     RDKit          3D

 21 21  0  0  1  0  0  0  0  0999 V2000
    5.3287  -18.3694   22.7672 N   0  0  0  0  0  0  0  0  0  0  0  0
    3.9556  -18.0304   22.5495 C   0  0  0  0  0  0  0  0  0  0  0  0
    3.6917  -18.5330   21.1439 C   0  0  0  0  0  0  0  0  0  0  0  0
    4.9633  -18.0848   20.4423 C   0  0  0  0  0  0  0  0  0  0  0  0
    5.9936  -18.4378   21.5027 C   0  0  1  0  0  0  0  0  0  0  0  0
    7.1414  -17.5052   21.5002 C   0  0  0  0  0  0  0  0  0  0  0  0
    8.2950  -17.9293   21.2402 O   0  0  0  0  0  0  0  0  0  0  0  0
    7.5017  -13.8245   21.3199 C   0  0  0  0  0  0  0  0  0  0  0  0
    8.0973  -15.1770   21.7329 C   0  0  2  0  0  0  0  0  0  0  0  0
    7.0198  -16.1154   21.7818 N   0  0  0  0  0  0  0  0  0  0  0  0
    8.7184  -14.9523   23.0683 C   0  0  0  0  0  0  0  0  0  0  0  0
    9.8435  -14.3923   23.1103 O   0  0  0  0  0  0  0  0  0  0  0  0
    8.4577  -12.0719   26.0489 C   0  0  0  0  0  0  0  0  0  0  0  0
    7.3225  -13.1106   25.9578 C   0  0  2  0  0  0  0  0  0  0  0  0
    6.1530  -12.5551   26.7454 C   0  0  0  0  0  0  0  0  0  0  0  0
    7.7743  -14.4249   26.5002 C   0  0  0  0  0  0  0  0  0  0  0  0
    8.7220  -15.1595   25.5991 C   0  0  2  0  0  0  0  0  0  0  0  0
    8.1064  -15.3360   24.2723 N   0  0  0  0  0  0  0  0  0  0  0  0
    9.0170  -16.5084   26.1213 C   0  0  0  0  0  0  0  0  0  0  0  0
    8.7689  -17.6998   25.4597 O   0  0  0  0  0  0  0  0  0  0  0  0
    9.5393  -16.6276   27.2662 O   0  0  0  0  0  0  0  0  0  0  0  0
  1  2  1  0
  3  2  1  0
  4  3  1  0
  5  4  1  0
  5  1  1  0
  5  6  1  1
  7  6  2  0
  9  8  1  1
  9 10  1  0
 10  6  1  0
 11  9  1  0
 11 18  1  0
 12 11  2  0
 14 13  1  1
 14 16  1  0
 14 15  1  0
 17 18  1  0
 17 19  1  0
 17 16  1  1
 19 20  1  0
 21 19  2  0
M  END
$$$$
