DHE.pdb
     RDKit          3D

 28 28  0  0  1  0  0  0  0  0999 V2000
    9.5888  -17.9094   17.2979 N   0  0  0  0  0  0  0  0  0  0  0  0
   10.8351  -17.1984   17.1950 C   0  0  1  0  0  0  0  0  0  0  0  0
   10.7115  -16.2452   16.0005 C   0  0  0  0  0  0  0  0  0  0  0  0
   10.6356  -17.0433   14.7585 C   0  0  0  0  0  0  0  0  0  0  0  0
   10.4769  -18.2791   14.8353 O   0  0  0  0  0  0  0  0  0  0  0  0
   11.0740  -16.3809   18.4435 C   0  0  0  0  0  0  0  0  0  0  0  0
   12.0988  -15.6795   18.5577 O   0  0  0  0  0  0  0  0  0  0  0  0
   10.7366  -16.4538   13.4921 O   0  0  0  0  0  0  0  0  0  0  0  0
   10.1121  -16.4249   19.4841 N   0  0  0  0  0  0  0  0  0  0  0  0
   10.1633  -15.6997   20.7053 C   0  0  1  0  0  0  0  0  0  0  0  0
    8.8461  -15.0831   21.1575 C   0  0  0  0  0  0  0  0  0  0  0  0
    8.2512  -14.2337   20.0969 C   0  0  0  0  0  0  0  0  0  0  0  0
    8.3792  -12.9149   19.7771 C   0  0  0  0  0  0  0  0  0  0  0  0
    7.6258  -12.5902   18.6885 N   0  0  0  0  0  0  0  0  0  0  0  0
    7.0187  -13.7277   18.3248 C   0  0  0  0  0  0  0  0  0  0  0  0
    7.3765  -14.7201   19.1496 N   0  0  0  0  0  0  0  0  0  0  0  0
   10.9002  -16.3776   21.7837 C   0  0  0  0  0  0  0  0  0  0  0  0
   10.5509  -17.5499   22.1567 O   0  0  0  0  0  0  0  0  0  0  0  0
   12.0093  -15.7816   22.4493 N   0  0  0  0  0  0  0  0  0  0  0  0
   12.7149  -16.3965   23.5227 C   0  0  1  0  0  0  0  0  0  0  0  0
   14.0850  -15.8838   23.7559 C   0  0  0  0  0  0  0  0  0  0  0  0
   15.0207  -16.0541   22.5932 C   0  0  0  0  0  0  0  0  0  0  0  0
   16.3785  -15.5615   22.8242 C   0  0  0  0  0  0  0  0  0  0  0  0
   16.8730  -14.7842   21.9510 O   0  0  0  0  0  0  0  0  0  0  0  0
   11.8663  -16.3704   24.7450 C   0  0  0  0  0  0  0  0  0  0  0  0
   12.1229  -17.1648   25.8523 O   0  0  0  0  0  0  0  0  0  0  0  0
   17.1815  -15.8612   23.9095 O   0  0  0  0  0  0  0  0  0  0  0  0
   10.8835  -15.6031   24.7765 O   0  0  0  0  0  0  0  0  0  0  0  0
  2  1  1  1
  2  3  1  0
  2  6  1  0
  3  4  1  0
  4  8  1  0
  4  5  2  0
  6  7  2  0
  9  6  1  0
  9 10  1  0
 10 11  1  1
 11 12  1  0
 12 16  1  0
 13 14  1  0
 13 12  2  0
 14 15  1  0
 15 16  2  0
 17 10  1  0
 17 18  2  0
 19 17  1  0
 20 19  1  0
 20 21  1  1
 22 23  1  0
 22 21  1  0
 23 24  2  0
 25 20  1  0
 26 25  1  0
 27 23  1  0
 28 25  2  0
M  END
$$$$
