DHE.pdb
     RDKit          3D

 28 28  0  0  1  0  0  0  0  0999 V2000
   11.2969  -14.4620   17.2197 N   0  0  0  0  0  0  0  0  0  0  0  0
   11.9011  -15.7650   17.1396 C   0  0  1  0  0  0  0  0  0  0  0  0
   12.2016  -16.0310   15.6598 C   0  0  0  0  0  0  0  0  0  0  0  0
   10.9475  -15.9048   14.8876 C   0  0  0  0  0  0  0  0  0  0  0  0
    9.8530  -15.9925   15.4815 O   0  0  0  0  0  0  0  0  0  0  0  0
   13.2020  -15.7851   17.9086 C   0  0  0  0  0  0  0  0  0  0  0  0
   13.9009  -16.8171   17.9488 O   0  0  0  0  0  0  0  0  0  0  0  0
   10.9484  -15.6888   13.5038 O   0  0  0  0  0  0  0  0  0  0  0  0
   13.6149  -14.6092   18.5845 N   0  0  0  0  0  0  0  0  0  0  0  0
   14.8343  -14.4330   19.2931 C   0  0  1  0  0  0  0  0  0  0  0  0
   15.7344  -13.3160   18.7816 C   0  0  0  0  0  0  0  0  0  0  0  0
   16.5579  -13.7649   17.6323 C   0  0  0  0  0  0  0  0  0  0  0  0
   17.2494  -14.9103   17.3716 C   0  0  0  0  0  0  0  0  0  0  0  0
   17.8548  -14.8606   16.1513 N   0  0  0  0  0  0  0  0  0  0  0  0
   17.5337  -13.6629   15.6441 C   0  0  0  0  0  0  0  0  0  0  0  0
   16.7616  -12.9929   16.5092 N   0  0  0  0  0  0  0  0  0  0  0  0
   14.6943  -14.4560   20.7578 C   0  0  0  0  0  0  0  0  0  0  0  0
   14.0844  -13.5043   21.3559 O   0  0  0  0  0  0  0  0  0  0  0  0
   15.2150  -15.5088   21.5633 N   0  0  0  0  0  0  0  0  0  0  0  0
   15.0691  -15.5720   22.9785 C   0  0  1  0  0  0  0  0  0  0  0  0
   14.0222  -16.4997   23.4663 C   0  0  0  0  0  0  0  0  0  0  0  0
   14.3958  -17.9530   23.3978 C   0  0  0  0  0  0  0  0  0  0  0  0
   13.3759  -18.8708   23.9045 C   0  0  0  0  0  0  0  0  0  0  0  0
   12.1637  -18.5080   23.8045 O   0  0  0  0  0  0  0  0  0  0  0  0
   16.4001  -15.8169   23.5975 C   0  0  0  0  0  0  0  0  0  0  0  0
   16.6445  -15.6256   24.9490 O   0  0  0  0  0  0  0  0  0  0  0  0
   13.6050  -20.1049   24.4853 O   0  0  0  0  0  0  0  0  0  0  0  0
   17.3355  -16.2105   22.8722 O   0  0  0  0  0  0  0  0  0  0  0  0
  2  1  1  6
  2  3  1  0
  2  6  1  0
  3  4  1  0
  4  8  1  0
  4  5  2  0
  6  7  2  0
  9  6  1  0
  9 10  1  0
 10 11  1  1
 11 12  1  0
 12 16  1  0
 13 14  1  0
 13 12  2  0
 14 15  1  0
 15 16  2  0
 17 10  1  0
 17 18  2  0
 19 17  1  0
 20 19  1  0
 20 21  1  6
 22 23  1  0
 22 21  1  0
 23 24  2  0
 25 20  1  0
 26 25  1  0
 27 23  1  0
 28 25  2  0
M  END
$$$$
