DHE.pdb
     RDKit          3D

 28 28  0  0  1  0  0  0  0  0999 V2000
    9.6493  -17.1542   16.6503 N   0  0  0  0  0  0  0  0  0  0  0  0
   10.1012  -17.9743   17.7425 C   0  0  1  0  0  0  0  0  0  0  0  0
   11.3508  -18.7191   17.2584 C   0  0  0  0  0  0  0  0  0  0  0  0
   10.9746  -19.6031   16.1350 C   0  0  0  0  0  0  0  0  0  0  0  0
    9.8406  -20.1249   16.1215 O   0  0  0  0  0  0  0  0  0  0  0  0
   10.4804  -17.1093   18.9223 C   0  0  0  0  0  0  0  0  0  0  0  0
   11.5729  -16.5085   18.9452 O   0  0  0  0  0  0  0  0  0  0  0  0
   11.8546  -19.8753   15.0799 O   0  0  0  0  0  0  0  0  0  0  0  0
    9.5716  -16.9921   20.0043 N   0  0  0  0  0  0  0  0  0  0  0  0
    9.7506  -16.1956   21.1678 C   0  0  1  0  0  0  0  0  0  0  0  0
    8.4879  -15.5453   21.7177 C   0  0  0  0  0  0  0  0  0  0  0  0
    7.8475  -14.6643   20.7105 C   0  0  0  0  0  0  0  0  0  0  0  0
    6.6459  -14.7020   20.0682 C   0  0  0  0  0  0  0  0  0  0  0  0
    6.4994  -13.6436   19.2218 N   0  0  0  0  0  0  0  0  0  0  0  0
    7.6302  -12.9351   19.3401 C   0  0  0  0  0  0  0  0  0  0  0  0
    8.4480  -13.5244   20.2217 N   0  0  0  0  0  0  0  0  0  0  0  0
   10.5966  -16.8125   22.2018 C   0  0  0  0  0  0  0  0  0  0  0  0
   10.3391  -17.9947   22.6159 O   0  0  0  0  0  0  0  0  0  0  0  0
   11.7147  -16.1453   22.7788 N   0  0  0  0  0  0  0  0  0  0  0  0
   12.7163  -16.7983   23.5524 C   0  0  1  0  0  0  0  0  0  0  0  0
   14.0924  -16.2795   23.3742 C   0  0  0  0  0  0  0  0  0  0  0  0
   15.1375  -16.9931   24.1835 C   0  0  0  0  0  0  0  0  0  0  0  0
   16.4799  -16.4198   24.0898 C   0  0  0  0  0  0  0  0  0  0  0  0
   17.3877  -16.9411   24.8075 O   0  0  0  0  0  0  0  0  0  0  0  0
   12.2873  -16.8368   24.9769 C   0  0  0  0  0  0  0  0  0  0  0  0
   12.7198  -17.8113   25.8636 O   0  0  0  0  0  0  0  0  0  0  0  0
   16.8596  -15.3582   23.2889 O   0  0  0  0  0  0  0  0  0  0  0  0
   11.5065  -15.9571   25.3920 O   0  0  0  0  0  0  0  0  0  0  0  0
  2  1  1  6
  2  3  1  0
  2  6  1  0
  3  4  1  0
  4  8  1  0
  4  5  2  0
  6  7  2  0
  9  6  1  0
  9 10  1  0
 10 11  1  1
 11 12  1  0
 12 16  1  0
 13 14  1  0
 13 12  2  0
 14 15  1  0
 15 16  2  0
 17 10  1  0
 17 18  2  0
 19 17  1  0
 20 19  1  0
 20 21  1  1
 22 23  1  0
 22 21  1  0
 23 24  2  0
 25 20  1  0
 26 25  1  0
 27 23  1  0
 28 25  2  0
M  END
$$$$
