DHE.pdb
     RDKit          3D

 28 28  0  0  1  0  0  0  0  0999 V2000
   10.9671  -16.8649   16.1612 N   0  0  0  0  0  0  0  0  0  0  0  0
   12.0947  -15.9724   16.1990 C   0  0  1  0  0  0  0  0  0  0  0  0
   11.8525  -14.8967   15.1336 C   0  0  0  0  0  0  0  0  0  0  0  0
   11.7607  -15.5480   13.8097 C   0  0  0  0  0  0  0  0  0  0  0  0
   10.8232  -15.2448   13.0434 O   0  0  0  0  0  0  0  0  0  0  0  0
   12.1848  -15.3026   17.5508 C   0  0  0  0  0  0  0  0  0  0  0  0
   13.1021  -14.4955   17.8006 O   0  0  0  0  0  0  0  0  0  0  0  0
   12.6972  -16.4993   13.3859 O   0  0  0  0  0  0  0  0  0  0  0  0
   11.2075  -15.6076   18.5315 N   0  0  0  0  0  0  0  0  0  0  0  0
   11.1776  -15.1202   19.8663 C   0  0  1  0  0  0  0  0  0  0  0  0
    9.7895  -14.9016   20.4536 C   0  0  0  0  0  0  0  0  0  0  0  0
    8.9575  -14.0420   19.5764 C   0  0  0  0  0  0  0  0  0  0  0  0
    8.8152  -12.6916   19.4576 C   0  0  0  0  0  0  0  0  0  0  0  0
    7.9206  -12.3683   18.4813 N   0  0  0  0  0  0  0  0  0  0  0  0
    7.4992  -13.5387   17.9840 C   0  0  0  0  0  0  0  0  0  0  0  0
    8.1037  -14.5496   18.6213 N   0  0  0  0  0  0  0  0  0  0  0  0
   12.1069  -15.8007   20.7822 C   0  0  0  0  0  0  0  0  0  0  0  0
   12.0823  -17.0751   20.8862 O   0  0  0  0  0  0  0  0  0  0  0  0
   13.0555  -15.0967   21.5778 N   0  0  0  0  0  0  0  0  0  0  0  0
   14.1397  -15.7208   22.2584 C   0  0  1  0  0  0  0  0  0  0  0  0
   15.4535  -15.0549   22.1008 C   0  0  0  0  0  0  0  0  0  0  0  0
   16.5955  -15.7619   22.7734 C   0  0  0  0  0  0  0  0  0  0  0  0
   17.8993  -15.1229   22.5963 C   0  0  0  0  0  0  0  0  0  0  0  0
   18.0344  -13.9412   23.0394 O   0  0  0  0  0  0  0  0  0  0  0  0
   13.7634  -15.9395   23.6815 C   0  0  0  0  0  0  0  0  0  0  0  0
   12.5718  -15.4789   24.2208 O   0  0  0  0  0  0  0  0  0  0  0  0
   19.0077  -15.6852   21.9896 O   0  0  0  0  0  0  0  0  0  0  0  0
   14.5512  -16.5627   24.4211 O   0  0  0  0  0  0  0  0  0  0  0  0
  2  1  1  1
  2  3  1  0
  2  6  1  0
  3  4  1  0
  4  8  1  0
  4  5  2  0
  6  7  2  0
  9  6  1  0
  9 10  1  0
 10 11  1  1
 11 12  1  0
 12 16  1  0
 13 14  1  0
 13 12  2  0
 14 15  1  0
 15 16  2  0
 17 10  1  0
 17 18  2  0
 19 17  1  0
 20 19  1  0
 20 21  1  1
 22 23  1  0
 22 21  1  0
 23 24  2  0
 25 20  1  0
 26 25  1  0
 27 23  1  0
 28 25  2  0
M  END
$$$$
