DHE.pdb
     RDKit          3D

 28 28  0  0  1  0  0  0  0  0999 V2000
   12.4333  -15.3700   15.4213 N   0  0  0  0  0  0  0  0  0  0  0  0
   12.0227  -16.2546   16.4789 C   0  0  1  0  0  0  0  0  0  0  0  0
   13.0517  -17.3896   16.5405 C   0  0  0  0  0  0  0  0  0  0  0  0
   12.9625  -18.1830   15.2965 C   0  0  0  0  0  0  0  0  0  0  0  0
   13.7672  -17.9576   14.3691 O   0  0  0  0  0  0  0  0  0  0  0  0
   12.0286  -15.5241   17.8019 C   0  0  0  0  0  0  0  0  0  0  0  0
   12.8864  -14.6515   18.0426 O   0  0  0  0  0  0  0  0  0  0  0  0
   11.9989  -19.1848   15.1244 O   0  0  0  0  0  0  0  0  0  0  0  0
   11.0409  -15.8480   18.7661 N   0  0  0  0  0  0  0  0  0  0  0  0
   10.9168  -15.2805   20.0633 C   0  0  1  0  0  0  0  0  0  0  0  0
    9.4956  -14.9542   20.5030 C   0  0  0  0  0  0  0  0  0  0  0  0
    8.8116  -14.0757   19.5227 C   0  0  0  0  0  0  0  0  0  0  0  0
    8.7588  -12.7233   19.3605 C   0  0  0  0  0  0  0  0  0  0  0  0
    7.9932  -12.3794   18.2864 N   0  0  0  0  0  0  0  0  0  0  0  0
    7.5625  -13.5388   17.7714 C   0  0  0  0  0  0  0  0  0  0  0  0
    8.0377  -14.5628   18.4918 N   0  0  0  0  0  0  0  0  0  0  0  0
   11.7168  -15.9530   21.0993 C   0  0  0  0  0  0  0  0  0  0  0  0
   11.4981  -17.1818   21.3776 O   0  0  0  0  0  0  0  0  0  0  0  0
   12.7473  -15.2902   21.8255 N   0  0  0  0  0  0  0  0  0  0  0  0
   13.8446  -15.9608   22.4373 C   0  0  1  0  0  0  0  0  0  0  0  0
   15.1582  -15.2926   22.2874 C   0  0  0  0  0  0  0  0  0  0  0  0
   16.2959  -15.9926   22.9745 C   0  0  0  0  0  0  0  0  0  0  0  0
   17.6085  -15.3856   22.7557 C   0  0  0  0  0  0  0  0  0  0  0  0
   17.6736  -14.1180   22.7663 O   0  0  0  0  0  0  0  0  0  0  0  0
   13.5037  -16.2665   23.8533 C   0  0  0  0  0  0  0  0  0  0  0  0
   12.3114  -15.8694   24.4394 O   0  0  0  0  0  0  0  0  0  0  0  0
   18.7945  -16.0628   22.5379 O   0  0  0  0  0  0  0  0  0  0  0  0
   14.3232  -16.9062   24.5427 O   0  0  0  0  0  0  0  0  0  0  0  0
  2  1  1  6
  2  3  1  0
  2  6  1  0
  3  4  1  0
  4  8  1  0
  4  5  2  0
  6  7  2  0
  9  6  1  0
  9 10  1  0
 10 11  1  1
 11 12  1  0
 12 16  1  0
 13 14  1  0
 13 12  2  0
 14 15  1  0
 15 16  2  0
 17 10  1  0
 17 18  2  0
 19 17  1  0
 20 19  1  0
 20 21  1  1
 22 23  1  0
 22 21  1  0
 23 24  2  0
 25 20  1  0
 26 25  1  0
 27 23  1  0
 28 25  2  0
M  END
$$$$
