DHE.pdb
     RDKit          3D

 28 28  0  0  1  0  0  0  0  0999 V2000
   12.4492  -16.7192   16.8684 N   0  0  0  0  0  0  0  0  0  0  0  0
   13.1738  -15.5516   17.2938 C   0  0  1  0  0  0  0  0  0  0  0  0
   12.9693  -14.4788   16.2176 C   0  0  0  0  0  0  0  0  0  0  0  0
   13.5355  -14.9674   14.9426 C   0  0  0  0  0  0  0  0  0  0  0  0
   14.5378  -15.7112   14.9644 O   0  0  0  0  0  0  0  0  0  0  0  0
   12.6152  -15.0382   18.6008 C   0  0  0  0  0  0  0  0  0  0  0  0
   13.1520  -14.0781   19.1884 O   0  0  0  0  0  0  0  0  0  0  0  0
   12.9802  -14.6205   13.7044 O   0  0  0  0  0  0  0  0  0  0  0  0
   11.4688  -15.6674   19.1486 N   0  0  0  0  0  0  0  0  0  0  0  0
   10.9145  -15.4280   20.4353 C   0  0  1  0  0  0  0  0  0  0  0  0
    9.3935  -15.3771   20.4948 C   0  0  0  0  0  0  0  0  0  0  0  0
    8.8473  -14.3546   19.5693 C   0  0  0  0  0  0  0  0  0  0  0  0
    8.2725  -14.4257   18.3354 C   0  0  0  0  0  0  0  0  0  0  0  0
    7.9129  -13.1919   17.8809 N   0  0  0  0  0  0  0  0  0  0  0  0
    8.2704  -12.3384   18.8497 C   0  0  0  0  0  0  0  0  0  0  0  0
    8.8291  -13.0089   19.8654 N   0  0  0  0  0  0  0  0  0  0  0  0
   11.5226  -16.2210   21.5155 C   0  0  0  0  0  0  0  0  0  0  0  0
   11.4356  -17.4968   21.4977 O   0  0  0  0  0  0  0  0  0  0  0  0
   12.2202  -15.6271   22.6059 N   0  0  0  0  0  0  0  0  0  0  0  0
   13.1564  -16.3230   23.4228 C   0  0  1  0  0  0  0  0  0  0  0  0
   14.5546  -15.8417   23.3340 C   0  0  0  0  0  0  0  0  0  0  0  0
   15.5360  -16.6207   24.1625 C   0  0  0  0  0  0  0  0  0  0  0  0
   16.9035  -16.1023   24.1382 C   0  0  0  0  0  0  0  0  0  0  0  0
   17.6414  -16.3571   25.1390 O   0  0  0  0  0  0  0  0  0  0  0  0
   12.6446  -16.3742   24.8193 C   0  0  0  0  0  0  0  0  0  0  0  0
   11.5253  -15.6682   25.2334 O   0  0  0  0  0  0  0  0  0  0  0  0
   17.4756  -15.3570   23.1233 O   0  0  0  0  0  0  0  0  0  0  0  0
   13.2461  -17.0808   25.6529 O   0  0  0  0  0  0  0  0  0  0  0  0
  2  1  1  6
  2  3  1  0
  2  6  1  0
  3  4  1  0
  4  8  1  0
  4  5  2  0
  6  7  2  0
  9  6  1  0
  9 10  1  0
 10 11  1  6
 11 12  1  0
 12 16  1  0
 13 14  1  0
 13 12  2  0
 14 15  1  0
 15 16  2  0
 17 10  1  0
 17 18  2  0
 19 17  1  0
 20 19  1  0
 20 21  1  1
 22 23  1  0
 22 21  1  0
 23 24  2  0
 25 20  1  0
 26 25  1  0
 27 23  1  0
 28 25  2  0
M  END
$$$$
