DHE.pdb
     RDKit          3D

 28 28  0  0  1  0  0  0  0  0999 V2000
    8.7681  -16.4982   16.3830 N   0  0  0  0  0  0  0  0  0  0  0  0
    9.6039  -17.1020   17.3861 C   0  0  1  0  0  0  0  0  0  0  0  0
   10.9630  -17.3780   16.7324 C   0  0  0  0  0  0  0  0  0  0  0  0
   10.7780  -18.3587   15.6419 C   0  0  0  0  0  0  0  0  0  0  0  0
   10.3145  -19.4870   15.9072 O   0  0  0  0  0  0  0  0  0  0  0  0
    9.8071  -16.1470   18.5398 C   0  0  0  0  0  0  0  0  0  0  0  0
    9.6487  -14.9198   18.3848 O   0  0  0  0  0  0  0  0  0  0  0  0
   11.1081  -18.0606   14.3138 O   0  0  0  0  0  0  0  0  0  0  0  0
   10.1814  -16.6707   19.8030 N   0  0  0  0  0  0  0  0  0  0  0  0
   10.1353  -15.9804   21.0445 C   0  0  1  0  0  0  0  0  0  0  0  0
    8.7559  -15.5020   21.4779 C   0  0  0  0  0  0  0  0  0  0  0  0
    8.2215  -14.4737   20.5519 C   0  0  0  0  0  0  0  0  0  0  0  0
    8.5819  -13.1879   20.2779 C   0  0  0  0  0  0  0  0  0  0  0  0
    7.7801  -12.6380   19.3225 N   0  0  0  0  0  0  0  0  0  0  0  0
    6.9056  -13.5991   18.9965 C   0  0  0  0  0  0  0  0  0  0  0  0
    7.1497  -14.7017   19.7164 N   0  0  0  0  0  0  0  0  0  0  0  0
   10.9059  -16.6189   22.1234 C   0  0  0  0  0  0  0  0  0  0  0  0
   10.5234  -17.7409   22.6034 O   0  0  0  0  0  0  0  0  0  0  0  0
   12.0842  -16.0384   22.6738 N   0  0  0  0  0  0  0  0  0  0  0  0
   13.0734  -16.7745   23.3864 C   0  0  1  0  0  0  0  0  0  0  0  0
   14.4353  -16.1922   23.3625 C   0  0  0  0  0  0  0  0  0  0  0  0
   15.4402  -16.9217   24.2078 C   0  0  0  0  0  0  0  0  0  0  0  0
   16.7984  -16.3823   24.1448 C   0  0  0  0  0  0  0  0  0  0  0  0
   16.9673  -15.3021   23.5001 O   0  0  0  0  0  0  0  0  0  0  0  0
   12.5810  -17.0505   24.7634 C   0  0  0  0  0  0  0  0  0  0  0  0
   13.0401  -18.1152   25.5239 O   0  0  0  0  0  0  0  0  0  0  0  0
   17.9246  -16.9380   24.7241 O   0  0  0  0  0  0  0  0  0  0  0  0
   11.7197  -16.2940   25.2551 O   0  0  0  0  0  0  0  0  0  0  0  0
  2  1  1  6
  2  3  1  0
  2  6  1  0
  3  4  1  0
  4  8  1  0
  4  5  2  0
  6  7  2  0
  9  6  1  0
  9 10  1  0
 10 11  1  1
 11 12  1  0
 12 16  1  0
 13 14  1  0
 13 12  2  0
 14 15  1  0
 15 16  2  0
 17 10  1  0
 17 18  2  0
 19 17  1  0
 20 19  1  0
 20 21  1  1
 22 23  1  0
 22 21  1  0
 23 24  2  0
 25 20  1  0
 26 25  1  0
 27 23  1  0
 28 25  2  0
M  END
$$$$
