DHE.pdb
     RDKit          3D

 28 28  0  0  1  0  0  0  0  0999 V2000
    9.6901  -18.4851   17.6574 N   0  0  0  0  0  0  0  0  0  0  0  0
   10.8685  -17.6686   17.5390 C   0  0  1  0  0  0  0  0  0  0  0  0
   10.6800  -16.7841   16.3009 C   0  0  0  0  0  0  0  0  0  0  0  0
   11.2602  -17.4732   15.1289 C   0  0  0  0  0  0  0  0  0  0  0  0
   11.6557  -18.6513   15.2469 O   0  0  0  0  0  0  0  0  0  0  0  0
   11.0107  -16.7787   18.7522 C   0  0  0  0  0  0  0  0  0  0  0  0
   12.1065  -16.2520   19.0295 O   0  0  0  0  0  0  0  0  0  0  0  0
   11.3808  -16.8429   13.8840 O   0  0  0  0  0  0  0  0  0  0  0  0
    9.8755  -16.5523   19.5709 N   0  0  0  0  0  0  0  0  0  0  0  0
    9.8550  -15.8329   20.7965 C   0  0  1  0  0  0  0  0  0  0  0  0
    8.5372  -15.1472   21.1323 C   0  0  0  0  0  0  0  0  0  0  0  0
    8.0958  -14.2512   20.0354 C   0  0  0  0  0  0  0  0  0  0  0  0
    8.2965  -12.9286   19.7739 C   0  0  0  0  0  0  0  0  0  0  0  0
    7.6871  -12.5514   18.6144 N   0  0  0  0  0  0  0  0  0  0  0  0
    7.0972  -13.6595   18.1465 C   0  0  0  0  0  0  0  0  0  0  0  0
    7.3274  -14.6846   18.9768 N   0  0  0  0  0  0  0  0  0  0  0  0
   10.4542  -16.5513   21.9324 C   0  0  0  0  0  0  0  0  0  0  0  0
   10.1126  -17.7594   22.1758 O   0  0  0  0  0  0  0  0  0  0  0  0
   11.4185  -15.9567   22.7956 N   0  0  0  0  0  0  0  0  0  0  0  0
   12.0622  -16.6471   23.8618 C   0  0  1  0  0  0  0  0  0  0  0  0
   13.4817  -16.2861   24.0842 C   0  0  0  0  0  0  0  0  0  0  0  0
   14.3598  -16.4352   22.8746 C   0  0  0  0  0  0  0  0  0  0  0  0
   15.7658  -16.0976   23.0948 C   0  0  0  0  0  0  0  0  0  0  0  0
   16.5764  -16.3290   22.1459 O   0  0  0  0  0  0  0  0  0  0  0  0
   11.2316  -16.5327   25.0913 C   0  0  0  0  0  0  0  0  0  0  0  0
   10.0674  -15.7811   25.1417 O   0  0  0  0  0  0  0  0  0  0  0  0
   16.3021  -15.5459   24.2440 O   0  0  0  0  0  0  0  0  0  0  0  0
   11.5963  -17.1371   26.1198 O   0  0  0  0  0  0  0  0  0  0  0  0
  2  1  1  1
  2  3  1  0
  2  6  1  0
  3  4  1  0
  4  8  1  0
  4  5  2  0
  6  7  2  0
  9  6  1  0
  9 10  1  0
 10 11  1  1
 11 12  1  0
 12 16  1  0
 13 14  1  0
 13 12  2  0
 14 15  1  0
 15 16  2  0
 17 10  1  0
 17 18  2  0
 19 17  1  0
 20 19  1  0
 20 21  1  1
 22 23  1  0
 22 21  1  0
 23 24  2  0
 25 20  1  0
 26 25  1  0
 27 23  1  0
 28 25  2  0
M  END
$$$$
