DHE.pdb
     RDKit          3D

 28 28  0  0  1  0  0  0  0  0999 V2000
   10.6254  -17.5969   18.9813 N   0  0  0  0  0  0  0  0  0  0  0  0
   11.6903  -17.5672   19.9480 C   0  0  1  0  0  0  0  0  0  0  0  0
   12.7934  -16.6700   19.3744 C   0  0  0  0  0  0  0  0  0  0  0  0
   13.4670  -17.3874   18.2714 C   0  0  0  0  0  0  0  0  0  0  0  0
   12.8828  -17.5091   17.1750 O   0  0  0  0  0  0  0  0  0  0  0  0
   11.2013  -16.9636   21.2445 C   0  0  0  0  0  0  0  0  0  0  0  0
   12.0106  -16.5480   22.0974 O   0  0  0  0  0  0  0  0  0  0  0  0
   14.7466  -17.9378   18.4183 O   0  0  0  0  0  0  0  0  0  0  0  0
    9.8050  -16.8779   21.4749 N   0  0  0  0  0  0  0  0  0  0  0  0
    9.1770  -16.3458   22.6337 C   0  0  1  0  0  0  0  0  0  0  0  0
    7.8952  -15.5623   22.3834 C   0  0  0  0  0  0  0  0  0  0  0  0
    7.3765  -14.9552   23.6336 C   0  0  0  0  0  0  0  0  0  0  0  0
    6.4176  -15.3331   24.5257 C   0  0  0  0  0  0  0  0  0  0  0  0
    6.3037  -14.4358   25.5455 N   0  0  0  0  0  0  0  0  0  0  0  0
    7.2082  -13.4830   25.2828 C   0  0  0  0  0  0  0  0  0  0  0  0
    7.8591  -13.7717   24.1486 N   0  0  0  0  0  0  0  0  0  0  0  0
    9.0841  -17.2876   23.7606 C   0  0  0  0  0  0  0  0  0  0  0  0
    8.5650  -18.4432   23.5859 O   0  0  0  0  0  0  0  0  0  0  0  0
    9.5543  -16.9714   25.0673 N   0  0  0  0  0  0  0  0  0  0  0  0
    9.6048  -17.9061   26.1405 C   0  0  1  0  0  0  0  0  0  0  0  0
   10.5199  -17.5483   27.2491 C   0  0  0  0  0  0  0  0  0  0  0  0
   10.5784  -18.5579   28.3599 C   0  0  0  0  0  0  0  0  0  0  0  0
   11.4662  -18.1994   29.4656 C   0  0  0  0  0  0  0  0  0  0  0  0
   11.5168  -18.9942   30.4539 O   0  0  0  0  0  0  0  0  0  0  0  0
    8.2200  -18.2005   26.5990 C   0  0  0  0  0  0  0  0  0  0  0  0
    7.7545  -19.4918   26.7958 O   0  0  0  0  0  0  0  0  0  0  0  0
   12.2625  -17.0711   29.5395 O   0  0  0  0  0  0  0  0  0  0  0  0
    7.4447  -17.2477   26.8156 O   0  0  0  0  0  0  0  0  0  0  0  0
  2  1  1  6
  2  3  1  0
  2  6  1  0
  3  4  1  0
  4  8  1  0
  4  5  2  0
  6  7  2  0
  9  6  1  0
  9 10  1  0
 10 11  1  6
 11 12  1  0
 12 16  1  0
 13 14  1  0
 13 12  2  0
 14 15  1  0
 15 16  2  0
 17 10  1  0
 17 18  2  0
 19 17  1  0
 20 19  1  0
 20 21  1  1
 22 23  1  0
 22 21  1  0
 23 24  2  0
 25 20  1  0
 26 25  1  0
 27 23  1  0
 28 25  2  0
M  END
$$$$
