DHE.pdb
     RDKit          3D

 28 28  0  0  1  0  0  0  0  0999 V2000
    9.9240  -18.6229   17.4646 N   0  0  0  0  0  0  0  0  0  0  0  0
   11.2814  -18.1647   17.5946 C   0  0  1  0  0  0  0  0  0  0  0  0
   11.6047  -17.3535   16.3343 C   0  0  0  0  0  0  0  0  0  0  0  0
   13.0180  -17.5841   15.9675 C   0  0  0  0  0  0  0  0  0  0  0  0
   13.6273  -16.7168   15.3081 O   0  0  0  0  0  0  0  0  0  0  0  0
   11.4139  -17.2610   18.7987 C   0  0  0  0  0  0  0  0  0  0  0  0
   12.5221  -16.7878   19.1197 O   0  0  0  0  0  0  0  0  0  0  0  0
   13.6985  -18.7508   16.3382 O   0  0  0  0  0  0  0  0  0  0  0  0
   10.2552  -16.9597   19.5583 N   0  0  0  0  0  0  0  0  0  0  0  0
   10.2169  -16.2259   20.7749 C   0  0  1  0  0  0  0  0  0  0  0  0
    8.8839  -15.5650   21.1002 C   0  0  0  0  0  0  0  0  0  0  0  0
    8.5389  -14.5193   20.1062 C   0  0  0  0  0  0  0  0  0  0  0  0
    9.1673  -14.0481   18.9922 C   0  0  0  0  0  0  0  0  0  0  0  0
    8.4386  -13.0691   18.3849 N   0  0  0  0  0  0  0  0  0  0  0  0
    7.3372  -12.9294   19.1347 C   0  0  0  0  0  0  0  0  0  0  0  0
    7.3754  -13.7833   20.1656 N   0  0  0  0  0  0  0  0  0  0  0  0
   10.8296  -16.9171   21.9205 C   0  0  0  0  0  0  0  0  0  0  0  0
   10.4888  -18.1179   22.1985 O   0  0  0  0  0  0  0  0  0  0  0  0
   11.8064  -16.3034   22.7557 N   0  0  0  0  0  0  0  0  0  0  0  0
   12.4266  -16.9526   23.8611 C   0  0  1  0  0  0  0  0  0  0  0  0
   13.8450  -16.5932   24.0921 C   0  0  0  0  0  0  0  0  0  0  0  0
   14.5751  -16.1179   22.8684 C   0  0  0  0  0  0  0  0  0  0  0  0
   16.0006  -15.8588   23.0692 C   0  0  0  0  0  0  0  0  0  0  0  0
   16.8049  -16.3226   22.2037 O   0  0  0  0  0  0  0  0  0  0  0  0
   11.5765  -16.7797   25.0703 C   0  0  0  0  0  0  0  0  0  0  0  0
   10.4418  -15.9826   25.0807 O   0  0  0  0  0  0  0  0  0  0  0  0
   16.5616  -15.1519   24.1171 O   0  0  0  0  0  0  0  0  0  0  0  0
   11.8964  -17.3755   26.1184 O   0  0  0  0  0  0  0  0  0  0  0  0
  2  1  1  6
  2  3  1  0
  2  6  1  0
  3  4  1  0
  4  8  1  0
  4  5  2  0
  6  7  2  0
  9  6  1  0
  9 10  1  0
 10 11  1  1
 11 12  1  0
 12 16  1  0
 13 14  1  0
 13 12  2  0
 14 15  1  0
 15 16  2  0
 17 10  1  0
 17 18  2  0
 19 17  1  0
 20 19  1  0
 20 21  1  1
 22 23  1  0
 22 21  1  0
 23 24  2  0
 25 20  1  0
 26 25  1  0
 27 23  1  0
 28 25  2  0
M  END
$$$$
