DHE.pdb
     RDKit          3D

 28 28  0  0  1  0  0  0  0  0999 V2000
    6.6462  -15.1657   21.4545 N   0  0  0  0  0  0  0  0  0  0  0  0
    7.4721  -16.2366   21.9450 C   0  0  1  0  0  0  0  0  0  0  0  0
    6.7316  -17.5465   21.6507 C   0  0  0  0  0  0  0  0  0  0  0  0
    6.2736  -17.5307   20.2453 C   0  0  0  0  0  0  0  0  0  0  0  0
    6.5735  -16.5631   19.5159 O   0  0  0  0  0  0  0  0  0  0  0  0
    8.7941  -16.2532   21.2128 C   0  0  0  0  0  0  0  0  0  0  0  0
    9.3224  -17.3323   20.8788 O   0  0  0  0  0  0  0  0  0  0  0  0
    5.5099  -18.5723   19.7035 O   0  0  0  0  0  0  0  0  0  0  0  0
    9.4245  -15.0195   20.9116 N   0  0  0  0  0  0  0  0  0  0  0  0
   10.6948  -14.8547   20.2957 C   0  0  1  0  0  0  0  0  0  0  0  0
   10.8215  -13.6561   19.3646 C   0  0  0  0  0  0  0  0  0  0  0  0
    9.7045  -13.6048   18.3898 C   0  0  0  0  0  0  0  0  0  0  0  0
    8.6102  -12.8015   18.2669 C   0  0  0  0  0  0  0  0  0  0  0  0
    7.8617  -13.1411   17.1795 N   0  0  0  0  0  0  0  0  0  0  0  0
    8.5023  -14.1741   16.6160 C   0  0  0  0  0  0  0  0  0  0  0  0
    9.6029  -14.4677   17.3201 N   0  0  0  0  0  0  0  0  0  0  0  0
   11.8378  -15.0184   21.2080 C   0  0  0  0  0  0  0  0  0  0  0  0
   12.5079  -13.9954   21.5820 O   0  0  0  0  0  0  0  0  0  0  0  0
   12.2460  -16.2877   21.7086 N   0  0  0  0  0  0  0  0  0  0  0  0
   13.2023  -16.4602   22.7497 C   0  0  1  0  0  0  0  0  0  0  0  0
   12.6351  -16.6667   24.1025 C   0  0  0  0  0  0  0  0  0  0  0  0
   12.4507  -18.1067   24.4882 C   0  0  0  0  0  0  0  0  0  0  0  0
   11.9244  -18.3156   25.8368 C   0  0  0  0  0  0  0  0  0  0  0  0
   12.0291  -19.4807   26.3294 O   0  0  0  0  0  0  0  0  0  0  0  0
   14.1701  -17.5196   22.3549 C   0  0  0  0  0  0  0  0  0  0  0  0
   13.9005  -18.4479   21.3606 O   0  0  0  0  0  0  0  0  0  0  0  0
   11.3202  -17.3605   26.6339 O   0  0  0  0  0  0  0  0  0  0  0  0
   15.2694  -17.5764   22.9416 O   0  0  0  0  0  0  0  0  0  0  0  0
  2  1  1  6
  2  3  1  0
  2  6  1  0
  3  4  1  0
  4  8  1  0
  4  5  2  0
  6  7  2  0
  9  6  1  0
  9 10  1  0
 10 11  1  1
 11 12  1  0
 12 16  1  0
 13 14  1  0
 13 12  2  0
 14 15  1  0
 15 16  2  0
 17 10  1  0
 17 18  2  0
 19 17  1  0
 20 19  1  0
 20 21  1  1
 22 23  1  0
 22 21  1  0
 23 24  2  0
 25 20  1  0
 26 25  1  0
 27 23  1  0
 28 25  2  0
M  END
$$$$
