DHE.pdb
     RDKit          3D

 28 28  0  0  1  0  0  0  0  0999 V2000
   11.6812  -18.0079   15.4298 N   0  0  0  0  0  0  0  0  0  0  0  0
   11.5305  -18.6481   16.7092 C   0  0  1  0  0  0  0  0  0  0  0  0
   12.8573  -19.3512   17.0191 C   0  0  0  0  0  0  0  0  0  0  0  0
   13.1244  -20.3530   15.9655 C   0  0  0  0  0  0  0  0  0  0  0  0
   13.4705  -19.9676   14.8297 O   0  0  0  0  0  0  0  0  0  0  0  0
   11.2681  -17.6159   17.7815 C   0  0  0  0  0  0  0  0  0  0  0  0
   12.1650  -17.2917   18.5850 O   0  0  0  0  0  0  0  0  0  0  0  0
   13.0008  -21.7279   16.2023 O   0  0  0  0  0  0  0  0  0  0  0  0
    9.9833  -17.0215   17.8586 N   0  0  0  0  0  0  0  0  0  0  0  0
    9.5680  -16.0399   18.7988 C   0  0  1  0  0  0  0  0  0  0  0  0
    8.2598  -15.3315   18.4725 C   0  0  0  0  0  0  0  0  0  0  0  0
    7.9905  -14.2234   19.4212 C   0  0  0  0  0  0  0  0  0  0  0  0
    8.4482  -12.9427   19.5132 C   0  0  0  0  0  0  0  0  0  0  0  0
    7.8915  -12.2890   20.5720 N   0  0  0  0  0  0  0  0  0  0  0  0
    7.0729  -13.1792   21.1484 C   0  0  0  0  0  0  0  0  0  0  0  0
    7.1157  -14.3386   20.4797 N   0  0  0  0  0  0  0  0  0  0  0  0
    9.6782  -16.4605   20.2046 C   0  0  0  0  0  0  0  0  0  0  0  0
    9.3202  -17.6391   20.5484 O   0  0  0  0  0  0  0  0  0  0  0  0
   10.1754  -15.6025   21.2269 N   0  0  0  0  0  0  0  0  0  0  0  0
   10.3427  -15.9992   22.5844 C   0  0  1  0  0  0  0  0  0  0  0  0
   11.6422  -15.6344   23.1950 C   0  0  0  0  0  0  0  0  0  0  0  0
   12.7798  -16.5451   22.8308 C   0  0  0  0  0  0  0  0  0  0  0  0
   14.0724  -16.1667   23.4014 C   0  0  0  0  0  0  0  0  0  0  0  0
   14.3099  -16.5254   24.5956 O   0  0  0  0  0  0  0  0  0  0  0  0
    9.1736  -15.5330   23.3784 C   0  0  0  0  0  0  0  0  0  0  0  0
    8.9165  -15.9790   24.6660 O   0  0  0  0  0  0  0  0  0  0  0  0
   15.0688  -15.4520   22.7618 O   0  0  0  0  0  0  0  0  0  0  0  0
    8.3917  -14.7070   22.8661 O   0  0  0  0  0  0  0  0  0  0  0  0
  2  1  1  6
  2  3  1  0
  2  6  1  0
  3  4  1  0
  4  8  1  0
  4  5  2  0
  6  7  2  0
  9  6  1  0
  9 10  1  0
 10 11  1  6
 11 12  1  0
 12 16  1  0
 13 14  1  0
 13 12  2  0
 14 15  1  0
 15 16  2  0
 17 10  1  0
 17 18  2  0
 19 17  1  0
 20 19  1  0
 20 21  1  1
 22 23  1  0
 22 21  1  0
 23 24  2  0
 25 20  1  0
 26 25  1  0
 27 23  1  0
 28 25  2  0
M  END
$$$$
