DHE.pdb
     RDKit          3D

 28 28  0  0  1  0  0  0  0  0999 V2000
   12.5057  -17.0183   15.5266 N   0  0  0  0  0  0  0  0  0  0  0  0
   11.5577  -17.5909   16.4448 C   0  0  1  0  0  0  0  0  0  0  0  0
   11.9517  -19.0597   16.6399 C   0  0  0  0  0  0  0  0  0  0  0  0
   11.6197  -19.8106   15.4107 C   0  0  0  0  0  0  0  0  0  0  0  0
   12.4192  -20.6695   14.9848 O   0  0  0  0  0  0  0  0  0  0  0  0
   11.6349  -16.8878   17.7804 C   0  0  0  0  0  0  0  0  0  0  0  0
   12.6668  -16.2738   18.1170 O   0  0  0  0  0  0  0  0  0  0  0  0
   10.4306  -19.5877   14.7051 O   0  0  0  0  0  0  0  0  0  0  0  0
   10.5127  -16.9383   18.6454 N   0  0  0  0  0  0  0  0  0  0  0  0
   10.3959  -16.2934   19.9066 C   0  0  1  0  0  0  0  0  0  0  0  0
    8.9795  -15.9201   20.3235 C   0  0  0  0  0  0  0  0  0  0  0  0
    8.5022  -14.7128   19.6057 C   0  0  0  0  0  0  0  0  0  0  0  0
    9.0899  -13.8636   18.7160 C   0  0  0  0  0  0  0  0  0  0  0  0
    8.2286  -12.8855   18.3165 N   0  0  0  0  0  0  0  0  0  0  0  0
    7.0848  -13.1311   18.9694 C   0  0  0  0  0  0  0  0  0  0  0  0
    7.2245  -14.2151   19.7433 N   0  0  0  0  0  0  0  0  0  0  0  0
   11.1844  -16.9157   20.9821 C   0  0  0  0  0  0  0  0  0  0  0  0
   11.3002  -18.1882   21.0346 O   0  0  0  0  0  0  0  0  0  0  0  0
   11.8414  -16.1559   21.9918 N   0  0  0  0  0  0  0  0  0  0  0  0
   12.8364  -16.6852   22.8623 C   0  0  1  0  0  0  0  0  0  0  0  0
   14.1205  -15.9467   22.8793 C   0  0  0  0  0  0  0  0  0  0  0  0
   15.1595  -16.5236   23.7979 C   0  0  0  0  0  0  0  0  0  0  0  0
   16.4478  -15.8314   23.7749 C   0  0  0  0  0  0  0  0  0  0  0  0
   16.9739  -15.6163   22.6400 O   0  0  0  0  0  0  0  0  0  0  0  0
   12.2521  -16.8707   24.2184 C   0  0  0  0  0  0  0  0  0  0  0  0
   12.7956  -17.7354   25.1565 O   0  0  0  0  0  0  0  0  0  0  0  0
   17.1534  -15.3841   24.8771 O   0  0  0  0  0  0  0  0  0  0  0  0
   11.2316  -16.2226   24.5255 O   0  0  0  0  0  0  0  0  0  0  0  0
  2  1  1  6
  2  3  1  0
  2  6  1  0
  3  4  1  0
  4  8  1  0
  4  5  2  0
  6  7  2  0
  9  6  1  0
  9 10  1  0
 10 11  1  1
 11 12  1  0
 12 16  1  0
 13 14  1  0
 13 12  2  0
 14 15  1  0
 15 16  2  0
 17 10  1  0
 17 18  2  0
 19 17  1  0
 20 19  1  0
 20 21  1  1
 22 23  1  0
 22 21  1  0
 23 24  2  0
 25 20  1  0
 26 25  1  0
 27 23  1  0
 28 25  2  0
M  END
$$$$
