DHE.pdb
     RDKit          3D

 28 28  0  0  1  0  0  0  0  0999 V2000
   10.4816  -15.9099   16.0971 N   0  0  0  0  0  0  0  0  0  0  0  0
   11.0967  -16.7736   17.0692 C   0  0  1  0  0  0  0  0  0  0  0  0
   12.5503  -16.9829   16.6287 C   0  0  0  0  0  0  0  0  0  0  0  0
   12.5592  -17.7063   15.3397 C   0  0  0  0  0  0  0  0  0  0  0  0
   11.5241  -18.2923   14.9608 O   0  0  0  0  0  0  0  0  0  0  0  0
   11.0936  -16.1143   18.4291 C   0  0  0  0  0  0  0  0  0  0  0  0
   11.7871  -15.1008   18.6460 O   0  0  0  0  0  0  0  0  0  0  0  0
   13.6980  -17.7555   14.5258 O   0  0  0  0  0  0  0  0  0  0  0  0
   10.2876  -16.6682   19.4557 N   0  0  0  0  0  0  0  0  0  0  0  0
   10.1346  -16.1539   20.7718 C   0  0  1  0  0  0  0  0  0  0  0  0
    8.7200  -15.7372   21.1525 C   0  0  0  0  0  0  0  0  0  0  0  0
    8.1945  -14.6967   20.2350 C   0  0  0  0  0  0  0  0  0  0  0  0
    7.4647  -14.7499   19.0850 C   0  0  0  0  0  0  0  0  0  0  0  0
    7.2085  -13.5025   18.5987 N   0  0  0  0  0  0  0  0  0  0  0  0
    7.7894  -12.6586   19.4620 C   0  0  0  0  0  0  0  0  0  0  0  0
    8.3828  -13.3478   20.4449 N   0  0  0  0  0  0  0  0  0  0  0  0
   10.8214  -16.9352   21.8127 C   0  0  0  0  0  0  0  0  0  0  0  0
   10.6389  -18.1987   21.8874 O   0  0  0  0  0  0  0  0  0  0  0  0
   11.7004  -16.3428   22.7639 N   0  0  0  0  0  0  0  0  0  0  0  0
   12.4154  -17.0798   23.7506 C   0  0  1  0  0  0  0  0  0  0  0  0
   13.8915  -16.9952   23.6580 C   0  0  0  0  0  0  0  0  0  0  0  0
   14.4376  -15.5959   23.6660 C   0  0  0  0  0  0  0  0  0  0  0  0
   15.8914  -15.5064   23.5326 C   0  0  0  0  0  0  0  0  0  0  0  0
   16.3501  -14.6528   22.7128 O   0  0  0  0  0  0  0  0  0  0  0  0
   11.8943  -16.7262   25.0990 C   0  0  0  0  0  0  0  0  0  0  0  0
   12.2755  -17.3995   26.2498 O   0  0  0  0  0  0  0  0  0  0  0  0
   16.8219  -16.2658   24.2182 O   0  0  0  0  0  0  0  0  0  0  0  0
   11.0810  -15.7859   25.2000 O   0  0  0  0  0  0  0  0  0  0  0  0
  2  1  1  6
  2  3  1  0
  2  6  1  0
  3  4  1  0
  4  8  1  0
  4  5  2  0
  6  7  2  0
  9  6  1  0
  9 10  1  0
 10 11  1  1
 11 12  1  0
 12 16  1  0
 13 14  1  0
 13 12  2  0
 14 15  1  0
 15 16  2  0
 17 10  1  0
 17 18  2  0
 19 17  1  0
 20 19  1  0
 20 21  1  1
 22 23  1  0
 22 21  1  0
 23 24  2  0
 25 20  1  0
 26 25  1  0
 27 23  1  0
 28 25  2  0
M  END
$$$$
