DHE.pdb
     RDKit          3D

 28 28  0  0  1  0  0  0  0  0999 V2000
   13.7540  -16.0076   13.9305 N   0  0  0  0  0  0  0  0  0  0  0  0
   12.8396  -16.7081   14.7923 C   0  0  1  0  0  0  0  0  0  0  0  0
   13.5932  -17.9167   15.3600 C   0  0  0  0  0  0  0  0  0  0  0  0
   13.8995  -18.8502   14.2556 C   0  0  0  0  0  0  0  0  0  0  0  0
   13.0980  -18.9552   13.3044 O   0  0  0  0  0  0  0  0  0  0  0  0
   12.4182  -15.8186   15.9391 C   0  0  0  0  0  0  0  0  0  0  0  0
   13.2649  -15.1689   16.5842 O   0  0  0  0  0  0  0  0  0  0  0  0
   15.0664  -19.6247   14.2426 O   0  0  0  0  0  0  0  0  0  0  0  0
   11.0420  -15.7351   16.2697 N   0  0  0  0  0  0  0  0  0  0  0  0
   10.4870  -15.0507   17.3850 C   0  0  1  0  0  0  0  0  0  0  0  0
    9.0050  -14.7163   17.2779 C   0  0  0  0  0  0  0  0  0  0  0  0
    8.5356  -13.9447   18.4547 C   0  0  0  0  0  0  0  0  0  0  0  0
    7.7570  -14.2619   19.5275 C   0  0  0  0  0  0  0  0  0  0  0  0
    7.6111  -13.1997   20.3693 N   0  0  0  0  0  0  0  0  0  0  0  0
    8.3117  -12.2043   19.8098 C   0  0  0  0  0  0  0  0  0  0  0  0
    8.8712  -12.6254   18.6683 N   0  0  0  0  0  0  0  0  0  0  0  0
   10.8755  -15.6044   18.6918 C   0  0  0  0  0  0  0  0  0  0  0  0
   10.7978  -16.8637   18.9004 O   0  0  0  0  0  0  0  0  0  0  0  0
   11.3455  -14.7909   19.7623 N   0  0  0  0  0  0  0  0  0  0  0  0
   11.8380  -15.3073   20.9947 C   0  0  1  0  0  0  0  0  0  0  0  0
   13.0826  -14.6770   21.4929 C   0  0  0  0  0  0  0  0  0  0  0  0
   14.3346  -15.4551   21.2036 C   0  0  0  0  0  0  0  0  0  0  0  0
   15.5002  -15.0519   21.9899 C   0  0  0  0  0  0  0  0  0  0  0  0
   15.5351  -15.4112   23.2067 O   0  0  0  0  0  0  0  0  0  0  0  0
   10.7405  -15.3057   21.9997 C   0  0  0  0  0  0  0  0  0  0  0  0
   10.8015  -16.0362   23.1768 O   0  0  0  0  0  0  0  0  0  0  0  0
   16.5763  -14.3129   21.5333 O   0  0  0  0  0  0  0  0  0  0  0  0
    9.7231  -14.6197   21.7757 O   0  0  0  0  0  0  0  0  0  0  0  0
  2  1  1  6
  2  3  1  0
  2  6  1  0
  3  4  1  0
  4  8  1  0
  4  5  2  0
  6  7  2  0
  9  6  1  0
  9 10  1  0
 10 11  1  6
 11 12  1  0
 12 16  1  0
 13 14  1  0
 13 12  2  0
 14 15  1  0
 15 16  2  0
 17 10  1  0
 17 18  2  0
 19 17  1  0
 20 19  1  0
 20 21  1  1
 22 23  1  0
 22 21  1  0
 23 24  2  0
 25 20  1  0
 26 25  1  0
 27 23  1  0
 28 25  2  0
M  END
$$$$
