DHE.pdb
     RDKit          3D

 28 28  0  0  1  0  0  0  0  0999 V2000
   12.5491  -14.6901   16.3483 N   0  0  0  0  0  0  0  0  0  0  0  0
   12.3515  -15.7700   17.2779 C   0  0  1  0  0  0  0  0  0  0  0  0
   13.6763  -16.5371   17.3640 C   0  0  0  0  0  0  0  0  0  0  0  0
   13.7989  -17.4127   16.1794 C   0  0  0  0  0  0  0  0  0  0  0  0
   13.3639  -17.0159   15.0787 O   0  0  0  0  0  0  0  0  0  0  0  0
   12.0182  -15.2251   18.6476 C   0  0  0  0  0  0  0  0  0  0  0  0
   12.6347  -14.2441   19.1089 O   0  0  0  0  0  0  0  0  0  0  0  0
   14.3907  -18.6800   16.2533 O   0  0  0  0  0  0  0  0  0  0  0  0
   10.9914  -15.8489   19.4003 N   0  0  0  0  0  0  0  0  0  0  0  0
   10.5363  -15.4536   20.6875 C   0  0  1  0  0  0  0  0  0  0  0  0
    9.0495  -15.1397   20.7895 C   0  0  0  0  0  0  0  0  0  0  0  0
    8.6243  -14.1772   19.7438 C   0  0  0  0  0  0  0  0  0  0  0  0
    8.6405  -12.8164   19.6669 C   0  0  0  0  0  0  0  0  0  0  0  0
    8.1446  -12.3782   18.4752 N   0  0  0  0  0  0  0  0  0  0  0  0
    7.8144  -13.4866   17.7989 C   0  0  0  0  0  0  0  0  0  0  0  0
    8.0915  -14.5702   18.5353 N   0  0  0  0  0  0  0  0  0  0  0  0
   11.0427  -16.2838   21.7919 C   0  0  0  0  0  0  0  0  0  0  0  0
   10.7601  -17.5302   21.8354 O   0  0  0  0  0  0  0  0  0  0  0  0
   11.8513  -15.7585   22.8402 N   0  0  0  0  0  0  0  0  0  0  0  0
   12.4377  -16.5544   23.8652 C   0  0  1  0  0  0  0  0  0  0  0  0
   13.8319  -16.2018   24.2210 C   0  0  0  0  0  0  0  0  0  0  0  0
   14.7803  -16.1579   23.0570 C   0  0  0  0  0  0  0  0  0  0  0  0
   16.1545  -15.7941   23.4017 C   0  0  0  0  0  0  0  0  0  0  0  0
   16.9963  -15.7320   22.4538 O   0  0  0  0  0  0  0  0  0  0  0  0
   11.5262  -16.5877   25.0411 C   0  0  0  0  0  0  0  0  0  0  0  0
   11.7397  -17.4176   26.1313 O   0  0  0  0  0  0  0  0  0  0  0  0
   16.6294  -15.5083   24.6687 O   0  0  0  0  0  0  0  0  0  0  0  0
   10.5285  -15.8390   25.0479 O   0  0  0  0  0  0  0  0  0  0  0  0
  2  1  1  6
  2  3  1  0
  2  6  1  0
  3  4  1  0
  4  8  1  0
  4  5  2  0
  6  7  2  0
  9  6  1  0
  9 10  1  0
 10 11  1  6
 11 12  1  0
 12 16  1  0
 13 14  1  0
 13 12  2  0
 14 15  1  0
 15 16  2  0
 17 10  1  0
 17 18  2  0
 19 17  1  0
 20 19  1  0
 20 21  1  1
 22 23  1  0
 22 21  1  0
 23 24  2  0
 25 20  1  0
 26 25  1  0
 27 23  1  0
 28 25  2  0
M  END
$$$$
