SMA.pdb
     RDKit          3D

 20 19  0  0  1  0  0  0  0  0999 V2000
    9.2900  -18.5030   21.7070 O   0  0  0  0  0  0  0  0  0  0  0  0
    8.2452  -17.7749   21.1429 C   0  0  0  0  0  0  0  0  0  0  0  0
    8.6738  -16.3373   20.9648 C   0  0  2  0  0  0  0  0  0  0  0  0
    9.8159  -16.2828   20.0956 N   0  0  0  0  0  0  0  0  0  0  0  0
    9.0673  -15.7577   22.2762 C   0  0  0  0  0  0  0  0  0  0  0  0
   10.2966  -15.6193   22.5654 O   0  0  0  0  0  0  0  0  0  0  0  0
    6.3799  -10.7323   26.2507 C   0  0  0  0  0  0  0  0  0  0  0  0
    6.3542  -12.3669   27.0416 S   0  0  0  0  0  0  0  0  0  0  0  0
    7.7259  -13.3763   26.4184 C   0  0  0  0  0  0  0  0  0  0  0  0
    7.3013  -13.9260   25.0728 C   0  0  0  0  0  0  0  0  0  0  0  0
    8.4509  -14.7173   24.4952 C   0  0  2  0  0  0  0  0  0  0  0  0
    8.1266  -15.3396   23.2478 N   0  0  0  0  0  0  0  0  0  0  0  0
    8.9303  -15.7489   25.4541 C   0  0  0  0  0  0  0  0  0  0  0  0
    8.1931  -16.7409   25.7408 O   0  0  0  0  0  0  0  0  0  0  0  0
   12.1784  -16.7946   26.7252 C   0  0  0  0  0  0  0  0  0  0  0  0
   10.6671  -16.7102   26.9235 C   0  0  2  0  0  0  0  0  0  0  0  0
   10.2048  -15.6446   26.0586 N   0  0  0  0  0  0  0  0  0  0  0  0
   10.4603  -16.3694   28.3616 C   0  0  0  0  0  0  0  0  0  0  0  0
    9.9851  -15.2467   28.6334 O   0  0  0  0  0  0  0  0  0  0  0  0
   10.8032  -17.3090   29.3189 O   0  0  0  0  0  0  0  0  0  0  0  0
  2  3  1  0
  2  1  1  0
  3  4  1  6
  5  3  1  0
  5  6  2  0
  8  7  1  0
  9  8  1  0
  9 10  1  0
 11 10  1  1
 11 12  1  0
 11 13  1  0
 12  5  1  0
 13 17  1  0
 14 13  2  0
 16 15  1  1
 16 18  1  0
 17 16  1  0
 18 19  2  0
 18 20  1  0
M  END
$$$$
