SMA.pdb
     RDKit          3D

 20 19  0  0  1  0  0  0  0  0999 V2000
    8.1883  -18.4615   20.5033 O   0  0  0  0  0  0  0  0  0  0  0  0
    7.1534  -17.6145   20.1140 C   0  0  0  0  0  0  0  0  0  0  0  0
    7.6863  -16.2097   19.9574 C   0  0  2  0  0  0  0  0  0  0  0  0
    8.7010  -16.1935   18.9411 N   0  0  0  0  0  0  0  0  0  0  0  0
    8.3050  -15.7555   21.2307 C   0  0  0  0  0  0  0  0  0  0  0  0
    9.5643  -15.8242   21.3840 O   0  0  0  0  0  0  0  0  0  0  0  0
    7.3295  -11.7890   28.0212 C   0  0  0  0  0  0  0  0  0  0  0  0
    6.5498  -12.5287   26.5573 S   0  0  0  0  0  0  0  0  0  0  0  0
    7.7766  -13.4764   25.6164 C   0  0  0  0  0  0  0  0  0  0  0  0
    7.1108  -13.9163   24.3294 C   0  0  0  0  0  0  0  0  0  0  0  0
    8.1035  -14.7272   23.5303 C   0  0  2  0  0  0  0  0  0  0  0  0
    7.5526  -15.2368   22.3116 N   0  0  0  0  0  0  0  0  0  0  0  0
    8.6519  -15.8520   24.3350 C   0  0  0  0  0  0  0  0  0  0  0  0
    7.8934  -16.8024   24.6976 O   0  0  0  0  0  0  0  0  0  0  0  0
   12.0078  -17.1126   25.1356 C   0  0  0  0  0  0  0  0  0  0  0  0
   10.5189  -17.0154   25.4577 C   0  0  2  0  0  0  0  0  0  0  0  0
   10.0160  -15.8834   24.7077 N   0  0  0  0  0  0  0  0  0  0  0  0
   10.4320  -16.7734   26.9278 C   0  0  0  0  0  0  0  0  0  0  0  0
    9.9808  -15.6743   27.3132 O   0  0  0  0  0  0  0  0  0  0  0  0
   10.8535  -17.7732   27.7877 O   0  0  0  0  0  0  0  0  0  0  0  0
  2  3  1  0
  2  1  1  0
  3  4  1  6
  5  3  1  0
  5  6  2  0
  8  7  1  0
  9  8  1  0
  9 10  1  0
 11 10  1  1
 11 12  1  0
 11 13  1  0
 12  5  1  0
 13 17  1  0
 14 13  2  0
 16 15  1  6
 16 18  1  0
 17 16  1  0
 18 19  2  0
 18 20  1  0
M  END
$$$$
