SMA.pdb
     RDKit          3D

 20 19  0  0  1  0  0  0  0  0999 V2000
    8.0116  -18.0687   20.4163 O   0  0  0  0  0  0  0  0  0  0  0  0
    7.0079  -17.1407   20.1494 C   0  0  0  0  0  0  0  0  0  0  0  0
    7.6184  -15.7655   20.0149 C   0  0  2  0  0  0  0  0  0  0  0  0
    8.6777  -15.8051   19.0457 N   0  0  0  0  0  0  0  0  0  0  0  0
    8.2012  -15.3384   21.3142 C   0  0  0  0  0  0  0  0  0  0  0  0
    9.4539  -15.4252   21.5068 O   0  0  0  0  0  0  0  0  0  0  0  0
    7.0706  -11.8169   28.3259 C   0  0  0  0  0  0  0  0  0  0  0  0
    6.3415  -12.3780   26.7601 S   0  0  0  0  0  0  0  0  0  0  0  0
    7.5715  -13.3058   25.8034 C   0  0  0  0  0  0  0  0  0  0  0  0
    6.9132  -13.7091   24.5006 C   0  0  0  0  0  0  0  0  0  0  0  0
    7.9218  -14.4667   23.6697 C   0  0  2  0  0  0  0  0  0  0  0  0
    7.4206  -14.8266   22.3784 N   0  0  0  0  0  0  0  0  0  0  0  0
    8.3935  -15.6878   24.3766 C   0  0  0  0  0  0  0  0  0  0  0  0
    7.6288  -16.6946   24.4841 O   0  0  0  0  0  0  0  0  0  0  0  0
   11.6277  -17.1271   25.0460 C   0  0  0  0  0  0  0  0  0  0  0  0
   10.1689  -17.0045   25.4784 C   0  0  2  0  0  0  0  0  0  0  0  0
    9.6908  -15.7495   24.9368 N   0  0  0  0  0  0  0  0  0  0  0  0
   10.1837  -16.9804   26.9705 C   0  0  0  0  0  0  0  0  0  0  0  0
    9.7593  -15.9543   27.5425 O   0  0  0  0  0  0  0  0  0  0  0  0
   10.6646  -18.0903   27.6442 O   0  0  0  0  0  0  0  0  0  0  0  0
  2  3  1  0
  2  1  1  0
  3  4  1  6
  5  3  1  0
  5  6  2  0
  8  7  1  0
  9  8  1  0
  9 10  1  0
 11 10  1  1
 11 12  1  0
 11 13  1  0
 12  5  1  0
 13 17  1  0
 14 13  2  0
 16 15  1  6
 16 18  1  0
 17 16  1  0
 18 19  2  0
 18 20  1  0
M  END
$$$$
