SMA.pdb
     RDKit          3D

 20 19  0  0  1  0  0  0  0  0999 V2000
    8.1174  -17.8952   20.8979 O   0  0  0  0  0  0  0  0  0  0  0  0
    7.1069  -16.9590   20.6923 C   0  0  0  0  0  0  0  0  0  0  0  0
    7.6913  -15.5674   20.7563 C   0  0  2  0  0  0  0  0  0  0  0  0
    8.6608  -15.4071   19.7088 N   0  0  0  0  0  0  0  0  0  0  0  0
    8.3831  -15.3655   22.0566 C   0  0  0  0  0  0  0  0  0  0  0  0
    9.6524  -15.3351   22.1020 O   0  0  0  0  0  0  0  0  0  0  0  0
    6.4620  -10.3635   26.5397 C   0  0  0  0  0  0  0  0  0  0  0  0
    6.4124  -12.1739   26.6743 S   0  0  0  0  0  0  0  0  0  0  0  0
    7.4586  -12.9175   25.3931 C   0  0  0  0  0  0  0  0  0  0  0  0
    7.4034  -14.4184   25.5862 C   0  0  0  0  0  0  0  0  0  0  0  0
    8.3087  -15.0655   24.5648 C   0  0  2  0  0  0  0  0  0  0  0  0
    7.6914  -15.2005   23.2806 N   0  0  0  0  0  0  0  0  0  0  0  0
    8.7807  -16.3974   25.0304 C   0  0  0  0  0  0  0  0  0  0  0  0
    7.9864  -17.3868   25.0348 O   0  0  0  0  0  0  0  0  0  0  0  0
   11.9881  -18.0463   25.5114 C   0  0  0  0  0  0  0  0  0  0  0  0
   10.5277  -17.8944   25.9287 C   0  0  2  0  0  0  0  0  0  0  0  0
   10.1111  -16.5845   25.4729 N   0  0  0  0  0  0  0  0  0  0  0  0
   10.5157  -17.9790   27.4186 C   0  0  0  0  0  0  0  0  0  0  0  0
   10.1152  -16.9829   28.0571 O   0  0  0  0  0  0  0  0  0  0  0  0
   10.9466  -19.1507   28.0171 O   0  0  0  0  0  0  0  0  0  0  0  0
  2  3  1  0
  2  1  1  0
  3  4  1  6
  5  3  1  0
  5  6  2  0
  8  7  1  0
  9  8  1  0
  9 10  1  0
 11 10  1  1
 11 12  1  0
 11 13  1  0
 12  5  1  0
 13 17  1  0
 14 13  2  0
 16 15  1  1
 16 18  1  0
 17 16  1  0
 18 19  2  0
 18 20  1  0
M  END
$$$$
