SMA.pdb
     RDKit          3D

 20 19  0  0  1  0  0  0  0  0999 V2000
    9.5398  -17.9443   21.4371 O   0  0  0  0  0  0  0  0  0  0  0  0
    8.4985  -17.2656   20.8086 C   0  0  0  0  0  0  0  0  0  0  0  0
    8.7481  -15.7779   20.8891 C   0  0  2  0  0  0  0  0  0  0  0  0
    9.8674  -15.4349   20.0570 N   0  0  0  0  0  0  0  0  0  0  0  0
    9.0801  -15.3926   22.2861 C   0  0  0  0  0  0  0  0  0  0  0  0
   10.2652  -15.0452   22.5839 O   0  0  0  0  0  0  0  0  0  0  0  0
    6.4564  -10.5134   26.6638 C   0  0  0  0  0  0  0  0  0  0  0  0
    6.6293  -12.3143   26.8220 S   0  0  0  0  0  0  0  0  0  0  0  0
    6.9676  -13.0474   25.1981 C   0  0  0  0  0  0  0  0  0  0  0  0
    7.1362  -14.5378   25.4067 C   0  0  0  0  0  0  0  0  0  0  0  0
    8.3833  -14.9842   24.6807 C   0  0  2  0  0  0  0  0  0  0  0  0
    8.1267  -15.3902   23.3325 N   0  0  0  0  0  0  0  0  0  0  0  0
    9.0652  -16.0874   25.4096 C   0  0  0  0  0  0  0  0  0  0  0  0
    9.3829  -15.9416   26.6293 O   0  0  0  0  0  0  0  0  0  0  0  0
    9.9908  -19.5986   24.5912 C   0  0  0  0  0  0  0  0  0  0  0  0
    9.9034  -18.4069   25.5411 C   0  0  2  0  0  0  0  0  0  0  0  0
    9.3694  -17.3083   24.7633 N   0  0  0  0  0  0  0  0  0  0  0  0
   11.3020  -18.1297   25.9815 C   0  0  0  0  0  0  0  0  0  0  0  0
   11.8686  -18.9816   26.6980 O   0  0  0  0  0  0  0  0  0  0  0  0
   11.9000  -16.9484   25.5767 O   0  0  0  0  0  0  0  0  0  0  0  0
  2  3  1  0
  2  1  1  0
  3  4  1  6
  5  3  1  0
  5  6  2  0
  8  7  1  0
  9  8  1  0
  9 10  1  0
 11 10  1  1
 11 12  1  0
 11 13  1  0
 12  5  1  0
 13 17  1  0
 14 13  2  0
 16 15  1  6
 16 18  1  0
 17 16  1  0
 18 19  2  0
 18 20  1  0
M  END
$$$$
