SMA.pdb
     RDKit          3D

 20 19  0  0  1  0  0  0  0  0999 V2000
    7.6585  -17.5205   20.9851 O   0  0  0  0  0  0  0  0  0  0  0  0
    6.6631  -16.5652   20.7940 C   0  0  0  0  0  0  0  0  0  0  0  0
    7.2848  -15.1885   20.7792 C   0  0  2  0  0  0  0  0  0  0  0  0
    8.2271  -15.1007   19.6988 N   0  0  0  0  0  0  0  0  0  0  0  0
    8.0193  -14.9483   22.0492 C   0  0  0  0  0  0  0  0  0  0  0  0
    9.2876  -15.0182   22.0715 O   0  0  0  0  0  0  0  0  0  0  0  0
    7.3653  -11.4637   27.8559 C   0  0  0  0  0  0  0  0  0  0  0  0
    6.1503  -11.5438   26.5085 S   0  0  0  0  0  0  0  0  0  0  0  0
    6.8476  -12.4502   25.1010 C   0  0  0  0  0  0  0  0  0  0  0  0
    7.1563  -13.8529   25.5810 C   0  0  0  0  0  0  0  0  0  0  0  0
    8.0146  -14.5357   24.5424 C   0  0  2  0  0  0  0  0  0  0  0  0
    7.3705  -14.6378   23.2684 N   0  0  0  0  0  0  0  0  0  0  0  0
    8.4342  -15.8891   24.9958 C   0  0  0  0  0  0  0  0  0  0  0  0
    7.5809  -16.8246   25.0771 O   0  0  0  0  0  0  0  0  0  0  0  0
   11.5289  -17.7475   25.0763 C   0  0  0  0  0  0  0  0  0  0  0  0
   10.1612  -17.5042   25.7091 C   0  0  2  0  0  0  0  0  0  0  0  0
    9.7795  -16.1566   25.3414 N   0  0  0  0  0  0  0  0  0  0  0  0
   10.3631  -17.6274   27.1826 C   0  0  0  0  0  0  0  0  0  0  0  0
   10.7560  -18.7260   27.6286 O   0  0  0  0  0  0  0  0  0  0  0  0
   10.1064  -16.5243   27.9789 O   0  0  0  0  0  0  0  0  0  0  0  0
  2  3  1  0
  2  1  1  0
  3  4  1  6
  5  3  1  0
  5  6  2  0
  8  7  1  0
  9  8  1  0
  9 10  1  0
 11 10  1  1
 11 12  1  0
 11 13  1  0
 12  5  1  0
 13 17  1  0
 14 13  2  0
 16 15  1  6
 16 18  1  0
 17 16  1  0
 18 19  2  0
 18 20  1  0
M  END
$$$$
