SMA.pdb
     RDKit          3D

 20 19  0  0  1  0  0  0  0  0999 V2000
    8.5931  -17.9861   20.7144 O   0  0  0  0  0  0  0  0  0  0  0  0
    7.6716  -17.0807   20.1937 C   0  0  0  0  0  0  0  0  0  0  0  0
    8.2408  -15.6836   20.2728 C   0  0  2  0  0  0  0  0  0  0  0  0
    9.4420  -15.6113   19.4888 N   0  0  0  0  0  0  0  0  0  0  0  0
    8.5911  -15.3560   21.6801 C   0  0  0  0  0  0  0  0  0  0  0  0
    9.7834  -15.5121   22.0899 O   0  0  0  0  0  0  0  0  0  0  0  0
    7.6163  -11.5820   28.1015 C   0  0  0  0  0  0  0  0  0  0  0  0
    7.1029  -11.9862   26.4070 S   0  0  0  0  0  0  0  0  0  0  0  0
    7.1208  -13.7838   26.1682 C   0  0  0  0  0  0  0  0  0  0  0  0
    6.7203  -14.0482   24.7320 C   0  0  0  0  0  0  0  0  0  0  0  0
    7.9157  -14.6077   23.9974 C   0  0  2  0  0  0  0  0  0  0  0  0
    7.6480  -14.8670   22.6156 N   0  0  0  0  0  0  0  0  0  0  0  0
    8.4143  -15.8496   24.6474 C   0  0  0  0  0  0  0  0  0  0  0  0
    7.7075  -16.9032   24.6302 O   0  0  0  0  0  0  0  0  0  0  0  0
   11.6115  -17.2548   25.4116 C   0  0  0  0  0  0  0  0  0  0  0  0
   10.1543  -17.1267   25.8479 C   0  0  2  0  0  0  0  0  0  0  0  0
    9.6736  -15.8795   25.2908 N   0  0  0  0  0  0  0  0  0  0  0  0
   10.1749  -17.0819   27.3394 C   0  0  0  0  0  0  0  0  0  0  0  0
    9.8012  -16.0288   27.8975 O   0  0  0  0  0  0  0  0  0  0  0  0
   10.6048  -18.2035   28.0280 O   0  0  0  0  0  0  0  0  0  0  0  0
  2  3  1  0
  2  1  1  0
  3  4  1  6
  5  3  1  0
  5  6  2  0
  8  7  1  0
  9  8  1  0
  9 10  1  0
 11 10  1  1
 11 12  1  0
 11 13  1  0
 12  5  1  0
 13 17  1  0
 14 13  2  0
 16 15  1  6
 16 18  1  0
 17 16  1  0
 18 19  2  0
 18 20  1  0
M  END
$$$$
