SMA.pdb
     RDKit          3D

 20 19  0  0  1  0  0  0  0  0999 V2000
    8.0829  -19.0777   19.9263 O   0  0  0  0  0  0  0  0  0  0  0  0
    8.6621  -18.3943   20.9929 C   0  0  0  0  0  0  0  0  0  0  0  0
    8.4932  -16.9072   20.7874 C   0  0  2  0  0  0  0  0  0  0  0  0
    9.3570  -16.4697   19.7266 N   0  0  0  0  0  0  0  0  0  0  0  0
    8.8779  -16.1760   22.0234 C   0  0  0  0  0  0  0  0  0  0  0  0
   10.1050  -15.9885   22.2936 O   0  0  0  0  0  0  0  0  0  0  0  0
    6.9036  -11.0838   27.6256 C   0  0  0  0  0  0  0  0  0  0  0  0
    6.3447  -12.1287   26.2494 S   0  0  0  0  0  0  0  0  0  0  0  0
    7.5551  -13.4434   25.9409 C   0  0  0  0  0  0  0  0  0  0  0  0
    7.0799  -14.2127   24.7261 C   0  0  0  0  0  0  0  0  0  0  0  0
    8.2491  -14.9844   24.1614 C   0  0  2  0  0  0  0  0  0  0  0  0
    7.9311  -15.6624   22.9417 N   0  0  0  0  0  0  0  0  0  0  0  0
    8.7763  -15.9633   25.1499 C   0  0  0  0  0  0  0  0  0  0  0  0
    8.0671  -16.9546   25.5023 O   0  0  0  0  0  0  0  0  0  0  0  0
   12.1401  -16.7837   26.3503 C   0  0  0  0  0  0  0  0  0  0  0  0
   10.6247  -16.8829   26.5055 C   0  0  2  0  0  0  0  0  0  0  0  0
   10.0657  -15.8092   25.7106 N   0  0  0  0  0  0  0  0  0  0  0  0
   10.3469  -16.6832   27.9580 C   0  0  0  0  0  0  0  0  0  0  0  0
    9.7297  -15.6520   28.2985 O   0  0  0  0  0  0  0  0  0  0  0  0
   10.7845  -17.6452   28.8525 O   0  0  0  0  0  0  0  0  0  0  0  0
  2  3  1  0
  2  1  1  0
  3  4  1  6
  5  3  1  0
  5  6  2  0
  8  7  1  0
  9  8  1  0
  9 10  1  0
 11 10  1  1
 11 12  1  0
 11 13  1  0
 12  5  1  0
 13 17  1  0
 14 13  2  0
 16 15  1  1
 16 18  1  0
 17 16  1  0
 18 19  2  0
 18 20  1  0
M  END
$$$$
