SMA.pdb
     RDKit          3D

 20 19  0  0  1  0  0  0  0  0999 V2000
    8.5531  -18.4827   20.9265 O   0  0  0  0  0  0  0  0  0  0  0  0
    7.5994  -17.5060   20.6498 C   0  0  0  0  0  0  0  0  0  0  0  0
    8.2728  -16.1562   20.5663 C   0  0  2  0  0  0  0  0  0  0  0  0
    9.3891  -16.2335   19.6659 N   0  0  0  0  0  0  0  0  0  0  0  0
    8.7886  -15.7615   21.9036 C   0  0  0  0  0  0  0  0  0  0  0  0
   10.0328  -15.8332   22.1502 O   0  0  0  0  0  0  0  0  0  0  0  0
    6.2305  -11.2147   25.8195 C   0  0  0  0  0  0  0  0  0  0  0  0
    6.8302  -12.4159   27.0424 S   0  0  0  0  0  0  0  0  0  0  0  0
    8.0116  -13.5513   26.2652 C   0  0  0  0  0  0  0  0  0  0  0  0
    7.4020  -14.0028   24.9546 C   0  0  0  0  0  0  0  0  0  0  0  0
    8.3999  -14.8844   24.2416 C   0  0  2  0  0  0  0  0  0  0  0  0
    7.9516  -15.2976   22.9467 N   0  0  0  0  0  0  0  0  0  0  0  0
    8.7374  -16.0833   25.0554 C   0  0  0  0  0  0  0  0  0  0  0  0
    7.8530  -16.9632   25.2869 O   0  0  0  0  0  0  0  0  0  0  0  0
   11.7969  -17.8208   25.9590 C   0  0  0  0  0  0  0  0  0  0  0  0
   10.3480  -17.4821   26.2999 C   0  0  2  0  0  0  0  0  0  0  0  0
   10.0379  -16.2636   25.5816 N   0  0  0  0  0  0  0  0  0  0  0  0
   10.3136  -17.2649   27.7759 C   0  0  0  0  0  0  0  0  0  0  0  0
   10.0698  -16.1124   28.1913 O   0  0  0  0  0  0  0  0  0  0  0  0
   10.5523  -18.3453   28.6082 O   0  0  0  0  0  0  0  0  0  0  0  0
  2  3  1  0
  2  1  1  0
  3  4  1  6
  5  3  1  0
  5  6  2  0
  8  7  1  0
  9  8  1  0
  9 10  1  0
 11 10  1  1
 11 12  1  0
 11 13  1  0
 12  5  1  0
 13 17  1  0
 14 13  2  0
 16 15  1  6
 16 18  1  0
 17 16  1  0
 18 19  2  0
 18 20  1  0
M  END
$$$$
