SMA.pdb
     RDKit          3D

 20 19  0  0  1  0  0  0  0  0999 V2000
    7.7457  -18.1077   20.4656 O   0  0  0  0  0  0  0  0  0  0  0  0
    6.7441  -17.2245   20.0696 C   0  0  0  0  0  0  0  0  0  0  0  0
    7.3416  -15.8551   19.8469 C   0  0  2  0  0  0  0  0  0  0  0  0
    8.3197  -15.9248   18.7974 N   0  0  0  0  0  0  0  0  0  0  0  0
    8.0268  -15.3919   21.0824 C   0  0  0  0  0  0  0  0  0  0  0  0
    9.2912  -15.4728   21.1749 O   0  0  0  0  0  0  0  0  0  0  0  0
    7.3990  -11.7793   28.1192 C   0  0  0  0  0  0  0  0  0  0  0  0
    6.5779  -12.3137   26.5901 S   0  0  0  0  0  0  0  0  0  0  0  0
    7.7394  -13.2516   25.5605 C   0  0  0  0  0  0  0  0  0  0  0  0
    7.0203  -13.5923   24.2720 C   0  0  0  0  0  0  0  0  0  0  0  0
    7.9401  -14.4340   23.4193 C   0  0  2  0  0  0  0  0  0  0  0  0
    7.3336  -14.8514   22.1919 N   0  0  0  0  0  0  0  0  0  0  0  0
    8.4234  -15.6275   24.1646 C   0  0  0  0  0  0  0  0  0  0  0  0
    7.6212  -16.5707   24.4421 O   0  0  0  0  0  0  0  0  0  0  0  0
   11.6998  -17.1146   24.7742 C   0  0  0  0  0  0  0  0  0  0  0  0
   10.2353  -16.9651   25.1781 C   0  0  2  0  0  0  0  0  0  0  0  0
    9.7731  -15.7328   24.5741 N   0  0  0  0  0  0  0  0  0  0  0  0
   10.2276  -16.8750   26.6676 C   0  0  0  0  0  0  0  0  0  0  0  0
    9.8161  -15.8160   27.1867 O   0  0  0  0  0  0  0  0  0  0  0  0
   10.6743  -17.9634   27.3975 O   0  0  0  0  0  0  0  0  0  0  0  0
  2  3  1  0
  2  1  1  0
  3  4  1  6
  5  3  1  0
  5  6  2  0
  8  7  1  0
  9  8  1  0
  9 10  1  0
 11 10  1  1
 11 12  1  0
 11 13  1  0
 12  5  1  0
 13 17  1  0
 14 13  2  0
 16 15  1  6
 16 18  1  0
 17 16  1  0
 18 19  2  0
 18 20  1  0
M  END
$$$$
