SMA.pdb
     RDKit          3D

 20 19  0  0  1  0  0  0  0  0999 V2000
    7.9594  -16.1974   19.5770 O   0  0  0  0  0  0  0  0  0  0  0  0
    6.8598  -15.3448   19.5144 C   0  0  0  0  0  0  0  0  0  0  0  0
    7.2837  -13.9491   19.9073 C   0  0  2  0  0  0  0  0  0  0  0  0
    8.2324  -13.4504   18.9512 N   0  0  0  0  0  0  0  0  0  0  0  0
    7.9443  -13.9740   21.2389 C   0  0  0  0  0  0  0  0  0  0  0  0
    9.2114  -14.0198   21.3178 O   0  0  0  0  0  0  0  0  0  0  0  0
    6.6175  -10.7063   27.1461 C   0  0  0  0  0  0  0  0  0  0  0  0
    6.5525  -12.5108   27.3403 S   0  0  0  0  0  0  0  0  0  0  0  0
    7.6450  -13.3023   26.1283 C   0  0  0  0  0  0  0  0  0  0  0  0
    6.9098  -13.3145   24.8045 C   0  0  0  0  0  0  0  0  0  0  0  0
    7.8120  -13.9320   23.7622 C   0  0  2  0  0  0  0  0  0  0  0  0
    7.2243  -13.9490   22.4574 N   0  0  0  0  0  0  0  0  0  0  0  0
    8.2101  -15.3136   24.1447 C   0  0  0  0  0  0  0  0  0  0  0  0
    7.3818  -16.2679   24.0300 O   0  0  0  0  0  0  0  0  0  0  0  0
   11.1940  -17.2483   24.4021 C   0  0  0  0  0  0  0  0  0  0  0  0
    9.8415  -16.9383   25.0383 C   0  0  2  0  0  0  0  0  0  0  0  0
    9.5069  -15.5872   24.6388 N   0  0  0  0  0  0  0  0  0  0  0  0
   10.0507  -17.0313   26.5130 C   0  0  0  0  0  0  0  0  0  0  0  0
    9.8555  -16.0043   27.1967 O   0  0  0  0  0  0  0  0  0  0  0  0
   10.4486  -18.2445   27.0484 O   0  0  0  0  0  0  0  0  0  0  0  0
  2  3  1  0
  2  1  1  0
  3  4  1  6
  5  3  1  0
  5  6  2  0
  8  7  1  0
  9  8  1  0
  9 10  1  0
 11 10  1  1
 11 12  1  0
 11 13  1  0
 12  5  1  0
 13 17  1  0
 14 13  2  0
 16 15  1  6
 16 18  1  0
 17 16  1  0
 18 19  2  0
 18 20  1  0
M  END
$$$$
