SMA.pdb
     RDKit          3D

 20 19  0  0  1  0  0  0  0  0999 V2000
    8.3981  -15.1166   18.4794 O   0  0  0  0  0  0  0  0  0  0  0  0
    9.0399  -14.9527   19.7046 C   0  0  0  0  0  0  0  0  0  0  0  0
    8.8044  -16.1740   20.5621 C   0  0  2  0  0  0  0  0  0  0  0  0
    7.4040  -16.4928   20.5660 N   0  0  0  0  0  0  0  0  0  0  0  0
    9.2161  -15.8985   21.9638 C   0  0  0  0  0  0  0  0  0  0  0  0
   10.4363  -15.6694   22.2333 O   0  0  0  0  0  0  0  0  0  0  0  0
    6.6391  -10.8630   26.0440 C   0  0  0  0  0  0  0  0  0  0  0  0
    6.5524  -12.6698   26.2049 S   0  0  0  0  0  0  0  0  0  0  0  0
    7.6339  -13.4519   24.9771 C   0  0  0  0  0  0  0  0  0  0  0  0
    7.5307  -14.9491   25.1795 C   0  0  0  0  0  0  0  0  0  0  0  0
    8.6474  -15.6138   24.4096 C   0  0  2  0  0  0  0  0  0  0  0  0
    8.3031  -15.8758   23.0453 N   0  0  0  0  0  0  0  0  0  0  0  0
    9.0745  -16.8793   25.0650 C   0  0  0  0  0  0  0  0  0  0  0  0
    8.3093  -17.8913   25.0514 O   0  0  0  0  0  0  0  0  0  0  0  0
   12.2080  -18.4369   25.7744 C   0  0  0  0  0  0  0  0  0  0  0  0
   10.7610  -18.2596   26.2270 C   0  0  2  0  0  0  0  0  0  0  0  0
   10.3297  -16.9777   25.7096 N   0  0  0  0  0  0  0  0  0  0  0  0
   10.7949  -18.2583   27.7189 C   0  0  0  0  0  0  0  0  0  0  0  0
   10.4783  -17.2043   28.3096 O   0  0  0  0  0  0  0  0  0  0  0  0
   11.1734  -19.4190   28.3719 O   0  0  0  0  0  0  0  0  0  0  0  0
  2  3  1  0
  2  1  1  0
  3  4  1  1
  5  3  1  0
  5  6  2  0
  8  7  1  0
  9  8  1  0
  9 10  1  0
 11 10  1  1
 11 12  1  0
 11 13  1  0
 12  5  1  0
 13 17  1  0
 14 13  2  0
 16 15  1  6
 16 18  1  0
 17 16  1  0
 18 19  2  0
 18 20  1  0
M  END
$$$$
