VIH.pdb
     RDKit          3D

 26 26  0  0  1  0  0  0  0  0999 V2000
   27.9615  -19.4249  -18.9805 C   0  0  0  0  0  0  0  0  0  0  0  0
   27.2725  -20.2753  -17.9515 C   0  0  1  0  0  0  0  0  0  0  0  0
   28.2104  -21.0454  -17.0654 C   0  0  0  0  0  0  0  0  0  0  0  0
   26.1972  -19.5395  -17.1916 C   0  0  2  0  0  0  0  0  0  0  0  0
   26.8316  -18.3400  -16.6520 N   0  0  0  0  0  0  0  0  0  0  0  0
   25.5999  -20.3011  -16.0936 C   0  0  0  0  0  0  0  0  0  0  0  0
   24.8880  -21.3070  -16.3696 O   0  0  0  0  0  0  0  0  0  0  0  0
   27.9064  -20.8383  -11.1542 C   0  0  0  0  0  0  0  0  0  0  0  0
   27.1182  -21.1262  -12.4135 C   0  0  0  0  0  0  0  0  0  0  0  0
   25.7415  -20.4992  -12.3511 C   0  0  2  0  0  0  0  0  0  0  0  0
   24.9428  -21.0932  -11.2116 C   0  0  0  0  0  0  0  0  0  0  0  0
   25.0009  -20.6552  -13.6633 C   0  0  2  0  0  0  0  0  0  0  0  0
   25.7477  -20.0110  -14.7147 N   0  0  0  0  0  0  0  0  0  0  0  0
   23.6434  -20.0302  -13.5503 C   0  0  0  0  0  0  0  0  0  0  0  0
   23.5139  -18.8055  -13.2619 O   0  0  0  0  0  0  0  0  0  0  0  0
   22.4633  -20.7622  -13.7559 N   0  0  0  0  0  0  0  0  0  0  0  0
   21.1167  -20.1440  -13.7833 C   0  0  1  0  0  0  0  0  0  0  0  0
   21.0771  -19.3672  -15.0483 C   0  0  0  0  0  0  0  0  0  0  0  0
   19.8134  -18.7418  -15.4156 C   0  0  0  0  0  0  0  0  0  0  0  0
   18.5685  -18.6828  -14.8433 C   0  0  0  0  0  0  0  0  0  0  0  0
   17.7914  -17.8928  -15.6459 N   0  0  0  0  0  0  0  0  0  0  0  0
   18.5238  -17.4734  -16.6802 C   0  0  0  0  0  0  0  0  0  0  0  0
   19.7340  -17.9762  -16.5501 N   0  0  0  0  0  0  0  0  0  0  0  0
   20.1720  -21.3090  -13.9439 C   0  0  0  0  0  0  0  0  0  0  0  0
   18.8309  -21.1323  -13.7283 O   0  0  0  0  0  0  0  0  0  0  0  0
   20.5656  -22.4399  -14.2688 O   0  0  0  0  0  0  0  0  0  0  0  0
  2  4  1  0
  2  1  1  1
  3  2  1  0
  4  5  1  1
  4  6  1  0
  6  7  2  0
  8  9  1  0
 10 12  1  0
 10  9  1  0
 10 11  1  1
 12 14  1  0
 13  6  1  0
 12 13  1  6
 14 15  2  0
 16 17  1  0
 16 14  1  0
 17 24  1  0
 17 18  1  6
 19 20  2  0
 19 18  1  0
 21 20  1  0
 22 23  2  0
 22 21  1  0
 23 19  1  0
 24 26  2  0
 24 25  1  0
M  END
$$$$
