VIH.pdb
     RDKit          3D

 26 26  0  0  1  0  0  0  0  0999 V2000
   21.5478   -5.7581  -13.5854 C   0  0  0  0  0  0  0  0  0  0  0  0
   22.2589   -4.7182  -14.4039 C   0  0  1  0  0  0  0  0  0  0  0  0
   22.5461   -3.4444  -13.6603 C   0  0  0  0  0  0  0  0  0  0  0  0
   23.4523   -5.2594  -15.1507 C   0  0  2  0  0  0  0  0  0  0  0  0
   23.8249   -4.2308  -16.1179 N   0  0  0  0  0  0  0  0  0  0  0  0
   23.2068   -6.5167  -15.8587 C   0  0  0  0  0  0  0  0  0  0  0  0
   22.5559   -6.4871  -16.9405 O   0  0  0  0  0  0  0  0  0  0  0  0
   26.6438  -10.9129  -15.6877 C   0  0  0  0  0  0  0  0  0  0  0  0
   25.6862   -9.8372  -16.1522 C   0  0  0  0  0  0  0  0  0  0  0  0
   24.2784  -10.1137  -15.6687 C   0  0  2  0  0  0  0  0  0  0  0  0
   23.8129  -11.4708  -16.1493 C   0  0  0  0  0  0  0  0  0  0  0  0
   23.3170   -9.0297  -16.1109 C   0  0  2  0  0  0  0  0  0  0  0  0
   23.6408   -7.7976  -15.4361 N   0  0  0  0  0  0  0  0  0  0  0  0
   21.9140   -9.4368  -15.7762 C   0  0  0  0  0  0  0  0  0  0  0  0
   21.5747   -9.6778  -14.5818 O   0  0  0  0  0  0  0  0  0  0  0  0
   20.9192   -9.5693  -16.7577 N   0  0  0  0  0  0  0  0  0  0  0  0
   19.5280   -9.9812  -16.4558 C   0  0  1  0  0  0  0  0  0  0  0  0
   18.6738   -9.0205  -17.1991 C   0  0  0  0  0  0  0  0  0  0  0  0
   17.2311   -9.2157  -17.1396 C   0  0  0  0  0  0  0  0  0  0  0  0
   16.4041  -10.0631  -16.4477 C   0  0  0  0  0  0  0  0  0  0  0  0
   15.1181   -9.7322  -16.7779 N   0  0  0  0  0  0  0  0  0  0  0  0
   15.1412   -8.7156  -17.6429 C   0  0  0  0  0  0  0  0  0  0  0  0
   16.4006   -8.4006  -17.8643 N   0  0  0  0  0  0  0  0  0  0  0  0
   19.3799  -11.3239  -17.1272 C   0  0  0  0  0  0  0  0  0  0  0  0
   18.4168  -12.1975  -16.6966 O   0  0  0  0  0  0  0  0  0  0  0  0
   20.1063  -11.6761  -18.0695 O   0  0  0  0  0  0  0  0  0  0  0  0
  2  4  1  0
  2  1  1  1
  3  2  1  0
  4  5  1  6
  4  6  1  0
  6  7  2  0
  8  9  1  0
 10 12  1  0
 10  9  1  0
 10 11  1  6
 12 14  1  0
 13  6  1  0
 12 13  1  1
 14 15  2  0
 16 17  1  0
 16 14  1  0
 17 24  1  0
 17 18  1  6
 19 20  2  0
 19 18  1  0
 21 20  1  0
 22 23  2  0
 22 21  1  0
 23 19  1  0
 24 26  2  0
 24 25  1  0
M  END
$$$$
