VIH.pdb
     RDKit          3D

 26 26  0  0  1  0  0  0  0  0999 V2000
   16.4981  -30.3955  -15.9095 C   0  0  0  0  0  0  0  0  0  0  0  0
   17.7469  -30.7762  -15.1663 C   0  0  1  0  0  0  0  0  0  0  0  0
   19.0170  -30.4991  -15.9201 C   0  0  0  0  0  0  0  0  0  0  0  0
   17.7716  -30.2751  -13.7439 C   0  0  2  0  0  0  0  0  0  0  0  0
   17.6906  -28.8194  -13.8262 N   0  0  0  0  0  0  0  0  0  0  0  0
   18.9698  -30.6467  -12.9897 C   0  0  0  0  0  0  0  0  0  0  0  0
   19.2034  -31.8709  -12.7861 O   0  0  0  0  0  0  0  0  0  0  0  0
   22.2385  -26.8907  -12.7593 C   0  0  0  0  0  0  0  0  0  0  0  0
   22.5389  -28.3639  -12.5867 C   0  0  0  0  0  0  0  0  0  0  0  0
   21.8884  -28.9104  -11.3336 C   0  0  2  0  0  0  0  0  0  0  0  0
   22.9379  -29.2327  -10.2925 C   0  0  0  0  0  0  0  0  0  0  0  0
   21.0403  -30.1289  -11.6349 C   0  0  2  0  0  0  0  0  0  0  0  0
   19.9178  -29.7413  -12.4522 N   0  0  0  0  0  0  0  0  0  0  0  0
   20.5495  -30.7279  -10.3518 C   0  0  0  0  0  0  0  0  0  0  0  0
   19.7587  -30.0909   -9.5978 O   0  0  0  0  0  0  0  0  0  0  0  0
   20.9373  -32.0087   -9.9277 N   0  0  0  0  0  0  0  0  0  0  0  0
   20.5021  -32.6071   -8.6437 C   0  0  1  0  0  0  0  0  0  0  0  0
   20.5197  -34.0733   -8.8785 C   0  0  0  0  0  0  0  0  0  0  0  0
   20.1738  -34.9392   -7.7589 C   0  0  0  0  0  0  0  0  0  0  0  0
   19.8082  -34.7234   -6.4548 C   0  0  0  0  0  0  0  0  0  0  0  0
   19.5589  -35.9477   -5.8968 N   0  0  0  0  0  0  0  0  0  0  0  0
   19.7602  -36.8925   -6.8183 C   0  0  0  0  0  0  0  0  0  0  0  0
   20.1279  -36.2980   -7.9344 N   0  0  0  0  0  0  0  0  0  0  0  0
   21.6234  -32.2942   -7.6844 C   0  0  0  0  0  0  0  0  0  0  0  0
   21.3912  -32.3191   -6.3347 O   0  0  0  0  0  0  0  0  0  0  0  0
   22.7669  -32.0103   -8.0735 O   0  0  0  0  0  0  0  0  0  0  0  0
  2  4  1  0
  2  1  1  6
  3  2  1  0
  4  5  1  6
  4  6  1  0
  6  7  2  0
  8  9  1  0
 10 12  1  0
 10  9  1  0
 10 11  1  1
 12 14  1  0
 13  6  1  0
 12 13  1  6
 14 15  2  0
 16 17  1  0
 16 14  1  0
 17 24  1  0
 17 18  1  6
 19 20  2  0
 19 18  1  0
 21 20  1  0
 22 23  2  0
 22 21  1  0
 23 19  1  0
 24 26  2  0
 24 25  1  0
M  END
$$$$
