VIH.pdb
     RDKit          3D

 26 26  0  0  1  0  0  0  0  0999 V2000
   19.1484  -22.9185  -10.0222 C   0  0  0  0  0  0  0  0  0  0  0  0
   19.9498  -21.9062  -10.7903 C   0  0  1  0  0  0  0  0  0  0  0  0
   19.1604  -20.7055  -11.2298 C   0  0  0  0  0  0  0  0  0  0  0  0
   21.2589  -21.5545  -10.1289 C   0  0  2  0  0  0  0  0  0  0  0  0
   20.9134  -20.8927   -8.8739 N   0  0  0  0  0  0  0  0  0  0  0  0
   22.1189  -20.6698  -10.9164 C   0  0  0  0  0  0  0  0  0  0  0  0
   22.0004  -19.4210  -10.7710 O   0  0  0  0  0  0  0  0  0  0  0  0
   27.3288  -21.4392  -11.3061 C   0  0  0  0  0  0  0  0  0  0  0  0
   25.9170  -20.8963  -11.2586 C   0  0  0  0  0  0  0  0  0  0  0  0
   25.3465  -20.7368  -12.6519 C   0  0  2  0  0  0  0  0  0  0  0  0
   26.2380  -19.8447  -13.4878 C   0  0  0  0  0  0  0  0  0  0  0  0
   23.9318  -20.1963  -12.6135 C   0  0  2  0  0  0  0  0  0  0  0  0
   23.0975  -21.0908  -11.8505 N   0  0  0  0  0  0  0  0  0  0  0  0
   23.4022  -20.0779  -14.0105 C   0  0  0  0  0  0  0  0  0  0  0  0
   23.3841  -21.0773  -14.7855 O   0  0  0  0  0  0  0  0  0  0  0  0
   22.9062  -18.8685  -14.5225 N   0  0  0  0  0  0  0  0  0  0  0  0
   22.2731  -18.7487  -15.8570 C   0  0  1  0  0  0  0  0  0  0  0  0
   21.7876  -17.3471  -15.9266 C   0  0  0  0  0  0  0  0  0  0  0  0
   21.2733  -16.8749  -17.2055 C   0  0  0  0  0  0  0  0  0  0  0  0
   21.0801  -17.4509  -18.4350 C   0  0  0  0  0  0  0  0  0  0  0  0
   20.5108  -16.5029  -19.2408 N   0  0  0  0  0  0  0  0  0  0  0  0
   20.3533  -15.3773  -18.5404 C   0  0  0  0  0  0  0  0  0  0  0  0
   20.8064  -15.5913  -17.3225 N   0  0  0  0  0  0  0  0  0  0  0  0
   23.4198  -18.8737  -16.8292 C   0  0  0  0  0  0  0  0  0  0  0  0
   23.2671  -19.6166  -17.9698 O   0  0  0  0  0  0  0  0  0  0  0  0
   24.5144  -18.3223  -16.6355 O   0  0  0  0  0  0  0  0  0  0  0  0
  2  4  1  0
  2  1  1  1
  3  2  1  0
  4  5  1  1
  4  6  1  0
  6  7  2  0
  8  9  1  0
 10 12  1  0
 10  9  1  0
 10 11  1  6
 12 14  1  0
 13  6  1  0
 12 13  1  1
 14 15  2  0
 16 17  1  0
 16 14  1  0
 17 24  1  0
 17 18  1  1
 19 20  2  0
 19 18  1  0
 21 20  1  0
 22 23  2  0
 22 21  1  0
 23 19  1  0
 24 26  2  0
 24 25  1  0
M  END
$$$$
