VIH.pdb
     RDKit          3D

 26 26  0  0  1  0  0  0  0  0999 V2000
   26.7115  -18.1181  -18.4357 C   0  0  0  0  0  0  0  0  0  0  0  0
   25.8981  -18.9986  -17.5303 C   0  0  1  0  0  0  0  0  0  0  0  0
   24.7354  -19.6669  -18.2082 C   0  0  0  0  0  0  0  0  0  0  0  0
   26.7359  -19.9435  -16.7055 C   0  0  2  0  0  0  0  0  0  0  0  0
   27.3277  -20.8881  -17.6488 N   0  0  0  0  0  0  0  0  0  0  0  0
   25.9905  -20.6857  -15.6877 C   0  0  0  0  0  0  0  0  0  0  0  0
   25.2881  -21.6714  -16.0480 O   0  0  0  0  0  0  0  0  0  0  0  0
   25.6001  -21.6988   -9.5813 C   0  0  0  0  0  0  0  0  0  0  0  0
   24.9370  -21.7322  -10.9411 C   0  0  0  0  0  0  0  0  0  0  0  0
   25.7847  -21.0278  -11.9791 C   0  0  2  0  0  0  0  0  0  0  0  0
   26.0799  -19.6090  -11.5443 C   0  0  0  0  0  0  0  0  0  0  0  0
   25.1214  -21.0441  -13.3410 C   0  0  2  0  0  0  0  0  0  0  0  0
   25.9811  -20.3972  -14.3005 N   0  0  0  0  0  0  0  0  0  0  0  0
   23.8100  -20.3222  -13.2687 C   0  0  0  0  0  0  0  0  0  0  0  0
   23.7642  -19.0791  -13.0398 O   0  0  0  0  0  0  0  0  0  0  0  0
   22.5831  -20.9801  -13.4487 N   0  0  0  0  0  0  0  0  0  0  0  0
   21.2726  -20.2916  -13.3782 C   0  0  1  0  0  0  0  0  0  0  0  0
   20.5519  -20.7121  -14.6065 C   0  0  0  0  0  0  0  0  0  0  0  0
   20.8841  -20.0289  -15.8498 C   0  0  0  0  0  0  0  0  0  0  0  0
   21.7057  -18.9818  -16.1808 C   0  0  0  0  0  0  0  0  0  0  0  0
   21.6355  -18.8261  -17.5384 N   0  0  0  0  0  0  0  0  0  0  0  0
   20.8021  -19.7423  -18.0367 C   0  0  0  0  0  0  0  0  0  0  0  0
   20.3487  -20.4656  -17.0339 N   0  0  0  0  0  0  0  0  0  0  0  0
   20.5731  -20.9349  -12.2067 C   0  0  0  0  0  0  0  0  0  0  0  0
   21.0701  -22.0926  -11.6693 O   0  0  0  0  0  0  0  0  0  0  0  0
   19.5487  -20.4509  -11.7008 O   0  0  0  0  0  0  0  0  0  0  0  0
  2  4  1  0
  2  1  1  6
  3  2  1  0
  4  5  1  6
  4  6  1  0
  6  7  2  0
  8  9  1  0
 10 12  1  0
 10  9  1  0
 10 11  1  1
 12 14  1  0
 13  6  1  0
 12 13  1  6
 14 15  2  0
 16 17  1  0
 16 14  1  0
 17 24  1  0
 17 18  1  6
 19 20  2  0
 19 18  1  0
 21 20  1  0
 22 23  2  0
 22 21  1  0
 23 19  1  0
 24 26  2  0
 24 25  1  0
M  END
$$$$
