VIH.pdb
     RDKit          3D

 26 26  0  0  1  0  0  0  0  0999 V2000
   19.3646  -13.1324  -15.5159 C   0  0  0  0  0  0  0  0  0  0  0  0
   18.5964  -13.9985  -16.4733 C   0  0  1  0  0  0  0  0  0  0  0  0
   18.4874  -15.4354  -16.0473 C   0  0  0  0  0  0  0  0  0  0  0  0
   17.2801  -13.3971  -16.8982 C   0  0  2  0  0  0  0  0  0  0  0  0
   16.7523  -14.2735  -17.9402 N   0  0  0  0  0  0  0  0  0  0  0  0
   17.3760  -12.0336  -17.4218 C   0  0  0  0  0  0  0  0  0  0  0  0
   18.0384  -11.8344  -18.4784 O   0  0  0  0  0  0  0  0  0  0  0  0
   13.2259   -9.7963  -17.6950 C   0  0  0  0  0  0  0  0  0  0  0  0
   14.5555   -9.4558  -18.3323 C   0  0  0  0  0  0  0  0  0  0  0  0
   15.5184   -8.8837  -17.3136 C   0  0  2  0  0  0  0  0  0  0  0  0
   15.6518   -7.3876  -17.4963 C   0  0  0  0  0  0  0  0  0  0  0  0
   16.8735   -9.5562  -17.3923 C   0  0  2  0  0  0  0  0  0  0  0  0
   16.7814  -10.8856  -16.8422 N   0  0  0  0  0  0  0  0  0  0  0  0
   17.8762   -8.7560  -16.6174 C   0  0  0  0  0  0  0  0  0  0  0  0
   17.8001   -8.6626  -15.3584 O   0  0  0  0  0  0  0  0  0  0  0  0
   18.9359   -8.0788  -17.2413 N   0  0  0  0  0  0  0  0  0  0  0  0
   19.9303   -7.2665  -16.5013 C   0  0  1  0  0  0  0  0  0  0  0  0
   21.0657   -7.0985  -17.4435 C   0  0  0  0  0  0  0  0  0  0  0  0
   22.1351   -6.1886  -17.0545 C   0  0  0  0  0  0  0  0  0  0  0  0
   22.4244   -5.4756  -15.9192 C   0  0  0  0  0  0  0  0  0  0  0  0
   23.6096   -4.8282  -16.1393 N   0  0  0  0  0  0  0  0  0  0  0  0
   24.0447   -5.1265  -17.3656 C   0  0  0  0  0  0  0  0  0  0  0  0
   23.1691   -5.9395  -17.9195 N   0  0  0  0  0  0  0  0  0  0  0  0
   19.2732   -5.9173  -16.3474 C   0  0  0  0  0  0  0  0  0  0  0  0
   19.5035   -5.1728  -15.2209 O   0  0  0  0  0  0  0  0  0  0  0  0
   18.5200   -5.4458  -17.2133 O   0  0  0  0  0  0  0  0  0  0  0  0
  2  4  1  0
  2  1  1  1
  3  2  1  0
  4  5  1  6
  4  6  1  0
  6  7  2  0
  8  9  1  0
 10 12  1  0
 10  9  1  0
 10 11  1  6
 12 14  1  0
 13  6  1  0
 12 13  1  1
 14 15  2  0
 16 17  1  0
 16 14  1  0
 17 24  1  0
 17 18  1  6
 19 20  2  0
 19 18  1  0
 21 20  1  0
 22 23  2  0
 22 21  1  0
 23 19  1  0
 24 26  2  0
 24 25  1  0
M  END
$$$$
