VIH.pdb
     RDKit          3D

 26 26  0  0  1  0  0  0  0  0999 V2000
   25.7946  -16.8742  -15.5572 C   0  0  0  0  0  0  0  0  0  0  0  0
   26.7966  -17.3672  -16.5621 C   0  0  1  0  0  0  0  0  0  0  0  0
   27.4352  -16.2774  -17.3760 C   0  0  0  0  0  0  0  0  0  0  0  0
   27.7891  -18.3455  -15.9853 C   0  0  2  0  0  0  0  0  0  0  0  0
   28.4697  -18.9517  -17.1261 N   0  0  0  0  0  0  0  0  0  0  0  0
   27.1943  -19.4020  -15.1652 C   0  0  0  0  0  0  0  0  0  0  0  0
   26.4404  -20.2494  -15.7205 O   0  0  0  0  0  0  0  0  0  0  0  0
   29.8408  -21.5147  -10.9746 C   0  0  0  0  0  0  0  0  0  0  0  0
   28.9299  -21.3750  -12.1749 C   0  0  0  0  0  0  0  0  0  0  0  0
   27.5535  -20.8974  -11.7629 C   0  0  2  0  0  0  0  0  0  0  0  0
   26.8685  -21.9394  -10.9058 C   0  0  0  0  0  0  0  0  0  0  0  0
   26.7030  -20.5507  -12.9676 C   0  0  2  0  0  0  0  0  0  0  0  0
   27.3882  -19.5700  -13.7718 N   0  0  0  0  0  0  0  0  0  0  0  0
   25.3864  -19.9998  -12.5100 C   0  0  0  0  0  0  0  0  0  0  0  0
   25.3341  -19.0291  -11.7008 O   0  0  0  0  0  0  0  0  0  0  0  0
   24.1617  -20.5260  -12.9502 N   0  0  0  0  0  0  0  0  0  0  0  0
   22.8477  -19.9538  -12.5730 C   0  0  1  0  0  0  0  0  0  0  0  0
   22.0376  -20.0011  -13.8167 C   0  0  0  0  0  0  0  0  0  0  0  0
   20.6284  -19.6445  -13.7168 C   0  0  0  0  0  0  0  0  0  0  0  0
   19.9399  -18.5943  -13.1655 C   0  0  0  0  0  0  0  0  0  0  0  0
   18.6136  -18.7932  -13.4370 N   0  0  0  0  0  0  0  0  0  0  0  0
   18.4791  -19.9247  -14.1326 C   0  0  0  0  0  0  0  0  0  0  0  0
   19.6788  -20.4397  -14.3044 N   0  0  0  0  0  0  0  0  0  0  0  0
   22.2595  -20.9621  -11.6174 C   0  0  0  0  0  0  0  0  0  0  0  0
   21.1941  -20.6130  -10.8305 O   0  0  0  0  0  0  0  0  0  0  0  0
   22.7082  -22.1142  -11.5126 O   0  0  0  0  0  0  0  0  0  0  0  0
  2  4  1  0
  2  1  1  1
  3  2  1  0
  4  5  1  6
  4  6  1  0
  6  7  2  0
  8  9  1  0
 10 12  1  0
 10  9  1  0
 10 11  1  6
 12 14  1  0
 13  6  1  0
 12 13  1  6
 14 15  2  0
 16 17  1  0
 16 14  1  0
 17 24  1  0
 17 18  1  6
 19 20  2  0
 19 18  1  0
 21 20  1  0
 22 23  2  0
 22 21  1  0
 23 19  1  0
 24 26  2  0
 24 25  1  0
M  END
$$$$
