VIH.pdb
     RDKit          3D

 26 26  0  0  1  0  0  0  0  0999 V2000
   17.4209  -14.9095  -17.8330 C   0  0  0  0  0  0  0  0  0  0  0  0
   17.9512  -13.8988  -16.8564 C   0  0  1  0  0  0  0  0  0  0  0  0
   18.8557  -14.4781  -15.8055 C   0  0  0  0  0  0  0  0  0  0  0  0
   18.5136  -12.6660  -17.5189 C   0  0  2  0  0  0  0  0  0  0  0  0
   19.5866  -13.1304  -18.3937 N   0  0  0  0  0  0  0  0  0  0  0  0
   19.0491  -11.6685  -16.5912 C   0  0  0  0  0  0  0  0  0  0  0  0
   18.2737  -11.1575  -15.7355 O   0  0  0  0  0  0  0  0  0  0  0  0
   24.2524  -11.6548  -14.7905 C   0  0  0  0  0  0  0  0  0  0  0  0
   22.7485  -11.5277  -14.9004 C   0  0  0  0  0  0  0  0  0  0  0  0
   22.3579  -10.2265  -15.5685 C   0  0  2  0  0  0  0  0  0  0  0  0
   22.8922   -9.0491  -14.7825 C   0  0  0  0  0  0  0  0  0  0  0  0
   20.8566  -10.1196  -15.7399 C   0  0  2  0  0  0  0  0  0  0  0  0
   20.3891  -11.2091  -16.5600 N   0  0  0  0  0  0  0  0  0  0  0  0
   20.5181   -8.8135  -16.3922 C   0  0  0  0  0  0  0  0  0  0  0  0
   20.8770   -8.5680  -17.5800 O   0  0  0  0  0  0  0  0  0  0  0  0
   19.7957   -7.8102  -15.7272 N   0  0  0  0  0  0  0  0  0  0  0  0
   19.4148   -6.5259  -16.3610 C   0  0  1  0  0  0  0  0  0  0  0  0
   17.9687   -6.3658  -16.0639 C   0  0  0  0  0  0  0  0  0  0  0  0
   17.3504   -5.0884  -16.3943 C   0  0  0  0  0  0  0  0  0  0  0  0
   17.7689   -3.9601  -17.0519 C   0  0  0  0  0  0  0  0  0  0  0  0
   16.7077   -3.0971  -17.0899 N   0  0  0  0  0  0  0  0  0  0  0  0
   15.6653   -3.6656  -16.4797 C   0  0  0  0  0  0  0  0  0  0  0  0
   16.0410   -4.8564  -16.0611 N   0  0  0  0  0  0  0  0  0  0  0  0
   20.1538   -5.4800  -15.5638 C   0  0  0  0  0  0  0  0  0  0  0  0
   20.2641   -4.2047  -16.0513 O   0  0  0  0  0  0  0  0  0  0  0  0
   20.6749   -5.7308  -14.4660 O   0  0  0  0  0  0  0  0  0  0  0  0
  2  4  1  0
  2  1  1  6
  3  2  1  0
  4  5  1  6
  4  6  1  0
  6  7  2  0
  8  9  1  0
 10 12  1  0
 10  9  1  0
 10 11  1  1
 12 14  1  0
 13  6  1  0
 12 13  1  6
 14 15  2  0
 16 17  1  0
 16 14  1  0
 17 24  1  0
 17 18  1  1
 19 20  2  0
 19 18  1  0
 21 20  1  0
 22 23  2  0
 22 21  1  0
 23 19  1  0
 24 26  2  0
 24 25  1  0
M  END
$$$$
