VIH.pdb
     RDKit          3D

 26 26  0  0  1  0  0  0  0  0999 V2000
   27.5319  -15.6226  -16.1539 C   0  0  0  0  0  0  0  0  0  0  0  0
   26.5947  -16.7364  -15.7824 C   0  0  1  0  0  0  0  0  0  0  0  0
   25.4467  -16.9146  -16.7354 C   0  0  0  0  0  0  0  0  0  0  0  0
   27.3023  -18.0256  -15.4473 C   0  0  2  0  0  0  0  0  0  0  0  0
   27.9668  -18.4535  -16.6752 N   0  0  0  0  0  0  0  0  0  0  0  0
   26.4222  -19.0977  -14.9798 C   0  0  0  0  0  0  0  0  0  0  0  0
   25.9634  -19.9176  -15.8236 O   0  0  0  0  0  0  0  0  0  0  0  0
   27.3495  -21.3212  -10.1593 C   0  0  0  0  0  0  0  0  0  0  0  0
   26.9833  -21.1238  -11.6143 C   0  0  0  0  0  0  0  0  0  0  0  0
   25.5244  -20.7478  -11.7637 C   0  0  2  0  0  0  0  0  0  0  0  0
   24.6376  -21.8667  -11.2629 C   0  0  0  0  0  0  0  0  0  0  0  0
   25.1860  -20.3969  -13.1981 C   0  0  2  0  0  0  0  0  0  0  0  0
   26.0255  -19.3099  -13.6363 N   0  0  0  0  0  0  0  0  0  0  0  0
   23.7457  -19.9927  -13.2890 C   0  0  0  0  0  0  0  0  0  0  0  0
   23.2860  -19.0595  -12.5697 O   0  0  0  0  0  0  0  0  0  0  0  0
   22.8464  -20.6208  -14.1650 N   0  0  0  0  0  0  0  0  0  0  0  0
   21.4521  -20.1612  -14.3670 C   0  0  1  0  0  0  0  0  0  0  0  0
   21.0995  -20.5985  -15.7416 C   0  0  0  0  0  0  0  0  0  0  0  0
   19.7380  -20.3526  -16.1985 C   0  0  0  0  0  0  0  0  0  0  0  0
   18.6239  -19.7840  -15.6361 C   0  0  0  0  0  0  0  0  0  0  0  0
   17.6407  -19.7936  -16.5878 N   0  0  0  0  0  0  0  0  0  0  0  0
   18.1232  -20.3465  -17.7030 C   0  0  0  0  0  0  0  0  0  0  0  0
   19.3765  -20.6833  -17.4789 N   0  0  0  0  0  0  0  0  0  0  0  0
   20.6390  -20.9964  -13.4095 C   0  0  0  0  0  0  0  0  0  0  0  0
   19.4606  -20.5071  -12.9112 O   0  0  0  0  0  0  0  0  0  0  0  0
   20.9991  -22.1275  -13.0482 O   0  0  0  0  0  0  0  0  0  0  0  0
  2  4  1  0
  2  1  1  6
  3  2  1  0
  4  5  1  6
  4  6  1  0
  6  7  2  0
  8  9  1  0
 10 12  1  0
 10  9  1  0
 10 11  1  6
 12 14  1  0
 13  6  1  0
 12 13  1  1
 14 15  2  0
 16 17  1  0
 16 14  1  0
 17 24  1  0
 17 18  1  6
 19 20  2  0
 19 18  1  0
 21 20  1  0
 22 23  2  0
 22 21  1  0
 23 19  1  0
 24 26  2  0
 24 25  1  0
M  END
$$$$
