VIH.pdb
     RDKit          3D

 26 26  0  0  1  0  0  0  0  0999 V2000
   17.3610  -24.1556   -7.1039 C   0  0  0  0  0  0  0  0  0  0  0  0
   18.2125  -22.9701   -7.4595 C   0  0  1  0  0  0  0  0  0  0  0  0
   18.5786  -22.1049   -6.2867 C   0  0  0  0  0  0  0  0  0  0  0  0
   19.3884  -23.3209   -8.3365 C   0  0  2  0  0  0  0  0  0  0  0  0
   20.2458  -24.1900   -7.5355 N   0  0  0  0  0  0  0  0  0  0  0  0
   20.1677  -22.1704   -8.7965 C   0  0  0  0  0  0  0  0  0  0  0  0
   19.5798  -21.2582   -9.4423 O   0  0  0  0  0  0  0  0  0  0  0  0
   25.2500  -20.7815   -6.7137 C   0  0  0  0  0  0  0  0  0  0  0  0
   23.8288  -20.7030   -7.2274 C   0  0  0  0  0  0  0  0  0  0  0  0
   23.7652  -21.0162   -8.7073 C   0  0  2  0  0  0  0  0  0  0  0  0
   24.6586  -20.0743   -9.4844 C   0  0  0  0  0  0  0  0  0  0  0  0
   22.3432  -20.9569   -9.2264 C   0  0  2  0  0  0  0  0  0  0  0  0
   21.5545  -21.9765   -8.5810 N   0  0  0  0  0  0  0  0  0  0  0  0
   22.3410  -21.1775  -10.7087 C   0  0  0  0  0  0  0  0  0  0  0  0
   22.8705  -22.2095  -11.2130 O   0  0  0  0  0  0  0  0  0  0  0  0
   21.7592  -20.2624  -11.6003 N   0  0  0  0  0  0  0  0  0  0  0  0
   21.7765  -20.4370  -13.0719 C   0  0  1  0  0  0  0  0  0  0  0  0
   20.9177  -19.3456  -13.5976 C   0  0  0  0  0  0  0  0  0  0  0  0
   20.9092  -19.1296  -15.0385 C   0  0  0  0  0  0  0  0  0  0  0  0
   21.2675  -19.8854  -16.1253 C   0  0  0  0  0  0  0  0  0  0  0  0
   20.9802  -19.1492  -17.2424 N   0  0  0  0  0  0  0  0  0  0  0  0
   20.4611  -17.9779  -16.8672 C   0  0  0  0  0  0  0  0  0  0  0  0
   20.4149  -17.9582  -15.5512 N   0  0  0  0  0  0  0  0  0  0  0  0
   23.1965  -20.1205  -13.4708 C   0  0  0  0  0  0  0  0  0  0  0  0
   23.6980  -20.6105  -14.6475 O   0  0  0  0  0  0  0  0  0  0  0  0
   23.9419  -19.4230  -12.7656 O   0  0  0  0  0  0  0  0  0  0  0  0
  2  4  1  0
  2  1  1  1
  3  2  1  0
  4  5  1  1
  4  6  1  0
  6  7  2  0
  8  9  1  0
 10 12  1  0
 10  9  1  0
 10 11  1  6
 12 14  1  0
 13  6  1  0
 12 13  1  1
 14 15  2  0
 16 17  1  0
 16 14  1  0
 17 24  1  0
 17 18  1  6
 19 20  2  0
 19 18  1  0
 21 20  1  0
 22 23  2  0
 22 21  1  0
 23 19  1  0
 24 26  2  0
 24 25  1  0
M  END
$$$$
