VIH.pdb
     RDKit          3D

 26 26  0  0  1  0  0  0  0  0999 V2000
   19.7872  -22.1084  -12.6235 C   0  0  0  0  0  0  0  0  0  0  0  0
   19.1349  -21.9377  -11.2810 C   0  0  1  0  0  0  0  0  0  0  0  0
   17.9318  -22.8126  -11.0687 C   0  0  0  0  0  0  0  0  0  0  0  0
   20.1127  -21.9730  -10.1332 C   0  0  2  0  0  0  0  0  0  0  0  0
   19.3626  -21.5617   -8.9497 N   0  0  0  0  0  0  0  0  0  0  0  0
   21.2719  -21.0940  -10.2954 C   0  0  0  0  0  0  0  0  0  0  0  0
   21.0763  -19.8657  -10.5137 O   0  0  0  0  0  0  0  0  0  0  0  0
   26.8564  -19.9020   -8.3158 C   0  0  0  0  0  0  0  0  0  0  0  0
   25.8705  -19.7600   -9.4551 C   0  0  0  0  0  0  0  0  0  0  0  0
   24.7409  -20.7598   -9.3272 C   0  0  2  0  0  0  0  0  0  0  0  0
   25.2889  -22.1684   -9.2567 C   0  0  0  0  0  0  0  0  0  0  0  0
   23.7504  -20.6263  -10.4656 C   0  0  2  0  0  0  0  0  0  0  0  0
   22.6279  -21.4994  -10.2291 N   0  0  0  0  0  0  0  0  0  0  0  0
   24.4167  -20.9966  -11.7560 C   0  0  0  0  0  0  0  0  0  0  0  0
   24.7887  -22.1849  -11.9777 O   0  0  0  0  0  0  0  0  0  0  0  0
   24.6584  -20.0561  -12.7698 N   0  0  0  0  0  0  0  0  0  0  0  0
   25.2474  -20.4089  -14.0832 C   0  0  1  0  0  0  0  0  0  0  0  0
   25.1593  -19.1650  -14.8894 C   0  0  0  0  0  0  0  0  0  0  0  0
   24.9272  -19.3049  -16.3211 C   0  0  0  0  0  0  0  0  0  0  0  0
   24.6937  -20.3666  -17.1572 C   0  0  0  0  0  0  0  0  0  0  0  0
   24.5016  -19.8579  -18.4128 N   0  0  0  0  0  0  0  0  0  0  0  0
   24.6100  -18.5283  -18.3625 C   0  0  0  0  0  0  0  0  0  0  0  0
   24.8642  -18.1894  -17.1155 N   0  0  0  0  0  0  0  0  0  0  0  0
   26.7072  -20.6483  -13.7880 C   0  0  0  0  0  0  0  0  0  0  0  0
   27.4294  -21.5048  -14.5761 O   0  0  0  0  0  0  0  0  0  0  0  0
   27.2912  -20.0922  -12.8449 O   0  0  0  0  0  0  0  0  0  0  0  0
  2  4  1  0
  2  1  1  6
  3  2  1  0
  4  5  1  1
  4  6  1  0
  6  7  2  0
  8  9  1  0
 10 12  1  0
 10  9  1  0
 10 11  1  6
 12 14  1  0
 13  6  1  0
 12 13  1  1
 14 15  2  0
 16 17  1  0
 16 14  1  0
 17 24  1  0
 17 18  1  6
 19 20  2  0
 19 18  1  0
 21 20  1  0
 22 23  2  0
 22 21  1  0
 23 19  1  0
 24 26  2  0
 24 25  1  0
M  END
$$$$
