VIH.pdb
     RDKit          3D

 26 26  0  0  1  0  0  0  0  0999 V2000
   26.4395  -11.1130  -15.8621 C   0  0  0  0  0  0  0  0  0  0  0  0
   26.4298  -12.3598  -16.7000 C   0  0  1  0  0  0  0  0  0  0  0  0
   27.6244  -13.2472  -16.4916 C   0  0  0  0  0  0  0  0  0  0  0  0
   25.1167  -13.1003  -16.6536 C   0  0  2  0  0  0  0  0  0  0  0  0
   25.2276  -14.1823  -17.6279 N   0  0  0  0  0  0  0  0  0  0  0  0
   23.9464  -12.2826  -16.9764 C   0  0  0  0  0  0  0  0  0  0  0  0
   23.8219  -11.8385  -18.1520 O   0  0  0  0  0  0  0  0  0  0  0  0
   19.5871  -14.0146  -16.2022 C   0  0  0  0  0  0  0  0  0  0  0  0
   20.1170  -12.8071  -16.9447 C   0  0  0  0  0  0  0  0  0  0  0  0
   20.5114  -11.7054  -15.9840 C   0  0  2  0  0  0  0  0  0  0  0  0
   19.4074  -10.6760  -15.8803 C   0  0  0  0  0  0  0  0  0  0  0  0
   21.8159  -11.0531  -16.3934 C   0  0  2  0  0  0  0  0  0  0  0  0
   22.9126  -11.9323  -16.0731 N   0  0  0  0  0  0  0  0  0  0  0  0
   21.9780   -9.7546  -15.6629 C   0  0  0  0  0  0  0  0  0  0  0  0
   22.1847   -9.7321  -14.4153 O   0  0  0  0  0  0  0  0  0  0  0  0
   21.9096   -8.5145  -16.3174 N   0  0  0  0  0  0  0  0  0  0  0  0
   22.1449   -7.2202  -15.6349 C   0  0  1  0  0  0  0  0  0  0  0  0
   22.5058   -6.2741  -16.7211 C   0  0  0  0  0  0  0  0  0  0  0  0
   22.6914   -4.8744  -16.3613 C   0  0  0  0  0  0  0  0  0  0  0  0
   23.5022   -3.8654  -16.8145 C   0  0  0  0  0  0  0  0  0  0  0  0
   23.1808   -2.7395  -16.1064 N   0  0  0  0  0  0  0  0  0  0  0  0
   22.2052   -3.0341  -15.2442 C   0  0  0  0  0  0  0  0  0  0  0  0
   21.9065   -4.3084  -15.3902 N   0  0  0  0  0  0  0  0  0  0  0  0
   20.7860   -6.8142  -15.1211 C   0  0  0  0  0  0  0  0  0  0  0  0
   20.6870   -6.0535  -13.9862 O   0  0  0  0  0  0  0  0  0  0  0  0
   19.7362   -7.1460  -15.6932 O   0  0  0  0  0  0  0  0  0  0  0  0
  2  4  1  0
  2  1  1  1
  3  2  1  0
  4  5  1  6
  4  6  1  0
  6  7  2  0
  8  9  1  0
 10 12  1  0
 10  9  1  0
 10 11  1  6
 12 14  1  0
 13  6  1  0
 12 13  1  1
 14 15  2  0
 16 17  1  0
 16 14  1  0
 17 24  1  0
 17 18  1  6
 19 20  2  0
 19 18  1  0
 21 20  1  0
 22 23  2  0
 22 21  1  0
 23 19  1  0
 24 26  2  0
 24 25  1  0
M  END
$$$$
