VIH.pdb
     RDKit          3D

 26 26  0  0  1  0  0  0  0  0999 V2000
   22.7424  -11.0156  -22.3717 C   0  0  0  0  0  0  0  0  0  0  0  0
   22.0358  -10.4285  -21.1830 C   0  0  1  0  0  0  0  0  0  0  0  0
   20.6267   -9.9886  -21.4636 C   0  0  0  0  0  0  0  0  0  0  0  0
   22.1656  -11.2678  -19.9366 C   0  0  2  0  0  0  0  0  0  0  0  0
   21.4635  -12.5175  -20.2152 N   0  0  0  0  0  0  0  0  0  0  0  0
   21.5998  -10.6582  -18.7321 C   0  0  0  0  0  0  0  0  0  0  0  0
   20.3750  -10.8349  -18.4805 O   0  0  0  0  0  0  0  0  0  0  0  0
   23.8606  -11.2059  -14.0517 C   0  0  0  0  0  0  0  0  0  0  0  0
   22.9120  -10.9880  -15.2104 C   0  0  0  0  0  0  0  0  0  0  0  0
   22.6526   -9.5133  -15.4337 C   0  0  2  0  0  0  0  0  0  0  0  0
   22.0850   -8.8822  -14.1810 C   0  0  0  0  0  0  0  0  0  0  0  0
   21.7310   -9.2845  -16.6140 C   0  0  2  0  0  0  0  0  0  0  0  0
   22.3129   -9.8684  -17.7966 N   0  0  0  0  0  0  0  0  0  0  0  0
   21.5354   -7.8129  -16.8196 C   0  0  0  0  0  0  0  0  0  0  0  0
   22.5211   -7.0500  -17.0344 O   0  0  0  0  0  0  0  0  0  0  0  0
   20.2658   -7.2149  -16.7846 N   0  0  0  0  0  0  0  0  0  0  0  0
   20.0418   -5.7673  -17.0092 C   0  0  1  0  0  0  0  0  0  0  0  0
   18.7615   -5.6890  -17.7574 C   0  0  0  0  0  0  0  0  0  0  0  0
   18.2679   -4.3646  -18.1116 C   0  0  0  0  0  0  0  0  0  0  0  0
   18.7623   -3.0911  -17.9906 C   0  0  0  0  0  0  0  0  0  0  0  0
   17.8478   -2.2466  -18.5586 N   0  0  0  0  0  0  0  0  0  0  0  0
   16.8213   -2.9658  -19.0180 C   0  0  0  0  0  0  0  0  0  0  0  0
   17.0646   -4.2331  -18.7550 N   0  0  0  0  0  0  0  0  0  0  0  0
   19.7895   -5.2081  -15.6311 C   0  0  0  0  0  0  0  0  0  0  0  0
   19.5388   -6.0586  -14.5870 O   0  0  0  0  0  0  0  0  0  0  0  0
   19.7998   -3.9891  -15.3997 O   0  0  0  0  0  0  0  0  0  0  0  0
  2  4  1  0
  2  1  1  6
  3  2  1  0
  4  5  1  6
  4  6  1  0
  6  7  2  0
  8  9  1  0
 10 12  1  0
 10  9  1  0
 10 11  1  1
 12 14  1  0
 13  6  1  0
 12 13  1  6
 14 15  2  0
 16 17  1  0
 16 14  1  0
 17 24  1  0
 17 18  1  6
 19 20  2  0
 19 18  1  0
 21 20  1  0
 22 23  2  0
 22 21  1  0
 23 19  1  0
 24 26  2  0
 24 25  1  0
M  END
$$$$
