QCP.pdb
     RDKit          3D

 23 23  0  0  1  0  0  0  0  0999 V2000
   11.0761  -19.1999   22.3174 N   0  0  0  0  0  0  0  0  0  0  0  0
   10.3775  -19.2965   21.0779 C   0  0  0  0  0  0  0  0  0  0  0  0
   10.3626  -20.3110   20.3584 O   0  0  0  0  0  0  0  0  0  0  0  0
    9.6207  -18.0903   20.6322 C   0  0  0  0  0  0  0  0  0  0  0  0
    9.7203  -17.0456   21.7009 C   0  0  0  0  0  0  0  0  0  0  0  0
    8.7854  -15.8981   21.5225 C   0  0  2  0  0  0  0  0  0  0  0  0
    9.1855  -15.2121   20.2870 N   0  0  0  0  0  0  0  0  0  0  0  0
    8.7998  -14.9523   22.6595 C   0  0  0  0  0  0  0  0  0  0  0  0
    9.7445  -14.1568   22.7907 O   0  0  0  0  0  0  0  0  0  0  0  0
    7.7400  -14.9353   23.6177 N   0  0  0  0  0  0  0  0  0  0  0  0
    7.9598  -14.2545   24.8850 C   0  0  1  0  0  0  0  0  0  0  0  0
    6.5844  -13.8783   25.3902 C   0  0  0  0  0  0  0  0  0  0  0  0
    6.5833  -13.3732   27.1154 S   0  0  0  0  0  0  0  0  0  0  0  0
    8.7068  -15.1445   25.7983 C   0  0  0  0  0  0  0  0  0  0  0  0
    8.8176  -16.3634   25.4079 O   0  0  0  0  0  0  0  0  0  0  0  0
    9.2940  -14.8018   27.0181 N   0  0  0  0  0  0  0  0  0  0  0  0
    8.8402  -13.6619   27.8434 C   0  0  0  0  0  0  0  0  0  0  0  0
   10.1784  -12.9543   28.0559 C   0  0  0  0  0  0  0  0  0  0  0  0
   11.0903  -14.1246   28.3480 C   0  0  0  0  0  0  0  0  0  0  0  0
   10.3780  -15.3486   27.7778 C   0  0  1  0  0  0  0  0  0  0  0  0
    9.8880  -16.1664   28.9366 C   0  0  0  0  0  0  0  0  0  0  0  0
    8.6541  -16.1137   29.1687 O   0  0  0  0  0  0  0  0  0  0  0  0
   10.7088  -16.9437   29.7261 O   0  0  0  0  0  0  0  0  0  0  0  0
  2  1  1  0
  2  3  2  0
  4  2  1  0
  5  4  1  0
  5  6  1  0
  6  7  1  6
  8  6  1  0
  8  9  2  0
 10  8  1  0
 11 14  1  0
 11 10  1  0
 11 12  1  1
 13 12  1  0
 14 16  1  0
 15 14  2  0
 16 20  1  0
 17 16  1  0
 18 19  1  0
 18 17  1  0
 19 20  1  0
 20 21  1  1
 21 23  1  0
 22 21  2  0
M  END
$$$$
