QCP.pdb
     RDKit          3D

 23 23  0  0  1  0  0  0  0  0999 V2000
    7.8797  -12.3932   18.2815 N   0  0  0  0  0  0  0  0  0  0  0  0
    7.6293  -13.7649   17.9826 C   0  0  0  0  0  0  0  0  0  0  0  0
    7.4527  -14.2119   16.8353 O   0  0  0  0  0  0  0  0  0  0  0  0
    7.5796  -14.7104   19.1358 C   0  0  0  0  0  0  0  0  0  0  0  0
    8.7080  -14.3852   20.0654 C   0  0  0  0  0  0  0  0  0  0  0  0
    8.8138  -15.2968   21.2402 C   0  0  2  0  0  0  0  0  0  0  0  0
    7.7296  -16.2796   21.1144 N   0  0  0  0  0  0  0  0  0  0  0  0
    8.7155  -14.5911   22.5363 C   0  0  0  0  0  0  0  0  0  0  0  0
    9.5066  -13.6712   22.8016 O   0  0  0  0  0  0  0  0  0  0  0  0
    7.7206  -14.9494   23.4972 N   0  0  0  0  0  0  0  0  0  0  0  0
    7.8401  -14.4257   24.8497 C   0  0  1  0  0  0  0  0  0  0  0  0
    6.4629  -14.5573   25.4616 C   0  0  0  0  0  0  0  0  0  0  0  0
    6.4232  -14.1176   27.2042 S   0  0  0  0  0  0  0  0  0  0  0  0
    8.8881  -15.1733   25.5757 C   0  0  0  0  0  0  0  0  0  0  0  0
    9.4059  -16.1572   24.9323 O   0  0  0  0  0  0  0  0  0  0  0  0
    9.3645  -14.9230   26.8644 N   0  0  0  0  0  0  0  0  0  0  0  0
    8.7470  -13.9388   27.7789 C   0  0  0  0  0  0  0  0  0  0  0  0
    9.9896  -13.1355   28.1628 C   0  0  0  0  0  0  0  0  0  0  0  0
   10.9999  -14.2384   28.3844 C   0  0  0  0  0  0  0  0  0  0  0  0
   10.4535  -15.4490   27.6316 C   0  0  1  0  0  0  0  0  0  0  0  0
    9.9846  -16.4424   28.6539 C   0  0  0  0  0  0  0  0  0  0  0  0
   10.8824  -17.0176   29.3190 O   0  0  0  0  0  0  0  0  0  0  0  0
    8.6571  -16.7368   28.8823 O   0  0  0  0  0  0  0  0  0  0  0  0
  2  1  1  0
  2  3  2  0
  4  2  1  0
  5  4  1  0
  5  6  1  0
  6  7  1  6
  8  6  1  0
  8  9  2  0
 10  8  1  0
 11 14  1  0
 11 10  1  0
 11 12  1  1
 13 12  1  0
 14 16  1  0
 15 14  2  0
 16 20  1  0
 17 16  1  0
 18 19  1  0
 18 17  1  0
 19 20  1  0
 20 21  1  1
 21 23  1  0
 22 21  2  0
M  END
$$$$
