QCP.pdb
     RDKit          3D

 23 23  0  0  1  0  0  0  0  0999 V2000
    8.7015  -15.1203   16.5653 N   0  0  0  0  0  0  0  0  0  0  0  0
    7.8114  -14.1284   17.0728 C   0  0  0  0  0  0  0  0  0  0  0  0
    7.2713  -13.2492   16.3782 O   0  0  0  0  0  0  0  0  0  0  0  0
    7.5216  -14.1645   18.5360 C   0  0  0  0  0  0  0  0  0  0  0  0
    8.7263  -13.6630   19.2712 C   0  0  0  0  0  0  0  0  0  0  0  0
    9.2227  -14.5856   20.3317 C   0  0  2  0  0  0  0  0  0  0  0  0
    9.0572  -15.9517   19.8180 N   0  0  0  0  0  0  0  0  0  0  0  0
    8.5084  -14.4336   21.6178 C   0  0  0  0  0  0  0  0  0  0  0  0
    8.5065  -13.3359   22.1985 O   0  0  0  0  0  0  0  0  0  0  0  0
    7.8148  -15.5334   22.2103 N   0  0  0  0  0  0  0  0  0  0  0  0
    7.2038  -15.3465   23.5177 C   0  0  1  0  0  0  0  0  0  0  0  0
    6.4340  -16.6191   23.7942 C   0  0  0  0  0  0  0  0  0  0  0  0
    6.3552  -17.0268   25.5433 S   0  0  0  0  0  0  0  0  0  0  0  0
    8.2554  -15.0581   24.5153 C   0  0  0  0  0  0  0  0  0  0  0  0
    9.4281  -15.4892   24.2169 O   0  0  0  0  0  0  0  0  0  0  0  0
    8.1071  -14.3766   25.7254 N   0  0  0  0  0  0  0  0  0  0  0  0
    6.8093  -13.8594   26.2096 C   0  0  0  0  0  0  0  0  0  0  0  0
    7.2083  -12.4145   26.5090 C   0  0  0  0  0  0  0  0  0  0  0  0
    8.5450  -12.6099   27.1884 C   0  0  0  0  0  0  0  0  0  0  0  0
    9.0213  -13.9956   26.7598 C   0  0  1  0  0  0  0  0  0  0  0  0
    8.9173  -14.8981   27.9541 C   0  0  0  0  0  0  0  0  0  0  0  0
    7.8219  -15.4960   28.1022 O   0  0  0  0  0  0  0  0  0  0  0  0
    9.9387  -15.0890   28.8604 O   0  0  0  0  0  0  0  0  0  0  0  0
  2  1  1  0
  2  3  2  0
  4  2  1  0
  5  4  1  0
  5  6  1  0
  6  7  1  6
  8  6  1  0
  8  9  2  0
 10  8  1  0
 11 14  1  0
 11 10  1  0
 11 12  1  1
 13 12  1  0
 14 16  1  0
 15 14  2  0
 16 20  1  0
 17 16  1  0
 18 19  1  0
 18 17  1  0
 19 20  1  0
 20 21  1  1
 21 23  1  0
 22 21  2  0
M  END
$$$$
