QCP.pdb
     RDKit          3D

 23 23  0  0  1  0  0  0  0  0999 V2000
    6.9354  -13.1678   17.3784 N   0  0  0  0  0  0  0  0  0  0  0  0
    8.2228  -13.7610   17.5351 C   0  0  0  0  0  0  0  0  0  0  0  0
    8.6636  -14.6792   16.8212 O   0  0  0  0  0  0  0  0  0  0  0  0
    9.0825  -13.2312   18.6335 C   0  0  0  0  0  0  0  0  0  0  0  0
    8.3260  -13.3374   19.9219 C   0  0  0  0  0  0  0  0  0  0  0  0
    8.7921  -14.4361   20.8152 C   0  0  2  0  0  0  0  0  0  0  0  0
    8.3050  -15.6933   20.2325 N   0  0  0  0  0  0  0  0  0  0  0  0
    8.3120  -14.2987   22.2074 C   0  0  0  0  0  0  0  0  0  0  0  0
    7.2690  -13.6672   22.4428 O   0  0  0  0  0  0  0  0  0  0  0  0
    9.0302  -14.8829   23.2958 N   0  0  0  0  0  0  0  0  0  0  0  0
    8.4385  -14.8347   24.6244 C   0  0  1  0  0  0  0  0  0  0  0  0
    7.1033  -15.5352   24.5024 C   0  0  0  0  0  0  0  0  0  0  0  0
    6.3598  -15.9132   26.0949 S   0  0  0  0  0  0  0  0  0  0  0  0
    9.3564  -15.4674   25.5948 C   0  0  0  0  0  0  0  0  0  0  0  0
   10.0827  -16.4169   25.1245 O   0  0  0  0  0  0  0  0  0  0  0  0
    9.5123  -15.1435   26.9443 N   0  0  0  0  0  0  0  0  0  0  0  0
    8.5169  -14.3631   27.7100 C   0  0  0  0  0  0  0  0  0  0  0  0
    9.4344  -13.2931   28.3014 C   0  0  0  0  0  0  0  0  0  0  0  0
   10.6241  -14.1237   28.7268 C   0  0  0  0  0  0  0  0  0  0  0  0
   10.5364  -15.4101   27.9094 C   0  0  1  0  0  0  0  0  0  0  0  0
   10.1436  -16.5145   28.8463 C   0  0  0  0  0  0  0  0  0  0  0  0
    8.9539  -16.9112   28.7662 O   0  0  0  0  0  0  0  0  0  0  0  0
   11.0055  -17.0884   29.7568 O   0  0  0  0  0  0  0  0  0  0  0  0
  2  1  1  0
  2  3  2  0
  4  2  1  0
  5  4  1  0
  5  6  1  0
  6  7  1  6
  8  6  1  0
  8  9  2  0
 10  8  1  0
 11 14  1  0
 11 10  1  0
 11 12  1  6
 13 12  1  0
 14 16  1  0
 15 14  2  0
 16 20  1  0
 17 16  1  0
 18 19  1  0
 18 17  1  0
 19 20  1  0
 20 21  1  1
 21 23  1  0
 22 21  2  0
M  END
$$$$
