QCP.pdb
     RDKit          3D

 23 23  0  0  1  0  0  0  0  0999 V2000
    7.6131  -15.5333   17.3549 N   0  0  0  0  0  0  0  0  0  0  0  0
    8.1843  -14.2629   17.0490 C   0  0  0  0  0  0  0  0  0  0  0  0
    8.7741  -13.9965   15.9867 O   0  0  0  0  0  0  0  0  0  0  0  0
    8.0554  -13.1963   18.0843 C   0  0  0  0  0  0  0  0  0  0  0  0
    7.4449  -13.7981   19.3125 C   0  0  0  0  0  0  0  0  0  0  0  0
    8.4265  -14.1220   20.3867 C   0  0  2  0  0  0  0  0  0  0  0  0
    9.0532  -15.3984   20.0189 N   0  0  0  0  0  0  0  0  0  0  0  0
    7.8109  -14.2231   21.7278 C   0  0  0  0  0  0  0  0  0  0  0  0
    7.3135  -13.2162   22.2578 O   0  0  0  0  0  0  0  0  0  0  0  0
    7.7767  -15.4663   22.4314 N   0  0  0  0  0  0  0  0  0  0  0  0
    7.2368  -15.4854   23.7826 C   0  0  1  0  0  0  0  0  0  0  0  0
    6.6716  -16.8751   23.9768 C   0  0  0  0  0  0  0  0  0  0  0  0
    6.5440  -17.3465   25.7069 S   0  0  0  0  0  0  0  0  0  0  0  0
    8.3043  -15.1371   24.7436 C   0  0  0  0  0  0  0  0  0  0  0  0
    9.4811  -15.5441   24.4280 O   0  0  0  0  0  0  0  0  0  0  0  0
    8.1667  -14.4232   25.9361 N   0  0  0  0  0  0  0  0  0  0  0  0
    6.8724  -13.8973   26.4203 C   0  0  0  0  0  0  0  0  0  0  0  0
    7.2693  -12.4434   26.6756 C   0  0  0  0  0  0  0  0  0  0  0  0
    8.6140  -12.6156   27.3453 C   0  0  0  0  0  0  0  0  0  0  0  0
    9.0908  -14.0109   26.9496 C   0  0  1  0  0  0  0  0  0  0  0  0
    9.0030  -14.8807   28.1692 C   0  0  0  0  0  0  0  0  0  0  0  0
    8.0105  -15.6490   28.2308 O   0  0  0  0  0  0  0  0  0  0  0  0
    9.9344  -14.8694   29.1858 O   0  0  0  0  0  0  0  0  0  0  0  0
  2  1  1  0
  2  3  2  0
  4  2  1  0
  5  4  1  0
  5  6  1  0
  6  7  1  6
  8  6  1  0
  8  9  2  0
 10  8  1  0
 11 14  1  0
 11 10  1  0
 11 12  1  1
 13 12  1  0
 14 16  1  0
 15 14  2  0
 16 20  1  0
 17 16  1  0
 18 19  1  0
 18 17  1  0
 19 20  1  0
 20 21  1  1
 21 23  1  0
 22 21  2  0
M  END
$$$$
