QCP.pdb
     RDKit          3D

 23 23  0  0  1  0  0  0  0  0999 V2000
    8.1596  -19.1516   21.3693 N   0  0  0  0  0  0  0  0  0  0  0  0
    9.4190  -18.4842   21.3220 C   0  0  0  0  0  0  0  0  0  0  0  0
   10.5174  -19.0633   21.2494 O   0  0  0  0  0  0  0  0  0  0  0  0
    9.3963  -16.9929   21.3635 C   0  0  0  0  0  0  0  0  0  0  0  0
    7.9690  -16.5408   21.4066 C   0  0  0  0  0  0  0  0  0  0  0  0
    7.7985  -15.0611   21.4681 C   0  0  2  0  0  0  0  0  0  0  0  0
    8.6566  -14.4906   20.4214 N   0  0  0  0  0  0  0  0  0  0  0  0
    8.1501  -14.4880   22.7854 C   0  0  0  0  0  0  0  0  0  0  0  0
    9.3310  -14.1994   23.0394 O   0  0  0  0  0  0  0  0  0  0  0  0
    7.1502  -14.2578   23.7799 N   0  0  0  0  0  0  0  0  0  0  0  0
    7.5694  -13.7833   25.0901 C   0  0  1  0  0  0  0  0  0  0  0  0
    6.2961  -13.4046   25.8138 C   0  0  0  0  0  0  0  0  0  0  0  0
    6.5631  -13.0136   27.5480 S   0  0  0  0  0  0  0  0  0  0  0  0
    8.3488  -14.8395   25.7694 C   0  0  0  0  0  0  0  0  0  0  0  0
    8.3168  -15.9935   25.2059 O   0  0  0  0  0  0  0  0  0  0  0  0
    9.1028  -14.7128   26.9381 N   0  0  0  0  0  0  0  0  0  0  0  0
    8.9025  -13.6227   27.9168 C   0  0  0  0  0  0  0  0  0  0  0  0
   10.3418  -13.1216   28.0358 C   0  0  0  0  0  0  0  0  0  0  0  0
   11.1055  -14.4248   28.1041 C   0  0  0  0  0  0  0  0  0  0  0  0
   10.1726  -15.4758   27.5078 C   0  0  1  0  0  0  0  0  0  0  0  0
    9.6964  -16.3471   28.6329 C   0  0  0  0  0  0  0  0  0  0  0  0
   10.5523  -17.1165   29.1375 O   0  0  0  0  0  0  0  0  0  0  0  0
    8.4048  -16.3360   29.1156 O   0  0  0  0  0  0  0  0  0  0  0  0
  2  1  1  0
  2  3  2  0
  4  2  1  0
  5  4  1  0
  5  6  1  0
  6  7  1  6
  8  6  1  0
  8  9  2  0
 10  8  1  0
 11 14  1  0
 11 10  1  0
 11 12  1  1
 13 12  1  0
 14 16  1  0
 15 14  2  0
 16 20  1  0
 17 16  1  0
 18 19  1  0
 18 17  1  0
 19 20  1  0
 20 21  1  1
 21 23  1  0
 22 21  2  0
M  END
$$$$
