QCP.pdb
     RDKit          3D

 23 23  0  0  1  0  0  0  0  0999 V2000
   10.6544  -18.3775   21.1786 N   0  0  0  0  0  0  0  0  0  0  0  0
    9.4725  -17.8410   20.5877 C   0  0  0  0  0  0  0  0  0  0  0  0
    8.6641  -18.5019   19.9118 O   0  0  0  0  0  0  0  0  0  0  0  0
    9.2060  -16.3893   20.8063 C   0  0  0  0  0  0  0  0  0  0  0  0
    7.7714  -16.2246   21.2043 C   0  0  0  0  0  0  0  0  0  0  0  0
    7.3709  -14.8146   21.4759 C   0  0  2  0  0  0  0  0  0  0  0  0
    7.9243  -13.9983   20.3874 N   0  0  0  0  0  0  0  0  0  0  0  0
    7.8488  -14.3143   22.7831 C   0  0  0  0  0  0  0  0  0  0  0  0
    8.9602  -13.7667   22.8674 O   0  0  0  0  0  0  0  0  0  0  0  0
    7.0507  -14.4495   23.9607 N   0  0  0  0  0  0  0  0  0  0  0  0
    7.5732  -13.9341   25.2172 C   0  0  1  0  0  0  0  0  0  0  0  0
    6.3742  -13.7853   26.1276 C   0  0  0  0  0  0  0  0  0  0  0  0
    5.7330  -12.1067   26.1766 S   0  0  0  0  0  0  0  0  0  0  0  0
    8.6043  -14.8568   25.7365 C   0  0  0  0  0  0  0  0  0  0  0  0
    8.9362  -15.8112   24.9434 O   0  0  0  0  0  0  0  0  0  0  0  0
    9.2429  -14.7973   26.9771 N   0  0  0  0  0  0  0  0  0  0  0  0
    8.7972  -13.9136   28.0757 C   0  0  0  0  0  0  0  0  0  0  0  0
   10.1221  -13.2228   28.3985 C   0  0  0  0  0  0  0  0  0  0  0  0
   11.0836  -14.3890   28.3550 C   0  0  0  0  0  0  0  0  0  0  0  0
   10.3811  -15.4662   27.5323 C   0  0  1  0  0  0  0  0  0  0  0  0
    9.9772  -16.5621   28.4744 C   0  0  0  0  0  0  0  0  0  0  0  0
    8.7691  -16.5774   28.8201 O   0  0  0  0  0  0  0  0  0  0  0  0
   10.8478  -17.5163   28.9566 O   0  0  0  0  0  0  0  0  0  0  0  0
  2  1  1  0
  2  3  2  0
  4  2  1  0
  5  4  1  0
  5  6  1  0
  6  7  1  6
  8  6  1  0
  8  9  2  0
 10  8  1  0
 11 14  1  0
 11 10  1  0
 11 12  1  1
 13 12  1  0
 14 16  1  0
 15 14  2  0
 16 20  1  0
 17 16  1  0
 18 19  1  0
 18 17  1  0
 19 20  1  0
 20 21  1  1
 21 23  1  0
 22 21  2  0
M  END
$$$$
