QCP.pdb
     RDKit          3D

 23 23  0  0  1  0  0  0  0  0999 V2000
   11.0236  -22.0337   19.0835 N   0  0  0  0  0  0  0  0  0  0  0  0
   11.5384  -20.7731   18.6594 C   0  0  0  0  0  0  0  0  0  0  0  0
   12.7479  -20.4851   18.6252 O   0  0  0  0  0  0  0  0  0  0  0  0
   10.5443  -19.7455   18.2325 C   0  0  0  0  0  0  0  0  0  0  0  0
    9.1728  -20.3377   18.3411 C   0  0  0  0  0  0  0  0  0  0  0  0
    8.0757  -19.4180   17.9253 C   0  0  2  0  0  0  0  0  0  0  0  0
    8.4257  -18.9150   16.5905 N   0  0  0  0  0  0  0  0  0  0  0  0
    7.8756  -18.2894   18.8600 C   0  0  0  0  0  0  0  0  0  0  0  0
    8.5385  -17.2481   18.7239 O   0  0  0  0  0  0  0  0  0  0  0  0
    6.9269  -18.3738   19.9253 N   0  0  0  0  0  0  0  0  0  0  0  0
    6.8075  -17.2486   20.8403 C   0  0  1  0  0  0  0  0  0  0  0  0
    5.5160  -17.4718   21.5956 C   0  0  0  0  0  0  0  0  0  0  0  0
    4.2824  -18.3560   20.6322 S   0  0  0  0  0  0  0  0  0  0  0  0
    8.0025  -17.1914   21.7080 C   0  0  0  0  0  0  0  0  0  0  0  0
    8.9060  -18.0692   21.4563 O   0  0  0  0  0  0  0  0  0  0  0  0
    8.2453  -16.2969   22.7527 N   0  0  0  0  0  0  0  0  0  0  0  0
    7.2893  -15.2432   23.1551 C   0  0  0  0  0  0  0  0  0  0  0  0
    8.2228  -14.0329   23.1345 C   0  0  0  0  0  0  0  0  0  0  0  0
    9.4567  -14.5980   23.8013 C   0  0  0  0  0  0  0  0  0  0  0  0
    9.3397  -16.1134   23.6582 C   0  0  1  0  0  0  0  0  0  0  0  0
    9.0368  -16.6731   25.0171 C   0  0  0  0  0  0  0  0  0  0  0  0
    7.8262  -16.9019   25.2642 O   0  0  0  0  0  0  0  0  0  0  0  0
    9.9997  -16.9357   25.9685 O   0  0  0  0  0  0  0  0  0  0  0  0
  2  1  1  0
  2  3  2  0
  4  2  1  0
  5  4  1  0
  5  6  1  0
  6  7  1  6
  8  6  1  0
  8  9  2  0
 10  8  1  0
 11 14  1  0
 11 10  1  0
 11 12  1  1
 13 12  1  0
 14 16  1  0
 15 14  2  0
 16 20  1  0
 17 16  1  0
 18 19  1  0
 18 17  1  0
 19 20  1  0
 20 21  1  1
 21 23  1  0
 22 21  2  0
M  END
$$$$
