QCP.pdb
     RDKit          3D

 23 23  0  0  1  0  0  0  0  0999 V2000
   11.6572  -16.6329   20.6314 N   0  0  0  0  0  0  0  0  0  0  0  0
   11.3985  -17.1501   19.3278 C   0  0  0  0  0  0  0  0  0  0  0  0
   12.2454  -17.7235   18.6200 O   0  0  0  0  0  0  0  0  0  0  0  0
   10.0147  -16.9822   18.7957 C   0  0  0  0  0  0  0  0  0  0  0  0
    9.1969  -16.2571   19.8199 C   0  0  0  0  0  0  0  0  0  0  0  0
    8.2360  -17.1241   20.5598 C   0  0  2  0  0  0  0  0  0  0  0  0
    7.2902  -17.6527   19.5682 N   0  0  0  0  0  0  0  0  0  0  0  0
    7.5076  -16.4068   21.6287 C   0  0  0  0  0  0  0  0  0  0  0  0
    6.4290  -15.8465   21.3738 O   0  0  0  0  0  0  0  0  0  0  0  0
    8.0242  -16.3453   22.9594 N   0  0  0  0  0  0  0  0  0  0  0  0
    7.2337  -15.6758   23.9815 C   0  0  1  0  0  0  0  0  0  0  0  0
    6.4379  -16.7674   24.6623 C   0  0  0  0  0  0  0  0  0  0  0  0
    7.3805  -17.6475   25.9146 S   0  0  0  0  0  0  0  0  0  0  0  0
    8.1326  -14.9373   24.8931 C   0  0  0  0  0  0  0  0  0  0  0  0
    9.3880  -15.0825   24.6626 O   0  0  0  0  0  0  0  0  0  0  0  0
    7.7633  -14.1128   25.9581 N   0  0  0  0  0  0  0  0  0  0  0  0
    6.3619  -13.9311   26.3932 C   0  0  0  0  0  0  0  0  0  0  0  0
    6.2937  -12.4040   26.3965 C   0  0  0  0  0  0  0  0  0  0  0  0
    7.6149  -12.0489   27.0405 C   0  0  0  0  0  0  0  0  0  0  0  0
    8.5000  -13.2796   26.8604 C   0  0  1  0  0  0  0  0  0  0  0  0
    8.6588  -13.9224   28.2070 C   0  0  0  0  0  0  0  0  0  0  0  0
    7.9320  -14.9226   28.4319 O   0  0  0  0  0  0  0  0  0  0  0  0
    9.5382  -13.4745   29.1699 O   0  0  0  0  0  0  0  0  0  0  0  0
  2  1  1  0
  2  3  2  0
  4  2  1  0
  5  4  1  0
  5  6  1  0
  6  7  1  6
  8  6  1  0
  8  9  2  0
 10  8  1  0
 11 14  1  0
 11 10  1  0
 11 12  1  1
 13 12  1  0
 14 16  1  0
 15 14  2  0
 16 20  1  0
 17 16  1  0
 18 19  1  0
 18 17  1  0
 19 20  1  0
 20 21  1  1
 21 23  1  0
 22 21  2  0
M  END
$$$$
