QCP.pdb
     RDKit          3D

 23 23  0  0  1  0  0  0  0  0999 V2000
    8.9837  -12.1227   18.7071 N   0  0  0  0  0  0  0  0  0  0  0  0
    8.7107  -13.4744   18.3434 C   0  0  0  0  0  0  0  0  0  0  0  0
    9.4118  -14.1470   17.5667 O   0  0  0  0  0  0  0  0  0  0  0  0
    7.4998  -14.1054   18.9449 C   0  0  0  0  0  0  0  0  0  0  0  0
    7.4630  -13.7669   20.4035 C   0  0  0  0  0  0  0  0  0  0  0  0
    8.4129  -14.5566   21.2381 C   0  0  2  0  0  0  0  0  0  0  0  0
    8.3840  -15.9334   20.7273 N   0  0  0  0  0  0  0  0  0  0  0  0
    8.0770  -14.5390   22.6784 C   0  0  0  0  0  0  0  0  0  0  0  0
    7.8337  -13.4605   23.2439 O   0  0  0  0  0  0  0  0  0  0  0  0
    8.0264  -15.7480   23.4383 N   0  0  0  0  0  0  0  0  0  0  0  0
    7.7768  -15.6595   24.8692 C   0  0  1  0  0  0  0  0  0  0  0  0
    6.7231  -16.7038   25.1653 C   0  0  0  0  0  0  0  0  0  0  0  0
    7.0411  -17.6121   26.6836 S   0  0  0  0  0  0  0  0  0  0  0  0
    9.0430  -15.8664   25.6030 C   0  0  0  0  0  0  0  0  0  0  0  0
    9.9179  -16.5847   24.9959 O   0  0  0  0  0  0  0  0  0  0  0  0
    9.3789  -15.3690   26.8640 N   0  0  0  0  0  0  0  0  0  0  0  0
    8.4508  -14.5705   27.6931 C   0  0  0  0  0  0  0  0  0  0  0  0
    9.3523  -13.3754   28.0027 C   0  0  0  0  0  0  0  0  0  0  0  0
   10.6619  -14.0638   28.3144 C   0  0  0  0  0  0  0  0  0  0  0  0
   10.5606  -15.4439   27.6698 C   0  0  1  0  0  0  0  0  0  0  0  0
   10.4172  -16.4490   28.7748 C   0  0  0  0  0  0  0  0  0  0  0  0
   11.4443  -16.6603   29.4673 O   0  0  0  0  0  0  0  0  0  0  0  0
    9.2462  -17.1235   29.0486 O   0  0  0  0  0  0  0  0  0  0  0  0
  2  1  1  0
  2  3  2  0
  4  2  1  0
  5  4  1  0
  5  6  1  0
  6  7  1  6
  8  6  1  0
  8  9  2  0
 10  8  1  0
 11 14  1  0
 11 10  1  0
 11 12  1  1
 13 12  1  0
 14 16  1  0
 15 14  2  0
 16 20  1  0
 17 16  1  0
 18 19  1  0
 18 17  1  0
 19 20  1  0
 20 21  1  1
 21 23  1  0
 22 21  2  0
M  END
$$$$
