QCP.pdb
     RDKit          3D

 23 23  0  0  1  0  0  0  0  0999 V2000
    8.7517  -16.9317   18.7517 N   0  0  0  0  0  0  0  0  0  0  0  0
    7.9907  -16.1791   17.8092 C   0  0  0  0  0  0  0  0  0  0  0  0
    8.0085  -16.3710   16.5804 O   0  0  0  0  0  0  0  0  0  0  0  0
    7.1224  -15.0944   18.3529 C   0  0  0  0  0  0  0  0  0  0  0  0
    7.2452  -15.0912   19.8457 C   0  0  0  0  0  0  0  0  0  0  0  0
    7.1702  -13.7358   20.4619 C   0  0  2  0  0  0  0  0  0  0  0  0
    7.9007  -12.8235   19.5723 N   0  0  0  0  0  0  0  0  0  0  0  0
    7.7391  -13.6834   21.8261 C   0  0  0  0  0  0  0  0  0  0  0  0
    8.9649  -13.7966   21.9901 O   0  0  0  0  0  0  0  0  0  0  0  0
    6.8998  -13.5037   22.9684 N   0  0  0  0  0  0  0  0  0  0  0  0
    7.5031  -13.5683   24.2911 C   0  0  1  0  0  0  0  0  0  0  0  0
    6.5438  -12.8484   25.2131 C   0  0  0  0  0  0  0  0  0  0  0  0
    6.9205  -13.0979   26.9530 S   0  0  0  0  0  0  0  0  0  0  0  0
    7.7340  -14.9814   24.6577 C   0  0  0  0  0  0  0  0  0  0  0  0
    6.8265  -15.8041   24.2708 O   0  0  0  0  0  0  0  0  0  0  0  0
    8.8180  -15.5032   25.3671 N   0  0  0  0  0  0  0  0  0  0  0  0
    9.9372  -14.6731   25.8617 C   0  0  0  0  0  0  0  0  0  0  0  0
   11.1127  -15.4694   25.2951 C   0  0  0  0  0  0  0  0  0  0  0  0
   10.6844  -16.8876   25.5979 C   0  0  0  0  0  0  0  0  0  0  0  0
    9.1719  -16.8235   25.7946 C   0  0  1  0  0  0  0  0  0  0  0  0
    8.8976  -17.0271   27.2558 C   0  0  0  0  0  0  0  0  0  0  0  0
    9.0515  -18.1962   27.6901 O   0  0  0  0  0  0  0  0  0  0  0  0
    8.4983  -16.0187   28.1072 O   0  0  0  0  0  0  0  0  0  0  0  0
  2  1  1  0
  2  3  2  0
  4  2  1  0
  5  4  1  0
  5  6  1  0
  6  7  1  6
  8  6  1  0
  8  9  2  0
 10  8  1  0
 11 14  1  0
 11 10  1  0
 11 12  1  1
 13 12  1  0
 14 16  1  0
 15 14  2  0
 16 20  1  0
 17 16  1  0
 18 19  1  0
 18 17  1  0
 19 20  1  0
 20 21  1  1
 21 23  1  0
 22 21  2  0
M  END
$$$$
