QCP.pdb
     RDKit          3D

 23 23  0  0  1  0  0  0  0  0999 V2000
   13.8729  -23.9881   34.8714 N   0  0  0  0  0  0  0  0  0  0  0  0
   14.5307  -25.1639   35.3388 C   0  0  0  0  0  0  0  0  0  0  0  0
   14.9740  -26.0605   34.5995 O   0  0  0  0  0  0  0  0  0  0  0  0
   14.6878  -25.3094   36.8155 C   0  0  0  0  0  0  0  0  0  0  0  0
   14.0896  -24.1063   37.4774 C   0  0  0  0  0  0  0  0  0  0  0  0
   14.0792  -24.1704   38.9668 C   0  0  2  0  0  0  0  0  0  0  0  0
   13.0187  -25.1139   39.3442 N   0  0  0  0  0  0  0  0  0  0  0  0
   13.8450  -22.8569   39.6052 C   0  0  0  0  0  0  0  0  0  0  0  0
   12.7953  -22.2350   39.3741 O   0  0  0  0  0  0  0  0  0  0  0  0
   14.8103  -22.2846   40.4897 N   0  0  0  0  0  0  0  0  0  0  0  0
   14.4902  -21.0270   41.1480 C   0  0  1  0  0  0  0  0  0  0  0  0
   13.2923  -21.3184   42.0247 C   0  0  0  0  0  0  0  0  0  0  0  0
   13.6187  -22.5783   43.2647 S   0  0  0  0  0  0  0  0  0  0  0  0
   15.6722  -20.5480   41.8949 C   0  0  0  0  0  0  0  0  0  0  0  0
   16.5626  -21.4399   42.1437 O   0  0  0  0  0  0  0  0  0  0  0  0
   15.9155  -19.2495   42.3477 N   0  0  0  0  0  0  0  0  0  0  0  0
   14.9909  -18.1212   42.1063 C   0  0  0  0  0  0  0  0  0  0  0  0
   15.9745  -17.1090   41.5191 C   0  0  0  0  0  0  0  0  0  0  0  0
   17.1596  -17.2755   42.4432 C   0  0  0  0  0  0  0  0  0  0  0  0
   16.9843  -18.6483   43.0877 C   0  0  1  0  0  0  0  0  0  0  0  0
   16.6110  -18.4283   44.5243 C   0  0  0  0  0  0  0  0  0  0  0  0
   15.3813  -18.4323   44.7835 O   0  0  0  0  0  0  0  0  0  0  0  0
   17.5307  -18.2296   45.5322 O   0  0  0  0  0  0  0  0  0  0  0  0
  2  1  1  0
  2  3  2  0
  4  2  1  0
  5  4  1  0
  5  6  1  0
  6  7  1  6
  8  6  1  0
  8  9  2  0
 10  8  1  0
 11 14  1  0
 11 10  1  0
 11 12  1  1
 13 12  1  0
 14 16  1  0
 15 14  2  0
 16 20  1  0
 17 16  1  0
 18 19  1  0
 18 17  1  0
 19 20  1  0
 20 21  1  1
 21 23  1  0
 22 21  2  0
M  END
$$$$
