GKK.pdb
     RDKit          3D

 23 22  0  0  1  0  0  0  0  0999 V2000
   26.5134  -32.6379   -6.0447 N   0  0  0  0  0  0  0  0  0  0  0  0
   27.0309  -32.8818   -7.3573 C   0  0  0  0  0  0  0  0  0  0  0  0
   25.9192  -33.1120   -8.3135 C   0  0  0  0  0  0  0  0  0  0  0  0
   24.7371  -33.0064   -7.9115 O   0  0  0  0  0  0  0  0  0  0  0  0
   26.1827  -33.4471   -9.6644 N   0  0  0  0  0  0  0  0  0  0  0  0
   25.1027  -33.6471  -10.6279 C   0  0  1  0  0  0  0  0  0  0  0  0
   25.5820  -33.3292  -12.0214 C   0  0  0  0  0  0  0  0  0  0  0  0
   24.5455  -33.3872  -13.0842 C   0  0  0  0  0  0  0  0  0  0  0  0
   25.1371  -33.0521  -14.4547 C   0  0  0  0  0  0  0  0  0  0  0  0
   24.0570  -32.9613  -15.4909 C   0  0  0  0  0  0  0  0  0  0  0  0
   24.6785  -32.6359  -16.7621 N   0  0  0  0  0  0  0  0  0  0  0  0
   24.6482  -35.0786  -10.5779 C   0  0  0  0  0  0  0  0  0  0  0  0
   25.4642  -36.0318  -10.5501 O   0  0  0  0  0  0  0  0  0  0  0  0
   23.2734  -35.4115  -10.5601 N   0  0  0  0  0  0  0  0  0  0  0  0
   22.8695  -36.8104  -10.3591 C   0  0  1  0  0  0  0  0  0  0  0  0
   21.4521  -36.8812   -9.9099 C   0  0  0  0  0  0  0  0  0  0  0  0
   21.0061  -38.2994   -9.7280 C   0  0  0  0  0  0  0  0  0  0  0  0
   19.5578  -38.3597   -9.2336 C   0  0  0  0  0  0  0  0  0  0  0  0
   19.1669  -39.8287   -9.1252 C   0  0  0  0  0  0  0  0  0  0  0  0
   17.7934  -39.9412   -8.6782 N   0  0  0  0  0  0  0  0  0  0  0  0
   23.0939  -37.4773  -11.6459 C   0  0  0  0  0  0  0  0  0  0  0  0
   23.6036  -38.6112  -11.7302 O   0  0  0  0  0  0  0  0  0  0  0  0
   22.7382  -36.8528  -12.8271 O   0  0  0  0  0  0  0  0  0  0  0  0
  1  2  1  0
  3  2  1  0
  3  4  2  0
  5  3  1  0
  6  5  1  0
  6 12  1  0
  6  7  1  6
  8  7  1  0
  9  8  1  0
  9 10  1  0
 11 10  1  0
 12 14  1  0
 13 12  2  0
 14 15  1  0
 15 21  1  0
 15 16  1  6
 17 16  1  0
 18 17  1  0
 19 18  1  0
 20 19  1  0
 21 22  2  0
 21 23  1  0
M  END
$$$$
