GKK.pdb
     RDKit          3D

 23 22  0  0  1  0  0  0  0  0999 V2000
   26.1324  -21.4447  -10.4719 N   0  0  0  0  0  0  0  0  0  0  0  0
   26.5448  -21.6372  -11.8296 C   0  0  0  0  0  0  0  0  0  0  0  0
   26.1534  -20.4682  -12.6562 C   0  0  0  0  0  0  0  0  0  0  0  0
   25.3601  -19.6228  -12.1806 O   0  0  0  0  0  0  0  0  0  0  0  0
   26.6654  -20.3031  -13.9667 N   0  0  0  0  0  0  0  0  0  0  0  0
   26.3058  -19.1503  -14.7893 C   0  0  1  0  0  0  0  0  0  0  0  0
   27.4388  -18.8005  -15.7200 C   0  0  0  0  0  0  0  0  0  0  0  0
   27.2102  -17.6196  -16.5921 C   0  0  0  0  0  0  0  0  0  0  0  0
   28.4262  -17.3400  -17.4773 C   0  0  0  0  0  0  0  0  0  0  0  0
   28.1652  -16.1754  -18.3850 C   0  0  0  0  0  0  0  0  0  0  0  0
   29.3722  -15.9220  -19.1512 N   0  0  0  0  0  0  0  0  0  0  0  0
   25.0846  -19.4782  -15.6011 C   0  0  0  0  0  0  0  0  0  0  0  0
   24.9377  -20.5951  -16.1547 O   0  0  0  0  0  0  0  0  0  0  0  0
   24.0446  -18.5353  -15.7754 N   0  0  0  0  0  0  0  0  0  0  0  0
   22.8010  -18.9438  -16.4441 C   0  0  1  0  0  0  0  0  0  0  0  0
   21.6504  -18.8433  -15.5049 C   0  0  0  0  0  0  0  0  0  0  0  0
   20.3715  -19.2668  -16.1595 C   0  0  0  0  0  0  0  0  0  0  0  0
   19.2094  -19.2383  -15.1623 C   0  0  0  0  0  0  0  0  0  0  0  0
   17.9753  -19.7785  -15.8748 C   0  0  0  0  0  0  0  0  0  0  0  0
   16.8360  -19.7448  -14.9803 N   0  0  0  0  0  0  0  0  0  0  0  0
   22.6668  -18.0603  -17.6070 C   0  0  0  0  0  0  0  0  0  0  0  0
   22.3232  -18.4806  -18.7286 O   0  0  0  0  0  0  0  0  0  0  0  0
   22.9231  -16.7067  -17.4886 O   0  0  0  0  0  0  0  0  0  0  0  0
  1  2  1  0
  3  2  1  0
  3  4  2  0
  5  3  1  0
  6  5  1  0
  6 12  1  0
  6  7  1  6
  8  7  1  0
  9  8  1  0
  9 10  1  0
 11 10  1  0
 12 14  1  0
 13 12  2  0
 14 15  1  0
 15 21  1  0
 15 16  1  1
 17 16  1  0
 18 17  1  0
 19 18  1  0
 20 19  1  0
 21 22  2  0
 21 23  1  0
M  END
$$$$
