GKK.pdb
     RDKit          3D

 23 22  0  0  1  0  0  0  0  0999 V2000
   25.3103  -21.4834  -10.7263 N   0  0  0  0  0  0  0  0  0  0  0  0
   25.0785  -21.9047  -12.0750 C   0  0  0  0  0  0  0  0  0  0  0  0
   24.5560  -20.7751  -12.8837 C   0  0  0  0  0  0  0  0  0  0  0  0
   24.0976  -19.7664  -12.2983 O   0  0  0  0  0  0  0  0  0  0  0  0
   24.5717  -20.8287  -14.2992 N   0  0  0  0  0  0  0  0  0  0  0  0
   24.0399  -19.7374  -15.1123 C   0  0  1  0  0  0  0  0  0  0  0  0
   24.9079  -19.5207  -16.3256 C   0  0  0  0  0  0  0  0  0  0  0  0
   26.3518  -19.3049  -16.0501 C   0  0  0  0  0  0  0  0  0  0  0  0
   27.1697  -19.3084  -17.3429 C   0  0  0  0  0  0  0  0  0  0  0  0
   28.6375  -19.2475  -17.0422 C   0  0  0  0  0  0  0  0  0  0  0  0
   29.3593  -19.3582  -18.2972 N   0  0  0  0  0  0  0  0  0  0  0  0
   22.6466  -20.0808  -15.5584 C   0  0  0  0  0  0  0  0  0  0  0  0
   22.3053  -21.2613  -15.8141 O   0  0  0  0  0  0  0  0  0  0  0  0
   21.6572  -19.0810  -15.7089 N   0  0  0  0  0  0  0  0  0  0  0  0
   20.3020  -19.4611  -16.1325 C   0  0  1  0  0  0  0  0  0  0  0  0
   19.3564  -18.3314  -15.9194 C   0  0  0  0  0  0  0  0  0  0  0  0
   17.9793  -18.6728  -16.3994 C   0  0  0  0  0  0  0  0  0  0  0  0
   17.0200  -17.4965  -16.1950 C   0  0  0  0  0  0  0  0  0  0  0  0
   15.6168  -17.9782  -16.5435 C   0  0  0  0  0  0  0  0  0  0  0  0
   14.6803  -16.8767  -16.4489 N   0  0  0  0  0  0  0  0  0  0  0  0
   20.4204  -19.8475  -17.5424 C   0  0  0  0  0  0  0  0  0  0  0  0
   21.2249  -19.2987  -18.3197 O   0  0  0  0  0  0  0  0  0  0  0  0
   19.6253  -20.8536  -18.0595 O   0  0  0  0  0  0  0  0  0  0  0  0
  1  2  1  0
  3  2  1  0
  3  4  2  0
  5  3  1  0
  6  5  1  0
  6 12  1  0
  6  7  1  6
  8  7  1  0
  9  8  1  0
  9 10  1  0
 11 10  1  0
 12 14  1  0
 13 12  2  0
 14 15  1  0
 15 21  1  0
 15 16  1  6
 17 16  1  0
 18 17  1  0
 19 18  1  0
 20 19  1  0
 21 22  2  0
 21 23  1  0
M  END
$$$$
