GKK.pdb
     RDKit          3D

 23 22  0  0  1  0  0  0  0  0999 V2000
   28.5171  -21.5069  -16.7210 N   0  0  0  0  0  0  0  0  0  0  0  0
   28.2544  -20.6357  -15.6155 C   0  0  0  0  0  0  0  0  0  0  0  0
   27.1047  -21.1413  -14.8245 C   0  0  0  0  0  0  0  0  0  0  0  0
   26.3522  -22.0079  -15.3274 O   0  0  0  0  0  0  0  0  0  0  0  0
   26.8545  -20.6556  -13.5176 N   0  0  0  0  0  0  0  0  0  0  0  0
   25.6852  -21.0835  -12.7529 C   0  0  1  0  0  0  0  0  0  0  0  0
   25.8959  -20.8149  -11.2846 C   0  0  0  0  0  0  0  0  0  0  0  0
   24.7698  -21.1994  -10.3949 C   0  0  0  0  0  0  0  0  0  0  0  0
   25.0479  -20.8004   -8.9444 C   0  0  0  0  0  0  0  0  0  0  0  0
   23.9071  -21.1991   -8.0566 C   0  0  0  0  0  0  0  0  0  0  0  0
   24.1655  -20.6738   -6.7279 N   0  0  0  0  0  0  0  0  0  0  0  0
   24.4763  -20.3253  -13.2239 C   0  0  0  0  0  0  0  0  0  0  0  0
   24.4651  -19.0720  -13.2902 O   0  0  0  0  0  0  0  0  0  0  0  0
   23.2946  -20.9980  -13.6140 N   0  0  0  0  0  0  0  0  0  0  0  0
   22.1783  -20.2299  -14.1834 C   0  0  1  0  0  0  0  0  0  0  0  0
   21.8733  -20.7029  -15.5615 C   0  0  0  0  0  0  0  0  0  0  0  0
   20.6606  -20.0221  -16.1177 C   0  0  0  0  0  0  0  0  0  0  0  0
   20.2875  -20.5985  -17.4866 C   0  0  0  0  0  0  0  0  0  0  0  0
   19.1774  -19.7305  -18.0669 C   0  0  0  0  0  0  0  0  0  0  0  0
   18.7500  -20.2658  -19.3437 N   0  0  0  0  0  0  0  0  0  0  0  0
   21.0567  -20.4129  -13.2563 C   0  0  0  0  0  0  0  0  0  0  0  0
   20.8526  -21.4874  -12.6594 O   0  0  0  0  0  0  0  0  0  0  0  0
   20.1754  -19.3755  -13.0135 O   0  0  0  0  0  0  0  0  0  0  0  0
  1  2  1  0
  3  2  1  0
  3  4  2  0
  5  3  1  0
  6  5  1  0
  6 12  1  0
  6  7  1  1
  8  7  1  0
  9  8  1  0
  9 10  1  0
 11 10  1  0
 12 14  1  0
 13 12  2  0
 14 15  1  0
 15 21  1  0
 15 16  1  6
 17 16  1  0
 18 17  1  0
 19 18  1  0
 20 19  1  0
 21 22  2  0
 21 23  1  0
M  END
$$$$
