GKK.pdb
     RDKit          3D

 23 22  0  0  1  0  0  0  0  0999 V2000
   18.7445  -10.4606  -14.6949 N   0  0  0  0  0  0  0  0  0  0  0  0
   18.6560  -10.5556  -13.2689 C   0  0  0  0  0  0  0  0  0  0  0  0
   17.3873   -9.9511  -12.7914 C   0  0  0  0  0  0  0  0  0  0  0  0
   16.8169   -9.0900  -13.5006 O   0  0  0  0  0  0  0  0  0  0  0  0
   16.8222  -10.3373  -11.5511 N   0  0  0  0  0  0  0  0  0  0  0  0
   15.6321   -9.6807  -11.0148 C   0  0  1  0  0  0  0  0  0  0  0  0
   14.8236  -10.6548  -10.1964 C   0  0  0  0  0  0  0  0  0  0  0  0
   13.4975  -11.0183  -10.7590 C   0  0  0  0  0  0  0  0  0  0  0  0
   12.8193  -12.1052   -9.9228 C   0  0  0  0  0  0  0  0  0  0  0  0
   11.4984  -12.4877  -10.5208 C   0  0  0  0  0  0  0  0  0  0  0  0
   10.9594  -13.5948   -9.7514 N   0  0  0  0  0  0  0  0  0  0  0  0
   16.0477   -8.5301  -10.1422 C   0  0  0  0  0  0  0  0  0  0  0  0
   16.9488   -8.6474   -9.2764 O   0  0  0  0  0  0  0  0  0  0  0  0
   15.4361   -7.2602  -10.2622 N   0  0  0  0  0  0  0  0  0  0  0  0
   15.8618   -6.1649   -9.3793 C   0  0  1  0  0  0  0  0  0  0  0  0
   15.8307   -4.8683  -10.1099 C   0  0  0  0  0  0  0  0  0  0  0  0
   16.1232   -3.7183   -9.1960 C   0  0  0  0  0  0  0  0  0  0  0  0
   15.9390   -2.3815   -9.9203 C   0  0  0  0  0  0  0  0  0  0  0  0
   16.2963   -1.2710   -8.9397 C   0  0  0  0  0  0  0  0  0  0  0  0
   16.1315    0.0200   -9.5762 N   0  0  0  0  0  0  0  0  0  0  0  0
   14.9440   -6.1972   -8.2357 C   0  0  0  0  0  0  0  0  0  0  0  0
   13.8259   -6.7443   -8.2923 O   0  0  0  0  0  0  0  0  0  0  0  0
   15.3019   -5.6089   -7.0366 O   0  0  0  0  0  0  0  0  0  0  0  0
  1  2  1  0
  3  2  1  0
  3  4  2  0
  5  3  1  0
  6  5  1  0
  6 12  1  0
  6  7  1  1
  8  7  1  0
  9  8  1  0
  9 10  1  0
 11 10  1  0
 12 14  1  0
 13 12  2  0
 14 15  1  0
 15 21  1  0
 15 16  1  6
 17 16  1  0
 18 17  1  0
 19 18  1  0
 20 19  1  0
 21 22  2  0
 21 23  1  0
M  END
$$$$
