GKK.pdb
     RDKit          3D

 23 22  0  0  1  0  0  0  0  0999 V2000
   25.9024  -23.0845  -14.3641 N   0  0  0  0  0  0  0  0  0  0  0  0
   24.9840  -22.4506  -13.4668 C   0  0  0  0  0  0  0  0  0  0  0  0
   23.7834  -21.9847  -14.2047 C   0  0  0  0  0  0  0  0  0  0  0  0
   23.7591  -22.0817  -15.4537 O   0  0  0  0  0  0  0  0  0  0  0  0
   22.6753  -21.4364  -13.5133 N   0  0  0  0  0  0  0  0  0  0  0  0
   21.4868  -20.9671  -14.2221 C   0  0  1  0  0  0  0  0  0  0  0  0
   20.2440  -21.3161  -13.4437 C   0  0  0  0  0  0  0  0  0  0  0  0
   19.8081  -22.7335  -13.5342 C   0  0  0  0  0  0  0  0  0  0  0  0
   18.5068  -22.9639  -12.7636 C   0  0  0  0  0  0  0  0  0  0  0  0
   18.1516  -24.4207  -12.7458 C   0  0  0  0  0  0  0  0  0  0  0  0
   16.9388  -24.5791  -11.9634 N   0  0  0  0  0  0  0  0  0  0  0  0
   21.5615  -19.4756  -14.3884 C   0  0  0  0  0  0  0  0  0  0  0  0
   21.7993  -18.7125  -13.4206 O   0  0  0  0  0  0  0  0  0  0  0  0
   21.3655  -18.8674  -15.6505 N   0  0  0  0  0  0  0  0  0  0  0  0
   21.4330  -17.4038  -15.7675 C   0  0  1  0  0  0  0  0  0  0  0  0
   22.3758  -17.0134  -16.8513 C   0  0  0  0  0  0  0  0  0  0  0  0
   22.3685  -15.5326  -17.0757 C   0  0  0  0  0  0  0  0  0  0  0  0
   23.2396  -15.1556  -18.2775 C   0  0  0  0  0  0  0  0  0  0  0  0
   23.1366  -13.6472  -18.4685 C   0  0  0  0  0  0  0  0  0  0  0  0
   24.0625  -13.2164  -19.4963 N   0  0  0  0  0  0  0  0  0  0  0  0
   20.0577  -16.9618  -16.0213 C   0  0  0  0  0  0  0  0  0  0  0  0
   19.2177  -17.6865  -16.5887 O   0  0  0  0  0  0  0  0  0  0  0  0
   19.6460  -15.7014  -15.6294 O   0  0  0  0  0  0  0  0  0  0  0  0
  1  2  1  0
  3  2  1  0
  3  4  2  0
  5  3  1  0
  6  5  1  0
  6 12  1  0
  6  7  1  1
  8  7  1  0
  9  8  1  0
  9 10  1  0
 11 10  1  0
 12 14  1  0
 13 12  2  0
 14 15  1  0
 15 21  1  0
 15 16  1  6
 17 16  1  0
 18 17  1  0
 19 18  1  0
 20 19  1  0
 21 22  2  0
 21 23  1  0
M  END
$$$$
