GKK.pdb
     RDKit          3D

 23 22  0  0  1  0  0  0  0  0999 V2000
   24.5765  -20.5624   -9.9480 N   0  0  0  0  0  0  0  0  0  0  0  0
   25.0137  -21.5651  -10.8720 C   0  0  0  0  0  0  0  0  0  0  0  0
   24.5782  -21.2206  -12.2485 C   0  0  0  0  0  0  0  0  0  0  0  0
   24.1217  -22.1234  -12.9878 O   0  0  0  0  0  0  0  0  0  0  0  0
   24.6742  -19.8910  -12.7276 N   0  0  0  0  0  0  0  0  0  0  0  0
   24.3534  -19.5514  -14.1121 C   0  0  1  0  0  0  0  0  0  0  0  0
   24.1963  -18.0595  -14.2598 C   0  0  0  0  0  0  0  0  0  0  0  0
   23.8391  -17.5845  -15.6214 C   0  0  0  0  0  0  0  0  0  0  0  0
   23.6104  -16.0719  -15.6390 C   0  0  0  0  0  0  0  0  0  0  0  0
   23.3063  -15.5975  -17.0286 C   0  0  0  0  0  0  0  0  0  0  0  0
   22.9391  -14.1947  -16.9553 N   0  0  0  0  0  0  0  0  0  0  0  0
   25.4622  -20.0214  -15.0108 C   0  0  0  0  0  0  0  0  0  0  0  0
   26.6698  -19.9011  -14.6909 O   0  0  0  0  0  0  0  0  0  0  0  0
   25.1876  -20.6223  -16.2617 N   0  0  0  0  0  0  0  0  0  0  0  0
   26.2323  -21.4099  -16.9317 C   0  0  1  0  0  0  0  0  0  0  0  0
   26.2018  -22.8207  -16.4578 C   0  0  0  0  0  0  0  0  0  0  0  0
   27.2023  -23.6643  -17.1863 C   0  0  0  0  0  0  0  0  0  0  0  0
   27.1502  -25.1168  -16.7036 C   0  0  0  0  0  0  0  0  0  0  0  0
   28.1709  -25.9094  -17.5113 C   0  0  0  0  0  0  0  0  0  0  0  0
   28.2007  -27.2839  -17.0542 N   0  0  0  0  0  0  0  0  0  0  0  0
   25.9639  -21.2850  -18.3682 C   0  0  0  0  0  0  0  0  0  0  0  0
   24.8235  -21.4286  -18.8492 O   0  0  0  0  0  0  0  0  0  0  0  0
   26.9914  -20.9977  -19.2478 O   0  0  0  0  0  0  0  0  0  0  0  0
  1  2  1  0
  3  2  1  0
  3  4  2  0
  5  3  1  0
  6  5  1  0
  6 12  1  0
  6  7  1  1
  8  7  1  0
  9  8  1  0
  9 10  1  0
 11 10  1  0
 12 14  1  0
 13 12  2  0
 14 15  1  0
 15 21  1  0
 15 16  1  1
 17 16  1  0
 18 17  1  0
 19 18  1  0
 20 19  1  0
 21 22  2  0
 21 23  1  0
M  END
$$$$
