GKK.pdb
     RDKit          3D

 23 22  0  0  1  0  0  0  0  0999 V2000
   11.1827  -12.5412   -9.5020 N   0  0  0  0  0  0  0  0  0  0  0  0
   11.6186  -11.9969  -10.7526 C   0  0  0  0  0  0  0  0  0  0  0  0
   13.0347  -11.5627  -10.6585 C   0  0  0  0  0  0  0  0  0  0  0  0
   13.5647  -11.4506   -9.5286 O   0  0  0  0  0  0  0  0  0  0  0  0
   13.7843  -11.2769  -11.8260 N   0  0  0  0  0  0  0  0  0  0  0  0
   15.1067  -10.6595  -11.7545 C   0  0  1  0  0  0  0  0  0  0  0  0
   15.8569  -10.8836  -13.0426 C   0  0  0  0  0  0  0  0  0  0  0  0
   17.2241  -10.3046  -13.0969 C   0  0  0  0  0  0  0  0  0  0  0  0
   17.8893  -10.5785  -14.4470 C   0  0  0  0  0  0  0  0  0  0  0  0
   19.2294   -9.9102  -14.5235 C   0  0  0  0  0  0  0  0  0  0  0  0
   19.8114  -10.2146  -15.8184 N   0  0  0  0  0  0  0  0  0  0  0  0
   14.9558   -9.1824  -11.5228 C   0  0  0  0  0  0  0  0  0  0  0  0
   14.1356   -8.4905  -12.1738 O   0  0  0  0  0  0  0  0  0  0  0  0
   15.7372   -8.5080  -10.5555 N   0  0  0  0  0  0  0  0  0  0  0  0
   15.4552   -7.0978  -10.2517 C   0  0  1  0  0  0  0  0  0  0  0  0
   14.9786   -6.9551   -8.8487 C   0  0  0  0  0  0  0  0  0  0  0  0
   14.7118   -5.5220   -8.5047 C   0  0  0  0  0  0  0  0  0  0  0  0
   14.2102   -5.3881   -7.0639 C   0  0  0  0  0  0  0  0  0  0  0  0
   13.8672   -3.9221   -6.8280 C   0  0  0  0  0  0  0  0  0  0  0  0
   13.3457   -3.7478   -5.4875 N   0  0  0  0  0  0  0  0  0  0  0  0
   16.7085   -6.3789  -10.5042 C   0  0  0  0  0  0  0  0  0  0  0  0
   17.8196   -6.9418  -10.4692 O   0  0  0  0  0  0  0  0  0  0  0  0
   16.6914   -5.0272  -10.7946 O   0  0  0  0  0  0  0  0  0  0  0  0
  1  2  1  0
  3  2  1  0
  3  4  2  0
  5  3  1  0
  6  5  1  0
  6 12  1  0
  6  7  1  6
  8  7  1  0
  9  8  1  0
  9 10  1  0
 11 10  1  0
 12 14  1  0
 13 12  2  0
 14 15  1  0
 15 21  1  0
 15 16  1  1
 17 16  1  0
 18 17  1  0
 19 18  1  0
 20 19  1  0
 21 22  2  0
 21 23  1  0
M  END
$$$$
