GKK.pdb
     RDKit          3D

 23 22  0  0  1  0  0  0  0  0999 V2000
   18.1006  -15.0506  -16.3534 N   0  0  0  0  0  0  0  0  0  0  0  0
   17.4920  -13.7891  -16.0559 C   0  0  0  0  0  0  0  0  0  0  0  0
   18.2942  -12.6824  -16.6344 C   0  0  0  0  0  0  0  0  0  0  0  0
   19.1229  -12.9376  -17.5389 O   0  0  0  0  0  0  0  0  0  0  0  0
   18.1310  -11.3521  -16.1756 N   0  0  0  0  0  0  0  0  0  0  0  0
   18.8167  -10.2321  -16.8161 C   0  0  1  0  0  0  0  0  0  0  0  0
   17.8208   -9.1779  -17.2277 C   0  0  0  0  0  0  0  0  0  0  0  0
   16.9855   -9.5124  -18.4100 C   0  0  0  0  0  0  0  0  0  0  0  0
   16.0288   -8.3694  -18.7544 C   0  0  0  0  0  0  0  0  0  0  0  0
   15.1581   -8.7388  -19.9180 C   0  0  0  0  0  0  0  0  0  0  0  0
   14.2454   -7.6371  -20.1653 N   0  0  0  0  0  0  0  0  0  0  0  0
   19.7997   -9.6313  -15.8514 C   0  0  0  0  0  0  0  0  0  0  0  0
   19.5532   -9.5429  -14.6239 O   0  0  0  0  0  0  0  0  0  0  0  0
   21.0506   -9.1379  -16.2907 N   0  0  0  0  0  0  0  0  0  0  0  0
   22.0059   -8.6078  -15.3073 C   0  0  1  0  0  0  0  0  0  0  0  0
   23.4007   -8.7642  -15.8033 C   0  0  0  0  0  0  0  0  0  0  0  0
   23.9986  -10.0621  -15.3545 C   0  0  0  0  0  0  0  0  0  0  0  0
   25.3733  -10.2823  -15.9925 C   0  0  0  0  0  0  0  0  0  0  0  0
   25.8860  -11.6406  -15.5291 C   0  0  0  0  0  0  0  0  0  0  0  0
   27.1906  -11.8972  -16.1047 N   0  0  0  0  0  0  0  0  0  0  0  0
   21.6275   -7.2057  -15.1020 C   0  0  0  0  0  0  0  0  0  0  0  0
   21.0365   -6.5393  -15.9733 O   0  0  0  0  0  0  0  0  0  0  0  0
   21.9224   -6.5706  -13.9097 O   0  0  0  0  0  0  0  0  0  0  0  0
  1  2  1  0
  3  2  1  0
  3  4  2  0
  5  3  1  0
  6  5  1  0
  6 12  1  0
  6  7  1  1
  8  7  1  0
  9  8  1  0
  9 10  1  0
 11 10  1  0
 12 14  1  0
 13 12  2  0
 14 15  1  0
 15 21  1  0
 15 16  1  6
 17 16  1  0
 18 17  1  0
 19 18  1  0
 20 19  1  0
 21 22  2  0
 21 23  1  0
M  END
$$$$
