GKK.pdb
     RDKit          3D

 23 22  0  0  1  0  0  0  0  0999 V2000
   28.6873  -22.1936  -17.5867 N   0  0  0  0  0  0  0  0  0  0  0  0
   28.5705  -21.1575  -16.6053 C   0  0  0  0  0  0  0  0  0  0  0  0
   27.4260  -21.4326  -15.7012 C   0  0  0  0  0  0  0  0  0  0  0  0
   26.4984  -22.1748  -16.0997 O   0  0  0  0  0  0  0  0  0  0  0  0
   27.3755  -20.8675  -14.4032 N   0  0  0  0  0  0  0  0  0  0  0  0
   26.2284  -21.0749  -13.5223 C   0  0  1  0  0  0  0  0  0  0  0  0
   26.5974  -20.7423  -12.0991 C   0  0  0  0  0  0  0  0  0  0  0  0
   25.5311  -20.9720  -11.0903 C   0  0  0  0  0  0  0  0  0  0  0  0
   25.9733  -20.5093   -9.7007 C   0  0  0  0  0  0  0  0  0  0  0  0
   24.9322  -20.8429   -8.6744 C   0  0  0  0  0  0  0  0  0  0  0  0
   25.3805  -20.3263   -7.3937 N   0  0  0  0  0  0  0  0  0  0  0  0
   25.0974  -20.1868  -13.9584 C   0  0  0  0  0  0  0  0  0  0  0  0
   25.2456  -18.9490  -14.1038 O   0  0  0  0  0  0  0  0  0  0  0  0
   23.8117  -20.7136  -14.2243 N   0  0  0  0  0  0  0  0  0  0  0  0
   22.7583  -19.8274  -14.7395 C   0  0  1  0  0  0  0  0  0  0  0  0
   22.6199  -19.9887  -16.2128 C   0  0  0  0  0  0  0  0  0  0  0  0
   21.5453  -19.1014  -16.7618 C   0  0  0  0  0  0  0  0  0  0  0  0
   21.3823  -19.3066  -18.2707 C   0  0  0  0  0  0  0  0  0  0  0  0
   22.7461  -19.0936  -18.9164 C   0  0  0  0  0  0  0  0  0  0  0  0
   22.6140  -19.0979  -20.3593 N   0  0  0  0  0  0  0  0  0  0  0  0
   21.5400  -20.1923  -14.0089 C   0  0  0  0  0  0  0  0  0  0  0  0
   21.2825  -21.3677  -13.6853 O   0  0  0  0  0  0  0  0  0  0  0  0
   20.6234  -19.2209  -13.6510 O   0  0  0  0  0  0  0  0  0  0  0  0
  1  2  1  0
  3  2  1  0
  3  4  2  0
  5  3  1  0
  6  5  1  0
  6 12  1  0
  6  7  1  1
  8  7  1  0
  9  8  1  0
  9 10  1  0
 11 10  1  0
 12 14  1  0
 13 12  2  0
 14 15  1  0
 15 21  1  0
 15 16  1  6
 17 16  1  0
 18 17  1  0
 19 18  1  0
 20 19  1  0
 21 22  2  0
 21 23  1  0
M  END
$$$$
