GKK.pdb
     RDKit          3D

 23 22  0  0  1  0  0  0  0  0999 V2000
   28.6551  -22.1652  -17.0142 N   0  0  0  0  0  0  0  0  0  0  0  0
   28.1794  -21.0263  -16.2884 C   0  0  0  0  0  0  0  0  0  0  0  0
   27.0084  -21.3995  -15.4563 C   0  0  0  0  0  0  0  0  0  0  0  0
   26.2897  -22.3625  -15.8115 O   0  0  0  0  0  0  0  0  0  0  0  0
   26.7004  -20.6814  -14.2747 N   0  0  0  0  0  0  0  0  0  0  0  0
   25.5604  -21.0423  -13.4350 C   0  0  1  0  0  0  0  0  0  0  0  0
   25.8119  -20.6267  -12.0080 C   0  0  0  0  0  0  0  0  0  0  0  0
   24.7372  -20.9706  -11.0416 C   0  0  0  0  0  0  0  0  0  0  0  0
   25.1281  -20.5797   -9.6151 C   0  0  0  0  0  0  0  0  0  0  0  0
   24.0503  -20.9634   -8.6457 C   0  0  0  0  0  0  0  0  0  0  0  0
   24.5387  -20.7040   -7.3032 N   0  0  0  0  0  0  0  0  0  0  0  0
   24.3282  -20.3468  -13.9408 C   0  0  0  0  0  0  0  0  0  0  0  0
   24.2821  -19.1005  -14.0820 O   0  0  0  0  0  0  0  0  0  0  0  0
   23.1629  -21.0734  -14.2805 N   0  0  0  0  0  0  0  0  0  0  0  0
   21.9893  -20.3579  -14.8014 C   0  0  1  0  0  0  0  0  0  0  0  0
   21.4789  -21.0251  -16.0303 C   0  0  0  0  0  0  0  0  0  0  0  0
   21.4317  -20.0765  -17.1884 C   0  0  0  0  0  0  0  0  0  0  0  0
   20.7842  -20.7345  -18.4104 C   0  0  0  0  0  0  0  0  0  0  0  0
   20.8030  -19.7192  -19.5467 C   0  0  0  0  0  0  0  0  0  0  0  0
   20.1497  -20.2748  -20.7145 N   0  0  0  0  0  0  0  0  0  0  0  0
   21.0114  -20.3505  -13.7084 C   0  0  0  0  0  0  0  0  0  0  0  0
   20.8632  -21.3190  -12.9386 O   0  0  0  0  0  0  0  0  0  0  0  0
   20.2091  -19.2443  -13.4970 O   0  0  0  0  0  0  0  0  0  0  0  0
  1  2  1  0
  3  2  1  0
  3  4  2  0
  5  3  1  0
  6  5  1  0
  6 12  1  0
  6  7  1  1
  8  7  1  0
  9  8  1  0
  9 10  1  0
 11 10  1  0
 12 14  1  0
 13 12  2  0
 14 15  1  0
 15 21  1  0
 15 16  1  6
 17 16  1  0
 18 17  1  0
 19 18  1  0
 20 19  1  0
 21 22  2  0
 21 23  1  0
M  END
$$$$
