VRI.pdb
     RDKit          3D

 27 26  0  0  1  0  0  0  0  0999 V2000
   28.4273  -19.2746  -18.3055 C   0  0  0  0  0  0  0  0  0  0  0  0
   27.3702  -19.5467  -17.2838 C   0  0  1  0  0  0  0  0  0  0  0  0
   26.0902  -19.9252  -17.9935 C   0  0  0  0  0  0  0  0  0  0  0  0
   27.7749  -20.6881  -16.3741 C   0  0  2  0  0  0  0  0  0  0  0  0
   28.0419  -21.8160  -17.2926 N   0  0  0  0  0  0  0  0  0  0  0  0
   26.7122  -21.1048  -15.4459 C   0  0  0  0  0  0  0  0  0  0  0  0
   25.7944  -21.8683  -15.9186 O   0  0  0  0  0  0  0  0  0  0  0  0
   25.8414  -19.1533   -7.8500 N   0  0  0  0  0  0  0  0  0  0  0  0
   25.4620  -20.5272   -7.9909 C   0  0  0  0  0  0  0  0  0  0  0  0
   24.4266  -21.0036   -7.3927 N   0  0  0  0  0  0  0  0  0  0  0  0
   26.2057  -21.4313   -8.7953 N   0  0  0  0  0  0  0  0  0  0  0  0
   27.1958  -20.9084   -9.7128 C   0  0  0  0  0  0  0  0  0  0  0  0
   26.9614  -21.3811  -11.1279 C   0  0  0  0  0  0  0  0  0  0  0  0
   25.8174  -20.6765  -11.7669 C   0  0  0  0  0  0  0  0  0  0  0  0
   25.5486  -21.1215  -13.2109 C   0  0  2  0  0  0  0  0  0  0  0  0
   26.6338  -20.7260  -14.0779 N   0  0  0  0  0  0  0  0  0  0  0  0
   24.2869  -20.3857  -13.5574 C   0  0  0  0  0  0  0  0  0  0  0  0
   24.3844  -19.1550  -13.7762 O   0  0  0  0  0  0  0  0  0  0  0  0
   24.1821  -21.9994   -7.5581 C   0  0  0  0  0  0  0  0  0  0  0  0
   19.8722  -20.1007  -17.2645 C   0  0  0  0  0  0  0  0  0  0  0  0
   20.0994  -19.8060  -15.7755 C   0  0  2  0  0  0  0  0  0  0  0  0
   21.3338  -20.5477  -15.3863 C   0  0  0  0  0  0  0  0  0  0  0  0
   21.2190  -22.0162  -15.6622 C   0  0  2  0  0  0  0  0  0  0  0  0
   21.7997  -20.2748  -13.9750 N   0  0  0  0  0  0  0  0  0  0  0  0
   23.0223  -20.9787  -13.6509 C   0  0  0  0  0  0  0  0  0  0  0  0
   20.7708  -20.6704  -12.9977 O   0  0  0  0  0  0  0  0  0  0  0  0
   19.6126  -19.9346  -12.8536 O   0  0  0  0  0  0  0  0  0  0  0  0
  2  3  1  6
  2  1  1  0
  4  2  1  0
  4  5  1  6
  6  7  2  0
  6  4  1  0
  9  8  1  0
 10  9  2  0
 11  9  1  0
 12 11  1  0
 13 12  1  0
 13 14  1  0
 15 14  1  1
 15 16  1  0
 16  6  1  0
 17 15  1  0
 18 17  2  0
 19 20  1  0
 20 21  1  0
 21 23  1  0
 21 22  1  6
 23 24  1  1
 24 17  1  0
 25 23  1  0
 25 26  1  0
 27 25  2  0
M  END
$$$$
