VRI.pdb
     RDKit          3D

 27 26  0  0  1  0  0  0  0  0999 V2000
   17.9219  -22.6448  -11.8135 C   0  0  0  0  0  0  0  0  0  0  0  0
   18.8989  -21.6911  -12.4229 C   0  0  1  0  0  0  0  0  0  0  0  0
   20.3009  -22.1466  -12.0874 C   0  0  0  0  0  0  0  0  0  0  0  0
   18.7508  -21.6504  -13.9296 C   0  0  2  0  0  0  0  0  0  0  0  0
   18.8682  -23.0632  -14.3510 N   0  0  0  0  0  0  0  0  0  0  0  0
   19.8140  -20.8893  -14.6042 C   0  0  0  0  0  0  0  0  0  0  0  0
   19.8364  -19.6210  -14.4051 O   0  0  0  0  0  0  0  0  0  0  0  0
   25.2299  -24.3165  -17.9280 N   0  0  0  0  0  0  0  0  0  0  0  0
   25.5841  -23.8771  -16.6116 C   0  0  0  0  0  0  0  0  0  0  0  0
   25.8962  -24.7139  -15.6847 N   0  0  0  0  0  0  0  0  0  0  0  0
   25.6096  -22.5005  -16.2625 N   0  0  0  0  0  0  0  0  0  0  0  0
   25.3821  -21.5078  -17.2914 C   0  0  0  0  0  0  0  0  0  0  0  0
   24.1626  -20.6646  -17.0042 C   0  0  0  0  0  0  0  0  0  0  0  0
   23.0433  -21.4755  -16.4535 C   0  0  0  0  0  0  0  0  0  0  0  0
   21.7728  -20.6616  -16.1729 C   0  0  2  0  0  0  0  0  0  0  0  0
   20.8068  -21.4553  -15.4499 N   0  0  0  0  0  0  0  0  0  0  0  0
   21.2763  -20.3326  -17.5508 C   0  0  0  0  0  0  0  0  0  0  0  0
   20.5994  -21.2088  -18.1390 O   0  0  0  0  0  0  0  0  0  0  0  0
   26.1287  -24.3376  -14.7450 C   0  0  0  0  0  0  0  0  0  0  0  0
   19.2725  -15.5421  -18.8444 C   0  0  0  0  0  0  0  0  0  0  0  0
   19.3698  -17.0727  -18.9031 C   0  0  2  0  0  0  0  0  0  0  0  0
   20.5990  -17.3835  -19.6890 C   0  0  0  0  0  0  0  0  0  0  0  0
   20.4697  -16.9698  -21.1236 C   0  0  2  0  0  0  0  0  0  0  0  0
   21.0730  -18.8121  -19.5557 N   0  0  0  0  0  0  0  0  0  0  0  0
   21.5179  -19.1237  -18.2140 C   0  0  0  0  0  0  0  0  0  0  0  0
   22.1859  -19.0837  -20.4819 O   0  0  0  0  0  0  0  0  0  0  0  0
   23.4845  -18.7693  -20.1380 O   0  0  0  0  0  0  0  0  0  0  0  0
  2  3  1  6
  2  1  1  0
  4  2  1  0
  4  5  1  6
  6  7  2  0
  6  4  1  0
  9  8  1  0
 10  9  2  0
 11  9  1  0
 12 11  1  0
 13 12  1  0
 13 14  1  0
 15 14  1  6
 15 16  1  0
 16  6  1  0
 17 15  1  0
 18 17  2  0
 19 20  1  0
 20 21  1  0
 21 23  1  0
 21 22  1  1
 23 24  1  6
 24 17  1  0
 25 23  1  0
 25 26  1  0
 27 25  2  0
M  END
$$$$
