VRI.pdb
     RDKit          3D

 27 26  0  0  1  0  0  0  0  0999 V2000
   16.6938  -20.8071  -17.2193 C   0  0  0  0  0  0  0  0  0  0  0  0
   17.6107  -19.8210  -16.5694 C   0  0  1  0  0  0  0  0  0  0  0  0
   17.6478  -20.0940  -15.0830 C   0  0  0  0  0  0  0  0  0  0  0  0
   19.0167  -19.9425  -17.1190 C   0  0  2  0  0  0  0  0  0  0  0  0
   19.3574  -21.3717  -16.9506 N   0  0  0  0  0  0  0  0  0  0  0  0
   20.0091  -19.1521  -16.3741 C   0  0  0  0  0  0  0  0  0  0  0  0
   19.8887  -17.8746  -16.4217 O   0  0  0  0  0  0  0  0  0  0  0  0
   19.0481  -19.5793  -10.9881 N   0  0  0  0  0  0  0  0  0  0  0  0
   19.3421  -20.9799  -10.9323 C   0  0  0  0  0  0  0  0  0  0  0  0
   18.4111  -21.8573  -10.7905 N   0  0  0  0  0  0  0  0  0  0  0  0
   20.6712  -21.4712  -11.0308 N   0  0  0  0  0  0  0  0  0  0  0  0
   21.6970  -20.6212  -11.5975 C   0  0  0  0  0  0  0  0  0  0  0  0
   21.3377  -20.1504  -12.9867 C   0  0  0  0  0  0  0  0  0  0  0  0
   22.4247  -19.3382  -13.5968 C   0  0  0  0  0  0  0  0  0  0  0  0
   22.1282  -18.8934  -15.0355 C   0  0  2  0  0  0  0  0  0  0  0  0
   21.0783  -19.6992  -15.6133 N   0  0  0  0  0  0  0  0  0  0  0  0
   23.4355  -19.1306  -15.7341 C   0  0  0  0  0  0  0  0  0  0  0  0
   23.6351  -20.2774  -16.1999 O   0  0  0  0  0  0  0  0  0  0  0  0
   18.6754  -22.8609  -10.8316 C   0  0  0  0  0  0  0  0  0  0  0  0
   28.2636  -17.2911  -17.6765 C   0  0  0  0  0  0  0  0  0  0  0  0
   27.0287  -17.4395  -18.5758 C   0  0  1  0  0  0  0  0  0  0  0  0
   25.8426  -17.2450  -17.6923 C   0  0  0  0  0  0  0  0  0  0  0  0
   25.8306  -15.8881  -17.0563 C   0  0  2  0  0  0  0  0  0  0  0  0
   25.6420  -18.3449  -16.6758 N   0  0  0  0  0  0  0  0  0  0  0  0
   24.4352  -18.1644  -15.8972 C   0  0  0  0  0  0  0  0  0  0  0  0
   26.7818  -18.4124  -15.7449 O   0  0  0  0  0  0  0  0  0  0  0  0
   27.7701  -19.3616  -15.9050 O   0  0  0  0  0  0  0  0  0  0  0  0
  2  3  1  1
  2  1  1  0
  4  2  1  0
  4  5  1  1
  6  7  2  0
  6  4  1  0
  9  8  1  0
 10  9  2  0
 11  9  1  0
 12 11  1  0
 13 12  1  0
 13 14  1  0
 15 14  1  1
 15 16  1  0
 16  6  1  0
 17 15  1  0
 18 17  2  0
 19 20  1  0
 20 21  1  0
 21 23  1  0
 21 22  1  6
 23 24  1  1
 24 17  1  0
 25 23  1  0
 25 26  1  0
 27 25  2  0
M  END
$$$$
