VRI.pdb
     RDKit          3D

 27 26  0  0  1  0  0  0  0  0999 V2000
   17.9739  -19.5085  -11.1485 C   0  0  0  0  0  0  0  0  0  0  0  0
   18.5309  -20.7852  -11.6918 C   0  0  1  0  0  0  0  0  0  0  0  0
   17.5001  -21.8784  -11.5249 C   0  0  0  0  0  0  0  0  0  0  0  0
   18.8601  -20.6512  -13.1641 C   0  0  2  0  0  0  0  0  0  0  0  0
   19.2044  -22.0242  -13.5925 N   0  0  0  0  0  0  0  0  0  0  0  0
   20.0238  -19.7912  -13.4300 C   0  0  0  0  0  0  0  0  0  0  0  0
   19.8035  -18.5301  -13.5299 O   0  0  0  0  0  0  0  0  0  0  0  0
   24.9519  -22.6020  -16.6452 N   0  0  0  0  0  0  0  0  0  0  0  0
   25.1087  -23.7114  -15.7531 C   0  0  0  0  0  0  0  0  0  0  0  0
   25.1684  -24.9212  -16.1884 N   0  0  0  0  0  0  0  0  0  0  0  0
   25.2066  -23.5345  -14.3471 N   0  0  0  0  0  0  0  0  0  0  0  0
   25.1180  -22.1984  -13.7967 C   0  0  0  0  0  0  0  0  0  0  0  0
   23.7990  -21.5388  -14.1222 C   0  0  0  0  0  0  0  0  0  0  0  0
   23.7981  -20.0935  -13.7690 C   0  0  0  0  0  0  0  0  0  0  0  0
   22.4472  -19.4034  -14.0013 C   0  0  2  0  0  0  0  0  0  0  0  0
   21.3593  -20.2549  -13.5806 N   0  0  0  0  0  0  0  0  0  0  0  0
   22.4278  -19.2001  -15.4885 C   0  0  0  0  0  0  0  0  0  0  0  0
   22.0250  -20.1571  -16.1913 O   0  0  0  0  0  0  0  0  0  0  0  0
   25.1693  -25.6915  -15.4918 C   0  0  0  0  0  0  0  0  0  0  0  0
   19.6050  -16.6365  -19.5227 C   0  0  0  0  0  0  0  0  0  0  0  0
   21.0979  -16.9412  -19.3387 C   0  0  2  0  0  0  0  0  0  0  0  0
   21.2781  -17.2959  -17.9010 C   0  0  0  0  0  0  0  0  0  0  0  0
   20.8084  -16.2039  -16.9884 C   0  0  2  0  0  0  0  0  0  0  0  0
   22.6715  -17.7628  -17.5495 N   0  0  0  0  0  0  0  0  0  0  0  0
   22.8263  -18.0237  -16.1342 C   0  0  0  0  0  0  0  0  0  0  0  0
   23.6755  -16.7589  -17.9426 O   0  0  0  0  0  0  0  0  0  0  0  0
   24.4140  -16.0872  -16.9902 O   0  0  0  0  0  0  0  0  0  0  0  0
  2  3  1  6
  2  1  1  0
  4  2  1  0
  4  5  1  1
  6  7  2  0
  6  4  1  0
  9  8  1  0
 10  9  2  0
 11  9  1  0
 12 11  1  0
 13 12  1  0
 13 14  1  0
 15 14  1  6
 15 16  1  0
 16  6  1  0
 17 15  1  0
 18 17  2  0
 19 20  1  0
 20 21  1  0
 21 23  1  0
 21 22  1  1
 23 24  1  6
 24 17  1  0
 25 23  1  0
 25 26  1  0
 27 25  2  0
M  END
$$$$
