VRI.pdb
     RDKit          3D

 27 26  0  0  1  0  0  0  0  0999 V2000
   27.7644  -17.8044  -14.5778 C   0  0  0  0  0  0  0  0  0  0  0  0
   27.3214  -19.2018  -14.8717 C   0  0  1  0  0  0  0  0  0  0  0  0
   28.0565  -19.7006  -16.0950 C   0  0  0  0  0  0  0  0  0  0  0  0
   27.6305  -20.1250  -13.7115 C   0  0  2  0  0  0  0  0  0  0  0  0
   27.0695  -21.4313  -14.1188 N   0  0  0  0  0  0  0  0  0  0  0  0
   26.9784  -19.7271  -12.4541 C   0  0  0  0  0  0  0  0  0  0  0  0
   27.4020  -18.6516  -11.8950 O   0  0  0  0  0  0  0  0  0  0  0  0
   20.8397  -19.4902  -13.7582 N   0  0  0  0  0  0  0  0  0  0  0  0
   20.8750  -20.9103  -13.5751 C   0  0  0  0  0  0  0  0  0  0  0  0
   20.6194  -21.7196  -14.5428 N   0  0  0  0  0  0  0  0  0  0  0  0
   21.1931  -21.4966  -12.3211 N   0  0  0  0  0  0  0  0  0  0  0  0
   21.5639  -20.6388  -11.2154 C   0  0  0  0  0  0  0  0  0  0  0  0
   22.9423  -20.0485  -11.3949 C   0  0  0  0  0  0  0  0  0  0  0  0
   23.9187  -20.6110  -10.4234 C   0  0  0  0  0  0  0  0  0  0  0  0
   25.3342  -20.0363  -10.5698 C   0  0  2  0  0  0  0  0  0  0  0  0
   25.9233  -20.4422  -11.8243 N   0  0  0  0  0  0  0  0  0  0  0  0
   26.0642  -20.6478   -9.4094 C   0  0  0  0  0  0  0  0  0  0  0  0
   26.5106  -21.8093   -9.5624 O   0  0  0  0  0  0  0  0  0  0  0  0
   20.6455  -22.7392  -14.3467 C   0  0  0  0  0  0  0  0  0  0  0  0
   29.6886  -19.2880   -4.7740 C   0  0  0  0  0  0  0  0  0  0  0  0
   28.6998  -20.3488   -5.2765 C   0  0  2  0  0  0  0  0  0  0  0  0
   27.9414  -19.7169   -6.3949 C   0  0  0  0  0  0  0  0  0  0  0  0
   27.3570  -18.3940   -6.0022 C   0  0  2  0  0  0  0  0  0  0  0  0
   26.9112  -20.6208   -7.0314 N   0  0  0  0  0  0  0  0  0  0  0  0
   26.2762  -20.0115   -8.1806 C   0  0  0  0  0  0  0  0  0  0  0  0
   25.8598  -20.9799   -6.0640 O   0  0  0  0  0  0  0  0  0  0  0  0
   26.1448  -21.7742   -4.9725 O   0  0  0  0  0  0  0  0  0  0  0  0
  2  3  1  6
  2  1  1  0
  4  2  1  0
  4  5  1  6
  6  7  2  0
  6  4  1  0
  9  8  1  0
 10  9  2  0
 11  9  1  0
 12 11  1  0
 13 12  1  0
 13 14  1  0
 15 14  1  6
 15 16  1  0
 16  6  1  0
 17 15  1  0
 18 17  2  0
 19 20  1  0
 20 21  1  0
 21 23  1  0
 21 22  1  6
 23 24  1  1
 24 17  1  0
 25 23  1  0
 25 26  1  0
 27 25  2  0
M  END
$$$$
