VRI.pdb
     RDKit          3D

 27 26  0  0  1  0  0  0  0  0999 V2000
   27.5428  -24.1395  -17.6618 C   0  0  0  0  0  0  0  0  0  0  0  0
   26.5300  -25.1487  -17.2250 C   0  0  1  0  0  0  0  0  0  0  0  0
   27.1915  -26.1294  -16.2836 C   0  0  0  0  0  0  0  0  0  0  0  0
   25.3782  -24.4839  -16.5002 C   0  0  2  0  0  0  0  0  0  0  0  0
   24.6375  -23.7679  -17.5613 N   0  0  0  0  0  0  0  0  0  0  0  0
   25.8065  -23.4916  -15.5019 C   0  0  0  0  0  0  0  0  0  0  0  0
   26.2803  -23.9453  -14.3981 O   0  0  0  0  0  0  0  0  0  0  0  0
   24.6548  -17.0203  -17.1226 N   0  0  0  0  0  0  0  0  0  0  0  0
   26.0790  -16.8706  -17.1516 C   0  0  0  0  0  0  0  0  0  0  0  0
   26.7010  -16.5641  -18.2359 N   0  0  0  0  0  0  0  0  0  0  0  0
   26.8753  -17.0515  -15.9893 N   0  0  0  0  0  0  0  0  0  0  0  0
   26.2238  -17.2703  -14.7152 C   0  0  0  0  0  0  0  0  0  0  0  0
   26.4492  -18.6711  -14.1978 C   0  0  0  0  0  0  0  0  0  0  0  0
   25.8976  -19.6999  -15.1203 C   0  0  0  0  0  0  0  0  0  0  0  0
   26.1688  -21.1413  -14.6686 C   0  0  2  0  0  0  0  0  0  0  0  0
   25.7339  -22.0823  -15.6742 N   0  0  0  0  0  0  0  0  0  0  0  0
   25.3395  -21.2624  -13.4233 C   0  0  0  0  0  0  0  0  0  0  0  0
   24.1248  -21.5363  -13.5695 O   0  0  0  0  0  0  0  0  0  0  0  0
   27.7390  -16.5383  -18.2130 C   0  0  0  0  0  0  0  0  0  0  0  0
   26.0947  -21.0010   -7.2559 C   0  0  0  0  0  0  0  0  0  0  0  0
   25.0903  -21.1954   -8.4001 C   0  0  2  0  0  0  0  0  0  0  0  0
   25.8560  -21.0022   -9.6657 C   0  0  0  0  0  0  0  0  0  0  0  0
   26.6224  -19.7143   -9.6692 C   0  0  2  0  0  0  0  0  0  0  0  0
   25.0295  -21.1688  -10.9196 N   0  0  0  0  0  0  0  0  0  0  0  0
   25.8297  -21.0909  -12.1233 C   0  0  0  0  0  0  0  0  0  0  0  0
   23.9822  -20.1357  -10.9983 O   0  0  0  0  0  0  0  0  0  0  0  0
   22.7559  -20.3249  -10.3950 O   0  0  0  0  0  0  0  0  0  0  0  0
  2  3  1  1
  2  1  1  0
  4  2  1  0
  4  5  1  6
  6  7  2  0
  6  4  1  0
  9  8  1  0
 10  9  2  0
 11  9  1  0
 12 11  1  0
 13 12  1  0
 13 14  1  0
 15 14  1  6
 15 16  1  0
 16  6  1  0
 17 15  1  0
 18 17  2  0
 19 20  1  0
 20 21  1  0
 21 23  1  0
 21 22  1  6
 23 24  1  6
 24 17  1  0
 25 23  1  0
 25 26  1  0
 27 25  2  0
M  END
$$$$
