VRI.pdb
     RDKit          3D

 27 26  0  0  1  0  0  0  0  0999 V2000
   26.2455  -27.7041  -17.9639 C   0  0  0  0  0  0  0  0  0  0  0  0
   27.4304  -26.7925  -17.9845 C   0  0  1  0  0  0  0  0  0  0  0  0
   27.4185  -26.0044  -19.2746 C   0  0  0  0  0  0  0  0  0  0  0  0
   27.3884  -25.8208  -16.8235 C   0  0  2  0  0  0  0  0  0  0  0  0
   27.6994  -26.6479  -15.6376 N   0  0  0  0  0  0  0  0  0  0  0  0
   26.0653  -25.2124  -16.6139 C   0  0  0  0  0  0  0  0  0  0  0  0
   25.6391  -24.4191  -17.5293 O   0  0  0  0  0  0  0  0  0  0  0  0
   20.1252  -28.8794  -11.7993 N   0  0  0  0  0  0  0  0  0  0  0  0
   21.5538  -28.8186  -11.8818 C   0  0  0  0  0  0  0  0  0  0  0  0
   22.3030  -29.4775  -11.0685 N   0  0  0  0  0  0  0  0  0  0  0  0
   22.2151  -28.0316  -12.8621 N   0  0  0  0  0  0  0  0  0  0  0  0
   21.4390  -27.4359  -13.9291 C   0  0  0  0  0  0  0  0  0  0  0  0
   22.3127  -26.7260  -14.9358 C   0  0  0  0  0  0  0  0  0  0  0  0
   23.0871  -25.6172  -14.3157 C   0  0  0  0  0  0  0  0  0  0  0  0
   23.9398  -24.8261  -15.3169 C   0  0  2  0  0  0  0  0  0  0  0  0
   25.2361  -25.4409  -15.4820 N   0  0  0  0  0  0  0  0  0  0  0  0
   24.0613  -23.4810  -14.6619 C   0  0  0  0  0  0  0  0  0  0  0  0
   24.6493  -23.4347  -13.5555 O   0  0  0  0  0  0  0  0  0  0  0  0
   23.3292  -29.4610  -11.2275 C   0  0  0  0  0  0  0  0  0  0  0  0
   25.6642  -19.0940  -17.2257 C   0  0  0  0  0  0  0  0  0  0  0  0
   25.4646  -20.1783  -16.1580 C   0  0  2  0  0  0  0  0  0  0  0  0
   24.1304  -19.9188  -15.5432 C   0  0  0  0  0  0  0  0  0  0  0  0
   24.0440  -18.5486  -14.9425 C   0  0  2  0  0  0  0  0  0  0  0  0
   23.6776  -20.9873  -14.5754 N   0  0  0  0  0  0  0  0  0  0  0  0
   23.5656  -22.2878  -15.2009 C   0  0  0  0  0  0  0  0  0  0  0  0
   22.3687  -20.6455  -13.9921 O   0  0  0  0  0  0  0  0  0  0  0  0
   22.2842  -19.9646  -12.7951 O   0  0  0  0  0  0  0  0  0  0  0  0
  2  3  1  6
  2  1  1  0
  4  2  1  0
  4  5  1  1
  6  7  2  0
  6  4  1  0
  9  8  1  0
 10  9  2  0
 11  9  1  0
 12 11  1  0
 13 12  1  0
 13 14  1  0
 15 14  1  1
 15 16  1  0
 16  6  1  0
 17 15  1  0
 18 17  2  0
 19 20  1  0
 20 21  1  0
 21 23  1  0
 21 22  1  6
 23 24  1  1
 24 17  1  0
 25 23  1  0
 25 26  1  0
 27 25  2  0
M  END
$$$$
