VRI.pdb
     RDKit          3D

 27 26  0  0  1  0  0  0  0  0999 V2000
   26.3376  -19.2852  -14.8782 C   0  0  0  0  0  0  0  0  0  0  0  0
   27.8168  -19.3823  -14.6832 C   0  0  1  0  0  0  0  0  0  0  0  0
   28.3920  -17.9865  -14.6031 C   0  0  0  0  0  0  0  0  0  0  0  0
   28.1487  -20.1167  -13.4008 C   0  0  2  0  0  0  0  0  0  0  0  0
   27.8118  -21.5283  -13.6854 N   0  0  0  0  0  0  0  0  0  0  0  0
   27.3407  -19.6840  -12.2499 C   0  0  0  0  0  0  0  0  0  0  0  0
   27.4540  -18.4569  -11.8891 O   0  0  0  0  0  0  0  0  0  0  0  0
   19.5115  -21.8759  -11.3911 N   0  0  0  0  0  0  0  0  0  0  0  0
   20.0822  -21.1838  -10.2746 C   0  0  0  0  0  0  0  0  0  0  0  0
   19.4607  -21.0919   -9.1512 N   0  0  0  0  0  0  0  0  0  0  0  0
   21.3590  -20.5658  -10.3490 N   0  0  0  0  0  0  0  0  0  0  0  0
   22.1047  -20.6347  -11.5880 C   0  0  0  0  0  0  0  0  0  0  0  0
   23.4588  -19.9763  -11.4707 C   0  0  0  0  0  0  0  0  0  0  0  0
   24.2796  -20.5822  -10.3878 C   0  0  0  0  0  0  0  0  0  0  0  0
   25.7272  -20.0738  -10.3541 C   0  0  2  0  0  0  0  0  0  0  0  0
   26.4530  -20.5208  -11.5199 N   0  0  0  0  0  0  0  0  0  0  0  0
   26.2730  -20.7037   -9.1057 C   0  0  0  0  0  0  0  0  0  0  0  0
   26.7117  -21.8744   -9.2006 O   0  0  0  0  0  0  0  0  0  0  0  0
   19.9323  -20.5936   -8.3715 C   0  0  0  0  0  0  0  0  0  0  0  0
   28.8747  -17.6857   -5.3315 C   0  0  0  0  0  0  0  0  0  0  0  0
   28.5559  -18.7963   -6.3417 C   0  0  2  0  0  0  0  0  0  0  0  0
   27.4724  -19.6192   -5.7299 C   0  0  0  0  0  0  0  0  0  0  0  0
   27.8883  -20.2124   -4.4181 C   0  0  2  0  0  0  0  0  0  0  0  0
   26.8874  -20.6588   -6.6575 N   0  0  0  0  0  0  0  0  0  0  0  0
   26.3231  -20.0751   -7.8559 C   0  0  0  0  0  0  0  0  0  0  0  0
   25.8290  -21.4286   -5.9811 O   0  0  0  0  0  0  0  0  0  0  0  0
   26.1426  -22.3716   -5.0240 O   0  0  0  0  0  0  0  0  0  0  0  0
  2  3  1  1
  2  1  1  0
  4  2  1  0
  4  5  1  6
  6  7  2  0
  6  4  1  0
  9  8  1  0
 10  9  2  0
 11  9  1  0
 12 11  1  0
 13 12  1  0
 13 14  1  0
 15 14  1  6
 15 16  1  0
 16  6  1  0
 17 15  1  0
 18 17  2  0
 19 20  1  0
 20 21  1  0
 21 23  1  0
 21 22  1  6
 23 24  1  6
 24 17  1  0
 25 23  1  0
 25 26  1  0
 27 25  2  0
M  END
$$$$
