VRI.pdb
     RDKit          3D

 27 26  0  0  1  0  0  0  0  0999 V2000
   15.2252  -13.2427  -18.3867 C   0  0  0  0  0  0  0  0  0  0  0  0
   15.3335  -14.5886  -17.7446 C   0  0  1  0  0  0  0  0  0  0  0  0
   14.4827  -15.5695  -18.5188 C   0  0  0  0  0  0  0  0  0  0  0  0
   16.7661  -15.0800  -17.7514 C   0  0  2  0  0  0  0  0  0  0  0  0
   16.7206  -16.3625  -17.0165 N   0  0  0  0  0  0  0  0  0  0  0  0
   17.6968  -14.1876  -17.0427 C   0  0  0  0  0  0  0  0  0  0  0  0
   17.5595  -14.0980  -15.7691 O   0  0  0  0  0  0  0  0  0  0  0  0
   24.7190  -15.9245  -16.2779 N   0  0  0  0  0  0  0  0  0  0  0  0
   24.7659  -14.5023  -16.1152 C   0  0  0  0  0  0  0  0  0  0  0  0
   25.5557  -13.9486  -15.2630 N   0  0  0  0  0  0  0  0  0  0  0  0
   23.9466  -13.6327  -16.8835 N   0  0  0  0  0  0  0  0  0  0  0  0
   22.9564  -14.2004  -17.7740 C   0  0  0  0  0  0  0  0  0  0  0  0
   21.5561  -14.0595  -17.2264 C   0  0  0  0  0  0  0  0  0  0  0  0
   21.0394  -12.6719  -17.3717 C   0  0  0  0  0  0  0  0  0  0  0  0
   19.5753  -12.5113  -16.9402 C   0  0  2  0  0  0  0  0  0  0  0  0
   18.7259  -13.4282  -17.6636 N   0  0  0  0  0  0  0  0  0  0  0  0
   19.2721  -11.0889  -17.3120 C   0  0  0  0  0  0  0  0  0  0  0  0
   19.1761  -10.8253  -18.5340 O   0  0  0  0  0  0  0  0  0  0  0  0
   25.6042  -12.9113  -15.2442 C   0  0  0  0  0  0  0  0  0  0  0  0
   14.9415   -8.7176  -16.6088 C   0  0  0  0  0  0  0  0  0  0  0  0
   16.3103   -9.0977  -17.1898 C   0  0  2  0  0  0  0  0  0  0  0  0
   17.3242   -8.3391  -16.4014 C   0  0  0  0  0  0  0  0  0  0  0  0
   17.0814   -6.8610  -16.4460 C   0  0  2  0  0  0  0  0  0  0  0  0
   18.7556   -8.6849  -16.7402 N   0  0  0  0  0  0  0  0  0  0  0  0
   19.0917  -10.0492  -16.3923 C   0  0  0  0  0  0  0  0  0  0  0  0
   19.6914   -7.7895  -16.0382 O   0  0  0  0  0  0  0  0  0  0  0  0
   19.8481   -6.4779  -16.4365 O   0  0  0  0  0  0  0  0  0  0  0  0
  2  3  1  6
  2  1  1  0
  4  2  1  0
  4  5  1  1
  6  7  2  0
  6  4  1  0
  9  8  1  0
 10  9  2  0
 11  9  1  0
 12 11  1  0
 13 12  1  0
 13 14  1  0
 15 14  1  6
 15 16  1  0
 16  6  1  0
 17 15  1  0
 18 17  2  0
 19 20  1  0
 20 21  1  0
 21 23  1  0
 21 22  1  1
 23 24  1  6
 24 17  1  0
 25 23  1  0
 25 26  1  0
 27 25  2  0
M  END
$$$$
