VRI.pdb
     RDKit          3D

 27 26  0  0  1  0  0  0  0  0999 V2000
   28.1473  -16.1407  -16.7721 C   0  0  0  0  0  0  0  0  0  0  0  0
   27.6034  -17.4136  -17.3372 C   0  0  1  0  0  0  0  0  0  0  0  0
   28.2123  -17.6422  -18.7019 C   0  0  0  0  0  0  0  0  0  0  0  0
   27.9471  -18.5922  -16.4503 C   0  0  2  0  0  0  0  0  0  0  0  0
   28.2680  -19.6843  -17.3944 N   0  0  0  0  0  0  0  0  0  0  0  0
   26.8272  -19.0399  -15.6076 C   0  0  0  0  0  0  0  0  0  0  0  0
   26.6532  -18.4213  -14.4959 O   0  0  0  0  0  0  0  0  0  0  0  0
   24.2921  -25.1608  -15.5081 N   0  0  0  0  0  0  0  0  0  0  0  0
   23.1950  -25.2537  -14.5920 C   0  0  0  0  0  0  0  0  0  0  0  0
   23.1503  -26.1679  -13.6870 N   0  0  0  0  0  0  0  0  0  0  0  0
   22.1040  -24.3451  -14.6346 N   0  0  0  0  0  0  0  0  0  0  0  0
   22.1452  -23.2369  -15.5651 C   0  0  0  0  0  0  0  0  0  0  0  0
   22.8218  -22.0243  -14.9712 C   0  0  0  0  0  0  0  0  0  0  0  0
   24.0521  -21.6516  -15.7202 C   0  0  0  0  0  0  0  0  0  0  0  0
   24.8079  -20.4629  -15.1109 C   0  0  2  0  0  0  0  0  0  0  0  0
   25.9346  -20.0964  -15.9366 N   0  0  0  0  0  0  0  0  0  0  0  0
   25.2639  -21.0014  -13.7860 C   0  0  0  0  0  0  0  0  0  0  0  0
   26.1331  -21.9046  -13.8043 O   0  0  0  0  0  0  0  0  0  0  0  0
   22.3264  -26.1895  -13.0550 C   0  0  0  0  0  0  0  0  0  0  0  0
   27.2692  -19.4326   -8.5027 C   0  0  0  0  0  0  0  0  0  0  0  0
   26.4704  -20.5782   -9.1392 C   0  0  2  0  0  0  0  0  0  0  0  0
   26.0147  -20.0810  -10.4698 C   0  0  0  0  0  0  0  0  0  0  0  0
   25.3118  -18.7614  -10.3674 C   0  0  2  0  0  0  0  0  0  0  0  0
   25.2124  -21.0860  -11.2634 N   0  0  0  0  0  0  0  0  0  0  0  0
   24.7861  -20.5647  -12.5447 C   0  0  0  0  0  0  0  0  0  0  0  0
   24.0131  -21.5055  -10.5177 O   0  0  0  0  0  0  0  0  0  0  0  0
   24.1190  -22.3186   -9.4082 O   0  0  0  0  0  0  0  0  0  0  0  0
  2  3  1  6
  2  1  1  0
  4  2  1  0
  4  5  1  6
  6  7  2  0
  6  4  1  0
  9  8  1  0
 10  9  2  0
 11  9  1  0
 12 11  1  0
 13 12  1  0
 13 14  1  0
 15 14  1  6
 15 16  1  0
 16  6  1  0
 17 15  1  0
 18 17  2  0
 19 20  1  0
 20 21  1  0
 21 23  1  0
 21 22  1  6
 23 24  1  1
 24 17  1  0
 25 23  1  0
 25 26  1  0
 27 25  2  0
M  END
$$$$
