VRI.pdb
     RDKit          3D

 27 26  0  0  1  0  0  0  0  0999 V2000
   21.4611  -15.5229  -21.0174 C   0  0  0  0  0  0  0  0  0  0  0  0
   21.2106  -16.8210  -20.3191 C   0  0  1  0  0  0  0  0  0  0  0  0
   22.1801  -17.8545  -20.8457 C   0  0  0  0  0  0  0  0  0  0  0  0
   21.4155  -16.6824  -18.8248 C   0  0  2  0  0  0  0  0  0  0  0  0
   22.7071  -15.9742  -18.6928 N   0  0  0  0  0  0  0  0  0  0  0  0
   21.5352  -17.9716  -18.1261 C   0  0  0  0  0  0  0  0  0  0  0  0
   20.4674  -18.6771  -18.0217 O   0  0  0  0  0  0  0  0  0  0  0  0
   24.5767  -23.8024  -13.8620 N   0  0  0  0  0  0  0  0  0  0  0  0
   25.2899  -24.1359  -15.0584 C   0  0  0  0  0  0  0  0  0  0  0  0
   25.3637  -25.3494  -15.4811 N   0  0  0  0  0  0  0  0  0  0  0  0
   25.9498  -23.1484  -15.8375 N   0  0  0  0  0  0  0  0  0  0  0  0
   25.7943  -21.7527  -15.4857 C   0  0  0  0  0  0  0  0  0  0  0  0
   24.3617  -21.2929  -15.6151 C   0  0  0  0  0  0  0  0  0  0  0  0
   24.2314  -20.1325  -16.5370 C   0  0  0  0  0  0  0  0  0  0  0  0
   22.7825  -19.6722  -16.7471 C   0  0  2  0  0  0  0  0  0  0  0  0
   22.7376  -18.4839  -17.5667 N   0  0  0  0  0  0  0  0  0  0  0  0
   22.3193  -19.3801  -15.3494 C   0  0  0  0  0  0  0  0  0  0  0  0
   22.9096  -18.4629  -14.7313 O   0  0  0  0  0  0  0  0  0  0  0  0
   25.9503  -25.5408  -16.3165 C   0  0  0  0  0  0  0  0  0  0  0  0
   17.4398  -18.3929  -12.2045 C   0  0  0  0  0  0  0  0  0  0  0  0
   18.8823  -18.8769  -12.0032 C   0  0  2  0  0  0  0  0  0  0  0  0
   19.3732  -19.2982  -13.3474 C   0  0  0  0  0  0  0  0  0  0  0  0
   18.4572  -20.2917  -13.9954 C   0  0  2  0  0  0  0  0  0  0  0  0
   20.8104  -19.7645  -13.3623 N   0  0  0  0  0  0  0  0  0  0  0  0
   21.2821  -20.0587  -14.6988 C   0  0  0  0  0  0  0  0  0  0  0  0
   20.9770  -20.9759  -12.5408 O   0  0  0  0  0  0  0  0  0  0  0  0
   21.0051  -20.8979  -11.1636 O   0  0  0  0  0  0  0  0  0  0  0  0
  2  3  1  6
  2  1  1  0
  4  2  1  0
  4  5  1  6
  6  7  2  0
  6  4  1  0
  9  8  1  0
 10  9  2  0
 11  9  1  0
 12 11  1  0
 13 12  1  0
 13 14  1  0
 15 14  1  1
 15 16  1  0
 16  6  1  0
 17 15  1  0
 18 17  2  0
 19 20  1  0
 20 21  1  0
 21 23  1  0
 21 22  1  6
 23 24  1  1
 24 17  1  0
 25 23  1  0
 25 26  1  0
 27 25  2  0
M  END
$$$$
