VRI.pdb
     RDKit          3D

 27 26  0  0  1  0  0  0  0  0999 V2000
   25.7398  -14.1329  -19.6178 C   0  0  0  0  0  0  0  0  0  0  0  0
   24.7167  -13.0449  -19.5474 C   0  0  1  0  0  0  0  0  0  0  0  0
   23.3401  -13.6608  -19.6535 C   0  0  0  0  0  0  0  0  0  0  0  0
   24.8112  -12.2944  -18.2353 C   0  0  2  0  0  0  0  0  0  0  0  0
   24.8178  -13.3535  -17.2031 N   0  0  0  0  0  0  0  0  0  0  0  0
   23.6579  -11.4187  -17.9748 C   0  0  0  0  0  0  0  0  0  0  0  0
   23.5577  -10.3604  -18.6951 O   0  0  0  0  0  0  0  0  0  0  0  0
   15.6411  -12.7278  -14.1849 N   0  0  0  0  0  0  0  0  0  0  0  0
   15.5788  -11.4560  -14.8406 C   0  0  0  0  0  0  0  0  0  0  0  0
   14.4747  -10.8009  -14.9337 N   0  0  0  0  0  0  0  0  0  0  0  0
   16.7278  -10.8541  -15.4195 N   0  0  0  0  0  0  0  0  0  0  0  0
   17.9725  -11.5929  -15.4473 C   0  0  0  0  0  0  0  0  0  0  0  0
   19.0947  -10.7877  -16.0580 C   0  0  0  0  0  0  0  0  0  0  0  0
   20.3416  -11.5875  -16.1959 C   0  0  0  0  0  0  0  0  0  0  0  0
   21.5118  -10.8042  -16.8062 C   0  0  2  0  0  0  0  0  0  0  0  0
   22.6585  -11.6618  -16.9934 N   0  0  0  0  0  0  0  0  0  0  0  0
   21.7878   -9.7549  -15.7689 C   0  0  0  0  0  0  0  0  0  0  0  0
   22.4602  -10.1019  -14.7692 O   0  0  0  0  0  0  0  0  0  0  0  0
   14.4781   -9.9119  -15.4707 C   0  0  0  0  0  0  0  0  0  0  0  0
   23.6827   -4.1483  -15.9222 C   0  0  0  0  0  0  0  0  0  0  0  0
   23.0177   -5.1348  -14.9525 C   0  0  2  0  0  0  0  0  0  0  0  0
   22.4760   -6.2436  -15.7906 C   0  0  0  0  0  0  0  0  0  0  0  0
   21.5906   -5.7383  -16.8891 C   0  0  2  0  0  0  0  0  0  0  0  0
   21.8169   -7.3503  -15.0005 N   0  0  0  0  0  0  0  0  0  0  0  0
   21.3476   -8.4282  -15.8450 C   0  0  0  0  0  0  0  0  0  0  0  0
   20.6686   -6.8354  -14.2347 O   0  0  0  0  0  0  0  0  0  0  0  0
   20.8542   -6.1969  -13.0258 O   0  0  0  0  0  0  0  0  0  0  0  0
  2  3  1  1
  2  1  1  0
  4  2  1  0
  4  5  1  1
  6  7  2  0
  6  4  1  0
  9  8  1  0
 10  9  2  0
 11  9  1  0
 12 11  1  0
 13 12  1  0
 13 14  1  0
 15 14  1  1
 15 16  1  0
 16  6  1  0
 17 15  1  0
 18 17  2  0
 19 20  1  0
 20 21  1  0
 21 23  1  0
 21 22  1  6
 23 24  1  1
 24 17  1  0
 25 23  1  0
 25 26  1  0
 27 25  2  0
M  END
$$$$
