VRI.pdb
     RDKit          3D

 27 26  0  0  1  0  0  0  0  0999 V2000
   20.0408  -21.2599  -15.0748 C   0  0  0  0  0  0  0  0  0  0  0  0
   19.5752  -22.6807  -15.0767 C   0  0  1  0  0  0  0  0  0  0  0  0
   18.2152  -22.7486  -15.7334 C   0  0  0  0  0  0  0  0  0  0  0  0
   20.5310  -23.5646  -15.8507 C   0  0  2  0  0  0  0  0  0  0  0  0
   20.0097  -24.9344  -15.6538 N   0  0  0  0  0  0  0  0  0  0  0  0
   21.9097  -23.5294  -15.3381 C   0  0  0  0  0  0  0  0  0  0  0  0
   22.0940  -23.9460  -14.1376 O   0  0  0  0  0  0  0  0  0  0  0  0
   29.9721  -23.8901  -16.2313 N   0  0  0  0  0  0  0  0  0  0  0  0
   29.2637  -24.2241  -17.4304 C   0  0  0  0  0  0  0  0  0  0  0  0
   29.6437  -25.1926  -18.1884 N   0  0  0  0  0  0  0  0  0  0  0  0
   28.1092  -23.5070  -17.8433 N   0  0  0  0  0  0  0  0  0  0  0  0
   27.7767  -22.2638  -17.1801 C   0  0  0  0  0  0  0  0  0  0  0  0
   26.7739  -22.4659  -16.0692 C   0  0  0  0  0  0  0  0  0  0  0  0
   25.4111  -22.7486  -16.5951 C   0  0  0  0  0  0  0  0  0  0  0  0
   24.3578  -22.9542  -15.4980 C   0  0  2  0  0  0  0  0  0  0  0  0
   23.0381  -23.0726  -16.0725 N   0  0  0  0  0  0  0  0  0  0  0  0
   24.4787  -21.7012  -14.6804 C   0  0  0  0  0  0  0  0  0  0  0  0
   24.0657  -20.6374  -15.1997 O   0  0  0  0  0  0  0  0  0  0  0  0
   29.0595  -25.4238  -19.0154 C   0  0  0  0  0  0  0  0  0  0  0  0
   25.2856  -21.8099   -9.0808 C   0  0  0  0  0  0  0  0  0  0  0  0
   24.6320  -21.4893  -10.4320 C   0  0  2  0  0  0  0  0  0  0  0  0
   25.6346  -20.6997  -11.2044 C   0  0  0  0  0  0  0  0  0  0  0  0
   26.0361  -19.4457  -10.4889 C   0  0  2  0  0  0  0  0  0  0  0  0
   25.2368  -20.4279  -12.6366 N   0  0  0  0  0  0  0  0  0  0  0  0
   25.0173  -21.6445  -13.3895 C   0  0  0  0  0  0  0  0  0  0  0  0
   26.2732  -19.6420  -13.3283 O   0  0  0  0  0  0  0  0  0  0  0  0
   27.4958  -20.2014  -13.6377 O   0  0  0  0  0  0  0  0  0  0  0  0
  2  3  1  6
  2  1  1  0
  4  2  1  0
  4  5  1  1
  6  7  2  0
  6  4  1  0
  9  8  1  0
 10  9  2  0
 11  9  1  0
 12 11  1  0
 13 12  1  0
 13 14  1  0
 15 14  1  6
 15 16  1  0
 16  6  1  0
 17 15  1  0
 18 17  2  0
 19 20  1  0
 20 21  1  0
 21 23  1  0
 21 22  1  6
 23 24  1  6
 24 17  1  0
 25 23  1  0
 25 26  1  0
 27 25  2  0
M  END
$$$$
