VRI.pdb
     RDKit          3D

 27 26  0  0  1  0  0  0  0  0999 V2000
   29.0567  -19.6769  -17.0916 C   0  0  0  0  0  0  0  0  0  0  0  0
   28.2885  -19.1795  -15.9092 C   0  0  1  0  0  0  0  0  0  0  0  0
   26.9126  -18.7505  -16.3654 C   0  0  0  0  0  0  0  0  0  0  0  0
   28.1353  -20.2658  -14.8649 C   0  0  2  0  0  0  0  0  0  0  0  0
   27.6620  -21.4438  -15.6234 N   0  0  0  0  0  0  0  0  0  0  0  0
   27.1275  -19.9562  -13.8386 C   0  0  0  0  0  0  0  0  0  0  0  0
   27.4158  -19.0241  -13.0038 O   0  0  0  0  0  0  0  0  0  0  0  0
   19.2291  -22.5364  -11.0822 N   0  0  0  0  0  0  0  0  0  0  0  0
   19.0767  -21.1142  -11.1556 C   0  0  0  0  0  0  0  0  0  0  0  0
   18.1179  -20.5083  -10.5471 N   0  0  0  0  0  0  0  0  0  0  0  0
   19.9728  -20.3019  -11.9005 N   0  0  0  0  0  0  0  0  0  0  0  0
   21.0713  -20.9276  -12.6059 C   0  0  0  0  0  0  0  0  0  0  0  0
   22.4059  -20.3452  -12.2051 C   0  0  0  0  0  0  0  0  0  0  0  0
   23.4929  -20.7550  -13.1347 C   0  0  0  0  0  0  0  0  0  0  0  0
   24.8763  -20.2217  -12.7382 C   0  0  2  0  0  0  0  0  0  0  0  0
   25.8713  -20.6094  -13.7104 N   0  0  0  0  0  0  0  0  0  0  0  0
   25.1252  -20.8896  -11.4172 C   0  0  0  0  0  0  0  0  0  0  0  0
   25.2518  -22.1369  -11.4219 O   0  0  0  0  0  0  0  0  0  0  0  0
   18.0511  -19.4766  -10.6465 C   0  0  0  0  0  0  0  0  0  0  0  0
   28.2313  -18.8272   -7.4376 C   0  0  0  0  0  0  0  0  0  0  0  0
   27.5974  -19.8060   -8.4354 C   0  0  2  0  0  0  0  0  0  0  0  0
   26.2116  -20.0623   -7.9465 C   0  0  0  0  0  0  0  0  0  0  0  0
   26.2004  -20.6478   -6.5670 C   0  0  2  0  0  0  0  0  0  0  0  0
   25.3562  -20.8597   -8.9034 N   0  0  0  0  0  0  0  0  0  0  0  0
   25.2240  -20.2168  -10.1935 C   0  0  0  0  0  0  0  0  0  0  0  0
   24.0050  -21.0640   -8.3530 O   0  0  0  0  0  0  0  0  0  0  0  0
   23.7520  -22.0859   -7.4612 O   0  0  0  0  0  0  0  0  0  0  0  0
  2  3  1  6
  2  1  1  0
  4  2  1  0
  4  5  1  6
  6  7  2  0
  6  4  1  0
  9  8  1  0
 10  9  2  0
 11  9  1  0
 12 11  1  0
 13 12  1  0
 13 14  1  0
 15 14  1  6
 15 16  1  0
 16  6  1  0
 17 15  1  0
 18 17  2  0
 19 20  1  0
 20 21  1  0
 21 23  1  0
 21 22  1  6
 23 24  1  6
 24 17  1  0
 25 23  1  0
 25 26  1  0
 27 25  2  0
M  END
$$$$
