VRI.pdb
     RDKit          3D

 27 26  0  0  1  0  0  0  0  0999 V2000
   22.5405  -24.8086  -14.0699 C   0  0  0  0  0  0  0  0  0  0  0  0
   23.0963  -25.5719  -15.2292 C   0  0  1  0  0  0  0  0  0  0  0  0
   22.1385  -25.4588  -16.3934 C   0  0  0  0  0  0  0  0  0  0  0  0
   24.4399  -25.0154  -15.6521 C   0  0  2  0  0  0  0  0  0  0  0  0
   25.3874  -25.5255  -14.6375 N   0  0  0  0  0  0  0  0  0  0  0  0
   24.5014  -23.5457  -15.6271 C   0  0  0  0  0  0  0  0  0  0  0  0
   23.8063  -22.9201  -16.5070 O   0  0  0  0  0  0  0  0  0  0  0  0
   23.4428  -19.8307  -10.2666 N   0  0  0  0  0  0  0  0  0  0  0  0
   24.1909  -20.6866   -9.3954 C   0  0  0  0  0  0  0  0  0  0  0  0
   23.7305  -21.0472   -8.2488 N   0  0  0  0  0  0  0  0  0  0  0  0
   25.4746  -21.1803   -9.7506 N   0  0  0  0  0  0  0  0  0  0  0  0
   26.0878  -20.7286  -10.9818 C   0  0  0  0  0  0  0  0  0  0  0  0
   25.3320  -21.2066  -12.1988 C   0  0  0  0  0  0  0  0  0  0  0  0
   25.9997  -20.7976  -13.4639 C   0  0  0  0  0  0  0  0  0  0  0  0
   25.3122  -21.3367  -14.7256 C   0  0  2  0  0  0  0  0  0  0  0  0
   25.2672  -22.7801  -14.7059 N   0  0  0  0  0  0  0  0  0  0  0  0
   26.2020  -20.8408  -15.8281 C   0  0  0  0  0  0  0  0  0  0  0  0
   27.3563  -21.3257  -15.8932 O   0  0  0  0  0  0  0  0  0  0  0  0
   24.3329  -21.6399   -7.6450 C   0  0  0  0  0  0  0  0  0  0  0  0
   26.2396  -20.0146  -21.6361 C   0  0  0  0  0  0  0  0  0  0  0  0
   26.8849  -19.3871  -20.3930 C   0  0  2  0  0  0  0  0  0  0  0  0
   26.1111  -19.8905  -19.2212 C   0  0  0  0  0  0  0  0  0  0  0  0
   24.6457  -19.6035  -19.3488 C   0  0  2  0  0  0  0  0  0  0  0  0
   26.6570  -19.4476  -17.8836 N   0  0  0  0  0  0  0  0  0  0  0  0
   25.8300  -19.8821  -16.7779 C   0  0  0  0  0  0  0  0  0  0  0  0
   26.7684  -17.9799  -17.8229 O   0  0  0  0  0  0  0  0  0  0  0  0
   27.7719  -17.3184  -18.5005 O   0  0  0  0  0  0  0  0  0  0  0  0
  2  3  1  6
  2  1  1  0
  4  2  1  0
  4  5  1  1
  6  7  2  0
  6  4  1  0
  9  8  1  0
 10  9  2  0
 11  9  1  0
 12 11  1  0
 13 12  1  0
 13 14  1  0
 15 14  1  1
 15 16  1  0
 16  6  1  0
 17 15  1  0
 18 17  2  0
 19 20  1  0
 20 21  1  0
 21 23  1  0
 21 22  1  1
 23 24  1  1
 24 17  1  0
 25 23  1  0
 25 26  1  0
 27 25  2  0
M  END
$$$$
