VRI.pdb
     RDKit          3D

 27 26  0  0  1  0  0  0  0  0999 V2000
   20.3564  -19.0867  -18.2529 C   0  0  0  0  0  0  0  0  0  0  0  0
   21.1203  -20.0347  -17.3851 C   0  0  1  0  0  0  0  0  0  0  0  0
   22.1705  -20.7270  -18.2236 C   0  0  0  0  0  0  0  0  0  0  0  0
   21.8105  -19.3003  -16.2545 C   0  0  2  0  0  0  0  0  0  0  0  0
   22.4778  -18.1551  -16.9104 N   0  0  0  0  0  0  0  0  0  0  0  0
   22.8459  -20.0992  -15.5805 C   0  0  0  0  0  0  0  0  0  0  0  0
   22.4485  -21.1230  -14.9152 O   0  0  0  0  0  0  0  0  0  0  0  0
   29.5222  -23.5308  -16.3547 N   0  0  0  0  0  0  0  0  0  0  0  0
   29.2843  -22.9814  -17.6558 C   0  0  0  0  0  0  0  0  0  0  0  0
   29.3151  -23.7165  -18.7120 N   0  0  0  0  0  0  0  0  0  0  0  0
   29.0026  -21.6024  -17.8471 N   0  0  0  0  0  0  0  0  0  0  0  0
   28.5645  -20.8090  -16.7182 C   0  0  0  0  0  0  0  0  0  0  0  0
   27.1546  -21.1518  -16.2991 C   0  0  0  0  0  0  0  0  0  0  0  0
   26.6352  -20.2086  -15.2723 C   0  0  0  0  0  0  0  0  0  0  0  0
   25.2067  -20.5268  -14.8101 C   0  0  2  0  0  0  0  0  0  0  0  0
   24.2394  -19.8196  -15.6162 N   0  0  0  0  0  0  0  0  0  0  0  0
   25.1953  -20.0280  -13.3943 C   0  0  0  0  0  0  0  0  0  0  0  0
   24.8899  -18.8255  -13.2140 O   0  0  0  0  0  0  0  0  0  0  0  0
   29.1947  -23.2527  -19.6335 C   0  0  0  0  0  0  0  0  0  0  0  0
   22.0314  -19.6341   -9.0553 C   0  0  0  0  0  0  0  0  0  0  0  0
   23.5565  -19.7395   -9.1921 C   0  0  2  0  0  0  0  0  0  0  0  0
   23.8192  -20.2274  -10.5771 C   0  0  0  0  0  0  0  0  0  0  0  0
   23.0181  -21.4508  -10.9046 C   0  0  2  0  0  0  0  0  0  0  0  0
   25.2839  -20.4103  -10.9005 N   0  0  0  0  0  0  0  0  0  0  0  0
   25.5006  -20.8107  -12.2745 C   0  0  0  0  0  0  0  0  0  0  0  0
   25.8906  -21.4285  -10.0257 O   0  0  0  0  0  0  0  0  0  0  0  0
   26.3673  -22.6141  -10.5458 O   0  0  0  0  0  0  0  0  0  0  0  0
  2  3  1  6
  2  1  1  0
  4  2  1  0
  4  5  1  6
  6  7  2  0
  6  4  1  0
  9  8  1  0
 10  9  2  0
 11  9  1  0
 12 11  1  0
 13 12  1  0
 13 14  1  0
 15 14  1  6
 15 16  1  0
 16  6  1  0
 17 15  1  0
 18 17  2  0
 19 20  1  0
 20 21  1  0
 21 23  1  0
 21 22  1  6
 23 24  1  1
 24 17  1  0
 25 23  1  0
 25 26  1  0
 27 25  2  0
M  END
$$$$
