TTP.pdb
     RDKit          3D

 22 22  0  0  1  0  0  0  0  0999 V2000
   20.8878  -16.2469  -16.4593 C   0  0  0  0  0  0  0  0  0  0  0  0
   21.9592  -17.2872  -16.7169 C   0  0  1  0  0  0  0  0  0  0  0  0
   21.4142  -18.3914  -17.3469 O   0  0  0  0  0  0  0  0  0  0  0  0
   23.0176  -16.6163  -17.6009 C   0  0  2  0  0  0  0  0  0  0  0  0
   24.0087  -17.6215  -17.9022 N   0  0  0  0  0  0  0  0  0  0  0  0
   23.6199  -15.4639  -16.8830 C   0  0  0  0  0  0  0  0  0  0  0  0
   24.3867  -15.6691  -15.9185 O   0  0  0  0  0  0  0  0  0  0  0  0
   26.0348  -13.3392  -18.1199 C   0  0  0  0  0  0  0  0  0  0  0  0
   24.8822  -12.4580  -17.7944 C   0  0  1  0  0  0  0  0  0  0  0  0
   24.0287  -12.5020  -18.9347 O   0  0  0  0  0  0  0  0  0  0  0  0
   24.0036  -12.9679  -16.6411 C   0  0  2  0  0  0  0  0  0  0  0  0
   23.3479  -14.1449  -17.2626 N   0  0  0  0  0  0  0  0  0  0  0  0
   23.0004  -12.0006  -16.2105 C   0  0  0  0  0  0  0  0  0  0  0  0
   21.8411  -12.1316  -16.7660 O   0  0  0  0  0  0  0  0  0  0  0  0
   23.0919  -10.9556  -15.2868 N   0  0  0  0  0  0  0  0  0  0  0  0
   24.2322  -10.5749  -14.4812 C   0  0  0  0  0  0  0  0  0  0  0  0
   23.6526   -9.9293  -13.2273 C   0  0  0  0  0  0  0  0  0  0  0  0
   22.1797  -10.1426  -13.3724 C   0  0  0  0  0  0  0  0  0  0  0  0
   21.9990  -10.0269  -14.8939 C   0  0  1  0  0  0  0  0  0  0  0  0
   22.3072   -8.6444  -15.2719 C   0  0  0  0  0  0  0  0  0  0  0  0
   23.3552   -8.4214  -15.8964 O   0  0  0  0  0  0  0  0  0  0  0  0
   21.4944   -7.5576  -14.9732 O   0  0  0  0  0  0  0  0  0  0  0  0
  2  1  1  6
  2  4  1  0
  3  2  1  0
  4  5  1  1
  6  7  2  0
  6  4  1  0
  9  8  1  6
  9 11  1  0
 10  9  1  0
 11 12  1  6
 11 13  1  0
 12  6  1  0
 13 15  1  0
 14 13  2  0
 15 19  1  0
 15 16  1  0
 16 17  1  0
 18 17  1  0
 19 18  1  0
 19 20  1  6
 20 22  1  0
 21 20  2  0
M  END
$$$$
