TTP.pdb
     RDKit          3D

 22 22  0  0  1  0  0  0  0  0999 V2000
   26.5569   -9.9659  -15.1262 C   0  0  0  0  0  0  0  0  0  0  0  0
   26.3155  -11.1806  -15.9995 C   0  0  1  0  0  0  0  0  0  0  0  0
   26.9110  -12.2979  -15.4427 O   0  0  0  0  0  0  0  0  0  0  0  0
   24.7950  -11.3570  -16.0938 C   0  0  2  0  0  0  0  0  0  0  0  0
   24.5608  -12.5913  -16.8047 N   0  0  0  0  0  0  0  0  0  0  0  0
   24.1949  -10.2014  -16.8084 C   0  0  0  0  0  0  0  0  0  0  0  0
   24.1274  -10.2134  -18.0556 O   0  0  0  0  0  0  0  0  0  0  0  0
   21.9202   -9.7445  -18.2532 C   0  0  0  0  0  0  0  0  0  0  0  0
   21.6971   -8.6685  -17.2514 C   0  0  1  0  0  0  0  0  0  0  0  0
   21.1968   -9.3221  -16.0882 O   0  0  0  0  0  0  0  0  0  0  0  0
   22.9823   -7.9734  -16.7747 C   0  0  2  0  0  0  0  0  0  0  0  0
   23.6998   -9.0918  -16.1145 N   0  0  0  0  0  0  0  0  0  0  0  0
   22.7353   -6.8989  -15.8197 C   0  0  0  0  0  0  0  0  0  0  0  0
   22.7641   -7.2543  -14.5777 O   0  0  0  0  0  0  0  0  0  0  0  0
   22.4771   -5.5422  -16.0342 N   0  0  0  0  0  0  0  0  0  0  0  0
   22.2565   -4.8647  -17.2938 C   0  0  0  0  0  0  0  0  0  0  0  0
   22.7236   -3.4296  -17.0762 C   0  0  0  0  0  0  0  0  0  0  0  0
   23.3261   -3.4611  -15.7078 C   0  0  0  0  0  0  0  0  0  0  0  0
   22.4222   -4.4793  -14.9955 C   0  0  1  0  0  0  0  0  0  0  0  0
   21.0831   -3.8907  -14.8996 C   0  0  0  0  0  0  0  0  0  0  0  0
   20.2370   -4.2034  -15.7507 O   0  0  0  0  0  0  0  0  0  0  0  0
   20.6963   -2.9971  -13.9081 O   0  0  0  0  0  0  0  0  0  0  0  0
  2  1  1  1
  2  4  1  0
  3  2  1  0
  4  5  1  6
  6  7  2  0
  6  4  1  0
  9  8  1  6
  9 11  1  0
 10  9  1  0
 11 12  1  1
 11 13  1  0
 12  6  1  0
 13 15  1  0
 14 13  2  0
 15 19  1  0
 15 16  1  0
 16 17  1  0
 18 17  1  0
 19 18  1  0
 19 20  1  6
 20 22  1  0
 21 20  2  0
M  END
$$$$
