TTP.pdb
     RDKit          3D

 22 22  0  0  1  0  0  0  0  0999 V2000
   23.8286  -36.6328  -13.2172 C   0  0  0  0  0  0  0  0  0  0  0  0
   24.6752  -36.1567  -14.3804 C   0  0  1  0  0  0  0  0  0  0  0  0
   24.5939  -37.0523  -15.4312 O   0  0  0  0  0  0  0  0  0  0  0  0
   24.1292  -34.7821  -14.7858 C   0  0  2  0  0  0  0  0  0  0  0  0
   24.9958  -34.2779  -15.8242 N   0  0  0  0  0  0  0  0  0  0  0  0
   24.1150  -33.8762  -13.6088 C   0  0  0  0  0  0  0  0  0  0  0  0
   24.9903  -32.9917  -13.4992 O   0  0  0  0  0  0  0  0  0  0  0  0
   21.2895  -32.2234   -9.9061 C   0  0  0  0  0  0  0  0  0  0  0  0
   21.6254  -32.9524  -11.1578 C   0  0  1  0  0  0  0  0  0  0  0  0
   21.2237  -32.0955  -12.2230 O   0  0  0  0  0  0  0  0  0  0  0  0
   23.1316  -33.1595  -11.3828 C   0  0  2  0  0  0  0  0  0  0  0  0
   23.1388  -33.9894  -12.6128 N   0  0  0  0  0  0  0  0  0  0  0  0
   23.7844  -33.8717  -10.2900 C   0  0  0  0  0  0  0  0  0  0  0  0
   23.5658  -35.1450  -10.2598 O   0  0  0  0  0  0  0  0  0  0  0  0
   24.6146  -33.3963   -9.2711 N   0  0  0  0  0  0  0  0  0  0  0  0
   24.9952  -32.0273   -8.9969 C   0  0  0  0  0  0  0  0  0  0  0  0
   26.3628  -32.1069   -8.3273 C   0  0  0  0  0  0  0  0  0  0  0  0
   26.7135  -33.5578   -8.4187 C   0  0  0  0  0  0  0  0  0  0  0  0
   25.3353  -34.2193   -8.2638 C   0  0  1  0  0  0  0  0  0  0  0  0
   24.8616  -33.9410   -6.9046 C   0  0  0  0  0  0  0  0  0  0  0  0
   25.3284  -34.6059   -5.9677 O   0  0  0  0  0  0  0  0  0  0  0  0
   23.9149  -32.9720   -6.5949 O   0  0  0  0  0  0  0  0  0  0  0  0
  2  1  1  1
  2  4  1  0
  3  2  1  0
  4  5  1  6
  6  7  2  0
  6  4  1  0
  9  8  1  1
  9 11  1  0
 10  9  1  0
 11 12  1  6
 11 13  1  0
 12  6  1  0
 13 15  1  0
 14 13  2  0
 15 19  1  0
 15 16  1  0
 16 17  1  0
 18 17  1  0
 19 18  1  0
 19 20  1  1
 20 22  1  0
 21 20  2  0
M  END
$$$$
