TTP.pdb
     RDKit          3D

 22 22  0  0  1  0  0  0  0  0999 V2000
   46.2825  -10.1971   -6.6496 C   0  0  0  0  0  0  0  0  0  0  0  0
   45.5602  -11.4786   -7.0137 C   0  0  1  0  0  0  0  0  0  0  0  0
   45.1967  -12.1660   -5.8698 O   0  0  0  0  0  0  0  0  0  0  0  0
   44.3251  -11.0698   -7.8256 C   0  0  2  0  0  0  0  0  0  0  0  0
   43.5039  -10.2597   -6.9578 N   0  0  0  0  0  0  0  0  0  0  0  0
   43.5958  -12.2807   -8.2816 C   0  0  0  0  0  0  0  0  0  0  0  0
   42.5580  -12.6382   -7.6855 O   0  0  0  0  0  0  0  0  0  0  0  0
   41.7264  -13.0444  -11.2030 C   0  0  0  0  0  0  0  0  0  0  0  0
   42.9018  -13.9551  -11.1950 C   0  0  1  0  0  0  0  0  0  0  0  0
   43.9678  -13.2143  -11.7827 O   0  0  0  0  0  0  0  0  0  0  0  0
   43.4146  -14.3118   -9.7908 C   0  0  2  0  0  0  0  0  0  0  0  0
   44.0455  -13.0364   -9.3700 N   0  0  0  0  0  0  0  0  0  0  0  0
   44.4016  -15.3858   -9.7939 C   0  0  0  0  0  0  0  0  0  0  0  0
   45.6171  -15.0116   -9.5648 O   0  0  0  0  0  0  0  0  0  0  0  0
   44.2411  -16.7587  -10.0005 N   0  0  0  0  0  0  0  0  0  0  0  0
   43.0164  -17.4839  -10.2622 C   0  0  0  0  0  0  0  0  0  0  0  0
   43.2461  -18.8892   -9.7167 C   0  0  0  0  0  0  0  0  0  0  0  0
   44.5746  -18.7885   -9.0376 C   0  0  0  0  0  0  0  0  0  0  0  0
   45.3106  -17.7904   -9.9451 C   0  0  1  0  0  0  0  0  0  0  0  0
   45.5028  -18.4354  -11.2474 C   0  0  0  0  0  0  0  0  0  0  0  0
   46.4297  -19.2496  -11.3734 O   0  0  0  0  0  0  0  0  0  0  0  0
   44.7068  -18.1918  -12.3601 O   0  0  0  0  0  0  0  0  0  0  0  0
  2  1  1  1
  2  4  1  0
  3  2  1  0
  4  5  1  1
  6  7  2  0
  6  4  1  0
  9  8  1  1
  9 11  1  0
 10  9  1  0
 11 12  1  6
 11 13  1  0
 12  6  1  0
 13 15  1  0
 14 13  2  0
 15 19  1  0
 15 16  1  0
 16 17  1  0
 18 17  1  0
 19 18  1  0
 19 20  1  6
 20 22  1  0
 21 20  2  0
M  END
$$$$
