TTP.pdb
     RDKit          3D

 22 22  0  0  1  0  0  0  0  0999 V2000
   23.9090   -9.3123  -19.4189 C   0  0  0  0  0  0  0  0  0  0  0  0
   23.1008  -10.5110  -19.8737 C   0  0  1  0  0  0  0  0  0  0  0  0
   23.9150  -11.4189  -20.5262 O   0  0  0  0  0  0  0  0  0  0  0  0
   22.4875  -11.1300  -18.6117 C   0  0  2  0  0  0  0  0  0  0  0  0
   21.8085  -12.3349  -19.0250 N   0  0  0  0  0  0  0  0  0  0  0  0
   21.5452  -10.1690  -17.9834 C   0  0  0  0  0  0  0  0  0  0  0  0
   20.7361   -9.5402  -18.6977 O   0  0  0  0  0  0  0  0  0  0  0  0
   19.1904   -8.9083  -13.9113 C   0  0  0  0  0  0  0  0  0  0  0  0
   19.9897   -9.7259  -14.8620 C   0  0  1  0  0  0  0  0  0  0  0  0
   19.0454  -10.5131  -15.5825 O   0  0  0  0  0  0  0  0  0  0  0  0
   20.7104   -8.9088  -15.9460 C   0  0  2  0  0  0  0  0  0  0  0  0
   21.5411   -9.9489  -16.6016 N   0  0  0  0  0  0  0  0  0  0  0  0
   21.5589   -7.8539  -15.4030 C   0  0  0  0  0  0  0  0  0  0  0  0
   22.7249   -8.2418  -15.0033 O   0  0  0  0  0  0  0  0  0  0  0  0
   21.3132   -6.4865  -15.2505 N   0  0  0  0  0  0  0  0  0  0  0  0
   20.1404   -5.7409  -15.6541 C   0  0  0  0  0  0  0  0  0  0  0  0
   20.6282   -4.3215  -15.9237 C   0  0  0  0  0  0  0  0  0  0  0  0
   22.1134   -4.4296  -15.7862 C   0  0  0  0  0  0  0  0  0  0  0  0
   22.2450   -5.4813  -14.6737 C   0  0  1  0  0  0  0  0  0  0  0  0
   21.7066   -4.8935  -13.4435 C   0  0  0  0  0  0  0  0  0  0  0  0
   22.3854   -4.0438  -12.8475 O   0  0  0  0  0  0  0  0  0  0  0  0
   20.4740   -5.2293  -12.8965 O   0  0  0  0  0  0  0  0  0  0  0  0
  2  1  1  1
  2  4  1  0
  3  2  1  0
  4  5  1  6
  6  7  2  0
  6  4  1  0
  9  8  1  1
  9 11  1  0
 10  9  1  0
 11 12  1  1
 11 13  1  0
 12  6  1  0
 13 15  1  0
 14 13  2  0
 15 19  1  0
 15 16  1  0
 16 17  1  0
 18 17  1  0
 19 18  1  0
 19 20  1  1
 20 22  1  0
 21 20  2  0
M  END
$$$$
