TTP.pdb
     RDKit          3D

 22 22  0  0  1  0  0  0  0  0999 V2000
   26.9352  -23.8253  -17.1027 C   0  0  0  0  0  0  0  0  0  0  0  0
   28.3237  -23.7203  -17.7008 C   0  0  1  0  0  0  0  0  0  0  0  0
   28.3592  -24.3310  -18.9413 O   0  0  0  0  0  0  0  0  0  0  0  0
   28.6394  -22.2239  -17.8150 C   0  0  2  0  0  0  0  0  0  0  0  0
   29.9715  -22.1184  -18.3609 N   0  0  0  0  0  0  0  0  0  0  0  0
   28.5533  -21.5850  -16.4769 C   0  0  0  0  0  0  0  0  0  0  0  0
   29.5705  -21.5243  -15.7545 O   0  0  0  0  0  0  0  0  0  0  0  0
   28.2363  -18.2907  -15.5670 C   0  0  0  0  0  0  0  0  0  0  0  0
   27.0214  -18.9478  -15.0164 C   0  0  1  0  0  0  0  0  0  0  0  0
   26.0736  -18.9601  -16.0803 O   0  0  0  0  0  0  0  0  0  0  0  0
   27.2124  -20.4303  -14.6592 C   0  0  2  0  0  0  0  0  0  0  0  0
   27.3527  -21.0457  -16.0020 N   0  0  0  0  0  0  0  0  0  0  0  0
   26.0701  -21.0053  -13.9577 C   0  0  0  0  0  0  0  0  0  0  0  0
   25.4212  -21.9072  -14.6174 O   0  0  0  0  0  0  0  0  0  0  0  0
   25.5676  -20.7394  -12.6809 N   0  0  0  0  0  0  0  0  0  0  0  0
   26.0252  -19.7479  -11.7312 C   0  0  0  0  0  0  0  0  0  0  0  0
   25.6837  -20.3085  -10.3549 C   0  0  0  0  0  0  0  0  0  0  0  0
   25.1781  -21.6840  -10.6525 C   0  0  0  0  0  0  0  0  0  0  0  0
   24.4660  -21.4673  -11.9968 C   0  0  1  0  0  0  0  0  0  0  0  0
   23.3153  -20.5927  -11.7517 C   0  0  0  0  0  0  0  0  0  0  0  0
   22.2905  -21.0876  -11.2588 O   0  0  0  0  0  0  0  0  0  0  0  0
   23.2977  -19.2331  -12.0383 O   0  0  0  0  0  0  0  0  0  0  0  0
  2  1  1  6
  2  4  1  0
  3  2  1  0
  4  5  1  1
  6  7  2  0
  6  4  1  0
  9  8  1  6
  9 11  1  0
 10  9  1  0
 11 12  1  6
 11 13  1  0
 12  6  1  0
 13 15  1  0
 14 13  2  0
 15 19  1  0
 15 16  1  0
 16 17  1  0
 18 17  1  0
 19 18  1  0
 19 20  1  1
 20 22  1  0
 21 20  2  0
M  END
$$$$
