TTP.pdb
     RDKit          3D

 22 22  0  0  1  0  0  0  0  0999 V2000
   14.8579  -10.9225  -16.1331 C   0  0  0  0  0  0  0  0  0  0  0  0
   16.0031  -10.9757  -15.1420 C   0  0  1  0  0  0  0  0  0  0  0  0
   15.6220  -11.6649  -14.0050 O   0  0  0  0  0  0  0  0  0  0  0  0
   17.1637  -11.6840  -15.8514 C   0  0  2  0  0  0  0  0  0  0  0  0
   17.1727  -13.0478  -15.3785 N   0  0  0  0  0  0  0  0  0  0  0  0
   18.4428  -10.9968  -15.5387 C   0  0  0  0  0  0  0  0  0  0  0  0
   19.2170  -11.4883  -14.6905 O   0  0  0  0  0  0  0  0  0  0  0  0
   21.2445  -10.4281  -17.6957 C   0  0  0  0  0  0  0  0  0  0  0  0
   20.7486   -9.0927  -17.2693 C   0  0  1  0  0  0  0  0  0  0  0  0
   19.7044   -8.7600  -18.1800 O   0  0  0  0  0  0  0  0  0  0  0  0
   20.0695   -9.0822  -15.8906 C   0  0  2  0  0  0  0  0  0  0  0  0
   18.8048   -9.8043  -16.1749 N   0  0  0  0  0  0  0  0  0  0  0  0
   19.7838   -7.7386  -15.3999 C   0  0  0  0  0  0  0  0  0  0  0  0
   18.5361   -7.4032  -15.4204 O   0  0  0  0  0  0  0  0  0  0  0  0
   20.6458   -6.7561  -14.9049 N   0  0  0  0  0  0  0  0  0  0  0  0
   22.0838   -6.8238  -14.7571 C   0  0  0  0  0  0  0  0  0  0  0  0
   22.4221   -5.8934  -13.5973 C   0  0  0  0  0  0  0  0  0  0  0  0
   21.0823   -5.4803  -13.0773 C   0  0  0  0  0  0  0  0  0  0  0  0
   20.2527   -5.4256  -14.3696 C   0  0  1  0  0  0  0  0  0  0  0  0
   20.7872   -4.3363  -15.1923 C   0  0  0  0  0  0  0  0  0  0  0  0
   21.5386   -4.6221  -16.1366 O   0  0  0  0  0  0  0  0  0  0  0  0
   20.5043   -2.9923  -14.9812 O   0  0  0  0  0  0  0  0  0  0  0  0
  2  1  1  6
  2  4  1  0
  3  2  1  0
  4  5  1  1
  6  7  2  0
  6  4  1  0
  9  8  1  6
  9 11  1  0
 10  9  1  0
 11 12  1  6
 11 13  1  0
 12  6  1  0
 13 15  1  0
 14 13  2  0
 15 19  1  0
 15 16  1  0
 16 17  1  0
 18 17  1  0
 19 18  1  0
 19 20  1  6
 20 22  1  0
 21 20  2  0
M  END
$$$$
