TTP.pdb
     RDKit          3D

 22 22  0  0  1  0  0  0  0  0999 V2000
   14.3760   -5.1372   -7.9389 C   0  0  0  0  0  0  0  0  0  0  0  0
   15.5628   -5.7038   -8.6919 C   0  0  1  0  0  0  0  0  0  0  0  0
   16.6659   -5.7805   -7.8610 O   0  0  0  0  0  0  0  0  0  0  0  0
   15.1462   -7.0956   -9.1829 C   0  0  2  0  0  0  0  0  0  0  0  0
   14.9149   -7.9014   -8.0078 N   0  0  0  0  0  0  0  0  0  0  0  0
   16.2191   -7.6751  -10.0309 C   0  0  0  0  0  0  0  0  0  0  0  0
   16.9671   -8.5592   -9.5628 O   0  0  0  0  0  0  0  0  0  0  0  0
   16.0351   -9.6315  -13.1199 C   0  0  0  0  0  0  0  0  0  0  0  0
   16.7123   -8.3384  -13.4034 C   0  0  1  0  0  0  0  0  0  0  0  0
   15.6668   -7.3943  -13.6183 O   0  0  0  0  0  0  0  0  0  0  0  0
   17.5038   -7.7667  -12.2165 C   0  0  2  0  0  0  0  0  0  0  0  0
   16.4143   -7.2525  -11.3505 N   0  0  0  0  0  0  0  0  0  0  0  0
   18.4032   -6.6819  -12.5933 C   0  0  0  0  0  0  0  0  0  0  0  0
   17.9172   -5.4935  -12.4474 O   0  0  0  0  0  0  0  0  0  0  0  0
   19.7115   -6.7229  -13.0832 N   0  0  0  0  0  0  0  0  0  0  0  0
   20.5276   -7.8878  -13.3501 C   0  0  0  0  0  0  0  0  0  0  0  0
   21.9705   -7.4295  -13.1680 C   0  0  0  0  0  0  0  0  0  0  0  0
   21.8319   -6.0331  -12.6512 C   0  0  0  0  0  0  0  0  0  0  0  0
   20.5749   -5.5524  -13.3930 C   0  0  1  0  0  0  0  0  0  0  0  0
   20.9013   -5.4887  -14.8207 C   0  0  0  0  0  0  0  0  0  0  0  0
   21.5957   -4.5450  -15.2273 O   0  0  0  0  0  0  0  0  0  0  0  0
   20.4795   -6.4252  -15.7568 O   0  0  0  0  0  0  0  0  0  0  0  0
  2  1  1  1
  2  4  1  0
  3  2  1  0
  4  5  1  1
  6  7  2  0
  6  4  1  0
  9  8  1  1
  9 11  1  0
 10  9  1  0
 11 12  1  1
 11 13  1  0
 12  6  1  0
 13 15  1  0
 14 13  2  0
 15 19  1  0
 15 16  1  0
 16 17  1  0
 18 17  1  0
 19 18  1  0
 19 20  1  6
 20 22  1  0
 21 20  2  0
M  END
$$$$
