TTP.pdb
     RDKit          3D

 22 22  0  0  1  0  0  0  0  0999 V2000
   30.2101  -16.3351  -18.8263 C   0  0  0  0  0  0  0  0  0  0  0  0
   29.3796  -16.1723  -17.5692 C   0  0  1  0  0  0  0  0  0  0  0  0
   29.2266  -14.8316  -17.2656 O   0  0  0  0  0  0  0  0  0  0  0  0
   28.0235  -16.8304  -17.8519 C   0  0  2  0  0  0  0  0  0  0  0  0
   27.3541  -16.0052  -18.8290 N   0  0  0  0  0  0  0  0  0  0  0  0
   27.2357  -16.9254  -16.5963 C   0  0  0  0  0  0  0  0  0  0  0  0
   27.1074  -15.9176  -15.8696 O   0  0  0  0  0  0  0  0  0  0  0  0
   24.1873  -16.5590  -15.7094 C   0  0  0  0  0  0  0  0  0  0  0  0
   24.4436  -17.9853  -15.3761 C   0  0  1  0  0  0  0  0  0  0  0  0
   24.2991  -18.6997  -16.6006 O   0  0  0  0  0  0  0  0  0  0  0  0
   25.8847  -18.2803  -14.9307 C   0  0  2  0  0  0  0  0  0  0  0  0
   26.6293  -18.1240  -16.2045 N   0  0  0  0  0  0  0  0  0  0  0  0
   26.0601  -19.6301  -14.4063 C   0  0  0  0  0  0  0  0  0  0  0  0
   26.5864  -20.4731  -15.2322 O   0  0  0  0  0  0  0  0  0  0  0  0
   25.7541  -20.1567  -13.1484 N   0  0  0  0  0  0  0  0  0  0  0  0
   25.2221  -19.4615  -11.9960 C   0  0  0  0  0  0  0  0  0  0  0  0
   25.7267  -20.2329  -10.7813 C   0  0  0  0  0  0  0  0  0  0  0  0
   26.6546  -21.2466  -11.3709 C   0  0  0  0  0  0  0  0  0  0  0  0
   25.9610  -21.5612  -12.7055 C   0  0  1  0  0  0  0  0  0  0  0  0
   24.6883  -22.2204  -12.3978 C   0  0  0  0  0  0  0  0  0  0  0  0
   24.7073  -23.4111  -12.0517 O   0  0  0  0  0  0  0  0  0  0  0  0
   23.4507  -21.5924  -12.4694 O   0  0  0  0  0  0  0  0  0  0  0  0
  2  1  1  6
  2  4  1  0
  3  2  1  0
  4  5  1  6
  6  7  2  0
  6  4  1  0
  9  8  1  6
  9 11  1  0
 10  9  1  0
 11 12  1  6
 11 13  1  0
 12  6  1  0
 13 15  1  0
 14 13  2  0
 15 19  1  0
 15 16  1  0
 16 17  1  0
 18 17  1  0
 19 18  1  0
 19 20  1  1
 20 22  1  0
 21 20  2  0
M  END
$$$$
