TTP.pdb
     RDKit          3D

 22 22  0  0  1  0  0  0  0  0999 V2000
   15.2808  -10.0671  -18.3620 C   0  0  0  0  0  0  0  0  0  0  0  0
   16.3781   -9.7255  -17.3743 C   0  0  1  0  0  0  0  0  0  0  0  0
   15.8576   -9.6170  -16.0974 O   0  0  0  0  0  0  0  0  0  0  0  0
   17.4076  -10.8594  -17.4540 C   0  0  2  0  0  0  0  0  0  0  0  0
   16.7144  -12.0782  -17.1110 N   0  0  0  0  0  0  0  0  0  0  0  0
   18.5269  -10.5936  -16.5145 C   0  0  0  0  0  0  0  0  0  0  0  0
   18.5879  -11.2169  -15.4337 O   0  0  0  0  0  0  0  0  0  0  0  0
   22.1346  -11.0352  -17.0534 C   0  0  0  0  0  0  0  0  0  0  0  0
   21.8625   -9.5971  -16.7907 C   0  0  1  0  0  0  0  0  0  0  0  0
   21.4989   -9.0370  -18.0494 O   0  0  0  0  0  0  0  0  0  0  0  0
   20.6425   -9.3394  -15.8922 C   0  0  2  0  0  0  0  0  0  0  0  0
   19.5218   -9.6557  -16.8119 N   0  0  0  0  0  0  0  0  0  0  0  0
   20.5455   -7.9574  -15.4356 C   0  0  0  0  0  0  0  0  0  0  0  0
   19.9596   -7.1503  -16.2572 O   0  0  0  0  0  0  0  0  0  0  0  0
   20.9815   -7.3670  -14.2462 N   0  0  0  0  0  0  0  0  0  0  0  0
   21.6731   -7.9943  -13.1406 C   0  0  0  0  0  0  0  0  0  0  0  0
   21.2908   -7.1866  -11.9050 C   0  0  0  0  0  0  0  0  0  0  0  0
   20.2626   -6.2290  -12.4169 C   0  0  0  0  0  0  0  0  0  0  0  0
   20.7787   -5.9517  -13.8375 C   0  0  1  0  0  0  0  0  0  0  0  0
   22.0545   -5.2403  -13.7135 C   0  0  0  0  0  0  0  0  0  0  0  0
   22.0389   -4.0589  -13.3367 O   0  0  0  0  0  0  0  0  0  0  0  0
   23.2914   -5.8086  -13.9931 O   0  0  0  0  0  0  0  0  0  0  0  0
  2  1  1  6
  2  4  1  0
  3  2  1  0
  4  5  1  1
  6  7  2  0
  6  4  1  0
  9  8  1  6
  9 11  1  0
 10  9  1  0
 11 12  1  6
 11 13  1  0
 12  6  1  0
 13 15  1  0
 14 13  2  0
 15 19  1  0
 15 16  1  0
 16 17  1  0
 18 17  1  0
 19 18  1  0
 19 20  1  1
 20 22  1  0
 21 20  2  0
M  END
$$$$
