TTP.pdb
     RDKit          3D

 22 22  0  0  1  0  0  0  0  0999 V2000
   20.4756  -20.9884  -15.3677 C   0  0  0  0  0  0  0  0  0  0  0  0
   20.6487  -21.0872  -16.8700 C   0  0  1  0  0  0  0  0  0  0  0  0
   19.4466  -20.8415  -17.5086 O   0  0  0  0  0  0  0  0  0  0  0  0
   21.7018  -20.0425  -17.2592 C   0  0  2  0  0  0  0  0  0  0  0  0
   21.8262  -20.0900  -18.6966 N   0  0  0  0  0  0  0  0  0  0  0  0
   22.9936  -20.3549  -16.5960 C   0  0  0  0  0  0  0  0  0  0  0  0
   23.5758  -21.4299  -16.8522 O   0  0  0  0  0  0  0  0  0  0  0  0
   26.1393  -18.2544  -16.4728 C   0  0  0  0  0  0  0  0  0  0  0  0
   25.6173  -18.4771  -15.0984 C   0  0  1  0  0  0  0  0  0  0  0  0
   24.6610  -17.4443  -14.8768 O   0  0  0  0  0  0  0  0  0  0  0  0
   24.8180  -19.7790  -14.9300 C   0  0  2  0  0  0  0  0  0  0  0  0
   23.5789  -19.4688  -15.6848 N   0  0  0  0  0  0  0  0  0  0  0  0
   24.4988  -20.0827  -13.5394 C   0  0  0  0  0  0  0  0  0  0  0  0
   23.2644  -19.8925  -13.2080 O   0  0  0  0  0  0  0  0  0  0  0  0
   25.3159  -20.5528  -12.5076 N   0  0  0  0  0  0  0  0  0  0  0  0
   26.7278  -20.8658  -12.5605 C   0  0  0  0  0  0  0  0  0  0  0  0
   26.9507  -21.9401  -11.5016 C   0  0  0  0  0  0  0  0  0  0  0  0
   25.5682  -22.2571  -11.0277 C   0  0  0  0  0  0  0  0  0  0  0  0
   24.8864  -20.8833  -11.1228 C   0  0  1  0  0  0  0  0  0  0  0  0
   25.5243  -20.0040  -10.1383 C   0  0  0  0  0  0  0  0  0  0  0  0
   25.1316  -20.0488   -8.9629 O   0  0  0  0  0  0  0  0  0  0  0  0
   26.5497  -19.1156  -10.4391 O   0  0  0  0  0  0  0  0  0  0  0  0
  2  1  1  1
  2  4  1  0
  3  2  1  0
  4  5  1  6
  6  7  2  0
  6  4  1  0
  9  8  1  6
  9 11  1  0
 10  9  1  0
 11 12  1  6
 11 13  1  0
 12  6  1  0
 13 15  1  0
 14 13  2  0
 15 19  1  0
 15 16  1  0
 16 17  1  0
 18 17  1  0
 19 18  1  0
 19 20  1  1
 20 22  1  0
 21 20  2  0
M  END
$$$$
