TTP.pdb
     RDKit          3D

 22 22  0  0  1  0  0  0  0  0999 V2000
   27.2761  -24.3212  -16.8917 C   0  0  0  0  0  0  0  0  0  0  0  0
   28.4394  -23.8439  -17.7376 C   0  0  1  0  0  0  0  0  0  0  0  0
   28.4171  -24.4605  -18.9755 O   0  0  0  0  0  0  0  0  0  0  0  0
   28.2852  -22.3245  -17.8770 C   0  0  2  0  0  0  0  0  0  0  0  0
   29.3574  -21.8723  -18.7311 N   0  0  0  0  0  0  0  0  0  0  0  0
   28.3556  -21.6839  -16.5388 C   0  0  0  0  0  0  0  0  0  0  0  0
   29.3813  -21.0513  -16.2097 O   0  0  0  0  0  0  0  0  0  0  0  0
   28.3473  -19.2097  -15.7615 C   0  0  0  0  0  0  0  0  0  0  0  0
   27.2247  -19.5645  -14.8532 C   0  0  1  0  0  0  0  0  0  0  0  0
   26.0451  -19.4862  -15.6488 O   0  0  0  0  0  0  0  0  0  0  0  0
   27.2518  -21.0178  -14.3540 C   0  0  2  0  0  0  0  0  0  0  0  0
   27.2944  -21.7719  -15.6311 N   0  0  0  0  0  0  0  0  0  0  0  0
   26.0651  -21.3863  -13.5900 C   0  0  0  0  0  0  0  0  0  0  0  0
   25.3635  -22.3448  -14.0988 O   0  0  0  0  0  0  0  0  0  0  0  0
   25.5677  -20.8702  -12.3902 N   0  0  0  0  0  0  0  0  0  0  0  0
   26.0953  -19.7764  -11.6032 C   0  0  0  0  0  0  0  0  0  0  0  0
   25.6842  -20.0692  -10.1644 C   0  0  0  0  0  0  0  0  0  0  0  0
   25.0647  -21.4278  -10.2467 C   0  0  0  0  0  0  0  0  0  0  0  0
   24.3958  -21.3791  -11.6292 C   0  0  1  0  0  0  0  0  0  0  0  0
   23.3224  -20.3826  -11.5662 C   0  0  0  0  0  0  0  0  0  0  0  0
   22.2634  -20.6889  -10.9982 O   0  0  0  0  0  0  0  0  0  0  0  0
   23.4150  -19.1056  -12.1063 O   0  0  0  0  0  0  0  0  0  0  0  0
  2  1  1  1
  2  4  1  0
  3  2  1  0
  4  5  1  6
  6  7  2  0
  6  4  1  0
  9  8  1  6
  9 11  1  0
 10  9  1  0
 11 12  1  6
 11 13  1  0
 12  6  1  0
 13 15  1  0
 14 13  2  0
 15 19  1  0
 15 16  1  0
 16 17  1  0
 18 17  1  0
 19 18  1  0
 19 20  1  1
 20 22  1  0
 21 20  2  0
M  END
$$$$
