TTP.pdb
     RDKit          3D

 22 22  0  0  1  0  0  0  0  0999 V2000
   21.2691   -4.8254  -16.0236 C   0  0  0  0  0  0  0  0  0  0  0  0
   22.0137   -6.0776  -15.6063 C   0  0  1  0  0  0  0  0  0  0  0  0
   22.9039   -5.7895  -14.5878 O   0  0  0  0  0  0  0  0  0  0  0  0
   20.9532   -7.0834  -15.1418 C   0  0  2  0  0  0  0  0  0  0  0  0
   20.3756   -6.5521  -13.9303 N   0  0  0  0  0  0  0  0  0  0  0  0
   21.5821   -8.4077  -14.9031 C   0  0  0  0  0  0  0  0  0  0  0  0
   21.8789   -8.7501  -13.7390 O   0  0  0  0  0  0  0  0  0  0  0  0
   20.6292  -11.2590  -14.1599 C   0  0  0  0  0  0  0  0  0  0  0  0
   21.2679  -11.5042  -15.4801 C   0  0  1  0  0  0  0  0  0  0  0  0
   20.3059  -11.1079  -16.4537 O   0  0  0  0  0  0  0  0  0  0  0  0
   22.4881  -10.6146  -15.7661 C   0  0  2  0  0  0  0  0  0  0  0  0
   21.8523   -9.2875  -15.9570 N   0  0  0  0  0  0  0  0  0  0  0  0
   23.2148  -11.0035  -16.9695 C   0  0  0  0  0  0  0  0  0  0  0  0
   22.9944  -10.2620  -18.0046 O   0  0  0  0  0  0  0  0  0  0  0  0
   24.1174  -12.0495  -17.1805 N   0  0  0  0  0  0  0  0  0  0  0  0
   24.5945  -13.0227  -16.2216 C   0  0  0  0  0  0  0  0  0  0  0  0
   25.9829  -13.4288  -16.7039 C   0  0  0  0  0  0  0  0  0  0  0  0
   26.2380  -12.5066  -17.8531 C   0  0  0  0  0  0  0  0  0  0  0  0
   24.8294  -12.3583  -18.4490 C   0  0  1  0  0  0  0  0  0  0  0  0
   24.4348  -13.6658  -18.9818 C   0  0  0  0  0  0  0  0  0  0  0  0
   23.6138  -14.3414  -18.3435 O   0  0  0  0  0  0  0  0  0  0  0  0
   24.9251  -14.2023  -20.1662 O   0  0  0  0  0  0  0  0  0  0  0  0
  2  1  1  1
  2  4  1  0
  3  2  1  0
  4  5  1  1
  6  7  2  0
  6  4  1  0
  9  8  1  1
  9 11  1  0
 10  9  1  0
 11 12  1  6
 11 13  1  0
 12  6  1  0
 13 15  1  0
 14 13  2  0
 15 19  1  0
 15 16  1  0
 16 17  1  0
 18 17  1  0
 19 18  1  0
 19 20  1  1
 20 22  1  0
 21 20  2  0
M  END
$$$$
