TTP.pdb
     RDKit          3D

 22 22  0  0  1  0  0  0  0  0999 V2000
   17.8604  -13.5466  -15.2170 C   0  0  0  0  0  0  0  0  0  0  0  0
   18.5186  -14.6741  -15.9865 C   0  0  1  0  0  0  0  0  0  0  0  0
   17.8503  -15.8637  -15.7600 O   0  0  0  0  0  0  0  0  0  0  0  0
   18.4614  -14.2846  -17.4687 C   0  0  2  0  0  0  0  0  0  0  0  0
   19.0316  -15.3830  -18.2118 N   0  0  0  0  0  0  0  0  0  0  0  0
   19.2240  -13.0297  -17.6919 C   0  0  0  0  0  0  0  0  0  0  0  0
   20.4728  -13.0577  -17.6958 O   0  0  0  0  0  0  0  0  0  0  0  0
   18.6258   -8.2410  -18.9573 C   0  0  0  0  0  0  0  0  0  0  0  0
   18.2494   -9.6709  -18.7992 C   0  0  1  0  0  0  0  0  0  0  0  0
   18.2260  -10.2118  -20.1173 O   0  0  0  0  0  0  0  0  0  0  0  0
   19.2935  -10.5202  -18.0572 C   0  0  2  0  0  0  0  0  0  0  0  0
   18.5738  -11.8081  -17.8994 N   0  0  0  0  0  0  0  0  0  0  0  0
   19.6524   -9.9796  -16.7509 C   0  0  0  0  0  0  0  0  0  0  0  0
   18.8044  -10.2236  -15.8068 O   0  0  0  0  0  0  0  0  0  0  0  0
   20.7722   -9.2426  -16.3555 N   0  0  0  0  0  0  0  0  0  0  0  0
   21.9117   -8.8526  -17.1577 C   0  0  0  0  0  0  0  0  0  0  0  0
   23.0789   -8.7337  -16.1838 C   0  0  0  0  0  0  0  0  0  0  0  0
   22.5094   -9.2284  -14.8926 C   0  0  0  0  0  0  0  0  0  0  0  0
   21.0569   -8.7360  -14.9866 C   0  0  1  0  0  0  0  0  0  0  0  0
   21.0835   -7.2707  -14.9510 C   0  0  0  0  0  0  0  0  0  0  0  0
   21.2575   -6.7086  -13.8594 O   0  0  0  0  0  0  0  0  0  0  0  0
   20.9251   -6.4632  -16.0708 O   0  0  0  0  0  0  0  0  0  0  0  0
  2  1  1  1
  2  4  1  0
  3  2  1  0
  4  5  1  6
  6  7  2  0
  6  4  1  0
  9  8  1  6
  9 11  1  0
 10  9  1  0
 11 12  1  1
 11 13  1  0
 12  6  1  0
 13 15  1  0
 14 13  2  0
 15 19  1  0
 15 16  1  0
 16 17  1  0
 18 17  1  0
 19 18  1  0
 19 20  1  6
 20 22  1  0
 21 20  2  0
M  END
$$$$
