TTP.pdb
     RDKit          3D

 22 22  0  0  1  0  0  0  0  0999 V2000
   25.0594  -11.1863  -15.8965 C   0  0  0  0  0  0  0  0  0  0  0  0
   24.5563  -12.2476  -16.8541 C   0  0  1  0  0  0  0  0  0  0  0  0
   25.2979  -13.4072  -16.7177 O   0  0  0  0  0  0  0  0  0  0  0  0
   23.0837  -12.4920  -16.5026 C   0  0  2  0  0  0  0  0  0  0  0  0
   22.6313  -13.5826  -17.3331 N   0  0  0  0  0  0  0  0  0  0  0  0
   22.2926  -11.2600  -16.7529 C   0  0  0  0  0  0  0  0  0  0  0  0
   21.9548  -10.9690  -17.9198 O   0  0  0  0  0  0  0  0  0  0  0  0
   19.0414  -10.5094  -16.0975 C   0  0  0  0  0  0  0  0  0  0  0  0
   19.7966   -9.4856  -15.3278 C   0  0  1  0  0  0  0  0  0  0  0  0
   20.0902  -10.0874  -14.0700 O   0  0  0  0  0  0  0  0  0  0  0  0
   21.1741   -9.1422  -15.9166 C   0  0  2  0  0  0  0  0  0  0  0  0
   21.9136  -10.4113  -15.7070 N   0  0  0  0  0  0  0  0  0  0  0  0
   21.8416   -8.0484  -15.2197 C   0  0  0  0  0  0  0  0  0  0  0  0
   22.6506   -8.4121  -14.2800 O   0  0  0  0  0  0  0  0  0  0  0  0
   21.7495   -6.6669  -15.4103 N   0  0  0  0  0  0  0  0  0  0  0  0
   20.9787   -5.9536  -16.4059 C   0  0  0  0  0  0  0  0  0  0  0  0
   21.7293   -4.6490  -16.6501 C   0  0  0  0  0  0  0  0  0  0  0  0
   22.9825   -4.8110  -15.8505 C   0  0  0  0  0  0  0  0  0  0  0  0
   22.4779   -5.6201  -14.6455 C   0  0  1  0  0  0  0  0  0  0  0  0
   21.5551   -4.7644  -13.8936 C   0  0  0  0  0  0  0  0  0  0  0  0
   22.0296   -3.8992  -13.1424 O   0  0  0  0  0  0  0  0  0  0  0  0
   20.1708   -4.8604  -13.9684 O   0  0  0  0  0  0  0  0  0  0  0  0
  2  1  1  1
  2  4  1  0
  3  2  1  0
  4  5  1  6
  6  7  2  0
  6  4  1  0
  9  8  1  6
  9 11  1  0
 10  9  1  0
 11 12  1  1
 11 13  1  0
 12  6  1  0
 13 15  1  0
 14 13  2  0
 15 19  1  0
 15 16  1  0
 16 17  1  0
 18 17  1  0
 19 18  1  0
 19 20  1  1
 20 22  1  0
 21 20  2  0
M  END
$$$$
