PHS.pdb
     RDKit          3D

 24 25  0  0  1  0  0  0  0  0999 V2000
    9.2176  -14.1155   17.9579 N   0  0  0  0  0  0  0  0  0  0  0  0
    8.5670  -13.3526   16.9174 C   0  0  0  0  0  0  0  0  0  0  0  0
    7.2850  -12.8251   17.4696 C   0  0  0  0  0  0  0  0  0  0  0  0
    7.2069  -13.4162   18.8404 C   0  0  0  0  0  0  0  0  0  0  0  0
    8.6376  -13.6992   19.2102 C   0  0  1  0  0  0  0  0  0  0  0  0
    8.7655  -14.7805   20.2081 C   0  0  0  0  0  0  0  0  0  0  0  0
    8.1186  -14.7096   21.3011 O   0  0  0  0  0  0  0  0  0  0  0  0
    9.5769  -15.9241   20.0369 N   0  0  0  0  0  0  0  0  0  0  0  0
    9.7147  -16.9456   21.0494 C   0  0  1  0  0  0  0  0  0  0  0  0
   10.2846  -18.2275   20.4860 C   0  0  0  0  0  0  0  0  0  0  0  0
    9.3271  -18.9369   19.6181 C   0  0  0  0  0  0  0  0  0  0  0  0
    7.9705  -18.7347   19.4486 C   0  0  0  0  0  0  0  0  0  0  0  0
    7.4851  -19.6127   18.5534 N   0  0  0  0  0  0  0  0  0  0  0  0
    8.5135  -20.3760   18.1462 C   0  0  0  0  0  0  0  0  0  0  0  0
    9.6290  -19.9586   18.7981 N   0  0  0  0  0  0  0  0  0  0  0  0
   10.5939  -16.4778   22.1675 C   0  0  0  0  0  0  0  0  0  0  0  0
   11.6242  -15.7840   21.9375 O   0  0  0  0  0  0  0  0  0  0  0  0
    9.1946  -16.7654   25.9868 O   0  0  0  0  0  0  0  0  0  0  0  0
   10.2586  -15.8618   25.7608 C   0  0  0  0  0  0  0  0  0  0  0  0
   11.0901  -16.4692   24.6574 C   0  0  2  0  0  0  0  0  0  0  0  0
   10.2806  -16.8083   23.5041 N   0  0  0  0  0  0  0  0  0  0  0  0
   11.9375  -17.6001   25.1279 C   0  0  0  0  0  0  0  0  0  0  0  0
   12.9196  -17.3827   26.0654 O   0  0  0  0  0  0  0  0  0  0  0  0
   11.6982  -18.7259   24.6259 O   0  0  0  0  0  0  0  0  0  0  0  0
  1  2  1  0
  1  5  1  0
  2  3  1  0
  3  4  1  0
  5  6  1  1
  5  4  1  0
  6  8  1  0
  7  6  2  0
  8  9  1  0
  9 16  1  0
 10 11  1  0
  9 10  1  6
 11 12  2  0
 13 12  1  0
 14 13  1  0
 15 14  2  0
 15 11  1  0
 16 21  1  0
 16 17  2  0
 18 19  1  0
 20 19  1  1
 20 22  1  0
 21 20  1  0
 22 24  2  0
 22 23  1  0
M  END
$$$$
