PHS.pdb
     RDKit          3D

 24 25  0  0  1  0  0  0  0  0999 V2000
    7.8316  -14.8439   18.6213 N   0  0  0  0  0  0  0  0  0  0  0  0
    7.0298  -13.7037   18.2405 C   0  0  0  0  0  0  0  0  0  0  0  0
    7.6736  -12.4818   18.8052 C   0  0  0  0  0  0  0  0  0  0  0  0
    8.8212  -13.0096   19.6045 C   0  0  0  0  0  0  0  0  0  0  0  0
    9.1346  -14.3415   18.9787 C   0  0  1  0  0  0  0  0  0  0  0  0
    9.7925  -15.2722   19.9180 C   0  0  0  0  0  0  0  0  0  0  0  0
   10.9329  -14.9803   20.4000 O   0  0  0  0  0  0  0  0  0  0  0  0
    9.2350  -16.5012   20.3358 N   0  0  0  0  0  0  0  0  0  0  0  0
    9.8476  -17.3373   21.3423 C   0  0  1  0  0  0  0  0  0  0  0  0
   11.0641  -18.0618   20.8123 C   0  0  0  0  0  0  0  0  0  0  0  0
   10.7140  -19.1241   19.8520 C   0  0  0  0  0  0  0  0  0  0  0  0
    9.6237  -19.9733   19.8323 C   0  0  0  0  0  0  0  0  0  0  0  0
    9.7014  -20.7934   18.7696 N   0  0  0  0  0  0  0  0  0  0  0  0
   10.8281  -20.4811   18.1070 C   0  0  0  0  0  0  0  0  0  0  0  0
   11.4373  -19.4658   18.7715 N   0  0  0  0  0  0  0  0  0  0  0  0
   10.2500  -16.5307   22.5379 C   0  0  0  0  0  0  0  0  0  0  0  0
   11.3524  -15.9143   22.5650 O   0  0  0  0  0  0  0  0  0  0  0  0
    7.4226  -15.8432   25.3631 O   0  0  0  0  0  0  0  0  0  0  0  0
    8.5260  -14.9596   25.3968 C   0  0  0  0  0  0  0  0  0  0  0  0
    9.7070  -15.7529   24.8929 C   0  0  2  0  0  0  0  0  0  0  0  0
    9.3961  -16.4474   23.6594 N   0  0  0  0  0  0  0  0  0  0  0  0
   10.2904  -16.6450   25.9332 C   0  0  0  0  0  0  0  0  0  0  0  0
   10.8557  -16.1068   27.0653 O   0  0  0  0  0  0  0  0  0  0  0  0
   10.2297  -17.8793   25.7108 O   0  0  0  0  0  0  0  0  0  0  0  0
  1  2  1  0
  1  5  1  0
  2  3  1  0
  3  4  1  0
  5  6  1  1
  5  4  1  0
  6  8  1  0
  7  6  2  0
  8  9  1  0
  9 16  1  0
 10 11  1  0
  9 10  1  6
 11 12  2  0
 13 12  1  0
 14 13  1  0
 15 14  2  0
 15 11  1  0
 16 21  1  0
 16 17  2  0
 18 19  1  0
 20 19  1  1
 20 22  1  0
 21 20  1  0
 22 24  2  0
 22 23  1  0
M  END
$$$$
