PHS.pdb
     RDKit          3D

 24 25  0  0  1  0  0  0  0  0999 V2000
    8.3435  -18.7788   18.8818 N   0  0  0  0  0  0  0  0  0  0  0  0
    7.7165  -19.1313   17.6287 C   0  0  0  0  0  0  0  0  0  0  0  0
    8.1883  -18.1663   16.5930 C   0  0  0  0  0  0  0  0  0  0  0  0
    9.0334  -17.1968   17.3549 C   0  0  0  0  0  0  0  0  0  0  0  0
    9.4908  -17.9660   18.5644 C   0  0  1  0  0  0  0  0  0  0  0  0
    9.8183  -17.0896   19.7072 C   0  0  0  0  0  0  0  0  0  0  0  0
   10.8779  -16.3863   19.6792 O   0  0  0  0  0  0  0  0  0  0  0  0
    9.0199  -16.9682   20.8664 N   0  0  0  0  0  0  0  0  0  0  0  0
    9.3739  -16.1124   21.9753 C   0  0  1  0  0  0  0  0  0  0  0  0
    8.2501  -15.1711   22.3448 C   0  0  0  0  0  0  0  0  0  0  0  0
    7.8255  -14.3278   21.2127 C   0  0  0  0  0  0  0  0  0  0  0  0
    6.5649  -14.1311   20.6813 C   0  0  0  0  0  0  0  0  0  0  0  0
    6.6327  -13.2750   19.6467 N   0  0  0  0  0  0  0  0  0  0  0  0
    7.9212  -12.9197   19.5074 C   0  0  0  0  0  0  0  0  0  0  0  0
    8.6392  -13.5640   20.4630 N   0  0  0  0  0  0  0  0  0  0  0  0
    9.7416  -16.9207   23.1810 C   0  0  0  0  0  0  0  0  0  0  0  0
    8.8995  -17.6829   23.7340 O   0  0  0  0  0  0  0  0  0  0  0  0
   13.7484  -17.2255   24.0816 O   0  0  0  0  0  0  0  0  0  0  0  0
   12.8896  -18.3110   24.3708 C   0  0  0  0  0  0  0  0  0  0  0  0
   11.5672  -17.6993   24.7642 C   0  0  2  0  0  0  0  0  0  0  0  0
   11.0443  -16.8413   23.7197 N   0  0  0  0  0  0  0  0  0  0  0  0
   11.6111  -17.0352   26.0967 C   0  0  0  0  0  0  0  0  0  0  0  0
   11.9983  -17.7452   27.2089 O   0  0  0  0  0  0  0  0  0  0  0  0
   11.2824  -15.8238   26.1300 O   0  0  0  0  0  0  0  0  0  0  0  0
  1  2  1  0
  1  5  1  0
  2  3  1  0
  3  4  1  0
  5  6  1  1
  5  4  1  0
  6  8  1  0
  7  6  2  0
  8  9  1  0
  9 16  1  0
 10 11  1  0
  9 10  1  1
 11 12  2  0
 13 12  1  0
 14 13  1  0
 15 14  2  0
 15 11  1  0
 16 21  1  0
 16 17  2  0
 18 19  1  0
 20 19  1  6
 20 22  1  0
 21 20  1  0
 22 24  2  0
 22 23  1  0
M  END
$$$$
