PHS.pdb
     RDKit          3D

 24 25  0  0  1  0  0  0  0  0999 V2000
    8.2047  -13.4453   19.6637 N   0  0  0  0  0  0  0  0  0  0  0  0
    7.4622  -12.5874   18.7689 C   0  0  0  0  0  0  0  0  0  0  0  0
    7.4874  -13.2088   17.4125 C   0  0  0  0  0  0  0  0  0  0  0  0
    8.3665  -14.4067   17.5757 C   0  0  0  0  0  0  0  0  0  0  0  0
    8.2769  -14.7426   19.0395 C   0  0  1  0  0  0  0  0  0  0  0  0
    9.4634  -15.4720   19.5309 C   0  0  0  0  0  0  0  0  0  0  0  0
    9.6696  -16.6687   19.1519 O   0  0  0  0  0  0  0  0  0  0  0  0
   10.4177  -14.9257   20.4178 N   0  0  0  0  0  0  0  0  0  0  0  0
   11.4827  -15.7083   21.0017 C   0  0  1  0  0  0  0  0  0  0  0  0
   12.7876  -14.9459   21.0435 C   0  0  0  0  0  0  0  0  0  0  0  0
   13.4721  -14.9276   19.7380 C   0  0  0  0  0  0  0  0  0  0  0  0
   13.2229  -15.6697   18.5990 C   0  0  0  0  0  0  0  0  0  0  0  0
   14.0934  -15.3306   17.6320 N   0  0  0  0  0  0  0  0  0  0  0  0
   14.8984  -14.3800   18.1363 C   0  0  0  0  0  0  0  0  0  0  0  0
   14.5140  -14.1411   19.4164 N   0  0  0  0  0  0  0  0  0  0  0  0
   11.1318  -16.1394   22.3920 C   0  0  0  0  0  0  0  0  0  0  0  0
   10.4912  -15.3751   23.1673 O   0  0  0  0  0  0  0  0  0  0  0  0
    9.3615  -19.1824   23.4590 O   0  0  0  0  0  0  0  0  0  0  0  0
   10.6200  -19.3349   24.0854 C   0  0  0  0  0  0  0  0  0  0  0  0
   11.2104  -17.9487   24.1714 C   0  0  2  0  0  0  0  0  0  0  0  0
   11.5148  -17.4159   22.8584 N   0  0  0  0  0  0  0  0  0  0  0  0
   12.3603  -17.8676   25.1145 C   0  0  0  0  0  0  0  0  0  0  0  0
   12.2072  -18.2578   26.4242 O   0  0  0  0  0  0  0  0  0  0  0  0
   13.4410  -17.4344   24.6442 O   0  0  0  0  0  0  0  0  0  0  0  0
  1  2  1  0
  1  5  1  0
  2  3  1  0
  3  4  1  0
  5  6  1  1
  5  4  1  0
  6  8  1  0
  7  6  2  0
  8  9  1  0
  9 16  1  0
 10 11  1  0
  9 10  1  1
 11 12  2  0
 13 12  1  0
 14 13  1  0
 15 14  2  0
 15 11  1  0
 16 21  1  0
 16 17  2  0
 18 19  1  0
 20 19  1  6
 20 22  1  0
 21 20  1  0
 22 24  2  0
 22 23  1  0
M  END
$$$$
