PHS.pdb
     RDKit          3D

 24 25  0  0  1  0  0  0  0  0999 V2000
    7.7021  -19.3495   18.9629 N   0  0  0  0  0  0  0  0  0  0  0  0
    6.7865  -19.6953   17.8999 C   0  0  0  0  0  0  0  0  0  0  0  0
    7.1935  -18.9380   16.6803 C   0  0  0  0  0  0  0  0  0  0  0  0
    8.3229  -18.0762   17.1453 C   0  0  0  0  0  0  0  0  0  0  0  0
    8.8804  -18.7994   18.3411 C   0  0  1  0  0  0  0  0  0  0  0  0
    9.5712  -17.8956   19.2831 C   0  0  0  0  0  0  0  0  0  0  0  0
   10.7511  -17.4970   19.0241 O   0  0  0  0  0  0  0  0  0  0  0  0
    9.0044  -17.4246   20.4883 N   0  0  0  0  0  0  0  0  0  0  0  0
    9.6661  -16.4658   21.3429 C   0  0  1  0  0  0  0  0  0  0  0  0
    8.7396  -15.3467   21.7613 C   0  0  0  0  0  0  0  0  0  0  0  0
    8.3558  -14.4804   20.6320 C   0  0  0  0  0  0  0  0  0  0  0  0
    8.7515  -14.5265   19.3086 C   0  0  0  0  0  0  0  0  0  0  0  0
    8.1534  -13.5405   18.6173 N   0  0  0  0  0  0  0  0  0  0  0  0
    7.3787  -12.8620   19.4807 C   0  0  0  0  0  0  0  0  0  0  0  0
    7.5076  -13.4397   20.7026 N   0  0  0  0  0  0  0  0  0  0  0  0
   10.2088  -17.1270   22.5719 C   0  0  0  0  0  0  0  0  0  0  0  0
    9.4422  -17.7137   23.3867 O   0  0  0  0  0  0  0  0  0  0  0  0
   14.2193  -17.9098   22.7158 O   0  0  0  0  0  0  0  0  0  0  0  0
   13.3314  -18.7064   23.4751 C   0  0  0  0  0  0  0  0  0  0  0  0
   12.2414  -17.7757   23.9479 C   0  0  2  0  0  0  0  0  0  0  0  0
   11.5952  -17.1035   22.8384 N   0  0  0  0  0  0  0  0  0  0  0  0
   12.7022  -16.8379   25.0093 C   0  0  0  0  0  0  0  0  0  0  0  0
   13.1781  -17.3272   26.2030 O   0  0  0  0  0  0  0  0  0  0  0  0
   12.6287  -15.6127   24.7447 O   0  0  0  0  0  0  0  0  0  0  0  0
  1  2  1  0
  1  5  1  0
  2  3  1  0
  3  4  1  0
  5  6  1  1
  5  4  1  0
  6  8  1  0
  7  6  2  0
  8  9  1  0
  9 16  1  0
 10 11  1  0
  9 10  1  1
 11 12  2  0
 13 12  1  0
 14 13  1  0
 15 14  2  0
 15 11  1  0
 16 21  1  0
 16 17  2  0
 18 19  1  0
 20 19  1  6
 20 22  1  0
 21 20  1  0
 22 24  2  0
 22 23  1  0
M  END
$$$$
