PHS.pdb
     RDKit          3D

 24 25  0  0  1  0  0  0  0  0999 V2000
    8.2170  -14.2740   19.8019 N   0  0  0  0  0  0  0  0  0  0  0  0
    7.2105  -13.2457   19.9334 C   0  0  0  0  0  0  0  0  0  0  0  0
    7.4848  -12.2017   18.9032 C   0  0  0  0  0  0  0  0  0  0  0  0
    8.7548  -12.6519   18.2560 C   0  0  0  0  0  0  0  0  0  0  0  0
    8.7874  -14.1385   18.4850 C   0  0  1  0  0  0  0  0  0  0  0  0
   10.1584  -14.6877   18.4716 C   0  0  0  0  0  0  0  0  0  0  0  0
   10.7233  -14.9463   17.3615 O   0  0  0  0  0  0  0  0  0  0  0  0
   10.9152  -14.9565   19.6338 N   0  0  0  0  0  0  0  0  0  0  0  0
   12.2945  -15.3843   19.5889 C   0  0  1  0  0  0  0  0  0  0  0  0
   13.1323  -14.5003   18.6933 C   0  0  0  0  0  0  0  0  0  0  0  0
   13.5157  -15.1711   17.4379 C   0  0  0  0  0  0  0  0  0  0  0  0
   13.1407  -16.4071   16.9461 C   0  0  0  0  0  0  0  0  0  0  0  0
   13.7295  -16.6245   15.7570 N   0  0  0  0  0  0  0  0  0  0  0  0
   14.4778  -15.5434   15.4794 C   0  0  0  0  0  0  0  0  0  0  0  0
   14.3422  -14.6651   16.5060 N   0  0  0  0  0  0  0  0  0  0  0  0
   12.8986  -15.3929   20.9589 C   0  0  0  0  0  0  0  0  0  0  0  0
   13.3534  -14.3336   21.4754 O   0  0  0  0  0  0  0  0  0  0  0  0
   11.9049  -18.4890   23.2514 O   0  0  0  0  0  0  0  0  0  0  0  0
   12.3269  -17.3295   23.9420 C   0  0  0  0  0  0  0  0  0  0  0  0
   13.3927  -16.6988   23.0794 C   0  0  2  0  0  0  0  0  0  0  0  0
   12.9682  -16.5943   21.6976 N   0  0  0  0  0  0  0  0  0  0  0  0
   14.7223  -17.3524   23.2329 C   0  0  0  0  0  0  0  0  0  0  0  0
   15.3562  -17.3480   24.4532 O   0  0  0  0  0  0  0  0  0  0  0  0
   15.2045  -17.8895   22.2055 O   0  0  0  0  0  0  0  0  0  0  0  0
  1  2  1  0
  1  5  1  0
  2  3  1  0
  3  4  1  0
  5  6  1  1
  5  4  1  0
  6  8  1  0
  7  6  2  0
  8  9  1  0
  9 16  1  0
 10 11  1  0
  9 10  1  6
 11 12  2  0
 13 12  1  0
 14 13  1  0
 15 14  2  0
 15 11  1  0
 16 21  1  0
 16 17  2  0
 18 19  1  0
 20 19  1  1
 20 22  1  0
 21 20  1  0
 22 24  2  0
 22 23  1  0
M  END
$$$$
