PHS.pdb
     RDKit          3D

 24 25  0  0  1  0  0  0  0  0999 V2000
    7.4283  -14.2557   19.8671 N   0  0  0  0  0  0  0  0  0  0  0  0
    7.0836  -12.9164   19.4484 C   0  0  0  0  0  0  0  0  0  0  0  0
    7.9297  -12.5734   18.2682 C   0  0  0  0  0  0  0  0  0  0  0  0
    8.8343  -13.7531   18.1119 C   0  0  0  0  0  0  0  0  0  0  0  0
    8.0840  -14.8899   18.7510 C   0  0  1  0  0  0  0  0  0  0  0  0
    8.9771  -15.9620   19.2350 C   0  0  0  0  0  0  0  0  0  0  0  0
    8.5831  -17.1712   19.2075 O   0  0  0  0  0  0  0  0  0  0  0  0
   10.2768  -15.7412   19.7425 N   0  0  0  0  0  0  0  0  0  0  0  0
   11.1370  -16.8136   20.1867 C   0  0  1  0  0  0  0  0  0  0  0  0
   12.2199  -17.1249   19.1787 C   0  0  0  0  0  0  0  0  0  0  0  0
   11.8044  -18.1484   18.2026 C   0  0  0  0  0  0  0  0  0  0  0  0
   10.6360  -18.8837   18.1363 C   0  0  0  0  0  0  0  0  0  0  0  0
   10.6743  -19.7096   17.0760 N   0  0  0  0  0  0  0  0  0  0  0  0
   11.8528  -19.5135   16.4607 C   0  0  0  0  0  0  0  0  0  0  0  0
   12.5333  -18.5632   17.1518 N   0  0  0  0  0  0  0  0  0  0  0  0
   11.7801  -16.4782   21.4967 C   0  0  0  0  0  0  0  0  0  0  0  0
   12.6095  -15.5299   21.5897 O   0  0  0  0  0  0  0  0  0  0  0  0
   10.1214  -18.1335   24.8140 O   0  0  0  0  0  0  0  0  0  0  0  0
   10.8116  -16.9124   24.9921 C   0  0  0  0  0  0  0  0  0  0  0  0
   11.9408  -16.9252   23.9908 C   0  0  2  0  0  0  0  0  0  0  0  0
   11.4655  -17.2229   22.6544 N   0  0  0  0  0  0  0  0  0  0  0  0
   13.0771  -17.7911   24.4119 C   0  0  0  0  0  0  0  0  0  0  0  0
   13.7611  -17.5155   25.5725 O   0  0  0  0  0  0  0  0  0  0  0  0
   13.3544  -18.7569   23.6589 O   0  0  0  0  0  0  0  0  0  0  0  0
  1  2  1  0
  1  5  1  0
  2  3  1  0
  3  4  1  0
  5  6  1  1
  5  4  1  0
  6  8  1  0
  7  6  2  0
  8  9  1  0
  9 16  1  0
 10 11  1  0
  9 10  1  6
 11 12  2  0
 13 12  1  0
 14 13  1  0
 15 14  2  0
 15 11  1  0
 16 21  1  0
 16 17  2  0
 18 19  1  0
 20 19  1  1
 20 22  1  0
 21 20  1  0
 22 24  2  0
 22 23  1  0
M  END
$$$$
