PHS.pdb
     RDKit          3D

 24 25  0  0  1  0  0  0  0  0999 V2000
    9.0174  -19.4073   18.0705 N   0  0  0  0  0  0  0  0  0  0  0  0
    8.3172  -19.8329   16.8803 C   0  0  0  0  0  0  0  0  0  0  0  0
    8.5392  -18.8018   15.8249 C   0  0  0  0  0  0  0  0  0  0  0  0
    9.3170  -17.7303   16.5187 C   0  0  0  0  0  0  0  0  0  0  0  0
   10.0011  -18.4385   17.6563 C   0  0  1  0  0  0  0  0  0  0  0  0
   10.3220  -17.5352   18.7798 C   0  0  0  0  0  0  0  0  0  0  0  0
   11.3732  -16.8204   18.7338 O   0  0  0  0  0  0  0  0  0  0  0  0
    9.5260  -17.3995   19.9390 N   0  0  0  0  0  0  0  0  0  0  0  0
    9.9082  -16.5709   21.0592 C   0  0  1  0  0  0  0  0  0  0  0  0
    8.7412  -15.7759   21.5992 C   0  0  0  0  0  0  0  0  0  0  0  0
    8.2803  -14.7401   20.6571 C   0  0  0  0  0  0  0  0  0  0  0  0
    8.7988  -14.3662   19.4317 C   0  0  0  0  0  0  0  0  0  0  0  0
    8.0620  -13.3713   18.9071 N   0  0  0  0  0  0  0  0  0  0  0  0
    7.0769  -13.1020   19.7805 C   0  0  0  0  0  0  0  0  0  0  0  0
    7.2169  -13.9382   20.8410 N   0  0  0  0  0  0  0  0  0  0  0  0
   10.4819  -17.3981   22.1676 C   0  0  0  0  0  0  0  0  0  0  0  0
    9.9763  -18.5144   22.4742 O   0  0  0  0  0  0  0  0  0  0  0  0
   14.0714  -16.1802   23.8446 O   0  0  0  0  0  0  0  0  0  0  0  0
   13.7852  -17.5645   23.8070 C   0  0  0  0  0  0  0  0  0  0  0  0
   12.2857  -17.6808   23.9317 C   0  0  2  0  0  0  0  0  0  0  0  0
   11.6044  -16.9381   22.8903 N   0  0  0  0  0  0  0  0  0  0  0  0
   11.7923  -17.3543   25.2987 C   0  0  0  0  0  0  0  0  0  0  0  0
   12.2663  -18.0483   26.3871 O   0  0  0  0  0  0  0  0  0  0  0  0
   10.9443  -16.4322   25.3827 O   0  0  0  0  0  0  0  0  0  0  0  0
  1  2  1  0
  1  5  1  0
  2  3  1  0
  3  4  1  0
  5  6  1  1
  5  4  1  0
  6  8  1  0
  7  6  2  0
  8  9  1  0
  9 16  1  0
 10 11  1  0
  9 10  1  1
 11 12  2  0
 13 12  1  0
 14 13  1  0
 15 14  2  0
 15 11  1  0
 16 21  1  0
 16 17  2  0
 18 19  1  0
 20 19  1  1
 20 22  1  0
 21 20  1  0
 22 24  2  0
 22 23  1  0
M  END
$$$$
