PHS.pdb
     RDKit          3D

 24 25  0  0  1  0  0  0  0  0999 V2000
    9.3282  -14.2898   18.4229 N   0  0  0  0  0  0  0  0  0  0  0  0
    8.8180  -13.6455   17.2345 C   0  0  0  0  0  0  0  0  0  0  0  0
    7.5359  -12.9717   17.5932 C   0  0  0  0  0  0  0  0  0  0  0  0
    7.3070  -13.3573   19.0192 C   0  0  0  0  0  0  0  0  0  0  0  0
    8.6802  -13.6675   19.5502 C   0  0  1  0  0  0  0  0  0  0  0  0
    8.6519  -14.6021   20.6933 C   0  0  0  0  0  0  0  0  0  0  0  0
    7.9328  -14.3355   21.7082 O   0  0  0  0  0  0  0  0  0  0  0  0
    9.3853  -15.8083   20.7485 N   0  0  0  0  0  0  0  0  0  0  0  0
    9.2400  -16.7652   21.8211 C   0  0  1  0  0  0  0  0  0  0  0  0
    9.6824  -18.1504   21.4075 C   0  0  0  0  0  0  0  0  0  0  0  0
    8.8804  -18.6897   20.2944 C   0  0  0  0  0  0  0  0  0  0  0  0
    7.5767  -18.4120   19.9288 C   0  0  0  0  0  0  0  0  0  0  0  0
    7.2420  -19.1328   18.8443 N   0  0  0  0  0  0  0  0  0  0  0  0
    8.3146  -19.8697   18.5091 C   0  0  0  0  0  0  0  0  0  0  0  0
    9.3057  -19.5944   19.3955 N   0  0  0  0  0  0  0  0  0  0  0  0
   10.0276  -16.3468   23.0240 C   0  0  0  0  0  0  0  0  0  0  0  0
   11.2086  -15.9135   22.9090 O   0  0  0  0  0  0  0  0  0  0  0  0
    8.0815  -14.9055   25.6457 O   0  0  0  0  0  0  0  0  0  0  0  0
    9.1973  -15.2532   26.4417 C   0  0  0  0  0  0  0  0  0  0  0  0
   10.1164  -16.0441   25.5431 C   0  0  2  0  0  0  0  0  0  0  0  0
    9.4562  -16.4314   24.3124 N   0  0  0  0  0  0  0  0  0  0  0  0
   10.7642  -17.1886   26.2424 C   0  0  0  0  0  0  0  0  0  0  0  0
   11.4521  -16.9807   27.4148 O   0  0  0  0  0  0  0  0  0  0  0  0
   10.6404  -18.3164   25.7044 O   0  0  0  0  0  0  0  0  0  0  0  0
  1  2  1  0
  1  5  1  0
  2  3  1  0
  3  4  1  0
  5  6  1  1
  5  4  1  0
  6  8  1  0
  7  6  2  0
  8  9  1  0
  9 16  1  0
 10 11  1  0
  9 10  1  6
 11 12  2  0
 13 12  1  0
 14 13  1  0
 15 14  2  0
 15 11  1  0
 16 21  1  0
 16 17  2  0
 18 19  1  0
 20 19  1  1
 20 22  1  0
 21 20  1  0
 22 24  2  0
 22 23  1  0
M  END
$$$$
