PHS.pdb
     RDKit          3D

 24 25  0  0  1  0  0  0  0  0999 V2000
    8.3966  -14.0993   17.9467 N   0  0  0  0  0  0  0  0  0  0  0  0
    7.1612  -13.3942   18.2004 C   0  0  0  0  0  0  0  0  0  0  0  0
    7.2076  -12.8777   19.5995 C   0  0  0  0  0  0  0  0  0  0  0  0
    8.4905  -13.4165   20.1456 C   0  0  0  0  0  0  0  0  0  0  0  0
    9.3481  -13.6490   18.9315 C   0  0  1  0  0  0  0  0  0  0  0  0
   10.3759  -14.6869   19.1495 C   0  0  0  0  0  0  0  0  0  0  0  0
   10.1164  -15.9002   18.8688 O   0  0  0  0  0  0  0  0  0  0  0  0
   11.6666  -14.4280   19.6623 N   0  0  0  0  0  0  0  0  0  0  0  0
   12.5791  -15.4775   20.0537 C   0  0  1  0  0  0  0  0  0  0  0  0
   14.0234  -15.0553   19.9071 C   0  0  0  0  0  0  0  0  0  0  0  0
   14.5115  -15.1862   18.5223 C   0  0  0  0  0  0  0  0  0  0  0  0
   14.8353  -14.2061   17.6032 C   0  0  0  0  0  0  0  0  0  0  0  0
   15.2407  -14.7729   16.4532 N   0  0  0  0  0  0  0  0  0  0  0  0
   15.1810  -16.1047   16.6229 C   0  0  0  0  0  0  0  0  0  0  0  0
   14.7369  -16.3471   17.8829 N   0  0  0  0  0  0  0  0  0  0  0  0
   12.3405  -15.8949   21.4718 C   0  0  0  0  0  0  0  0  0  0  0  0
   12.1514  -15.0363   22.3789 O   0  0  0  0  0  0  0  0  0  0  0  0
   10.9135  -19.5855   22.1541 O   0  0  0  0  0  0  0  0  0  0  0  0
   10.7528  -18.5896   23.1449 C   0  0  0  0  0  0  0  0  0  0  0  0
   12.0308  -17.7869   23.1361 C   0  0  2  0  0  0  0  0  0  0  0  0
   12.3235  -17.2640   21.8165 N   0  0  0  0  0  0  0  0  0  0  0  0
   13.1779  -18.5198   23.7405 C   0  0  0  0  0  0  0  0  0  0  0  0
   13.1419  -18.8852   25.0657 O   0  0  0  0  0  0  0  0  0  0  0  0
   14.1447  -18.7722   22.9800 O   0  0  0  0  0  0  0  0  0  0  0  0
  1  2  1  0
  1  5  1  0
  2  3  1  0
  3  4  1  0
  5  6  1  1
  5  4  1  0
  6  8  1  0
  7  6  2  0
  8  9  1  0
  9 16  1  0
 10 11  1  0
  9 10  1  1
 11 12  2  0
 13 12  1  0
 14 13  1  0
 15 14  2  0
 15 11  1  0
 16 21  1  0
 16 17  2  0
 18 19  1  0
 20 19  1  6
 20 22  1  0
 21 20  1  0
 22 24  2  0
 22 23  1  0
M  END
$$$$
