PHS.pdb
     RDKit          3D

 24 25  0  0  1  0  0  0  0  0999 V2000
    9.1290  -12.9307   18.6004 N   0  0  0  0  0  0  0  0  0  0  0  0
    7.9160  -12.4425   17.9855 C   0  0  0  0  0  0  0  0  0  0  0  0
    6.8036  -13.3564   18.3778 C   0  0  0  0  0  0  0  0  0  0  0  0
    7.4771  -14.4361   19.1621 C   0  0  0  0  0  0  0  0  0  0  0  0
    8.7331  -13.7937   19.6851 C   0  0  1  0  0  0  0  0  0  0  0  0
    9.8017  -14.7743   19.9637 C   0  0  0  0  0  0  0  0  0  0  0  0
    9.5598  -15.7756   20.7101 O   0  0  0  0  0  0  0  0  0  0  0  0
   11.1141  -14.6832   19.4487 N   0  0  0  0  0  0  0  0  0  0  0  0
   12.1454  -15.6467   19.7575 C   0  0  1  0  0  0  0  0  0  0  0  0
   13.3256  -15.5325   18.8195 C   0  0  0  0  0  0  0  0  0  0  0  0
   13.1325  -16.2978   17.5744 C   0  0  0  0  0  0  0  0  0  0  0  0
   11.9654  -16.6254   16.9105 C   0  0  0  0  0  0  0  0  0  0  0  0
   12.2512  -17.3383   15.8069 N   0  0  0  0  0  0  0  0  0  0  0  0
   13.5873  -17.4724   15.7542 C   0  0  0  0  0  0  0  0  0  0  0  0
   14.1150  -16.8372   16.8320 N   0  0  0  0  0  0  0  0  0  0  0  0
   12.6304  -15.4815   21.1645 C   0  0  0  0  0  0  0  0  0  0  0  0
   13.1893  -14.4119   21.5379 O   0  0  0  0  0  0  0  0  0  0  0  0
   11.2593  -18.0468   24.0067 O   0  0  0  0  0  0  0  0  0  0  0  0
   11.7914  -16.8085   24.4346 C   0  0  0  0  0  0  0  0  0  0  0  0
   12.9138  -16.4875   23.4782 C   0  0  2  0  0  0  0  0  0  0  0  0
   12.4680  -16.5268   22.0997 N   0  0  0  0  0  0  0  0  0  0  0  0
   14.1324  -17.3091   23.7204 C   0  0  0  0  0  0  0  0  0  0  0  0
   14.5802  -18.1800   22.7551 O   0  0  0  0  0  0  0  0  0  0  0  0
   14.7015  -17.1537   24.8288 O   0  0  0  0  0  0  0  0  0  0  0  0
  1  2  1  0
  1  5  1  0
  2  3  1  0
  3  4  1  0
  5  6  1  6
  5  4  1  0
  6  8  1  0
  7  6  2  0
  8  9  1  0
  9 16  1  0
 10 11  1  0
  9 10  1  6
 11 12  2  0
 13 12  1  0
 14 13  1  0
 15 14  2  0
 15 11  1  0
 16 21  1  0
 16 17  2  0
 18 19  1  0
 20 19  1  1
 20 22  1  0
 21 20  1  0
 22 24  2  0
 22 23  1  0
M  END
$$$$
