PHS.pdb
     RDKit          3D

 24 25  0  0  1  0  0  0  0  0999 V2000
    8.4085  -15.0287   19.7517 N   0  0  0  0  0  0  0  0  0  0  0  0
    7.9786  -14.4709   18.4900 C   0  0  0  0  0  0  0  0  0  0  0  0
    7.4570  -13.0974   18.7503 C   0  0  0  0  0  0  0  0  0  0  0  0
    7.5261  -12.9559   20.2368 C   0  0  0  0  0  0  0  0  0  0  0  0
    8.5987  -13.9235   20.6574 C   0  0  1  0  0  0  0  0  0  0  0  0
    8.4379  -14.3824   22.0520 C   0  0  0  0  0  0  0  0  0  0  0  0
    8.4875  -13.5391   23.0030 O   0  0  0  0  0  0  0  0  0  0  0  0
    8.2264  -15.7290   22.4232 N   0  0  0  0  0  0  0  0  0  0  0  0
    7.9313  -16.1306   23.7792 C   0  0  1  0  0  0  0  0  0  0  0  0
    7.7034  -17.6210   23.8911 C   0  0  0  0  0  0  0  0  0  0  0  0
    7.3880  -18.0415   25.2683 C   0  0  0  0  0  0  0  0  0  0  0  0
    6.5991  -17.4258   26.2216 C   0  0  0  0  0  0  0  0  0  0  0  0
    6.5862  -18.1593   27.3484 N   0  0  0  0  0  0  0  0  0  0  0  0
    7.3571  -19.2382   27.1303 C   0  0  0  0  0  0  0  0  0  0  0  0
    7.8404  -19.1588   25.8639 N   0  0  0  0  0  0  0  0  0  0  0  0
    9.0399  -15.7417   24.7076 C   0  0  0  0  0  0  0  0  0  0  0  0
   10.2401  -16.0368   24.4462 O   0  0  0  0  0  0  0  0  0  0  0  0
    8.0403  -13.2330   27.7436 O   0  0  0  0  0  0  0  0  0  0  0  0
    9.3873  -13.1481   27.3221 C   0  0  0  0  0  0  0  0  0  0  0  0
    9.7510  -14.5235   26.8185 C   0  0  2  0  0  0  0  0  0  0  0  0
    8.7565  -15.0343   25.8963 N   0  0  0  0  0  0  0  0  0  0  0  0
   10.0701  -15.4761   27.9182 C   0  0  0  0  0  0  0  0  0  0  0  0
    9.3850  -16.6638   28.0225 O   0  0  0  0  0  0  0  0  0  0  0  0
   10.9779  -15.1296   28.7136 O   0  0  0  0  0  0  0  0  0  0  0  0
  1  2  1  0
  1  5  1  0
  2  3  1  0
  3  4  1  0
  5  6  1  1
  5  4  1  0
  6  8  1  0
  7  6  2  0
  8  9  1  0
  9 16  1  0
 10 11  1  0
  9 10  1  6
 11 12  2  0
 13 12  1  0
 14 13  1  0
 15 14  2  0
 15 11  1  0
 16 21  1  0
 16 17  2  0
 18 19  1  0
 20 19  1  1
 20 22  1  0
 21 20  1  0
 22 24  2  0
 22 23  1  0
M  END
$$$$
