PHS.pdb
     RDKit          3D

 24 25  0  0  1  0  0  0  0  0999 V2000
    9.6319  -14.1499   19.3879 N   0  0  0  0  0  0  0  0  0  0  0  0
    9.1131  -13.2741   18.3624 C   0  0  0  0  0  0  0  0  0  0  0  0
    7.7015  -12.9424   18.7144 C   0  0  0  0  0  0  0  0  0  0  0  0
    7.4283  -13.7583   19.9368 C   0  0  0  0  0  0  0  0  0  0  0  0
    8.7850  -13.9926   20.5437 C   0  0  1  0  0  0  0  0  0  0  0  0
    8.8352  -15.2129   21.3741 C   0  0  0  0  0  0  0  0  0  0  0  0
    8.0097  -15.3589   22.3309 O   0  0  0  0  0  0  0  0  0  0  0  0
    9.7589  -16.2643   21.1817 N   0  0  0  0  0  0  0  0  0  0  0  0
    9.8411  -17.4060   22.0634 C   0  0  1  0  0  0  0  0  0  0  0  0
   10.4451  -18.6094   21.3760 C   0  0  0  0  0  0  0  0  0  0  0  0
   10.9908  -18.2842   20.0458 C   0  0  0  0  0  0  0  0  0  0  0  0
   10.5856  -17.3278   19.1340 C   0  0  0  0  0  0  0  0  0  0  0  0
   11.3683  -17.3759   18.0418 N   0  0  0  0  0  0  0  0  0  0  0  0
   12.2709  -18.3513   18.2411 C   0  0  0  0  0  0  0  0  0  0  0  0
   12.0344  -18.8981   19.4612 N   0  0  0  0  0  0  0  0  0  0  0  0
   10.6542  -17.0872   23.2797 C   0  0  0  0  0  0  0  0  0  0  0  0
   11.4256  -16.0871   23.3021 O   0  0  0  0  0  0  0  0  0  0  0  0
    9.7415  -16.2460   26.3988 O   0  0  0  0  0  0  0  0  0  0  0  0
   10.5025  -17.3639   26.8121 C   0  0  0  0  0  0  0  0  0  0  0  0
   11.3606  -17.7408   25.6291 C   0  0  2  0  0  0  0  0  0  0  0  0
   10.5687  -17.9064   24.4266 N   0  0  0  0  0  0  0  0  0  0  0  0
   12.2493  -18.9033   25.9066 C   0  0  0  0  0  0  0  0  0  0  0  0
   13.1227  -18.8660   26.9681 O   0  0  0  0  0  0  0  0  0  0  0  0
   12.1464  -19.8850   25.1305 O   0  0  0  0  0  0  0  0  0  0  0  0
  1  2  1  0
  1  5  1  0
  2  3  1  0
  3  4  1  0
  5  6  1  1
  5  4  1  0
  6  8  1  0
  7  6  2  0
  8  9  1  0
  9 16  1  0
 10 11  1  0
  9 10  1  6
 11 12  2  0
 13 12  1  0
 14 13  1  0
 15 14  2  0
 15 11  1  0
 16 21  1  0
 16 17  2  0
 18 19  1  0
 20 19  1  1
 20 22  1  0
 21 20  1  0
 22 24  2  0
 22 23  1  0
M  END
$$$$
