MQM.pdb
     RDKit          3D

 26 25  0  0  1  0  0  0  0  0999 V2000
   11.7621  -13.8607  -10.2421 C   0  0  0  0  0  0  0  0  0  0  0  0
   12.2408  -12.3554  -11.1511 S   0  0  0  0  0  0  0  0  0  0  0  0
   13.5296  -11.5444  -10.1964 C   0  0  0  0  0  0  0  0  0  0  0  0
   13.9590  -10.2161  -10.8332 C   0  0  0  0  0  0  0  0  0  0  0  0
   15.0981   -9.7060  -10.0130 C   0  0  2  0  0  0  0  0  0  0  0  0
   14.6923   -9.7312   -8.6216 N   0  0  0  0  0  0  0  0  0  0  0  0
   15.5419   -8.3460  -10.3560 C   0  0  0  0  0  0  0  0  0  0  0  0
   15.6111   -7.9861  -11.5551 O   0  0  0  0  0  0  0  0  0  0  0  0
   14.8277   -3.4881   -6.6706 N   0  0  0  0  0  0  0  0  0  0  0  0
   13.8688   -4.0448   -7.5435 C   0  0  0  0  0  0  0  0  0  0  0  0
   12.6703   -3.7161   -7.3794 O   0  0  0  0  0  0  0  0  0  0  0  0
   14.2654   -4.9978   -8.6320 C   0  0  0  0  0  0  0  0  0  0  0  0
   15.7671   -5.1226   -8.5889 C   0  0  0  0  0  0  0  0  0  0  0  0
   16.3054   -6.0455   -9.6176 C   0  0  2  0  0  0  0  0  0  0  0  0
   15.9018   -7.4085   -9.3552 N   0  0  0  0  0  0  0  0  0  0  0  0
   17.7813   -6.0096   -9.7968 C   0  0  0  0  0  0  0  0  0  0  0  0
   18.5001   -6.4802   -8.8753 O   0  0  0  0  0  0  0  0  0  0  0  0
   23.1970   -9.6793  -13.1651 C   0  0  0  0  0  0  0  0  0  0  0  0
   21.5454   -9.2567  -12.6122 S   0  0  0  0  0  0  0  0  0  0  0  0
   21.3260   -7.4680  -12.3483 C   0  0  0  0  0  0  0  0  0  0  0  0
   19.9963   -7.2148  -11.6970 C   0  0  0  0  0  0  0  0  0  0  0  0
   19.7179   -5.7435  -11.4433 C   0  0  2  0  0  0  0  0  0  0  0  0
   18.3890   -5.4751  -10.9522 N   0  0  0  0  0  0  0  0  0  0  0  0
   19.9716   -4.9826  -12.6891 C   0  0  0  0  0  0  0  0  0  0  0  0
   21.1538   -4.7695  -13.0368 O   0  0  0  0  0  0  0  0  0  0  0  0
   18.9526   -4.4966  -13.4868 O   0  0  0  0  0  0  0  0  0  0  0  0
  2  1  1  0
  3  2  1  0
  4  3  1  0
  5  4  1  0
  5  6  1  1
  7 15  1  0
  7  5  1  0
  8  7  2  0
 10 12  1  0
 10  9  1  0
 11 10  2  0
 13 12  1  0
 14 15  1  0
 14 13  1  1
 16 14  1  0
 17 16  2  0
 18 19  1  0
 20 19  1  0
 20 21  1  0
 22 21  1  6
 22 24  1  0
 22 23  1  0
 23 16  1  0
 24 26  1  0
 25 24  2  0
M  END
$$$$
