MQM.pdb
     RDKit          3D

 26 25  0  0  1  0  0  0  0  0999 V2000
   12.0013  -11.4929   -9.7576 C   0  0  0  0  0  0  0  0  0  0  0  0
   12.5948  -12.4959  -11.1587 S   0  0  0  0  0  0  0  0  0  0  0  0
   14.3721  -12.2535  -11.2715 C   0  0  0  0  0  0  0  0  0  0  0  0
   14.8378  -11.0576  -10.4306 C   0  0  0  0  0  0  0  0  0  0  0  0
   16.2435  -10.7731  -10.8474 C   0  0  2  0  0  0  0  0  0  0  0  0
   17.0518  -11.9275  -10.5078 N   0  0  0  0  0  0  0  0  0  0  0  0
   16.8373   -9.5768  -10.2306 C   0  0  0  0  0  0  0  0  0  0  0  0
   17.2532   -9.6142   -9.0483 O   0  0  0  0  0  0  0  0  0  0  0  0
   20.5776   -5.5483  -12.6201 N   0  0  0  0  0  0  0  0  0  0  0  0
   20.8477   -6.7540  -11.9384 C   0  0  0  0  0  0  0  0  0  0  0  0
   21.9949   -7.2456  -12.0551 O   0  0  0  0  0  0  0  0  0  0  0  0
   19.8009   -7.4281  -11.1017 C   0  0  0  0  0  0  0  0  0  0  0  0
   18.5646   -6.5673  -11.1571 C   0  0  0  0  0  0  0  0  0  0  0  0
   17.4346   -7.1183  -10.3702 C   0  0  2  0  0  0  0  0  0  0  0  0
   16.9576   -8.3569  -10.9429 N   0  0  0  0  0  0  0  0  0  0  0  0
   16.2791   -6.2005  -10.1851 C   0  0  0  0  0  0  0  0  0  0  0  0
   15.2488   -6.3995  -10.8824 O   0  0  0  0  0  0  0  0  0  0  0  0
   10.9365   -3.5251   -5.4713 C   0  0  0  0  0  0  0  0  0  0  0  0
   12.2775   -4.5812   -6.0174 S   0  0  0  0  0  0  0  0  0  0  0  0
   13.2508   -3.8436   -7.3687 C   0  0  0  0  0  0  0  0  0  0  0  0
   14.3532   -4.7834   -7.7658 C   0  0  0  0  0  0  0  0  0  0  0  0
   15.2094   -4.2628   -8.9072 C   0  0  2  0  0  0  0  0  0  0  0  0
   16.3026   -5.1329   -9.2634 N   0  0  0  0  0  0  0  0  0  0  0  0
   15.7154   -2.9154   -8.5551 C   0  0  0  0  0  0  0  0  0  0  0  0
   16.9299   -2.7761   -8.2913 O   0  0  0  0  0  0  0  0  0  0  0  0
   14.8986   -1.8013   -8.5060 O   0  0  0  0  0  0  0  0  0  0  0  0
  2  1  1  0
  3  2  1  0
  4  3  1  0
  5  4  1  0
  5  6  1  1
  7 15  1  0
  7  5  1  0
  8  7  2  0
 10 12  1  0
 10  9  1  0
 11 10  2  0
 13 12  1  0
 14 15  1  0
 14 13  1  6
 16 14  1  0
 17 16  2  0
 18 19  1  0
 20 19  1  0
 20 21  1  0
 22 21  1  1
 22 24  1  0
 22 23  1  0
 23 16  1  0
 24 26  1  0
 25 24  2  0
M  END
$$$$
