MQM.pdb
     RDKit          3D

 26 25  0  0  1  0  0  0  0  0999 V2000
   26.1201  -18.7475  -19.5212 C   0  0  0  0  0  0  0  0  0  0  0  0
   27.9024  -19.1277  -19.5187 S   0  0  0  0  0  0  0  0  0  0  0  0
   28.1043  -20.7269  -18.7234 C   0  0  0  0  0  0  0  0  0  0  0  0
   26.8888  -21.0909  -17.8609 C   0  0  0  0  0  0  0  0  0  0  0  0
   27.4301  -21.5871  -16.5604 C   0  0  2  0  0  0  0  0  0  0  0  0
   28.1267  -22.8329  -16.8134 N   0  0  0  0  0  0  0  0  0  0  0  0
   26.4166  -21.8105  -15.5178 C   0  0  0  0  0  0  0  0  0  0  0  0
   25.7975  -22.8994  -15.4596 O   0  0  0  0  0  0  0  0  0  0  0  0
   25.9998  -22.0127  -10.4629 N   0  0  0  0  0  0  0  0  0  0  0  0
   24.7922  -21.3001  -10.3038 C   0  0  0  0  0  0  0  0  0  0  0  0
   24.0521  -21.6141   -9.3419 O   0  0  0  0  0  0  0  0  0  0  0  0
   24.4031  -20.2037  -11.2508 C   0  0  0  0  0  0  0  0  0  0  0  0
   25.4563  -20.1518  -12.3281 C   0  0  0  0  0  0  0  0  0  0  0  0
   25.1063  -20.9550  -13.5249 C   0  0  2  0  0  0  0  0  0  0  0  0
   26.1094  -20.8150  -14.5563 N   0  0  0  0  0  0  0  0  0  0  0  0
   23.7708  -20.6718  -14.1146 C   0  0  0  0  0  0  0  0  0  0  0  0
   23.5602  -19.5175  -14.5735 O   0  0  0  0  0  0  0  0  0  0  0  0
   18.5746  -24.5970  -17.5510 C   0  0  0  0  0  0  0  0  0  0  0  0
   18.5175  -24.1784  -15.8093 S   0  0  0  0  0  0  0  0  0  0  0  0
   19.2712  -22.5603  -15.4477 C   0  0  0  0  0  0  0  0  0  0  0  0
   20.6510  -22.7614  -14.8890 C   0  0  0  0  0  0  0  0  0  0  0  0
   21.3982  -21.4624  -14.6417 C   0  0  2  0  0  0  0  0  0  0  0  0
   22.7510  -21.6444  -14.1767 N   0  0  0  0  0  0  0  0  0  0  0  0
   20.6283  -20.6383  -13.6807 C   0  0  0  0  0  0  0  0  0  0  0  0
   20.9368  -20.6764  -12.4693 O   0  0  0  0  0  0  0  0  0  0  0  0
   19.5793  -19.8257  -14.0681 O   0  0  0  0  0  0  0  0  0  0  0  0
  2  1  1  0
  3  2  1  0
  4  3  1  0
  5  4  1  0
  5  6  1  6
  7 15  1  0
  7  5  1  0
  8  7  2  0
 10 12  1  0
 10  9  1  0
 11 10  2  0
 13 12  1  0
 14 15  1  0
 14 13  1  1
 16 14  1  0
 17 16  2  0
 18 19  1  0
 20 19  1  0
 20 21  1  0
 22 21  1  1
 22 24  1  0
 22 23  1  0
 23 16  1  0
 24 26  1  0
 25 24  2  0
M  END
$$$$
