MQM.pdb
     RDKit          3D

 26 25  0  0  1  0  0  0  0  0999 V2000
   27.0616  -13.7334  -14.7125 C   0  0  0  0  0  0  0  0  0  0  0  0
   26.7805  -14.5387  -16.3229 S   0  0  0  0  0  0  0  0  0  0  0  0
   25.0028  -14.6133  -16.5776 C   0  0  0  0  0  0  0  0  0  0  0  0
   24.4549  -13.3007  -17.1530 C   0  0  0  0  0  0  0  0  0  0  0  0
   23.8886  -12.5403  -15.9991 C   0  0  2  0  0  0  0  0  0  0  0  0
   22.9319  -13.3970  -15.3268 N   0  0  0  0  0  0  0  0  0  0  0  0
   23.2264  -11.2774  -16.3608 C   0  0  0  0  0  0  0  0  0  0  0  0
   23.8261  -10.4252  -17.0582 O   0  0  0  0  0  0  0  0  0  0  0  0
   17.1460  -10.0897  -15.3675 N   0  0  0  0  0  0  0  0  0  0  0  0
   17.5373   -8.9191  -16.0516 C   0  0  0  0  0  0  0  0  0  0  0  0
   16.6412   -8.1018  -16.3687 O   0  0  0  0  0  0  0  0  0  0  0  0
   18.9751   -8.6573  -16.3901 C   0  0  0  0  0  0  0  0  0  0  0  0
   19.7514   -9.8962  -16.0223 C   0  0  0  0  0  0  0  0  0  0  0  0
   21.2149   -9.7441  -16.2091 C   0  0  2  0  0  0  0  0  0  0  0  0
   21.9051  -10.9850  -15.9383 N   0  0  0  0  0  0  0  0  0  0  0  0
   21.8499   -8.6599  -15.4135 C   0  0  0  0  0  0  0  0  0  0  0  0
   22.2023   -8.9222  -14.2327 O   0  0  0  0  0  0  0  0  0  0  0  0
   25.9979   -4.4151  -19.3467 C   0  0  0  0  0  0  0  0  0  0  0  0
   24.5783   -4.1250  -18.2920 S   0  0  0  0  0  0  0  0  0  0  0  0
   24.2755   -5.4904  -17.1253 C   0  0  0  0  0  0  0  0  0  0  0  0
   23.1231   -5.1394  -16.2281 C   0  0  0  0  0  0  0  0  0  0  0  0
   22.7268   -6.2627  -15.2857 C   0  0  2  0  0  0  0  0  0  0  0  0
   22.0682   -7.3681  -15.9364 N   0  0  0  0  0  0  0  0  0  0  0  0
   21.8692   -5.7109  -14.2108 C   0  0  0  0  0  0  0  0  0  0  0  0
   20.6394   -5.9353  -14.2441 O   0  0  0  0  0  0  0  0  0  0  0  0
   22.3731   -4.9557  -13.1684 O   0  0  0  0  0  0  0  0  0  0  0  0
  2  1  1  0
  3  2  1  0
  4  3  1  0
  5  4  1  0
  5  6  1  6
  7 15  1  0
  7  5  1  0
  8  7  2  0
 10 12  1  0
 10  9  1  0
 11 10  2  0
 13 12  1  0
 14 15  1  0
 14 13  1  1
 16 14  1  0
 17 16  2  0
 18 19  1  0
 20 19  1  0
 20 21  1  0
 22 21  1  6
 22 24  1  0
 22 23  1  0
 23 16  1  0
 24 26  1  0
 25 24  2  0
M  END
$$$$
