MQM.pdb
     RDKit          3D

 26 25  0  0  1  0  0  0  0  0999 V2000
   18.8702  -29.6126   -3.9284 C   0  0  0  0  0  0  0  0  0  0  0  0
   17.4260  -29.6997   -5.0365 S   0  0  0  0  0  0  0  0  0  0  0  0
   16.9702  -28.0111   -5.4505 C   0  0  0  0  0  0  0  0  0  0  0  0
   16.9609  -27.1045   -4.2127 C   0  0  0  0  0  0  0  0  0  0  0  0
   16.7028  -25.7195   -4.7085 C   0  0  2  0  0  0  0  0  0  0  0  0
   17.8784  -25.2789   -5.4331 N   0  0  0  0  0  0  0  0  0  0  0  0
   16.3947  -24.7378   -3.6571 C   0  0  0  0  0  0  0  0  0  0  0  0
   17.2945  -23.9907   -3.2051 O   0  0  0  0  0  0  0  0  0  0  0  0
   11.7477  -21.1089   -1.7424 N   0  0  0  0  0  0  0  0  0  0  0  0
   12.1428  -21.2807   -3.0862 C   0  0  0  0  0  0  0  0  0  0  0  0
   11.7581  -20.4281   -3.9207 O   0  0  0  0  0  0  0  0  0  0  0  0
   12.9939  -22.4423   -3.5063 C   0  0  0  0  0  0  0  0  0  0  0  0
   13.2743  -23.2585   -2.2703 C   0  0  0  0  0  0  0  0  0  0  0  0
   14.7029  -23.6313   -2.1293 C   0  0  2  0  0  0  0  0  0  0  0  0
   15.0868  -24.6051   -3.1263 N   0  0  0  0  0  0  0  0  0  0  0  0
   15.1006  -24.1371   -0.7885 C   0  0  0  0  0  0  0  0  0  0  0  0
   15.1481  -25.3844   -0.6177 O   0  0  0  0  0  0  0  0  0  0  0  0
   21.1169  -25.3389    2.0736 C   0  0  0  0  0  0  0  0  0  0  0  0
   19.9413  -23.9922    2.2006 S   0  0  0  0  0  0  0  0  0  0  0  0
   18.2392  -24.5015    1.8000 C   0  0  0  0  0  0  0  0  0  0  0  0
   17.3269  -23.3104    1.8736 C   0  0  0  0  0  0  0  0  0  0  0  0
   15.8714  -23.6458    1.5982 C   0  0  2  0  0  0  0  0  0  0  0  0
   15.4241  -23.2735    0.2790 N   0  0  0  0  0  0  0  0  0  0  0  0
   15.0246  -23.0040    2.6309 C   0  0  0  0  0  0  0  0  0  0  0  0
   14.2600  -22.0740    2.2927 O   0  0  0  0  0  0  0  0  0  0  0  0
   15.0439  -23.3916    3.9576 O   0  0  0  0  0  0  0  0  0  0  0  0
  2  1  1  0
  3  2  1  0
  4  3  1  0
  5  4  1  0
  5  6  1  1
  7 15  1  0
  7  5  1  0
  8  7  2  0
 10 12  1  0
 10  9  1  0
 11 10  2  0
 13 12  1  0
 14 15  1  0
 14 13  1  1
 16 14  1  0
 17 16  2  0
 18 19  1  0
 20 19  1  0
 20 21  1  0
 22 21  1  1
 22 24  1  0
 22 23  1  0
 23 16  1  0
 24 26  1  0
 25 24  2  0
M  END
$$$$
