MQM.pdb
     RDKit          3D

 26 25  0  0  1  0  0  0  0  0999 V2000
   31.7592  -22.1722  -10.1468 C   0  0  0  0  0  0  0  0  0  0  0  0
   32.4670  -22.2277  -11.8253 S   0  0  0  0  0  0  0  0  0  0  0  0
   31.1332  -21.8747  -12.9772 C   0  0  0  0  0  0  0  0  0  0  0  0
   30.2838  -20.6830  -12.5163 C   0  0  0  0  0  0  0  0  0  0  0  0
   29.1213  -20.6094  -13.4509 C   0  0  2  0  0  0  0  0  0  0  0  0
   29.4515  -19.6651  -14.5000 N   0  0  0  0  0  0  0  0  0  0  0  0
   27.8538  -20.2028  -12.8246 C   0  0  0  0  0  0  0  0  0  0  0  0
   27.5885  -18.9880  -12.6630 O   0  0  0  0  0  0  0  0  0  0  0  0
   22.3802  -19.8197  -11.6360 N   0  0  0  0  0  0  0  0  0  0  0  0
   22.9148  -19.7814  -12.9415 C   0  0  0  0  0  0  0  0  0  0  0  0
   22.3910  -18.9928  -13.7633 O   0  0  0  0  0  0  0  0  0  0  0  0
   24.0701  -20.6527  -13.3369 C   0  0  0  0  0  0  0  0  0  0  0  0
   24.5155  -21.3896  -12.0996 C   0  0  0  0  0  0  0  0  0  0  0  0
   25.7782  -20.8608  -11.5287 C   0  0  2  0  0  0  0  0  0  0  0  0
   26.9018  -21.1584  -12.3881 N   0  0  0  0  0  0  0  0  0  0  0  0
   26.0957  -21.3190  -10.1500 C   0  0  0  0  0  0  0  0  0  0  0  0
   26.3441  -22.5420   -9.9763 O   0  0  0  0  0  0  0  0  0  0  0  0
   29.7715  -19.0223   -4.9618 C   0  0  0  0  0  0  0  0  0  0  0  0
   28.0529  -18.9133   -4.4653 S   0  0  0  0  0  0  0  0  0  0  0  0
   26.9874  -20.0984   -5.3470 C   0  0  0  0  0  0  0  0  0  0  0  0
   26.9707  -19.7667   -6.8120 C   0  0  0  0  0  0  0  0  0  0  0  0
   26.2219  -20.7854   -7.6538 C   0  0  2  0  0  0  0  0  0  0  0  0
   26.1294  -20.4368   -9.0499 N   0  0  0  0  0  0  0  0  0  0  0  0
   24.8703  -20.9850   -7.0806 C   0  0  0  0  0  0  0  0  0  0  0  0
   24.7668  -21.4596   -5.9281 O   0  0  0  0  0  0  0  0  0  0  0  0
   23.7141  -20.6672   -7.7684 O   0  0  0  0  0  0  0  0  0  0  0  0
  2  1  1  0
  3  2  1  0
  4  3  1  0
  5  4  1  0
  5  6  1  6
  7 15  1  0
  7  5  1  0
  8  7  2  0
 10 12  1  0
 10  9  1  0
 11 10  2  0
 13 12  1  0
 14 15  1  0
 14 13  1  6
 16 14  1  0
 17 16  2  0
 18 19  1  0
 20 19  1  0
 20 21  1  0
 22 21  1  1
 22 24  1  0
 22 23  1  0
 23 16  1  0
 24 26  1  0
 25 24  2  0
M  END
$$$$
