MQM.pdb
     RDKit          3D

 26 25  0  0  1  0  0  0  0  0999 V2000
   14.5324  -14.8782  -19.6975 C   0  0  0  0  0  0  0  0  0  0  0  0
   15.5085  -14.0197  -18.4202 S   0  0  0  0  0  0  0  0  0  0  0  0
   16.9761  -13.3631  -19.2238 C   0  0  0  0  0  0  0  0  0  0  0  0
   17.7938  -12.4747  -18.2771 C   0  0  0  0  0  0  0  0  0  0  0  0
   18.9726  -11.9989  -19.0611 C   0  0  2  0  0  0  0  0  0  0  0  0
   19.8844  -13.1150  -19.2171 N   0  0  0  0  0  0  0  0  0  0  0  0
   19.6981  -10.8710  -18.4566 C   0  0  0  0  0  0  0  0  0  0  0  0
   20.6350  -11.0802  -17.6499 O   0  0  0  0  0  0  0  0  0  0  0  0
   19.6101   -5.1380  -20.8579 N   0  0  0  0  0  0  0  0  0  0  0  0
   20.3574   -4.8885  -19.6871 C   0  0  0  0  0  0  0  0  0  0  0  0
   20.7844   -3.7241  -19.5048 O   0  0  0  0  0  0  0  0  0  0  0  0
   20.6337   -5.9762  -18.6918 C   0  0  0  0  0  0  0  0  0  0  0  0
   19.9307   -7.2166  -19.1815 C   0  0  0  0  0  0  0  0  0  0  0  0
   20.0854   -8.3741  -18.2672 C   0  0  2  0  0  0  0  0  0  0  0  0
   19.3667   -9.5267  -18.7616 N   0  0  0  0  0  0  0  0  0  0  0  0
   19.6851   -8.1298  -16.8559 C   0  0  0  0  0  0  0  0  0  0  0  0
   18.4555   -8.1340  -16.5812 O   0  0  0  0  0  0  0  0  0  0  0  0
   22.5242  -10.8944  -12.0434 C   0  0  0  0  0  0  0  0  0  0  0  0
   21.9324   -9.5117  -11.0688 S   0  0  0  0  0  0  0  0  0  0  0  0
   20.9828   -8.3096  -12.0538 C   0  0  0  0  0  0  0  0  0  0  0  0
   21.2664   -8.5196  -13.5140 C   0  0  0  0  0  0  0  0  0  0  0  0
   20.3631   -7.7096  -14.4277 C   0  0  2  0  0  0  0  0  0  0  0  0
   20.6281   -7.9004  -15.8322 N   0  0  0  0  0  0  0  0  0  0  0  0
   20.4762   -6.2760  -14.0708 C   0  0  0  0  0  0  0  0  0  0  0  0
   21.2989   -5.5633  -14.6867 O   0  0  0  0  0  0  0  0  0  0  0  0
   19.7077   -5.6907  -13.0822 O   0  0  0  0  0  0  0  0  0  0  0  0
  2  1  1  0
  3  2  1  0
  4  3  1  0
  5  4  1  0
  5  6  1  1
  7 15  1  0
  7  5  1  0
  8  7  2  0
 10 12  1  0
 10  9  1  0
 11 10  2  0
 13 12  1  0
 14 15  1  0
 14 13  1  6
 16 14  1  0
 17 16  2  0
 18 19  1  0
 20 19  1  0
 20 21  1  0
 22 21  1  1
 22 24  1  0
 22 23  1  0
 23 16  1  0
 24 26  1  0
 25 24  2  0
M  END
$$$$
