MQM.pdb
     RDKit          3D

 26 25  0  0  1  0  0  0  0  0999 V2000
   32.2480  -22.6469  -10.4907 C   0  0  0  0  0  0  0  0  0  0  0  0
   32.9180  -22.6701  -12.1853 S   0  0  0  0  0  0  0  0  0  0  0  0
   31.5909  -22.1693  -13.2892 C   0  0  0  0  0  0  0  0  0  0  0  0
   30.5478  -21.3046  -12.5692 C   0  0  0  0  0  0  0  0  0  0  0  0
   29.5216  -20.9450  -13.5930 C   0  0  2  0  0  0  0  0  0  0  0  0
   30.1387  -20.0435  -14.5457 N   0  0  0  0  0  0  0  0  0  0  0  0
   28.3095  -20.3107  -13.0519 C   0  0  0  0  0  0  0  0  0  0  0  0
   28.2859  -19.0769  -12.8297 O   0  0  0  0  0  0  0  0  0  0  0  0
   22.4387  -21.2937  -14.0024 N   0  0  0  0  0  0  0  0  0  0  0  0
   22.3280  -20.6443  -12.7544 C   0  0  0  0  0  0  0  0  0  0  0  0
   21.1802  -20.3307  -12.3599 O   0  0  0  0  0  0  0  0  0  0  0  0
   23.5396  -20.3376  -11.9248 C   0  0  0  0  0  0  0  0  0  0  0  0
   24.7429  -20.7987  -12.7071 C   0  0  0  0  0  0  0  0  0  0  0  0
   26.0233  -20.5766  -11.9922 C   0  0  2  0  0  0  0  0  0  0  0  0
   27.1424  -21.0634  -12.7670 N   0  0  0  0  0  0  0  0  0  0  0  0
   26.0993  -21.1569  -10.6251 C   0  0  0  0  0  0  0  0  0  0  0  0
   26.2183  -22.4068  -10.5195 O   0  0  0  0  0  0  0  0  0  0  0  0
   29.3253  -19.3503   -5.0872 C   0  0  0  0  0  0  0  0  0  0  0  0
   27.5980  -19.3179   -4.6105 S   0  0  0  0  0  0  0  0  0  0  0  0
   26.5509  -20.3534   -5.6822 C   0  0  0  0  0  0  0  0  0  0  0  0
   26.7671  -19.9705   -7.1185 C   0  0  0  0  0  0  0  0  0  0  0  0
   25.9669  -20.8139   -8.0959 C   0  0  2  0  0  0  0  0  0  0  0  0
   26.0460  -20.3602   -9.4623 N   0  0  0  0  0  0  0  0  0  0  0  0
   24.5551  -20.8618   -7.6485 C   0  0  0  0  0  0  0  0  0  0  0  0
   23.7060  -20.1708   -8.2532 O   0  0  0  0  0  0  0  0  0  0  0  0
   24.1351  -21.6412   -6.5871 O   0  0  0  0  0  0  0  0  0  0  0  0
  2  1  1  0
  3  2  1  0
  4  3  1  0
  5  4  1  0
  5  6  1  6
  7 15  1  0
  7  5  1  0
  8  7  2  0
 10 12  1  0
 10  9  1  0
 11 10  2  0
 13 12  1  0
 14 15  1  0
 14 13  1  6
 16 14  1  0
 17 16  2  0
 18 19  1  0
 20 19  1  0
 20 21  1  0
 22 21  1  1
 22 24  1  0
 22 23  1  0
 23 16  1  0
 24 26  1  0
 25 24  2  0
M  END
$$$$
