MQM.pdb
     RDKit          3D

 26 25  0  0  1  0  0  0  0  0999 V2000
   31.9436  -21.5351  -10.6870 C   0  0  0  0  0  0  0  0  0  0  0  0
   31.4043  -22.5839  -12.0763 S   0  0  0  0  0  0  0  0  0  0  0  0
   31.2898  -21.5286  -13.5267 C   0  0  0  0  0  0  0  0  0  0  0  0
   30.2870  -20.3857  -13.3211 C   0  0  0  0  0  0  0  0  0  0  0  0
   28.9426  -21.0240  -13.1957 C   0  0  2  0  0  0  0  0  0  0  0  0
   28.4315  -21.2539  -14.5325 N   0  0  0  0  0  0  0  0  0  0  0  0
   27.9574  -20.2381  -12.4369 C   0  0  0  0  0  0  0  0  0  0  0  0
   28.3316  -19.2940  -11.7013 O   0  0  0  0  0  0  0  0  0  0  0  0
   21.7440  -20.5611  -12.0042 N   0  0  0  0  0  0  0  0  0  0  0  0
   22.4970  -21.3187  -12.9265 C   0  0  0  0  0  0  0  0  0  0  0  0
   21.9274  -22.2806  -13.4937 O   0  0  0  0  0  0  0  0  0  0  0  0
   23.9301  -20.9880  -13.2214 C   0  0  0  0  0  0  0  0  0  0  0  0
   24.2783  -19.7615  -12.4170 C   0  0  0  0  0  0  0  0  0  0  0  0
   25.5627  -19.8886  -11.6862 C   0  0  2  0  0  0  0  0  0  0  0  0
   26.5696  -20.5181  -12.5105 N   0  0  0  0  0  0  0  0  0  0  0  0
   25.4887  -20.6091  -10.3873 C   0  0  0  0  0  0  0  0  0  0  0  0
   24.8523  -21.6959  -10.3499 O   0  0  0  0  0  0  0  0  0  0  0  0
   28.9022  -18.4318   -5.1747 C   0  0  0  0  0  0  0  0  0  0  0  0
   27.8027  -19.5693   -4.3327 S   0  0  0  0  0  0  0  0  0  0  0  0
   26.7747  -20.5381   -5.4824 C   0  0  0  0  0  0  0  0  0  0  0  0
   26.8282  -19.9182   -6.8497 C   0  0  0  0  0  0  0  0  0  0  0  0
   26.0086  -20.6678   -7.8857 C   0  0  2  0  0  0  0  0  0  0  0  0
   26.1036  -20.1196   -9.2160 N   0  0  0  0  0  0  0  0  0  0  0  0
   24.5948  -20.7098   -7.4442 C   0  0  0  0  0  0  0  0  0  0  0  0
   24.2872  -21.4318   -6.4705 O   0  0  0  0  0  0  0  0  0  0  0  0
   23.5976  -19.9816   -8.0654 O   0  0  0  0  0  0  0  0  0  0  0  0
  2  1  1  0
  3  2  1  0
  4  3  1  0
  5  4  1  0
  5  6  1  6
  7 15  1  0
  7  5  1  0
  8  7  2  0
 10 12  1  0
 10  9  1  0
 11 10  2  0
 13 12  1  0
 14 15  1  0
 14 13  1  6
 16 14  1  0
 17 16  2  0
 18 19  1  0
 20 19  1  0
 20 21  1  0
 22 21  1  1
 22 24  1  0
 22 23  1  0
 23 16  1  0
 24 26  1  0
 25 24  2  0
M  END
$$$$
