MQM.pdb
     RDKit          3D

 26 25  0  0  1  0  0  0  0  0999 V2000
   27.4589  -14.2669  -17.1910 C   0  0  0  0  0  0  0  0  0  0  0  0
   28.6879  -15.5191  -17.6839 S   0  0  0  0  0  0  0  0  0  0  0  0
   27.9993  -17.1290  -17.2785 C   0  0  0  0  0  0  0  0  0  0  0  0
   27.0495  -17.0552  -16.0757 C   0  0  0  0  0  0  0  0  0  0  0  0
   27.3658  -18.2360  -15.2178 C   0  0  2  0  0  0  0  0  0  0  0  0
   27.2554  -19.4259  -16.0383 N   0  0  0  0  0  0  0  0  0  0  0  0
   26.5003  -18.3880  -14.0380 C   0  0  0  0  0  0  0  0  0  0  0  0
   26.3749  -17.4466  -13.2192 O   0  0  0  0  0  0  0  0  0  0  0  0
   21.2716  -21.3931  -14.0953 N   0  0  0  0  0  0  0  0  0  0  0  0
   21.3957  -21.2809  -12.6940 C   0  0  0  0  0  0  0  0  0  0  0  0
   20.4156  -21.6255  -11.9924 O   0  0  0  0  0  0  0  0  0  0  0  0
   22.6551  -20.7675  -12.0612 C   0  0  0  0  0  0  0  0  0  0  0  0
   23.6013  -20.4106  -13.1793 C   0  0  0  0  0  0  0  0  0  0  0  0
   24.8546  -19.7768  -12.7025 C   0  0  2  0  0  0  0  0  0  0  0  0
   25.7882  -19.5885  -13.7900 N   0  0  0  0  0  0  0  0  0  0  0  0
   25.5473  -20.4875  -11.5949 C   0  0  0  0  0  0  0  0  0  0  0  0
   26.1349  -21.5693  -11.8632 O   0  0  0  0  0  0  0  0  0  0  0  0
   28.9486  -18.1164   -6.7121 C   0  0  0  0  0  0  0  0  0  0  0  0
   28.1553  -19.4384   -5.7984 S   0  0  0  0  0  0  0  0  0  0  0  0
   27.1908  -20.5543   -6.8669 C   0  0  0  0  0  0  0  0  0  0  0  0
   26.8018  -19.8336   -8.1262 C   0  0  0  0  0  0  0  0  0  0  0  0
   25.9924  -20.6881   -9.0862 C   0  0  2  0  0  0  0  0  0  0  0  0
   25.5674  -19.9910  -10.2748 N   0  0  0  0  0  0  0  0  0  0  0  0
   24.8223  -21.2447   -8.3676 C   0  0  0  0  0  0  0  0  0  0  0  0
   23.6889  -20.7697   -8.5996 O   0  0  0  0  0  0  0  0  0  0  0  0
   24.9308  -22.2712   -7.4483 O   0  0  0  0  0  0  0  0  0  0  0  0
  2  1  1  0
  3  2  1  0
  4  3  1  0
  5  4  1  0
  5  6  1  6
  7 15  1  0
  7  5  1  0
  8  7  2  0
 10 12  1  0
 10  9  1  0
 11 10  2  0
 13 12  1  0
 14 15  1  0
 14 13  1  6
 16 14  1  0
 17 16  2  0
 18 19  1  0
 20 19  1  0
 20 21  1  0
 22 21  1  1
 22 24  1  0
 22 23  1  0
 23 16  1  0
 24 26  1  0
 25 24  2  0
M  END
$$$$
