MQM.pdb
     RDKit          3D

 26 25  0  0  1  0  0  0  0  0999 V2000
   29.3829  -18.1874   -5.1684 C   0  0  0  0  0  0  0  0  0  0  0  0
   27.8956  -19.1900   -5.4905 S   0  0  0  0  0  0  0  0  0  0  0  0
   28.2392  -20.2031   -6.9349 C   0  0  0  0  0  0  0  0  0  0  0  0
   27.6661  -19.5815   -8.2152 C   0  0  0  0  0  0  0  0  0  0  0  0
   26.5688  -20.4880   -8.6674 C   0  0  2  0  0  0  0  0  0  0  0  0
   27.1424  -21.7973   -8.9083 N   0  0  0  0  0  0  0  0  0  0  0  0
   25.8661  -20.0445   -9.8813 C   0  0  0  0  0  0  0  0  0  0  0  0
   25.3614  -18.8980   -9.9376 O   0  0  0  0  0  0  0  0  0  0  0  0
   27.5313  -21.6954  -15.4636 N   0  0  0  0  0  0  0  0  0  0  0  0
   26.5458  -20.7297  -15.7597 C   0  0  0  0  0  0  0  0  0  0  0  0
   26.4609  -20.3272  -16.9439 O   0  0  0  0  0  0  0  0  0  0  0  0
   25.6290  -20.2000  -14.6972 C   0  0  0  0  0  0  0  0  0  0  0  0
   25.9673  -20.9214  -13.4174 C   0  0  0  0  0  0  0  0  0  0  0  0
   25.1371  -20.4888  -12.2671 C   0  0  2  0  0  0  0  0  0  0  0  0
   25.7372  -20.8875  -11.0139 N   0  0  0  0  0  0  0  0  0  0  0  0
   23.7243  -20.9527  -12.2901 C   0  0  0  0  0  0  0  0  0  0  0  0
   23.4850  -22.1360  -11.9294 O   0  0  0  0  0  0  0  0  0  0  0  0
   16.6406  -20.4832  -10.9535 C   0  0  0  0  0  0  0  0  0  0  0  0
   18.3259  -19.8806  -11.0463 S   0  0  0  0  0  0  0  0  0  0  0  0
   18.8810  -19.5989  -12.7579 C   0  0  0  0  0  0  0  0  0  0  0  0
   20.3398  -19.2407  -12.7613 C   0  0  0  0  0  0  0  0  0  0  0  0
   21.2591  -20.4495  -12.7390 C   0  0  2  0  0  0  0  0  0  0  0  0
   22.6617  -20.1179  -12.6947 N   0  0  0  0  0  0  0  0  0  0  0  0
   20.9665  -21.3001  -13.9164 C   0  0  0  0  0  0  0  0  0  0  0  0
   21.6050  -21.1076  -14.9744 O   0  0  0  0  0  0  0  0  0  0  0  0
   20.0140  -22.3015  -13.8948 O   0  0  0  0  0  0  0  0  0  0  0  0
  2  1  1  0
  3  2  1  0
  4  3  1  0
  5  4  1  0
  5  6  1  6
  7 15  1  0
  7  5  1  0
  8  7  2  0
 10 12  1  0
 10  9  1  0
 11 10  2  0
 13 12  1  0
 14 15  1  0
 14 13  1  6
 16 14  1  0
 17 16  2  0
 18 19  1  0
 20 19  1  0
 20 21  1  0
 22 21  1  6
 22 24  1  0
 22 23  1  0
 23 16  1  0
 24 26  1  0
 25 24  2  0
M  END
$$$$
