HSK.pdb
     RDKit          3D

 26 26  0  0  1  0  0  0  0  0999 V2000
   12.8917  -19.4252   18.6707 N   0  0  0  0  0  0  0  0  0  0  0  0
   13.2497  -18.0757   19.0070 C   0  0  1  0  0  0  0  0  0  0  0  0
   13.1019  -17.2460   17.7259 C   0  0  0  0  0  0  0  0  0  0  0  0
   14.1187  -17.6680   16.7009 C   0  0  0  0  0  0  0  0  0  0  0  0
   15.4724  -17.6824   16.8991 C   0  0  0  0  0  0  0  0  0  0  0  0
   16.0414  -18.1168   15.7662 N   0  0  0  0  0  0  0  0  0  0  0  0
   15.0546  -18.3646   14.8880 C   0  0  0  0  0  0  0  0  0  0  0  0
   13.8767  -18.0896   15.4612 N   0  0  0  0  0  0  0  0  0  0  0  0
   12.3095  -17.4683   19.9823 C   0  0  0  0  0  0  0  0  0  0  0  0
   12.4206  -16.2459   20.3320 O   0  0  0  0  0  0  0  0  0  0  0  0
    9.2596  -19.7161   21.9262 O   0  0  0  0  0  0  0  0  0  0  0  0
    9.0175  -18.3737   21.5864 C   0  0  0  0  0  0  0  0  0  0  0  0
   10.3344  -17.6085   21.5426 C   0  0  2  0  0  0  0  0  0  0  0  0
   11.2429  -18.1864   20.5833 N   0  0  0  0  0  0  0  0  0  0  0  0
   10.9265  -17.4735   22.8883 C   0  0  0  0  0  0  0  0  0  0  0  0
   11.9051  -18.2417   23.1529 O   0  0  0  0  0  0  0  0  0  0  0  0
   10.4801  -16.5745   23.8531 N   0  0  0  0  0  0  0  0  0  0  0  0
   11.0048  -16.5219   25.2365 C   0  0  1  0  0  0  0  0  0  0  0  0
   10.2701  -15.4869   26.0261 C   0  0  0  0  0  0  0  0  0  0  0  0
   10.7379  -15.4101   27.4510 C   0  0  0  0  0  0  0  0  0  0  0  0
   10.0445  -14.3032   28.2163 C   0  0  0  0  0  0  0  0  0  0  0  0
   10.5390  -14.2482   29.6575 C   0  0  0  0  0  0  0  0  0  0  0  0
    9.9698  -13.1292   30.3715 N   0  0  0  0  0  0  0  0  0  0  0  0
   10.9592  -17.8878   25.8128 C   0  0  0  0  0  0  0  0  0  0  0  0
    9.8356  -18.7023   25.6312 O   0  0  0  0  0  0  0  0  0  0  0  0
   11.8901  -18.3929   26.4807 O   0  0  0  0  0  0  0  0  0  0  0  0
  2  1  1  6
  2  9  1  0
  3  4  1  0
  3  2  1  0
  4  5  2  0
  4  8  1  0
  5  6  1  0
  6  7  1  0
  8  7  2  0
  9 10  2  0
 13 12  1  1
 12 11  1  0
 13 15  1  0
 14  9  1  0
 14 13  1  0
 15 16  2  0
 17 15  1  0
 17 18  1  0
 18 24  1  0
 18 19  1  1
 20 19  1  0
 21 22  1  0
 21 20  1  0
 22 23  1  0
 24 25  1  0
 26 24  2  0
M  END
$$$$
