HSK.pdb
     RDKit          3D

 26 26  0  0  1  0  0  0  0  0999 V2000
   11.4477  -17.3696   16.7613 N   0  0  0  0  0  0  0  0  0  0  0  0
   12.1714  -17.6424   17.9713 C   0  0  1  0  0  0  0  0  0  0  0  0
   13.2917  -16.5992   18.0620 C   0  0  0  0  0  0  0  0  0  0  0  0
   14.4879  -17.0350   17.2609 C   0  0  0  0  0  0  0  0  0  0  0  0
   14.8122  -16.5653   16.0174 C   0  0  0  0  0  0  0  0  0  0  0  0
   15.9373  -17.1838   15.6333 N   0  0  0  0  0  0  0  0  0  0  0  0
   16.2972  -18.0185   16.6233 C   0  0  0  0  0  0  0  0  0  0  0  0
   15.4089  -17.9270   17.6204 N   0  0  0  0  0  0  0  0  0  0  0  0
   11.3409  -17.4375   19.1847 C   0  0  0  0  0  0  0  0  0  0  0  0
   10.4040  -16.5709   19.2039 O   0  0  0  0  0  0  0  0  0  0  0  0
   11.1164  -20.3109   22.2083 O   0  0  0  0  0  0  0  0  0  0  0  0
   10.0742  -19.4129   21.9192 C   0  0  0  0  0  0  0  0  0  0  0  0
   10.6548  -18.0591   21.5295 C   0  0  2  0  0  0  0  0  0  0  0  0
   11.5240  -18.1734   20.3843 N   0  0  0  0  0  0  0  0  0  0  0  0
   11.3013  -17.3964   22.6796 C   0  0  0  0  0  0  0  0  0  0  0  0
   12.5731  -17.4017   22.6910 O   0  0  0  0  0  0  0  0  0  0  0  0
   10.6087  -16.7848   23.7211 N   0  0  0  0  0  0  0  0  0  0  0  0
   11.2573  -16.2452   24.9376 C   0  0  1  0  0  0  0  0  0  0  0  0
   10.2255  -15.6998   25.8715 C   0  0  0  0  0  0  0  0  0  0  0  0
   10.8146  -15.2321   27.1712 C   0  0  0  0  0  0  0  0  0  0  0  0
    9.7574  -14.6954   28.1123 C   0  0  0  0  0  0  0  0  0  0  0  0
   10.3784  -14.2638   29.4362 C   0  0  0  0  0  0  0  0  0  0  0  0
    9.4022  -13.6482   30.3046 N   0  0  0  0  0  0  0  0  0  0  0  0
   12.1237  -17.2989   25.5197 C   0  0  0  0  0  0  0  0  0  0  0  0
   11.6577  -18.6115   25.6568 O   0  0  0  0  0  0  0  0  0  0  0  0
   13.2938  -17.0970   25.9171 O   0  0  0  0  0  0  0  0  0  0  0  0
  2  1  1  6
  2  9  1  0
  3  4  1  0
  3  2  1  0
  4  5  2  0
  4  8  1  0
  5  6  1  0
  6  7  1  0
  8  7  2  0
  9 10  2  0
 13 12  1  1
 12 11  1  0
 13 15  1  0
 14  9  1  0
 14 13  1  0
 15 16  2  0
 17 15  1  0
 17 18  1  0
 18 24  1  0
 18 19  1  1
 20 19  1  0
 21 22  1  0
 21 20  1  0
 22 23  1  0
 24 25  1  0
 26 24  2  0
M  END
$$$$
