HSK.pdb
     RDKit          3D

 26 26  0  0  1  0  0  0  0  0999 V2000
   11.2697  -13.8530   20.0926 N   0  0  0  0  0  0  0  0  0  0  0  0
    9.9573  -14.0450   20.6430 C   0  0  1  0  0  0  0  0  0  0  0  0
    9.3338  -15.2313   19.8977 C   0  0  0  0  0  0  0  0  0  0  0  0
    8.9116  -14.8242   18.5125 C   0  0  0  0  0  0  0  0  0  0  0  0
    9.0959  -13.5817   17.9700 C   0  0  0  0  0  0  0  0  0  0  0  0
    8.5942  -13.6055   16.7276 N   0  0  0  0  0  0  0  0  0  0  0  0
    8.1103  -14.8406   16.5112 C   0  0  0  0  0  0  0  0  0  0  0  0
    8.3051  -15.5870   17.6050 N   0  0  0  0  0  0  0  0  0  0  0  0
    9.9972  -14.4515   22.0703 C   0  0  0  0  0  0  0  0  0  0  0  0
   11.0251  -15.0245   22.5643 O   0  0  0  0  0  0  0  0  0  0  0  0
    6.5825  -14.6262   24.5920 O   0  0  0  0  0  0  0  0  0  0  0  0
    7.7527  -14.0470   25.1128 C   0  0  0  0  0  0  0  0  0  0  0  0
    8.9684  -14.5847   24.3680 C   0  0  2  0  0  0  0  0  0  0  0  0
    8.9198  -14.2374   22.9690 N   0  0  0  0  0  0  0  0  0  0  0  0
    9.1460  -16.0325   24.5964 C   0  0  0  0  0  0  0  0  0  0  0  0
    8.8378  -16.7976   23.6282 O   0  0  0  0  0  0  0  0  0  0  0  0
    9.6195  -16.5851   25.7832 N   0  0  0  0  0  0  0  0  0  0  0  0
   10.0241  -18.0018   25.9292 C   0  0  1  0  0  0  0  0  0  0  0  0
   11.0578  -18.3492   24.9069 C   0  0  0  0  0  0  0  0  0  0  0  0
   11.4832  -19.7874   24.9836 C   0  0  0  0  0  0  0  0  0  0  0  0
   12.5177  -20.1294   23.9327 C   0  0  0  0  0  0  0  0  0  0  0  0
   12.9430  -21.5892   24.0453 C   0  0  0  0  0  0  0  0  0  0  0  0
   13.8045  -21.9767   22.9528 N   0  0  0  0  0  0  0  0  0  0  0  0
   10.4405  -18.2333   27.3339 C   0  0  0  0  0  0  0  0  0  0  0  0
   10.5944  -17.1603   28.2191 O   0  0  0  0  0  0  0  0  0  0  0  0
   10.6766  -19.3662   27.8120 O   0  0  0  0  0  0  0  0  0  0  0  0
  2  1  1  6
  2  9  1  0
  3  4  1  0
  3  2  1  0
  4  5  2  0
  4  8  1  0
  5  6  1  0
  6  7  1  0
  8  7  2  0
  9 10  2  0
 13 12  1  1
 12 11  1  0
 13 15  1  0
 14  9  1  0
 14 13  1  0
 15 16  2  0
 17 15  1  0
 17 18  1  0
 18 24  1  0
 18 19  1  6
 20 19  1  0
 21 22  1  0
 21 20  1  0
 22 23  1  0
 24 25  1  0
 26 24  2  0
M  END
$$$$
