HSK.pdb
     RDKit          3D

 26 26  0  0  1  0  0  0  0  0999 V2000
    8.2973  -16.9407   19.5395 N   0  0  0  0  0  0  0  0  0  0  0  0
    9.2816  -16.5822   20.5218 C   0  0  1  0  0  0  0  0  0  0  0  0
    8.6357  -15.5314   21.4328 C   0  0  0  0  0  0  0  0  0  0  0  0
    8.4781  -14.2242   20.7055 C   0  0  0  0  0  0  0  0  0  0  0  0
    8.8126  -14.0102   19.3962 C   0  0  0  0  0  0  0  0  0  0  0  0
    8.5274  -12.7322   19.1106 N   0  0  0  0  0  0  0  0  0  0  0  0
    8.0268  -12.1716   20.2249 C   0  0  0  0  0  0  0  0  0  0  0  0
    7.9967  -13.0861   21.2018 N   0  0  0  0  0  0  0  0  0  0  0  0
    9.6302  -17.7175   21.4126 C   0  0  0  0  0  0  0  0  0  0  0  0
    8.7232  -18.4372   21.9494 O   0  0  0  0  0  0  0  0  0  0  0  0
   13.3941  -19.3444   21.2586 O   0  0  0  0  0  0  0  0  0  0  0  0
   12.3036  -20.1278   21.6748 C   0  0  0  0  0  0  0  0  0  0  0  0
   11.3212  -19.2668   22.4593 C   0  0  2  0  0  0  0  0  0  0  0  0
   10.9672  -18.0771   21.7251 N   0  0  0  0  0  0  0  0  0  0  0  0
   11.8206  -18.9780   23.8183 C   0  0  0  0  0  0  0  0  0  0  0  0
   12.3744  -17.8454   23.9862 O   0  0  0  0  0  0  0  0  0  0  0  0
   11.7188  -19.8576   24.8927 N   0  0  0  0  0  0  0  0  0  0  0  0
   12.2860  -19.5899   26.2338 C   0  0  1  0  0  0  0  0  0  0  0  0
   11.7040  -20.5341   27.2359 C   0  0  0  0  0  0  0  0  0  0  0  0
   12.2661  -20.3303   28.6135 C   0  0  0  0  0  0  0  0  0  0  0  0
   11.7594  -21.3684   29.5918 C   0  0  0  0  0  0  0  0  0  0  0  0
   12.3171  -21.1156   30.9881 C   0  0  0  0  0  0  0  0  0  0  0  0
   11.9655  -22.1786   31.9005 N   0  0  0  0  0  0  0  0  0  0  0  0
   13.7657  -19.6240   26.1379 C   0  0  0  0  0  0  0  0  0  0  0  0
   14.5447  -18.6461   26.7667 O   0  0  0  0  0  0  0  0  0  0  0  0
   14.4024  -20.4996   25.5087 O   0  0  0  0  0  0  0  0  0  0  0  0
  2  1  1  6
  2  9  1  0
  3  4  1  0
  3  2  1  0
  4  5  2  0
  4  8  1  0
  5  6  1  0
  6  7  1  0
  8  7  2  0
  9 10  2  0
 13 12  1  6
 12 11  1  0
 13 15  1  0
 14  9  1  0
 14 13  1  0
 15 16  2  0
 17 15  1  0
 17 18  1  0
 18 24  1  0
 18 19  1  1
 20 19  1  0
 21 22  1  0
 21 20  1  0
 22 23  1  0
 24 25  1  0
 26 24  2  0
M  END
$$$$
