HSK.pdb
     RDKit          3D

 26 26  0  0  1  0  0  0  0  0999 V2000
    9.4535  -15.9853   17.0065 N   0  0  0  0  0  0  0  0  0  0  0  0
    8.7472  -15.0778   17.8667 C   0  0  1  0  0  0  0  0  0  0  0  0
    7.3305  -14.9391   17.2965 C   0  0  0  0  0  0  0  0  0  0  0  0
    7.3704  -14.3371   15.9186 C   0  0  0  0  0  0  0  0  0  0  0  0
    8.5108  -14.0844   15.2060 C   0  0  0  0  0  0  0  0  0  0  0  0
    8.1435  -13.5528   14.0320 N   0  0  0  0  0  0  0  0  0  0  0  0
    6.8015  -13.4802   14.0239 C   0  0  0  0  0  0  0  0  0  0  0  0
    6.3282  -13.9610   15.1800 N   0  0  0  0  0  0  0  0  0  0  0  0
    8.5706  -15.6206   19.2372 C   0  0  0  0  0  0  0  0  0  0  0  0
    7.9271  -14.9695   20.1265 O   0  0  0  0  0  0  0  0  0  0  0  0
   10.1128  -19.4143   20.4122 O   0  0  0  0  0  0  0  0  0  0  0  0
    8.8853  -18.9559   20.9213 C   0  0  0  0  0  0  0  0  0  0  0  0
    8.8818  -17.4327   20.9620 C   0  0  2  0  0  0  0  0  0  0  0  0
    9.0926  -16.8745   19.6490 N   0  0  0  0  0  0  0  0  0  0  0  0
    9.8320  -16.9163   21.9670 C   0  0  0  0  0  0  0  0  0  0  0  0
   10.9867  -16.5976   21.5393 O   0  0  0  0  0  0  0  0  0  0  0  0
    9.5359  -16.7655   23.3190 N   0  0  0  0  0  0  0  0  0  0  0  0
   10.5033  -16.2710   24.3247 C   0  0  1  0  0  0  0  0  0  0  0  0
    9.7776  -15.6440   25.4713 C   0  0  0  0  0  0  0  0  0  0  0  0
   10.7043  -15.2038   26.5680 C   0  0  0  0  0  0  0  0  0  0  0  0
    9.9543  -14.5963   27.7341 C   0  0  0  0  0  0  0  0  0  0  0  0
   10.9234  -14.0445   28.7739 C   0  0  0  0  0  0  0  0  0  0  0  0
   10.2306  -13.3170   29.8116 N   0  0  0  0  0  0  0  0  0  0  0  0
   11.4081  -17.3848   24.6996 C   0  0  0  0  0  0  0  0  0  0  0  0
   12.7603  -17.1461   24.9705 O   0  0  0  0  0  0  0  0  0  0  0  0
   11.0402  -18.5778   24.7968 O   0  0  0  0  0  0  0  0  0  0  0  0
  2  1  1  6
  2  9  1  0
  3  4  1  0
  3  2  1  0
  4  5  2  0
  4  8  1  0
  5  6  1  0
  6  7  1  0
  8  7  2  0
  9 10  2  0
 13 12  1  6
 12 11  1  0
 13 15  1  0
 14  9  1  0
 14 13  1  0
 15 16  2  0
 17 15  1  0
 17 18  1  0
 18 24  1  0
 18 19  1  1
 20 19  1  0
 21 22  1  0
 21 20  1  0
 22 23  1  0
 24 25  1  0
 26 24  2  0
M  END
$$$$
