HSK.pdb
     RDKit          3D

 26 26  0  0  1  0  0  0  0  0999 V2000
    8.7387  -18.4276   16.6638 N   0  0  0  0  0  0  0  0  0  0  0  0
    8.8305  -17.0917   17.1827 C   0  0  1  0  0  0  0  0  0  0  0  0
    7.9439  -16.2100   16.2949 C   0  0  0  0  0  0  0  0  0  0  0  0
    8.5612  -16.0376   14.9341 C   0  0  0  0  0  0  0  0  0  0  0  0
    9.7816  -16.5294   14.5587 C   0  0  0  0  0  0  0  0  0  0  0  0
    9.9834  -16.1763   13.2818 N   0  0  0  0  0  0  0  0  0  0  0  0
    8.9062  -15.4799   12.8805 C   0  0  0  0  0  0  0  0  0  0  0  0
    8.0350  -15.3953   13.8931 N   0  0  0  0  0  0  0  0  0  0  0  0
    8.2615  -16.9761   18.5490 C   0  0  0  0  0  0  0  0  0  0  0  0
    7.0415  -17.2693   18.7823 O   0  0  0  0  0  0  0  0  0  0  0  0
    9.4362  -18.8732   21.4579 O   0  0  0  0  0  0  0  0  0  0  0  0
    8.2454  -18.1321   21.3636 C   0  0  0  0  0  0  0  0  0  0  0  0
    8.5678  -16.6799   21.0338 C   0  0  2  0  0  0  0  0  0  0  0  0
    9.0156  -16.5409   19.6699 N   0  0  0  0  0  0  0  0  0  0  0  0
    9.5096  -16.0994   22.0114 C   0  0  0  0  0  0  0  0  0  0  0  0
   10.4157  -16.8763   22.4507 O   0  0  0  0  0  0  0  0  0  0  0  0
    9.4564  -14.7834   22.4629 N   0  0  0  0  0  0  0  0  0  0  0  0
    9.1702  -14.4039   23.8650 C   0  0  1  0  0  0  0  0  0  0  0  0
    7.7502  -13.9561   23.9969 C   0  0  0  0  0  0  0  0  0  0  0  0
    7.3195  -13.8209   25.4291 C   0  0  0  0  0  0  0  0  0  0  0  0
    6.7596  -12.4460   25.7253 C   0  0  0  0  0  0  0  0  0  0  0  0
    6.3462  -12.3325   27.1885 C   0  0  0  0  0  0  0  0  0  0  0  0
    5.9128  -10.9941   27.5152 N   0  0  0  0  0  0  0  0  0  0  0  0
    9.5472  -15.5343   24.7483 C   0  0  0  0  0  0  0  0  0  0  0  0
    8.9142  -16.7766   24.6277 O   0  0  0  0  0  0  0  0  0  0  0  0
   10.4281  -15.4607   25.6351 O   0  0  0  0  0  0  0  0  0  0  0  0
  2  1  1  6
  2  9  1  0
  3  4  1  0
  3  2  1  0
  4  5  2  0
  4  8  1  0
  5  6  1  0
  6  7  1  0
  8  7  2  0
  9 10  2  0
 13 12  1  1
 12 11  1  0
 13 15  1  0
 14  9  1  0
 14 13  1  0
 15 16  2  0
 17 15  1  0
 17 18  1  0
 18 24  1  0
 18 19  1  6
 20 19  1  0
 21 22  1  0
 21 20  1  0
 22 23  1  0
 24 25  1  0
 26 24  2  0
M  END
$$$$
