HSK.pdb
     RDKit          3D

 26 26  0  0  1  0  0  0  0  0999 V2000
    9.8079  -15.9157   17.5477 N   0  0  0  0  0  0  0  0  0  0  0  0
   10.8518  -15.9148   18.5340 C   0  0  1  0  0  0  0  0  0  0  0  0
   11.1921  -14.4466   18.8171 C   0  0  0  0  0  0  0  0  0  0  0  0
    9.9382  -13.6437   19.0311 C   0  0  0  0  0  0  0  0  0  0  0  0
    8.6653  -14.1331   18.9204 C   0  0  0  0  0  0  0  0  0  0  0  0
    7.8215  -13.1259   19.1839 N   0  0  0  0  0  0  0  0  0  0  0  0
    8.5631  -12.0374   19.4514 C   0  0  0  0  0  0  0  0  0  0  0  0
    9.8600  -12.3551   19.3577 N   0  0  0  0  0  0  0  0  0  0  0  0
   10.4018  -16.4742   19.8334 C   0  0  0  0  0  0  0  0  0  0  0  0
    9.1770  -16.4165   20.1875 O   0  0  0  0  0  0  0  0  0  0  0  0
   12.4260  -19.5019   21.6983 O   0  0  0  0  0  0  0  0  0  0  0  0
   11.0669  -19.2333   21.9371 C   0  0  0  0  0  0  0  0  0  0  0  0
   10.8393  -17.7272   21.9767 C   0  0  2  0  0  0  0  0  0  0  0  0
   11.2808  -17.0998   20.7555 N   0  0  0  0  0  0  0  0  0  0  0  0
   11.4356  -17.1216   23.1840 C   0  0  0  0  0  0  0  0  0  0  0  0
   12.6560  -16.7742   23.0959 O   0  0  0  0  0  0  0  0  0  0  0  0
   10.7492  -16.9184   24.3781 N   0  0  0  0  0  0  0  0  0  0  0  0
   11.3837  -16.4192   25.6190 C   0  0  1  0  0  0  0  0  0  0  0  0
   10.3368  -16.0690   26.6268 C   0  0  0  0  0  0  0  0  0  0  0  0
   10.9230  -15.5887   27.9233 C   0  0  0  0  0  0  0  0  0  0  0  0
    9.8522  -15.2377   28.9341 C   0  0  0  0  0  0  0  0  0  0  0  0
   10.4746  -14.7160   30.2245 C   0  0  0  0  0  0  0  0  0  0  0  0
    9.4658  -14.3721   31.1990 N   0  0  0  0  0  0  0  0  0  0  0  0
   12.3760  -17.4207   26.0798 C   0  0  0  0  0  0  0  0  0  0  0  0
   12.0521  -18.7817   26.1178 O   0  0  0  0  0  0  0  0  0  0  0  0
   13.5346  -17.1305   26.4556 O   0  0  0  0  0  0  0  0  0  0  0  0
  2  1  1  6
  2  9  1  0
  3  4  1  0
  3  2  1  0
  4  5  2  0
  4  8  1  0
  5  6  1  0
  6  7  1  0
  8  7  2  0
  9 10  2  0
 13 12  1  6
 12 11  1  0
 13 15  1  0
 14  9  1  0
 14 13  1  0
 15 16  2  0
 17 15  1  0
 17 18  1  0
 18 24  1  0
 18 19  1  1
 20 19  1  0
 21 22  1  0
 21 20  1  0
 22 23  1  0
 24 25  1  0
 26 24  2  0
M  END
$$$$
