HSK.pdb
     RDKit          3D

 26 26  0  0  1  0  0  0  0  0999 V2000
    8.1065  -17.1302   18.8050 N   0  0  0  0  0  0  0  0  0  0  0  0
    8.8177  -16.5693   19.9194 C   0  0  1  0  0  0  0  0  0  0  0  0
    7.9128  -15.4888   20.5237 C   0  0  0  0  0  0  0  0  0  0  0  0
    7.9541  -14.2365   19.6915 C   0  0  0  0  0  0  0  0  0  0  0  0
    8.7060  -14.0712   18.5604 C   0  0  0  0  0  0  0  0  0  0  0  0
    8.4778  -12.8329   18.1016 N   0  0  0  0  0  0  0  0  0  0  0  0
    7.6014  -12.2483   18.9363 C   0  0  0  0  0  0  0  0  0  0  0  0
    7.2808  -13.1087   19.9102 N   0  0  0  0  0  0  0  0  0  0  0  0
    9.0345  -17.5570   21.0063 C   0  0  0  0  0  0  0  0  0  0  0  0
    8.2073  -18.5078   21.2079 O   0  0  0  0  0  0  0  0  0  0  0  0
   11.2517  -20.6595   23.4243 O   0  0  0  0  0  0  0  0  0  0  0  0
   11.0777  -19.7258   22.3879 C   0  0  0  0  0  0  0  0  0  0  0  0
   10.3798  -18.4831   22.9267 C   0  0  2  0  0  0  0  0  0  0  0  0
   10.1518  -17.5169   21.8805 N   0  0  0  0  0  0  0  0  0  0  0  0
   11.0991  -17.9184   24.0858 C   0  0  0  0  0  0  0  0  0  0  0  0
   12.2219  -17.3732   23.8410 O   0  0  0  0  0  0  0  0  0  0  0  0
   10.6239  -17.9523   25.3939 N   0  0  0  0  0  0  0  0  0  0  0  0
   11.3520  -17.3833   26.5506 C   0  0  1  0  0  0  0  0  0  0  0  0
   10.4422  -16.5083   27.3510 C   0  0  0  0  0  0  0  0  0  0  0  0
   11.1014  -15.9711   28.5888 C   0  0  0  0  0  0  0  0  0  0  0  0
   10.2273  -14.9639   29.3050 C   0  0  0  0  0  0  0  0  0  0  0  0
   10.9844  -14.3098   30.4555 C   0  0  0  0  0  0  0  0  0  0  0  0
   10.1955  -13.2821   31.0937 N   0  0  0  0  0  0  0  0  0  0  0  0
   11.9716  -18.4942   27.3135 C   0  0  0  0  0  0  0  0  0  0  0  0
   11.3260  -19.7309   27.4253 O   0  0  0  0  0  0  0  0  0  0  0  0
   13.0783  -18.4083   27.8929 O   0  0  0  0  0  0  0  0  0  0  0  0
  2  1  1  6
  2  9  1  0
  3  4  1  0
  3  2  1  0
  4  5  2  0
  4  8  1  0
  5  6  1  0
  6  7  1  0
  8  7  2  0
  9 10  2  0
 13 12  1  6
 12 11  1  0
 13 15  1  0
 14  9  1  0
 14 13  1  0
 15 16  2  0
 17 15  1  0
 17 18  1  0
 18 24  1  0
 18 19  1  1
 20 19  1  0
 21 22  1  0
 21 20  1  0
 22 23  1  0
 24 25  1  0
 26 24  2  0
M  END
$$$$
