HSK.pdb
     RDKit          3D

 26 26  0  0  1  0  0  0  0  0999 V2000
   11.1443  -14.0909   19.9686 N   0  0  0  0  0  0  0  0  0  0  0  0
    9.9429  -14.1883   20.7493 C   0  0  1  0  0  0  0  0  0  0  0  0
    9.0576  -15.2402   20.0702 C   0  0  0  0  0  0  0  0  0  0  0  0
    8.5427  -14.7290   18.7526 C   0  0  0  0  0  0  0  0  0  0  0  0
    8.4278  -13.4080   18.4150 C   0  0  0  0  0  0  0  0  0  0  0  0
    7.9372  -13.3512   17.1692 N   0  0  0  0  0  0  0  0  0  0  0  0
    7.7540  -14.6148   16.7495 C   0  0  0  0  0  0  0  0  0  0  0  0
    8.1252  -15.4586   17.7199 N   0  0  0  0  0  0  0  0  0  0  0  0
   10.1981  -14.7087   22.1161 C   0  0  0  0  0  0  0  0  0  0  0  0
   11.2497  -15.3822   22.3796 O   0  0  0  0  0  0  0  0  0  0  0  0
    7.2817  -14.7049   25.1829 O   0  0  0  0  0  0  0  0  0  0  0  0
    8.5931  -14.3457   25.5399 C   0  0  0  0  0  0  0  0  0  0  0  0
    9.5800  -14.9495   24.5482 C   0  0  2  0  0  0  0  0  0  0  0  0
    9.3113  -14.5001   23.2044 N   0  0  0  0  0  0  0  0  0  0  0  0
    9.6320  -16.4204   24.6644 C   0  0  0  0  0  0  0  0  0  0  0  0
    8.8766  -17.0747   23.8776 O   0  0  0  0  0  0  0  0  0  0  0  0
   10.4422  -17.1061   25.5654 N   0  0  0  0  0  0  0  0  0  0  0  0
   10.4337  -18.5777   25.7270 C   0  0  1  0  0  0  0  0  0  0  0  0
   11.3016  -19.2139   24.6895 C   0  0  0  0  0  0  0  0  0  0  0  0
   12.7570  -19.1833   25.0584 C   0  0  0  0  0  0  0  0  0  0  0  0
   13.6145  -19.9078   24.0429 C   0  0  0  0  0  0  0  0  0  0  0  0
   15.0665  -19.9685   24.5039 C   0  0  0  0  0  0  0  0  0  0  0  0
   15.8766  -20.7555   23.6039 N   0  0  0  0  0  0  0  0  0  0  0  0
   10.8022  -18.9028   27.1264 C   0  0  0  0  0  0  0  0  0  0  0  0
   10.8002  -20.2282   27.5759 O   0  0  0  0  0  0  0  0  0  0  0  0
   11.1298  -18.0445   27.9772 O   0  0  0  0  0  0  0  0  0  0  0  0
  2  1  1  6
  2  9  1  0
  3  4  1  0
  3  2  1  0
  4  5  2  0
  4  8  1  0
  5  6  1  0
  6  7  1  0
  8  7  2  0
  9 10  2  0
 13 12  1  1
 12 11  1  0
 13 15  1  0
 14  9  1  0
 14 13  1  0
 15 16  2  0
 17 15  1  0
 17 18  1  0
 18 24  1  0
 18 19  1  6
 20 19  1  0
 21 22  1  0
 21 20  1  0
 22 23  1  0
 24 25  1  0
 26 24  2  0
M  END
$$$$
