HSK.pdb
     RDKit          3D

 26 26  0  0  1  0  0  0  0  0999 V2000
    8.8983  -17.2192   18.1918 N   0  0  0  0  0  0  0  0  0  0  0  0
    9.1586  -16.1742   19.1418 C   0  0  1  0  0  0  0  0  0  0  0  0
    7.9961  -15.1798   19.0359 C   0  0  0  0  0  0  0  0  0  0  0  0
    7.9945  -14.5076   17.6903 C   0  0  0  0  0  0  0  0  0  0  0  0
    8.7103  -13.3853   17.3738 C   0  0  0  0  0  0  0  0  0  0  0  0
    8.4539  -13.0916   16.0916 N   0  0  0  0  0  0  0  0  0  0  0  0
    7.5959  -14.0171   15.6292 C   0  0  0  0  0  0  0  0  0  0  0  0
    7.3148  -14.8845   16.6091 N   0  0  0  0  0  0  0  0  0  0  0  0
    9.1330  -16.6651   20.5427 C   0  0  0  0  0  0  0  0  0  0  0  0
    8.0413  -17.0310   21.0934 O   0  0  0  0  0  0  0  0  0  0  0  0
   12.6734  -17.4105   22.7514 O   0  0  0  0  0  0  0  0  0  0  0  0
   11.4941  -18.1402   22.9817 C   0  0  0  0  0  0  0  0  0  0  0  0
   10.2818  -17.2589   22.7067 C   0  0  2  0  0  0  0  0  0  0  0  0
   10.2941  -16.7610   21.3532 N   0  0  0  0  0  0  0  0  0  0  0  0
   10.1526  -16.1871   23.7138 C   0  0  0  0  0  0  0  0  0  0  0  0
   10.7906  -15.1124   23.4778 O   0  0  0  0  0  0  0  0  0  0  0  0
    9.3903  -16.2914   24.8741 N   0  0  0  0  0  0  0  0  0  0  0  0
    9.3352  -15.2460   25.9210 C   0  0  1  0  0  0  0  0  0  0  0  0
    8.0619  -14.4713   25.8074 C   0  0  0  0  0  0  0  0  0  0  0  0
    7.9305  -13.4198   26.8715 C   0  0  0  0  0  0  0  0  0  0  0  0
    6.6367  -12.6441   26.7452 C   0  0  0  0  0  0  0  0  0  0  0  0
    6.5790  -11.5155   27.7688 C   0  0  0  0  0  0  0  0  0  0  0  0
    5.3062  -10.8336   27.7356 N   0  0  0  0  0  0  0  0  0  0  0  0
    9.5549  -15.8853   27.2411 C   0  0  0  0  0  0  0  0  0  0  0  0
    9.8811  -15.1142   28.3626 O   0  0  0  0  0  0  0  0  0  0  0  0
    9.4681  -17.1185   27.4403 O   0  0  0  0  0  0  0  0  0  0  0  0
  2  1  1  6
  2  9  1  0
  3  4  1  0
  3  2  1  0
  4  5  2  0
  4  8  1  0
  5  6  1  0
  6  7  1  0
  8  7  2  0
  9 10  2  0
 13 12  1  1
 12 11  1  0
 13 15  1  0
 14  9  1  0
 14 13  1  0
 15 16  2  0
 17 15  1  0
 17 18  1  0
 18 24  1  0
 18 19  1  1
 20 19  1  0
 21 22  1  0
 21 20  1  0
 22 23  1  0
 24 25  1  0
 26 24  2  0
M  END
$$$$
