HSK.pdb
     RDKit          3D

 26 26  0  0  1  0  0  0  0  0999 V2000
    9.8865  -16.0907   17.4889 N   0  0  0  0  0  0  0  0  0  0  0  0
    9.0499  -15.2322   18.2797 C   0  0  1  0  0  0  0  0  0  0  0  0
    7.6692  -15.2224   17.6125 C   0  0  0  0  0  0  0  0  0  0  0  0
    7.7455  -14.5991   16.2456 C   0  0  0  0  0  0  0  0  0  0  0  0
    7.8619  -15.2938   15.0725 C   0  0  0  0  0  0  0  0  0  0  0  0
    7.8972  -14.3989   14.0755 N   0  0  0  0  0  0  0  0  0  0  0  0
    7.8042  -13.1766   14.6268 C   0  0  0  0  0  0  0  0  0  0  0  0
    7.7112  -13.2998   15.9564 N   0  0  0  0  0  0  0  0  0  0  0  0
    8.8248  -15.7657   19.6467 C   0  0  0  0  0  0  0  0  0  0  0  0
    8.0851  -15.1469   20.4826 O   0  0  0  0  0  0  0  0  0  0  0  0
   10.5794  -19.3890   20.9418 O   0  0  0  0  0  0  0  0  0  0  0  0
    9.3228  -19.0220   21.4540 C   0  0  0  0  0  0  0  0  0  0  0  0
    9.1831  -17.5048   21.4363 C   0  0  2  0  0  0  0  0  0  0  0  0
    9.4028  -16.9753   20.1129 N   0  0  0  0  0  0  0  0  0  0  0  0
   10.0378  -16.8708   22.4597 C   0  0  0  0  0  0  0  0  0  0  0  0
   11.1741  -16.4560   22.0666 O   0  0  0  0  0  0  0  0  0  0  0  0
    9.6728  -16.7097   23.7936 N   0  0  0  0  0  0  0  0  0  0  0  0
   10.5753  -16.1703   24.8358 C   0  0  1  0  0  0  0  0  0  0  0  0
    9.7794  -15.6867   26.0051 C   0  0  0  0  0  0  0  0  0  0  0  0
   10.6464  -15.1930   27.1274 C   0  0  0  0  0  0  0  0  0  0  0  0
    9.8313  -14.7834   28.3354 C   0  0  0  0  0  0  0  0  0  0  0  0
   10.7283  -14.2051   29.4242 C   0  0  0  0  0  0  0  0  0  0  0  0
    9.9588  -13.7421   30.5553 N   0  0  0  0  0  0  0  0  0  0  0  0
   11.5913  -17.2004   25.1622 C   0  0  0  0  0  0  0  0  0  0  0  0
   11.2353  -18.5508   25.2538 O   0  0  0  0  0  0  0  0  0  0  0  0
   12.7989  -16.9448   25.3727 O   0  0  0  0  0  0  0  0  0  0  0  0
  2  1  1  6
  2  9  1  0
  3  4  1  0
  3  2  1  0
  4  5  2  0
  4  8  1  0
  5  6  1  0
  6  7  1  0
  8  7  2  0
  9 10  2  0
 13 12  1  6
 12 11  1  0
 13 15  1  0
 14  9  1  0
 14 13  1  0
 15 16  2  0
 17 15  1  0
 17 18  1  0
 18 24  1  0
 18 19  1  1
 20 19  1  0
 21 22  1  0
 21 20  1  0
 22 23  1  0
 24 25  1  0
 26 24  2  0
M  END
$$$$
