HSK.pdb
     RDKit          3D

 26 26  0  0  1  0  0  0  0  0999 V2000
    9.5679  -17.9201   17.1499 N   0  0  0  0  0  0  0  0  0  0  0  0
   10.8975  -17.8076   17.6808 C   0  0  1  0  0  0  0  0  0  0  0  0
   11.7079  -16.9824   16.6739 C   0  0  0  0  0  0  0  0  0  0  0  0
   11.5034  -17.5012   15.2769 C   0  0  0  0  0  0  0  0  0  0  0  0
   10.6238  -18.4896   14.9285 C   0  0  0  0  0  0  0  0  0  0  0  0
   10.7253  -18.6718   13.6047 N   0  0  0  0  0  0  0  0  0  0  0  0
   11.6509  -17.8106   13.1485 C   0  0  0  0  0  0  0  0  0  0  0  0
   12.1273  -17.0935   14.1734 N   0  0  0  0  0  0  0  0  0  0  0  0
   10.9363  -17.0349   18.9478 C   0  0  0  0  0  0  0  0  0  0  0  0
   12.0441  -16.7606   19.5193 O   0  0  0  0  0  0  0  0  0  0  0  0
    8.5095  -14.6243   22.4491 O   0  0  0  0  0  0  0  0  0  0  0  0
    8.4168  -15.3748   21.2640 C   0  0  0  0  0  0  0  0  0  0  0  0
    9.7846  -15.9434   20.9068 C   0  0  2  0  0  0  0  0  0  0  0  0
    9.7710  -16.5559   19.6011 N   0  0  0  0  0  0  0  0  0  0  0  0
   10.2874  -16.8460   21.9614 C   0  0  0  0  0  0  0  0  0  0  0  0
    9.7996  -18.0205   21.9775 O   0  0  0  0  0  0  0  0  0  0  0  0
   11.2402  -16.4861   22.9107 N   0  0  0  0  0  0  0  0  0  0  0  0
   11.6859  -17.3733   24.0088 C   0  0  1  0  0  0  0  0  0  0  0  0
   13.1757  -17.4955   23.9984 C   0  0  0  0  0  0  0  0  0  0  0  0
   13.6409  -18.8264   23.4812 C   0  0  0  0  0  0  0  0  0  0  0  0
   15.1508  -18.9335   23.4688 C   0  0  0  0  0  0  0  0  0  0  0  0
   15.5923  -20.3226   23.0215 C   0  0  0  0  0  0  0  0  0  0  0  0
   17.0273  -20.4709   23.0897 N   0  0  0  0  0  0  0  0  0  0  0  0
   11.1148  -16.8737   25.2832 C   0  0  0  0  0  0  0  0  0  0  0  0
   11.2149  -17.6308   26.4560 O   0  0  0  0  0  0  0  0  0  0  0  0
   10.5219  -15.7767   25.3974 O   0  0  0  0  0  0  0  0  0  0  0  0
  2  1  1  6
  2  9  1  0
  3  4  1  0
  3  2  1  0
  4  5  2  0
  4  8  1  0
  5  6  1  0
  6  7  1  0
  8  7  2  0
  9 10  2  0
 13 12  1  1
 12 11  1  0
 13 15  1  0
 14  9  1  0
 14 13  1  0
 15 16  2  0
 17 15  1  0
 17 18  1  0
 18 24  1  0
 18 19  1  1
 20 19  1  0
 21 22  1  0
 21 20  1  0
 22 23  1  0
 24 25  1  0
 26 24  2  0
M  END
$$$$
