HSK.pdb
     RDKit          3D

 26 26  0  0  1  0  0  0  0  0999 V2000
    9.6241  -13.7501   18.0685 N   0  0  0  0  0  0  0  0  0  0  0  0
   10.5816  -14.5696   18.7571 C   0  0  1  0  0  0  0  0  0  0  0  0
   11.6796  -13.6307   19.2712 C   0  0  0  0  0  0  0  0  0  0  0  0
   13.0391  -14.1375   18.8742 C   0  0  0  0  0  0  0  0  0  0  0  0
   13.2691  -15.2491   18.1102 C   0  0  0  0  0  0  0  0  0  0  0  0
   14.5960  -15.3751   17.9706 N   0  0  0  0  0  0  0  0  0  0  0  0
   15.1703  -14.3591   18.6371 C   0  0  0  0  0  0  0  0  0  0  0  0
   14.2160  -13.6010   19.1905 N   0  0  0  0  0  0  0  0  0  0  0  0
   10.0097  -15.2100   19.9683 C   0  0  0  0  0  0  0  0  0  0  0  0
    9.2390  -14.5640   20.7542 O   0  0  0  0  0  0  0  0  0  0  0  0
    8.8130  -19.2560   22.3411 O   0  0  0  0  0  0  0  0  0  0  0  0
    9.4922  -18.6882   21.2492 C   0  0  0  0  0  0  0  0  0  0  0  0
    9.6935  -17.1968   21.4875 C   0  0  2  0  0  0  0  0  0  0  0  0
   10.2723  -16.5564   20.3321 N   0  0  0  0  0  0  0  0  0  0  0  0
   10.4543  -16.9450   22.7275 C   0  0  0  0  0  0  0  0  0  0  0  0
   11.7196  -16.8902   22.6108 O   0  0  0  0  0  0  0  0  0  0  0  0
    9.8730  -16.7701   23.9804 N   0  0  0  0  0  0  0  0  0  0  0  0
   10.6427  -16.5010   25.2160 C   0  0  1  0  0  0  0  0  0  0  0  0
    9.7751  -15.8186   26.2239 C   0  0  0  0  0  0  0  0  0  0  0  0
   10.5086  -15.5023   27.4956 C   0  0  0  0  0  0  0  0  0  0  0  0
    9.6172  -14.8164   28.5086 C   0  0  0  0  0  0  0  0  0  0  0  0
   10.3939  -14.4851   29.7782 C   0  0  0  0  0  0  0  0  0  0  0  0
    9.5399  -13.9003   30.7854 N   0  0  0  0  0  0  0  0  0  0  0  0
   11.2508  -17.7712   25.6816 C   0  0  0  0  0  0  0  0  0  0  0  0
   12.5122  -17.7789   26.2879 O   0  0  0  0  0  0  0  0  0  0  0  0
   10.6988  -18.8894   25.5692 O   0  0  0  0  0  0  0  0  0  0  0  0
  2  1  1  1
  2  9  1  0
  3  4  1  0
  3  2  1  0
  4  5  2  0
  4  8  1  0
  5  6  1  0
  6  7  1  0
  8  7  2  0
  9 10  2  0
 13 12  1  6
 12 11  1  0
 13 15  1  0
 14  9  1  0
 14 13  1  0
 15 16  2  0
 17 15  1  0
 17 18  1  0
 18 24  1  0
 18 19  1  1
 20 19  1  0
 21 22  1  0
 21 20  1  0
 22 23  1  0
 24 25  1  0
 26 24  2  0
M  END
$$$$
