HSK.pdb
     RDKit          3D

 26 26  0  0  1  0  0  0  0  0999 V2000
    8.2983  -16.1387   19.2308 N   0  0  0  0  0  0  0  0  0  0  0  0
    9.2270  -15.1113   19.6109 C   0  0  1  0  0  0  0  0  0  0  0  0
    8.6738  -13.7899   19.0639 C   0  0  0  0  0  0  0  0  0  0  0  0
    8.5598  -13.8430   17.5650 C   0  0  0  0  0  0  0  0  0  0  0  0
    8.8592  -14.9330   16.7940 C   0  0  0  0  0  0  0  0  0  0  0  0
    8.6317  -14.5983   15.5165 N   0  0  0  0  0  0  0  0  0  0  0  0
    8.2005  -13.3254   15.5033 C   0  0  0  0  0  0  0  0  0  0  0  0
    8.1565  -12.8630   16.7587 N   0  0  0  0  0  0  0  0  0  0  0  0
    9.2986  -14.9311   21.0828 C   0  0  0  0  0  0  0  0  0  0  0  0
   10.0106  -14.0068   21.6001 O   0  0  0  0  0  0  0  0  0  0  0  0
    6.5339  -16.2573   23.8330 O   0  0  0  0  0  0  0  0  0  0  0  0
    7.5788  -15.3904   24.1975 C   0  0  0  0  0  0  0  0  0  0  0  0
    8.8402  -15.7505   23.4224 C   0  0  2  0  0  0  0  0  0  0  0  0
    8.5966  -15.7549   22.0009 N   0  0  0  0  0  0  0  0  0  0  0  0
    9.4327  -17.0121   23.9094 C   0  0  0  0  0  0  0  0  0  0  0  0
    9.1347  -18.0629   23.2577 O   0  0  0  0  0  0  0  0  0  0  0  0
   10.2757  -17.1058   25.0134 N   0  0  0  0  0  0  0  0  0  0  0  0
   10.7743  -18.3867   25.5635 C   0  0  1  0  0  0  0  0  0  0  0  0
   11.9243  -18.1373   26.4853 C   0  0  0  0  0  0  0  0  0  0  0  0
   12.4669  -19.4028   27.0848 C   0  0  0  0  0  0  0  0  0  0  0  0
   13.6043  -19.1324   28.0463 C   0  0  0  0  0  0  0  0  0  0  0  0
   14.2310  -20.4371   28.5257 C   0  0  0  0  0  0  0  0  0  0  0  0
   15.4291  -20.1987   29.2961 N   0  0  0  0  0  0  0  0  0  0  0  0
    9.6363  -19.1141   26.1763 C   0  0  0  0  0  0  0  0  0  0  0  0
    9.5809  -20.5122   26.1421 O   0  0  0  0  0  0  0  0  0  0  0  0
    8.6762  -18.5494   26.7482 O   0  0  0  0  0  0  0  0  0  0  0  0
  2  1  1  1
  2  9  1  0
  3  4  1  0
  3  2  1  0
  4  5  2  0
  4  8  1  0
  5  6  1  0
  6  7  1  0
  8  7  2  0
  9 10  2  0
 13 12  1  1
 12 11  1  0
 13 15  1  0
 14  9  1  0
 14 13  1  0
 15 16  2  0
 17 15  1  0
 17 18  1  0
 18 24  1  0
 18 19  1  1
 20 19  1  0
 21 22  1  0
 21 20  1  0
 22 23  1  0
 24 25  1  0
 26 24  2  0
M  END
$$$$
