HSK.pdb
     RDKit          3D

 26 26  0  0  1  0  0  0  0  0999 V2000
   10.4827  -16.3144   16.5695 N   0  0  0  0  0  0  0  0  0  0  0  0
    9.5568  -17.0306   17.4016 C   0  0  1  0  0  0  0  0  0  0  0  0
   10.1607  -18.4195   17.6422 C   0  0  0  0  0  0  0  0  0  0  0  0
    9.7774  -19.3631   16.5353 C   0  0  0  0  0  0  0  0  0  0  0  0
   10.2210  -19.2781   15.2437 C   0  0  0  0  0  0  0  0  0  0  0  0
    9.6664  -20.2881   14.5594 N   0  0  0  0  0  0  0  0  0  0  0  0
    8.8960  -20.9808   15.4156 C   0  0  0  0  0  0  0  0  0  0  0  0
    8.9644  -20.4138   16.6261 N   0  0  0  0  0  0  0  0  0  0  0  0
    9.4188  -16.4206   18.7479 C   0  0  0  0  0  0  0  0  0  0  0  0
   10.4221  -15.9038   19.3438 O   0  0  0  0  0  0  0  0  0  0  0  0
    5.9028  -16.7983   21.0270 O   0  0  0  0  0  0  0  0  0  0  0  0
    6.5684  -15.5624   21.1030 C   0  0  0  0  0  0  0  0  0  0  0  0
    8.0384  -15.7470   20.7470 C   0  0  2  0  0  0  0  0  0  0  0  0
    8.1890  -16.3689   19.4546 N   0  0  0  0  0  0  0  0  0  0  0  0
    8.7690  -16.4560   21.8163 C   0  0  0  0  0  0  0  0  0  0  0  0
    9.1265  -17.6491   21.5588 O   0  0  0  0  0  0  0  0  0  0  0  0
    9.0764  -15.9002   23.0552 N   0  0  0  0  0  0  0  0  0  0  0  0
    9.7867  -16.6274   24.1316 C   0  0  1  0  0  0  0  0  0  0  0  0
    9.8421  -15.7896   25.3682 C   0  0  0  0  0  0  0  0  0  0  0  0
   10.5920  -16.4586   26.4841 C   0  0  0  0  0  0  0  0  0  0  0  0
   10.6515  -15.5941   27.7253 C   0  0  0  0  0  0  0  0  0  0  0  0
   11.4080  -16.3023   28.8438 C   0  0  0  0  0  0  0  0  0  0  0  0
   11.4254  -15.5146   30.0542 N   0  0  0  0  0  0  0  0  0  0  0  0
    9.1462  -17.9532   24.3103 C   0  0  0  0  0  0  0  0  0  0  0  0
    9.9234  -19.1045   24.4811 O   0  0  0  0  0  0  0  0  0  0  0  0
    7.9069  -18.1318   24.3203 O   0  0  0  0  0  0  0  0  0  0  0  0
  2  1  1  6
  2  9  1  0
  3  4  1  0
  3  2  1  0
  4  5  2  0
  4  8  1  0
  5  6  1  0
  6  7  1  0
  8  7  2  0
  9 10  2  0
 13 12  1  1
 12 11  1  0
 13 15  1  0
 14  9  1  0
 14 13  1  0
 15 16  2  0
 17 15  1  0
 17 18  1  0
 18 24  1  0
 18 19  1  1
 20 19  1  0
 21 22  1  0
 21 20  1  0
 22 23  1  0
 24 25  1  0
 26 24  2  0
M  END
$$$$
