HSK.pdb
     RDKit          3D

 26 26  0  0  1  0  0  0  0  0999 V2000
    8.9594  -17.5665   16.4717 N   0  0  0  0  0  0  0  0  0  0  0  0
    8.2582  -17.8787   17.6854 C   0  0  1  0  0  0  0  0  0  0  0  0
    8.5733  -19.3429   18.0147 C   0  0  0  0  0  0  0  0  0  0  0  0
   10.0210  -19.6475   17.7428 C   0  0  0  0  0  0  0  0  0  0  0  0
   10.5173  -20.0948   16.5488 C   0  0  0  0  0  0  0  0  0  0  0  0
   11.8407  -20.2483   16.6940 N   0  0  0  0  0  0  0  0  0  0  0  0
   12.1513  -19.9017   17.9549 C   0  0  0  0  0  0  0  0  0  0  0  0
   11.0361  -19.5335   18.5971 N   0  0  0  0  0  0  0  0  0  0  0  0
    8.7581  -17.0963   18.8438 C   0  0  0  0  0  0  0  0  0  0  0  0
   10.0017  -16.8454   18.9828 O   0  0  0  0  0  0  0  0  0  0  0  0
    7.7071  -14.2633   22.6875 O   0  0  0  0  0  0  0  0  0  0  0  0
    7.2201  -15.1951   21.7544 C   0  0  0  0  0  0  0  0  0  0  0  0
    8.3811  -15.7884   20.9658 C   0  0  2  0  0  0  0  0  0  0  0  0
    7.9088  -16.5820   19.8580 N   0  0  0  0  0  0  0  0  0  0  0  0
    9.3128  -16.5227   21.8447 C   0  0  0  0  0  0  0  0  0  0  0  0
    9.0291  -17.7412   22.0739 O   0  0  0  0  0  0  0  0  0  0  0  0
   10.4520  -15.9642   22.4181 N   0  0  0  0  0  0  0  0  0  0  0  0
   11.4202  -16.7265   23.2386 C   0  0  1  0  0  0  0  0  0  0  0  0
   12.8086  -16.2342   22.9854 C   0  0  0  0  0  0  0  0  0  0  0  0
   13.8479  -17.0470   23.7027 C   0  0  0  0  0  0  0  0  0  0  0  0
   15.2494  -16.5458   23.4270 C   0  0  0  0  0  0  0  0  0  0  0  0
   16.2883  -17.4649   24.0600 C   0  0  0  0  0  0  0  0  0  0  0  0
   17.6224  -16.9274   23.9290 N   0  0  0  0  0  0  0  0  0  0  0  0
   10.9909  -16.6653   24.6570 C   0  0  0  0  0  0  0  0  0  0  0  0
   11.4191  -17.6309   25.5751 O   0  0  0  0  0  0  0  0  0  0  0  0
   10.2399  -15.7762   25.1191 O   0  0  0  0  0  0  0  0  0  0  0  0
  2  1  1  6
  2  9  1  0
  3  4  1  0
  3  2  1  0
  4  5  2  0
  4  8  1  0
  5  6  1  0
  6  7  1  0
  8  7  2  0
  9 10  2  0
 13 12  1  1
 12 11  1  0
 13 15  1  0
 14  9  1  0
 14 13  1  0
 15 16  2  0
 17 15  1  0
 17 18  1  0
 18 24  1  0
 18 19  1  1
 20 19  1  0
 21 22  1  0
 21 20  1  0
 22 23  1  0
 24 25  1  0
 26 24  2  0
M  END
$$$$
