RKR.pdb
     RDKit          3D

 32 31  0  0  1  0  0  0  0  0999 V2000
   17.2677  -22.5683  -10.7106 N   0  0  0  0  0  0  0  0  0  0  0  0
   17.6929  -22.8325  -12.0447 C   0  0  0  0  0  0  0  0  0  0  0  0
   17.1279  -23.7546  -12.7554 N   0  0  0  0  0  0  0  0  0  0  0  0
   18.7490  -22.0982  -12.6518 N   0  0  0  0  0  0  0  0  0  0  0  0
   19.4770  -21.0896  -11.9077 C   0  0  0  0  0  0  0  0  0  0  0  0
   20.9328  -21.4896  -11.8891 C   0  0  0  0  0  0  0  0  0  0  0  0
   21.6884  -20.8780  -13.0538 C   0  0  0  0  0  0  0  0  0  0  0  0
   23.1596  -21.1748  -12.9822 C   0  0  2  0  0  0  0  0  0  0  0  0
   23.7970  -20.6209  -11.8073 N   0  0  0  0  0  0  0  0  0  0  0  0
   23.8133  -20.5573  -14.1782 C   0  0  0  0  0  0  0  0  0  0  0  0
   23.9318  -19.3165  -14.2530 O   0  0  0  0  0  0  0  0  0  0  0  0
   17.4903  -23.9371  -13.7078 N   0  0  0  0  0  0  0  0  0  0  0  0
   24.3104  -21.3593  -15.2464 C   0  0  2  0  0  0  0  0  0  0  0  0
   24.9586  -20.8026  -16.3953 C   0  0  0  0  0  0  0  0  0  0  0  0
   25.8851  -21.7199  -17.0932 C   0  0  0  0  0  0  0  0  0  0  0  0
   27.0286  -22.1686  -16.2422 C   0  0  0  0  0  0  0  0  0  0  0  0
   27.8880  -23.0948  -17.1093 C   0  0  0  0  0  0  0  0  0  0  0  0
   29.1856  -23.4633  -16.4000 N   0  0  0  0  0  0  0  0  0  0  0  0
   29.8562  -24.4136  -17.2877 C   0  0  0  0  0  0  0  0  0  0  0  0
   23.9460  -20.1793  -17.2904 O   0  0  0  0  0  0  0  0  0  0  0  0
   22.7782  -20.6451  -17.3462 N   0  0  0  0  0  0  0  0  0  0  0  0
   18.5918  -18.0861  -14.5664 C   0  0  0  0  0  0  0  0  0  0  0  0
   19.4139  -17.0199  -15.0734 N   0  0  0  0  0  0  0  0  0  0  0  0
   19.4431  -15.8895  -14.4572 N   0  0  0  0  0  0  0  0  0  0  0  0
   20.2020  -17.1764  -16.2425 C   0  0  0  0  0  0  0  0  0  0  0  0
   19.7453  -17.9490  -17.3766 C   0  0  0  0  0  0  0  0  0  0  0  0
   20.9268  -18.6615  -17.9738 C   0  0  0  0  0  0  0  0  0  0  0  0
   22.1441  -17.7918  -18.1020 C   0  0  2  0  0  0  0  0  0  0  0  0
   23.1984  -18.4388  -18.9291 N   0  0  0  0  0  0  0  0  0  0  0  0
   24.2343  -19.0557  -18.1078 C   0  0  0  0  0  0  0  0  0  0  0  0
   23.8628  -17.5422  -19.8857 O   0  0  0  0  0  0  0  0  0  0  0  0
   23.1674  -17.0251  -20.9846 O   0  0  0  0  0  0  0  0  0  0  0  0
  1  2  1  0
  2  3  2  0
  4  5  1  0
  4  2  1  0
  5  6  1  0
  7  8  1  0
  7  6  1  0
  8  9  1  1
 10 12  1  0
 10  8  1  0
 11 10  2  0
 13 19  1  0
 13 12  1  0
 13 14  1  1
 14 15  1  0
 16 15  1  0
 17 16  1  0
 18 17  1  0
 19 20  2  0
 22 23  2  0
 22 21  1  0
 24 22  1  0
 25 24  1  0
 26 25  1  0
 27 26  1  0
 28 27  1  1
 29 28  1  0
 29 19  1  0
 30 31  1  0
 30 28  1  0
 32 30  2  0
M  END
$$$$
