RKR.pdb
     RDKit          3D

 32 31  0  0  1  0  0  0  0  0999 V2000
   26.9457  -14.5056  -17.8473 N   0  0  0  0  0  0  0  0  0  0  0  0
   25.6379  -14.8549  -17.4021 C   0  0  0  0  0  0  0  0  0  0  0  0
   24.5857  -14.4456  -18.0346 N   0  0  0  0  0  0  0  0  0  0  0  0
   25.4317  -15.6653  -16.2516 N   0  0  0  0  0  0  0  0  0  0  0  0
   26.5441  -16.0576  -15.4091 C   0  0  0  0  0  0  0  0  0  0  0  0
   26.6766  -17.5595  -15.4879 C   0  0  0  0  0  0  0  0  0  0  0  0
   27.7907  -18.0633  -14.5898 C   0  0  0  0  0  0  0  0  0  0  0  0
   28.0208  -19.5384  -14.7599 C   0  0  2  0  0  0  0  0  0  0  0  0
   27.8975  -19.9808  -16.1319 N   0  0  0  0  0  0  0  0  0  0  0  0
   26.9821  -20.2621  -13.9620 C   0  0  0  0  0  0  0  0  0  0  0  0
   26.5754  -21.3815  -14.3374 O   0  0  0  0  0  0  0  0  0  0  0  0
   23.6542  -14.7048  -17.6650 N   0  0  0  0  0  0  0  0  0  0  0  0
   26.4395  -19.6996  -12.7702 C   0  0  2  0  0  0  0  0  0  0  0  0
   25.5476  -20.4186  -11.9114 C   0  0  0  0  0  0  0  0  0  0  0  0
   25.6234  -20.0459  -10.4824 C   0  0  0  0  0  0  0  0  0  0  0  0
   26.3217  -21.0638   -9.6401 C   0  0  0  0  0  0  0  0  0  0  0  0
   26.3652  -20.5032   -8.2146 C   0  0  0  0  0  0  0  0  0  0  0  0
   27.1643  -21.4144   -7.2905 N   0  0  0  0  0  0  0  0  0  0  0  0
   27.1911  -20.7285   -5.9982 C   0  0  0  0  0  0  0  0  0  0  0  0
   24.1685  -20.3742  -12.4693 O   0  0  0  0  0  0  0  0  0  0  0  0
   23.4814  -19.3239  -12.3761 N   0  0  0  0  0  0  0  0  0  0  0  0
   16.3623  -22.1560  -10.4193 C   0  0  0  0  0  0  0  0  0  0  0  0
   16.9948  -23.3315  -10.9558 N   0  0  0  0  0  0  0  0  0  0  0  0
   16.3491  -24.4452  -10.9858 N   0  0  0  0  0  0  0  0  0  0  0  0
   18.3210  -23.3019  -11.4587 C   0  0  0  0  0  0  0  0  0  0  0  0
   19.0633  -22.0676  -11.5896 C   0  0  0  0  0  0  0  0  0  0  0  0
   20.4256  -22.3877  -12.1389 C   0  0  0  0  0  0  0  0  0  0  0  0
   21.2354  -21.1677  -12.4713 C   0  0  2  0  0  0  0  0  0  0  0  0
   22.1879  -21.4257  -13.5851 N   0  0  0  0  0  0  0  0  0  0  0  0
   23.5692  -21.4841  -13.1194 C   0  0  0  0  0  0  0  0  0  0  0  0
   22.1278  -20.4484  -14.6813 O   0  0  0  0  0  0  0  0  0  0  0  0
   22.9711  -19.3317  -14.6925 O   0  0  0  0  0  0  0  0  0  0  0  0
  1  2  1  0
  2  3  2  0
  4  5  1  0
  4  2  1  0
  5  6  1  0
  7  8  1  0
  7  6  1  0
  8  9  1  6
 10 12  1  0
 10  8  1  0
 11 10  2  0
 13 19  1  0
 13 12  1  0
 13 14  1  6
 14 15  1  0
 16 15  1  0
 17 16  1  0
 18 17  1  0
 19 20  2  0
 22 23  2  0
 22 21  1  0
 24 22  1  0
 25 24  1  0
 26 25  1  0
 27 26  1  0
 28 27  1  1
 29 28  1  0
 29 19  1  0
 30 31  1  0
 30 28  1  0
 32 30  2  0
M  END
$$$$
