RKR.pdb
     RDKit          3D

 32 31  0  0  1  0  0  0  0  0999 V2000
   26.2945  -21.9243  -10.2486 N   0  0  0  0  0  0  0  0  0  0  0  0
   25.9770  -20.5352  -10.2495 C   0  0  0  0  0  0  0  0  0  0  0  0
   26.6608  -19.6935   -9.5434 N   0  0  0  0  0  0  0  0  0  0  0  0
   24.9028  -20.0146  -11.0230 N   0  0  0  0  0  0  0  0  0  0  0  0
   23.9839  -20.9000  -11.7104 C   0  0  0  0  0  0  0  0  0  0  0  0
   24.3339  -20.8801  -13.1789 C   0  0  0  0  0  0  0  0  0  0  0  0
   25.5547  -21.7334  -13.4672 C   0  0  0  0  0  0  0  0  0  0  0  0
   25.8907  -21.7505  -14.9316 C   0  0  2  0  0  0  0  0  0  0  0  0
   25.3873  -20.5975  -15.6461 N   0  0  0  0  0  0  0  0  0  0  0  0
   25.2558  -22.9630  -15.5363 C   0  0  0  0  0  0  0  0  0  0  0  0
   24.1670  -22.8618  -16.1393 O   0  0  0  0  0  0  0  0  0  0  0  0
   26.4105  -18.6900   -9.5904 N   0  0  0  0  0  0  0  0  0  0  0  0
   25.8701  -24.2455  -15.4405 C   0  0  2  0  0  0  0  0  0  0  0  0
   25.2311  -25.4452  -15.8906 C   0  0  0  0  0  0  0  0  0  0  0  0
   26.1386  -26.5945  -16.0968 C   0  0  0  0  0  0  0  0  0  0  0  0
   27.3107  -26.2761  -16.9673 C   0  0  0  0  0  0  0  0  0  0  0  0
   28.1847  -27.5341  -17.0092 C   0  0  0  0  0  0  0  0  0  0  0  0
   29.4290  -27.3101  -17.8603 N   0  0  0  0  0  0  0  0  0  0  0  0
   30.2326  -28.5221  -17.6986 C   0  0  0  0  0  0  0  0  0  0  0  0
   24.0658  -25.7517  -15.0169 O   0  0  0  0  0  0  0  0  0  0  0  0
   23.9095  -25.1354  -13.9309 N   0  0  0  0  0  0  0  0  0  0  0  0
   16.5739  -22.7343  -14.0814 C   0  0  0  0  0  0  0  0  0  0  0  0
   16.6183  -23.8510  -13.1754 N   0  0  0  0  0  0  0  0  0  0  0  0
   15.6634  -24.0232  -12.3289 N   0  0  0  0  0  0  0  0  0  0  0  0
   17.6918  -24.7784  -13.1859 C   0  0  0  0  0  0  0  0  0  0  0  0
   18.9443  -24.4930  -13.8503 C   0  0  0  0  0  0  0  0  0  0  0  0
   19.7995  -25.7285  -13.8043 C   0  0  0  0  0  0  0  0  0  0  0  0
   21.1125  -25.5708  -14.5155 C   0  0  1  0  0  0  0  0  0  0  0  0
   21.8597  -26.8558  -14.5838 N   0  0  0  0  0  0  0  0  0  0  0  0
   23.0935  -26.7295  -15.3520 C   0  0  0  0  0  0  0  0  0  0  0  0
   21.0969  -27.9789  -15.1468 O   0  0  0  0  0  0  0  0  0  0  0  0
   20.3171  -28.7993  -14.3239 O   0  0  0  0  0  0  0  0  0  0  0  0
  1  2  1  0
  2  3  2  0
  4  5  1  0
  4  2  1  0
  5  6  1  0
  7  8  1  0
  7  6  1  0
  8  9  1  6
 10 12  1  0
 10  8  1  0
 11 10  2  0
 13 19  1  0
 13 12  1  0
 13 14  1  6
 14 15  1  0
 16 15  1  0
 17 16  1  0
 18 17  1  0
 19 20  2  0
 22 23  2  0
 22 21  1  0
 24 22  1  0
 25 24  1  0
 26 25  1  0
 27 26  1  0
 28 27  1  1
 29 28  1  0
 29 19  1  0
 30 31  1  0
 30 28  1  0
 32 30  2  0
M  END
$$$$
