RKR.pdb
     RDKit          3D

 32 31  0  0  1  0  0  0  0  0999 V2000
   27.1298  -26.1359  -16.3683 N   0  0  0  0  0  0  0  0  0  0  0  0
   26.4838  -25.3111  -17.3341 C   0  0  0  0  0  0  0  0  0  0  0  0
   27.1245  -24.3627  -17.9380 N   0  0  0  0  0  0  0  0  0  0  0  0
   25.1155  -25.4933  -17.6770 N   0  0  0  0  0  0  0  0  0  0  0  0
   24.2692  -26.3861  -16.9105 C   0  0  0  0  0  0  0  0  0  0  0  0
   24.2025  -25.8598  -15.4969 C   0  0  0  0  0  0  0  0  0  0  0  0
   22.7903  -25.4467  -15.1276 C   0  0  0  0  0  0  0  0  0  0  0  0
   22.6243  -23.9533  -15.1398 C   0  0  2  0  0  0  0  0  0  0  0  0
   23.8016  -23.2446  -14.6871 N   0  0  0  0  0  0  0  0  0  0  0  0
   21.5072  -23.6059  -14.2069 C   0  0  0  0  0  0  0  0  0  0  0  0
   21.7611  -23.2084  -13.0507 O   0  0  0  0  0  0  0  0  0  0  0  0
   26.6165  -23.7860  -18.6316 N   0  0  0  0  0  0  0  0  0  0  0  0
   20.1447  -23.7180  -14.6098 C   0  0  1  0  0  0  0  0  0  0  0  0
   19.0620  -23.1972  -13.8310 C   0  0  0  0  0  0  0  0  0  0  0  0
   17.8896  -22.7509  -14.6141 C   0  0  0  0  0  0  0  0  0  0  0  0
   18.2133  -21.6877  -15.6129 C   0  0  0  0  0  0  0  0  0  0  0  0
   17.9797  -20.3423  -14.9176 C   0  0  0  0  0  0  0  0  0  0  0  0
   18.2443  -19.1801  -15.8674 N   0  0  0  0  0  0  0  0  0  0  0  0
   17.9991  -17.9719  -15.0792 C   0  0  0  0  0  0  0  0  0  0  0  0
   18.7247  -24.1507  -12.7390 O   0  0  0  0  0  0  0  0  0  0  0  0
   18.7224  -25.3898  -12.9590 N   0  0  0  0  0  0  0  0  0  0  0  0
   15.8312  -25.3136   -4.3738 C   0  0  0  0  0  0  0  0  0  0  0  0
   17.1598  -25.8250   -4.5815 N   0  0  0  0  0  0  0  0  0  0  0  0
   17.6372  -26.7062   -3.7730 N   0  0  0  0  0  0  0  0  0  0  0  0
   17.9685  -25.3848   -5.6607 C   0  0  0  0  0  0  0  0  0  0  0  0
   17.5077  -24.3956   -6.6097 C   0  0  0  0  0  0  0  0  0  0  0  0
   17.5444  -25.0022   -7.9848 C   0  0  0  0  0  0  0  0  0  0  0  0
   18.1190  -24.0847   -9.0253 C   0  0  1  0  0  0  0  0  0  0  0  0
   18.0717  -24.6929  -10.3825 N   0  0  0  0  0  0  0  0  0  0  0  0
   18.3963  -23.7259  -11.4255 C   0  0  0  0  0  0  0  0  0  0  0  0
   16.7848  -25.3109  -10.7324 O   0  0  0  0  0  0  0  0  0  0  0  0
   16.5864  -26.6877  -10.5798 O   0  0  0  0  0  0  0  0  0  0  0  0
  1  2  1  0
  2  3  2  0
  4  5  1  0
  4  2  1  0
  5  6  1  0
  7  8  1  0
  7  6  1  0
  8  9  1  1
 10 12  1  0
 10  8  1  0
 11 10  2  0
 13 19  1  0
 13 12  1  0
 13 14  1  1
 14 15  1  0
 16 15  1  0
 17 16  1  0
 18 17  1  0
 19 20  2  0
 22 23  2  0
 22 21  1  0
 24 22  1  0
 25 24  1  0
 26 25  1  0
 27 26  1  0
 28 27  1  1
 29 28  1  0
 29 19  1  0
 30 31  1  0
 30 28  1  0
 32 30  2  0
M  END
$$$$
