RKR.pdb
     RDKit          3D

 32 31  0  0  1  0  0  0  0  0999 V2000
   10.8391   -7.2657   -6.5241 N   0  0  0  0  0  0  0  0  0  0  0  0
   10.8589   -8.6902   -6.4966 C   0  0  0  0  0  0  0  0  0  0  0  0
   10.0702   -9.3540   -5.7142 N   0  0  0  0  0  0  0  0  0  0  0  0
   11.7390   -9.4415   -7.3236 N   0  0  0  0  0  0  0  0  0  0  0  0
   12.1418   -8.9454   -8.6246 C   0  0  0  0  0  0  0  0  0  0  0  0
   13.0860   -9.9548   -9.2323 C   0  0  0  0  0  0  0  0  0  0  0  0
   14.4037   -9.3127   -9.6232 C   0  0  0  0  0  0  0  0  0  0  0  0
   14.2612   -8.4415  -10.8392 C   0  0  2  0  0  0  0  0  0  0  0  0
   14.2489   -9.1886  -12.0781 N   0  0  0  0  0  0  0  0  0  0  0  0
   15.4380   -7.5185  -10.8856 C   0  0  0  0  0  0  0  0  0  0  0  0
   16.1946   -7.5222  -11.8791 O   0  0  0  0  0  0  0  0  0  0  0  0
   10.1383  -10.3869   -5.7036 N   0  0  0  0  0  0  0  0  0  0  0  0
   15.7200   -6.6244   -9.8122 C   0  0  2  0  0  0  0  0  0  0  0  0
   16.5366   -5.4589   -9.9699 C   0  0  0  0  0  0  0  0  0  0  0  0
   16.3560   -4.4261   -8.9271 C   0  0  0  0  0  0  0  0  0  0  0  0
   17.1500   -3.1852   -9.1775 C   0  0  0  0  0  0  0  0  0  0  0  0
   16.7605   -2.1834   -8.0853 C   0  0  0  0  0  0  0  0  0  0  0  0
   17.4033   -0.8239   -8.3328 N   0  0  0  0  0  0  0  0  0  0  0  0
   16.8308    0.0654   -7.3216 C   0  0  0  0  0  0  0  0  0  0  0  0
   17.9546   -5.8630  -10.1731 O   0  0  0  0  0  0  0  0  0  0  0  0
   18.6053   -6.3850   -9.2308 N   0  0  0  0  0  0  0  0  0  0  0  0
   21.9169  -11.9254  -14.7133 C   0  0  0  0  0  0  0  0  0  0  0  0
   22.9420  -11.0133  -14.2808 N   0  0  0  0  0  0  0  0  0  0  0  0
   24.1808  -11.3148  -14.4611 N   0  0  0  0  0  0  0  0  0  0  0  0
   22.6276   -9.7790  -13.6561 C   0  0  0  0  0  0  0  0  0  0  0  0
   21.2621   -9.3402  -13.4704 C   0  0  0  0  0  0  0  0  0  0  0  0
   21.2787   -8.0387  -12.7182 C   0  0  0  0  0  0  0  0  0  0  0  0
   19.9095   -7.4689  -12.4835 C   0  0  1  0  0  0  0  0  0  0  0  0
   19.9580   -6.2549  -11.6245 N   0  0  0  0  0  0  0  0  0  0  0  0
   18.6320   -5.6866  -11.4075 C   0  0  0  0  0  0  0  0  0  0  0  0
   20.8260   -5.1815  -12.1291 O   0  0  0  0  0  0  0  0  0  0  0  0
   20.2793   -4.0296  -12.7059 O   0  0  0  0  0  0  0  0  0  0  0  0
  1  2  1  0
  2  3  2  0
  4  5  1  0
  4  2  1  0
  5  6  1  0
  7  8  1  0
  7  6  1  0
  8  9  1  6
 10 12  1  0
 10  8  1  0
 11 10  2  0
 13 19  1  0
 13 12  1  0
 13 14  1  6
 14 15  1  0
 16 15  1  0
 17 16  1  0
 18 17  1  0
 19 20  2  0
 22 23  2  0
 22 21  1  0
 24 22  1  0
 25 24  1  0
 26 25  1  0
 27 26  1  0
 28 27  1  1
 29 28  1  0
 29 19  1  0
 30 31  1  0
 30 28  1  0
 32 30  2  0
M  END
$$$$
