RKR.pdb
     RDKit          3D

 32 31  0  0  1  0  0  0  0  0999 V2000
   28.9513  -32.6136  -17.4567 N   0  0  0  0  0  0  0  0  0  0  0  0
   27.5538  -32.5292  -17.7220 C   0  0  0  0  0  0  0  0  0  0  0  0
   26.7821  -33.5569  -17.5701 N   0  0  0  0  0  0  0  0  0  0  0  0
   26.9481  -31.3194  -18.1607 N   0  0  0  0  0  0  0  0  0  0  0  0
   27.7009  -30.0813  -18.1970 C   0  0  0  0  0  0  0  0  0  0  0  0
   27.7851  -29.5499  -16.7862 C   0  0  0  0  0  0  0  0  0  0  0  0
   26.7598  -28.4581  -16.5453 C   0  0  0  0  0  0  0  0  0  0  0  0
   27.2967  -27.1002  -16.8994 C   0  0  2  0  0  0  0  0  0  0  0  0
   28.5395  -26.7853  -16.2289 N   0  0  0  0  0  0  0  0  0  0  0  0
   26.2882  -26.0801  -16.4734 C   0  0  0  0  0  0  0  0  0  0  0  0
   25.9750  -25.9782  -15.2689 O   0  0  0  0  0  0  0  0  0  0  0  0
   25.7792  -33.4621  -17.8088 N   0  0  0  0  0  0  0  0  0  0  0  0
   25.6694  -25.2115  -17.4188 C   0  0  2  0  0  0  0  0  0  0  0  0
   24.7203  -24.2078  -17.0421 C   0  0  0  0  0  0  0  0  0  0  0  0
   24.5463  -23.1155  -18.0237 C   0  0  0  0  0  0  0  0  0  0  0  0
   23.5298  -22.1017  -17.6089 C   0  0  0  0  0  0  0  0  0  0  0  0
   23.5405  -21.0027  -18.6768 C   0  0  0  0  0  0  0  0  0  0  0  0
   22.5311  -19.9089  -18.3491 N   0  0  0  0  0  0  0  0  0  0  0  0
   22.5286  -19.0224  -19.5132 C   0  0  0  0  0  0  0  0  0  0  0  0
   23.4433  -24.8530  -16.6318 O   0  0  0  0  0  0  0  0  0  0  0  0
   23.1834  -26.0296  -16.9948 N   0  0  0  0  0  0  0  0  0  0  0  0
   21.0921  -29.6967  -10.8688 C   0  0  0  0  0  0  0  0  0  0  0  0
   20.2494  -29.3951  -11.9951 N   0  0  0  0  0  0  0  0  0  0  0  0
   19.4415  -30.2914  -12.4447 N   0  0  0  0  0  0  0  0  0  0  0  0
   20.2803  -28.1279  -12.6322 C   0  0  0  0  0  0  0  0  0  0  0  0
   21.3001  -27.1461  -12.3360 C   0  0  0  0  0  0  0  0  0  0  0  0
   21.0533  -25.9320  -13.1875 C   0  0  0  0  0  0  0  0  0  0  0  0
   21.5409  -26.0858  -14.5994 C   0  0  1  0  0  0  0  0  0  0  0  0
   21.2536  -24.8755  -15.4160 N   0  0  0  0  0  0  0  0  0  0  0  0
   22.4753  -24.1942  -15.8303 C   0  0  0  0  0  0  0  0  0  0  0  0
   20.3907  -23.8836  -14.7589 O   0  0  0  0  0  0  0  0  0  0  0  0
   20.3722  -23.7617  -13.3649 O   0  0  0  0  0  0  0  0  0  0  0  0
  1  2  1  0
  2  3  2  0
  4  5  1  0
  4  2  1  0
  5  6  1  0
  7  8  1  0
  7  6  1  0
  8  9  1  1
 10 12  1  0
 10  8  1  0
 11 10  2  0
 13 19  1  0
 13 12  1  0
 13 14  1  6
 14 15  1  0
 16 15  1  0
 17 16  1  0
 18 17  1  0
 19 20  2  0
 22 23  2  0
 22 21  1  0
 24 22  1  0
 25 24  1  0
 26 25  1  0
 27 26  1  0
 28 27  1  6
 29 28  1  0
 29 19  1  0
 30 31  1  0
 30 28  1  0
 32 30  2  0
M  END
$$$$
