RKR.pdb
     RDKit          3D

 32 31  0  0  1  0  0  0  0  0999 V2000
   21.4183  -24.6843  -14.0380 N   0  0  0  0  0  0  0  0  0  0  0  0
   22.1377  -25.2718  -15.1186 C   0  0  0  0  0  0  0  0  0  0  0  0
   21.6048  -26.1957  -15.8516 N   0  0  0  0  0  0  0  0  0  0  0  0
   23.4640  -24.8705  -15.4394 N   0  0  0  0  0  0  0  0  0  0  0  0
   24.1207  -23.8124  -14.6977 C   0  0  0  0  0  0  0  0  0  0  0  0
   25.4860  -23.5998  -15.3063 C   0  0  0  0  0  0  0  0  0  0  0  0
   25.5232  -22.3417  -16.1531 C   0  0  0  0  0  0  0  0  0  0  0  0
   25.8100  -21.1204  -15.3261 C   0  0  2  0  0  0  0  0  0  0  0  0
   26.8900  -21.3110  -14.3824 N   0  0  0  0  0  0  0  0  0  0  0  0
   24.5796  -20.7979  -14.5379 C   0  0  0  0  0  0  0  0  0  0  0  0
   24.6770  -20.4647  -13.3384 O   0  0  0  0  0  0  0  0  0  0  0  0
   22.1721  -26.6147  -16.6094 N   0  0  0  0  0  0  0  0  0  0  0  0
   23.2843  -20.8617  -15.1290 C   0  0  2  0  0  0  0  0  0  0  0  0
   22.1454  -20.1971  -14.5709 C   0  0  0  0  0  0  0  0  0  0  0  0
   21.6927  -19.0038  -15.3178 C   0  0  0  0  0  0  0  0  0  0  0  0
   20.5894  -18.2610  -14.6367 C   0  0  0  0  0  0  0  0  0  0  0  0
   20.3275  -16.9999  -15.4668 C   0  0  0  0  0  0  0  0  0  0  0  0
   19.1347  -16.2225  -14.9230 N   0  0  0  0  0  0  0  0  0  0  0  0
   18.9373  -15.1128  -15.8560 C   0  0  0  0  0  0  0  0  0  0  0  0
   21.0642  -21.1864  -14.3109 O   0  0  0  0  0  0  0  0  0  0  0  0
   20.7421  -22.0197  -15.1973 N   0  0  0  0  0  0  0  0  0  0  0  0
   18.0333  -24.6011   -6.8460 C   0  0  0  0  0  0  0  0  0  0  0  0
   18.7113  -25.3306   -7.8842 N   0  0  0  0  0  0  0  0  0  0  0  0
   19.3609  -26.4028   -7.5898 N   0  0  0  0  0  0  0  0  0  0  0  0
   18.6859  -24.9018   -9.2363 C   0  0  0  0  0  0  0  0  0  0  0  0
   17.8395  -23.8162   -9.6800 C   0  0  0  0  0  0  0  0  0  0  0  0
   18.1069  -23.5702  -11.1388 C   0  0  0  0  0  0  0  0  0  0  0  0
   19.1432  -22.5116  -11.3840 C   0  0  1  0  0  0  0  0  0  0  0  0
   19.3569  -22.2764  -12.8378 N   0  0  0  0  0  0  0  0  0  0  0  0
   20.3567  -21.2426  -13.0821 C   0  0  0  0  0  0  0  0  0  0  0  0
   18.1447  -21.9097  -13.5837 O   0  0  0  0  0  0  0  0  0  0  0  0
   17.8245  -20.5672  -13.8148 O   0  0  0  0  0  0  0  0  0  0  0  0
  1  2  1  0
  2  3  2  0
  4  5  1  0
  4  2  1  0
  5  6  1  0
  7  8  1  0
  7  6  1  0
  8  9  1  1
 10 12  1  0
 10  8  1  0
 11 10  2  0
 13 19  1  0
 13 12  1  0
 13 14  1  6
 14 15  1  0
 16 15  1  0
 17 16  1  0
 18 17  1  0
 19 20  2  0
 22 23  2  0
 22 21  1  0
 24 22  1  0
 25 24  1  0
 26 25  1  0
 27 26  1  0
 28 27  1  6
 29 28  1  0
 29 19  1  0
 30 31  1  0
 30 28  1  0
 32 30  2  0
M  END
$$$$
