RKR.pdb
     RDKit          3D

 32 31  0  0  1  0  0  0  0  0999 V2000
   27.4312  -19.1994  -19.3162 N   0  0  0  0  0  0  0  0  0  0  0  0
   26.5047  -18.1171  -19.3414 C   0  0  0  0  0  0  0  0  0  0  0  0
   25.6479  -17.9938  -20.3033 N   0  0  0  0  0  0  0  0  0  0  0  0
   26.4788  -17.1314  -18.3162 N   0  0  0  0  0  0  0  0  0  0  0  0
   27.2649  -17.2929  -17.1092 C   0  0  0  0  0  0  0  0  0  0  0  0
   27.3028  -18.7649  -16.7756 C   0  0  0  0  0  0  0  0  0  0  0  0
   28.0889  -19.0228  -15.5040 C   0  0  0  0  0  0  0  0  0  0  0  0
   28.1274  -20.4846  -15.1583 C   0  0  2  0  0  0  0  0  0  0  0  0
   28.2060  -21.3437  -16.3197 N   0  0  0  0  0  0  0  0  0  0  0  0
   26.8598  -20.8216  -14.4381 C   0  0  0  0  0  0  0  0  0  0  0  0
   25.9340  -21.4013  -15.0432 O   0  0  0  0  0  0  0  0  0  0  0  0
   24.9371  -17.2438  -20.2398 N   0  0  0  0  0  0  0  0  0  0  0  0
   26.6808  -20.4944  -13.0625 C   0  0  2  0  0  0  0  0  0  0  0  0
   25.4831  -20.8058  -12.3425 C   0  0  0  0  0  0  0  0  0  0  0  0
   25.6207  -20.7941  -10.8701 C   0  0  0  0  0  0  0  0  0  0  0  0
   24.4015  -21.2815  -10.1566 C   0  0  0  0  0  0  0  0  0  0  0  0
   24.7236  -21.2494   -8.6588 C   0  0  0  0  0  0  0  0  0  0  0  0
   23.5945  -21.8653   -7.8411 N   0  0  0  0  0  0  0  0  0  0  0  0
   24.0260  -21.7639   -6.4466 C   0  0  0  0  0  0  0  0  0  0  0  0
   24.3620  -19.9660  -12.8456 O   0  0  0  0  0  0  0  0  0  0  0  0
   24.6001  -18.8845  -13.4435 N   0  0  0  0  0  0  0  0  0  0  0  0
   20.2887  -23.8140  -18.8513 C   0  0  0  0  0  0  0  0  0  0  0  0
   19.9123  -22.4299  -18.9624 N   0  0  0  0  0  0  0  0  0  0  0  0
   19.1515  -22.0520  -19.9301 N   0  0  0  0  0  0  0  0  0  0  0  0
   20.3571  -21.4583  -18.0293 C   0  0  0  0  0  0  0  0  0  0  0  0
   21.1626  -21.8111  -16.8811 C   0  0  0  0  0  0  0  0  0  0  0  0
   21.5383  -20.5481  -16.1573 C   0  0  0  0  0  0  0  0  0  0  0  0
   22.5105  -20.7715  -15.0350 C   0  0  2  0  0  0  0  0  0  0  0  0
   22.0403  -20.1503  -13.7673 N   0  0  0  0  0  0  0  0  0  0  0  0
   22.9999  -20.3294  -12.6832 C   0  0  0  0  0  0  0  0  0  0  0  0
   20.7365  -20.6362  -13.2936 O   0  0  0  0  0  0  0  0  0  0  0  0
   19.5470  -20.0615  -13.7555 O   0  0  0  0  0  0  0  0  0  0  0  0
  1  2  1  0
  2  3  2  0
  4  5  1  0
  4  2  1  0
  5  6  1  0
  7  8  1  0
  7  6  1  0
  8  9  1  6
 10 12  1  0
 10  8  1  0
 11 10  2  0
 13 19  1  0
 13 12  1  0
 13 14  1  1
 14 15  1  0
 16 15  1  0
 17 16  1  0
 18 17  1  0
 19 20  2  0
 22 23  2  0
 22 21  1  0
 24 22  1  0
 25 24  1  0
 26 25  1  0
 27 26  1  0
 28 27  1  6
 29 28  1  0
 29 19  1  0
 30 31  1  0
 30 28  1  0
 32 30  2  0
M  END
$$$$
