RKR.pdb
     RDKit          3D

 32 31  0  0  1  0  0  0  0  0999 V2000
   32.8226  -22.3306  -12.3282 N   0  0  0  0  0  0  0  0  0  0  0  0
   31.8275  -21.8061  -11.4534 C   0  0  0  0  0  0  0  0  0  0  0  0
   31.8609  -22.0483  -10.1826 N   0  0  0  0  0  0  0  0  0  0  0  0
   30.7613  -20.9968  -11.9340 N   0  0  0  0  0  0  0  0  0  0  0  0
   29.6463  -20.6489  -11.0757 C   0  0  0  0  0  0  0  0  0  0  0  0
   28.5186  -21.6084  -11.3708 C   0  0  0  0  0  0  0  0  0  0  0  0
   27.1944  -20.8802  -11.5034 C   0  0  0  0  0  0  0  0  0  0  0  0
   26.0605  -21.8283  -11.7739 C   0  0  2  0  0  0  0  0  0  0  0  0
   26.3580  -22.7925  -12.8108 N   0  0  0  0  0  0  0  0  0  0  0  0
   24.8866  -21.0235  -12.2355 C   0  0  0  0  0  0  0  0  0  0  0  0
   24.3571  -20.1950  -11.4657 O   0  0  0  0  0  0  0  0  0  0  0  0
   32.6281  -22.6357   -9.8108 N   0  0  0  0  0  0  0  0  0  0  0  0
   24.3516  -21.1803  -13.5472 C   0  0  1  0  0  0  0  0  0  0  0  0
   23.1900  -20.4754  -13.9986 C   0  0  0  0  0  0  0  0  0  0  0  0
   23.3562  -19.7576  -15.2808 C   0  0  0  0  0  0  0  0  0  0  0  0
   22.1907  -18.8901  -15.6303 C   0  0  0  0  0  0  0  0  0  0  0  0
   22.4515  -18.3461  -17.0390 C   0  0  0  0  0  0  0  0  0  0  0  0
   21.2821  -17.4982  -17.5252 N   0  0  0  0  0  0  0  0  0  0  0  0
   21.6898  -16.9909  -18.8357 C   0  0  0  0  0  0  0  0  0  0  0  0
   22.0095  -21.3813  -13.9683 O   0  0  0  0  0  0  0  0  0  0  0  0
   22.1644  -22.6264  -14.0663 N   0  0  0  0  0  0  0  0  0  0  0  0
   17.9552  -24.4229   -7.4041 C   0  0  0  0  0  0  0  0  0  0  0  0
   17.9066  -25.2383   -8.5884 N   0  0  0  0  0  0  0  0  0  0  0  0
   17.2005  -26.3151   -8.5922 N   0  0  0  0  0  0  0  0  0  0  0  0
   18.6191  -24.8894   -9.7645 C   0  0  0  0  0  0  0  0  0  0  0  0
   19.2207  -23.5857   -9.9374 C   0  0  0  0  0  0  0  0  0  0  0  0
   18.9058  -23.0965  -11.3237 C   0  0  0  0  0  0  0  0  0  0  0  0
   20.0260  -22.3158  -11.9485 C   0  0  1  0  0  0  0  0  0  0  0  0
   19.6332  -21.7478  -13.2665 N   0  0  0  0  0  0  0  0  0  0  0  0
   20.6805  -20.9033  -13.8308 C   0  0  0  0  0  0  0  0  0  0  0  0
   18.3895  -20.9648  -13.2501 O   0  0  0  0  0  0  0  0  0  0  0  0
   17.1617  -21.5639  -13.5533 O   0  0  0  0  0  0  0  0  0  0  0  0
  1  2  1  0
  2  3  2  0
  4  5  1  0
  4  2  1  0
  5  6  1  0
  7  8  1  0
  7  6  1  0
  8  9  1  6
 10 12  1  0
 10  8  1  0
 11 10  2  0
 13 19  1  0
 13 12  1  0
 13 14  1  1
 14 15  1  0
 16 15  1  0
 17 16  1  0
 18 17  1  0
 19 20  2  0
 22 23  2  0
 22 21  1  0
 24 22  1  0
 25 24  1  0
 26 25  1  0
 27 26  1  0
 28 27  1  6
 29 28  1  0
 29 19  1  0
 30 31  1  0
 30 28  1  0
 32 30  2  0
M  END
$$$$
