RKR.pdb
     RDKit          3D

 32 31  0  0  1  0  0  0  0  0999 V2000
   23.5517  -21.1429  -13.7594 N   0  0  0  0  0  0  0  0  0  0  0  0
   22.8418  -20.2052  -14.5639 C   0  0  0  0  0  0  0  0  0  0  0  0
   23.4479  -19.2017  -15.1119 N   0  0  0  0  0  0  0  0  0  0  0  0
   21.4449  -20.3304  -14.8008 N   0  0  0  0  0  0  0  0  0  0  0  0
   20.6965  -21.4487  -14.2619 C   0  0  0  0  0  0  0  0  0  0  0  0
   19.4877  -20.8944  -13.5469 C   0  0  0  0  0  0  0  0  0  0  0  0
   18.9691  -21.8666  -12.5041 C   0  0  0  0  0  0  0  0  0  0  0  0
   18.7104  -23.2265  -13.0885 C   0  0  2  0  0  0  0  0  0  0  0  0
   17.7469  -23.2099  -14.1676 N   0  0  0  0  0  0  0  0  0  0  0  0
   18.1533  -24.0955  -12.0052 C   0  0  0  0  0  0  0  0  0  0  0  0
   16.9443  -24.0171  -11.7028 O   0  0  0  0  0  0  0  0  0  0  0  0
   22.8793  -18.4842  -15.5951 N   0  0  0  0  0  0  0  0  0  0  0  0
   18.9774  -25.0217  -11.3022 C   0  0  2  0  0  0  0  0  0  0  0  0
   18.4689  -25.8952  -10.2880 C   0  0  0  0  0  0  0  0  0  0  0  0
   19.0217  -27.2665  -10.3128 C   0  0  0  0  0  0  0  0  0  0  0  0
   19.6724  -27.6204  -11.6106 C   0  0  0  0  0  0  0  0  0  0  0  0
   20.2626  -29.0244  -11.4407 C   0  0  0  0  0  0  0  0  0  0  0  0
   20.9771  -29.4767  -12.7086 N   0  0  0  0  0  0  0  0  0  0  0  0
   21.5157  -30.8014  -12.3983 C   0  0  0  0  0  0  0  0  0  0  0  0
   18.5691  -25.2332   -8.9587 O   0  0  0  0  0  0  0  0  0  0  0  0
   18.6807  -23.9821   -8.8814 N   0  0  0  0  0  0  0  0  0  0  0  0
   12.6347  -22.5342   -5.3109 C   0  0  0  0  0  0  0  0  0  0  0  0
   13.7705  -22.5852   -4.4294 N   0  0  0  0  0  0  0  0  0  0  0  0
   13.6594  -22.1541   -3.2211 N   0  0  0  0  0  0  0  0  0  0  0  0
   15.0219  -23.1015   -4.8536 C   0  0  0  0  0  0  0  0  0  0  0  0
   15.2596  -23.5065   -6.2215 C   0  0  0  0  0  0  0  0  0  0  0  0
   16.2704  -24.6193   -6.2194 C   0  0  0  0  0  0  0  0  0  0  0  0
   17.6864  -24.1380   -6.3533 C   0  0  1  0  0  0  0  0  0  0  0  0
   18.6458  -25.2708   -6.4555 N   0  0  0  0  0  0  0  0  0  0  0  0
   18.5448  -25.9574   -7.7386 C   0  0  0  0  0  0  0  0  0  0  0  0
   18.5147  -26.2821   -5.3969 O   0  0  0  0  0  0  0  0  0  0  0  0
   19.0365  -26.0530   -4.1188 O   0  0  0  0  0  0  0  0  0  0  0  0
  1  2  1  0
  2  3  2  0
  4  5  1  0
  4  2  1  0
  5  6  1  0
  7  8  1  0
  7  6  1  0
  8  9  1  6
 10 12  1  0
 10  8  1  0
 11 10  2  0
 13 19  1  0
 13 12  1  0
 13 14  1  6
 14 15  1  0
 16 15  1  0
 17 16  1  0
 18 17  1  0
 19 20  2  0
 22 23  2  0
 22 21  1  0
 24 22  1  0
 25 24  1  0
 26 25  1  0
 27 26  1  0
 28 27  1  6
 29 28  1  0
 29 19  1  0
 30 31  1  0
 30 28  1  0
 32 30  2  0
M  END
$$$$
