RKR.pdb
     RDKit          3D

 32 31  0  0  1  0  0  0  0  0999 V2000
   30.3929  -20.5641  -11.0146 N   0  0  0  0  0  0  0  0  0  0  0  0
   29.4310  -21.4854  -10.5082 C   0  0  0  0  0  0  0  0  0  0  0  0
   29.7964  -22.5376   -9.8494 N   0  0  0  0  0  0  0  0  0  0  0  0
   28.0354  -21.2902  -10.7011 N   0  0  0  0  0  0  0  0  0  0  0  0
   27.5358  -20.1068  -11.3726 C   0  0  0  0  0  0  0  0  0  0  0  0
   27.8556  -20.2393  -12.8422 C   0  0  0  0  0  0  0  0  0  0  0  0
   26.6937  -20.8438  -13.6078 C   0  0  0  0  0  0  0  0  0  0  0  0
   26.9483  -20.8587  -15.0886 C   0  0  2  0  0  0  0  0  0  0  0  0
   27.8480  -19.8124  -15.5234 N   0  0  0  0  0  0  0  0  0  0  0  0
   25.6411  -20.6413  -15.7834 C   0  0  0  0  0  0  0  0  0  0  0  0
   25.3043  -19.4907  -16.1327 O   0  0  0  0  0  0  0  0  0  0  0  0
   29.0651  -23.1829   -9.5025 N   0  0  0  0  0  0  0  0  0  0  0  0
   24.7607  -21.7274  -16.0604 C   0  0  2  0  0  0  0  0  0  0  0  0
   23.5778  -21.5817  -16.8539 C   0  0  0  0  0  0  0  0  0  0  0  0
   23.3778  -22.6347  -17.8728 C   0  0  0  0  0  0  0  0  0  0  0  0
   24.6271  -22.9900  -18.6117 C   0  0  0  0  0  0  0  0  0  0  0  0
   24.2462  -24.0697  -19.6302 C   0  0  0  0  0  0  0  0  0  0  0  0
   25.4615  -24.5227  -20.4306 N   0  0  0  0  0  0  0  0  0  0  0  0
   25.9355  -23.3259  -21.1263 C   0  0  0  0  0  0  0  0  0  0  0  0
   22.4004  -21.3754  -15.9671 O   0  0  0  0  0  0  0  0  0  0  0  0
   22.2625  -22.0695  -14.9264 N   0  0  0  0  0  0  0  0  0  0  0  0
   15.1705  -16.8380  -18.1475 C   0  0  0  0  0  0  0  0  0  0  0  0
   15.0337  -18.2631  -18.0062 N   0  0  0  0  0  0  0  0  0  0  0  0
   13.9761  -18.8490  -18.4492 N   0  0  0  0  0  0  0  0  0  0  0  0
   16.0382  -19.0516  -17.3882 C   0  0  0  0  0  0  0  0  0  0  0  0
   17.2109  -18.4610  -16.7820 C   0  0  0  0  0  0  0  0  0  0  0  0
   18.1396  -19.5675  -16.3656 C   0  0  0  0  0  0  0  0  0  0  0  0
   19.4134  -19.0732  -15.7429 C   0  0  1  0  0  0  0  0  0  0  0  0
   20.2890  -20.1972  -15.3137 N   0  0  0  0  0  0  0  0  0  0  0  0
   21.3961  -20.4107  -16.2394 C   0  0  0  0  0  0  0  0  0  0  0  0
   19.5965  -21.4823  -15.1426 O   0  0  0  0  0  0  0  0  0  0  0  0
   18.9386  -21.7877  -13.9459 O   0  0  0  0  0  0  0  0  0  0  0  0
  1  2  1  0
  2  3  2  0
  4  5  1  0
  4  2  1  0
  5  6  1  0
  7  8  1  0
  7  6  1  0
  8  9  1  1
 10 12  1  0
 10  8  1  0
 11 10  2  0
 13 19  1  0
 13 12  1  0
 13 14  1  6
 14 15  1  0
 16 15  1  0
 17 16  1  0
 18 17  1  0
 19 20  2  0
 22 23  2  0
 22 21  1  0
 24 22  1  0
 25 24  1  0
 26 25  1  0
 27 26  1  0
 28 27  1  1
 29 28  1  0
 29 19  1  0
 30 31  1  0
 30 28  1  0
 32 30  2  0
M  END
$$$$
