APT.pdb
     RDKit          3D

 20 20  0  0  1  0  0  0  0  0999 V2000
   17.6889  -19.1678    2.2677 C   0  0  0  0  0  0  0  0  0  0  0  0
   16.7273  -20.0467    3.0768 C   0  0  2  0  0  0  0  0  0  0  0  0
   15.4947  -19.3590    3.1519 N   0  0  0  0  0  0  0  0  0  0  0  0
   17.4027  -20.3829    4.3193 C   0  0  0  0  0  0  0  0  0  0  0  0
   16.9881  -19.7427    5.3551 O   0  0  0  0  0  0  0  0  0  0  0  0
   18.4442  -21.3121    4.5300 N   0  0  0  0  0  0  0  0  0  0  0  0
   19.0804  -22.1215    3.5273 C   0  0  0  0  0  0  0  0  0  0  0  0
   19.4258  -23.4377    4.2395 C   0  0  0  0  0  0  0  0  0  0  0  0
   19.7385  -22.9762    5.6412 C   0  0  0  0  0  0  0  0  0  0  0  0
   19.0872  -21.6315    5.7862 C   0  0  1  0  0  0  0  0  0  0  0  0
   20.0778  -20.5569    6.1204 C   0  0  0  0  0  0  0  0  0  0  0  0
   20.8205  -20.0838    5.2045 O   0  0  0  0  0  0  0  0  0  0  0  0
   19.4289  -17.2669    7.2359 C   0  0  0  0  0  0  0  0  0  0  0  0
   20.2966  -17.8479    8.3554 C   0  0  1  0  0  0  0  0  0  0  0  0
   19.5295  -18.3046    9.4049 O   0  0  0  0  0  0  0  0  0  0  0  0
   21.1318  -18.9338    7.7240 C   0  0  2  0  0  0  0  0  0  0  0  0
   20.2195  -20.0461    7.4198 N   0  0  0  0  0  0  0  0  0  0  0  0
   22.1037  -19.4025    8.7430 C   0  0  0  0  0  0  0  0  0  0  0  0
   21.9801  -20.6408    9.3415 O   0  0  0  0  0  0  0  0  0  0  0  0
   23.0682  -18.6784    9.0869 O   0  0  0  0  0  0  0  0  0  0  0  0
  2  1  1  6
  2  4  1  0
  2  3  1  0
  4  5  2  0
  6  4  1  0
  7  6  1  0
  8  9  1  0
  8  7  1  0
  9 10  1  0
 10  6  1  0
 10 11  1  6
 11 12  2  0
 11 17  1  0
 14 13  1  6
 14 16  1  0
 15 14  1  0
 16 18  1  0
 16 17  1  1
 18 20  2  0
 18 19  1  0
M  END
$$$$
