APT.pdb
     RDKit          3D

 20 20  0  0  1  0  0  0  0  0999 V2000
   20.3273  -10.9707  -18.7903 C   0  0  0  0  0  0  0  0  0  0  0  0
   20.1861  -11.7255  -17.4628 C   0  0  2  0  0  0  0  0  0  0  0  0
   18.8669  -12.2299  -17.4065 N   0  0  0  0  0  0  0  0  0  0  0  0
   20.6206  -10.8207  -16.4114 C   0  0  0  0  0  0  0  0  0  0  0  0
   19.6936  -10.0831  -15.9101 O   0  0  0  0  0  0  0  0  0  0  0  0
   21.9163  -10.6510  -15.8776 N   0  0  0  0  0  0  0  0  0  0  0  0
   23.1259  -11.2522  -16.3683 C   0  0  0  0  0  0  0  0  0  0  0  0
   23.9808  -11.5031  -15.1172 C   0  0  0  0  0  0  0  0  0  0  0  0
   23.6123  -10.3378  -14.2329 C   0  0  0  0  0  0  0  0  0  0  0  0
   22.2922   -9.8364  -14.7424 C   0  0  1  0  0  0  0  0  0  0  0  0
   22.3589   -8.4000  -15.1668 C   0  0  0  0  0  0  0  0  0  0  0  0
   22.9093   -8.0989  -16.2716 O   0  0  0  0  0  0  0  0  0  0  0  0
   19.8071   -6.2977  -16.1587 C   0  0  0  0  0  0  0  0  0  0  0  0
   20.3798   -5.5501  -14.9516 C   0  0  1  0  0  0  0  0  0  0  0  0
   19.6602   -5.8122  -13.8062 O   0  0  0  0  0  0  0  0  0  0  0  0
   21.8259   -5.9653  -14.8431 C   0  0  2  0  0  0  0  0  0  0  0  0
   21.8315   -7.3619  -14.3834 N   0  0  0  0  0  0  0  0  0  0  0  0
   22.4543   -5.1319  -13.7879 C   0  0  0  0  0  0  0  0  0  0  0  0
   22.7381   -5.6448  -12.5376 O   0  0  0  0  0  0  0  0  0  0  0  0
   22.7445   -3.9321  -14.0095 O   0  0  0  0  0  0  0  0  0  0  0  0
  2  1  1  6
  2  4  1  0
  2  3  1  0
  4  5  2  0
  6  4  1  0
  7  6  1  0
  8  9  1  0
  8  7  1  0
  9 10  1  0
 10  6  1  0
 10 11  1  6
 11 12  2  0
 11 17  1  0
 14 13  1  6
 14 16  1  0
 15 14  1  0
 16 18  1  0
 16 17  1  1
 18 20  2  0
 18 19  1  0
M  END
$$$$
