APT.pdb
     RDKit          3D

 20 20  0  0  1  0  0  0  0  0999 V2000
   21.3847  -12.3522  -16.0063 C   0  0  0  0  0  0  0  0  0  0  0  0
   20.2914  -11.7462  -16.8946 C   0  0  2  0  0  0  0  0  0  0  0  0
   20.6023  -12.0854  -18.2310 N   0  0  0  0  0  0  0  0  0  0  0  0
   20.1950  -10.3377  -16.5485 C   0  0  0  0  0  0  0  0  0  0  0  0
   20.9675   -9.5580  -17.2193 O   0  0  0  0  0  0  0  0  0  0  0  0
   19.3708   -9.7249  -15.5802 N   0  0  0  0  0  0  0  0  0  0  0  0
   18.5981  -10.3954  -14.5708 C   0  0  0  0  0  0  0  0  0  0  0  0
   17.3374   -9.5351  -14.3988 C   0  0  0  0  0  0  0  0  0  0  0  0
   17.8608   -8.1405  -14.6372 C   0  0  0  0  0  0  0  0  0  0  0  0
   19.1434   -8.3075  -15.3992 C   0  0  1  0  0  0  0  0  0  0  0  0
   20.3124   -7.7090  -14.6760 C   0  0  0  0  0  0  0  0  0  0  0  0
   20.8676   -8.3604  -13.7370 O   0  0  0  0  0  0  0  0  0  0  0  0
   23.3712   -6.3416  -16.3747 C   0  0  0  0  0  0  0  0  0  0  0  0
   22.8299   -5.2309  -15.4705 C   0  0  1  0  0  0  0  0  0  0  0  0
   22.0731   -4.3245  -16.1805 O   0  0  0  0  0  0  0  0  0  0  0  0
   22.0494   -5.9172  -14.3773 C   0  0  2  0  0  0  0  0  0  0  0  0
   20.8245   -6.4427  -14.9981 N   0  0  0  0  0  0  0  0  0  0  0  0
   21.6558   -4.8821  -13.3891 C   0  0  0  0  0  0  0  0  0  0  0  0
   22.5888   -4.2703  -12.5754 O   0  0  0  0  0  0  0  0  0  0  0  0
   20.4563   -4.5362  -13.2694 O   0  0  0  0  0  0  0  0  0  0  0  0
  2  1  1  1
  2  4  1  0
  2  3  1  0
  4  5  2  0
  6  4  1  0
  7  6  1  0
  8  9  1  0
  8  7  1  0
  9 10  1  0
 10  6  1  0
 10 11  1  1
 11 12  2  0
 11 17  1  0
 14 13  1  6
 14 16  1  0
 15 14  1  0
 16 18  1  0
 16 17  1  6
 18 20  2  0
 18 19  1  0
M  END
$$$$
