APT.pdb
     RDKit          3D

 20 20  0  0  1  0  0  0  0  0999 V2000
   27.3738  -17.8944  -14.9924 C   0  0  0  0  0  0  0  0  0  0  0  0
   27.6896  -19.3868  -15.1503 C   0  0  2  0  0  0  0  0  0  0  0  0
   28.1473  -19.5800  -16.4735 N   0  0  0  0  0  0  0  0  0  0  0  0
   26.5104  -20.1185  -14.7180 C   0  0  0  0  0  0  0  0  0  0  0  0
   25.7315  -20.5051  -15.6659 O   0  0  0  0  0  0  0  0  0  0  0  0
   26.1166  -20.4541  -13.4046 N   0  0  0  0  0  0  0  0  0  0  0  0
   26.7215  -19.9870  -12.1876 C   0  0  0  0  0  0  0  0  0  0  0  0
   26.5967  -21.1614  -11.2057 C   0  0  0  0  0  0  0  0  0  0  0  0
   25.2854  -21.7867  -11.6122 C   0  0  0  0  0  0  0  0  0  0  0  0
   25.0261  -21.3220  -13.0159 C   0  0  1  0  0  0  0  0  0  0  0  0
   23.7332  -20.5722  -13.1332 C   0  0  0  0  0  0  0  0  0  0  0  0
   23.6140  -19.4388  -12.5715 O   0  0  0  0  0  0  0  0  0  0  0  0
   22.1102  -19.4545  -16.1900 C   0  0  0  0  0  0  0  0  0  0  0  0
   21.0711  -20.3394  -15.4964 C   0  0  1  0  0  0  0  0  0  0  0  0
   21.0688  -21.6168  -16.0128 O   0  0  0  0  0  0  0  0  0  0  0  0
   21.3986  -20.3031  -14.0243 C   0  0  2  0  0  0  0  0  0  0  0  0
   22.6357  -21.0777  -13.8470 N   0  0  0  0  0  0  0  0  0  0  0  0
   20.3085  -21.0075  -13.3044 C   0  0  0  0  0  0  0  0  0  0  0  0
   19.0638  -20.4326  -13.1400 O   0  0  0  0  0  0  0  0  0  0  0  0
   20.4944  -22.1513  -12.8246 O   0  0  0  0  0  0  0  0  0  0  0  0
  2  1  1  6
  2  4  1  0
  2  3  1  0
  4  5  2  0
  6  4  1  0
  7  6  1  0
  8  9  1  0
  8  7  1  0
  9 10  1  0
 10  6  1  0
 10 11  1  1
 11 12  2  0
 11 17  1  0
 14 13  1  6
 14 16  1  0
 15 14  1  0
 16 18  1  0
 16 17  1  6
 18 20  2  0
 18 19  1  0
M  END
$$$$
