APT.pdb
     RDKit          3D

 20 20  0  0  1  0  0  0  0  0999 V2000
   11.9639  -11.2240  -12.1674 C   0  0  0  0  0  0  0  0  0  0  0  0
   12.7814  -12.0874  -11.1988 C   0  0  2  0  0  0  0  0  0  0  0  0
   11.8645  -12.7363  -10.3408 N   0  0  0  0  0  0  0  0  0  0  0  0
   13.7855  -11.2219  -10.6023 C   0  0  0  0  0  0  0  0  0  0  0  0
   13.5168  -10.8162   -9.4115 O   0  0  0  0  0  0  0  0  0  0  0  0
   15.0035  -10.7754  -11.1585 N   0  0  0  0  0  0  0  0  0  0  0  0
   15.4878  -11.0515  -12.4831 C   0  0  0  0  0  0  0  0  0  0  0  0
   17.0136  -11.1494  -12.3359 C   0  0  0  0  0  0  0  0  0  0  0  0
   17.3000  -10.1447  -11.2477 C   0  0  0  0  0  0  0  0  0  0  0  0
   16.0025   -9.9467  -10.5191 C   0  0  1  0  0  0  0  0  0  0  0  0
   15.5502   -8.5176  -10.5486 C   0  0  0  0  0  0  0  0  0  0  0  0
   14.8369   -8.1069  -11.5165 O   0  0  0  0  0  0  0  0  0  0  0  0
   14.2075   -6.3079   -7.4233 C   0  0  0  0  0  0  0  0  0  0  0  0
   15.4449   -5.7330   -8.1177 C   0  0  1  0  0  0  0  0  0  0  0  0
   16.6044   -6.0980   -7.4690 O   0  0  0  0  0  0  0  0  0  0  0  0
   15.3940   -6.2187   -9.5449 C   0  0  2  0  0  0  0  0  0  0  0  0
   15.8869   -7.6040   -9.5379 N   0  0  0  0  0  0  0  0  0  0  0  0
   16.3456   -5.3966  -10.3331 C   0  0  0  0  0  0  0  0  0  0  0  0
   16.0794   -4.0755  -10.6344 O   0  0  0  0  0  0  0  0  0  0  0  0
   17.4229   -5.8871  -10.7473 O   0  0  0  0  0  0  0  0  0  0  0  0
  2  1  1  6
  2  4  1  0
  2  3  1  0
  4  5  2  0
  6  4  1  0
  7  6  1  0
  8  9  1  0
  8  7  1  0
  9 10  1  0
 10  6  1  0
 10 11  1  6
 11 12  2  0
 11 17  1  0
 14 13  1  1
 14 16  1  0
 15 14  1  0
 16 18  1  0
 16 17  1  1
 18 20  2  0
 18 19  1  0
M  END
$$$$
