APT.pdb
     RDKit          3D

 20 20  0  0  1  0  0  0  0  0999 V2000
   19.9693  -11.8054  -15.5951 C   0  0  0  0  0  0  0  0  0  0  0  0
   19.1787  -11.0989  -16.7031 C   0  0  2  0  0  0  0  0  0  0  0  0
   19.5941  -11.6560  -17.9339 N   0  0  0  0  0  0  0  0  0  0  0  0
   19.3517   -9.6696  -16.5032 C   0  0  0  0  0  0  0  0  0  0  0  0
   20.3723   -9.1566  -17.0948 O   0  0  0  0  0  0  0  0  0  0  0  0
   18.5509   -8.7840  -15.7503 N   0  0  0  0  0  0  0  0  0  0  0  0
   17.4607   -9.1454  -14.8865 C   0  0  0  0  0  0  0  0  0  0  0  0
   16.4549   -7.9915  -15.0121 C   0  0  0  0  0  0  0  0  0  0  0  0
   17.3544   -6.7961  -15.2059 C   0  0  0  0  0  0  0  0  0  0  0  0
   18.6674   -7.3433  -15.6857 C   0  0  1  0  0  0  0  0  0  0  0  0
   19.7988   -6.9806  -14.7713 C   0  0  0  0  0  0  0  0  0  0  0  0
   20.0675   -7.7296  -13.7808 O   0  0  0  0  0  0  0  0  0  0  0  0
   23.2241   -6.8595  -15.5987 C   0  0  0  0  0  0  0  0  0  0  0  0
   22.9366   -5.4405  -15.1009 C   0  0  1  0  0  0  0  0  0  0  0  0
   22.6919   -4.5775  -16.1467 O   0  0  0  0  0  0  0  0  0  0  0  0
   21.7717   -5.5532  -14.1492 C   0  0  2  0  0  0  0  0  0  0  0  0
   20.5826   -5.8331  -14.9675 N   0  0  0  0  0  0  0  0  0  0  0  0
   21.5862   -4.2277  -13.5078 C   0  0  0  0  0  0  0  0  0  0  0  0
   22.4577   -3.7662  -12.5411 O   0  0  0  0  0  0  0  0  0  0  0  0
   20.6253   -3.4899  -13.8318 O   0  0  0  0  0  0  0  0  0  0  0  0
  2  1  1  1
  2  4  1  0
  2  3  1  0
  4  5  2  0
  6  4  1  0
  7  6  1  0
  8  9  1  0
  8  7  1  0
  9 10  1  0
 10  6  1  0
 10 11  1  1
 11 12  2  0
 11 17  1  0
 14 13  1  6
 14 16  1  0
 15 14  1  0
 16 18  1  0
 16 17  1  6
 18 20  2  0
 18 19  1  0
M  END
$$$$
