APT.pdb
     RDKit          3D

 20 20  0  0  1  0  0  0  0  0999 V2000
   24.6616  -31.7631   -9.1105 C   0  0  0  0  0  0  0  0  0  0  0  0
   25.0910  -33.2297   -9.2398 C   0  0  2  0  0  0  0  0  0  0  0  0
   24.1041  -33.8884  -10.0079 N   0  0  0  0  0  0  0  0  0  0  0  0
   25.3522  -33.7159   -7.8951 C   0  0  0  0  0  0  0  0  0  0  0  0
   24.3440  -34.2547   -7.3053 O   0  0  0  0  0  0  0  0  0  0  0  0
   26.5585  -33.6715   -7.1632 N   0  0  0  0  0  0  0  0  0  0  0  0
   27.7112  -32.8692   -7.4675 C   0  0  0  0  0  0  0  0  0  0  0  0
   28.9135  -33.7189   -7.0298 C   0  0  0  0  0  0  0  0  0  0  0  0
   28.3716  -34.4543   -5.8293 C   0  0  0  0  0  0  0  0  0  0  0  0
   26.8768  -34.4107   -5.9608 C   0  0  1  0  0  0  0  0  0  0  0  0
   26.2253  -33.7453   -4.7859 C   0  0  0  0  0  0  0  0  0  0  0  0
   26.2784  -32.4807   -4.6742 O   0  0  0  0  0  0  0  0  0  0  0  0
   22.6936  -34.3559   -3.6131 C   0  0  0  0  0  0  0  0  0  0  0  0
   23.6067  -34.5919   -2.4071 C   0  0  1  0  0  0  0  0  0  0  0  0
   23.8424  -35.9344   -2.2061 O   0  0  0  0  0  0  0  0  0  0  0  0
   24.8684  -33.8085   -2.6712 C   0  0  2  0  0  0  0  0  0  0  0  0
   25.5510  -34.4715   -3.7922 N   0  0  0  0  0  0  0  0  0  0  0  0
   25.7323  -33.9306   -1.4706 C   0  0  0  0  0  0  0  0  0  0  0  0
   25.4225  -33.2837   -0.2906 O   0  0  0  0  0  0  0  0  0  0  0  0
   26.7726  -34.6304   -1.5003 O   0  0  0  0  0  0  0  0  0  0  0  0
  2  1  1  1
  2  4  1  0
  2  3  1  0
  4  5  2  0
  6  4  1  0
  7  6  1  0
  8  9  1  0
  8  7  1  0
  9 10  1  0
 10  6  1  0
 10 11  1  1
 11 12  2  0
 11 17  1  0
 14 13  1  6
 14 16  1  0
 15 14  1  0
 16 18  1  0
 16 17  1  6
 18 20  2  0
 18 19  1  0
M  END
$$$$
