APT.pdb
     RDKit          3D

 20 20  0  0  1  0  0  0  0  0999 V2000
   27.6177  -18.1750  -16.0950 C   0  0  0  0  0  0  0  0  0  0  0  0
   28.0407  -19.6487  -16.1286 C   0  0  2  0  0  0  0  0  0  0  0  0
   27.5189  -20.2068  -17.3177 N   0  0  0  0  0  0  0  0  0  0  0  0
   27.6384  -20.2351  -14.8608 C   0  0  0  0  0  0  0  0  0  0  0  0
   26.4612  -20.7535  -14.8497 O   0  0  0  0  0  0  0  0  0  0  0  0
   28.3678  -20.3061  -13.6543 N   0  0  0  0  0  0  0  0  0  0  0  0
   29.5893  -19.6110  -13.3544 C   0  0  0  0  0  0  0  0  0  0  0  0
   30.3813  -20.5702  -12.4534 C   0  0  0  0  0  0  0  0  0  0  0  0
   29.2893  -21.2603  -11.6744 C   0  0  0  0  0  0  0  0  0  0  0  0
   28.0340  -21.0789  -12.4775 C   0  0  1  0  0  0  0  0  0  0  0  0
   26.9669  -20.3639  -11.7044 C   0  0  0  0  0  0  0  0  0  0  0  0
   27.0360  -19.1033  -11.5614 O   0  0  0  0  0  0  0  0  0  0  0  0
   23.4929  -20.0408  -12.3510 C   0  0  0  0  0  0  0  0  0  0  0  0
   23.5207  -20.6982  -10.9686 C   0  0  1  0  0  0  0  0  0  0  0  0
   23.3254  -22.0596  -11.0519 O   0  0  0  0  0  0  0  0  0  0  0  0
   24.8483  -20.3333  -10.3525 C   0  0  2  0  0  0  0  0  0  0  0  0
   25.8814  -21.0389  -11.1251 N   0  0  0  0  0  0  0  0  0  0  0  0
   24.8635  -20.8694   -8.9686 C   0  0  0  0  0  0  0  0  0  0  0  0
   24.0070  -20.3867   -7.9989 O   0  0  0  0  0  0  0  0  0  0  0  0
   25.6615  -21.7812   -8.6452 O   0  0  0  0  0  0  0  0  0  0  0  0
  2  1  1  1
  2  4  1  0
  2  3  1  0
  4  5  2  0
  6  4  1  0
  7  6  1  0
  8  9  1  0
  8  7  1  0
  9 10  1  0
 10  6  1  0
 10 11  1  1
 11 12  2  0
 11 17  1  0
 14 13  1  6
 14 16  1  0
 15 14  1  0
 16 18  1  0
 16 17  1  6
 18 20  2  0
 18 19  1  0
M  END
$$$$
