APT.pdb
     RDKit          3D

 20 20  0  0  1  0  0  0  0  0999 V2000
   20.1867   -8.6207  -18.5999 C   0  0  0  0  0  0  0  0  0  0  0  0
   20.0418   -9.9162  -17.7921 C   0  0  2  0  0  0  0  0  0  0  0  0
   18.7316  -10.4002  -18.0090 N   0  0  0  0  0  0  0  0  0  0  0  0
   20.4452   -9.6141  -16.4287 C   0  0  0  0  0  0  0  0  0  0  0  0
   19.5004   -9.1996  -15.6604 O   0  0  0  0  0  0  0  0  0  0  0  0
   21.7279   -9.7164  -15.8484 N   0  0  0  0  0  0  0  0  0  0  0  0
   22.9463  -10.0605  -16.5285 C   0  0  0  0  0  0  0  0  0  0  0  0
   23.7679  -10.8485  -15.4974 C   0  0  0  0  0  0  0  0  0  0  0  0
   23.3835  -10.1834  -14.1990 C   0  0  0  0  0  0  0  0  0  0  0  0
   22.0794   -9.4884  -14.4635 C   0  0  1  0  0  0  0  0  0  0  0  0
   22.1645   -8.0127  -14.2129 C   0  0  0  0  0  0  0  0  0  0  0  0
   22.4408   -7.5910  -13.0467 O   0  0  0  0  0  0  0  0  0  0  0  0
   24.3767   -5.5485  -15.9329 C   0  0  0  0  0  0  0  0  0  0  0  0
   22.9313   -5.1002  -16.1654 C   0  0  1  0  0  0  0  0  0  0  0  0
   22.4550   -5.5387  -17.3816 O   0  0  0  0  0  0  0  0  0  0  0  0
   22.1320   -5.6257  -14.9990 C   0  0  2  0  0  0  0  0  0  0  0  0
   21.9487   -7.0667  -15.2268 N   0  0  0  0  0  0  0  0  0  0  0  0
   20.7962   -4.9802  -15.0431 C   0  0  0  0  0  0  0  0  0  0  0  0
   20.6221   -3.6582  -14.6843 O   0  0  0  0  0  0  0  0  0  0  0  0
   19.7861   -5.6264  -15.4104 O   0  0  0  0  0  0  0  0  0  0  0  0
  2  1  1  6
  2  4  1  0
  2  3  1  0
  4  5  2  0
  6  4  1  0
  7  6  1  0
  8  9  1  0
  8  7  1  0
  9 10  1  0
 10  6  1  0
 10 11  1  6
 11 12  2  0
 11 17  1  0
 14 13  1  1
 14 16  1  0
 15 14  1  0
 16 18  1  0
 16 17  1  6
 18 20  2  0
 18 19  1  0
M  END
$$$$
