APT.pdb
     RDKit          3D

 20 20  0  0  1  0  0  0  0  0999 V2000
   14.5703  -21.7513    0.6487 C   0  0  0  0  0  0  0  0  0  0  0  0
   14.9549  -22.8767    1.6169 C   0  0  2  0  0  0  0  0  0  0  0  0
   13.9068  -23.8247    1.5940 N   0  0  0  0  0  0  0  0  0  0  0  0
   15.2866  -22.2504    2.8860 C   0  0  0  0  0  0  0  0  0  0  0  0
   14.3107  -22.1575    3.7190 O   0  0  0  0  0  0  0  0  0  0  0  0
   16.5296  -21.7368    3.3144 N   0  0  0  0  0  0  0  0  0  0  0  0
   17.7159  -21.5982    2.5152 C   0  0  0  0  0  0  0  0  0  0  0  0
   18.8800  -21.8506    3.4849 C   0  0  0  0  0  0  0  0  0  0  0  0
   18.3537  -21.2819    4.7792 C   0  0  0  0  0  0  0  0  0  0  0  0
   16.8603  -21.2391    4.6322 C   0  0  1  0  0  0  0  0  0  0  0  0
   16.3170  -19.8502    4.7854 C   0  0  0  0  0  0  0  0  0  0  0  0
   16.3925  -19.0378    3.8115 O   0  0  0  0  0  0  0  0  0  0  0  0
   12.9092  -18.9947    6.4217 C   0  0  0  0  0  0  0  0  0  0  0  0
   14.0090  -18.1720    7.0982 C   0  0  1  0  0  0  0  0  0  0  0  0
   14.4052  -18.7397    8.2894 O   0  0  0  0  0  0  0  0  0  0  0  0
   15.1330  -18.0636    6.0981 C   0  0  2  0  0  0  0  0  0  0  0  0
   15.7210  -19.4057    5.9757 N   0  0  0  0  0  0  0  0  0  0  0  0
   16.1616  -17.1624    6.6747 C   0  0  0  0  0  0  0  0  0  0  0  0
   15.9783  -15.7945    6.7197 O   0  0  0  0  0  0  0  0  0  0  0  0
   17.2304  -17.6266    7.1384 O   0  0  0  0  0  0  0  0  0  0  0  0
  2  1  1  6
  2  4  1  0
  2  3  1  0
  4  5  2  0
  6  4  1  0
  7  6  1  0
  8  9  1  0
  8  7  1  0
  9 10  1  0
 10  6  1  0
 10 11  1  6
 11 12  2  0
 11 17  1  0
 14 13  1  6
 14 16  1  0
 15 14  1  0
 16 18  1  0
 16 17  1  1
 18 20  2  0
 18 19  1  0
M  END
$$$$
