RTY.pdb
     RDKit          3D

 31 31  0  0  1  0  0  0  0  0999 V2000
   10.0131  -15.7938   12.8312 N   0  0  0  0  0  0  0  0  0  0  0  0
    9.1691  -14.6653   12.9560 C   0  0  0  0  0  0  0  0  0  0  0  0
    8.9054  -13.8496   11.9899 N   0  0  0  0  0  0  0  0  0  0  0  0
    8.5750  -14.4148   14.2348 N   0  0  0  0  0  0  0  0  0  0  0  0
    8.4395  -15.4777   15.2047 C   0  0  0  0  0  0  0  0  0  0  0  0
    9.7857  -15.8007   15.7919 C   0  0  0  0  0  0  0  0  0  0  0  0
    9.9653  -15.0131   17.0585 C   0  0  0  0  0  0  0  0  0  0  0  0
   10.0579  -15.9237   18.2711 C   0  0  2  0  0  0  0  0  0  0  0  0
    9.0266  -16.9095   18.1354 N   0  0  0  0  0  0  0  0  0  0  0  0
    9.7893  -15.0780   19.4699 C   0  0  0  0  0  0  0  0  0  0  0  0
   10.5451  -14.1182   19.7662 O   0  0  0  0  0  0  0  0  0  0  0  0
    8.1483  -13.1357   12.0761 C   0  0  0  0  0  0  0  0  0  0  0  0
    6.7703  -13.1504   20.3183 C   0  0  2  0  0  0  0  0  0  0  0  0
    7.0055  -14.0022   21.5506 O   0  0  0  0  0  0  0  0  0  0  0  0
    6.1408  -15.0643   21.4848 C   0  0  2  0  0  0  0  0  0  0  0  0
    8.4432  -14.4928   21.4660 N   0  0  0  0  0  0  0  0  0  0  0  0
    8.6857  -15.3067   20.3252 C   0  0  0  0  0  0  0  0  0  0  0  0
    8.8330  -15.1718   22.7415 O   0  0  0  0  0  0  0  0  0  0  0  0
    8.9244  -16.4238   22.8274 O   0  0  0  0  0  0  0  0  0  0  0  0
   11.0331  -16.9293   31.0792 C   0  0  0  0  0  0  0  0  0  0  0  0
   10.7287  -16.2286   29.9061 C   0  0  0  0  0  0  0  0  0  0  0  0
   10.0372  -15.0400   29.9228 C   0  0  0  0  0  0  0  0  0  0  0  0
    9.7554  -14.3750   28.7473 C   0  0  0  0  0  0  0  0  0  0  0  0
   10.1482  -14.8620   27.4958 C   0  0  0  0  0  0  0  0  0  0  0  0
    9.8172  -14.1537   26.2465 C   0  0  2  0  0  0  0  0  0  0  0  0
    9.3081  -15.1105   25.2286 N   0  0  0  0  0  0  0  0  0  0  0  0
    9.1227  -14.4469   23.9260 C   0  0  0  0  0  0  0  0  0  0  0  0
    8.0960  -15.8170   25.6336 O   0  0  0  0  0  0  0  0  0  0  0  0
    8.1408  -16.9698   26.1859 C   0  0  0  0  0  0  0  0  0  0  0  0
   10.8400  -16.0577   27.5173 C   0  0  0  0  0  0  0  0  0  0  0  0
   11.1327  -16.7404   28.6942 O   0  0  0  0  0  0  0  0  0  0  0  0
  1  2  1  0
  2  3  2  0
  4  2  1  0
  4  5  1  0
  6  5  1  0
  7  6  1  0
  8  7  1  0
  8  9  1  6
 10  8  1  0
 10 11  2  0
 13 12  1  1
 13 15  1  0
 14 13  1  0
 15 16  1  1
 15 17  1  0
 16 10  1  0
 17 18  2  0
 17 26  1  0
 19 20  1  0
 20 21  2  0
 20 30  1  0
 21 22  1  0
 22 23  2  0
 23 24  1  0
 25 24  1  6
 25 27  1  0
 26 25  1  0
 27 28  2  0
 27 31  1  0
 29 23  1  0
 30 29  2  0
M  END
$$$$
