RTY.pdb
     RDKit          3D

 31 31  0  0  1  0  0  0  0  0999 V2000
    8.4136  -13.2136   16.6966 N   0  0  0  0  0  0  0  0  0  0  0  0
    8.5294  -12.9713   18.0857 C   0  0  0  0  0  0  0  0  0  0  0  0
    8.2860  -11.8320   18.6434 N   0  0  0  0  0  0  0  0  0  0  0  0
    8.9446  -14.0587   18.9201 N   0  0  0  0  0  0  0  0  0  0  0  0
    8.0783  -15.1956   19.1335 C   0  0  0  0  0  0  0  0  0  0  0  0
    6.8556  -14.7634   19.8950 C   0  0  0  0  0  0  0  0  0  0  0  0
    7.0495  -15.0858   21.3494 C   0  0  0  0  0  0  0  0  0  0  0  0
    7.7637  -16.4140   21.5340 C   0  0  2  0  0  0  0  0  0  0  0  0
    7.0220  -17.3952   20.7987 N   0  0  0  0  0  0  0  0  0  0  0  0
    7.7139  -16.7344   22.9899 C   0  0  0  0  0  0  0  0  0  0  0  0
    6.6715  -16.5283   23.6616 O   0  0  0  0  0  0  0  0  0  0  0  0
    8.4980  -11.6674   19.6525 C   0  0  0  0  0  0  0  0  0  0  0  0
    8.2616  -19.9546   24.5340 C   0  0  2  0  0  0  0  0  0  0  0  0
    9.1843  -19.0574   25.3362 O   0  0  0  0  0  0  0  0  0  0  0  0
   10.4573  -19.2555   24.8668 C   0  0  2  0  0  0  0  0  0  0  0  0
    8.7418  -17.6283   25.0594 N   0  0  0  0  0  0  0  0  0  0  0  0
    8.8202  -17.2797   23.6829 C   0  0  0  0  0  0  0  0  0  0  0  0
    9.4987  -16.6755   25.9307 O   0  0  0  0  0  0  0  0  0  0  0  0
   10.4576  -15.9900   25.4904 O   0  0  0  0  0  0  0  0  0  0  0  0
    6.5771  -11.6515   24.5830 C   0  0  0  0  0  0  0  0  0  0  0  0
    7.2053  -12.3670   25.6093 C   0  0  0  0  0  0  0  0  0  0  0  0
    6.4931  -13.0683   26.5538 C   0  0  0  0  0  0  0  0  0  0  0  0
    7.1449  -13.7640   27.5511 C   0  0  0  0  0  0  0  0  0  0  0  0
    8.5397  -13.7949   27.6573 C   0  0  0  0  0  0  0  0  0  0  0  0
    9.2213  -14.5211   28.7436 C   0  0  2  0  0  0  0  0  0  0  0  0
   10.0076  -15.6565   28.1930 N   0  0  0  0  0  0  0  0  0  0  0  0
    9.1809  -16.4880   27.3005 C   0  0  0  0  0  0  0  0  0  0  0  0
   10.6623  -16.4729   29.2116 O   0  0  0  0  0  0  0  0  0  0  0  0
   10.4168  -17.7221   29.3342 C   0  0  0  0  0  0  0  0  0  0  0  0
    9.2221  -13.0795   26.6923 C   0  0  0  0  0  0  0  0  0  0  0  0
    8.5796  -12.3732   25.6797 O   0  0  0  0  0  0  0  0  0  0  0  0
  1  2  1  0
  2  3  2  0
  4  2  1  0
  4  5  1  0
  6  5  1  0
  7  6  1  0
  8  7  1  0
  8  9  1  6
 10  8  1  0
 10 11  2  0
 13 12  1  1
 13 15  1  0
 14 13  1  0
 15 16  1  1
 15 17  1  0
 16 10  1  0
 17 18  2  0
 17 26  1  0
 19 20  1  0
 20 21  2  0
 20 30  1  0
 21 22  1  0
 22 23  2  0
 23 24  1  0
 25 24  1  6
 25 27  1  0
 26 25  1  0
 27 28  2  0
 27 31  1  0
 29 23  1  0
 30 29  2  0
M  END
$$$$
