RTY.pdb
     RDKit          3D

 31 31  0  0  1  0  0  0  0  0999 V2000
    0.7459  -19.4762   20.7784 N   0  0  0  0  0  0  0  0  0  0  0  0
    0.6419  -20.3433   21.8915 C   0  0  0  0  0  0  0  0  0  0  0  0
   -0.4532  -20.5553   22.5426 N   0  0  0  0  0  0  0  0  0  0  0  0
    1.8270  -21.0234   22.3203 N   0  0  0  0  0  0  0  0  0  0  0  0
    3.1317  -20.4460   22.0894 C   0  0  0  0  0  0  0  0  0  0  0  0
    3.2528  -19.1522   22.8463 C   0  0  0  0  0  0  0  0  0  0  0  0
    4.6577  -18.6383   22.7088 C   0  0  0  0  0  0  0  0  0  0  0  0
    4.9930  -18.3163   21.2624 C   0  0  2  0  0  0  0  0  0  0  0  0
    5.1202  -19.5660   20.5728 N   0  0  0  0  0  0  0  0  0  0  0  0
    6.3068  -17.6104   21.2687 C   0  0  0  0  0  0  0  0  0  0  0  0
    7.3857  -18.2534   21.3209 O   0  0  0  0  0  0  0  0  0  0  0  0
   -0.4976  -21.2606   23.3114 C   0  0  0  0  0  0  0  0  0  0  0  0
    6.6143  -13.3982   20.7127 C   0  0  2  0  0  0  0  0  0  0  0  0
    7.6816  -14.3546   20.2171 O   0  0  0  0  0  0  0  0  0  0  0  0
    8.8847  -13.7015   20.2963 C   0  0  1  0  0  0  0  0  0  0  0  0
    7.6686  -15.5429   21.1670 N   0  0  0  0  0  0  0  0  0  0  0  0
    6.4083  -16.2001   21.2165 C   0  0  0  0  0  0  0  0  0  0  0  0
    8.1450  -15.1253   22.5229 O   0  0  0  0  0  0  0  0  0  0  0  0
    7.5730  -14.2160   23.1780 O   0  0  0  0  0  0  0  0  0  0  0  0
   10.4769  -14.4200   30.7762 C   0  0  0  0  0  0  0  0  0  0  0  0
   10.0229  -14.6561   29.4732 C   0  0  0  0  0  0  0  0  0  0  0  0
    9.6422  -13.6345   28.6351 C   0  0  0  0  0  0  0  0  0  0  0  0
    9.2008  -13.9032   27.3559 C   0  0  0  0  0  0  0  0  0  0  0  0
    9.1163  -15.2043   26.8481 C   0  0  0  0  0  0  0  0  0  0  0  0
    8.6181  -15.4777   25.4882 C   0  0  1  0  0  0  0  0  0  0  0  0
    9.7176  -15.3394   24.4970 N   0  0  0  0  0  0  0  0  0  0  0  0
    9.2659  -15.7285   23.1493 C   0  0  0  0  0  0  0  0  0  0  0  0
   10.9396  -16.0491   24.8648 O   0  0  0  0  0  0  0  0  0  0  0  0
   11.1923  -17.2253   24.4308 C   0  0  0  0  0  0  0  0  0  0  0  0
    9.5063  -16.2046   27.7174 C   0  0  0  0  0  0  0  0  0  0  0  0
    9.9544  -15.9502   29.0102 O   0  0  0  0  0  0  0  0  0  0  0  0
  1  2  1  0
  2  3  2  0
  4  2  1  0
  4  5  1  0
  6  5  1  0
  7  6  1  0
  8  7  1  0
  8  9  1  6
 10  8  1  0
 10 11  2  0
 13 12  1  6
 13 15  1  0
 14 13  1  0
 15 16  1  6
 15 17  1  0
 16 10  1  0
 17 18  2  0
 17 26  1  0
 19 20  1  0
 20 21  2  0
 20 30  1  0
 21 22  1  0
 22 23  2  0
 23 24  1  0
 25 24  1  6
 25 27  1  0
 26 25  1  0
 27 28  2  0
 27 31  1  0
 29 23  1  0
 30 29  2  0
M  END
$$$$
