RTY.pdb
     RDKit          3D

 31 31  0  0  1  0  0  0  0  0999 V2000
   13.5217  -17.7772   16.3727 N   0  0  0  0  0  0  0  0  0  0  0  0
   13.2283  -18.6551   15.3027 C   0  0  0  0  0  0  0  0  0  0  0  0
   14.1256  -19.2581   14.5958 N   0  0  0  0  0  0  0  0  0  0  0  0
   11.8505  -18.8839   14.9862 N   0  0  0  0  0  0  0  0  0  0  0  0
   10.8142  -18.5817   15.9471 C   0  0  0  0  0  0  0  0  0  0  0  0
   10.7344  -17.0942   16.1532 C   0  0  0  0  0  0  0  0  0  0  0  0
    9.5842  -16.7915   17.0710 C   0  0  0  0  0  0  0  0  0  0  0  0
    9.7538  -17.4727   18.4183 C   0  0  2  0  0  0  0  0  0  0  0  0
    8.7253  -18.4655   18.5192 N   0  0  0  0  0  0  0  0  0  0  0  0
    9.5465  -16.4274   19.4618 C   0  0  0  0  0  0  0  0  0  0  0  0
   10.3093  -15.4311   19.5390 O   0  0  0  0  0  0  0  0  0  0  0  0
   13.8589  -19.9172   13.8311 C   0  0  0  0  0  0  0  0  0  0  0  0
    6.3060  -14.6364   20.2192 C   0  0  2  0  0  0  0  0  0  0  0  0
    6.8107  -15.1361   21.5591 O   0  0  0  0  0  0  0  0  0  0  0  0
    6.1049  -16.2713   21.8645 C   0  0  2  0  0  0  0  0  0  0  0  0
    8.2821  -15.4717   21.3662 N   0  0  0  0  0  0  0  0  0  0  0  0
    8.4958  -16.4993   20.4065 C   0  0  0  0  0  0  0  0  0  0  0  0
    8.9175  -15.7846   22.6846 O   0  0  0  0  0  0  0  0  0  0  0  0
    9.2377  -16.9580   23.0068 O   0  0  0  0  0  0  0  0  0  0  0  0
   11.0607  -15.2034   31.2218 C   0  0  0  0  0  0  0  0  0  0  0  0
   10.7132  -14.8519   29.9120 C   0  0  0  0  0  0  0  0  0  0  0  0
    9.9015  -13.7770   29.6342 C   0  0  0  0  0  0  0  0  0  0  0  0
    9.5802  -13.4581   28.3309 C   0  0  0  0  0  0  0  0  0  0  0  0
   10.0515  -14.1952   27.2390 C   0  0  0  0  0  0  0  0  0  0  0  0
    9.6785  -13.8580   25.8536 C   0  0  2  0  0  0  0  0  0  0  0  0
    9.4505  -15.0966   25.0633 N   0  0  0  0  0  0  0  0  0  0  0  0
    9.1969  -14.7801   23.6466 C   0  0  0  0  0  0  0  0  0  0  0  0
    8.4030  -15.9593   25.6027 O   0  0  0  0  0  0  0  0  0  0  0  0
    7.1623  -15.6978   25.4355 C   0  0  0  0  0  0  0  0  0  0  0  0
   10.8633  -15.2673   27.5556 C   0  0  0  0  0  0  0  0  0  0  0  0
   11.1972  -15.6018   28.8646 O   0  0  0  0  0  0  0  0  0  0  0  0
  1  2  1  0
  2  3  2  0
  4  2  1  0
  4  5  1  0
  6  5  1  0
  7  6  1  0
  8  7  1  0
  8  9  1  1
 10  8  1  0
 10 11  2  0
 13 12  1  1
 13 15  1  0
 14 13  1  0
 15 16  1  1
 15 17  1  0
 16 10  1  0
 17 18  2  0
 17 26  1  0
 19 20  1  0
 20 21  2  0
 20 30  1  0
 21 22  1  0
 22 23  2  0
 23 24  1  0
 25 24  1  6
 25 27  1  0
 26 25  1  0
 27 28  2  0
 27 31  1  0
 29 23  1  0
 30 29  2  0
M  END
$$$$
