RTY.pdb
     RDKit          3D

 31 31  0  0  1  0  0  0  0  0999 V2000
    9.8904  -13.6273   20.3741 N   0  0  0  0  0  0  0  0  0  0  0  0
    8.9467  -12.6058   20.1146 C   0  0  0  0  0  0  0  0  0  0  0  0
    9.2565  -11.4277   19.6849 N   0  0  0  0  0  0  0  0  0  0  0  0
    7.5644  -12.8999   20.3465 N   0  0  0  0  0  0  0  0  0  0  0  0
    7.0145  -14.1864   19.9840 C   0  0  0  0  0  0  0  0  0  0  0  0
    6.9891  -15.0832   21.1908 C   0  0  0  0  0  0  0  0  0  0  0  0
    6.5475  -16.4554   20.7675 C   0  0  0  0  0  0  0  0  0  0  0  0
    7.7340  -17.3401   20.4242 C   0  0  2  0  0  0  0  0  0  0  0  0
    7.2196  -18.4777   19.7207 N   0  0  0  0  0  0  0  0  0  0  0  0
    8.3358  -17.7790   21.7164 C   0  0  0  0  0  0  0  0  0  0  0  0
    8.2924  -18.9836   22.0734 O   0  0  0  0  0  0  0  0  0  0  0  0
    8.5224  -10.7076   19.5037 C   0  0  0  0  0  0  0  0  0  0  0  0
   10.3020  -19.1631   22.1496 C   0  0  2  0  0  0  0  0  0  0  0  0
   10.9046  -18.2680   23.2151 O   0  0  0  0  0  0  0  0  0  0  0  0
   11.9125  -17.5503   22.6242 C   0  0  2  0  0  0  0  0  0  0  0  0
    9.7939  -17.3327   23.6692 N   0  0  0  0  0  0  0  0  0  0  0  0
    8.9788  -16.8770   22.5965 C   0  0  0  0  0  0  0  0  0  0  0  0
   10.3644  -16.2033   24.4685 O   0  0  0  0  0  0  0  0  0  0  0  0
   10.4310  -15.0326   24.0122 O   0  0  0  0  0  0  0  0  0  0  0  0
    5.9094  -11.3259   25.5721 C   0  0  0  0  0  0  0  0  0  0  0  0
    6.6115  -12.4909   25.9034 C   0  0  0  0  0  0  0  0  0  0  0  0
    7.9283  -12.4636   26.2992 C   0  0  0  0  0  0  0  0  0  0  0  0
    8.5894  -13.6312   26.6199 C   0  0  0  0  0  0  0  0  0  0  0  0
    7.9712  -14.8850   26.5615 C   0  0  0  0  0  0  0  0  0  0  0  0
    8.6980  -16.1265   26.8820 C   0  0  2  0  0  0  0  0  0  0  0  0
   10.1586  -15.8627   26.9699 N   0  0  0  0  0  0  0  0  0  0  0  0
   10.8619  -16.3843   25.7847 C   0  0  0  0  0  0  0  0  0  0  0  0
   10.7754  -16.3491   28.2010 O   0  0  0  0  0  0  0  0  0  0  0  0
   11.1780  -17.5571   28.3212 C   0  0  0  0  0  0  0  0  0  0  0  0
    6.6494  -14.8743   26.1599 C   0  0  0  0  0  0  0  0  0  0  0  0
    5.9682  -13.7054   25.8336 O   0  0  0  0  0  0  0  0  0  0  0  0
  1  2  1  0
  2  3  2  0
  4  2  1  0
  4  5  1  0
  6  5  1  0
  7  6  1  0
  8  7  1  0
  8  9  1  1
 10  8  1  0
 10 11  2  0
 13 12  1  1
 13 15  1  0
 14 13  1  0
 15 16  1  1
 15 17  1  0
 16 10  1  0
 17 18  2  0
 17 26  1  0
 19 20  1  0
 20 21  2  0
 20 30  1  0
 21 22  1  0
 22 23  2  0
 23 24  1  0
 25 24  1  6
 25 27  1  0
 26 25  1  0
 27 28  2  0
 27 31  1  0
 29 23  1  0
 30 29  2  0
M  END
$$$$
