RTY.pdb
     RDKit          3D

 31 31  0  0  1  0  0  0  0  0999 V2000
    7.9998  -12.4118   16.9405 N   0  0  0  0  0  0  0  0  0  0  0  0
    8.3126  -13.7858   16.8150 C   0  0  0  0  0  0  0  0  0  0  0  0
    8.1280  -14.4736   15.7374 N   0  0  0  0  0  0  0  0  0  0  0  0
    8.8652  -14.4511   17.9565 N   0  0  0  0  0  0  0  0  0  0  0  0
    9.0329  -13.7488   19.2085 C   0  0  0  0  0  0  0  0  0  0  0  0
    7.7042  -13.6291   19.9026 C   0  0  0  0  0  0  0  0  0  0  0  0
    7.8299  -14.1858   21.2923 C   0  0  0  0  0  0  0  0  0  0  0  0
    8.0936  -15.6819   21.2702 C   0  0  2  0  0  0  0  0  0  0  0  0
    7.0232  -16.2860   20.5334 N   0  0  0  0  0  0  0  0  0  0  0  0
    8.0553  -16.1498   22.6859 C   0  0  0  0  0  0  0  0  0  0  0  0
    6.9717  -16.1986   23.3213 O   0  0  0  0  0  0  0  0  0  0  0  0
    8.3619  -15.4905   15.6980 C   0  0  0  0  0  0  0  0  0  0  0  0
    8.6657  -19.3476   23.8893 C   0  0  2  0  0  0  0  0  0  0  0  0
    9.6202  -18.5503   24.7570 O   0  0  0  0  0  0  0  0  0  0  0  0
   10.8699  -18.6680   24.2052 C   0  0  2  0  0  0  0  0  0  0  0  0
    9.1541  -17.1035   24.6914 N   0  0  0  0  0  0  0  0  0  0  0  0
    9.2188  -16.5584   23.3794 C   0  0  0  0  0  0  0  0  0  0  0  0
    9.9015  -16.2745   25.6883 O   0  0  0  0  0  0  0  0  0  0  0  0
   10.9064  -15.5901   25.3643 O   0  0  0  0  0  0  0  0  0  0  0  0
    6.0844  -11.7753   25.0637 C   0  0  0  0  0  0  0  0  0  0  0  0
    6.9085  -12.4436   25.9771 C   0  0  0  0  0  0  0  0  0  0  0  0
    6.4013  -13.1093   27.0684 C   0  0  0  0  0  0  0  0  0  0  0  0
    7.2426  -13.7588   27.9480 C   0  0  0  0  0  0  0  0  0  0  0  0
    8.6321  -13.7767   27.7842 C   0  0  0  0  0  0  0  0  0  0  0  0
    9.5202  -14.4529   28.7466 C   0  0  2  0  0  0  0  0  0  0  0  0
   10.3275  -15.4962   28.0608 N   0  0  0  0  0  0  0  0  0  0  0  0
    9.5225  -16.2101   27.0539 C   0  0  0  0  0  0  0  0  0  0  0  0
   10.9797  -16.4340   28.9706 O   0  0  0  0  0  0  0  0  0  0  0  0
   10.7586  -17.6924   28.9134 C   0  0  0  0  0  0  0  0  0  0  0  0
    9.1058  -13.0980   26.6781 C   0  0  0  0  0  0  0  0  0  0  0  0
    8.2705  -12.4385   25.7812 O   0  0  0  0  0  0  0  0  0  0  0  0
  1  2  1  0
  2  3  2  0
  4  2  1  0
  4  5  1  0
  6  5  1  0
  7  6  1  0
  8  7  1  0
  8  9  1  6
 10  8  1  0
 10 11  2  0
 13 12  1  1
 13 15  1  0
 14 13  1  0
 15 16  1  1
 15 17  1  0
 16 10  1  0
 17 18  2  0
 17 26  1  0
 19 20  1  0
 20 21  2  0
 20 30  1  0
 21 22  1  0
 22 23  2  0
 23 24  1  0
 25 24  1  6
 25 27  1  0
 26 25  1  0
 27 28  2  0
 27 31  1  0
 29 23  1  0
 30 29  2  0
M  END
$$$$
