RTY.pdb
     RDKit          3D

 31 31  0  0  1  0  0  0  0  0999 V2000
   12.8475  -16.3180   15.1474 N   0  0  0  0  0  0  0  0  0  0  0  0
   13.7769  -17.3745   15.2940 C   0  0  0  0  0  0  0  0  0  0  0  0
   14.6684  -17.6806   14.4108 N   0  0  0  0  0  0  0  0  0  0  0  0
   13.7202  -18.1510   16.4960 N   0  0  0  0  0  0  0  0  0  0  0  0
   12.7291  -17.8681   17.5092 C   0  0  0  0  0  0  0  0  0  0  0  0
   11.3526  -18.0866   16.9445 C   0  0  0  0  0  0  0  0  0  0  0  0
   10.3411  -17.8820   18.0363 C   0  0  0  0  0  0  0  0  0  0  0  0
    9.3219  -16.8206   17.6582 C   0  0  2  0  0  0  0  0  0  0  0  0
    9.7752  -16.2187   16.4392 N   0  0  0  0  0  0  0  0  0  0  0  0
    9.3271  -15.8058   18.7512 C   0  0  0  0  0  0  0  0  0  0  0  0
   10.1798  -14.8823   18.7717 O   0  0  0  0  0  0  0  0  0  0  0  0
   15.3683  -18.4350   14.5877 C   0  0  0  0  0  0  0  0  0  0  0  0
    6.9413  -13.2934   19.5268 C   0  0  2  0  0  0  0  0  0  0  0  0
    7.0341  -14.0544   20.8352 O   0  0  0  0  0  0  0  0  0  0  0  0
    5.9868  -14.9388   20.8692 C   0  0  2  0  0  0  0  0  0  0  0  0
    8.3547  -14.8092   20.8007 N   0  0  0  0  0  0  0  0  0  0  0  0
    8.3864  -15.8270   19.8078 C   0  0  0  0  0  0  0  0  0  0  0  0
    8.6853  -15.3340   22.1627 O   0  0  0  0  0  0  0  0  0  0  0  0
    8.6462  -16.5630   22.4295 O   0  0  0  0  0  0  0  0  0  0  0  0
   11.1025  -15.9780   30.6329 C   0  0  0  0  0  0  0  0  0  0  0  0
   10.7779  -15.4826   29.3645 C   0  0  0  0  0  0  0  0  0  0  0  0
   11.5063  -15.8075   28.2441 C   0  0  0  0  0  0  0  0  0  0  0  0
   11.1573  -15.3021   27.0087 C   0  0  0  0  0  0  0  0  0  0  0  0
   10.0648  -14.4468   26.8282 C   0  0  0  0  0  0  0  0  0  0  0  0
    9.7198  -13.8939   25.5063 C   0  0  2  0  0  0  0  0  0  0  0  0
    9.2099  -14.9680   24.6135 N   0  0  0  0  0  0  0  0  0  0  0  0
    9.0623  -14.4800   23.2310 C   0  0  0  0  0  0  0  0  0  0  0  0
    7.9762  -15.5926   25.0829 O   0  0  0  0  0  0  0  0  0  0  0  0
    6.8269  -15.1006   24.8129 C   0  0  0  0  0  0  0  0  0  0  0  0
    9.3569  -14.1420   27.9747 C   0  0  0  0  0  0  0  0  0  0  0  0
    9.6955  -14.6439   29.2279 O   0  0  0  0  0  0  0  0  0  0  0  0
  1  2  1  0
  2  3  2  0
  4  2  1  0
  4  5  1  0
  6  5  1  0
  7  6  1  0
  8  7  1  0
  8  9  1  6
 10  8  1  0
 10 11  2  0
 13 12  1  1
 13 15  1  0
 14 13  1  0
 15 16  1  1
 15 17  1  0
 16 10  1  0
 17 18  2  0
 17 26  1  0
 19 20  1  0
 20 21  2  0
 20 30  1  0
 21 22  1  0
 22 23  2  0
 23 24  1  0
 25 24  1  6
 25 27  1  0
 26 25  1  0
 27 28  2  0
 27 31  1  0
 29 23  1  0
 30 29  2  0
M  END
$$$$
