RTY.pdb
     RDKit          3D

 31 31  0  0  1  0  0  0  0  0999 V2000
    9.8627  -13.9349   13.8956 N   0  0  0  0  0  0  0  0  0  0  0  0
    8.8785  -14.0115   14.9090 C   0  0  0  0  0  0  0  0  0  0  0  0
    8.5412  -13.0203   15.6653 N   0  0  0  0  0  0  0  0  0  0  0  0
    8.2205  -15.2682   15.1062 N   0  0  0  0  0  0  0  0  0  0  0  0
    8.6144  -16.1441   16.1862 C   0  0  0  0  0  0  0  0  0  0  0  0
   10.0742  -16.4812   16.0566 C   0  0  0  0  0  0  0  0  0  0  0  0
   10.7933  -16.0094   17.2883 C   0  0  0  0  0  0  0  0  0  0  0  0
   10.4197  -16.8416   18.5033 C   0  0  2  0  0  0  0  0  0  0  0  0
    9.1929  -17.5132   18.1909 N   0  0  0  0  0  0  0  0  0  0  0  0
   10.1979  -15.8893   19.6296 C   0  0  0  0  0  0  0  0  0  0  0  0
   11.1173  -15.1271   20.0219 O   0  0  0  0  0  0  0  0  0  0  0  0
    7.8231  -13.1319   16.4151 C   0  0  0  0  0  0  0  0  0  0  0  0
    6.9065  -13.7723   20.3880 C   0  0  2  0  0  0  0  0  0  0  0  0
    7.3301  -14.5251   21.6344 O   0  0  0  0  0  0  0  0  0  0  0  0
    6.5401  -15.6421   21.7260 C   0  0  2  0  0  0  0  0  0  0  0  0
    8.7817  -14.9278   21.4208 N   0  0  0  0  0  0  0  0  0  0  0  0
    8.9593  -15.7936   20.3066 C   0  0  0  0  0  0  0  0  0  0  0  0
    9.3495  -15.5006   22.6815 O   0  0  0  0  0  0  0  0  0  0  0  0
   10.5797  -15.4487   22.9406 O   0  0  0  0  0  0  0  0  0  0  0  0
   10.6923  -15.1391   31.1197 C   0  0  0  0  0  0  0  0  0  0  0  0
   10.3425  -15.0913   29.7651 C   0  0  0  0  0  0  0  0  0  0  0  0
   10.7573  -16.0481   28.8685 C   0  0  0  0  0  0  0  0  0  0  0  0
   10.3926  -15.9708   27.5402 C   0  0  0  0  0  0  0  0  0  0  0  0
    9.5963  -14.9353   27.0387 C   0  0  0  0  0  0  0  0  0  0  0  0
    9.2364  -14.8519   25.6120 C   0  0  1  0  0  0  0  0  0  0  0  0
    8.9242  -16.2037   25.0774 N   0  0  0  0  0  0  0  0  0  0  0  0
    8.5373  -16.1337   23.6572 C   0  0  0  0  0  0  0  0  0  0  0  0
    7.9273  -16.9331   25.8563 O   0  0  0  0  0  0  0  0  0  0  0  0
    6.6800  -16.6615   25.7774 C   0  0  0  0  0  0  0  0  0  0  0  0
    9.1986  -13.9927   27.9671 C   0  0  0  0  0  0  0  0  0  0  0  0
    9.5574  -14.0567   29.3103 O   0  0  0  0  0  0  0  0  0  0  0  0
  1  2  1  0
  2  3  2  0
  4  2  1  0
  4  5  1  0
  6  5  1  0
  7  6  1  0
  8  7  1  0
  8  9  1  6
 10  8  1  0
 10 11  2  0
 13 12  1  1
 13 15  1  0
 14 13  1  0
 15 16  1  1
 15 17  1  0
 16 10  1  0
 17 18  2  0
 17 26  1  0
 19 20  1  0
 20 21  2  0
 20 30  1  0
 21 22  1  0
 22 23  2  0
 23 24  1  0
 25 24  1  6
 25 27  1  0
 26 25  1  0
 27 28  2  0
 27 31  1  0
 29 23  1  0
 30 29  2  0
M  END
$$$$
