RTY.pdb
     RDKit          3D

 31 31  0  0  1  0  0  0  0  0999 V2000
    7.6788  -13.0838   12.9141 N   0  0  0  0  0  0  0  0  0  0  0  0
    8.4827  -13.6814   13.9132 C   0  0  0  0  0  0  0  0  0  0  0  0
    9.7742  -13.6784   13.8992 N   0  0  0  0  0  0  0  0  0  0  0  0
    7.8189  -14.3304   15.0037 N   0  0  0  0  0  0  0  0  0  0  0  0
    7.5529  -13.6181   16.2328 C   0  0  0  0  0  0  0  0  0  0  0  0
    8.7659  -13.6708   17.1200 C   0  0  0  0  0  0  0  0  0  0  0  0
    8.3986  -14.3560   18.4055 C   0  0  0  0  0  0  0  0  0  0  0  0
    8.8023  -15.8206   18.3899 C   0  0  2  0  0  0  0  0  0  0  0  0
    7.7871  -16.5282   17.6673 N   0  0  0  0  0  0  0  0  0  0  0  0
    8.8213  -16.2802   19.8087 C   0  0  0  0  0  0  0  0  0  0  0  0
    7.7517  -16.4579   20.4449 O   0  0  0  0  0  0  0  0  0  0  0  0
   10.3244  -14.1653   14.6412 C   0  0  0  0  0  0  0  0  0  0  0  0
   10.5923  -19.2666   20.9100 C   0  0  2  0  0  0  0  0  0  0  0  0
   10.9815  -18.2574   21.9728 O   0  0  0  0  0  0  0  0  0  0  0  0
   12.2667  -17.8596   21.7081 C   0  0  2  0  0  0  0  0  0  0  0  0
   10.0283  -17.0816   21.8186 N   0  0  0  0  0  0  0  0  0  0  0  0
   10.0260  -16.5376   20.5046 C   0  0  0  0  0  0  0  0  0  0  0  0
   10.3124  -16.0464   22.8614 O   0  0  0  0  0  0  0  0  0  0  0  0
   10.5852  -14.8557   22.5597 O   0  0  0  0  0  0  0  0  0  0  0  0
    5.6335  -11.3096   28.0028 C   0  0  0  0  0  0  0  0  0  0  0  0
    6.2839  -12.2463   27.1907 C   0  0  0  0  0  0  0  0  0  0  0  0
    7.6040  -12.1099   26.8300 C   0  0  0  0  0  0  0  0  0  0  0  0
    8.2141  -13.0531   26.0291 C   0  0  0  0  0  0  0  0  0  0  0  0
    7.5385  -14.1795   25.5469 C   0  0  0  0  0  0  0  0  0  0  0  0
    8.1964  -15.1652   24.6707 C   0  0  2  0  0  0  0  0  0  0  0  0
    9.5304  -15.5324   25.2151 N   0  0  0  0  0  0  0  0  0  0  0  0
   10.2903  -16.3443   24.2483 C   0  0  0  0  0  0  0  0  0  0  0  0
    9.4783  -16.1851   26.5204 O   0  0  0  0  0  0  0  0  0  0  0  0
    8.8930  -17.3098   26.6884 C   0  0  0  0  0  0  0  0  0  0  0  0
    6.2150  -14.2836   25.9288 C   0  0  0  0  0  0  0  0  0  0  0  0
    5.5852  -13.3413   26.7365 O   0  0  0  0  0  0  0  0  0  0  0  0
  1  2  1  0
  2  3  2  0
  4  2  1  0
  4  5  1  0
  6  5  1  0
  7  6  1  0
  8  7  1  0
  8  9  1  6
 10  8  1  0
 10 11  2  0
 13 12  1  1
 13 15  1  0
 14 13  1  0
 15 16  1  1
 15 17  1  0
 16 10  1  0
 17 18  2  0
 17 26  1  0
 19 20  1  0
 20 21  2  0
 20 30  1  0
 21 22  1  0
 22 23  2  0
 23 24  1  0
 25 24  1  6
 25 27  1  0
 26 25  1  0
 27 28  2  0
 27 31  1  0
 29 23  1  0
 30 29  2  0
M  END
$$$$
