RTY.pdb
     RDKit          3D

 31 31  0  0  1  0  0  0  0  0999 V2000
   13.1069  -21.1654   19.1176 N   0  0  0  0  0  0  0  0  0  0  0  0
   13.8803  -20.4589   18.1667 C   0  0  0  0  0  0  0  0  0  0  0  0
   15.1572  -20.5957   18.0283 N   0  0  0  0  0  0  0  0  0  0  0  0
   13.2014  -19.5346   17.3089 N   0  0  0  0  0  0  0  0  0  0  0  0
   11.7575  -19.4776   17.2837 C   0  0  0  0  0  0  0  0  0  0  0  0
   11.2533  -18.8717   18.5644 C   0  0  0  0  0  0  0  0  0  0  0  0
   11.2452  -17.3760   18.4244 C   0  0  0  0  0  0  0  0  0  0  0  0
    9.8322  -16.8397   18.2696 C   0  0  2  0  0  0  0  0  0  0  0  0
    9.7643  -16.1989   16.9896 N   0  0  0  0  0  0  0  0  0  0  0  0
    9.6314  -15.8291   19.3481 C   0  0  0  0  0  0  0  0  0  0  0  0
   10.3224  -14.7796   19.3871 O   0  0  0  0  0  0  0  0  0  0  0  0
   15.6926  -20.0149   17.3454 C   0  0  0  0  0  0  0  0  0  0  0  0
    6.7959  -13.7665   20.1123 C   0  0  2  0  0  0  0  0  0  0  0  0
    7.0341  -14.4931   21.4218 O   0  0  0  0  0  0  0  0  0  0  0  0
    6.1566  -15.5456   21.4711 C   0  0  2  0  0  0  0  0  0  0  0  0
    8.4651  -15.0076   21.3738 N   0  0  0  0  0  0  0  0  0  0  0  0
    8.6667  -15.9944   20.3697 C   0  0  0  0  0  0  0  0  0  0  0  0
    8.8893  -15.4810   22.7287 O   0  0  0  0  0  0  0  0  0  0  0  0
    9.0110  -16.7041   22.9979 O   0  0  0  0  0  0  0  0  0  0  0  0
   11.3291  -15.7690   31.1922 C   0  0  0  0  0  0  0  0  0  0  0  0
   10.9092  -15.2853   29.9474 C   0  0  0  0  0  0  0  0  0  0  0  0
   10.2960  -14.0623   29.8072 C   0  0  0  0  0  0  0  0  0  0  0  0
    9.8960  -13.6158   28.5646 C   0  0  0  0  0  0  0  0  0  0  0  0
   10.0866  -14.3665   27.3993 C   0  0  0  0  0  0  0  0  0  0  0  0
    9.6304  -13.8876   26.0822 C   0  0  2  0  0  0  0  0  0  0  0  0
    9.3707  -15.0370   25.1755 N   0  0  0  0  0  0  0  0  0  0  0  0
    9.1798  -14.5820   23.7870 C   0  0  0  0  0  0  0  0  0  0  0  0
    8.2660  -15.8911   25.6031 O   0  0  0  0  0  0  0  0  0  0  0  0
    8.4669  -17.0024   26.2034 C   0  0  0  0  0  0  0  0  0  0  0  0
   10.7049  -15.5889   27.5781 C   0  0  0  0  0  0  0  0  0  0  0  0
   11.1149  -16.0533   28.8243 O   0  0  0  0  0  0  0  0  0  0  0  0
  1  2  1  0
  2  3  2  0
  4  2  1  0
  4  5  1  0
  6  5  1  0
  7  6  1  0
  8  7  1  0
  8  9  1  6
 10  8  1  0
 10 11  2  0
 13 12  1  1
 13 15  1  0
 14 13  1  0
 15 16  1  1
 15 17  1  0
 16 10  1  0
 17 18  2  0
 17 26  1  0
 19 20  1  0
 20 21  2  0
 20 30  1  0
 21 22  1  0
 22 23  2  0
 23 24  1  0
 25 24  1  6
 25 27  1  0
 26 25  1  0
 27 28  2  0
 27 31  1  0
 29 23  1  0
 30 29  2  0
M  END
$$$$
