RTY.pdb
     RDKit          3D

 31 31  0  0  1  0  0  0  0  0999 V2000
    7.7006  -14.9133   11.5945 N   0  0  0  0  0  0  0  0  0  0  0  0
    7.1828  -14.1142   12.6409 C   0  0  0  0  0  0  0  0  0  0  0  0
    6.5192  -13.0217   12.4554 N   0  0  0  0  0  0  0  0  0  0  0  0
    7.4135  -14.5460   13.9867 N   0  0  0  0  0  0  0  0  0  0  0  0
    8.0952  -15.7922   14.2536 C   0  0  0  0  0  0  0  0  0  0  0  0
    8.0853  -16.0670   15.7321 C   0  0  0  0  0  0  0  0  0  0  0  0
    8.8396  -17.3393   15.9951 C   0  0  0  0  0  0  0  0  0  0  0  0
    8.7986  -17.7160   17.4664 C   0  0  2  0  0  0  0  0  0  0  0  0
    7.4262  -17.6627   17.8752 N   0  0  0  0  0  0  0  0  0  0  0  0
    9.5817  -16.6807   18.2010 C   0  0  0  0  0  0  0  0  0  0  0  0
   10.7618  -16.4051   17.8668 O   0  0  0  0  0  0  0  0  0  0  0  0
    6.1524  -12.4682   13.2613 C   0  0  0  0  0  0  0  0  0  0  0  0
    8.1778  -13.2802   19.3128 C   0  0  2  0  0  0  0  0  0  0  0  0
    8.9387  -13.8288   20.5043 O   0  0  0  0  0  0  0  0  0  0  0  0
    8.0133  -14.3108   21.3939 C   0  0  2  0  0  0  0  0  0  0  0  0
    9.7995  -14.9673   19.9774 N   0  0  0  0  0  0  0  0  0  0  0  0
    9.0464  -15.9634   19.2968 C   0  0  0  0  0  0  0  0  0  0  0  0
   10.6310  -15.5399   21.0822 O   0  0  0  0  0  0  0  0  0  0  0  0
   10.1193  -15.9482   22.1567 O   0  0  0  0  0  0  0  0  0  0  0  0
    9.2474  -20.8534   24.5185 C   0  0  0  0  0  0  0  0  0  0  0  0
   10.1931  -20.0619   23.8559 C   0  0  0  0  0  0  0  0  0  0  0  0
   10.1910  -19.9102   22.4890 C   0  0  0  0  0  0  0  0  0  0  0  0
   11.1375  -19.1210   21.8687 C   0  0  0  0  0  0  0  0  0  0  0  0
   12.1342  -18.4439   22.5799 C   0  0  0  0  0  0  0  0  0  0  0  0
   13.1545  -17.6253   21.9010 C   0  0  2  0  0  0  0  0  0  0  0  0
   12.8659  -16.1788   22.0884 N   0  0  0  0  0  0  0  0  0  0  0  0
   12.0414  -15.6573   20.9841 C   0  0  0  0  0  0  0  0  0  0  0  0
   14.0574  -15.3577   22.2854 O   0  0  0  0  0  0  0  0  0  0  0  0
   14.3671  -14.4153   21.4782 C   0  0  0  0  0  0  0  0  0  0  0  0
   12.1058  -18.6195   23.9499 C   0  0  0  0  0  0  0  0  0  0  0  0
   11.1577  -19.4114   24.5908 O   0  0  0  0  0  0  0  0  0  0  0  0
  1  2  1  0
  2  3  2  0
  4  2  1  0
  4  5  1  0
  6  5  1  0
  7  6  1  0
  8  7  1  0
  8  9  1  1
 10  8  1  0
 10 11  2  0
 13 12  1  1
 13 15  1  0
 14 13  1  0
 15 16  1  1
 15 17  1  0
 16 10  1  0
 17 18  2  0
 17 26  1  0
 19 20  1  0
 20 21  2  0
 20 30  1  0
 21 22  1  0
 22 23  2  0
 23 24  1  0
 25 24  1  1
 25 27  1  0
 26 25  1  0
 27 28  2  0
 27 31  1  0
 29 23  1  0
 30 29  2  0
M  END
$$$$
