RTY.pdb
     RDKit          3D

 31 31  0  0  1  0  0  0  0  0999 V2000
   10.8604  -19.8738   13.3125 N   0  0  0  0  0  0  0  0  0  0  0  0
   11.1971  -19.4253   12.0137 C   0  0  0  0  0  0  0  0  0  0  0  0
   11.2289  -20.1876   10.9715 N   0  0  0  0  0  0  0  0  0  0  0  0
   11.5247  -18.0408   11.8501 N   0  0  0  0  0  0  0  0  0  0  0  0
   11.4028  -17.1195   12.9569 C   0  0  0  0  0  0  0  0  0  0  0  0
    9.9927  -17.1405   13.4790 C   0  0  0  0  0  0  0  0  0  0  0  0
    9.8678  -16.1291   14.5827 C   0  0  0  0  0  0  0  0  0  0  0  0
   10.7603  -16.4792   15.7613 C   0  0  2  0  0  0  0  0  0  0  0  0
   10.0566  -17.4492   16.5472 N   0  0  0  0  0  0  0  0  0  0  0  0
   10.9431  -15.2286   16.5533 C   0  0  0  0  0  0  0  0  0  0  0  0
   11.5535  -14.2414   16.0705 O   0  0  0  0  0  0  0  0  0  0  0  0
   11.4669  -19.8059   10.0291 C   0  0  0  0  0  0  0  0  0  0  0  0
    8.6579  -12.8285   18.1178 C   0  0  2  0  0  0  0  0  0  0  0  0
    9.5109  -13.3066   19.2769 O   0  0  0  0  0  0  0  0  0  0  0  0
    8.7828  -14.2464   19.9602 C   0  0  2  0  0  0  0  0  0  0  0  0
   10.7477  -13.9473   18.6649 N   0  0  0  0  0  0  0  0  0  0  0  0
   10.4465  -15.0879   17.8705 C   0  0  0  0  0  0  0  0  0  0  0  0
   11.7549  -14.2471   19.7304 O   0  0  0  0  0  0  0  0  0  0  0  0
   11.4349  -14.3267   20.9447 O   0  0  0  0  0  0  0  0  0  0  0  0
   10.0956  -17.8070   24.3594 C   0  0  0  0  0  0  0  0  0  0  0  0
   11.0959  -17.4050   23.4662 C   0  0  0  0  0  0  0  0  0  0  0  0
   10.9813  -17.5903   22.1083 C   0  0  0  0  0  0  0  0  0  0  0  0
   11.9862  -17.1804   21.2565 C   0  0  0  0  0  0  0  0  0  0  0  0
   13.1563  -16.5658   21.7157 C   0  0  0  0  0  0  0  0  0  0  0  0
   14.2328  -16.1569   20.7958 C   0  0  2  0  0  0  0  0  0  0  0  0
   14.1276  -14.7059   20.4889 N   0  0  0  0  0  0  0  0  0  0  0  0
   13.1263  -14.4598   19.4362 C   0  0  0  0  0  0  0  0  0  0  0  0
   15.4028  -14.0769   20.1560 O   0  0  0  0  0  0  0  0  0  0  0  0
   15.5834  -13.4659   19.0470 C   0  0  0  0  0  0  0  0  0  0  0  0
   13.2370  -16.3963   23.0844 C   0  0  0  0  0  0  0  0  0  0  0  0
   12.2321  -16.8035   23.9569 O   0  0  0  0  0  0  0  0  0  0  0  0
  1  2  1  0
  2  3  2  0
  4  2  1  0
  4  5  1  0
  6  5  1  0
  7  6  1  0
  8  7  1  0
  8  9  1  1
 10  8  1  0
 10 11  2  0
 13 12  1  1
 13 15  1  0
 14 13  1  0
 15 16  1  1
 15 17  1  0
 16 10  1  0
 17 18  2  0
 17 26  1  0
 19 20  1  0
 20 21  2  0
 20 30  1  0
 21 22  1  0
 22 23  2  0
 23 24  1  0
 25 24  1  1
 25 27  1  0
 26 25  1  0
 27 28  2  0
 27 31  1  0
 29 23  1  0
 30 29  2  0
M  END
$$$$
