SDT.pdb
     RDKit          3D

 22 21  0  0  1  0  0  0  0  0999 V2000
    8.4581  -12.7587   19.6375 O   0  0  0  0  0  0  0  0  0  0  0  0
    8.5024  -13.3946   20.8671 C   0  0  0  0  0  0  0  0  0  0  0  0
    8.6185  -14.8933   20.6461 C   0  0  2  0  0  0  0  0  0  0  0  0
    7.3323  -15.3707   20.1304 N   0  0  0  0  0  0  0  0  0  0  0  0
    8.8849  -15.5950   21.9331 C   0  0  0  0  0  0  0  0  0  0  0  0
    7.9442  -15.8274   22.7654 O   0  0  0  0  0  0  0  0  0  0  0  0
   10.1745  -16.0423   22.3122 N   0  0  0  0  0  0  0  0  0  0  0  0
   10.3851  -16.7687   23.5770 C   0  0  1  0  0  0  0  0  0  0  0  0
   11.5754  -17.6707   23.4619 C   0  0  0  0  0  0  0  0  0  0  0  0
   11.5284  -18.6515   22.3897 C   0  0  0  0  0  0  0  0  0  0  0  0
   10.5444  -19.3839   22.1502 O   0  0  0  0  0  0  0  0  0  0  0  0
   10.5281  -15.7700   24.6679 C   0  0  0  0  0  0  0  0  0  0  0  0
   11.2991  -14.8140   24.5305 O   0  0  0  0  0  0  0  0  0  0  0  0
   12.6487  -18.8180   21.5385 O   0  0  0  0  0  0  0  0  0  0  0  0
    8.7671  -12.9603   28.0496 C   0  0  0  0  0  0  0  0  0  0  0  0
    8.6602  -14.0674   27.0664 C   0  0  1  0  0  0  0  0  0  0  0  0
    8.2383  -13.5545   25.8415 O   0  0  0  0  0  0  0  0  0  0  0  0
    9.9367  -14.8488   26.8840 C   0  0  2  0  0  0  0  0  0  0  0  0
    9.7974  -15.8754   25.8835 N   0  0  0  0  0  0  0  0  0  0  0  0
   10.4557  -15.4225   28.1210 C   0  0  0  0  0  0  0  0  0  0  0  0
   10.4338  -16.6726   28.2644 O   0  0  0  0  0  0  0  0  0  0  0  0
   10.9813  -14.6884   29.1739 O   0  0  0  0  0  0  0  0  0  0  0  0
  1  2  1  0
  2  3  1  0
  3  4  1  1
  5  3  1  0
  5  7  1  0
  6  5  2  0
  8  7  1  0
  8 12  1  0
  8  9  1  6
 10  9  1  0
 10 14  1  0
 11 10  2  0
 12 13  2  0
 12 19  1  0
 16 15  1  1
 17 16  1  0
 18 16  1  0
 18 20  1  0
 18 19  1  6
 20 22  1  0
 21 20  2  0
M  END
$$$$
