SDT.pdb
     RDKit          3D

 22 21  0  0  1  0  0  0  0  0999 V2000
    6.8816  -12.8043   19.0372 O   0  0  0  0  0  0  0  0  0  0  0  0
    8.1963  -12.7131   18.6109 C   0  0  0  0  0  0  0  0  0  0  0  0
    8.6739  -14.0894   18.1796 C   0  0  2  0  0  0  0  0  0  0  0  0
    7.7921  -14.5527   17.1045 N   0  0  0  0  0  0  0  0  0  0  0  0
    8.5703  -15.0584   19.3066 C   0  0  0  0  0  0  0  0  0  0  0  0
    7.6241  -15.9152   19.3558 O   0  0  0  0  0  0  0  0  0  0  0  0
    9.4965  -15.0933   20.3780 N   0  0  0  0  0  0  0  0  0  0  0  0
    9.3848  -16.1027   21.4459 C   0  0  1  0  0  0  0  0  0  0  0  0
   10.4838  -17.1125   21.3183 C   0  0  0  0  0  0  0  0  0  0  0  0
   10.5641  -18.1021   22.3803 C   0  0  0  0  0  0  0  0  0  0  0  0
    9.7456  -19.0337   22.5359 O   0  0  0  0  0  0  0  0  0  0  0  0
    9.4045  -15.3987   22.7543 C   0  0  0  0  0  0  0  0  0  0  0  0
   10.3125  -14.6005   23.0106 O   0  0  0  0  0  0  0  0  0  0  0  0
   11.6234  -18.0425   23.3192 O   0  0  0  0  0  0  0  0  0  0  0  0
    7.0565  -12.9379   24.4919 C   0  0  0  0  0  0  0  0  0  0  0  0
    7.2345  -14.1594   25.3164 C   0  0  1  0  0  0  0  0  0  0  0  0
    6.1212  -14.9832   25.1631 O   0  0  0  0  0  0  0  0  0  0  0  0
    8.4915  -14.9310   25.0031 C   0  0  2  0  0  0  0  0  0  0  0  0
    8.3996  -15.6127   23.7378 N   0  0  0  0  0  0  0  0  0  0  0  0
    8.8806  -15.8694   26.0502 C   0  0  0  0  0  0  0  0  0  0  0  0
    8.9379  -17.0958   25.7734 O   0  0  0  0  0  0  0  0  0  0  0  0
    9.1984  -15.5141   27.3528 O   0  0  0  0  0  0  0  0  0  0  0  0
  1  2  1  0
  2  3  1  0
  3  4  1  6
  5  3  1  0
  5  7  1  0
  6  5  2  0
  8  7  1  0
  8 12  1  0
  8  9  1  1
 10  9  1  0
 10 14  1  0
 11 10  2  0
 12 13  2  0
 12 19  1  0
 16 15  1  6
 17 16  1  0
 18 16  1  0
 18 20  1  0
 18 19  1  6
 20 22  1  0
 21 20  2  0
M  END
$$$$
