SDT.pdb
     RDKit          3D

 22 21  0  0  1  0  0  0  0  0999 V2000
    8.7125  -11.9763   18.6750 O   0  0  0  0  0  0  0  0  0  0  0  0
    8.3410  -12.6975   19.7976 C   0  0  0  0  0  0  0  0  0  0  0  0
    8.4647  -14.1816   19.4966 C   0  0  2  0  0  0  0  0  0  0  0  0
    7.3565  -14.5528   18.6121 N   0  0  0  0  0  0  0  0  0  0  0  0
    8.3413  -14.9831   20.7465 C   0  0  0  0  0  0  0  0  0  0  0  0
    7.1995  -15.3516   21.1846 O   0  0  0  0  0  0  0  0  0  0  0  0
    9.4610  -15.3820   21.5174 N   0  0  0  0  0  0  0  0  0  0  0  0
    9.2884  -16.1129   22.7853 C   0  0  1  0  0  0  0  0  0  0  0  0
   10.3986  -17.1023   22.9657 C   0  0  0  0  0  0  0  0  0  0  0  0
   10.4138  -18.2174   22.0330 C   0  0  0  0  0  0  0  0  0  0  0  0
    9.4693  -19.0226   21.8850 O   0  0  0  0  0  0  0  0  0  0  0  0
    9.2231  -15.1198   23.8888 C   0  0  0  0  0  0  0  0  0  0  0  0
   10.0305  -14.1849   23.9245 O   0  0  0  0  0  0  0  0  0  0  0  0
   11.5528  -18.4398   21.2204 O   0  0  0  0  0  0  0  0  0  0  0  0
    6.8685  -12.4158   27.0561 C   0  0  0  0  0  0  0  0  0  0  0  0
    6.9416  -13.4392   25.9833 C   0  0  1  0  0  0  0  0  0  0  0  0
    6.7394  -12.8257   24.7487 O   0  0  0  0  0  0  0  0  0  0  0  0
    8.2342  -14.2154   25.9657 C   0  0  2  0  0  0  0  0  0  0  0  0
    8.2488  -15.2070   24.9212 N   0  0  0  0  0  0  0  0  0  0  0  0
    8.5664  -14.8317   27.2457 C   0  0  0  0  0  0  0  0  0  0  0  0
    8.4402  -16.0779   27.3684 O   0  0  0  0  0  0  0  0  0  0  0  0
    9.0184  -14.1431   28.3616 O   0  0  0  0  0  0  0  0  0  0  0  0
  1  2  1  0
  2  3  1  0
  3  4  1  6
  5  3  1  0
  5  7  1  0
  6  5  2  0
  8  7  1  0
  8 12  1  0
  8  9  1  1
 10  9  1  0
 10 14  1  0
 11 10  2  0
 12 13  2  0
 12 19  1  0
 16 15  1  1
 17 16  1  0
 18 16  1  0
 18 20  1  0
 18 19  1  6
 20 22  1  0
 21 20  2  0
M  END
$$$$
