SDT.pdb
     RDKit          3D

 22 21  0  0  1  0  0  0  0  0999 V2000
    7.7427  -12.8254   18.6626 O   0  0  0  0  0  0  0  0  0  0  0  0
    8.8711  -12.8871   17.8618 C   0  0  0  0  0  0  0  0  0  0  0  0
    9.0679  -14.3186   17.3921 C   0  0  2  0  0  0  0  0  0  0  0  0
    7.8540  -14.7267   16.6794 N   0  0  0  0  0  0  0  0  0  0  0  0
    9.2457  -15.2331   18.5548 C   0  0  0  0  0  0  0  0  0  0  0  0
    8.2566  -15.8721   19.0496 O   0  0  0  0  0  0  0  0  0  0  0  0
   10.4998  -15.4505   19.1770 N   0  0  0  0  0  0  0  0  0  0  0  0
   10.6366  -16.3940   20.3007 C   0  0  1  0  0  0  0  0  0  0  0  0
   12.0304  -16.9408   20.3484 C   0  0  0  0  0  0  0  0  0  0  0  0
   12.3298  -18.0016   19.4004 C   0  0  0  0  0  0  0  0  0  0  0  0
   12.5519  -17.8153   18.1846 O   0  0  0  0  0  0  0  0  0  0  0  0
   10.2574  -15.6858   21.5507 C   0  0  0  0  0  0  0  0  0  0  0  0
   10.6490  -14.5301   21.7469 O   0  0  0  0  0  0  0  0  0  0  0  0
   12.3839  -19.3463   19.8430 O   0  0  0  0  0  0  0  0  0  0  0  0
    7.1516  -14.4398   24.8967 C   0  0  0  0  0  0  0  0  0  0  0  0
    7.6044  -15.1785   23.6913 C   0  0  1  0  0  0  0  0  0  0  0  0
    7.3208  -14.4223   22.5559 O   0  0  0  0  0  0  0  0  0  0  0  0
    9.0668  -15.5452   23.7122 C   0  0  2  0  0  0  0  0  0  0  0  0
    9.4462  -16.2990   22.5451 N   0  0  0  0  0  0  0  0  0  0  0  0
    9.4774  -16.2526   24.9203 C   0  0  0  0  0  0  0  0  0  0  0  0
    9.4313  -17.5103   24.9306 O   0  0  0  0  0  0  0  0  0  0  0  0
    9.9228  -15.6407   26.0827 O   0  0  0  0  0  0  0  0  0  0  0  0
  1  2  1  0
  2  3  1  0
  3  4  1  1
  5  3  1  0
  5  7  1  0
  6  5  2  0
  8  7  1  0
  8 12  1  0
  8  9  1  1
 10  9  1  0
 10 14  1  0
 11 10  2  0
 12 13  2  0
 12 19  1  0
 16 15  1  1
 17 16  1  0
 18 16  1  0
 18 20  1  0
 18 19  1  6
 20 22  1  0
 21 20  2  0
M  END
$$$$
