SDT.pdb
     RDKit          3D

 22 21  0  0  1  0  0  0  0  0999 V2000
    8.3211  -14.4290   14.5832 O   0  0  0  0  0  0  0  0  0  0  0  0
    9.2152  -15.3567   14.0751 C   0  0  0  0  0  0  0  0  0  0  0  0
    8.6498  -16.7524   14.2777 C   0  0  2  0  0  0  0  0  0  0  0  0
    7.3478  -16.8095   13.6073 N   0  0  0  0  0  0  0  0  0  0  0  0
    8.4317  -17.0256   15.7260 C   0  0  0  0  0  0  0  0  0  0  0  0
    7.2707  -16.9263   16.2492 O   0  0  0  0  0  0  0  0  0  0  0  0
    9.4777  -17.4063   16.6024 N   0  0  0  0  0  0  0  0  0  0  0  0
    9.2045  -17.7369   18.0123 C   0  0  1  0  0  0  0  0  0  0  0  0
   10.1059  -18.8438   18.4666 C   0  0  0  0  0  0  0  0  0  0  0  0
    9.8324  -20.1568   17.9057 C   0  0  0  0  0  0  0  0  0  0  0  0
    8.7418  -20.7566   18.0204 O   0  0  0  0  0  0  0  0  0  0  0  0
    9.3670  -16.4999   18.8194 C   0  0  0  0  0  0  0  0  0  0  0  0
   10.2906  -15.7179   18.5688 O   0  0  0  0  0  0  0  0  0  0  0  0
   10.8396  -20.8335   17.1744 O   0  0  0  0  0  0  0  0  0  0  0  0
    7.6276  -12.8527   21.4559 C   0  0  0  0  0  0  0  0  0  0  0  0
    7.4803  -14.0812   20.6358 C   0  0  1  0  0  0  0  0  0  0  0  0
    7.1600  -13.7244   19.3275 O   0  0  0  0  0  0  0  0  0  0  0  0
    8.6980  -14.9705   20.6422 C   0  0  2  0  0  0  0  0  0  0  0  0
    8.4833  -16.1773   19.8861 N   0  0  0  0  0  0  0  0  0  0  0  0
    9.1794  -15.2970   21.9802 C   0  0  0  0  0  0  0  0  0  0  0  0
    9.0034  -16.4633   22.4190 O   0  0  0  0  0  0  0  0  0  0  0  0
    9.8277  -14.4094   22.8262 O   0  0  0  0  0  0  0  0  0  0  0  0
  1  2  1  0
  2  3  1  0
  3  4  1  6
  5  3  1  0
  5  7  1  0
  6  5  2  0
  8  7  1  0
  8 12  1  0
  8  9  1  1
 10  9  1  0
 10 14  1  0
 11 10  2  0
 12 13  2  0
 12 19  1  0
 16 15  1  1
 17 16  1  0
 18 16  1  0
 18 20  1  0
 18 19  1  1
 20 22  1  0
 21 20  2  0
M  END
$$$$
