SDT.pdb
     RDKit          3D

 22 21  0  0  1  0  0  0  0  0999 V2000
    9.8291  -13.9666   20.1041 O   0  0  0  0  0  0  0  0  0  0  0  0
   10.3008  -13.2178   19.0387 C   0  0  0  0  0  0  0  0  0  0  0  0
   11.0913  -14.1226   18.1086 C   0  0  2  0  0  0  0  0  0  0  0  0
   10.1641  -15.1115   17.5514 N   0  0  0  0  0  0  0  0  0  0  0  0
   12.1463  -14.8571   18.8617 C   0  0  0  0  0  0  0  0  0  0  0  0
   11.9460  -16.0431   19.2918 O   0  0  0  0  0  0  0  0  0  0  0  0
   13.4175  -14.2997   19.1453 N   0  0  0  0  0  0  0  0  0  0  0  0
   14.4787  -15.1082   19.7712 C   0  0  1  0  0  0  0  0  0  0  0  0
   15.8255  -14.5644   19.4046 C   0  0  0  0  0  0  0  0  0  0  0  0
   16.9667  -15.3745   19.7985 C   0  0  0  0  0  0  0  0  0  0  0  0
   16.8778  -16.5052   20.3238 O   0  0  0  0  0  0  0  0  0  0  0  0
   14.2480  -15.1214   21.2391 C   0  0  0  0  0  0  0  0  0  0  0  0
   14.6746  -14.1957   21.9380 O   0  0  0  0  0  0  0  0  0  0  0  0
   18.2808  -14.8880   19.5895 O   0  0  0  0  0  0  0  0  0  0  0  0
   11.3578  -17.6770   23.1548 C   0  0  0  0  0  0  0  0  0  0  0  0
   11.8749  -16.3775   23.6520 C   0  0  1  0  0  0  0  0  0  0  0  0
   11.7038  -16.3132   25.0333 O   0  0  0  0  0  0  0  0  0  0  0  0
   13.3183  -16.1187   23.3006 C   0  0  2  0  0  0  0  0  0  0  0  0
   13.5417  -16.1770   21.8791 N   0  0  0  0  0  0  0  0  0  0  0  0
   14.2569  -16.9965   23.9913 C   0  0  0  0  0  0  0  0  0  0  0  0
   14.2328  -17.0389   25.2489 O   0  0  0  0  0  0  0  0  0  0  0  0
   15.1935  -17.8040   23.3633 O   0  0  0  0  0  0  0  0  0  0  0  0
  1  2  1  0
  2  3  1  0
  3  4  1  1
  5  3  1  0
  5  7  1  0
  6  5  2  0
  8  7  1  0
  8 12  1  0
  8  9  1  1
 10  9  1  0
 10 14  1  0
 11 10  2  0
 12 13  2  0
 12 19  1  0
 16 15  1  1
 17 16  1  0
 18 16  1  0
 18 20  1  0
 18 19  1  6
 20 22  1  0
 21 20  2  0
M  END
$$$$
