SDT.pdb
     RDKit          3D

 22 21  0  0  1  0  0  0  0  0999 V2000
    8.0375  -12.5347   19.8094 O   0  0  0  0  0  0  0  0  0  0  0  0
    7.1527  -13.3751   19.1542 C   0  0  0  0  0  0  0  0  0  0  0  0
    7.8462  -14.6955   18.8638 C   0  0  2  0  0  0  0  0  0  0  0  0
    6.8938  -15.5548   18.1548 N   0  0  0  0  0  0  0  0  0  0  0  0
    8.2246  -15.3800   20.1319 C   0  0  0  0  0  0  0  0  0  0  0  0
    7.3806  -16.0897   20.7765 O   0  0  0  0  0  0  0  0  0  0  0  0
    9.5211  -15.2909   20.6962 N   0  0  0  0  0  0  0  0  0  0  0  0
    9.8525  -15.9882   21.9514 C   0  0  1  0  0  0  0  0  0  0  0  0
   11.3024  -16.3644   21.9652 C   0  0  0  0  0  0  0  0  0  0  0  0
   11.7719  -17.0415   23.1630 C   0  0  0  0  0  0  0  0  0  0  0  0
   11.0319  -17.6682   23.9516 O   0  0  0  0  0  0  0  0  0  0  0  0
    9.4807  -15.1038   23.0862 C   0  0  0  0  0  0  0  0  0  0  0  0
    9.8994  -13.9417   23.1242 O   0  0  0  0  0  0  0  0  0  0  0  0
   13.1495  -17.0141   23.4928 O   0  0  0  0  0  0  0  0  0  0  0  0
    6.7951  -12.8858   26.0372 C   0  0  0  0  0  0  0  0  0  0  0  0
    6.9960  -14.0626   25.1551 C   0  0  1  0  0  0  0  0  0  0  0  0
    6.7302  -13.6990   23.8366 O   0  0  0  0  0  0  0  0  0  0  0  0
    8.3716  -14.6723   25.2525 C   0  0  2  0  0  0  0  0  0  0  0  0
    8.6461  -15.5531   24.1466 N   0  0  0  0  0  0  0  0  0  0  0  0
    8.6206  -15.3607   26.5145 C   0  0  0  0  0  0  0  0  0  0  0  0
    8.4786  -14.7230   27.5902 O   0  0  0  0  0  0  0  0  0  0  0  0
    9.0097  -16.6871   26.6288 O   0  0  0  0  0  0  0  0  0  0  0  0
  1  2  1  0
  2  3  1  0
  3  4  1  1
  5  3  1  0
  5  7  1  0
  6  5  2  0
  8  7  1  0
  8 12  1  0
  8  9  1  6
 10  9  1  0
 10 14  1  0
 11 10  2  0
 12 13  2  0
 12 19  1  0
 16 15  1  1
 17 16  1  0
 18 16  1  0
 18 20  1  0
 18 19  1  6
 20 22  1  0
 21 20  2  0
M  END
$$$$
