SDT.pdb
     RDKit          3D

 22 21  0  0  1  0  0  0  0  0999 V2000
    7.8304  -12.8493   18.6917 O   0  0  0  0  0  0  0  0  0  0  0  0
    8.8646  -12.9177   17.7730 C   0  0  0  0  0  0  0  0  0  0  0  0
    9.0197  -14.3557   17.3076 C   0  0  2  0  0  0  0  0  0  0  0  0
    7.7976  -14.7280   16.5893 N   0  0  0  0  0  0  0  0  0  0  0  0
    9.1633  -15.2724   18.4732 C   0  0  0  0  0  0  0  0  0  0  0  0
    8.1529  -15.8821   18.9622 O   0  0  0  0  0  0  0  0  0  0  0  0
   10.4062  -15.5241   19.1047 N   0  0  0  0  0  0  0  0  0  0  0  0
   10.5018  -16.4401   20.2551 C   0  0  1  0  0  0  0  0  0  0  0  0
   11.8625  -17.0646   20.3057 C   0  0  0  0  0  0  0  0  0  0  0  0
   12.0985  -17.9860   21.4052 C   0  0  0  0  0  0  0  0  0  0  0  0
   12.6567  -17.6710   22.4783 O   0  0  0  0  0  0  0  0  0  0  0  0
   10.1784  -15.6744   21.4868 C   0  0  0  0  0  0  0  0  0  0  0  0
   10.6765  -14.5577   21.6664 O   0  0  0  0  0  0  0  0  0  0  0  0
   11.6834  -19.3359   21.2937 O   0  0  0  0  0  0  0  0  0  0  0  0
    7.1559  -14.1102   24.7913 C   0  0  0  0  0  0  0  0  0  0  0  0
    7.5280  -14.9802   23.6476 C   0  0  1  0  0  0  0  0  0  0  0  0
    7.1961  -14.3391   22.4559 O   0  0  0  0  0  0  0  0  0  0  0  0
    8.9824  -15.3778   23.6294 C   0  0  2  0  0  0  0  0  0  0  0  0
    9.3014  -16.1876   22.4820 N   0  0  0  0  0  0  0  0  0  0  0  0
    9.4243  -16.0432   24.8502 C   0  0  0  0  0  0  0  0  0  0  0  0
    9.5641  -17.2939   24.8414 O   0  0  0  0  0  0  0  0  0  0  0  0
    9.7082  -15.3978   26.0447 O   0  0  0  0  0  0  0  0  0  0  0  0
  1  2  1  0
  2  3  1  0
  3  4  1  1
  5  3  1  0
  5  7  1  0
  6  5  2  0
  8  7  1  0
  8 12  1  0
  8  9  1  1
 10  9  1  0
 10 14  1  0
 11 10  2  0
 12 13  2  0
 12 19  1  0
 16 15  1  1
 17 16  1  0
 18 16  1  0
 18 20  1  0
 18 19  1  6
 20 22  1  0
 21 20  2  0
M  END
$$$$
