SDT.pdb
     RDKit          3D

 22 21  0  0  1  0  0  0  0  0999 V2000
   11.8783  -15.5698   21.2133 O   0  0  0  0  0  0  0  0  0  0  0  0
   12.3556  -16.8565   21.4000 C   0  0  0  0  0  0  0  0  0  0  0  0
   11.1856  -17.8258   21.3865 C   0  0  2  0  0  0  0  0  0  0  0  0
   10.2272  -17.3568   20.3818 N   0  0  0  0  0  0  0  0  0  0  0  0
   10.4965  -17.8358   22.7074 C   0  0  0  0  0  0  0  0  0  0  0  0
    9.2656  -17.5110   22.8124 O   0  0  0  0  0  0  0  0  0  0  0  0
   11.1482  -18.1991   23.9117 N   0  0  0  0  0  0  0  0  0  0  0  0
   10.4303  -18.1825   25.1986 C   0  0  1  0  0  0  0  0  0  0  0  0
   10.8921  -19.3163   26.0617 C   0  0  0  0  0  0  0  0  0  0  0  0
   10.4618  -19.2747   27.4497 C   0  0  0  0  0  0  0  0  0  0  0  0
    9.2665  -19.2595   27.8146 O   0  0  0  0  0  0  0  0  0  0  0  0
   10.6456  -16.8564   25.8335 C   0  0  0  0  0  0  0  0  0  0  0  0
   11.7356  -16.2863   25.7145 O   0  0  0  0  0  0  0  0  0  0  0  0
   11.4280  -19.2498   28.4857 O   0  0  0  0  0  0  0  0  0  0  0  0
    8.9058  -12.6342   27.5617 C   0  0  0  0  0  0  0  0  0  0  0  0
    8.7182  -13.9706   26.9433 C   0  0  1  0  0  0  0  0  0  0  0  0
    8.4681  -13.8155   25.5814 O   0  0  0  0  0  0  0  0  0  0  0  0
    9.8811  -14.9082   27.1485 C   0  0  2  0  0  0  0  0  0  0  0  0
    9.6261  -16.2085   26.5844 N   0  0  0  0  0  0  0  0  0  0  0  0
   10.2909  -15.0389   28.5426 C   0  0  0  0  0  0  0  0  0  0  0  0
   10.1061  -16.1379   29.1274 O   0  0  0  0  0  0  0  0  0  0  0  0
   10.8786  -14.0308   29.2923 O   0  0  0  0  0  0  0  0  0  0  0  0
  1  2  1  0
  2  3  1  0
  3  4  1  6
  5  3  1  0
  5  7  1  0
  6  5  2  0
  8  7  1  0
  8 12  1  0
  8  9  1  1
 10  9  1  0
 10 14  1  0
 11 10  2  0
 12 13  2  0
 12 19  1  0
 16 15  1  6
 17 16  1  0
 18 16  1  0
 18 20  1  0
 18 19  1  1
 20 22  1  0
 21 20  2  0
M  END
$$$$
