SDT.pdb
     RDKit          3D

 22 21  0  0  1  0  0  0  0  0999 V2000
    8.2260  -12.0805   20.0798 O   0  0  0  0  0  0  0  0  0  0  0  0
    8.9814  -13.1606   19.6542 C   0  0  0  0  0  0  0  0  0  0  0  0
    8.1358  -14.4202   19.7376 C   0  0  2  0  0  0  0  0  0  0  0  0
    6.7948  -14.0925   19.2453 N   0  0  0  0  0  0  0  0  0  0  0  0
    8.0068  -14.8737   21.1509 C   0  0  0  0  0  0  0  0  0  0  0  0
    6.9318  -14.6766   21.8121 O   0  0  0  0  0  0  0  0  0  0  0  0
    9.0480  -15.5408   21.8422 N   0  0  0  0  0  0  0  0  0  0  0  0
    8.8182  -16.1349   23.1711 C   0  0  1  0  0  0  0  0  0  0  0  0
    9.8764  -17.1517   23.4716 C   0  0  0  0  0  0  0  0  0  0  0  0
    9.7705  -18.4108   22.7523 C   0  0  0  0  0  0  0  0  0  0  0  0
   10.3161  -18.6389   21.6512 O   0  0  0  0  0  0  0  0  0  0  0  0
    8.7810  -15.0363   24.1709 C   0  0  0  0  0  0  0  0  0  0  0  0
    9.6330  -14.1417   24.1350 O   0  0  0  0  0  0  0  0  0  0  0  0
    9.0104  -19.4730   23.3010 O   0  0  0  0  0  0  0  0  0  0  0  0
    6.2930  -12.0827   27.0949 C   0  0  0  0  0  0  0  0  0  0  0  0
    6.3619  -13.3042   26.2543 C   0  0  1  0  0  0  0  0  0  0  0  0
    5.8002  -13.0361   25.0076 O   0  0  0  0  0  0  0  0  0  0  0  0
    7.7567  -13.8506   26.0825 C   0  0  2  0  0  0  0  0  0  0  0  0
    7.7839  -14.9753   25.1833 N   0  0  0  0  0  0  0  0  0  0  0  0
    8.4096  -14.1990   27.3399 C   0  0  0  0  0  0  0  0  0  0  0  0
    8.6496  -15.4105   27.5820 O   0  0  0  0  0  0  0  0  0  0  0  0
    8.7948  -13.2864   28.3107 O   0  0  0  0  0  0  0  0  0  0  0  0
  1  2  1  0
  2  3  1  0
  3  4  1  1
  5  3  1  0
  5  7  1  0
  6  5  2  0
  8  7  1  0
  8 12  1  0
  8  9  1  1
 10  9  1  0
 10 14  1  0
 11 10  2  0
 12 13  2  0
 12 19  1  0
 16 15  1  1
 17 16  1  0
 18 16  1  0
 18 20  1  0
 18 19  1  6
 20 22  1  0
 21 20  2  0
M  END
$$$$
