SDT.pdb
     RDKit          3D

 22 21  0  0  1  0  0  0  0  0999 V2000
    8.0447  -13.2510   19.9067 O   0  0  0  0  0  0  0  0  0  0  0  0
    8.6922  -12.4024   19.0240 C   0  0  0  0  0  0  0  0  0  0  0  0
    9.2262  -13.2152   17.8567 C   0  0  2  0  0  0  0  0  0  0  0  0
    8.0913  -13.9012   17.2326 N   0  0  0  0  0  0  0  0  0  0  0  0
   10.1829  -14.2531   18.3334 C   0  0  0  0  0  0  0  0  0  0  0  0
    9.8279  -15.4745   18.4503 O   0  0  0  0  0  0  0  0  0  0  0  0
   11.5244  -13.9598   18.6821 N   0  0  0  0  0  0  0  0  0  0  0  0
   12.4379  -15.0197   19.1443 C   0  0  1  0  0  0  0  0  0  0  0  0
   13.8390  -14.7199   18.7073 C   0  0  0  0  0  0  0  0  0  0  0  0
   14.1712  -15.0887   17.3408 C   0  0  0  0  0  0  0  0  0  0  0  0
   13.8939  -16.1924   16.8237 O   0  0  0  0  0  0  0  0  0  0  0  0
   12.3113  -15.1310   20.6206 C   0  0  0  0  0  0  0  0  0  0  0  0
   12.9145  -14.3382   21.3521 O   0  0  0  0  0  0  0  0  0  0  0  0
   14.8517  -14.1661   16.5084 O   0  0  0  0  0  0  0  0  0  0  0  0
    9.8521  -16.6434   24.5862 C   0  0  0  0  0  0  0  0  0  0  0  0
   10.0380  -16.6462   23.1135 C   0  0  1  0  0  0  0  0  0  0  0  0
    9.0467  -15.8645   22.5240 O   0  0  0  0  0  0  0  0  0  0  0  0
   11.3985  -16.1726   22.6678 C   0  0  2  0  0  0  0  0  0  0  0  0
   11.5072  -16.1321   21.2323 N   0  0  0  0  0  0  0  0  0  0  0  0
   12.5019  -16.9426   23.2320 C   0  0  0  0  0  0  0  0  0  0  0  0
   12.8866  -17.9790   22.6305 O   0  0  0  0  0  0  0  0  0  0  0  0
   13.1752  -16.6202   24.4010 O   0  0  0  0  0  0  0  0  0  0  0  0
  1  2  1  0
  2  3  1  0
  3  4  1  1
  5  3  1  0
  5  7  1  0
  6  5  2  0
  8  7  1  0
  8 12  1  0
  8  9  1  1
 10  9  1  0
 10 14  1  0
 11 10  2  0
 12 13  2  0
 12 19  1  0
 16 15  1  1
 17 16  1  0
 18 16  1  0
 18 20  1  0
 18 19  1  6
 20 22  1  0
 21 20  2  0
M  END
$$$$
