SDT.pdb
     RDKit          3D

 22 21  0  0  1  0  0  0  0  0999 V2000
    7.6454  -12.7709   18.2289 O   0  0  0  0  0  0  0  0  0  0  0  0
    8.8911  -12.9228   17.6427 C   0  0  0  0  0  0  0  0  0  0  0  0
    9.0384  -14.3545   17.1559 C   0  0  2  0  0  0  0  0  0  0  0  0
    7.9092  -14.6436   16.2674 N   0  0  0  0  0  0  0  0  0  0  0  0
    8.9769  -15.3072   18.2997 C   0  0  0  0  0  0  0  0  0  0  0  0
    7.9119  -15.9647   18.5548 O   0  0  0  0  0  0  0  0  0  0  0  0
   10.0745  -15.5427   19.1638 N   0  0  0  0  0  0  0  0  0  0  0  0
   10.0147  -16.5893   20.1995 C   0  0  1  0  0  0  0  0  0  0  0  0
   11.1108  -17.5882   19.9875 C   0  0  0  0  0  0  0  0  0  0  0  0
   11.2435  -18.6128   21.0102 C   0  0  0  0  0  0  0  0  0  0  0  0
   10.3084  -19.3482   21.3936 O   0  0  0  0  0  0  0  0  0  0  0  0
   10.0906  -15.9314   21.5297 C   0  0  0  0  0  0  0  0  0  0  0  0
   11.0596  -15.2170   21.8091 O   0  0  0  0  0  0  0  0  0  0  0  0
   12.4967  -18.8240   21.6364 O   0  0  0  0  0  0  0  0  0  0  0  0
    6.6563  -15.1312   23.9440 C   0  0  0  0  0  0  0  0  0  0  0  0
    7.9650  -14.4314   23.9106 C   0  0  1  0  0  0  0  0  0  0  0  0
    8.1136  -13.6797   25.0744 O   0  0  0  0  0  0  0  0  0  0  0  0
    9.1468  -15.3521   23.7394 C   0  0  2  0  0  0  0  0  0  0  0  0
    9.0717  -16.0958   22.5084 N   0  0  0  0  0  0  0  0  0  0  0  0
    9.3499  -16.2615   24.8621 C   0  0  0  0  0  0  0  0  0  0  0  0
    9.4510  -15.7800   26.0205 O   0  0  0  0  0  0  0  0  0  0  0  0
    9.4436  -17.6412   24.7556 O   0  0  0  0  0  0  0  0  0  0  0  0
  1  2  1  0
  2  3  1  0
  3  4  1  6
  5  3  1  0
  5  7  1  0
  6  5  2  0
  8  7  1  0
  8 12  1  0
  8  9  1  6
 10  9  1  0
 10 14  1  0
 11 10  2  0
 12 13  2  0
 12 19  1  0
 16 15  1  1
 17 16  1  0
 18 16  1  0
 18 20  1  0
 18 19  1  6
 20 22  1  0
 21 20  2  0
M  END
$$$$
