SDT.pdb
     RDKit          3D

 22 21  0  0  1  0  0  0  0  0999 V2000
   -2.7705   -1.0393   16.7367 O   0  0  0  0  0  0  0  0  0  0  0  0
   -3.5806   -1.4389   17.7867 C   0  0  0  0  0  0  0  0  0  0  0  0
   -4.7690   -0.4971   17.8820 C   0  0  2  0  0  0  0  0  0  0  0  0
   -4.2655    0.8196   18.2833 N   0  0  0  0  0  0  0  0  0  0  0  0
   -5.7239   -0.9605   18.9275 C   0  0  0  0  0  0  0  0  0  0  0  0
   -5.6054   -0.5856   20.1428 O   0  0  0  0  0  0  0  0  0  0  0  0
   -6.8062   -1.8311   18.6485 N   0  0  0  0  0  0  0  0  0  0  0  0
   -7.7431   -2.2420   19.7091 C   0  0  1  0  0  0  0  0  0  0  0  0
   -9.1535   -1.9639   19.2877 C   0  0  0  0  0  0  0  0  0  0  0  0
  -10.1905   -2.4157   20.2010 C   0  0  0  0  0  0  0  0  0  0  0  0
  -10.0189   -2.5934   21.4263 O   0  0  0  0  0  0  0  0  0  0  0  0
   -7.5080   -3.6790   20.0055 C   0  0  0  0  0  0  0  0  0  0  0  0
   -7.3401   -4.4795   19.0790 O   0  0  0  0  0  0  0  0  0  0  0  0
  -11.4929   -2.6815   19.7110 O   0  0  0  0  0  0  0  0  0  0  0  0
   -4.8550   -5.4903   22.1461 C   0  0  0  0  0  0  0  0  0  0  0  0
   -6.2224   -5.8621   22.5883 C   0  0  1  0  0  0  0  0  0  0  0  0
   -6.5186   -5.1951   23.7752 O   0  0  0  0  0  0  0  0  0  0  0  0
   -7.2930   -5.5861   21.5629 C   0  0  2  0  0  0  0  0  0  0  0  0
   -7.4674   -4.1743   21.3381 N   0  0  0  0  0  0  0  0  0  0  0  0
   -8.5768   -6.2059   21.8733 C   0  0  0  0  0  0  0  0  0  0  0  0
   -9.5762   -5.4652   22.0643 O   0  0  0  0  0  0  0  0  0  0  0  0
   -8.7909   -7.5723   21.9781 O   0  0  0  0  0  0  0  0  0  0  0  0
  1  2  1  0
  2  3  1  0
  3  4  1  1
  5  3  1  0
  5  7  1  0
  6  5  2  0
  8  7  1  0
  8 12  1  0
  8  9  1  6
 10  9  1  0
 10 14  1  0
 11 10  2  0
 12 13  2  0
 12 19  1  0
 16 15  1  6
 17 16  1  0
 18 16  1  0
 18 20  1  0
 18 19  1  1
 20 22  1  0
 21 20  2  0
M  END
$$$$
