YYF.pdb
     RDKit          3D

 36 38  0  0  1  0  0  0  0  0999 V2000
   36.6894   -7.1292  -12.7237 O   0  0  0  0  0  0  0  0  0  0  0  0
   37.0622   -6.8102  -11.4213 C   0  0  0  0  0  0  0  0  0  0  0  0
   37.1597   -5.4928  -11.0147 C   0  0  0  0  0  0  0  0  0  0  0  0
   37.5274   -5.1756   -9.7303 C   0  0  0  0  0  0  0  0  0  0  0  0
   37.8109   -6.1706   -8.8066 C   0  0  0  0  0  0  0  0  0  0  0  0
   38.2125   -5.8574   -7.4099 C   0  0  0  0  0  0  0  0  0  0  0  0
   39.6293   -5.3222   -7.4350 C   0  0  2  0  0  0  0  0  0  0  0  0
   40.5571   -6.4287   -7.4727 N   0  0  0  0  0  0  0  0  0  0  0  0
   39.9296   -4.4974   -6.2462 C   0  0  0  0  0  0  0  0  0  0  0  0
   39.7698   -4.9951   -5.1083 O   0  0  0  0  0  0  0  0  0  0  0  0
   37.7022   -7.4764   -9.2509 C   0  0  0  0  0  0  0  0  0  0  0  0
   37.3343   -7.8088  -10.5368 C   0  0  0  0  0  0  0  0  0  0  0  0
   42.6409    2.1976   -1.1936 O   0  0  0  0  0  0  0  0  0  0  0  0
   42.3620    1.3862   -2.2760 C   0  0  0  0  0  0  0  0  0  0  0  0
   41.2617    1.6591   -3.0760 C   0  0  0  0  0  0  0  0  0  0  0  0
   40.9667    0.8632   -4.1586 C   0  0  0  0  0  0  0  0  0  0  0  0
   41.7373   -0.2267   -4.4963 C   0  0  0  0  0  0  0  0  0  0  0  0
   41.4406   -1.0833   -5.6424 C   0  0  0  0  0  0  0  0  0  0  0  0
   40.6733   -2.3307   -5.2658 C   0  0  2  0  0  0  0  0  0  0  0  0
   40.3920   -3.1612   -6.4111 N   0  0  0  0  0  0  0  0  0  0  0  0
   39.4256   -1.9871   -4.5274 C   0  0  0  0  0  0  0  0  0  0  0  0
   38.3807   -1.7279   -5.1783 O   0  0  0  0  0  0  0  0  0  0  0  0
   42.8338   -0.5089   -3.7093 C   0  0  0  0  0  0  0  0  0  0  0  0
   43.1296    0.2901   -2.6227 C   0  0  0  0  0  0  0  0  0  0  0  0
   39.3571   -1.9371   -3.1164 N   0  0  0  0  0  0  0  0  0  0  0  0
   38.1560   -1.5410   -2.3889 C   0  0  1  0  0  0  0  0  0  0  0  0
   37.4253   -2.7154   -1.8383 C   0  0  0  0  0  0  0  0  0  0  0  0
   36.2464   -2.4367   -1.0339 C   0  0  0  0  0  0  0  0  0  0  0  0
   35.0845   -2.0067   -1.6303 C   0  0  0  0  0  0  0  0  0  0  0  0
   33.9350   -1.7323   -0.8920 C   0  0  0  0  0  0  0  0  0  0  0  0
   33.9594   -1.8957    0.4785 C   0  0  0  0  0  0  0  0  0  0  0  0
   35.1103   -2.3260    1.1077 C   0  0  0  0  0  0  0  0  0  0  0  0
   36.2358   -2.5914    0.3559 C   0  0  0  0  0  0  0  0  0  0  0  0
   38.4597   -0.5292   -1.3573 C   0  0  0  0  0  0  0  0  0  0  0  0
   37.7879    0.5273   -1.3325 O   0  0  0  0  0  0  0  0  0  0  0  0
   39.4543   -0.6689   -0.3971 O   0  0  0  0  0  0  0  0  0  0  0  0
  2  1  1  0
  3  2  2  0
  4  3  1  0
  5  4  2  0
  5 11  1  0
  6  5  1  0
  7  9  1  0
  7  6  1  0
  7  8  1  1
  9 10  2  0
 11 12  2  0
 12  2  1  0
 13 14  1  0
 14 15  2  0
 15 16  1  0
 17 16  2  0
 17 18  1  0
 19 18  1  6
 19 21  1  0
 20 19  1  0
 20  9  1  0
 21 25  1  0
 21 22  2  0
 23 17  1  0
 24 14  1  0
 24 23  2  0
 25 26  1  0
 26 27  1  1
 28 27  1  0
 29 28  2  0
 30 29  1  0
 31 30  2  0
 31 32  1  0
 32 33  2  0
 33 28  1  0
 34 36  1  0
 34 26  1  0
 35 34  2  0
M  END
$$$$
