YYF.pdb
     RDKit          3D

 36 38  0  0  1  0  0  0  0  0999 V2000
   31.3617  -10.3839  -24.1960 O   0  0  0  0  0  0  0  0  0  0  0  0
   30.6861   -9.9337  -23.0655 C   0  0  0  0  0  0  0  0  0  0  0  0
   31.3213   -9.8679  -21.8398 C   0  0  0  0  0  0  0  0  0  0  0  0
   30.6569   -9.4240  -20.7230 C   0  0  0  0  0  0  0  0  0  0  0  0
   29.3292   -9.0298  -20.7967 C   0  0  0  0  0  0  0  0  0  0  0  0
   28.5840   -8.5463  -19.6045 C   0  0  0  0  0  0  0  0  0  0  0  0
   28.4372   -7.0429  -19.7174 C   0  0  2  0  0  0  0  0  0  0  0  0
   29.7243   -6.4207  -19.5109 N   0  0  0  0  0  0  0  0  0  0  0  0
   27.4891   -6.5039  -18.7204 C   0  0  0  0  0  0  0  0  0  0  0  0
   27.9018   -6.2577  -17.5641 O   0  0  0  0  0  0  0  0  0  0  0  0
   28.7280   -9.1099  -22.0402 C   0  0  0  0  0  0  0  0  0  0  0  0
   29.3830   -9.5533  -23.1688 C   0  0  0  0  0  0  0  0  0  0  0  0
   20.2409   -2.9450  -15.2117 O   0  0  0  0  0  0  0  0  0  0  0  0
   21.3197   -3.3068  -15.9946 C   0  0  0  0  0  0  0  0  0  0  0  0
   21.1067   -3.9340  -17.2137 C   0  0  0  0  0  0  0  0  0  0  0  0
   22.1675   -4.3023  -18.0081 C   0  0  0  0  0  0  0  0  0  0  0  0
   23.4732   -4.0701  -17.6381 C   0  0  0  0  0  0  0  0  0  0  0  0
   24.6131   -4.4531  -18.4684 C   0  0  0  0  0  0  0  0  0  0  0  0
   25.1737   -5.8119  -18.1132 C   0  0  2  0  0  0  0  0  0  0  0  0
   26.1326   -6.2744  -19.0863 N   0  0  0  0  0  0  0  0  0  0  0  0
   24.0807   -6.8052  -17.9166 C   0  0  0  0  0  0  0  0  0  0  0  0
   23.3446   -7.1065  -18.8913 O   0  0  0  0  0  0  0  0  0  0  0  0
   23.6989   -3.4473  -16.4287 C   0  0  0  0  0  0  0  0  0  0  0  0
   22.6337   -3.0777  -15.6314 C   0  0  0  0  0  0  0  0  0  0  0  0
   23.8268   -7.4324  -16.6756 N   0  0  0  0  0  0  0  0  0  0  0  0
   22.7111   -8.3468  -16.4564 C   0  0  1  0  0  0  0  0  0  0  0  0
   23.1112   -9.7686  -16.6425 C   0  0  0  0  0  0  0  0  0  0  0  0
   24.3415  -10.1944  -15.9947 C   0  0  0  0  0  0  0  0  0  0  0  0
   25.5512  -10.0347  -16.6282 C   0  0  0  0  0  0  0  0  0  0  0  0
   26.7502  -10.4287  -16.0375 C   0  0  0  0  0  0  0  0  0  0  0  0
   26.7270  -10.9964  -14.7793 C   0  0  0  0  0  0  0  0  0  0  0  0
   25.5286  -11.1706  -14.1165 C   0  0  0  0  0  0  0  0  0  0  0  0
   24.3546  -10.7728  -14.7215 C   0  0  0  0  0  0  0  0  0  0  0  0
   22.0661   -8.1069  -15.1502 C   0  0  0  0  0  0  0  0  0  0  0  0
   22.6368   -7.3587  -14.3239 O   0  0  0  0  0  0  0  0  0  0  0  0
   20.8511   -8.6617  -14.7669 O   0  0  0  0  0  0  0  0  0  0  0  0
  2  1  1  0
  3  2  2  0
  4  3  1  0
  5  4  2  0
  5 11  1  0
  6  5  1  0
  7  9  1  0
  7  6  1  0
  7  8  1  1
  9 10  2  0
 11 12  2  0
 12  2  1  0
 13 14  1  0
 14 15  2  0
 15 16  1  0
 17 16  2  0
 17 18  1  0
 19 18  1  6
 19 21  1  0
 20 19  1  0
 20  9  1  0
 21 25  1  0
 21 22  2  0
 23 17  1  0
 24 14  1  0
 24 23  2  0
 25 26  1  0
 26 27  1  1
 28 27  1  0
 29 28  2  0
 30 29  1  0
 31 30  2  0
 31 32  1  0
 32 33  2  0
 33 28  1  0
 34 36  1  0
 34 26  1  0
 35 34  2  0
M  END
$$$$
