YYF.pdb
     RDKit          3D

 36 38  0  0  1  0  0  0  0  0999 V2000
   20.7325  -17.8249  -18.2647 O   0  0  0  0  0  0  0  0  0  0  0  0
   21.0443  -16.4687  -18.2412 C   0  0  0  0  0  0  0  0  0  0  0  0
   20.0855  -15.5266  -17.9196 C   0  0  0  0  0  0  0  0  0  0  0  0
   20.3907  -14.1880  -17.8958 C   0  0  0  0  0  0  0  0  0  0  0  0
   21.6710  -13.7464  -18.1945 C   0  0  0  0  0  0  0  0  0  0  0  0
   22.0303  -12.3038  -18.1781 C   0  0  0  0  0  0  0  0  0  0  0  0
   21.4253  -11.6527  -19.4046 C   0  0  2  0  0  0  0  0  0  0  0  0
   22.2692  -11.9117  -20.5480 N   0  0  0  0  0  0  0  0  0  0  0  0
   21.2883  -10.1903  -19.2432 C   0  0  0  0  0  0  0  0  0  0  0  0
   22.2593   -9.4556  -19.5354 O   0  0  0  0  0  0  0  0  0  0  0  0
   22.6028  -14.7187  -18.5115 C   0  0  0  0  0  0  0  0  0  0  0  0
   22.3100  -16.0652  -18.5390 C   0  0  0  0  0  0  0  0  0  0  0  0
   18.7531   -8.1114  -24.9306 O   0  0  0  0  0  0  0  0  0  0  0  0
   18.7141   -8.0359  -23.5520 C   0  0  0  0  0  0  0  0  0  0  0  0
   19.1463   -6.8829  -22.9127 C   0  0  0  0  0  0  0  0  0  0  0  0
   19.1156   -6.7879  -21.5408 C   0  0  0  0  0  0  0  0  0  0  0  0
   18.6614   -7.8168  -20.7466 C   0  0  0  0  0  0  0  0  0  0  0  0
   18.6205   -7.7345  -19.2882 C   0  0  0  0  0  0  0  0  0  0  0  0
   19.8947   -8.2171  -18.6324 C   0  0  2  0  0  0  0  0  0  0  0  0
   20.0651   -9.6434  -18.7621 N   0  0  0  0  0  0  0  0  0  0  0  0
   19.9540   -7.7930  -17.2053 C   0  0  0  0  0  0  0  0  0  0  0  0
   19.2283   -8.3797  -16.3616 O   0  0  0  0  0  0  0  0  0  0  0  0
   18.2290   -8.9685  -21.3695 C   0  0  0  0  0  0  0  0  0  0  0  0
   18.2599   -9.0636  -22.7467 C   0  0  0  0  0  0  0  0  0  0  0  0
   20.7941   -6.7525  -16.7473 N   0  0  0  0  0  0  0  0  0  0  0  0
   20.9031   -6.3740  -15.3425 C   0  0  1  0  0  0  0  0  0  0  0  0
   22.2953   -6.5139  -14.8342 C   0  0  0  0  0  0  0  0  0  0  0  0
   22.9616   -7.7818  -15.0860 C   0  0  0  0  0  0  0  0  0  0  0  0
   22.7095   -8.8701  -14.2845 C   0  0  0  0  0  0  0  0  0  0  0  0
   23.3274  -10.1009  -14.4970 C   0  0  0  0  0  0  0  0  0  0  0  0
   24.2195  -10.2355  -15.5418 C   0  0  0  0  0  0  0  0  0  0  0  0
   24.4944   -9.1618  -16.3648 C   0  0  0  0  0  0  0  0  0  0  0  0
   23.8705   -7.9534  -16.1348 C   0  0  0  0  0  0  0  0  0  0  0  0
   20.3456   -5.0282  -15.1019 C   0  0  0  0  0  0  0  0  0  0  0  0
   20.2064   -4.6352  -13.9211 O   0  0  0  0  0  0  0  0  0  0  0  0
   19.9581   -4.1532  -16.1094 O   0  0  0  0  0  0  0  0  0  0  0  0
  2  1  1  0
  3  2  2  0
  4  3  1  0
  5  4  2  0
  5 11  1  0
  6  5  1  0
  7  9  1  0
  7  6  1  0
  7  8  1  6
  9 10  2  0
 11 12  2  0
 12  2  1  0
 13 14  1  0
 14 15  2  0
 15 16  1  0
 17 16  2  0
 17 18  1  0
 19 18  1  1
 19 21  1  0
 20 19  1  0
 20  9  1  0
 21 25  1  0
 21 22  2  0
 23 17  1  0
 24 14  1  0
 24 23  2  0
 25 26  1  0
 26 27  1  6
 28 27  1  0
 29 28  2  0
 30 29  1  0
 31 30  2  0
 31 32  1  0
 32 33  2  0
 33 28  1  0
 34 36  1  0
 34 26  1  0
 35 34  2  0
M  END
$$$$
