YYF.pdb
     RDKit          3D

 36 38  0  0  1  0  0  0  0  0999 V2000
   28.7439  -21.0632  -23.7450 O   0  0  0  0  0  0  0  0  0  0  0  0
   28.1399  -21.5004  -22.5698 C   0  0  0  0  0  0  0  0  0  0  0  0
   28.0117  -22.8495  -22.2984 C   0  0  0  0  0  0  0  0  0  0  0  0
   27.4161  -23.2833  -21.1397 C   0  0  0  0  0  0  0  0  0  0  0  0
   26.9271  -22.3772  -20.2105 C   0  0  0  0  0  0  0  0  0  0  0  0
   26.2766  -22.8173  -18.9482 C   0  0  0  0  0  0  0  0  0  0  0  0
   27.3368  -22.8813  -17.8682 C   0  0  2  0  0  0  0  0  0  0  0  0
   28.2034  -24.0100  -18.1162 N   0  0  0  0  0  0  0  0  0  0  0  0
   26.7459  -23.0293  -16.5219 C   0  0  0  0  0  0  0  0  0  0  0  0
   26.5126  -24.1800  -16.0865 O   0  0  0  0  0  0  0  0  0  0  0  0
   27.0738  -21.0361  -20.5174 C   0  0  0  0  0  0  0  0  0  0  0  0
   27.6694  -20.5871  -21.6764 C   0  0  0  0  0  0  0  0  0  0  0  0
   24.0146  -20.9749   -8.3838 O   0  0  0  0  0  0  0  0  0  0  0  0
   24.5645  -20.9227   -9.6497 C   0  0  0  0  0  0  0  0  0  0  0  0
   23.8390  -20.3668  -10.6936 C   0  0  0  0  0  0  0  0  0  0  0  0
   24.3687  -20.3053  -11.9616 C   0  0  0  0  0  0  0  0  0  0  0  0
   25.6259  -20.7853  -12.2528 C   0  0  0  0  0  0  0  0  0  0  0  0
   26.2059  -20.7284  -13.5928 C   0  0  0  0  0  0  0  0  0  0  0  0
   25.9762  -21.9921  -14.3911 C   0  0  2  0  0  0  0  0  0  0  0  0
   26.4533  -21.8716  -15.7469 N   0  0  0  0  0  0  0  0  0  0  0  0
   24.5413  -22.3919  -14.3562 C   0  0  0  0  0  0  0  0  0  0  0  0
   24.0576  -22.8439  -13.2864 O   0  0  0  0  0  0  0  0  0  0  0  0
   26.3575  -21.3405  -11.2243 C   0  0  0  0  0  0  0  0  0  0  0  0
   25.8255  -21.4020   -9.9515 C   0  0  0  0  0  0  0  0  0  0  0  0
   23.6873  -22.2877  -15.4777 N   0  0  0  0  0  0  0  0  0  0  0  0
   22.4917  -21.4517  -15.4961 C   0  0  1  0  0  0  0  0  0  0  0  0
   22.1150  -20.9881  -14.1326 C   0  0  0  0  0  0  0  0  0  0  0  0
   20.9544  -21.6173  -13.5227 C   0  0  0  0  0  0  0  0  0  0  0  0
   20.9951  -22.0255  -12.2104 C   0  0  0  0  0  0  0  0  0  0  0  0
   19.9020  -22.6296  -11.5923 C   0  0  0  0  0  0  0  0  0  0  0  0
   18.7425  -22.8258  -12.3153 C   0  0  0  0  0  0  0  0  0  0  0  0
   18.6695  -22.4273  -13.6350 C   0  0  0  0  0  0  0  0  0  0  0  0
   19.7644  -21.8314  -14.2254 C   0  0  0  0  0  0  0  0  0  0  0  0
   22.6278  -20.3373  -16.4551 C   0  0  0  0  0  0  0  0  0  0  0  0
   23.7612  -20.0759  -16.9191 O   0  0  0  0  0  0  0  0  0  0  0  0
   21.5702  -19.5456  -16.8857 O   0  0  0  0  0  0  0  0  0  0  0  0
  2  1  1  0
  3  2  2  0
  4  3  1  0
  5  4  2  0
  5 11  1  0
  6  5  1  0
  7  9  1  0
  7  6  1  0
  7  8  1  6
  9 10  2  0
 11 12  2  0
 12  2  1  0
 13 14  1  0
 14 15  2  0
 15 16  1  0
 17 16  2  0
 17 18  1  0
 19 18  1  6
 19 21  1  0
 20 19  1  0
 20  9  1  0
 21 25  1  0
 21 22  2  0
 23 17  1  0
 24 14  1  0
 24 23  2  0
 25 26  1  0
 26 27  1  1
 28 27  1  0
 29 28  2  0
 30 29  1  0
 31 30  2  0
 31 32  1  0
 32 33  2  0
 33 28  1  0
 34 36  1  0
 34 26  1  0
 35 34  2  0
M  END
$$$$
