YYF.pdb
     RDKit          3D

 36 38  0  0  1  0  0  0  0  0999 V2000
   32.2247  -16.8828  -19.6110 O   0  0  0  0  0  0  0  0  0  0  0  0
   31.3494  -16.9921  -18.5345 C   0  0  0  0  0  0  0  0  0  0  0  0
   31.3085  -18.1416  -17.7683 C   0  0  0  0  0  0  0  0  0  0  0  0
   30.4458  -18.2518  -16.7057 C   0  0  0  0  0  0  0  0  0  0  0  0
   29.5918  -17.2106  -16.3737 C   0  0  0  0  0  0  0  0  0  0  0  0
   28.6464  -17.3018  -15.2299 C   0  0  0  0  0  0  0  0  0  0  0  0
   27.5299  -18.2503  -15.6148 C   0  0  2  0  0  0  0  0  0  0  0  0
   26.7538  -17.6655  -16.6835 N   0  0  0  0  0  0  0  0  0  0  0  0
   26.6280  -18.5322  -14.4788 C   0  0  0  0  0  0  0  0  0  0  0  0
   25.8407  -17.6374  -14.0947 O   0  0  0  0  0  0  0  0  0  0  0  0
   29.6619  -16.0769  -17.1636 C   0  0  0  0  0  0  0  0  0  0  0  0
   30.5230  -15.9531  -18.2326 C   0  0  0  0  0  0  0  0  0  0  0  0
   20.2619  -20.8877   -9.5958 O   0  0  0  0  0  0  0  0  0  0  0  0
   21.3197  -20.8921  -10.4839 C   0  0  0  0  0  0  0  0  0  0  0  0
   22.0681  -22.0473  -10.6583 C   0  0  0  0  0  0  0  0  0  0  0  0
   23.1254  -22.0721  -11.5378 C   0  0  0  0  0  0  0  0  0  0  0  0
   23.4876  -20.9685  -12.2771 C   0  0  0  0  0  0  0  0  0  0  0  0
   24.6068  -20.9756  -13.2166 C   0  0  0  0  0  0  0  0  0  0  0  0
   25.7668  -20.1190  -12.7615 C   0  0  2  0  0  0  0  0  0  0  0  0
   26.6673  -19.8056  -13.8437 N   0  0  0  0  0  0  0  0  0  0  0  0
   26.4884  -20.7580  -11.6253 C   0  0  0  0  0  0  0  0  0  0  0  0
   27.2663  -21.7192  -11.8571 O   0  0  0  0  0  0  0  0  0  0  0  0
   22.7519  -19.8138  -12.1132 C   0  0  0  0  0  0  0  0  0  0  0  0
   21.6906  -19.7892  -11.2302 C   0  0  0  0  0  0  0  0  0  0  0  0
   26.3405  -20.3335  -10.2852 N   0  0  0  0  0  0  0  0  0  0  0  0
   26.5015  -21.2261   -9.1424 C   0  0  1  0  0  0  0  0  0  0  0  0
   27.8054  -21.0205   -8.4541 C   0  0  0  0  0  0  0  0  0  0  0  0
   27.7732  -20.3099   -7.1857 C   0  0  0  0  0  0  0  0  0  0  0  0
   28.1365  -20.9475   -6.0231 C   0  0  0  0  0  0  0  0  0  0  0  0
   28.1202  -20.2981   -4.7903 C   0  0  0  0  0  0  0  0  0  0  0  0
   27.7284  -18.9757   -4.7304 C   0  0  0  0  0  0  0  0  0  0  0  0
   27.3575  -18.3071   -5.8798 C   0  0  0  0  0  0  0  0  0  0  0  0
   27.3817  -18.9709   -7.0886 C   0  0  0  0  0  0  0  0  0  0  0  0
   25.3533  -21.1321   -8.2189 C   0  0  0  0  0  0  0  0  0  0  0  0
   24.4515  -20.2975   -8.4607 O   0  0  0  0  0  0  0  0  0  0  0  0
   25.2005  -21.9167   -7.0823 O   0  0  0  0  0  0  0  0  0  0  0  0
  2  1  1  0
  3  2  2  0
  4  3  1  0
  5  4  2  0
  5 11  1  0
  6  5  1  0
  7  9  1  0
  7  6  1  0
  7  8  1  6
  9 10  2  0
 11 12  2  0
 12  2  1  0
 13 14  1  0
 14 15  2  0
 15 16  1  0
 17 16  2  0
 17 18  1  0
 19 18  1  6
 19 21  1  0
 20 19  1  0
 20  9  1  0
 21 25  1  0
 21 22  2  0
 23 17  1  0
 24 14  1  0
 24 23  2  0
 25 26  1  0
 26 27  1  1
 28 27  1  0
 29 28  2  0
 30 29  1  0
 31 30  2  0
 31 32  1  0
 32 33  2  0
 33 28  1  0
 34 36  1  0
 34 26  1  0
 35 34  2  0
M  END
$$$$
