YYF.pdb
     RDKit          3D

 36 38  0  0  1  0  0  0  0  0999 V2000
   30.7281  -17.3484  -19.5170 O   0  0  0  0  0  0  0  0  0  0  0  0
   29.9876  -17.4480  -18.3427 C   0  0  0  0  0  0  0  0  0  0  0  0
   29.9908  -18.6133  -17.5996 C   0  0  0  0  0  0  0  0  0  0  0  0
   29.2610  -18.7139  -16.4408 C   0  0  0  0  0  0  0  0  0  0  0  0
   28.5007  -17.6469  -15.9857 C   0  0  0  0  0  0  0  0  0  0  0  0
   27.6998  -17.7271  -14.7358 C   0  0  0  0  0  0  0  0  0  0  0  0
   26.7850  -18.9301  -14.8377 C   0  0  2  0  0  0  0  0  0  0  0  0
   25.8311  -18.7158  -15.9011 N   0  0  0  0  0  0  0  0  0  0  0  0
   26.0434  -19.1684  -13.5820 C   0  0  0  0  0  0  0  0  0  0  0  0
   25.2851  -18.2716  -13.1475 O   0  0  0  0  0  0  0  0  0  0  0  0
   28.5228  -16.4981  -16.7564 C   0  0  0  0  0  0  0  0  0  0  0  0
   29.2507  -16.3837  -17.9211 C   0  0  0  0  0  0  0  0  0  0  0  0
   20.1904  -20.0978  -15.2467 O   0  0  0  0  0  0  0  0  0  0  0  0
   21.2148  -20.4901  -14.4074 C   0  0  0  0  0  0  0  0  0  0  0  0
   22.2656  -21.2447  -14.9090 C   0  0  0  0  0  0  0  0  0  0  0  0
   23.2953  -21.6453  -14.0897 C   0  0  0  0  0  0  0  0  0  0  0  0
   23.3333  -21.3221  -12.7518 C   0  0  0  0  0  0  0  0  0  0  0  0
   24.4186  -21.7377  -11.8659 C   0  0  0  0  0  0  0  0  0  0  0  0
   25.4701  -20.6676  -11.6761 C   0  0  2  0  0  0  0  0  0  0  0  0
   26.2007  -20.4032  -12.8913 N   0  0  0  0  0  0  0  0  0  0  0  0
   26.3899  -21.0160  -10.5569 C   0  0  0  0  0  0  0  0  0  0  0  0
   27.1656  -21.9982  -10.6852 O   0  0  0  0  0  0  0  0  0  0  0  0
   22.2950  -20.5724  -12.2407 C   0  0  0  0  0  0  0  0  0  0  0  0
   21.2614  -20.1704  -13.0634 C   0  0  0  0  0  0  0  0  0  0  0  0
   26.4345  -20.2901   -9.3449 N   0  0  0  0  0  0  0  0  0  0  0  0
   27.1474  -20.7566   -8.1605 C   0  0  1  0  0  0  0  0  0  0  0  0
   28.3243  -19.9011   -7.8454 C   0  0  0  0  0  0  0  0  0  0  0  0
   28.6602  -19.7386   -6.4399 C   0  0  0  0  0  0  0  0  0  0  0  0
   28.1385  -18.6913   -5.7178 C   0  0  0  0  0  0  0  0  0  0  0  0
   28.4361  -18.5053   -4.3692 C   0  0  0  0  0  0  0  0  0  0  0  0
   29.2790  -19.3965   -3.7361 C   0  0  0  0  0  0  0  0  0  0  0  0
   29.8194  -20.4586   -4.4330 C   0  0  0  0  0  0  0  0  0  0  0  0
   29.5102  -20.6222   -5.7673 C   0  0  0  0  0  0  0  0  0  0  0  0
   26.2363  -20.9116   -7.0091 C   0  0  0  0  0  0  0  0  0  0  0  0
   25.1217  -20.3415   -7.0408 O   0  0  0  0  0  0  0  0  0  0  0  0
   26.5330  -21.6573   -5.8747 O   0  0  0  0  0  0  0  0  0  0  0  0
  2  1  1  0
  3  2  2  0
  4  3  1  0
  5  4  2  0
  5 11  1  0
  6  5  1  0
  7  9  1  0
  7  6  1  0
  7  8  1  6
  9 10  2  0
 11 12  2  0
 12  2  1  0
 13 14  1  0
 14 15  2  0
 15 16  1  0
 17 16  2  0
 17 18  1  0
 19 18  1  6
 19 21  1  0
 20 19  1  0
 20  9  1  0
 21 25  1  0
 21 22  2  0
 23 17  1  0
 24 14  1  0
 24 23  2  0
 25 26  1  0
 26 27  1  1
 28 27  1  0
 29 28  2  0
 30 29  1  0
 31 30  2  0
 31 32  1  0
 32 33  2  0
 33 28  1  0
 34 36  1  0
 34 26  1  0
 35 34  2  0
M  END
$$$$
