YYF.pdb
     RDKit          3D

 36 38  0  0  1  0  0  0  0  0999 V2000
   10.3205   -2.5099  -19.1845 O   0  0  0  0  0  0  0  0  0  0  0  0
   11.3077   -3.0821  -18.3874 C   0  0  0  0  0  0  0  0  0  0  0  0
   11.8906   -2.3667  -17.3586 C   0  0  0  0  0  0  0  0  0  0  0  0
   12.8647   -2.9291  -16.5709 C   0  0  0  0  0  0  0  0  0  0  0  0
   13.2892   -4.2315  -16.7880 C   0  0  0  0  0  0  0  0  0  0  0  0
   14.3424   -4.8661  -15.9524 C   0  0  0  0  0  0  0  0  0  0  0  0
   15.5382   -5.1521  -16.8371 C   0  0  2  0  0  0  0  0  0  0  0  0
   15.2052   -6.2099  -17.7627 N   0  0  0  0  0  0  0  0  0  0  0  0
   16.7191   -5.5686  -16.0525 C   0  0  0  0  0  0  0  0  0  0  0  0
   17.1287   -4.8232  -15.1335 O   0  0  0  0  0  0  0  0  0  0  0  0
   12.6824   -4.9151  -17.8266 C   0  0  0  0  0  0  0  0  0  0  0  0
   11.7037   -4.3628  -18.6246 C   0  0  0  0  0  0  0  0  0  0  0  0
   24.0157  -10.2194  -14.2132 O   0  0  0  0  0  0  0  0  0  0  0  0
   22.7306   -9.8459  -14.5551 C   0  0  0  0  0  0  0  0  0  0  0  0
   22.3704   -9.7616  -15.8924 C   0  0  0  0  0  0  0  0  0  0  0  0
   21.0958   -9.3915  -16.2537 C   0  0  0  0  0  0  0  0  0  0  0  0
   20.1294   -9.0911  -15.3202 C   0  0  0  0  0  0  0  0  0  0  0  0
   18.7703   -8.6968  -15.6843 C   0  0  0  0  0  0  0  0  0  0  0  0
   18.5556   -7.2007  -15.6374 C   0  0  2  0  0  0  0  0  0  0  0  0
   17.3675   -6.8004  -16.3505 N   0  0  0  0  0  0  0  0  0  0  0  0
   19.7565   -6.4735  -16.1362 C   0  0  0  0  0  0  0  0  0  0  0  0
   20.2225   -6.7649  -17.2679 O   0  0  0  0  0  0  0  0  0  0  0  0
   20.4744   -9.1709  -13.9875 C   0  0  0  0  0  0  0  0  0  0  0  0
   21.7540   -9.5425  -13.6251 C   0  0  0  0  0  0  0  0  0  0  0  0
   20.4057   -5.4616  -15.3928 N   0  0  0  0  0  0  0  0  0  0  0  0
   21.7147   -4.9245  -15.7487 C   0  0  1  0  0  0  0  0  0  0  0  0
   21.6054   -3.6623  -16.5304 C   0  0  0  0  0  0  0  0  0  0  0  0
   20.9928   -2.5263  -15.8604 C   0  0  0  0  0  0  0  0  0  0  0  0
   19.6542   -2.2606  -16.0274 C   0  0  0  0  0  0  0  0  0  0  0  0
   19.0328   -1.1828  -15.3996 C   0  0  0  0  0  0  0  0  0  0  0  0
   19.7797   -0.3552  -14.5854 C   0  0  0  0  0  0  0  0  0  0  0  0
   21.1261   -0.5948  -14.3971 C   0  0  0  0  0  0  0  0  0  0  0  0
   21.7192   -1.6678  -15.0291 C   0  0  0  0  0  0  0  0  0  0  0  0
   22.5796   -4.7810  -14.5607 C   0  0  0  0  0  0  0  0  0  0  0  0
   23.8083   -4.6048  -14.7268 O   0  0  0  0  0  0  0  0  0  0  0  0
   22.1191   -4.8287  -13.2505 O   0  0  0  0  0  0  0  0  0  0  0  0
  2  1  1  0
  3  2  2  0
  4  3  1  0
  5  4  2  0
  5 11  1  0
  6  5  1  0
  7  9  1  0
  7  6  1  0
  7  8  1  6
  9 10  2  0
 11 12  2  0
 12  2  1  0
 13 14  1  0
 14 15  2  0
 15 16  1  0
 17 16  2  0
 17 18  1  0
 19 18  1  6
 19 21  1  0
 20 19  1  0
 20  9  1  0
 21 25  1  0
 21 22  2  0
 23 17  1  0
 24 14  1  0
 24 23  2  0
 25 26  1  0
 26 27  1  1
 28 27  1  0
 29 28  2  0
 30 29  1  0
 31 30  2  0
 31 32  1  0
 32 33  2  0
 33 28  1  0
 34 36  1  0
 34 26  1  0
 35 34  2  0
M  END
$$$$
