YYF.pdb
     RDKit          3D

 36 38  0  0  1  0  0  0  0  0999 V2000
   14.9532  -21.7516  -10.1624 O   0  0  0  0  0  0  0  0  0  0  0  0
   14.5262  -21.3913   -8.8877 C   0  0  0  0  0  0  0  0  0  0  0  0
   14.0126  -20.1319   -8.6421 C   0  0  0  0  0  0  0  0  0  0  0  0
   13.5908  -19.7741   -7.3853 C   0  0  0  0  0  0  0  0  0  0  0  0
   13.6695  -20.6687   -6.3284 C   0  0  0  0  0  0  0  0  0  0  0  0
   13.2218  -20.3091   -4.9571 C   0  0  0  0  0  0  0  0  0  0  0  0
   11.8241  -20.8579   -4.7578 C   0  0  2  0  0  0  0  0  0  0  0  0
   10.9072  -20.1558   -5.6254 N   0  0  0  0  0  0  0  0  0  0  0  0
   11.3633  -20.7025   -3.3625 C   0  0  0  0  0  0  0  0  0  0  0  0
   10.9724  -19.5774   -2.9759 O   0  0  0  0  0  0  0  0  0  0  0  0
   14.1890  -21.9190   -6.6135 C   0  0  0  0  0  0  0  0  0  0  0  0
   14.6159  -22.2911   -7.8700 C   0  0  0  0  0  0  0  0  0  0  0  0
    5.1020  -20.9316   -4.0034 O   0  0  0  0  0  0  0  0  0  0  0  0
    6.2015  -21.3619   -3.2866 C   0  0  0  0  0  0  0  0  0  0  0  0
    6.5080  -20.7661   -2.0716 C   0  0  0  0  0  0  0  0  0  0  0  0
    7.5985  -21.1800   -1.3425 C   0  0  0  0  0  0  0  0  0  0  0  0
    8.4270  -22.1907   -1.7760 C   0  0  0  0  0  0  0  0  0  0  0  0
    9.5893  -22.6447   -1.0156 C   0  0  0  0  0  0  0  0  0  0  0  0
   10.7885  -21.7365   -1.1694 C   0  0  2  0  0  0  0  0  0  0  0  0
   11.3704  -21.8245   -2.4862 N   0  0  0  0  0  0  0  0  0  0  0  0
   11.8019  -22.0071   -0.1112 C   0  0  0  0  0  0  0  0  0  0  0  0
   12.7233  -22.8319   -0.3424 O   0  0  0  0  0  0  0  0  0  0  0  0
    8.1335  -22.7913   -2.9821 C   0  0  0  0  0  0  0  0  0  0  0  0
    7.0387  -22.3755   -3.7138 C   0  0  0  0  0  0  0  0  0  0  0  0
   11.7790  -21.3764    1.1536 N   0  0  0  0  0  0  0  0  0  0  0  0
   12.7204  -21.6947    2.2218 C   0  0  1  0  0  0  0  0  0  0  0  0
   13.6553  -20.5688    2.4945 C   0  0  0  0  0  0  0  0  0  0  0  0
   14.8463  -20.4888    1.6640 C   0  0  0  0  0  0  0  0  0  0  0  0
   14.7988  -19.8644    0.4399 C   0  0  0  0  0  0  0  0  0  0  0  0
   15.9201  -19.7667   -0.3816 C   0  0  0  0  0  0  0  0  0  0  0  0
   17.1156  -20.3113    0.0423 C   0  0  0  0  0  0  0  0  0  0  0  0
   17.1965  -20.9449    1.2662 C   0  0  0  0  0  0  0  0  0  0  0  0
   16.0731  -21.0293    2.0621 C   0  0  0  0  0  0  0  0  0  0  0  0
   12.0207  -22.1562    3.4373 C   0  0  0  0  0  0  0  0  0  0  0  0
   10.7711  -22.0842    3.4780 O   0  0  0  0  0  0  0  0  0  0  0  0
   12.6612  -22.6727    4.5571 O   0  0  0  0  0  0  0  0  0  0  0  0
  2  1  1  0
  3  2  2  0
  4  3  1  0
  5  4  2  0
  5 11  1  0
  6  5  1  0
  7  9  1  0
  7  6  1  0
  7  8  1  6
  9 10  2  0
 11 12  2  0
 12  2  1  0
 13 14  1  0
 14 15  2  0
 15 16  1  0
 17 16  2  0
 17 18  1  0
 19 18  1  6
 19 21  1  0
 20 19  1  0
 20  9  1  0
 21 25  1  0
 21 22  2  0
 23 17  1  0
 24 14  1  0
 24 23  2  0
 25 26  1  0
 26 27  1  1
 28 27  1  0
 29 28  2  0
 30 29  1  0
 31 30  2  0
 31 32  1  0
 32 33  2  0
 33 28  1  0
 34 36  1  0
 34 26  1  0
 35 34  2  0
M  END
$$$$
