YYF.pdb
     RDKit          3D

 36 38  0  0  1  0  0  0  0  0999 V2000
   15.2773  -15.5959  -15.4067 O   0  0  0  0  0  0  0  0  0  0  0  0
   16.1600  -14.5209  -15.4539 C   0  0  0  0  0  0  0  0  0  0  0  0
   15.7151  -13.2522  -15.7744 C   0  0  0  0  0  0  0  0  0  0  0  0
   16.5842  -12.1901  -15.8216 C   0  0  0  0  0  0  0  0  0  0  0  0
   17.9328  -12.3635  -15.5485 C   0  0  0  0  0  0  0  0  0  0  0  0
   18.8972  -11.2329  -15.5930 C   0  0  0  0  0  0  0  0  0  0  0  0
   19.2306  -10.9538  -17.0440 C   0  0  2  0  0  0  0  0  0  0  0  0
   20.0812  -12.0063  -17.5493 N   0  0  0  0  0  0  0  0  0  0  0  0
   19.9299   -9.6630  -17.2119 C   0  0  0  0  0  0  0  0  0  0  0  0
   21.1692   -9.6188  -17.0373 O   0  0  0  0  0  0  0  0  0  0  0  0
   18.3399  -13.6474  -15.2318 C   0  0  0  0  0  0  0  0  0  0  0  0
   17.4785  -14.7220  -15.1808 C   0  0  0  0  0  0  0  0  0  0  0  0
   21.7967   -1.4817  -19.7937 O   0  0  0  0  0  0  0  0  0  0  0  0
   21.1648   -2.6887  -19.5668 C   0  0  0  0  0  0  0  0  0  0  0  0
   20.1015   -2.7532  -18.6778 C   0  0  0  0  0  0  0  0  0  0  0  0
   19.4588   -3.9455  -18.4380 C   0  0  0  0  0  0  0  0  0  0  0  0
   19.8335   -5.1159  -19.0589 C   0  0  0  0  0  0  0  0  0  0  0  0
   19.1630   -6.3916  -18.8178 C   0  0  0  0  0  0  0  0  0  0  0  0
   19.8564   -7.2362  -17.7726 C   0  0  2  0  0  0  0  0  0  0  0  0
   19.1908   -8.4991  -17.5666 N   0  0  0  0  0  0  0  0  0  0  0  0
   20.0034   -6.4873  -16.4929 C   0  0  0  0  0  0  0  0  0  0  0  0
   18.9811   -6.2600  -15.7957 O   0  0  0  0  0  0  0  0  0  0  0  0
   20.8890   -5.0656  -19.9449 C   0  0  0  0  0  0  0  0  0  0  0  0
   21.5339   -3.8685  -20.1854 C   0  0  0  0  0  0  0  0  0  0  0  0
   21.2479   -6.0139  -16.0185 N   0  0  0  0  0  0  0  0  0  0  0  0
   21.3976   -5.2758  -14.7689 C   0  0  1  0  0  0  0  0  0  0  0  0
   22.2218   -6.0200  -13.7774 C   0  0  0  0  0  0  0  0  0  0  0  0
   22.9317   -7.1929  -14.2625 C   0  0  0  0  0  0  0  0  0  0  0  0
   23.8834   -7.0707  -15.2472 C   0  0  0  0  0  0  0  0  0  0  0  0
   24.5850   -8.1715  -15.7347 C   0  0  0  0  0  0  0  0  0  0  0  0
   24.3197   -9.4232  -15.2164 C   0  0  0  0  0  0  0  0  0  0  0  0
   23.3699   -9.5796  -14.2269 C   0  0  0  0  0  0  0  0  0  0  0  0
   22.6881   -8.4751  -13.7601 C   0  0  0  0  0  0  0  0  0  0  0  0
   21.8986   -3.9076  -15.0077 C   0  0  0  0  0  0  0  0  0  0  0  0
   21.8486   -3.0752  -14.0734 O   0  0  0  0  0  0  0  0  0  0  0  0
   22.4299   -3.4714  -16.2153 O   0  0  0  0  0  0  0  0  0  0  0  0
  2  1  1  0
  3  2  2  0
  4  3  1  0
  5  4  2  0
  5 11  1  0
  6  5  1  0
  7  9  1  0
  7  6  1  0
  7  8  1  1
  9 10  2  0
 11 12  2  0
 12  2  1  0
 13 14  1  0
 14 15  2  0
 15 16  1  0
 17 16  2  0
 17 18  1  0
 19 18  1  6
 19 21  1  0
 20 19  1  0
 20  9  1  0
 21 25  1  0
 21 22  2  0
 23 17  1  0
 24 14  1  0
 24 23  2  0
 25 26  1  0
 26 27  1  1
 28 27  1  0
 29 28  2  0
 30 29  1  0
 31 30  2  0
 31 32  1  0
 32 33  2  0
 33 28  1  0
 34 36  1  0
 34 26  1  0
 35 34  2  0
M  END
$$$$
