YYF.pdb
     RDKit          3D

 36 38  0  0  1  0  0  0  0  0999 V2000
   26.8709  -15.8369  -23.3610 O   0  0  0  0  0  0  0  0  0  0  0  0
   26.0123  -15.6894  -22.2755 C   0  0  0  0  0  0  0  0  0  0  0  0
   25.0825  -16.6652  -21.9698 C   0  0  0  0  0  0  0  0  0  0  0  0
   24.2344  -16.5219  -20.8995 C   0  0  0  0  0  0  0  0  0  0  0  0
   24.2891  -15.3925  -20.0964 C   0  0  0  0  0  0  0  0  0  0  0  0
   23.3830  -15.2093  -18.9321 C   0  0  0  0  0  0  0  0  0  0  0  0
   22.0006  -14.8809  -19.4569 C   0  0  2  0  0  0  0  0  0  0  0  0
   22.0010  -13.5415  -19.9977 N   0  0  0  0  0  0  0  0  0  0  0  0
   20.9741  -14.9594  -18.3969 C   0  0  0  0  0  0  0  0  0  0  0  0
   20.8401  -13.9935  -17.6114 O   0  0  0  0  0  0  0  0  0  0  0  0
   25.2325  -14.4383  -20.4341 C   0  0  0  0  0  0  0  0  0  0  0  0
   26.0897  -14.5695  -21.5053 C   0  0  0  0  0  0  0  0  0  0  0  0
   16.2123  -11.0272  -19.6905 O   0  0  0  0  0  0  0  0  0  0  0  0
   16.5781  -12.2804  -19.2397 C   0  0  0  0  0  0  0  0  0  0  0  0
   17.2131  -13.1640  -20.1006 C   0  0  0  0  0  0  0  0  0  0  0  0
   17.5854  -14.4166  -19.6710 C   0  0  0  0  0  0  0  0  0  0  0  0
   17.3498  -14.8486  -18.3851 C   0  0  0  0  0  0  0  0  0  0  0  0
   17.7383  -16.1748  -17.9101 C   0  0  0  0  0  0  0  0  0  0  0  0
   19.1179  -16.2010  -17.2915 C   0  0  2  0  0  0  0  0  0  0  0  0
   20.1599  -16.1219  -18.2856 N   0  0  0  0  0  0  0  0  0  0  0  0
   19.2900  -17.3985  -16.4218 C   0  0  0  0  0  0  0  0  0  0  0  0
   19.4648  -18.5237  -16.9568 O   0  0  0  0  0  0  0  0  0  0  0  0
   16.7194  -13.9801  -17.5193 C   0  0  0  0  0  0  0  0  0  0  0  0
   16.3457  -12.7227  -17.9507 C   0  0  0  0  0  0  0  0  0  0  0  0
   19.2659  -17.3325  -15.0100 N   0  0  0  0  0  0  0  0  0  0  0  0
   19.3830  -18.5079  -14.1535 C   0  0  1  0  0  0  0  0  0  0  0  0
   19.8238  -18.1524  -12.7768 C   0  0  0  0  0  0  0  0  0  0  0  0
   19.8739  -19.2325  -11.8043 C   0  0  0  0  0  0  0  0  0  0  0  0
   20.9772  -20.0494  -11.7299 C   0  0  0  0  0  0  0  0  0  0  0  0
   21.0614  -21.0923  -10.8096 C   0  0  0  0  0  0  0  0  0  0  0  0
   20.0082  -21.3151   -9.9454 C   0  0  0  0  0  0  0  0  0  0  0  0
   18.8860  -20.5126   -9.9947 C   0  0  0  0  0  0  0  0  0  0  0  0
   18.8255  -19.4864  -10.9142 C   0  0  0  0  0  0  0  0  0  0  0  0
   18.1412  -19.3065  -14.1615 C   0  0  0  0  0  0  0  0  0  0  0  0
   17.0404  -18.7105  -14.1250 O   0  0  0  0  0  0  0  0  0  0  0  0
   18.1073  -20.6949  -14.2074 O   0  0  0  0  0  0  0  0  0  0  0  0
  2  1  1  0
  3  2  2  0
  4  3  1  0
  5  4  2  0
  5 11  1  0
  6  5  1  0
  7  9  1  0
  7  6  1  0
  7  8  1  1
  9 10  2  0
 11 12  2  0
 12  2  1  0
 13 14  1  0
 14 15  2  0
 15 16  1  0
 17 16  2  0
 17 18  1  0
 19 18  1  6
 19 21  1  0
 20 19  1  0
 20  9  1  0
 21 25  1  0
 21 22  2  0
 23 17  1  0
 24 14  1  0
 24 23  2  0
 25 26  1  0
 26 27  1  1
 28 27  1  0
 29 28  2  0
 30 29  1  0
 31 30  2  0
 31 32  1  0
 32 33  2  0
 33 28  1  0
 34 36  1  0
 34 26  1  0
 35 34  2  0
M  END
$$$$
