YYF.pdb
     RDKit          3D

 36 38  0  0  1  0  0  0  0  0999 V2000
   28.0711   -5.8451  -22.1243 O   0  0  0  0  0  0  0  0  0  0  0  0
   26.9467   -5.8225  -21.3044 C   0  0  0  0  0  0  0  0  0  0  0  0
   27.0697   -5.6624  -19.9372 C   0  0  0  0  0  0  0  0  0  0  0  0
   25.9618   -5.6397  -19.1263 C   0  0  0  0  0  0  0  0  0  0  0  0
   24.6888   -5.7773  -19.6594 C   0  0  0  0  0  0  0  0  0  0  0  0
   23.4714   -5.7579  -18.8063 C   0  0  0  0  0  0  0  0  0  0  0  0
   23.3473   -7.1078  -18.1303 C   0  0  2  0  0  0  0  0  0  0  0  0
   23.1527   -8.1282  -19.1340 N   0  0  0  0  0  0  0  0  0  0  0  0
   22.2093   -7.1516  -17.1887 C   0  0  0  0  0  0  0  0  0  0  0  0
   21.0710   -7.4336  -17.6277 O   0  0  0  0  0  0  0  0  0  0  0  0
   24.6064   -5.9354  -21.0314 C   0  0  0  0  0  0  0  0  0  0  0  0
   25.7099   -5.9599  -21.8567 C   0  0  0  0  0  0  0  0  0  0  0  0
   21.8036  -13.2650  -14.5207 O   0  0  0  0  0  0  0  0  0  0  0  0
   21.7491  -11.9024  -14.3013 C   0  0  0  0  0  0  0  0  0  0  0  0
   22.9243  -11.1681  -14.2332 C   0  0  0  0  0  0  0  0  0  0  0  0
   22.8915   -9.8103  -14.0155 C   0  0  0  0  0  0  0  0  0  0  0  0
   21.7088   -9.1235  -13.8568 C   0  0  0  0  0  0  0  0  0  0  0  0
   21.6535   -7.6818  -13.6254 C   0  0  0  0  0  0  0  0  0  0  0  0
   21.3242   -6.8944  -14.8737 C   0  0  2  0  0  0  0  0  0  0  0  0
   22.4224   -6.8752  -15.8086 N   0  0  0  0  0  0  0  0  0  0  0  0
   20.8806   -5.5136  -14.5321 C   0  0  0  0  0  0  0  0  0  0  0  0
   21.7404   -4.6615  -14.1895 O   0  0  0  0  0  0  0  0  0  0  0  0
   20.5334   -9.8416  -13.9222 C   0  0  0  0  0  0  0  0  0  0  0  0
   20.5666  -11.2047  -14.1408 C   0  0  0  0  0  0  0  0  0  0  0  0
   19.5268   -5.1093  -14.5739 N   0  0  0  0  0  0  0  0  0  0  0  0
   19.0937   -3.7407  -14.3129 C   0  0  1  0  0  0  0  0  0  0  0  0
   19.7796   -2.7607  -15.1990 C   0  0  0  0  0  0  0  0  0  0  0  0
   19.3147   -2.6822  -16.5747 C   0  0  0  0  0  0  0  0  0  0  0  0
   20.0381   -3.2678  -17.5867 C   0  0  0  0  0  0  0  0  0  0  0  0
   19.6225   -3.2149  -18.9157 C   0  0  0  0  0  0  0  0  0  0  0  0
   18.4505   -2.5564  -19.2295 C   0  0  0  0  0  0  0  0  0  0  0  0
   17.7011   -1.9580  -18.2365 C   0  0  0  0  0  0  0  0  0  0  0  0
   18.1328   -2.0235  -16.9281 C   0  0  0  0  0  0  0  0  0  0  0  0
   17.6232   -3.6208  -14.3680 C   0  0  0  0  0  0  0  0  0  0  0  0
   17.0888   -2.5621  -13.9658 O   0  0  0  0  0  0  0  0  0  0  0  0
   16.7769   -4.6157  -14.8421 O   0  0  0  0  0  0  0  0  0  0  0  0
  2  1  1  0
  3  2  2  0
  4  3  1  0
  5  4  2  0
  5 11  1  0
  6  5  1  0
  7  9  1  0
  7  6  1  0
  7  8  1  6
  9 10  2  0
 11 12  2  0
 12  2  1  0
 13 14  1  0
 14 15  2  0
 15 16  1  0
 17 16  2  0
 17 18  1  0
 19 18  1  1
 19 21  1  0
 20 19  1  0
 20  9  1  0
 21 25  1  0
 21 22  2  0
 23 17  1  0
 24 14  1  0
 24 23  2  0
 25 26  1  0
 26 27  1  6
 28 27  1  0
 29 28  2  0
 30 29  1  0
 31 30  2  0
 31 32  1  0
 32 33  2  0
 33 28  1  0
 34 36  1  0
 34 26  1  0
 35 34  2  0
M  END
$$$$
