YYF.pdb
     RDKit          3D

 36 38  0  0  1  0  0  0  0  0999 V2000
   17.9335  -18.0586  -14.3368 O   0  0  0  0  0  0  0  0  0  0  0  0
   19.0949  -18.7280  -13.9623 C   0  0  0  0  0  0  0  0  0  0  0  0
   19.9094  -18.2293  -12.9633 C   0  0  0  0  0  0  0  0  0  0  0  0
   21.0558  -18.8879  -12.5922 C   0  0  0  0  0  0  0  0  0  0  0  0
   21.4262  -20.0724  -13.2114 C   0  0  0  0  0  0  0  0  0  0  0  0
   22.6619  -20.8066  -12.8317 C   0  0  0  0  0  0  0  0  0  0  0  0
   23.8527  -20.0241  -13.3458 C   0  0  2  0  0  0  0  0  0  0  0  0
   23.7043  -19.8073  -14.7662 N   0  0  0  0  0  0  0  0  0  0  0  0
   25.1256  -20.7364  -13.1096 C   0  0  0  0  0  0  0  0  0  0  0  0
   25.2858  -21.8723  -13.6116 O   0  0  0  0  0  0  0  0  0  0  0  0
   20.5858  -20.5396  -14.2063 C   0  0  0  0  0  0  0  0  0  0  0  0
   19.4326  -19.8888  -14.5884 C   0  0  0  0  0  0  0  0  0  0  0  0
   27.9212  -17.9877  -17.7662 O   0  0  0  0  0  0  0  0  0  0  0  0
   28.0769  -18.4742  -16.4829 C   0  0  0  0  0  0  0  0  0  0  0  0
   28.5313  -19.7705  -16.2879 C   0  0  0  0  0  0  0  0  0  0  0  0
   28.6930  -20.2737  -15.0179 C   0  0  0  0  0  0  0  0  0  0  0  0
   28.4161  -19.5269  -13.8948 C   0  0  0  0  0  0  0  0  0  0  0  0
   28.5821  -20.0434  -12.5380 C   0  0  0  0  0  0  0  0  0  0  0  0
   27.3784  -20.8161  -12.0476 C   0  0  2  0  0  0  0  0  0  0  0  0
   26.1420  -20.1258  -12.3216 N   0  0  0  0  0  0  0  0  0  0  0  0
   27.5068  -21.1411  -10.5992 C   0  0  0  0  0  0  0  0  0  0  0  0
   28.6187  -21.5266  -10.1545 O   0  0  0  0  0  0  0  0  0  0  0  0
   27.9636  -18.2368  -14.0747 C   0  0  0  0  0  0  0  0  0  0  0  0
   27.8014  -17.7320  -15.3497 C   0  0  0  0  0  0  0  0  0  0  0  0
   26.4294  -21.0369   -9.6900 N   0  0  0  0  0  0  0  0  0  0  0  0
   26.5933  -21.1320   -8.2434 C   0  0  1  0  0  0  0  0  0  0  0  0
   27.6559  -20.2180   -7.7417 C   0  0  0  0  0  0  0  0  0  0  0  0
   27.8690  -20.1861   -6.3035 C   0  0  0  0  0  0  0  0  0  0  0  0
   27.5468  -19.0632   -5.5785 C   0  0  0  0  0  0  0  0  0  0  0  0
   27.7349  -18.9973   -4.1994 C   0  0  0  0  0  0  0  0  0  0  0  0
   28.2599  -20.0894   -3.5379 C   0  0  0  0  0  0  0  0  0  0  0  0
   28.5937  -21.2320   -4.2370 C   0  0  0  0  0  0  0  0  0  0  0  0
   28.3985  -21.2737   -5.6019 C   0  0  0  0  0  0  0  0  0  0  0  0
   25.3079  -20.9442   -7.5417 C   0  0  0  0  0  0  0  0  0  0  0  0
   25.2608  -21.1413   -6.3060 O   0  0  0  0  0  0  0  0  0  0  0  0
   24.1280  -20.5580   -8.1659 O   0  0  0  0  0  0  0  0  0  0  0  0
  2  1  1  0
  3  2  2  0
  4  3  1  0
  5  4  2  0
  5 11  1  0
  6  5  1  0
  7  9  1  0
  7  6  1  0
  7  8  1  6
  9 10  2  0
 11 12  2  0
 12  2  1  0
 13 14  1  0
 14 15  2  0
 15 16  1  0
 17 16  2  0
 17 18  1  0
 19 18  1  1
 19 21  1  0
 20 19  1  0
 20  9  1  0
 21 25  1  0
 21 22  2  0
 23 17  1  0
 24 14  1  0
 24 23  2  0
 25 26  1  0
 26 27  1  1
 28 27  1  0
 29 28  2  0
 30 29  1  0
 31 30  2  0
 31 32  1  0
 32 33  2  0
 33 28  1  0
 34 36  1  0
 34 26  1  0
 35 34  2  0
M  END
$$$$
