YYF.pdb
     RDKit          3D

 36 38  0  0  1  0  0  0  0  0999 V2000
   25.8781  -15.4982  -24.1681 O   0  0  0  0  0  0  0  0  0  0  0  0
   25.4282  -16.2881  -23.1142 C   0  0  0  0  0  0  0  0  0  0  0  0
   25.8106  -16.0191  -21.8136 C   0  0  0  0  0  0  0  0  0  0  0  0
   25.3680  -16.7970  -20.7722 C   0  0  0  0  0  0  0  0  0  0  0  0
   24.5247  -17.8744  -20.9992 C   0  0  0  0  0  0  0  0  0  0  0  0
   24.0307  -18.7348  -19.8920 C   0  0  0  0  0  0  0  0  0  0  0  0
   25.1147  -19.7370  -19.5534 C   0  0  2  0  0  0  0  0  0  0  0  0
   25.2256  -20.7004  -20.6239 N   0  0  0  0  0  0  0  0  0  0  0  0
   24.8256  -20.4607  -18.2979 C   0  0  0  0  0  0  0  0  0  0  0  0
   24.1844  -21.5350  -18.3524 O   0  0  0  0  0  0  0  0  0  0  0  0
   24.1642  -18.1118  -22.3137 C   0  0  0  0  0  0  0  0  0  0  0  0
   24.6010  -17.3391  -23.3682 C   0  0  0  0  0  0  0  0  0  0  0  0
   23.9878  -22.2762   -9.7168 O   0  0  0  0  0  0  0  0  0  0  0  0
   24.3860  -21.7133  -10.9135 C   0  0  0  0  0  0  0  0  0  0  0  0
   25.1380  -22.4596  -11.8094 C   0  0  0  0  0  0  0  0  0  0  0  0
   25.5444  -21.9174  -13.0065 C   0  0  0  0  0  0  0  0  0  0  0  0
   25.2298  -20.6269  -13.3690 C   0  0  0  0  0  0  0  0  0  0  0  0
   25.6517  -20.0337  -14.6360 C   0  0  0  0  0  0  0  0  0  0  0  0
   24.7988  -20.4692  -15.8063 C   0  0  2  0  0  0  0  0  0  0  0  0
   25.2764  -19.9304  -17.0561 N   0  0  0  0  0  0  0  0  0  0  0  0
   23.3670  -20.1242  -15.5806 C   0  0  0  0  0  0  0  0  0  0  0  0
   23.0357  -18.9138  -15.4908 O   0  0  0  0  0  0  0  0  0  0  0  0
   24.4828  -19.8743  -12.4875 C   0  0  0  0  0  0  0  0  0  0  0  0
   24.0749  -20.4189  -11.2859 C   0  0  0  0  0  0  0  0  0  0  0  0
   22.3513  -21.0999  -15.4608 N   0  0  0  0  0  0  0  0  0  0  0  0
   21.0111  -20.8010  -14.9675 C   0  0  1  0  0  0  0  0  0  0  0  0
   19.9918  -20.8635  -16.0507 C   0  0  0  0  0  0  0  0  0  0  0  0
   20.0148  -19.7941  -17.0359 C   0  0  0  0  0  0  0  0  0  0  0  0
   20.8433  -19.8756  -18.1301 C   0  0  0  0  0  0  0  0  0  0  0  0
   20.8903  -18.8717  -19.0954 C   0  0  0  0  0  0  0  0  0  0  0  0
   20.0828  -17.7612  -18.9525 C   0  0  0  0  0  0  0  0  0  0  0  0
   19.2397  -17.6491  -17.8652 C   0  0  0  0  0  0  0  0  0  0  0  0
   19.2106  -18.6557  -16.9226 C   0  0  0  0  0  0  0  0  0  0  0  0
   20.6606  -21.6497  -13.8112 C   0  0  0  0  0  0  0  0  0  0  0  0
   19.6017  -21.4109  -13.1867 O   0  0  0  0  0  0  0  0  0  0  0  0
   21.4352  -22.7113  -13.3599 O   0  0  0  0  0  0  0  0  0  0  0  0
  2  1  1  0
  3  2  2  0
  4  3  1  0
  5  4  2  0
  5 11  1  0
  6  5  1  0
  7  9  1  0
  7  6  1  0
  7  8  1  6
  9 10  2  0
 11 12  2  0
 12  2  1  0
 13 14  1  0
 14 15  2  0
 15 16  1  0
 17 16  2  0
 17 18  1  0
 19 18  1  1
 19 21  1  0
 20 19  1  0
 20  9  1  0
 21 25  1  0
 21 22  2  0
 23 17  1  0
 24 14  1  0
 24 23  2  0
 25 26  1  0
 26 27  1  6
 28 27  1  0
 29 28  2  0
 30 29  1  0
 31 30  2  0
 31 32  1  0
 32 33  2  0
 33 28  1  0
 34 36  1  0
 34 26  1  0
 35 34  2  0
M  END
$$$$
