IFG.pdb
     RDKit          3D

 24 24  0  0  1  0  0  0  0  0999 V2000
    7.7665  -13.0078   18.1349 C   0  0  0  0  0  0  0  0  0  0  0  0
    7.2673  -13.9593   19.1954 C   0  0  0  0  0  0  0  0  0  0  0  0
    8.0106  -13.8329   20.4804 C   0  0  2  0  0  0  0  0  0  0  0  0
    9.4920  -14.0143   20.2379 C   0  0  0  0  0  0  0  0  0  0  0  0
    7.4816  -14.6869   21.5747 C   0  0  2  0  0  0  0  0  0  0  0  0
    6.0142  -14.7390   21.5535 N   0  0  0  0  0  0  0  0  0  0  0  0
    7.9489  -14.3939   22.9260 C   0  0  0  0  0  0  0  0  0  0  0  0
    7.8644  -13.2933   23.5268 O   0  0  0  0  0  0  0  0  0  0  0  0
    8.5702  -15.4500   23.6637 N   0  0  0  0  0  0  0  0  0  0  0  0
    9.1625  -15.2036   24.9851 C   0  0  1  0  0  0  0  0  0  0  0  0
    8.0730  -15.2573   26.0303 C   0  0  0  0  0  0  0  0  0  0  0  0
    7.4564  -13.9643   26.3313 C   0  0  0  0  0  0  0  0  0  0  0  0
    6.0779  -13.7423   26.1685 C   0  0  0  0  0  0  0  0  0  0  0  0
    5.4904  -12.5444   26.4448 C   0  0  0  0  0  0  0  0  0  0  0  0
    6.2303  -11.4855   26.9010 C   0  0  0  0  0  0  0  0  0  0  0  0
    7.6036  -11.6743   27.0732 C   0  0  0  0  0  0  0  0  0  0  0  0
    8.1824  -12.8892   26.7903 C   0  0  0  0  0  0  0  0  0  0  0  0
   10.1346  -16.2721   25.2284 C   0  0  0  0  0  0  0  0  0  0  0  0
   10.2599  -16.7329   26.3832 O   0  0  0  0  0  0  0  0  0  0  0  0
   10.9508  -16.8243   24.2091 N   0  0  0  0  0  0  0  0  0  0  0  0
   12.0130  -17.7427   24.5900 C   0  0  0  0  0  0  0  0  0  0  0  0
   12.7909  -18.1988   23.4238 C   0  0  0  0  0  0  0  0  0  0  0  0
   12.6028  -19.4521   22.8740 O   0  0  0  0  0  0  0  0  0  0  0  0
   13.6428  -17.4365   22.9162 O   0  0  0  0  0  0  0  0  0  0  0  0
  2  1  1  0
  3  2  1  0
  3  5  1  0
  3  4  1  6
  5  6  1  1
  5  7  1  0
  7  8  2  0
  9  7  1  0
  9 10  1  0
 10 11  1  1
 11 12  1  0
 12 13  2  0
 13 14  1  0
 15 14  2  0
 16 15  1  0
 17 12  1  0
 17 16  2  0
 18 10  1  0
 18 20  1  0
 19 18  2  0
 21 22  1  0
 21 20  1  0
 22 23  1  0
 24 22  2  0
M  END
$$$$
