IFG.pdb
     RDKit          3D

 24 24  0  0  1  0  0  0  0  0999 V2000
    7.4378  -15.6925   17.4897 C   0  0  0  0  0  0  0  0  0  0  0  0
    7.2393  -14.6695   18.5822 C   0  0  0  0  0  0  0  0  0  0  0  0
    7.8809  -15.0656   19.8672 C   0  0  2  0  0  0  0  0  0  0  0  0
    7.4621  -16.4697   20.2401 C   0  0  0  0  0  0  0  0  0  0  0  0
    7.6979  -14.0825   20.9657 C   0  0  2  0  0  0  0  0  0  0  0  0
    7.9184  -12.7079   20.4985 N   0  0  0  0  0  0  0  0  0  0  0  0
    8.4509  -14.3166   22.1939 C   0  0  0  0  0  0  0  0  0  0  0  0
    9.5858  -13.8571   22.4771 O   0  0  0  0  0  0  0  0  0  0  0  0
    7.8592  -15.1507   23.1939 N   0  0  0  0  0  0  0  0  0  0  0  0
    8.5479  -15.4141   24.4642 C   0  0  1  0  0  0  0  0  0  0  0  0
    7.5573  -15.2832   25.5972 C   0  0  0  0  0  0  0  0  0  0  0  0
    7.2549  -13.9038   25.9826 C   0  0  0  0  0  0  0  0  0  0  0  0
    5.9607  -13.3670   25.8691 C   0  0  0  0  0  0  0  0  0  0  0  0
    5.6647  -12.0853   26.2240 C   0  0  0  0  0  0  0  0  0  0  0  0
    6.6322  -11.2491   26.7155 C   0  0  0  0  0  0  0  0  0  0  0  0
    7.9290  -11.7530   26.8405 C   0  0  0  0  0  0  0  0  0  0  0  0
    8.2126  -13.0489   26.4782 C   0  0  0  0  0  0  0  0  0  0  0  0
    9.0526  -16.7880   24.4047 C   0  0  0  0  0  0  0  0  0  0  0  0
    8.6865  -17.6116   25.2702 O   0  0  0  0  0  0  0  0  0  0  0  0
    9.9441  -17.2435   23.4007 N   0  0  0  0  0  0  0  0  0  0  0  0
   11.3701  -17.0199   23.5835 C   0  0  0  0  0  0  0  0  0  0  0  0
   12.0246  -18.1590   24.2524 C   0  0  0  0  0  0  0  0  0  0  0  0
   12.7158  -19.1178   23.5375 O   0  0  0  0  0  0  0  0  0  0  0  0
   11.9553  -18.2643   25.4969 O   0  0  0  0  0  0  0  0  0  0  0  0
  2  1  1  0
  3  2  1  0
  3  5  1  0
  3  4  1  1
  5  6  1  6
  5  7  1  0
  7  8  2  0
  9  7  1  0
  9 10  1  0
 10 11  1  1
 11 12  1  0
 12 13  2  0
 13 14  1  0
 15 14  2  0
 16 15  1  0
 17 12  1  0
 17 16  2  0
 18 10  1  0
 18 20  1  0
 19 18  2  0
 21 22  1  0
 21 20  1  0
 22 23  1  0
 24 22  2  0
M  END
$$$$
