IFG.pdb
     RDKit          3D

 24 24  0  0  1  0  0  0  0  0999 V2000
    7.1993  -12.5695   18.9438 C   0  0  0  0  0  0  0  0  0  0  0  0
    7.3448  -13.9195   19.6038 C   0  0  0  0  0  0  0  0  0  0  0  0
    8.2464  -13.8882   20.7895 C   0  0  2  0  0  0  0  0  0  0  0  0
    9.5714  -13.2653   20.4120 C   0  0  0  0  0  0  0  0  0  0  0  0
    8.3833  -15.1947   21.4830 C   0  0  2  0  0  0  0  0  0  0  0  0
    7.0965  -15.8975   21.5633 N   0  0  0  0  0  0  0  0  0  0  0  0
    9.0255  -15.1827   22.7936 C   0  0  0  0  0  0  0  0  0  0  0  0
   10.1665  -14.7316   23.0657 O   0  0  0  0  0  0  0  0  0  0  0  0
    8.3039  -15.7346   23.8983 N   0  0  0  0  0  0  0  0  0  0  0  0
    8.8615  -15.7058   25.2569 C   0  0  1  0  0  0  0  0  0  0  0  0
    7.7398  -15.4849   26.2445 C   0  0  0  0  0  0  0  0  0  0  0  0
    7.3223  -14.0891   26.3865 C   0  0  0  0  0  0  0  0  0  0  0  0
    8.2019  -13.0930   26.8446 C   0  0  0  0  0  0  0  0  0  0  0  0
    7.8271  -11.7902   26.9815 C   0  0  0  0  0  0  0  0  0  0  0  0
    6.5546  -11.3872   26.6734 C   0  0  0  0  0  0  0  0  0  0  0  0
    5.6563  -12.3537   26.2153 C   0  0  0  0  0  0  0  0  0  0  0  0
    6.0490  -13.6649   26.0822 C   0  0  0  0  0  0  0  0  0  0  0  0
    9.4819  -17.0109   25.4967 C   0  0  0  0  0  0  0  0  0  0  0  0
    9.8082  -17.3279   26.6606 O   0  0  0  0  0  0  0  0  0  0  0  0
    9.7323  -17.9513   24.4656 N   0  0  0  0  0  0  0  0  0  0  0  0
   10.3934  -19.2009   24.8097 C   0  0  0  0  0  0  0  0  0  0  0  0
   11.8611  -19.0870   24.7314 C   0  0  0  0  0  0  0  0  0  0  0  0
   12.4723  -18.1826   23.8848 O   0  0  0  0  0  0  0  0  0  0  0  0
   12.5745  -19.8246   25.4466 O   0  0  0  0  0  0  0  0  0  0  0  0
  2  1  1  0
  3  2  1  0
  3  5  1  0
  3  4  1  6
  5  6  1  1
  5  7  1  0
  7  8  2  0
  9  7  1  0
  9 10  1  0
 10 11  1  1
 11 12  1  0
 12 13  2  0
 13 14  1  0
 15 14  2  0
 16 15  1  0
 17 12  1  0
 17 16  2  0
 18 10  1  0
 18 20  1  0
 19 18  2  0
 21 22  1  0
 21 20  1  0
 22 23  1  0
 24 22  2  0
M  END
$$$$
