IFG.pdb
     RDKit          3D

 24 24  0  0  1  0  0  0  0  0999 V2000
    7.9957  -11.9777   19.5189 C   0  0  0  0  0  0  0  0  0  0  0  0
    7.6163  -13.0338   20.5289 C   0  0  0  0  0  0  0  0  0  0  0  0
    8.3697  -14.3059   20.3444 C   0  0  2  0  0  0  0  0  0  0  0  0
    8.1859  -14.8125   18.9318 C   0  0  0  0  0  0  0  0  0  0  0  0
    8.0915  -15.3323   21.3816 C   0  0  2  0  0  0  0  0  0  0  0  0
    6.7278  -15.8632   21.2597 N   0  0  0  0  0  0  0  0  0  0  0  0
    8.3576  -14.9599   22.7676 C   0  0  0  0  0  0  0  0  0  0  0  0
    8.4101  -13.7942   23.2342 O   0  0  0  0  0  0  0  0  0  0  0  0
    8.5851  -16.0100   23.7116 N   0  0  0  0  0  0  0  0  0  0  0  0
    8.7791  -15.7168   25.1377 C   0  0  1  0  0  0  0  0  0  0  0  0
    7.4317  -15.4830   25.7796 C   0  0  0  0  0  0  0  0  0  0  0  0
    7.1294  -14.0790   26.0622 C   0  0  0  0  0  0  0  0  0  0  0  0
    5.8085  -13.6063   26.1511 C   0  0  0  0  0  0  0  0  0  0  0  0
    5.5123  -12.3025   26.4135 C   0  0  0  0  0  0  0  0  0  0  0  0
    6.5060  -11.3793   26.6056 C   0  0  0  0  0  0  0  0  0  0  0  0
    7.8297  -11.8178   26.5237 C   0  0  0  0  0  0  0  0  0  0  0  0
    8.1132  -13.1370   26.2581 C   0  0  0  0  0  0  0  0  0  0  0  0
    9.4155  -16.8920   25.7374 C   0  0  0  0  0  0  0  0  0  0  0  0
    9.9008  -16.8051   26.8856 O   0  0  0  0  0  0  0  0  0  0  0  0
    9.5087  -18.1439   25.0784 N   0  0  0  0  0  0  0  0  0  0  0  0
   10.6085  -18.3614   24.1510 C   0  0  0  0  0  0  0  0  0  0  0  0
   11.8769  -18.6269   24.8537 C   0  0  0  0  0  0  0  0  0  0  0  0
   13.0262  -17.9170   24.5651 O   0  0  0  0  0  0  0  0  0  0  0  0
   11.9187  -19.5152   25.7334 O   0  0  0  0  0  0  0  0  0  0  0  0
  2  1  1  0
  3  2  1  0
  3  5  1  0
  3  4  1  6
  5  6  1  1
  5  7  1  0
  7  8  2  0
  9  7  1  0
  9 10  1  0
 10 11  1  1
 11 12  1  0
 12 13  2  0
 13 14  1  0
 15 14  2  0
 16 15  1  0
 17 12  1  0
 17 16  2  0
 18 10  1  0
 18 20  1  0
 19 18  2  0
 21 22  1  0
 21 20  1  0
 22 23  1  0
 24 22  2  0
M  END
$$$$
