IFG.pdb
     RDKit          3D

 24 24  0  0  1  0  0  0  0  0999 V2000
    6.2711  -13.7297   19.1707 C   0  0  0  0  0  0  0  0  0  0  0  0
    7.5147  -14.5847   19.1260 C   0  0  0  0  0  0  0  0  0  0  0  0
    7.8942  -15.1218   20.4629 C   0  0  2  0  0  0  0  0  0  0  0  0
    6.9203  -16.2008   20.8792 C   0  0  0  0  0  0  0  0  0  0  0  0
    8.1002  -14.0787   21.5002 C   0  0  2  0  0  0  0  0  0  0  0  0
    8.8145  -12.9158   20.9582 N   0  0  0  0  0  0  0  0  0  0  0  0
    8.7207  -14.5044   22.7509 C   0  0  0  0  0  0  0  0  0  0  0  0
    9.9242  -14.3542   23.0802 O   0  0  0  0  0  0  0  0  0  0  0  0
    7.8969  -15.1620   23.7177 N   0  0  0  0  0  0  0  0  0  0  0  0
    8.4411  -15.5811   25.0160 C   0  0  1  0  0  0  0  0  0  0  0  0
    7.4357  -15.2614   26.0972 C   0  0  0  0  0  0  0  0  0  0  0  0
    7.2163  -13.8311   26.3182 C   0  0  0  0  0  0  0  0  0  0  0  0
    6.0117  -13.2001   25.9619 C   0  0  0  0  0  0  0  0  0  0  0  0
    5.7936  -11.8701   26.1617 C   0  0  0  0  0  0  0  0  0  0  0  0
    6.7552  -11.0758   26.7284 C   0  0  0  0  0  0  0  0  0  0  0  0
    7.9639  -11.6732   27.0936 C   0  0  0  0  0  0  0  0  0  0  0  0
    8.1696  -13.0170   26.8857 C   0  0  0  0  0  0  0  0  0  0  0  0
    8.6515  -17.0293   24.9486 C   0  0  0  0  0  0  0  0  0  0  0  0
    8.2263  -17.7522   25.8749 O   0  0  0  0  0  0  0  0  0  0  0  0
    9.3171  -17.6666   23.8711 N   0  0  0  0  0  0  0  0  0  0  0  0
   10.7562  -17.8614   23.9604 C   0  0  0  0  0  0  0  0  0  0  0  0
   11.1196  -18.7904   25.0458 C   0  0  0  0  0  0  0  0  0  0  0  0
   10.7658  -20.1250   25.0045 O   0  0  0  0  0  0  0  0  0  0  0  0
   11.7638  -18.3649   26.0300 O   0  0  0  0  0  0  0  0  0  0  0  0
  2  1  1  0
  3  2  1  0
  3  5  1  0
  3  4  1  1
  5  6  1  6
  5  7  1  0
  7  8  2  0
  9  7  1  0
  9 10  1  0
 10 11  1  1
 11 12  1  0
 12 13  2  0
 13 14  1  0
 15 14  2  0
 16 15  1  0
 17 12  1  0
 17 16  2  0
 18 10  1  0
 18 20  1  0
 19 18  2  0
 21 22  1  0
 21 20  1  0
 22 23  1  0
 24 22  2  0
M  END
$$$$
