IFG.pdb
     RDKit          3D

 24 24  0  0  1  0  0  0  0  0999 V2000
    7.1786  -12.5220   18.8880 C   0  0  0  0  0  0  0  0  0  0  0  0
    7.1589  -13.8396   19.6249 C   0  0  0  0  0  0  0  0  0  0  0  0
    8.1374  -13.8877   20.7474 C   0  0  2  0  0  0  0  0  0  0  0  0
    9.4969  -13.4353   20.2647 C   0  0  0  0  0  0  0  0  0  0  0  0
    8.1682  -15.1846   21.4711 C   0  0  2  0  0  0  0  0  0  0  0  0
    6.8388  -15.8067   21.5150 N   0  0  0  0  0  0  0  0  0  0  0  0
    8.7602  -15.1827   22.8052 C   0  0  0  0  0  0  0  0  0  0  0  0
    9.8944  -14.7437   23.1219 O   0  0  0  0  0  0  0  0  0  0  0  0
    7.9918  -15.7307   23.8799 N   0  0  0  0  0  0  0  0  0  0  0  0
    8.5327  -15.7887   25.2443 C   0  0  1  0  0  0  0  0  0  0  0  0
    7.4234  -15.4933   26.2262 C   0  0  0  0  0  0  0  0  0  0  0  0
    7.1360  -14.0695   26.4070 C   0  0  0  0  0  0  0  0  0  0  0  0
    8.1509  -13.1344   26.6747 C   0  0  0  0  0  0  0  0  0  0  0  0
    7.8981  -11.8065   26.8451 C   0  0  0  0  0  0  0  0  0  0  0  0
    6.6218  -11.3159   26.7615 C   0  0  0  0  0  0  0  0  0  0  0  0
    5.5906  -12.2201   26.4965 C   0  0  0  0  0  0  0  0  0  0  0  0
    5.8611  -13.5577   26.3269 C   0  0  0  0  0  0  0  0  0  0  0  0
    9.0295  -17.1507   25.4541 C   0  0  0  0  0  0  0  0  0  0  0  0
    8.4252  -17.9066   26.2446 O   0  0  0  0  0  0  0  0  0  0  0  0
   10.1734  -17.6686   24.7958 N   0  0  0  0  0  0  0  0  0  0  0  0
   11.3376  -18.0174   25.5956 C   0  0  0  0  0  0  0  0  0  0  0  0
   11.1493  -19.2895   26.3164 C   0  0  0  0  0  0  0  0  0  0  0  0
   10.6274  -20.4050   25.6908 O   0  0  0  0  0  0  0  0  0  0  0  0
   11.4682  -19.3657   27.5236 O   0  0  0  0  0  0  0  0  0  0  0  0
  2  1  1  0
  3  2  1  0
  3  5  1  0
  3  4  1  6
  5  6  1  1
  5  7  1  0
  7  8  2  0
  9  7  1  0
  9 10  1  0
 10 11  1  1
 11 12  1  0
 12 13  2  0
 13 14  1  0
 15 14  2  0
 16 15  1  0
 17 12  1  0
 17 16  2  0
 18 10  1  0
 18 20  1  0
 19 18  2  0
 21 22  1  0
 21 20  1  0
 22 23  1  0
 24 22  2  0
M  END
$$$$
