IFG.pdb
     RDKit          3D

 24 24  0  0  1  0  0  0  0  0999 V2000
    6.7897  -12.5229   19.0527 C   0  0  0  0  0  0  0  0  0  0  0  0
    7.0765  -13.8798   19.6491 C   0  0  0  0  0  0  0  0  0  0  0  0
    7.9333  -13.8061   20.8658 C   0  0  2  0  0  0  0  0  0  0  0  0
    9.2379  -13.1170   20.5354 C   0  0  0  0  0  0  0  0  0  0  0  0
    8.1110  -15.1056   21.5631 C   0  0  2  0  0  0  0  0  0  0  0  0
    6.8338  -15.8152   21.7101 N   0  0  0  0  0  0  0  0  0  0  0  0
    8.8143  -15.0784   22.8418 C   0  0  0  0  0  0  0  0  0  0  0  0
    9.8946  -14.4867   23.0912 O   0  0  0  0  0  0  0  0  0  0  0  0
    8.2362  -15.7899   23.9396 N   0  0  0  0  0  0  0  0  0  0  0  0
    8.8753  -15.7900   25.2621 C   0  0  1  0  0  0  0  0  0  0  0  0
    7.8311  -15.4948   26.3132 C   0  0  0  0  0  0  0  0  0  0  0  0
    7.3429  -14.1148   26.3130 C   0  0  0  0  0  0  0  0  0  0  0  0
    8.1729  -13.0326   26.6536 C   0  0  0  0  0  0  0  0  0  0  0  0
    7.7322  -11.7433   26.6576 C   0  0  0  0  0  0  0  0  0  0  0  0
    6.4386  -11.4401   26.3240 C   0  0  0  0  0  0  0  0  0  0  0  0
    5.5884  -12.4938   25.9806 C   0  0  0  0  0  0  0  0  0  0  0  0
    6.0475  -13.7901   25.9811 C   0  0  0  0  0  0  0  0  0  0  0  0
    9.4264  -17.1304   25.4751 C   0  0  0  0  0  0  0  0  0  0  0  0
    9.8178  -17.4560   26.6163 O   0  0  0  0  0  0  0  0  0  0  0  0
    9.5378  -18.0957   24.4427 N   0  0  0  0  0  0  0  0  0  0  0  0
   10.7865  -18.1792   23.7006 C   0  0  0  0  0  0  0  0  0  0  0  0
   11.9102  -18.5959   24.5591 C   0  0  0  0  0  0  0  0  0  0  0  0
   12.0847  -19.9142   24.9331 O   0  0  0  0  0  0  0  0  0  0  0  0
   12.7280  -17.7390   24.9610 O   0  0  0  0  0  0  0  0  0  0  0  0
  2  1  1  0
  3  2  1  0
  3  5  1  0
  3  4  1  6
  5  6  1  1
  5  7  1  0
  7  8  2  0
  9  7  1  0
  9 10  1  0
 10 11  1  1
 11 12  1  0
 12 13  2  0
 13 14  1  0
 15 14  2  0
 16 15  1  0
 17 12  1  0
 17 16  2  0
 18 10  1  0
 18 20  1  0
 19 18  2  0
 21 22  1  0
 21 20  1  0
 22 23  1  0
 24 22  2  0
M  END
$$$$
