IFG.pdb
     RDKit          3D

 24 24  0  0  1  0  0  0  0  0999 V2000
    6.8966  -12.4893   19.3630 C   0  0  0  0  0  0  0  0  0  0  0  0
    7.1126  -13.8022   20.0763 C   0  0  0  0  0  0  0  0  0  0  0  0
    8.1825  -13.7280   21.1106 C   0  0  2  0  0  0  0  0  0  0  0  0
    9.4328  -13.1215   20.5149 C   0  0  0  0  0  0  0  0  0  0  0  0
    8.4278  -15.0079   21.8235 C   0  0  2  0  0  0  0  0  0  0  0  0
    7.1720  -15.7146   22.1059 N   0  0  0  0  0  0  0  0  0  0  0  0
    9.2451  -14.9452   23.0312 C   0  0  0  0  0  0  0  0  0  0  0  0
   10.3557  -14.3704   23.1563 O   0  0  0  0  0  0  0  0  0  0  0  0
    8.7547  -15.5962   24.2065 N   0  0  0  0  0  0  0  0  0  0  0  0
    9.4275  -15.4282   25.5013 C   0  0  1  0  0  0  0  0  0  0  0  0
    8.3833  -15.2691   26.5814 C   0  0  0  0  0  0  0  0  0  0  0  0
    7.7457  -13.9520   26.6199 C   0  0  0  0  0  0  0  0  0  0  0  0
    6.4659  -13.7297   26.0826 C   0  0  0  0  0  0  0  0  0  0  0  0
    5.8604  -12.5095   26.1115 C   0  0  0  0  0  0  0  0  0  0  0  0
    6.4830  -11.4272   26.6752 C   0  0  0  0  0  0  0  0  0  0  0  0
    7.7562  -11.6156   27.2180 C   0  0  0  0  0  0  0  0  0  0  0  0
    8.3548  -12.8532   27.1814 C   0  0  0  0  0  0  0  0  0  0  0  0
   10.2081  -16.6440   25.7431 C   0  0  0  0  0  0  0  0  0  0  0  0
   10.9615  -16.6986   26.7385 O   0  0  0  0  0  0  0  0  0  0  0  0
   10.1515  -17.7820   24.8993 N   0  0  0  0  0  0  0  0  0  0  0  0
   10.9402  -18.9516   25.2556 C   0  0  0  0  0  0  0  0  0  0  0  0
   10.4367  -19.6034   26.4782 C   0  0  0  0  0  0  0  0  0  0  0  0
    9.1240  -19.4633   26.8846 O   0  0  0  0  0  0  0  0  0  0  0  0
   11.2129  -20.3012   27.1677 O   0  0  0  0  0  0  0  0  0  0  0  0
  2  1  1  0
  3  2  1  0
  3  5  1  0
  3  4  1  6
  5  6  1  1
  5  7  1  0
  7  8  2  0
  9  7  1  0
  9 10  1  0
 10 11  1  1
 11 12  1  0
 12 13  2  0
 13 14  1  0
 15 14  2  0
 16 15  1  0
 17 12  1  0
 17 16  2  0
 18 10  1  0
 18 20  1  0
 19 18  2  0
 21 22  1  0
 21 20  1  0
 22 23  1  0
 24 22  2  0
M  END
$$$$
