IFG.pdb
     RDKit          3D

 24 24  0  0  1  0  0  0  0  0999 V2000
    6.9428  -12.6702   18.8810 C   0  0  0  0  0  0  0  0  0  0  0  0
    7.2648  -14.0048   19.5092 C   0  0  0  0  0  0  0  0  0  0  0  0
    8.1577  -13.8837   20.6957 C   0  0  2  0  0  0  0  0  0  0  0  0
    9.4280  -13.1590   20.3118 C   0  0  0  0  0  0  0  0  0  0  0  0
    8.3998  -15.1652   21.4068 C   0  0  2  0  0  0  0  0  0  0  0  0
    7.1714  -15.9632   21.5087 N   0  0  0  0  0  0  0  0  0  0  0  0
    9.0494  -15.0842   22.7114 C   0  0  0  0  0  0  0  0  0  0  0  0
   10.0953  -14.4457   22.9902 O   0  0  0  0  0  0  0  0  0  0  0  0
    8.4551  -15.7951   23.8009 N   0  0  0  0  0  0  0  0  0  0  0  0
    9.0124  -15.7054   25.1570 C   0  0  1  0  0  0  0  0  0  0  0  0
    7.8869  -15.4704   26.1369 C   0  0  0  0  0  0  0  0  0  0  0  0
    7.4420  -14.0788   26.2278 C   0  0  0  0  0  0  0  0  0  0  0  0
    6.1266  -13.6968   25.9121 C   0  0  0  0  0  0  0  0  0  0  0  0
    5.6986  -12.4057   25.9922 C   0  0  0  0  0  0  0  0  0  0  0  0
    6.5463  -11.4061   26.3908 C   0  0  0  0  0  0  0  0  0  0  0  0
    7.8607  -11.7535   26.7116 C   0  0  0  0  0  0  0  0  0  0  0  0
    8.2782  -13.0610   26.6259 C   0  0  0  0  0  0  0  0  0  0  0  0
    9.6583  -16.9885   25.4439 C   0  0  0  0  0  0  0  0  0  0  0  0
    9.9410  -17.2795   26.6258 O   0  0  0  0  0  0  0  0  0  0  0  0
    9.9813  -17.9356   24.4395 N   0  0  0  0  0  0  0  0  0  0  0  0
   10.6259  -19.1780   24.8366 C   0  0  0  0  0  0  0  0  0  0  0  0
   12.0864  -19.1268   24.6427 C   0  0  0  0  0  0  0  0  0  0  0  0
   12.9100  -20.1471   25.0773 O   0  0  0  0  0  0  0  0  0  0  0  0
   12.5969  -18.1380   24.0715 O   0  0  0  0  0  0  0  0  0  0  0  0
  2  1  1  0
  3  2  1  0
  3  5  1  0
  3  4  1  6
  5  6  1  1
  5  7  1  0
  7  8  2  0
  9  7  1  0
  9 10  1  0
 10 11  1  1
 11 12  1  0
 12 13  2  0
 13 14  1  0
 15 14  2  0
 16 15  1  0
 17 12  1  0
 17 16  2  0
 18 10  1  0
 18 20  1  0
 19 18  2  0
 21 22  1  0
 21 20  1  0
 22 23  1  0
 24 22  2  0
M  END
$$$$
