IFG.pdb
     RDKit          3D

 24 24  0  0  1  0  0  0  0  0999 V2000
    7.2677  -12.6413   18.8285 C   0  0  0  0  0  0  0  0  0  0  0  0
    7.3090  -13.9609   19.5609 C   0  0  0  0  0  0  0  0  0  0  0  0
    8.2249  -13.9405   20.7358 C   0  0  2  0  0  0  0  0  0  0  0  0
    9.5767  -13.4018   20.3252 C   0  0  0  0  0  0  0  0  0  0  0  0
    8.3002  -15.2298   21.4696 C   0  0  2  0  0  0  0  0  0  0  0  0
    6.9795  -15.8620   21.5814 N   0  0  0  0  0  0  0  0  0  0  0  0
    8.9536  -15.2100   22.7746 C   0  0  0  0  0  0  0  0  0  0  0  0
   10.1030  -14.7714   23.0314 O   0  0  0  0  0  0  0  0  0  0  0  0
    8.2339  -15.7377   23.8923 N   0  0  0  0  0  0  0  0  0  0  0  0
    8.8112  -15.7163   25.2427 C   0  0  1  0  0  0  0  0  0  0  0  0
    7.7050  -15.4939   26.2473 C   0  0  0  0  0  0  0  0  0  0  0  0
    7.3058  -14.0951   26.4107 C   0  0  0  0  0  0  0  0  0  0  0  0
    5.9671  -13.6848   26.2863 C   0  0  0  0  0  0  0  0  0  0  0  0
    5.5811  -12.3866   26.4359 C   0  0  0  0  0  0  0  0  0  0  0  0
    6.4966  -11.4076   26.7189 C   0  0  0  0  0  0  0  0  0  0  0  0
    7.8357  -11.7834   26.8487 C   0  0  0  0  0  0  0  0  0  0  0  0
    8.2102  -13.0977   26.6950 C   0  0  0  0  0  0  0  0  0  0  0  0
    9.4289  -17.0252   25.4688 C   0  0  0  0  0  0  0  0  0  0  0  0
    9.6716  -17.3926   26.6383 O   0  0  0  0  0  0  0  0  0  0  0  0
    9.7678  -17.9144   24.4178 N   0  0  0  0  0  0  0  0  0  0  0  0
   10.4074  -19.1771   24.7542 C   0  0  0  0  0  0  0  0  0  0  0  0
   11.8777  -19.0776   24.7131 C   0  0  0  0  0  0  0  0  0  0  0  0
   12.6569  -19.4232   25.8001 O   0  0  0  0  0  0  0  0  0  0  0  0
   12.4379  -18.6710   23.6712 O   0  0  0  0  0  0  0  0  0  0  0  0
  2  1  1  0
  3  2  1  0
  3  5  1  0
  3  4  1  6
  5  6  1  1
  5  7  1  0
  7  8  2  0
  9  7  1  0
  9 10  1  0
 10 11  1  1
 11 12  1  0
 12 13  2  0
 13 14  1  0
 15 14  2  0
 16 15  1  0
 17 12  1  0
 17 16  2  0
 18 10  1  0
 18 20  1  0
 19 18  2  0
 21 22  1  0
 21 20  1  0
 22 23  1  0
 24 22  2  0
M  END
$$$$
