IFG.pdb
     RDKit          3D

 24 24  0  0  1  0  0  0  0  0999 V2000
    8.2995  -18.4066   17.7716 C   0  0  0  0  0  0  0  0  0  0  0  0
    7.6402  -17.1142   18.1889 C   0  0  0  0  0  0  0  0  0  0  0  0
    8.2295  -16.5405   19.4313 C   0  0  2  0  0  0  0  0  0  0  0  0
    8.3940  -17.6255   20.4713 C   0  0  0  0  0  0  0  0  0  0  0  0
    7.5226  -15.3368   19.9391 C   0  0  2  0  0  0  0  0  0  0  0  0
    7.3235  -14.3428   18.8768 N   0  0  0  0  0  0  0  0  0  0  0  0
    8.0818  -14.6929   21.1236 C   0  0  0  0  0  0  0  0  0  0  0  0
    8.9895  -13.8241   21.1470 O   0  0  0  0  0  0  0  0  0  0  0  0
    7.5611  -15.0715   22.4008 N   0  0  0  0  0  0  0  0  0  0  0  0
    7.8896  -14.3045   23.6097 C   0  0  1  0  0  0  0  0  0  0  0  0
    6.6554  -14.1964   24.4742 C   0  0  0  0  0  0  0  0  0  0  0  0
    6.8024  -13.3165   25.6347 C   0  0  0  0  0  0  0  0  0  0  0  0
    7.7391  -13.5760   26.6502 C   0  0  0  0  0  0  0  0  0  0  0  0
    7.8870  -12.7659   27.7358 C   0  0  0  0  0  0  0  0  0  0  0  0
    7.1160  -11.6437   27.8876 C   0  0  0  0  0  0  0  0  0  0  0  0
    6.1755  -11.3583   26.8951 C   0  0  0  0  0  0  0  0  0  0  0  0
    6.0376  -12.1853   25.8050 C   0  0  0  0  0  0  0  0  0  0  0  0
    8.9300  -15.0487   24.3236 C   0  0  0  0  0  0  0  0  0  0  0  0
    8.9416  -15.0366   25.5731 O   0  0  0  0  0  0  0  0  0  0  0  0
    9.9377  -15.7976   23.6650 N   0  0  0  0  0  0  0  0  0  0  0  0
   11.0608  -16.2909   24.4473 C   0  0  0  0  0  0  0  0  0  0  0  0
   12.2176  -16.6279   23.5979 C   0  0  0  0  0  0  0  0  0  0  0  0
   12.1684  -16.4970   22.2236 O   0  0  0  0  0  0  0  0  0  0  0  0
   13.2711  -17.0427   24.1294 O   0  0  0  0  0  0  0  0  0  0  0  0
  2  1  1  0
  3  2  1  0
  3  5  1  0
  3  4  1  1
  5  6  1  6
  5  7  1  0
  7  8  2  0
  9  7  1  0
  9 10  1  0
 10 11  1  1
 11 12  1  0
 12 13  2  0
 13 14  1  0
 15 14  2  0
 16 15  1  0
 17 12  1  0
 17 16  2  0
 18 10  1  0
 18 20  1  0
 19 18  2  0
 21 22  1  0
 21 20  1  0
 22 23  1  0
 24 22  2  0
M  END
$$$$
