IFG.pdb
     RDKit          3D

 24 24  0  0  1  0  0  0  0  0999 V2000
    8.9312  -20.5203   18.4356 C   0  0  0  0  0  0  0  0  0  0  0  0
    8.1055  -19.2663   18.5941 C   0  0  0  0  0  0  0  0  0  0  0  0
    8.6198  -18.3683   19.6661 C   0  0  2  0  0  0  0  0  0  0  0  0
    8.8642  -19.1625   20.9292 C   0  0  0  0  0  0  0  0  0  0  0  0
    7.7985  -17.1497   19.8833 C   0  0  2  0  0  0  0  0  0  0  0  0
    7.5497  -16.4381   18.6231 N   0  0  0  0  0  0  0  0  0  0  0  0
    8.2644  -16.2118   20.8999 C   0  0  0  0  0  0  0  0  0  0  0  0
    9.1997  -15.3807   20.7814 O   0  0  0  0  0  0  0  0  0  0  0  0
    7.6062  -16.2185   22.1697 N   0  0  0  0  0  0  0  0  0  0  0  0
    8.0163  -15.2997   23.2397 C   0  0  1  0  0  0  0  0  0  0  0  0
    6.8014  -14.9167   24.0518 C   0  0  0  0  0  0  0  0  0  0  0  0
    7.0679  -13.9626   25.1296 C   0  0  0  0  0  0  0  0  0  0  0  0
    7.4307  -14.3825   26.4211 C   0  0  0  0  0  0  0  0  0  0  0  0
    7.6817  -13.5060   27.4337 C   0  0  0  0  0  0  0  0  0  0  0  0
    7.5899  -12.1538   27.2338 C   0  0  0  0  0  0  0  0  0  0  0  0
    7.2313  -11.7046   25.9608 C   0  0  0  0  0  0  0  0  0  0  0  0
    6.9810  -12.6013   24.9486 C   0  0  0  0  0  0  0  0  0  0  0  0
    8.9699  -16.0209   24.0861 C   0  0  0  0  0  0  0  0  0  0  0  0
    8.7153  -17.1950   24.4301 O   0  0  0  0  0  0  0  0  0  0  0  0
   10.1872  -15.4533   24.5400 N   0  0  0  0  0  0  0  0  0  0  0  0
   11.1639  -16.3219   25.1790 C   0  0  0  0  0  0  0  0  0  0  0  0
   10.9654  -16.3939   26.6379 C   0  0  0  0  0  0  0  0  0  0  0  0
   11.5660  -15.4924   27.4951 O   0  0  0  0  0  0  0  0  0  0  0  0
   10.2365  -17.2910   27.1162 O   0  0  0  0  0  0  0  0  0  0  0  0
  2  1  1  0
  3  2  1  0
  3  5  1  0
  3  4  1  1
  5  6  1  6
  5  7  1  0
  7  8  2  0
  9  7  1  0
  9 10  1  0
 10 11  1  1
 11 12  1  0
 12 13  2  0
 13 14  1  0
 15 14  2  0
 16 15  1  0
 17 12  1  0
 17 16  2  0
 18 10  1  0
 18 20  1  0
 19 18  2  0
 21 22  1  0
 21 20  1  0
 22 23  1  0
 24 22  2  0
M  END
$$$$
