IFG.pdb
     RDKit          3D

 24 24  0  0  1  0  0  0  0  0999 V2000
    7.4266  -17.6977   17.8871 C   0  0  0  0  0  0  0  0  0  0  0  0
    6.9402  -16.6045   18.8079 C   0  0  0  0  0  0  0  0  0  0  0  0
    7.8227  -16.4132   19.9931 C   0  0  2  0  0  0  0  0  0  0  0  0
    8.1034  -17.7475   20.6464 C   0  0  0  0  0  0  0  0  0  0  0  0
    7.3451  -15.3775   20.9449 C   0  0  2  0  0  0  0  0  0  0  0  0
    7.0266  -14.1206   20.2556 N   0  0  0  0  0  0  0  0  0  0  0  0
    8.1881  -15.1080   22.1055 C   0  0  0  0  0  0  0  0  0  0  0  0
    9.2107  -14.3781   22.1365 O   0  0  0  0  0  0  0  0  0  0  0  0
    7.8363  -15.7253   23.3469 N   0  0  0  0  0  0  0  0  0  0  0  0
    8.6128  -15.4680   24.5668 C   0  0  1  0  0  0  0  0  0  0  0  0
    7.6608  -15.2579   25.7208 C   0  0  0  0  0  0  0  0  0  0  0  0
    7.2792  -13.8629   25.9466 C   0  0  0  0  0  0  0  0  0  0  0  0
    8.2140  -12.8918   26.3455 C   0  0  0  0  0  0  0  0  0  0  0  0
    7.8732  -11.5900   26.5592 C   0  0  0  0  0  0  0  0  0  0  0  0
    6.5823  -11.1632   26.3917 C   0  0  0  0  0  0  0  0  0  0  0  0
    5.6293  -12.1045   25.9956 C   0  0  0  0  0  0  0  0  0  0  0  0
    5.9883  -13.4151   25.7837 C   0  0  0  0  0  0  0  0  0  0  0  0
    9.4349  -16.6551   24.8136 C   0  0  0  0  0  0  0  0  0  0  0  0
    8.9448  -17.7885   24.6221 O   0  0  0  0  0  0  0  0  0  0  0  0
   10.7789  -16.5881   25.2602 N   0  0  0  0  0  0  0  0  0  0  0  0
   11.5548  -17.8175   25.3174 C   0  0  0  0  0  0  0  0  0  0  0  0
   11.4551  -18.4705   26.6354 C   0  0  0  0  0  0  0  0  0  0  0  0
   12.2508  -19.5488   26.9705 O   0  0  0  0  0  0  0  0  0  0  0  0
   10.6319  -18.0415   27.4739 O   0  0  0  0  0  0  0  0  0  0  0  0
  2  1  1  0
  3  2  1  0
  3  5  1  0
  3  4  1  1
  5  6  1  6
  5  7  1  0
  7  8  2  0
  9  7  1  0
  9 10  1  0
 10 11  1  1
 11 12  1  0
 12 13  2  0
 13 14  1  0
 15 14  2  0
 16 15  1  0
 17 12  1  0
 17 16  2  0
 18 10  1  0
 18 20  1  0
 19 18  2  0
 21 22  1  0
 21 20  1  0
 22 23  1  0
 24 22  2  0
M  END
$$$$
