IFG.pdb
     RDKit          3D

 24 24  0  0  1  0  0  0  0  0999 V2000
    7.4009  -13.1234   16.8244 C   0  0  0  0  0  0  0  0  0  0  0  0
    8.0469  -14.2233   17.6321 C   0  0  0  0  0  0  0  0  0  0  0  0
    8.3656  -13.8047   19.0261 C   0  0  2  0  0  0  0  0  0  0  0  0
    9.2264  -12.5620   19.0060 C   0  0  0  0  0  0  0  0  0  0  0  0
    8.9160  -14.8918   19.8757 C   0  0  2  0  0  0  0  0  0  0  0  0
    8.0697  -16.0910   19.8287 N   0  0  0  0  0  0  0  0  0  0  0  0
    9.2237  -14.5549   21.2621 C   0  0  0  0  0  0  0  0  0  0  0  0
   10.2291  -13.9242   21.6754 O   0  0  0  0  0  0  0  0  0  0  0  0
    8.3032  -14.9738   22.2735 N   0  0  0  0  0  0  0  0  0  0  0  0
    8.3726  -14.4251   23.6343 C   0  0  1  0  0  0  0  0  0  0  0  0
    6.9692  -14.2315   24.1589 C   0  0  0  0  0  0  0  0  0  0  0  0
    6.8847  -13.4437   25.3897 C   0  0  0  0  0  0  0  0  0  0  0  0
    7.2477  -12.0863   25.4299 C   0  0  0  0  0  0  0  0  0  0  0  0
    7.1740  -11.3409   26.5681 C   0  0  0  0  0  0  0  0  0  0  0  0
    6.7354  -11.8913   27.7434 C   0  0  0  0  0  0  0  0  0  0  0  0
    6.3671  -13.2386   27.7363 C   0  0  0  0  0  0  0  0  0  0  0  0
    6.4468  -13.9783   26.5797 C   0  0  0  0  0  0  0  0  0  0  0  0
    9.0783  -15.4077   24.4603 C   0  0  0  0  0  0  0  0  0  0  0  0
    9.1992  -15.2009   25.6868 O   0  0  0  0  0  0  0  0  0  0  0  0
    9.6367  -16.6016   23.9378 N   0  0  0  0  0  0  0  0  0  0  0  0
   10.2986  -17.5185   24.8532 C   0  0  0  0  0  0  0  0  0  0  0  0
   11.7488  -17.5976   24.6003 C   0  0  0  0  0  0  0  0  0  0  0  0
   12.3584  -16.8189   23.6358 O   0  0  0  0  0  0  0  0  0  0  0  0
   12.4485  -18.3871   25.2724 O   0  0  0  0  0  0  0  0  0  0  0  0
  2  1  1  0
  3  2  1  0
  3  5  1  0
  3  4  1  6
  5  6  1  1
  5  7  1  0
  7  8  2  0
  9  7  1  0
  9 10  1  0
 10 11  1  1
 11 12  1  0
 12 13  2  0
 13 14  1  0
 15 14  2  0
 16 15  1  0
 17 12  1  0
 17 16  2  0
 18 10  1  0
 18 20  1  0
 19 18  2  0
 21 22  1  0
 21 20  1  0
 22 23  1  0
 24 22  2  0
M  END
$$$$
