FTK.pdb
     RDKit          3D

 28 28  0  0  1  0  0  0  0  0999 V2000
    7.2444  -16.0150   26.2580 N   0  0  0  0  0  0  0  0  0  0  0  0
    6.6297  -16.4322   24.9905 C   0  0  1  0  0  0  0  0  0  0  0  0
    6.1097  -15.1535   24.3266 C   0  0  0  0  0  0  0  0  0  0  0  0
    6.5661  -13.9733   25.0891 C   0  0  0  0  0  0  0  0  0  0  0  0
    6.3089  -13.8457   26.4411 C   0  0  0  0  0  0  0  0  0  0  0  0
    6.7502  -12.7258   27.1306 C   0  0  0  0  0  0  0  0  0  0  0  0
    7.4487  -11.7198   26.4988 C   0  0  0  0  0  0  0  0  0  0  0  0
    7.7109  -11.8376   25.1480 C   0  0  0  0  0  0  0  0  0  0  0  0
    7.2639  -12.9652   24.4645 C   0  0  0  0  0  0  0  0  0  0  0  0
    7.7222  -16.9349   24.1323 C   0  0  0  0  0  0  0  0  0  0  0  0
    7.4364  -17.3717   22.9972 O   0  0  0  0  0  0  0  0  0  0  0  0
    9.8561  -16.3685   21.7249 C   0  0  0  0  0  0  0  0  0  0  0  0
   10.8277  -16.6984   22.8318 C   0  0  1  0  0  0  0  0  0  0  0  0
   11.1548  -15.5152   23.4801 O   0  0  0  0  0  0  0  0  0  0  0  0
   10.1386  -17.5988   23.8026 C   0  0  2  0  0  0  0  0  0  0  0  0
    9.0653  -16.9498   24.5202 N   0  0  0  0  0  0  0  0  0  0  0  0
   11.1291  -18.0565   24.8142 C   0  0  0  0  0  0  0  0  0  0  0  0
   11.2126  -17.4318   25.9341 O   0  0  0  0  0  0  0  0  0  0  0  0
   12.0144  -19.1374   24.6737 N   0  0  0  0  0  0  0  0  0  0  0  0
   12.9752  -19.4567   25.6806 C   0  0  1  0  0  0  0  0  0  0  0  0
   13.5242  -20.8515   25.5804 C   0  0  0  0  0  0  0  0  0  0  0  0
   13.7993  -21.2881   24.1787 C   0  0  0  0  0  0  0  0  0  0  0  0
   13.1121  -22.5741   23.8406 C   0  0  0  0  0  0  0  0  0  0  0  0
   13.4813  -23.0934   22.4705 C   0  0  0  0  0  0  0  0  0  0  0  0
   12.8017  -24.3432   22.1853 N   0  0  0  0  0  0  0  0  0  0  0  0
   14.1274  -18.5252   25.6151 C   0  0  0  0  0  0  0  0  0  0  0  0
   14.9492  -18.5412   26.5638 O   0  0  0  0  0  0  0  0  0  0  0  0
   14.3316  -17.6504   24.5654 O   0  0  0  0  0  0  0  0  0  0  0  0
  2  1  1  1
  2  3  1  0
  3  4  1  0
  4  9  2  0
  5  6  2  0
  5  4  1  0
  6  7  1  0
  7  8  2  0
  9  8  1  0
 10  2  1  0
 10 16  1  0
 11 10  2  0
 13 12  1  6
 13 15  1  0
 14 13  1  0
 15 16  1  1
 17 15  1  0
 18 17  2  0
 19 17  1  0
 20 19  1  0
 20 26  1  0
 20 21  1  6
 22 21  1  0
 23 22  1  0
 24 23  1  0
 24 25  1  0
 26 28  1  0
 27 26  2  0
M  END
$$$$
