FTK.pdb
     RDKit          3D

 28 28  0  0  1  0  0  0  0  0999 V2000
    8.6116  -16.8947   15.8720 N   0  0  0  0  0  0  0  0  0  0  0  0
    8.0195  -17.2705   17.1630 C   0  0  1  0  0  0  0  0  0  0  0  0
    8.3798  -18.7425   17.3858 C   0  0  0  0  0  0  0  0  0  0  0  0
    7.5972  -19.5934   16.4659 C   0  0  0  0  0  0  0  0  0  0  0  0
    8.1101  -19.9993   15.2483 C   0  0  0  0  0  0  0  0  0  0  0  0
    7.3515  -20.7983   14.4054 C   0  0  0  0  0  0  0  0  0  0  0  0
    6.0812  -21.2066   14.7500 C   0  0  0  0  0  0  0  0  0  0  0  0
    5.5595  -20.8064   15.9646 C   0  0  0  0  0  0  0  0  0  0  0  0
    6.3283  -20.0047   16.8038 C   0  0  0  0  0  0  0  0  0  0  0  0
    8.7373  -16.5022   18.2008 C   0  0  0  0  0  0  0  0  0  0  0  0
    9.8522  -16.0144   17.9181 O   0  0  0  0  0  0  0  0  0  0  0  0
    7.0391  -13.7411   20.2680 C   0  0  0  0  0  0  0  0  0  0  0  0
    7.7808  -14.6289   21.2374 C   0  0  1  0  0  0  0  0  0  0  0  0
    6.8694  -15.5251   21.7793 O   0  0  0  0  0  0  0  0  0  0  0  0
    8.8072  -15.3971   20.4729 C   0  0  2  0  0  0  0  0  0  0  0  0
    8.2371  -16.2885   19.4887 N   0  0  0  0  0  0  0  0  0  0  0  0
    9.5836  -16.2349   21.4264 C   0  0  0  0  0  0  0  0  0  0  0  0
    9.3202  -17.4896   21.5134 O   0  0  0  0  0  0  0  0  0  0  0  0
   10.6118  -15.7875   22.2717 N   0  0  0  0  0  0  0  0  0  0  0  0
   11.2215  -16.6491   23.2334 C   0  0  1  0  0  0  0  0  0  0  0  0
   12.7046  -16.4552   23.3735 C   0  0  0  0  0  0  0  0  0  0  0  0
   13.3450  -17.4038   24.3332 C   0  0  0  0  0  0  0  0  0  0  0  0
   14.8213  -17.1846   24.4466 C   0  0  0  0  0  0  0  0  0  0  0  0
   15.4965  -18.1942   25.3455 C   0  0  0  0  0  0  0  0  0  0  0  0
   16.9377  -18.0281   25.3272 N   0  0  0  0  0  0  0  0  0  0  0  0
   10.6223  -16.4399   24.5739 C   0  0  0  0  0  0  0  0  0  0  0  0
   10.9561  -17.2252   25.4945 O   0  0  0  0  0  0  0  0  0  0  0  0
    9.7223  -15.4284   24.8486 O   0  0  0  0  0  0  0  0  0  0  0  0
  2  1  1  6
  2  3  1  0
  3  4  1  0
  4  9  2  0
  5  6  2  0
  5  4  1  0
  6  7  1  0
  7  8  2  0
  9  8  1  0
 10  2  1  0
 10 16  1  0
 11 10  2  0
 13 12  1  6
 13 15  1  0
 14 13  1  0
 15 16  1  6
 17 15  1  0
 18 17  2  0
 19 17  1  0
 20 19  1  0
 20 26  1  0
 20 21  1  1
 22 21  1  0
 23 22  1  0
 24 23  1  0
 24 25  1  0
 26 28  1  0
 27 26  2  0
M  END
$$$$
