FTK.pdb
     RDKit          3D

 28 28  0  0  1  0  0  0  0  0999 V2000
    5.9148  -13.8893   22.7049 N   0  0  0  0  0  0  0  0  0  0  0  0
    7.2749  -13.9437   22.1520 C   0  0  1  0  0  0  0  0  0  0  0  0
    8.0796  -12.8697   22.8903 C   0  0  0  0  0  0  0  0  0  0  0  0
    7.6748  -12.8300   24.3106 C   0  0  0  0  0  0  0  0  0  0  0  0
    6.5324  -12.1656   24.7157 C   0  0  0  0  0  0  0  0  0  0  0  0
    6.1777  -12.1456   26.0566 C   0  0  0  0  0  0  0  0  0  0  0  0
    6.9417  -12.7781   27.0133 C   0  0  0  0  0  0  0  0  0  0  0  0
    8.0852  -13.4447   26.6190 C   0  0  0  0  0  0  0  0  0  0  0  0
    8.4330  -13.4593   25.2710 C   0  0  0  0  0  0  0  0  0  0  0  0
    7.8465  -15.2454   22.5540 C   0  0  0  0  0  0  0  0  0  0  0  0
    7.0707  -16.2084   22.7317 O   0  0  0  0  0  0  0  0  0  0  0  0
    9.3783  -17.1787   20.4542 C   0  0  0  0  0  0  0  0  0  0  0  0
   10.4682  -17.1609   21.4982 C   0  0  1  0  0  0  0  0  0  0  0  0
   11.4007  -16.2019   21.1262 O   0  0  0  0  0  0  0  0  0  0  0  0
    9.8596  -16.7540   22.7990 C   0  0  2  0  0  0  0  0  0  0  0  0
    9.2140  -15.4622   22.7479 N   0  0  0  0  0  0  0  0  0  0  0  0
   10.9362  -16.6664   23.8223 C   0  0  0  0  0  0  0  0  0  0  0  0
   11.4737  -15.5252   24.0677 O   0  0  0  0  0  0  0  0  0  0  0  0
   11.4468  -17.7342   24.5780 N   0  0  0  0  0  0  0  0  0  0  0  0
   12.0761  -17.5256   25.8427 C   0  0  1  0  0  0  0  0  0  0  0  0
   11.4873  -18.3398   26.9595 C   0  0  0  0  0  0  0  0  0  0  0  0
   12.2299  -18.2138   28.2492 C   0  0  0  0  0  0  0  0  0  0  0  0
   11.5951  -19.0068   29.3485 C   0  0  0  0  0  0  0  0  0  0  0  0
   12.3106  -18.8534   30.6705 C   0  0  0  0  0  0  0  0  0  0  0  0
   11.6642  -19.6351   31.7078 N   0  0  0  0  0  0  0  0  0  0  0  0
   13.5189  -17.8606   25.7680 C   0  0  0  0  0  0  0  0  0  0  0  0
   14.2273  -17.6316   26.7786 O   0  0  0  0  0  0  0  0  0  0  0  0
   14.1093  -18.4080   24.6452 O   0  0  0  0  0  0  0  0  0  0  0  0
  2  1  1  1
  2  3  1  0
  3  4  1  0
  4  9  2  0
  5  6  2  0
  5  4  1  0
  6  7  1  0
  7  8  2  0
  9  8  1  0
 10  2  1  0
 10 16  1  0
 11 10  2  0
 13 12  1  6
 13 15  1  0
 14 13  1  0
 15 16  1  6
 17 15  1  0
 18 17  2  0
 19 17  1  0
 20 19  1  0
 20 26  1  0
 20 21  1  1
 22 21  1  0
 23 22  1  0
 24 23  1  0
 24 25  1  0
 26 28  1  0
 27 26  2  0
M  END
$$$$
