FTK.pdb
     RDKit          3D

 28 28  0  0  1  0  0  0  0  0999 V2000
    5.8456  -16.3548   25.3884 N   0  0  0  0  0  0  0  0  0  0  0  0
    6.7200  -15.4296   24.6549 C   0  0  1  0  0  0  0  0  0  0  0  0
    7.6001  -14.7485   25.7075 C   0  0  0  0  0  0  0  0  0  0  0  0
    7.0568  -13.4116   26.0241 C   0  0  0  0  0  0  0  0  0  0  0  0
    6.0692  -13.2425   26.9762 C   0  0  0  0  0  0  0  0  0  0  0  0
    5.5786  -11.9747   27.2521 C   0  0  0  0  0  0  0  0  0  0  0  0
    6.0531  -10.8600   26.5954 C   0  0  0  0  0  0  0  0  0  0  0  0
    7.0399  -11.0181   25.6422 C   0  0  0  0  0  0  0  0  0  0  0  0
    7.5261  -12.2945   25.3721 C   0  0  0  0  0  0  0  0  0  0  0  0
    7.6212  -16.2592   23.8290 C   0  0  0  0  0  0  0  0  0  0  0  0
    7.9425  -17.3911   24.2493 O   0  0  0  0  0  0  0  0  0  0  0  0
    7.7631  -15.6602   19.8750 C   0  0  0  0  0  0  0  0  0  0  0  0
    9.1314  -16.0682   20.3642 C   0  0  1  0  0  0  0  0  0  0  0  0
    9.9151  -14.9250   20.4441 O   0  0  0  0  0  0  0  0  0  0  0  0
    8.9837  -16.6410   21.7347 C   0  0  2  0  0  0  0  0  0  0  0  0
    8.1378  -15.8476   22.5969 N   0  0  0  0  0  0  0  0  0  0  0  0
   10.3264  -16.7026   22.3729 C   0  0  0  0  0  0  0  0  0  0  0  0
   10.6643  -15.7853   23.2070 O   0  0  0  0  0  0  0  0  0  0  0  0
   11.2998  -17.6912   22.1561 N   0  0  0  0  0  0  0  0  0  0  0  0
   12.3149  -17.9697   23.1209 C   0  0  1  0  0  0  0  0  0  0  0  0
   11.9789  -19.0998   24.0519 C   0  0  0  0  0  0  0  0  0  0  0  0
   13.1124  -19.5051   24.9361 C   0  0  0  0  0  0  0  0  0  0  0  0
   12.7640  -20.6735   25.8044 C   0  0  0  0  0  0  0  0  0  0  0  0
   13.5306  -20.6854   27.1064 C   0  0  0  0  0  0  0  0  0  0  0  0
   14.8376  -21.2921   26.9373 N   0  0  0  0  0  0  0  0  0  0  0  0
   13.5904  -18.3181   22.4491 C   0  0  0  0  0  0  0  0  0  0  0  0
   13.5405  -18.6841   21.2494 O   0  0  0  0  0  0  0  0  0  0  0  0
   14.8173  -18.2574   23.0813 O   0  0  0  0  0  0  0  0  0  0  0  0
  2  1  1  1
  2  3  1  0
  3  4  1  0
  4  9  2  0
  5  6  2  0
  5  4  1  0
  6  7  1  0
  7  8  2  0
  9  8  1  0
 10  2  1  0
 10 16  1  0
 11 10  2  0
 13 12  1  1
 13 15  1  0
 14 13  1  0
 15 16  1  1
 17 15  1  0
 18 17  2  0
 19 17  1  0
 20 19  1  0
 20 26  1  0
 20 21  1  6
 22 21  1  0
 23 22  1  0
 24 23  1  0
 24 25  1  0
 26 28  1  0
 27 26  2  0
M  END
$$$$
