FTK.pdb
     RDKit          3D

 28 28  0  0  1  0  0  0  0  0999 V2000
    7.6265  -13.5136   20.4595 N   0  0  0  0  0  0  0  0  0  0  0  0
    7.9784  -13.5214   21.8859 C   0  0  1  0  0  0  0  0  0  0  0  0
    6.7599  -12.9661   22.6296 C   0  0  0  0  0  0  0  0  0  0  0  0
    7.0679  -12.8391   24.0689 C   0  0  0  0  0  0  0  0  0  0  0  0
    7.7971  -11.7716   24.5579 C   0  0  0  0  0  0  0  0  0  0  0  0
    8.0708  -11.6793   25.9147 C   0  0  0  0  0  0  0  0  0  0  0  0
    7.6308  -12.6348   26.8050 C   0  0  0  0  0  0  0  0  0  0  0  0
    6.9013  -13.7054   26.3265 C   0  0  0  0  0  0  0  0  0  0  0  0
    6.6316  -13.7894   24.9632 C   0  0  0  0  0  0  0  0  0  0  0  0
    8.1033  -14.9380   22.2863 C   0  0  0  0  0  0  0  0  0  0  0  0
    7.2449  -15.7505   21.8814 O   0  0  0  0  0  0  0  0  0  0  0  0
   10.7531  -17.1608   21.3932 C   0  0  0  0  0  0  0  0  0  0  0  0
   10.7291  -17.2773   22.8979 C   0  0  1  0  0  0  0  0  0  0  0  0
   11.7003  -16.4265   23.4080 O   0  0  0  0  0  0  0  0  0  0  0  0
    9.3928  -16.8174   23.3787 C   0  0  2  0  0  0  0  0  0  0  0  0
    9.1334  -15.4240   23.0970 N   0  0  0  0  0  0  0  0  0  0  0  0
    9.3343  -16.9849   24.8560 C   0  0  0  0  0  0  0  0  0  0  0  0
    9.5045  -15.9572   25.6085 O   0  0  0  0  0  0  0  0  0  0  0  0
    9.1035  -18.1877   25.5428 N   0  0  0  0  0  0  0  0  0  0  0  0
    8.9525  -18.2249   26.9622 C   0  0  1  0  0  0  0  0  0  0  0  0
    8.4174  -19.5274   27.4855 C   0  0  0  0  0  0  0  0  0  0  0  0
    7.5343  -20.2447   26.5178 C   0  0  0  0  0  0  0  0  0  0  0  0
    7.0437  -21.5511   27.0591 C   0  0  0  0  0  0  0  0  0  0  0  0
    6.2011  -22.3176   26.0664 C   0  0  0  0  0  0  0  0  0  0  0  0
    6.6296  -23.7008   25.9759 N   0  0  0  0  0  0  0  0  0  0  0  0
   10.2542  -17.9841   27.6309 C   0  0  0  0  0  0  0  0  0  0  0  0
   10.2620  -17.8900   28.8826 O   0  0  0  0  0  0  0  0  0  0  0  0
   11.4451  -17.8604   26.9416 O   0  0  0  0  0  0  0  0  0  0  0  0
  2  1  1  6
  2  3  1  0
  3  4  1  0
  4  9  2  0
  5  6  2  0
  5  4  1  0
  6  7  1  0
  7  8  2  0
  9  8  1  0
 10  2  1  0
 10 16  1  0
 11 10  2  0
 13 12  1  6
 13 15  1  0
 14 13  1  0
 15 16  1  1
 17 15  1  0
 18 17  2  0
 19 17  1  0
 20 19  1  0
 20 26  1  0
 20 21  1  6
 22 21  1  0
 23 22  1  0
 24 23  1  0
 24 25  1  0
 26 28  1  0
 27 26  2  0
M  END
$$$$
