FTK.pdb
     RDKit          3D

 28 28  0  0  1  0  0  0  0  0999 V2000
    6.0295  -15.9767   25.2830 N   0  0  0  0  0  0  0  0  0  0  0  0
    6.8258  -15.2251   24.3035 C   0  0  1  0  0  0  0  0  0  0  0  0
    7.8001  -14.3653   25.1146 C   0  0  0  0  0  0  0  0  0  0  0  0
    7.0995  -13.1745   25.6379 C   0  0  0  0  0  0  0  0  0  0  0  0
    6.7103  -13.0917   26.9615 C   0  0  0  0  0  0  0  0  0  0  0  0
    6.0539  -11.9606   27.4241 C   0  0  0  0  0  0  0  0  0  0  0  0
    5.7732  -10.8993   26.5911 C   0  0  0  0  0  0  0  0  0  0  0  0
    6.1579  -10.9721   25.2667 C   0  0  0  0  0  0  0  0  0  0  0  0
    6.8161  -12.1114   24.8116 C   0  0  0  0  0  0  0  0  0  0  0  0
    7.6469  -16.2129   23.5737 C   0  0  0  0  0  0  0  0  0  0  0  0
    7.1456  -17.3262   23.3088 O   0  0  0  0  0  0  0  0  0  0  0  0
    7.3508  -16.5968   20.9961 C   0  0  0  0  0  0  0  0  0  0  0  0
    8.7929  -16.2415   20.7273 C   0  0  1  0  0  0  0  0  0  0  0  0
    8.8536  -14.8827   20.4490 O   0  0  0  0  0  0  0  0  0  0  0  0
    9.5771  -16.5089   21.9690 C   0  0  2  0  0  0  0  0  0  0  0  0
    8.9604  -15.9716   23.1603 N   0  0  0  0  0  0  0  0  0  0  0  0
   10.9122  -15.8655   21.8374 C   0  0  0  0  0  0  0  0  0  0  0  0
   10.9921  -14.5831   21.8538 O   0  0  0  0  0  0  0  0  0  0  0  0
   12.1399  -16.5317   21.6933 N   0  0  0  0  0  0  0  0  0  0  0  0
   13.0962  -16.5810   22.7525 C   0  0  1  0  0  0  0  0  0  0  0  0
   12.5621  -17.1619   24.0309 C   0  0  0  0  0  0  0  0  0  0  0  0
   12.8970  -18.6052   24.2194 C   0  0  0  0  0  0  0  0  0  0  0  0
   12.4045  -19.1348   25.5299 C   0  0  0  0  0  0  0  0  0  0  0  0
   12.7441  -20.5923   25.7380 C   0  0  0  0  0  0  0  0  0  0  0  0
   12.2670  -21.0609   27.0256 N   0  0  0  0  0  0  0  0  0  0  0  0
   14.2705  -17.3957   22.3565 C   0  0  0  0  0  0  0  0  0  0  0  0
   15.3134  -17.2963   23.0480 O   0  0  0  0  0  0  0  0  0  0  0  0
   14.2647  -18.2499   21.2707 O   0  0  0  0  0  0  0  0  0  0  0  0
  2  1  1  1
  2  3  1  0
  3  4  1  0
  4  9  2  0
  5  6  2  0
  5  4  1  0
  6  7  1  0
  7  8  2  0
  9  8  1  0
 10  2  1  0
 10 16  1  0
 11 10  2  0
 13 12  1  1
 13 15  1  0
 14 13  1  0
 15 16  1  1
 17 15  1  0
 18 17  2  0
 19 17  1  0
 20 19  1  0
 20 26  1  0
 20 21  1  1
 22 21  1  0
 23 22  1  0
 24 23  1  0
 24 25  1  0
 26 28  1  0
 27 26  2  0
M  END
$$$$
