FTK.pdb
     RDKit          3D

 28 28  0  0  1  0  0  0  0  0999 V2000
    9.9018  -18.5530   17.7492 N   0  0  0  0  0  0  0  0  0  0  0  0
   10.9149  -18.2682   18.7743 C   0  0  1  0  0  0  0  0  0  0  0  0
   10.5571  -19.1395   19.9822 C   0  0  0  0  0  0  0  0  0  0  0  0
   11.5622  -18.9524   21.0488 C   0  0  0  0  0  0  0  0  0  0  0  0
   12.5949  -19.8528   21.2312 C   0  0  0  0  0  0  0  0  0  0  0  0
   13.5238  -19.6506   22.2414 C   0  0  0  0  0  0  0  0  0  0  0  0
   13.4478  -18.5619   23.0827 C   0  0  0  0  0  0  0  0  0  0  0  0
   12.4197  -17.6562   22.9087 C   0  0  0  0  0  0  0  0  0  0  0  0
   11.4922  -17.8675   21.8922 C   0  0  0  0  0  0  0  0  0  0  0  0
   12.2008  -18.7788   18.2561 C   0  0  0  0  0  0  0  0  0  0  0  0
   12.2191  -19.8999   17.7050 O   0  0  0  0  0  0  0  0  0  0  0  0
   14.1787  -18.1315   15.5268 C   0  0  0  0  0  0  0  0  0  0  0  0
   15.1507  -17.8286   16.6410 C   0  0  1  0  0  0  0  0  0  0  0  0
   15.1142  -16.4615   16.8802 O   0  0  0  0  0  0  0  0  0  0  0  0
   14.6870  -18.5395   17.8689 C   0  0  2  0  0  0  0  0  0  0  0  0
   13.4052  -18.0748   18.3478 N   0  0  0  0  0  0  0  0  0  0  0  0
   15.6738  -18.3041   18.9574 C   0  0  0  0  0  0  0  0  0  0  0  0
   15.4998  -17.3114   19.7546 O   0  0  0  0  0  0  0  0  0  0  0  0
   16.8160  -19.0780   19.2189 N   0  0  0  0  0  0  0  0  0  0  0  0
   17.7492  -18.7187   20.2381 C   0  0  1  0  0  0  0  0  0  0  0  0
   18.6485  -19.8433   20.6666 C   0  0  0  0  0  0  0  0  0  0  0  0
   17.9221  -20.9818   21.3045 C   0  0  0  0  0  0  0  0  0  0  0  0
   18.8076  -22.1691   21.5206 C   0  0  0  0  0  0  0  0  0  0  0  0
   18.0745  -23.3454   22.1219 C   0  0  0  0  0  0  0  0  0  0  0  0
   18.9080  -24.5330   22.1271 N   0  0  0  0  0  0  0  0  0  0  0  0
   18.6204  -17.6097   19.7791 C   0  0  0  0  0  0  0  0  0  0  0  0
   19.4103  -17.1013   20.6118 O   0  0  0  0  0  0  0  0  0  0  0  0
   18.5991  -17.1184   18.4881 O   0  0  0  0  0  0  0  0  0  0  0  0
  2  1  1  6
  2  3  1  0
  3  4  1  0
  4  9  2  0
  5  6  2  0
  5  4  1  0
  6  7  1  0
  7  8  2  0
  9  8  1  0
 10  2  1  0
 10 16  1  0
 11 10  2  0
 13 12  1  6
 13 15  1  0
 14 13  1  0
 15 16  1  1
 17 15  1  0
 18 17  2  0
 19 17  1  0
 20 19  1  0
 20 26  1  0
 20 21  1  6
 22 21  1  0
 23 22  1  0
 24 23  1  0
 24 25  1  0
 26 28  1  0
 27 26  2  0
M  END
$$$$
