FTK.pdb
     RDKit          3D

 28 28  0  0  1  0  0  0  0  0999 V2000
    5.8379  -16.6814   25.3608 N   0  0  0  0  0  0  0  0  0  0  0  0
    6.5062  -15.6708   24.5297 C   0  0  1  0  0  0  0  0  0  0  0  0
    7.4816  -14.9350   25.4536 C   0  0  0  0  0  0  0  0  0  0  0  0
    6.8659  -13.6806   25.9332 C   0  0  0  0  0  0  0  0  0  0  0  0
    7.2365  -12.4531   25.4171 C   0  0  0  0  0  0  0  0  0  0  0  0
    6.6406  -11.2921   25.8874 C   0  0  0  0  0  0  0  0  0  0  0  0
    5.6745  -11.3251   26.8695 C   0  0  0  0  0  0  0  0  0  0  0  0
    5.2971  -12.5466   27.3919 C   0  0  0  0  0  0  0  0  0  0  0  0
    5.9007  -13.7064   26.9136 C   0  0  0  0  0  0  0  0  0  0  0  0
    7.3317  -16.4042   23.5483 C   0  0  0  0  0  0  0  0  0  0  0  0
    6.8589  -17.4340   23.0219 O   0  0  0  0  0  0  0  0  0  0  0  0
    6.9039  -15.7784   21.0402 C   0  0  0  0  0  0  0  0  0  0  0  0
    8.3520  -15.4240   20.8049 C   0  0  1  0  0  0  0  0  0  0  0  0
    8.4888  -14.0525   20.9710 O   0  0  0  0  0  0  0  0  0  0  0  0
    9.1741  -16.1138   21.8425 C   0  0  2  0  0  0  0  0  0  0  0  0
    8.6192  -16.0094   23.1727 N   0  0  0  0  0  0  0  0  0  0  0  0
   10.5220  -15.4845   21.8787 C   0  0  0  0  0  0  0  0  0  0  0  0
   10.6299  -14.2597   22.2521 O   0  0  0  0  0  0  0  0  0  0  0  0
   11.7338  -16.1068   21.5378 N   0  0  0  0  0  0  0  0  0  0  0  0
   12.5662  -16.7197   22.5229 C   0  0  1  0  0  0  0  0  0  0  0  0
   11.8568  -17.7303   23.3787 C   0  0  0  0  0  0  0  0  0  0  0  0
   12.7591  -18.4547   24.3232 C   0  0  0  0  0  0  0  0  0  0  0  0
   12.0102  -19.4001   25.2097 C   0  0  0  0  0  0  0  0  0  0  0  0
   12.8893  -20.0418   26.2577 C   0  0  0  0  0  0  0  0  0  0  0  0
   12.7466  -19.3751   27.5384 N   0  0  0  0  0  0  0  0  0  0  0  0
   13.7094  -17.4126   21.8808 C   0  0  0  0  0  0  0  0  0  0  0  0
   13.4576  -18.2421   20.9730 O   0  0  0  0  0  0  0  0  0  0  0  0
   15.0251  -17.1857   22.2359 O   0  0  0  0  0  0  0  0  0  0  0  0
  2  1  1  1
  2  3  1  0
  3  4  1  0
  4  9  2  0
  5  6  2  0
  5  4  1  0
  6  7  1  0
  7  8  2  0
  9  8  1  0
 10  2  1  0
 10 16  1  0
 11 10  2  0
 13 12  1  1
 13 15  1  0
 14 13  1  0
 15 16  1  1
 17 15  1  0
 18 17  2  0
 19 17  1  0
 20 19  1  0
 20 26  1  0
 20 21  1  6
 22 21  1  0
 23 22  1  0
 24 23  1  0
 24 25  1  0
 26 28  1  0
 27 26  2  0
M  END
$$$$
