FTK.pdb
     RDKit          3D

 28 28  0  0  1  0  0  0  0  0999 V2000
    6.1076  -16.8555   25.8091 N   0  0  0  0  0  0  0  0  0  0  0  0
    6.6492  -15.7420   25.0184 C   0  0  1  0  0  0  0  0  0  0  0  0
    7.5577  -14.9494   25.9632 C   0  0  0  0  0  0  0  0  0  0  0  0
    6.9511  -13.6338   26.2530 C   0  0  0  0  0  0  0  0  0  0  0  0
    7.3098  -12.5032   25.5433 C   0  0  0  0  0  0  0  0  0  0  0  0
    6.7229  -11.2814   25.8382 C   0  0  0  0  0  0  0  0  0  0  0  0
    5.7777  -11.1577   26.8334 C   0  0  0  0  0  0  0  0  0  0  0  0
    5.4124  -12.2814   27.5484 C   0  0  0  0  0  0  0  0  0  0  0  0
    6.0068  -13.5033   27.2453 C   0  0  0  0  0  0  0  0  0  0  0  0
    7.5297  -16.3368   23.9920 C   0  0  0  0  0  0  0  0  0  0  0  0
    8.0221  -17.4643   24.2090 O   0  0  0  0  0  0  0  0  0  0  0  0
    6.8408  -15.5487   20.1989 C   0  0  0  0  0  0  0  0  0  0  0  0
    8.3354  -15.6531   20.3812 C   0  0  1  0  0  0  0  0  0  0  0  0
    8.8542  -14.3655   20.4037 O   0  0  0  0  0  0  0  0  0  0  0  0
    8.5992  -16.2960   21.7022 C   0  0  2  0  0  0  0  0  0  0  0  0
    7.8451  -15.7062   22.7847 N   0  0  0  0  0  0  0  0  0  0  0  0
   10.0410  -16.1334   22.0321 C   0  0  0  0  0  0  0  0  0  0  0  0
   10.4007  -15.1705   22.8033 O   0  0  0  0  0  0  0  0  0  0  0  0
   11.0898  -16.9486   21.5768 N   0  0  0  0  0  0  0  0  0  0  0  0
   12.1762  -17.3186   22.4263 C   0  0  1  0  0  0  0  0  0  0  0  0
   11.8476  -18.4205   23.3931 C   0  0  0  0  0  0  0  0  0  0  0  0
   12.0174  -18.0319   24.8252 C   0  0  0  0  0  0  0  0  0  0  0  0
   11.6128  -19.1274   25.7614 C   0  0  0  0  0  0  0  0  0  0  0  0
   11.8910  -18.7941   27.2087 C   0  0  0  0  0  0  0  0  0  0  0  0
   11.3736  -19.8237   28.0904 N   0  0  0  0  0  0  0  0  0  0  0  0
   13.3362  -17.7718   21.6209 C   0  0  0  0  0  0  0  0  0  0  0  0
   13.2836  -18.9170   21.1097 O   0  0  0  0  0  0  0  0  0  0  0  0
   14.4594  -16.9950   21.4122 O   0  0  0  0  0  0  0  0  0  0  0  0
  2  1  1  1
  2  3  1  0
  3  4  1  0
  4  9  2  0
  5  6  2  0
  5  4  1  0
  6  7  1  0
  7  8  2  0
  9  8  1  0
 10  2  1  0
 10 16  1  0
 11 10  2  0
 13 12  1  1
 13 15  1  0
 14 13  1  0
 15 16  1  1
 17 15  1  0
 18 17  2  0
 19 17  1  0
 20 19  1  0
 20 26  1  0
 20 21  1  1
 22 21  1  0
 23 22  1  0
 24 23  1  0
 24 25  1  0
 26 28  1  0
 27 26  2  0
M  END
$$$$
