FTK.pdb
     RDKit          3D

 28 28  0  0  1  0  0  0  0  0999 V2000
    7.9938  -13.8151   16.6815 N   0  0  0  0  0  0  0  0  0  0  0  0
    9.3301  -13.5967   17.2516 C   0  0  1  0  0  0  0  0  0  0  0  0
    9.1629  -12.5261   18.3342 C   0  0  0  0  0  0  0  0  0  0  0  0
    8.3366  -13.0562   19.4381 C   0  0  0  0  0  0  0  0  0  0  0  0
    6.9818  -13.2801   19.2803 C   0  0  0  0  0  0  0  0  0  0  0  0
    6.2316  -13.7787   20.3352 C   0  0  0  0  0  0  0  0  0  0  0  0
    6.8046  -14.0625   21.5559 C   0  0  0  0  0  0  0  0  0  0  0  0
    8.1576  -13.8423   21.7239 C   0  0  0  0  0  0  0  0  0  0  0  0
    8.9023  -13.3417   20.6594 C   0  0  0  0  0  0  0  0  0  0  0  0
    9.7044  -14.8435   17.9501 C   0  0  0  0  0  0  0  0  0  0  0  0
    8.8487  -15.7475   18.0571 O   0  0  0  0  0  0  0  0  0  0  0  0
   13.6878  -15.9914   17.8871 C   0  0  0  0  0  0  0  0  0  0  0  0
   12.4853  -16.9035   17.8994 C   0  0  1  0  0  0  0  0  0  0  0  0
   12.9017  -18.1539   18.3359 O   0  0  0  0  0  0  0  0  0  0  0  0
   11.4996  -16.3605   18.8800 C   0  0  2  0  0  0  0  0  0  0  0  0
   10.9690  -15.0708   18.5014 N   0  0  0  0  0  0  0  0  0  0  0  0
   12.1788  -16.1875   20.1925 C   0  0  0  0  0  0  0  0  0  0  0  0
   12.7420  -15.0641   20.4613 O   0  0  0  0  0  0  0  0  0  0  0  0
   12.2737  -17.1533   21.2074 N   0  0  0  0  0  0  0  0  0  0  0  0
   12.6655  -16.8094   22.5368 C   0  0  1  0  0  0  0  0  0  0  0  0
   12.1402  -17.7440   23.5893 C   0  0  0  0  0  0  0  0  0  0  0  0
   12.5844  -17.3989   24.9729 C   0  0  0  0  0  0  0  0  0  0  0  0
   12.1995  -18.4472   25.9696 C   0  0  0  0  0  0  0  0  0  0  0  0
   12.7219  -18.1566   27.3573 C   0  0  0  0  0  0  0  0  0  0  0  0
   12.4238  -19.2473   28.2664 N   0  0  0  0  0  0  0  0  0  0  0  0
   14.1436  -16.7977   22.6576 C   0  0  0  0  0  0  0  0  0  0  0  0
   14.7914  -17.6598   22.0151 O   0  0  0  0  0  0  0  0  0  0  0  0
   14.8296  -15.8880   23.4390 O   0  0  0  0  0  0  0  0  0  0  0  0
  2  1  1  1
  2  3  1  0
  3  4  1  0
  4  9  2  0
  5  6  2  0
  5  4  1  0
  6  7  1  0
  7  8  2  0
  9  8  1  0
 10  2  1  0
 10 16  1  0
 11 10  2  0
 13 12  1  1
 13 15  1  0
 14 13  1  0
 15 16  1  6
 17 15  1  0
 18 17  2  0
 19 17  1  0
 20 19  1  0
 20 26  1  0
 20 21  1  1
 22 21  1  0
 23 22  1  0
 24 23  1  0
 24 25  1  0
 26 28  1  0
 27 26  2  0
M  END
$$$$
