FTK.pdb
     RDKit          3D

 28 28  0  0  1  0  0  0  0  0999 V2000
    5.5722  -17.0758   25.5950 N   0  0  0  0  0  0  0  0  0  0  0  0
    6.3731  -15.9473   25.1014 C   0  0  1  0  0  0  0  0  0  0  0  0
    7.2540  -15.5038   26.2734 C   0  0  0  0  0  0  0  0  0  0  0  0
    7.1346  -14.0436   26.4639 C   0  0  0  0  0  0  0  0  0  0  0  0
    5.9430  -13.4636   26.8565 C   0  0  0  0  0  0  0  0  0  0  0  0
    5.8611  -12.0894   27.0273 C   0  0  0  0  0  0  0  0  0  0  0  0
    6.9491  -11.2709   26.8141 C   0  0  0  0  0  0  0  0  0  0  0  0
    8.1444  -11.8406   26.4215 C   0  0  0  0  0  0  0  0  0  0  0  0
    8.2169  -13.2206   26.2527 C   0  0  0  0  0  0  0  0  0  0  0  0
    7.2855  -16.4895   24.0737 C   0  0  0  0  0  0  0  0  0  0  0  0
    7.6933  -17.6639   24.1976 O   0  0  0  0  0  0  0  0  0  0  0  0
    7.0905  -15.2382   20.2856 C   0  0  0  0  0  0  0  0  0  0  0  0
    8.5364  -15.4315   20.6731 C   0  0  1  0  0  0  0  0  0  0  0  0
    9.0738  -14.1829   20.9553 O   0  0  0  0  0  0  0  0  0  0  0  0
    8.5786  -16.2598   21.9142 C   0  0  2  0  0  0  0  0  0  0  0  0
    7.7210  -15.7591   22.9640 N   0  0  0  0  0  0  0  0  0  0  0  0
    9.9692  -16.2547   22.4436 C   0  0  0  0  0  0  0  0  0  0  0  0
   10.3327  -15.3106   23.2359 O   0  0  0  0  0  0  0  0  0  0  0  0
   10.9639  -17.2052   22.1623 N   0  0  0  0  0  0  0  0  0  0  0  0
   12.2925  -17.0738   22.6688 C   0  0  1  0  0  0  0  0  0  0  0  0
   12.9998  -18.3831   22.8743 C   0  0  0  0  0  0  0  0  0  0  0  0
   12.9448  -18.8795   24.2819 C   0  0  0  0  0  0  0  0  0  0  0  0
   12.1219  -20.1230   24.4126 C   0  0  0  0  0  0  0  0  0  0  0  0
   12.1343  -20.6896   25.8132 C   0  0  0  0  0  0  0  0  0  0  0  0
   10.7917  -21.0152   26.2566 N   0  0  0  0  0  0  0  0  0  0  0  0
   13.1244  -16.2651   21.7450 C   0  0  0  0  0  0  0  0  0  0  0  0
   14.2320  -15.8495   22.1647 O   0  0  0  0  0  0  0  0  0  0  0  0
   12.7357  -15.9535   20.4564 O   0  0  0  0  0  0  0  0  0  0  0  0
  2  1  1  1
  2  3  1  0
  3  4  1  0
  4  9  2  0
  5  6  2  0
  5  4  1  0
  6  7  1  0
  7  8  2  0
  9  8  1  0
 10  2  1  0
 10 16  1  0
 11 10  2  0
 13 12  1  1
 13 15  1  0
 14 13  1  0
 15 16  1  1
 17 15  1  0
 18 17  2  0
 19 17  1  0
 20 19  1  0
 20 26  1  0
 20 21  1  6
 22 21  1  0
 23 22  1  0
 24 23  1  0
 24 25  1  0
 26 28  1  0
 27 26  2  0
M  END
$$$$
