FTK.pdb
     RDKit          3D

 28 28  0  0  1  0  0  0  0  0999 V2000
    8.3028  -15.6096   26.2438 N   0  0  0  0  0  0  0  0  0  0  0  0
    7.1119  -16.3591   25.8212 C   0  0  1  0  0  0  0  0  0  0  0  0
    5.9054  -15.5017   26.2154 C   0  0  0  0  0  0  0  0  0  0  0  0
    6.3397  -14.1116   26.4635 C   0  0  0  0  0  0  0  0  0  0  0  0
    5.4554  -13.1506   26.9162 C   0  0  0  0  0  0  0  0  0  0  0  0
    5.8924  -11.8533   27.1402 C   0  0  0  0  0  0  0  0  0  0  0  0
    7.2027  -11.4867   26.9218 C   0  0  0  0  0  0  0  0  0  0  0  0
    8.0944  -12.4394   26.4694 C   0  0  0  0  0  0  0  0  0  0  0  0
    7.6465  -13.7389   26.2474 C   0  0  0  0  0  0  0  0  0  0  0  0
    7.1340  -16.3970   24.3445 C   0  0  0  0  0  0  0  0  0  0  0  0
    6.2134  -16.9962   23.7492 O   0  0  0  0  0  0  0  0  0  0  0  0
    7.0031  -14.5797   21.2948 C   0  0  0  0  0  0  0  0  0  0  0  0
    8.4058  -15.1327   21.2248 C   0  0  1  0  0  0  0  0  0  0  0  0
    9.2853  -14.1098   21.5527 O   0  0  0  0  0  0  0  0  0  0  0  0
    8.5308  -16.2142   22.2460 C   0  0  2  0  0  0  0  0  0  0  0  0
    8.1321  -15.7971   23.5708 N   0  0  0  0  0  0  0  0  0  0  0  0
    9.9571  -16.6302   22.3275 C   0  0  0  0  0  0  0  0  0  0  0  0
   10.7032  -16.1272   23.2450 O   0  0  0  0  0  0  0  0  0  0  0  0
   10.6000  -17.5475   21.4807 N   0  0  0  0  0  0  0  0  0  0  0  0
   11.9912  -17.8420   21.6108 C   0  0  1  0  0  0  0  0  0  0  0  0
   12.2808  -19.0827   22.4068 C   0  0  0  0  0  0  0  0  0  0  0  0
   11.2758  -20.1698   22.2093 C   0  0  0  0  0  0  0  0  0  0  0  0
   11.6377  -21.4180   22.9519 C   0  0  0  0  0  0  0  0  0  0  0  0
   10.6108  -22.5145   22.7908 C   0  0  0  0  0  0  0  0  0  0  0  0
   11.0110  -23.7135   23.5031 N   0  0  0  0  0  0  0  0  0  0  0  0
   12.6127  -18.0209   20.2762 C   0  0  0  0  0  0  0  0  0  0  0  0
   11.8660  -17.9625   19.2689 O   0  0  0  0  0  0  0  0  0  0  0  0
   13.9639  -18.2467   20.0973 O   0  0  0  0  0  0  0  0  0  0  0  0
  2  1  1  6
  2  3  1  0
  3  4  1  0
  4  9  2  0
  5  6  2  0
  5  4  1  0
  6  7  1  0
  7  8  2  0
  9  8  1  0
 10  2  1  0
 10 16  1  0
 11 10  2  0
 13 12  1  1
 13 15  1  0
 14 13  1  0
 15 16  1  1
 17 15  1  0
 18 17  2  0
 19 17  1  0
 20 19  1  0
 20 26  1  0
 20 21  1  1
 22 21  1  0
 23 22  1  0
 24 23  1  0
 24 25  1  0
 26 28  1  0
 27 26  2  0
M  END
$$$$
