FTK.pdb
     RDKit          3D

 28 28  0  0  1  0  0  0  0  0999 V2000
    6.2161  -16.2708   25.6867 N   0  0  0  0  0  0  0  0  0  0  0  0
    6.8819  -15.3414   24.7640 C   0  0  1  0  0  0  0  0  0  0  0  0
    7.8727  -14.5360   25.6101 C   0  0  0  0  0  0  0  0  0  0  0  0
    7.1849  -13.3791   26.2193 C   0  0  0  0  0  0  0  0  0  0  0  0
    6.8764  -13.3521   27.5664 C   0  0  0  0  0  0  0  0  0  0  0  0
    6.2300  -12.2518   28.1101 C   0  0  0  0  0  0  0  0  0  0  0  0
    5.8799  -11.1667   27.3362 C   0  0  0  0  0  0  0  0  0  0  0  0
    6.1836  -11.1838   25.9890 C   0  0  0  0  0  0  0  0  0  0  0  0
    6.8325  -12.2925   25.4522 C   0  0  0  0  0  0  0  0  0  0  0  0
    7.6911  -16.1636   23.8411 C   0  0  0  0  0  0  0  0  0  0  0  0
    7.9657  -17.3367   24.1718 O   0  0  0  0  0  0  0  0  0  0  0  0
    7.2627  -15.8028   20.0120 C   0  0  0  0  0  0  0  0  0  0  0  0
    8.7370  -16.0255   20.2466 C   0  0  1  0  0  0  0  0  0  0  0  0
    9.3836  -14.8070   20.0893 O   0  0  0  0  0  0  0  0  0  0  0  0
    8.9198  -16.4833   21.6556 C   0  0  2  0  0  0  0  0  0  0  0  0
    8.1700  -15.7011   22.6117 N   0  0  0  0  0  0  0  0  0  0  0  0
   10.3579  -16.3555   22.0155 C   0  0  0  0  0  0  0  0  0  0  0  0
   10.7846  -15.2440   22.4988 O   0  0  0  0  0  0  0  0  0  0  0  0
   11.3353  -17.3548   21.8808 N   0  0  0  0  0  0  0  0  0  0  0  0
   12.3548  -17.5449   22.8623 C   0  0  1  0  0  0  0  0  0  0  0  0
   11.9878  -18.5222   23.9426 C   0  0  0  0  0  0  0  0  0  0  0  0
   13.0474  -18.6933   24.9812 C   0  0  0  0  0  0  0  0  0  0  0  0
   12.6337  -19.6428   26.0619 C   0  0  0  0  0  0  0  0  0  0  0  0
   13.6704  -19.7769   27.1529 C   0  0  0  0  0  0  0  0  0  0  0  0
   13.2057  -20.6561   28.2094 N   0  0  0  0  0  0  0  0  0  0  0  0
   13.6020  -18.0378   22.2290 C   0  0  0  0  0  0  0  0  0  0  0  0
   13.5087  -18.9804   21.4052 O   0  0  0  0  0  0  0  0  0  0  0  0
   14.8482  -17.5089   22.5046 O   0  0  0  0  0  0  0  0  0  0  0  0
  2  1  1  1
  2  3  1  0
  3  4  1  0
  4  9  2  0
  5  6  2  0
  5  4  1  0
  6  7  1  0
  7  8  2  0
  9  8  1  0
 10  2  1  0
 10 16  1  0
 11 10  2  0
 13 12  1  1
 13 15  1  0
 14 13  1  0
 15 16  1  1
 17 15  1  0
 18 17  2  0
 19 17  1  0
 20 19  1  0
 20 26  1  0
 20 21  1  1
 22 21  1  0
 23 22  1  0
 24 23  1  0
 24 25  1  0
 26 28  1  0
 27 26  2  0
M  END
$$$$
