FTK.pdb
     RDKit          3D

 28 28  0  0  1  0  0  0  0  0999 V2000
    5.8977  -17.4600   25.7535 N   0  0  0  0  0  0  0  0  0  0  0  0
    6.4532  -16.2049   25.2296 C   0  0  1  0  0  0  0  0  0  0  0  0
    7.1991  -15.5484   26.3954 C   0  0  0  0  0  0  0  0  0  0  0  0
    6.7962  -14.1318   26.5122 C   0  0  0  0  0  0  0  0  0  0  0  0
    5.8721  -13.5724   25.6500 C   0  0  0  0  0  0  0  0  0  0  0  0
    5.5134  -12.2391   25.7842 C   0  0  0  0  0  0  0  0  0  0  0  0
    6.0589  -11.4418   26.7670 C   0  0  0  0  0  0  0  0  0  0  0  0
    6.9832  -11.9912   27.6337 C   0  0  0  0  0  0  0  0  0  0  0  0
    7.3369  -13.3302   27.4911 C   0  0  0  0  0  0  0  0  0  0  0  0
    7.4783  -16.5759   24.2326 C   0  0  0  0  0  0  0  0  0  0  0  0
    8.1639  -17.6006   24.4347 O   0  0  0  0  0  0  0  0  0  0  0  0
    7.0985  -15.1468   20.5275 C   0  0  0  0  0  0  0  0  0  0  0  0
    8.5658  -15.3519   20.8161 C   0  0  1  0  0  0  0  0  0  0  0  0
    9.1291  -14.1087   21.0705 O   0  0  0  0  0  0  0  0  0  0  0  0
    8.6853  -16.1897   22.0457 C   0  0  2  0  0  0  0  0  0  0  0  0
    7.7263  -15.8415   23.0691 N   0  0  0  0  0  0  0  0  0  0  0  0
   10.0401  -15.9911   22.6280 C   0  0  0  0  0  0  0  0  0  0  0  0
   10.3159  -14.8751   23.2024 O   0  0  0  0  0  0  0  0  0  0  0  0
   11.0884  -16.9253   22.6191 N   0  0  0  0  0  0  0  0  0  0  0  0
   12.3422  -16.6529   23.2457 C   0  0  1  0  0  0  0  0  0  0  0  0
   12.7531  -17.6804   24.2618 C   0  0  0  0  0  0  0  0  0  0  0  0
   11.8604  -17.7306   25.4582 C   0  0  0  0  0  0  0  0  0  0  0  0
   12.2473  -18.8203   26.4086 C   0  0  0  0  0  0  0  0  0  0  0  0
   11.2687  -18.9782   27.5490 C   0  0  0  0  0  0  0  0  0  0  0  0
   11.6028  -20.1281   28.3683 N   0  0  0  0  0  0  0  0  0  0  0  0
   13.4244  -16.5777   22.2344 C   0  0  0  0  0  0  0  0  0  0  0  0
   14.5649  -16.2236   22.6211 O   0  0  0  0  0  0  0  0  0  0  0  0
   13.2319  -16.8776   20.8996 O   0  0  0  0  0  0  0  0  0  0  0  0
  2  1  1  1
  2  3  1  0
  3  4  1  0
  4  9  2  0
  5  6  2  0
  5  4  1  0
  6  7  1  0
  7  8  2  0
  9  8  1  0
 10  2  1  0
 10 16  1  0
 11 10  2  0
 13 12  1  1
 13 15  1  0
 14 13  1  0
 15 16  1  1
 17 15  1  0
 18 17  2  0
 19 17  1  0
 20 19  1  0
 20 26  1  0
 20 21  1  1
 22 21  1  0
 23 22  1  0
 24 23  1  0
 24 25  1  0
 26 28  1  0
 27 26  2  0
M  END
$$$$
