FTK.pdb
     RDKit          3D

 28 28  0  0  1  0  0  0  0  0999 V2000
    6.4058  -17.0436   25.3313 N   0  0  0  0  0  0  0  0  0  0  0  0
    7.3818  -16.0038   24.9782 C   0  0  1  0  0  0  0  0  0  0  0  0
    7.7641  -15.3132   26.2909 C   0  0  0  0  0  0  0  0  0  0  0  0
    7.2205  -13.9397   26.3100 C   0  0  0  0  0  0  0  0  0  0  0  0
    7.4381  -13.0937   27.3811 C   0  0  0  0  0  0  0  0  0  0  0  0
    6.9149  -11.8091   27.3706 C   0  0  0  0  0  0  0  0  0  0  0  0
    6.1724  -11.3423   26.3076 C   0  0  0  0  0  0  0  0  0  0  0  0
    5.9492  -12.1797   25.2323 C   0  0  0  0  0  0  0  0  0  0  0  0
    6.4784  -13.4673   25.2519 C   0  0  0  0  0  0  0  0  0  0  0  0
    8.5945  -16.7011   24.5033 C   0  0  0  0  0  0  0  0  0  0  0  0
    8.8287  -17.8506   24.9330 O   0  0  0  0  0  0  0  0  0  0  0  0
    9.2282  -17.5695   21.2513 C   0  0  0  0  0  0  0  0  0  0  0  0
   10.5957  -17.0234   21.5831 C   0  0  1  0  0  0  0  0  0  0  0  0
   10.7302  -15.7948   20.9507 O   0  0  0  0  0  0  0  0  0  0  0  0
   10.6657  -16.8098   23.0588 C   0  0  2  0  0  0  0  0  0  0  0  0
    9.5003  -16.1448   23.5952 N   0  0  0  0  0  0  0  0  0  0  0  0
   11.8405  -15.9479   23.3604 C   0  0  0  0  0  0  0  0  0  0  0  0
   12.0428  -14.8963   22.6501 O   0  0  0  0  0  0  0  0  0  0  0  0
   12.7865  -16.1659   24.3751 N   0  0  0  0  0  0  0  0  0  0  0  0
   14.0725  -16.7203   24.0962 C   0  0  1  0  0  0  0  0  0  0  0  0
   14.0667  -18.2104   23.9053 C   0  0  0  0  0  0  0  0  0  0  0  0
   15.4137  -18.7813   23.6041 C   0  0  0  0  0  0  0  0  0  0  0  0
   15.7456  -19.9452   24.4846 C   0  0  0  0  0  0  0  0  0  0  0  0
   17.0894  -20.5576   24.1649 C   0  0  0  0  0  0  0  0  0  0  0  0
   17.3822  -21.6671   25.0528 N   0  0  0  0  0  0  0  0  0  0  0  0
   14.6418  -16.1216   22.8645 C   0  0  0  0  0  0  0  0  0  0  0  0
   14.2973  -16.6111   21.7611 O   0  0  0  0  0  0  0  0  0  0  0  0
   15.5253  -15.0597   22.8806 O   0  0  0  0  0  0  0  0  0  0  0  0
  2  1  1  1
  2  3  1  0
  3  4  1  0
  4  9  2  0
  5  6  2  0
  5  4  1  0
  6  7  1  0
  7  8  2  0
  9  8  1  0
 10  2  1  0
 10 16  1  0
 11 10  2  0
 13 12  1  1
 13 15  1  0
 14 13  1  0
 15 16  1  6
 17 15  1  0
 18 17  2  0
 19 17  1  0
 20 19  1  0
 20 26  1  0
 20 21  1  6
 22 21  1  0
 23 22  1  0
 24 23  1  0
 24 25  1  0
 26 28  1  0
 27 26  2  0
M  END
$$$$
