RGF.pdb
     RDKit          3D

 27 27  0  0  1  0  0  0  0  0999 V2000
   20.5056  -21.7206  -16.9969 N   0  0  0  0  0  0  0  0  0  0  0  0
   20.6564  -20.3485  -17.3283 C   0  0  0  0  0  0  0  0  0  0  0  0
   19.8570  -19.7964  -18.1860 N   0  0  0  0  0  0  0  0  0  0  0  0
   21.6631  -19.5275  -16.7553 N   0  0  0  0  0  0  0  0  0  0  0  0
   22.6571  -20.0539  -15.8495 C   0  0  0  0  0  0  0  0  0  0  0  0
   21.9742  -20.4334  -14.5499 C   0  0  0  0  0  0  0  0  0  0  0  0
   22.9512  -20.6353  -13.4347 C   0  0  0  0  0  0  0  0  0  0  0  0
   24.0753  -19.6315  -13.6009 C   0  0  2  0  0  0  0  0  0  0  0  0
   24.7225  -19.7173  -14.8764 N   0  0  0  0  0  0  0  0  0  0  0  0
   25.0685  -19.9229  -12.5288 C   0  0  0  0  0  0  0  0  0  0  0  0
   24.7487  -19.9887  -11.3142 O   0  0  0  0  0  0  0  0  0  0  0  0
   19.9097  -18.8182  -18.4826 N   0  0  0  0  0  0  0  0  0  0  0  0
   26.4693  -20.1483  -12.8240 C   0  0  0  0  0  0  0  0  0  0  0  0
   27.0812  -21.3835  -12.4448 C   0  0  0  0  0  0  0  0  0  0  0  0
   27.1571  -21.5553  -11.0027 O   0  0  0  0  0  0  0  0  0  0  0  0
   27.0803  -22.7640  -10.5770 N   0  0  0  0  0  0  0  0  0  0  0  0
   27.3046  -20.5044  -10.0856 C   0  0  1  0  0  0  0  0  0  0  0  0
   27.3498  -20.8006   -8.6407 C   0  0  0  0  0  0  0  0  0  0  0  0
   28.2619  -19.8193   -8.0044 C   0  0  0  0  0  0  0  0  0  0  0  0
   28.4068  -19.9776   -6.5401 C   0  0  0  0  0  0  0  0  0  0  0  0
   27.9804  -18.9209   -5.7510 C   0  0  0  0  0  0  0  0  0  0  0  0
   28.0718  -18.9713   -4.3853 C   0  0  0  0  0  0  0  0  0  0  0  0
   28.5969  -20.0950   -3.8112 C   0  0  0  0  0  0  0  0  0  0  0  0
   29.0285  -21.1599   -4.5725 C   0  0  0  0  0  0  0  0  0  0  0  0
   28.9243  -21.0816   -5.9428 C   0  0  0  0  0  0  0  0  0  0  0  0
   25.9784  -20.8375   -8.1415 O   0  0  0  0  0  0  0  0  0  0  0  0
   25.0865  -20.1622   -8.7059 O   0  0  0  0  0  0  0  0  0  0  0  0
  2  3  2  0
  2  1  1  0
  4  2  1  0
  5  4  1  0
  6  5  1  0
  7  6  1  0
  8  7  1  0
  8  9  1  6
 10  8  1  0
 11 10  2  0
 12 10  1  0
 13 14  1  0
 13 12  1  0
 14 15  2  0
 16 17  1  0
 16 14  1  0
 17 18  1  1
 19 20  2  0
 19 18  1  0
 21 20  1  0
 22 21  2  0
 23 22  1  0
 23 24  2  0
 24 19  1  0
 25 17  1  0
 26 25  2  0
 27 25  1  0
M  END
$$$$
