RGF.pdb
     RDKit          3D

 27 27  0  0  1  0  0  0  0  0999 V2000
   19.9843  -18.7703  -14.3377 N   0  0  0  0  0  0  0  0  0  0  0  0
   20.4124  -17.9663  -15.4266 C   0  0  0  0  0  0  0  0  0  0  0  0
   19.6029  -17.1013  -15.9521 N   0  0  0  0  0  0  0  0  0  0  0  0
   21.7141  -18.0622  -15.9852 N   0  0  0  0  0  0  0  0  0  0  0  0
   22.6873  -19.0131  -15.5010 C   0  0  0  0  0  0  0  0  0  0  0  0
   23.3714  -18.4262  -14.2817 C   0  0  0  0  0  0  0  0  0  0  0  0
   24.7407  -18.9924  -14.0733 C   0  0  0  0  0  0  0  0  0  0  0  0
   24.6425  -20.5044  -14.1266 C   0  0  2  0  0  0  0  0  0  0  0  0
   23.4318  -21.0104  -13.5508 N   0  0  0  0  0  0  0  0  0  0  0  0
   25.8060  -21.0341  -13.3610 C   0  0  0  0  0  0  0  0  0  0  0  0
   26.9922  -20.7167  -13.6331 O   0  0  0  0  0  0  0  0  0  0  0  0
   19.8185  -16.5282  -16.7723 N   0  0  0  0  0  0  0  0  0  0  0  0
   25.6386  -21.9519  -12.2520 C   0  0  0  0  0  0  0  0  0  0  0  0
   26.7915  -22.4745  -11.5876 C   0  0  0  0  0  0  0  0  0  0  0  0
   27.3396  -21.5551  -10.6031 O   0  0  0  0  0  0  0  0  0  0  0  0
   28.6068  -21.3580  -10.6640 N   0  0  0  0  0  0  0  0  0  0  0  0
   26.5809  -20.8959   -9.6249 C   0  0  1  0  0  0  0  0  0  0  0  0
   26.9775  -20.9952   -8.2070 C   0  0  0  0  0  0  0  0  0  0  0  0
   28.0135  -19.9650   -7.9521 C   0  0  0  0  0  0  0  0  0  0  0  0
   28.4504  -19.8716   -6.5411 C   0  0  0  0  0  0  0  0  0  0  0  0
   28.0808  -18.7311   -5.8455 C   0  0  0  0  0  0  0  0  0  0  0  0
   28.4359  -18.5512   -4.5350 C   0  0  0  0  0  0  0  0  0  0  0  0
   29.1691  -19.5281   -3.9216 C   0  0  0  0  0  0  0  0  0  0  0  0
   29.5499  -20.6717   -4.5901 C   0  0  0  0  0  0  0  0  0  0  0  0
   29.1786  -20.8257   -5.9066 C   0  0  0  0  0  0  0  0  0  0  0  0
   25.7689  -20.9228   -7.3912 O   0  0  0  0  0  0  0  0  0  0  0  0
   24.7619  -20.3087   -7.8141 O   0  0  0  0  0  0  0  0  0  0  0  0
  2  3  2  0
  2  1  1  0
  4  2  1  0
  5  4  1  0
  6  5  1  0
  7  6  1  0
  8  7  1  0
  8  9  1  1
 10  8  1  0
 11 10  2  0
 12 10  1  0
 13 14  1  0
 13 12  1  0
 14 15  2  0
 16 17  1  0
 16 14  1  0
 17 18  1  1
 19 20  2  0
 19 18  1  0
 21 20  1  0
 22 21  2  0
 23 22  1  0
 23 24  2  0
 24 19  1  0
 25 17  1  0
 26 25  2  0
 27 25  1  0
M  END
$$$$
