RGF.pdb
     RDKit          3D

 27 27  0  0  1  0  0  0  0  0999 V2000
   27.7829  -21.9622  -17.1700 N   0  0  0  0  0  0  0  0  0  0  0  0
   28.5327  -22.4466  -16.0661 C   0  0  0  0  0  0  0  0  0  0  0  0
   29.0796  -23.6204  -16.1183 N   0  0  0  0  0  0  0  0  0  0  0  0
   28.7196  -21.6941  -14.8768 N   0  0  0  0  0  0  0  0  0  0  0  0
   28.2909  -20.3195  -14.7647 C   0  0  0  0  0  0  0  0  0  0  0  0
   26.8902  -20.2022  -15.3336 C   0  0  0  0  0  0  0  0  0  0  0  0
   25.8806  -20.9362  -14.5085 C   0  0  0  0  0  0  0  0  0  0  0  0
   24.7914  -19.9592  -14.1112 C   0  0  2  0  0  0  0  0  0  0  0  0
   25.1184  -18.5976  -14.4153 N   0  0  0  0  0  0  0  0  0  0  0  0
   24.6088  -20.1005  -12.6390 C   0  0  0  0  0  0  0  0  0  0  0  0
   24.1373  -21.1425  -12.1157 O   0  0  0  0  0  0  0  0  0  0  0  0
   29.7015  -24.0034  -15.4011 N   0  0  0  0  0  0  0  0  0  0  0  0
   24.9650  -19.0395  -11.7183 C   0  0  0  0  0  0  0  0  0  0  0  0
   24.7718  -19.2281  -10.3144 C   0  0  0  0  0  0  0  0  0  0  0  0
   25.7286  -20.1567   -9.7339 O   0  0  0  0  0  0  0  0  0  0  0  0
   25.9561  -21.2239  -10.4105 N   0  0  0  0  0  0  0  0  0  0  0  0
   26.3922  -19.9530   -8.5151 C   0  0  1  0  0  0  0  0  0  0  0  0
   27.1997  -21.0433   -7.9351 C   0  0  0  0  0  0  0  0  0  0  0  0
   28.5031  -20.4711   -7.5188 C   0  0  0  0  0  0  0  0  0  0  0  0
   28.4692  -19.7432   -6.2306 C   0  0  0  0  0  0  0  0  0  0  0  0
   28.9637  -20.4108   -5.1211 C   0  0  0  0  0  0  0  0  0  0  0  0
   28.9766  -19.8222   -3.8845 C   0  0  0  0  0  0  0  0  0  0  0  0
   28.4873  -18.5516   -3.7656 C   0  0  0  0  0  0  0  0  0  0  0  0
   27.9897  -17.8653   -4.8525 C   0  0  0  0  0  0  0  0  0  0  0  0
   27.9895  -18.4816   -6.0832 C   0  0  0  0  0  0  0  0  0  0  0  0
   26.4075  -21.6906   -6.8935 O   0  0  0  0  0  0  0  0  0  0  0  0
   25.3747  -21.1342   -6.4533 O   0  0  0  0  0  0  0  0  0  0  0  0
  2  3  2  0
  2  1  1  0
  4  2  1  0
  5  4  1  0
  6  5  1  0
  7  6  1  0
  8  7  1  0
  8  9  1  1
 10  8  1  0
 11 10  2  0
 12 10  1  0
 13 14  1  0
 13 12  1  0
 14 15  2  0
 16 17  1  0
 16 14  1  0
 17 18  1  1
 19 20  2  0
 19 18  1  0
 21 20  1  0
 22 21  2  0
 23 22  1  0
 23 24  2  0
 24 19  1  0
 25 17  1  0
 26 25  2  0
 27 25  1  0
M  END
$$$$
