RGF.pdb
     RDKit          3D

 27 27  0  0  1  0  0  0  0  0999 V2000
   27.1711  -26.0548  -17.8419 N   0  0  0  0  0  0  0  0  0  0  0  0
   25.7859  -25.7611  -17.9424 C   0  0  0  0  0  0  0  0  0  0  0  0
   25.0285  -26.4645  -18.7243 N   0  0  0  0  0  0  0  0  0  0  0  0
   25.1701  -24.7100  -17.2133 N   0  0  0  0  0  0  0  0  0  0  0  0
   25.8825  -23.9540  -16.2100 C   0  0  0  0  0  0  0  0  0  0  0  0
   26.5270  -22.7539  -16.8761 C   0  0  0  0  0  0  0  0  0  0  0  0
   26.3726  -21.5056  -16.0656 C   0  0  0  0  0  0  0  0  0  0  0  0
   26.0651  -21.9033  -14.6352 C   0  0  2  0  0  0  0  0  0  0  0  0
   24.7739  -21.4652  -14.1944 N   0  0  0  0  0  0  0  0  0  0  0  0
   27.1121  -21.2721  -13.7832 C   0  0  0  0  0  0  0  0  0  0  0  0
   27.9992  -20.5159  -14.2555 O   0  0  0  0  0  0  0  0  0  0  0  0
   24.0177  -26.3367  -18.8224 N   0  0  0  0  0  0  0  0  0  0  0  0
   27.1707  -21.4940  -12.3523 C   0  0  0  0  0  0  0  0  0  0  0  0
   26.6672  -20.4956  -11.4614 C   0  0  0  0  0  0  0  0  0  0  0  0
   26.7468  -20.8947  -10.0652 O   0  0  0  0  0  0  0  0  0  0  0  0
   26.9907  -22.1366   -9.8498 N   0  0  0  0  0  0  0  0  0  0  0  0
   26.5765  -20.0224   -8.9802 C   0  0  1  0  0  0  0  0  0  0  0  0
   25.9087  -20.5053   -7.7561 C   0  0  0  0  0  0  0  0  0  0  0  0
   26.1235  -19.4942   -6.6927 C   0  0  0  0  0  0  0  0  0  0  0  0
   27.4699  -19.5271   -6.0790 C   0  0  0  0  0  0  0  0  0  0  0  0
   27.7678  -20.6206   -5.2812 C   0  0  0  0  0  0  0  0  0  0  0  0
   28.9872  -20.7435   -4.6697 C   0  0  0  0  0  0  0  0  0  0  0  0
   29.9127  -19.7567   -4.8639 C   0  0  0  0  0  0  0  0  0  0  0  0
   29.6423  -18.6588   -5.6520 C   0  0  0  0  0  0  0  0  0  0  0  0
   28.4085  -18.5618   -6.2544 C   0  0  0  0  0  0  0  0  0  0  0  0
   24.5223  -20.8195   -8.0889 O   0  0  0  0  0  0  0  0  0  0  0  0
   23.7973  -21.4161   -7.2592 O   0  0  0  0  0  0  0  0  0  0  0  0
  2  3  2  0
  2  1  1  0
  4  2  1  0
  5  4  1  0
  6  5  1  0
  7  6  1  0
  8  7  1  0
  8  9  1  1
 10  8  1  0
 11 10  2  0
 12 10  1  0
 13 14  1  0
 13 12  1  0
 14 15  2  0
 16 17  1  0
 16 14  1  0
 17 18  1  1
 19 20  2  0
 19 18  1  0
 21 20  1  0
 22 21  2  0
 23 22  1  0
 23 24  2  0
 24 19  1  0
 25 17  1  0
 26 25  2  0
 27 25  1  0
M  END
$$$$
