RGF.pdb
     RDKit          3D

 27 27  0  0  1  0  0  0  0  0999 V2000
   27.1378  -23.8920  -18.2314 N   0  0  0  0  0  0  0  0  0  0  0  0
   25.9578  -23.5793  -18.9559 C   0  0  0  0  0  0  0  0  0  0  0  0
   25.6094  -24.3036  -19.9725 N   0  0  0  0  0  0  0  0  0  0  0  0
   25.1172  -22.4863  -18.6173 N   0  0  0  0  0  0  0  0  0  0  0  0
   25.4080  -21.6121  -17.5052 C   0  0  0  0  0  0  0  0  0  0  0  0
   24.3316  -21.7941  -16.4528 C   0  0  0  0  0  0  0  0  0  0  0  0
   24.5374  -20.8991  -15.2715 C   0  0  0  0  0  0  0  0  0  0  0  0
   25.7322  -21.4108  -14.4908 C   0  0  2  0  0  0  0  0  0  0  0  0
   25.5679  -22.7572  -14.0288 N   0  0  0  0  0  0  0  0  0  0  0  0
   25.8919  -20.5076  -13.3163 C   0  0  0  0  0  0  0  0  0  0  0  0
   25.9457  -19.2563  -13.4312 O   0  0  0  0  0  0  0  0  0  0  0  0
   24.7938  -24.1207  -20.5633 N   0  0  0  0  0  0  0  0  0  0  0  0
   25.9961  -21.0206  -11.9649 C   0  0  0  0  0  0  0  0  0  0  0  0
   26.0768  -20.1081  -10.8673 C   0  0  0  0  0  0  0  0  0  0  0  0
   26.1681  -20.7807   -9.5811 O   0  0  0  0  0  0  0  0  0  0  0  0
   26.4541  -22.0316   -9.6213 N   0  0  0  0  0  0  0  0  0  0  0  0
   25.9666  -20.1542   -8.3426 C   0  0  1  0  0  0  0  0  0  0  0  0
   25.5880  -20.9657   -7.1697 C   0  0  0  0  0  0  0  0  0  0  0  0
   25.9304  -20.1913   -5.9521 C   0  0  0  0  0  0  0  0  0  0  0  0
   27.3801  -19.9661   -5.7568 C   0  0  0  0  0  0  0  0  0  0  0  0
   27.8198  -18.6521   -5.7920 C   0  0  0  0  0  0  0  0  0  0  0  0
   29.1424  -18.3402   -5.6211 C   0  0  0  0  0  0  0  0  0  0  0  0
   30.0280  -19.3603   -5.4134 C   0  0  0  0  0  0  0  0  0  0  0  0
   29.6174  -20.6755   -5.3740 C   0  0  0  0  0  0  0  0  0  0  0  0
   28.2819  -20.9594   -5.5487 C   0  0  0  0  0  0  0  0  0  0  0  0
   24.1906  -21.3600   -7.3221 O   0  0  0  0  0  0  0  0  0  0  0  0
   23.5027  -20.8855   -8.2558 O   0  0  0  0  0  0  0  0  0  0  0  0
  2  3  2  0
  2  1  1  0
  4  2  1  0
  5  4  1  0
  6  5  1  0
  7  6  1  0
  8  7  1  0
  8  9  1  1
 10  8  1  0
 11 10  2  0
 12 10  1  0
 13 14  1  0
 13 12  1  0
 14 15  2  0
 16 17  1  0
 16 14  1  0
 17 18  1  1
 19 20  2  0
 19 18  1  0
 21 20  1  0
 22 21  2  0
 23 22  1  0
 23 24  2  0
 24 19  1  0
 25 17  1  0
 26 25  2  0
 27 25  1  0
M  END
$$$$
