RGF.pdb
     RDKit          3D

 27 27  0  0  1  0  0  0  0  0999 V2000
   26.1677  -14.9799  -16.4354 N   0  0  0  0  0  0  0  0  0  0  0  0
   24.9880  -14.9159  -15.6483 C   0  0  0  0  0  0  0  0  0  0  0  0
   24.4823  -13.7660  -15.3295 N   0  0  0  0  0  0  0  0  0  0  0  0
   24.3155  -16.0749  -15.1792 N   0  0  0  0  0  0  0  0  0  0  0  0
   24.9516  -17.0254  -14.2974 C   0  0  0  0  0  0  0  0  0  0  0  0
   25.1123  -18.3390  -15.0377 C   0  0  0  0  0  0  0  0  0  0  0  0
   25.7539  -19.3919  -14.1899 C   0  0  0  0  0  0  0  0  0  0  0  0
   27.2458  -19.1246  -14.1492 C   0  0  2  0  0  0  0  0  0  0  0  0
   27.8594  -19.1597  -15.4436 N   0  0  0  0  0  0  0  0  0  0  0  0
   27.8459  -20.1883  -13.2954 C   0  0  0  0  0  0  0  0  0  0  0  0
   27.8075  -21.4056  -13.6094 O   0  0  0  0  0  0  0  0  0  0  0  0
   23.5955  -13.6391  -14.8343 N   0  0  0  0  0  0  0  0  0  0  0  0
   28.5122  -19.8813  -12.0456 C   0  0  0  0  0  0  0  0  0  0  0  0
   28.8972  -20.9445  -11.1707 C   0  0  0  0  0  0  0  0  0  0  0  0
   27.9146  -21.2013  -10.1299 O   0  0  0  0  0  0  0  0  0  0  0  0
   28.1683  -22.1895   -9.3505 N   0  0  0  0  0  0  0  0  0  0  0  0
   26.7449  -20.4508   -9.9409 C   0  0  1  0  0  0  0  0  0  0  0  0
   25.7648  -20.8749   -8.9226 C   0  0  0  0  0  0  0  0  0  0  0  0
   25.6693  -19.7976   -7.9078 C   0  0  0  0  0  0  0  0  0  0  0  0
   26.8064  -19.7444   -6.9619 C   0  0  0  0  0  0  0  0  0  0  0  0
   27.6407  -18.6409   -7.0474 C   0  0  0  0  0  0  0  0  0  0  0  0
   28.7195  -18.4992   -6.2156 C   0  0  0  0  0  0  0  0  0  0  0  0
   28.9590  -19.4771   -5.2912 C   0  0  0  0  0  0  0  0  0  0  0  0
   28.1453  -20.5846   -5.1852 C   0  0  0  0  0  0  0  0  0  0  0  0
   27.0681  -20.7005   -6.0341 C   0  0  0  0  0  0  0  0  0  0  0  0
   24.5279  -21.2397   -9.6070 O   0  0  0  0  0  0  0  0  0  0  0  0
   23.5259  -21.5972   -8.9449 O   0  0  0  0  0  0  0  0  0  0  0  0
  2  3  2  0
  2  1  1  0
  4  2  1  0
  5  4  1  0
  6  5  1  0
  7  6  1  0
  8  7  1  0
  8  9  1  6
 10  8  1  0
 11 10  2  0
 12 10  1  0
 13 14  1  0
 13 12  1  0
 14 15  2  0
 16 17  1  0
 16 14  1  0
 17 18  1  1
 19 20  2  0
 19 18  1  0
 21 20  1  0
 22 21  2  0
 23 22  1  0
 23 24  2  0
 24 19  1  0
 25 17  1  0
 26 25  2  0
 27 25  1  0
M  END
$$$$
