RGF.pdb
     RDKit          3D

 27 27  0  0  1  0  0  0  0  0999 V2000
   43.4674  -18.5383   -9.9703 N   0  0  0  0  0  0  0  0  0  0  0  0
   44.7684  -18.1778   -9.5314 C   0  0  0  0  0  0  0  0  0  0  0  0
   45.7000  -19.0756   -9.4569 N   0  0  0  0  0  0  0  0  0  0  0  0
   45.1120  -16.8514   -9.1597 N   0  0  0  0  0  0  0  0  0  0  0  0
   44.1329  -15.7907   -9.1136 C   0  0  0  0  0  0  0  0  0  0  0  0
   44.8203  -14.5178   -8.6594 C   0  0  0  0  0  0  0  0  0  0  0  0
   43.8555  -13.3899   -8.4698 C   0  0  0  0  0  0  0  0  0  0  0  0
   44.6325  -12.1735   -8.0055 C   0  0  2  0  0  0  0  0  0  0  0  0
   45.7006  -12.4973   -7.1068 N   0  0  0  0  0  0  0  0  0  0  0  0
   43.6588  -11.2872   -7.3076 C   0  0  0  0  0  0  0  0  0  0  0  0
   43.7292  -11.0482   -6.0747 O   0  0  0  0  0  0  0  0  0  0  0  0
   46.6440  -18.9044   -9.1000 N   0  0  0  0  0  0  0  0  0  0  0  0
   42.5670  -10.6452   -8.0118 C   0  0  0  0  0  0  0  0  0  0  0  0
   41.6576   -9.8086   -7.2928 C   0  0  0  0  0  0  0  0  0  0  0  0
   40.5968   -9.2766   -8.1334 O   0  0  0  0  0  0  0  0  0  0  0  0
   40.7303   -9.4711   -9.3954 N   0  0  0  0  0  0  0  0  0  0  0  0
   39.4748   -8.5860   -7.6524 C   0  0  1  0  0  0  0  0  0  0  0  0
   38.4145   -8.1756   -8.5931 C   0  0  0  0  0  0  0  0  0  0  0  0
   37.1309   -8.7324   -8.1015 C   0  0  0  0  0  0  0  0  0  0  0  0
   37.0910  -10.2102   -8.0314 C   0  0  0  0  0  0  0  0  0  0  0  0
   36.9139  -10.8891   -9.2268 C   0  0  0  0  0  0  0  0  0  0  0  0
   36.8642  -12.2572   -9.2668 C   0  0  0  0  0  0  0  0  0  0  0  0
   36.9938  -12.9458   -8.0932 C   0  0  0  0  0  0  0  0  0  0  0  0
   37.1707  -12.2955   -6.8909 C   0  0  0  0  0  0  0  0  0  0  0  0
   37.2171  -10.9199   -6.8808 C   0  0  0  0  0  0  0  0  0  0  0  0
   38.4813   -6.7254   -8.7481 O   0  0  0  0  0  0  0  0  0  0  0  0
   37.7367   -6.1473   -9.5735 O   0  0  0  0  0  0  0  0  0  0  0  0
  2  3  2  0
  2  1  1  0
  4  2  1  0
  5  4  1  0
  6  5  1  0
  7  6  1  0
  8  7  1  0
  8  9  1  1
 10  8  1  0
 11 10  2  0
 12 10  1  0
 13 14  1  0
 13 12  1  0
 14 15  2  0
 16 17  1  0
 16 14  1  0
 17 18  1  6
 19 20  2  0
 19 18  1  0
 21 20  1  0
 22 21  2  0
 23 22  1  0
 23 24  2  0
 24 19  1  0
 25 17  1  0
 26 25  2  0
 27 25  1  0
M  END
$$$$
