RGF.pdb
     RDKit          3D

 27 27  0  0  1  0  0  0  0  0999 V2000
   23.0893  -26.1747  -13.7868 N   0  0  0  0  0  0  0  0  0  0  0  0
   21.7073  -25.9788  -13.5277 C   0  0  0  0  0  0  0  0  0  0  0  0
   21.0411  -26.8647  -12.8563 N   0  0  0  0  0  0  0  0  0  0  0  0
   20.9977  -24.8342  -13.9772 N   0  0  0  0  0  0  0  0  0  0  0  0
   21.6745  -23.6652  -14.4884 C   0  0  0  0  0  0  0  0  0  0  0  0
   22.6482  -23.1715  -13.4360 C   0  0  0  0  0  0  0  0  0  0  0  0
   22.7065  -21.6776  -13.3749 C   0  0  0  0  0  0  0  0  0  0  0  0
   23.8430  -21.2102  -14.2629 C   0  0  2  0  0  0  0  0  0  0  0  0
   24.5074  -22.2847  -14.9392 N   0  0  0  0  0  0  0  0  0  0  0  0
   24.8178  -20.5142  -13.3763 C   0  0  0  0  0  0  0  0  0  0  0  0
   24.5170  -19.4817  -12.7240 O   0  0  0  0  0  0  0  0  0  0  0  0
   20.0486  -26.7871  -12.6183 N   0  0  0  0  0  0  0  0  0  0  0  0
   26.1775  -20.9881  -13.2130 C   0  0  0  0  0  0  0  0  0  0  0  0
   27.0792  -20.2695  -12.3677 C   0  0  0  0  0  0  0  0  0  0  0  0
   27.1141  -20.7897  -11.0100 O   0  0  0  0  0  0  0  0  0  0  0  0
   27.6728  -21.9362  -10.8628 N   0  0  0  0  0  0  0  0  0  0  0  0
   26.5870  -20.1258   -9.8927 C   0  0  1  0  0  0  0  0  0  0  0  0
   26.9641  -20.5706   -8.5371 C   0  0  0  0  0  0  0  0  0  0  0  0
   27.6460  -19.4401   -7.8616 C   0  0  0  0  0  0  0  0  0  0  0  0
   28.0497  -19.7147   -6.4644 C   0  0  0  0  0  0  0  0  0  0  0  0
   27.4573  -18.9418   -5.4781 C   0  0  0  0  0  0  0  0  0  0  0  0
   27.7641  -19.1198   -4.1552 C   0  0  0  0  0  0  0  0  0  0  0  0
   28.6747  -20.0839   -3.8244 C   0  0  0  0  0  0  0  0  0  0  0  0
   29.2785  -20.8662   -4.7853 C   0  0  0  0  0  0  0  0  0  0  0  0
   28.9508  -20.6653   -6.1069 C   0  0  0  0  0  0  0  0  0  0  0  0
   25.7699  -21.0983   -7.8836 O   0  0  0  0  0  0  0  0  0  0  0  0
   25.8790  -21.9346   -6.9569 O   0  0  0  0  0  0  0  0  0  0  0  0
  2  3  2  0
  2  1  1  0
  4  2  1  0
  5  4  1  0
  6  5  1  0
  7  6  1  0
  8  7  1  0
  8  9  1  1
 10  8  1  0
 11 10  2  0
 12 10  1  0
 13 14  1  0
 13 12  1  0
 14 15  2  0
 16 17  1  0
 16 14  1  0
 17 18  1  1
 19 20  2  0
 19 18  1  0
 21 20  1  0
 22 21  2  0
 23 22  1  0
 23 24  2  0
 24 19  1  0
 25 17  1  0
 26 25  2  0
 27 25  1  0
M  END
$$$$
