RGF.pdb
     RDKit          3D

 27 27  0  0  1  0  0  0  0  0999 V2000
   28.6401  -27.9076  -16.3880 N   0  0  0  0  0  0  0  0  0  0  0  0
   28.1882  -28.7466  -17.4402 C   0  0  0  0  0  0  0  0  0  0  0  0
   27.8975  -29.9869  -17.2018 N   0  0  0  0  0  0  0  0  0  0  0  0
   28.0344  -28.2873  -18.7748 N   0  0  0  0  0  0  0  0  0  0  0  0
   28.1558  -26.8910  -19.1232 C   0  0  0  0  0  0  0  0  0  0  0  0
   26.8846  -26.1768  -18.7072 C   0  0  0  0  0  0  0  0  0  0  0  0
   26.8297  -24.7727  -19.2216 C   0  0  0  0  0  0  0  0  0  0  0  0
   27.7668  -23.9237  -18.3851 C   0  0  2  0  0  0  0  0  0  0  0  0
   28.0818  -24.5145  -17.1182 N   0  0  0  0  0  0  0  0  0  0  0  0
   27.0755  -22.6230  -18.1589 C   0  0  0  0  0  0  0  0  0  0  0  0
   26.5835  -21.9491  -19.1001 O   0  0  0  0  0  0  0  0  0  0  0  0
   27.6150  -30.6643  -17.9152 N   0  0  0  0  0  0  0  0  0  0  0  0
   26.9290  -22.0544  -16.8340 C   0  0  0  0  0  0  0  0  0  0  0  0
   26.2242  -20.8216  -16.6685 C   0  0  0  0  0  0  0  0  0  0  0  0
   24.9848  -20.9769  -15.9238 O   0  0  0  0  0  0  0  0  0  0  0  0
   24.5578  -22.1803  -15.7900 N   0  0  0  0  0  0  0  0  0  0  0  0
   24.2576  -19.9162  -15.3642 C   0  0  1  0  0  0  0  0  0  0  0  0
   23.0676  -20.2043  -14.5406 C   0  0  0  0  0  0  0  0  0  0  0  0
   23.3231  -19.6836  -13.1756 C   0  0  0  0  0  0  0  0  0  0  0  0
   24.4816  -20.3005  -12.4916 C   0  0  0  0  0  0  0  0  0  0  0  0
   25.7412  -19.9188  -12.9261 C   0  0  0  0  0  0  0  0  0  0  0  0
   26.8758  -20.4325  -12.3562 C   0  0  0  0  0  0  0  0  0  0  0  0
   26.7393  -21.3376  -11.3412 C   0  0  0  0  0  0  0  0  0  0  0  0
   25.4988  -21.7343  -10.8901 C   0  0  0  0  0  0  0  0  0  0  0  0
   24.3759  -21.2013  -11.4813 C   0  0  0  0  0  0  0  0  0  0  0  0
   21.8967  -19.6749  -15.2335 O   0  0  0  0  0  0  0  0  0  0  0  0
   20.7470  -19.9147  -14.7968 O   0  0  0  0  0  0  0  0  0  0  0  0
  2  3  2  0
  2  1  1  0
  4  2  1  0
  5  4  1  0
  6  5  1  0
  7  6  1  0
  8  7  1  0
  8  9  1  1
 10  8  1  0
 11 10  2  0
 12 10  1  0
 13 14  1  0
 13 12  1  0
 14 15  2  0
 16 17  1  0
 16 14  1  0
 17 18  1  6
 19 20  2  0
 19 18  1  0
 21 20  1  0
 22 21  2  0
 23 22  1  0
 23 24  2  0
 24 19  1  0
 25 17  1  0
 26 25  2  0
 27 25  1  0
M  END
$$$$
