RGF.pdb
     RDKit          3D

 27 27  0  0  1  0  0  0  0  0999 V2000
   20.2941  -17.1595  -17.1034 N   0  0  0  0  0  0  0  0  0  0  0  0
   20.8183  -18.3620  -17.6460 C   0  0  0  0  0  0  0  0  0  0  0  0
   20.9392  -18.4962  -18.9294 N   0  0  0  0  0  0  0  0  0  0  0  0
   21.2274  -19.4541  -16.8363 N   0  0  0  0  0  0  0  0  0  0  0  0
   21.1178  -19.4236  -15.3966 C   0  0  0  0  0  0  0  0  0  0  0  0
   21.5514  -20.7700  -14.8502 C   0  0  0  0  0  0  0  0  0  0  0  0
   22.5359  -20.6365  -13.7312 C   0  0  0  0  0  0  0  0  0  0  0  0
   23.9264  -20.5527  -14.3298 C   0  0  2  0  0  0  0  0  0  0  0  0
   24.3730  -21.7930  -14.8915 N   0  0  0  0  0  0  0  0  0  0  0  0
   24.8435  -20.1596  -13.2230 C   0  0  0  0  0  0  0  0  0  0  0  0
   24.6707  -19.1151  -12.5439 O   0  0  0  0  0  0  0  0  0  0  0  0
   21.2805  -19.3415  -19.3950 N   0  0  0  0  0  0  0  0  0  0  0  0
   25.9953  -20.9616  -12.8621 C   0  0  0  0  0  0  0  0  0  0  0  0
   26.9050  -20.4841  -11.8678 C   0  0  0  0  0  0  0  0  0  0  0  0
   26.6325  -21.0284  -10.5471 O   0  0  0  0  0  0  0  0  0  0  0  0
   25.8024  -22.0069  -10.5040 N   0  0  0  0  0  0  0  0  0  0  0  0
   27.2099  -20.5553   -9.3598 C   0  0  2  0  0  0  0  0  0  0  0  0
   26.9568  -21.2683   -8.0929 C   0  0  0  0  0  0  0  0  0  0  0  0
   28.2472  -21.3838   -7.3711 C   0  0  0  0  0  0  0  0  0  0  0  0
   28.4129  -20.4259   -6.2552 C   0  0  0  0  0  0  0  0  0  0  0  0
   28.5758  -20.9632   -4.9879 C   0  0  0  0  0  0  0  0  0  0  0  0
   28.7373  -20.1598   -3.8905 C   0  0  0  0  0  0  0  0  0  0  0  0
   28.7345  -18.8051   -4.0720 C   0  0  0  0  0  0  0  0  0  0  0  0
   28.5744  -18.2449   -5.3211 C   0  0  0  0  0  0  0  0  0  0  0  0
   28.4143  -19.0766   -6.4061 C   0  0  0  0  0  0  0  0  0  0  0  0
   25.8757  -20.5809   -7.3930 O   0  0  0  0  0  0  0  0  0  0  0  0
   25.3945  -21.0712   -6.3450 O   0  0  0  0  0  0  0  0  0  0  0  0
  2  3  2  0
  2  1  1  0
  4  2  1  0
  5  4  1  0
  6  5  1  0
  7  6  1  0
  8  7  1  0
  8  9  1  1
 10  8  1  0
 11 10  2  0
 12 10  1  0
 13 14  1  0
 13 12  1  0
 14 15  2  0
 16 17  1  0
 16 14  1  0
 17 18  1  6
 19 20  2  0
 19 18  1  0
 21 20  1  0
 22 21  2  0
 23 22  1  0
 23 24  2  0
 24 19  1  0
 25 17  1  0
 26 25  2  0
 27 25  1  0
M  END
$$$$
