RGF.pdb
     RDKit          3D

 27 27  0  0  1  0  0  0  0  0999 V2000
   32.9892  -27.3855  -17.6324 N   0  0  0  0  0  0  0  0  0  0  0  0
   33.3846  -26.0301  -17.7803 C   0  0  0  0  0  0  0  0  0  0  0  0
   34.4515  -25.7354  -18.4544 N   0  0  0  0  0  0  0  0  0  0  0  0
   32.6544  -24.9523  -17.2140 N   0  0  0  0  0  0  0  0  0  0  0  0
   31.2813  -25.0961  -16.7901 C   0  0  0  0  0  0  0  0  0  0  0  0
   30.4405  -24.0644  -17.5167 C   0  0  0  0  0  0  0  0  0  0  0  0
   29.9465  -22.9895  -16.6005 C   0  0  0  0  0  0  0  0  0  0  0  0
   28.6857  -23.4872  -15.9212 C   0  0  2  0  0  0  0  0  0  0  0  0
   27.7400  -24.0547  -16.8359 N   0  0  0  0  0  0  0  0  0  0  0  0
   28.0693  -22.3078  -15.2507 C   0  0  0  0  0  0  0  0  0  0  0  0
   28.6894  -21.6134  -14.4050 O   0  0  0  0  0  0  0  0  0  0  0  0
   34.7618  -24.7824  -18.6627 N   0  0  0  0  0  0  0  0  0  0  0  0
   26.7112  -21.8893  -15.5345 C   0  0  0  0  0  0  0  0  0  0  0  0
   26.1998  -20.6964  -14.9351 C   0  0  0  0  0  0  0  0  0  0  0  0
   25.4682  -20.9531  -13.7048 O   0  0  0  0  0  0  0  0  0  0  0  0
   25.1940  -22.1835  -13.4615 N   0  0  0  0  0  0  0  0  0  0  0  0
   25.0612  -19.9597  -12.8022 C   0  0  1  0  0  0  0  0  0  0  0  0
   24.2494  -20.3321  -11.6275 C   0  0  0  0  0  0  0  0  0  0  0  0
   24.5340  -19.3534  -10.5502 C   0  0  0  0  0  0  0  0  0  0  0  0
   25.7203  -19.6767   -9.7264 C   0  0  0  0  0  0  0  0  0  0  0  0
   26.9498  -19.2530  -10.2060 C   0  0  0  0  0  0  0  0  0  0  0  0
   28.1064  -19.5027   -9.5163 C   0  0  0  0  0  0  0  0  0  0  0  0
   28.0228  -20.1847   -8.3347 C   0  0  0  0  0  0  0  0  0  0  0  0
   26.8132  -20.6174   -7.8353 C   0  0  0  0  0  0  0  0  0  0  0  0
   25.6670  -20.3520   -8.5498 C   0  0  0  0  0  0  0  0  0  0  0  0
   22.8583  -20.4476  -12.0550 O   0  0  0  0  0  0  0  0  0  0  0  0
   22.4818  -19.9062  -13.1204 O   0  0  0  0  0  0  0  0  0  0  0  0
  2  3  2  0
  2  1  1  0
  4  2  1  0
  5  4  1  0
  6  5  1  0
  7  6  1  0
  8  7  1  0
  8  9  1  6
 10  8  1  0
 11 10  2  0
 12 10  1  0
 13 14  1  0
 13 12  1  0
 14 15  2  0
 16 17  1  0
 16 14  1  0
 17 18  1  1
 19 20  2  0
 19 18  1  0
 21 20  1  0
 22 21  2  0
 23 22  1  0
 23 24  2  0
 24 19  1  0
 25 17  1  0
 26 25  2  0
 27 25  1  0
M  END
$$$$
