SNP.pdb
     RDKit          3D

 22 22  0  0  1  0  0  0  0  0999 V2000
   10.2029  -13.0302   20.6535 O   0  0  0  0  0  0  0  0  0  0  0  0
    9.6480  -14.0305   19.8793 C   0  0  0  0  0  0  0  0  0  0  0  0
    8.1395  -13.8761   19.8931 C   0  0  2  0  0  0  0  0  0  0  0  0
    7.8290  -12.5525   19.4465 N   0  0  0  0  0  0  0  0  0  0  0  0
    7.6243  -14.0327   21.2937 C   0  0  0  0  0  0  0  0  0  0  0  0
    7.3062  -13.0259   21.9816 O   0  0  0  0  0  0  0  0  0  0  0  0
    6.1347  -16.1863   25.7326 N   0  0  0  0  0  0  0  0  0  0  0  0
    6.3018  -17.2717   24.8489 C   0  0  0  0  0  0  0  0  0  0  0  0
    6.0119  -18.4223   25.2571 O   0  0  0  0  0  0  0  0  0  0  0  0
    6.8095  -16.9906   23.4907 C   0  0  0  0  0  0  0  0  0  0  0  0
    6.9626  -15.5047   23.2095 C   0  0  2  0  0  0  0  0  0  0  0  0
    7.4854  -15.3123   21.8694 N   0  0  0  0  0  0  0  0  0  0  0  0
    8.0075  -15.0256   24.1645 C   0  0  0  0  0  0  0  0  0  0  0  0
    9.2306  -15.2428   23.8280 O   0  0  0  0  0  0  0  0  0  0  0  0
    7.7385  -14.3668   25.3779 N   0  0  0  0  0  0  0  0  0  0  0  0
    6.4365  -14.1553   25.9567 C   0  0  0  0  0  0  0  0  0  0  0  0
    6.5881  -12.9791   26.9114 C   0  0  0  0  0  0  0  0  0  0  0  0
    7.9949  -12.4608   26.5814 C   0  0  0  0  0  0  0  0  0  0  0  0
    8.6878  -13.8056   26.2985 C   0  0  1  0  0  0  0  0  0  0  0  0
    8.6588  -14.5710   27.6004 C   0  0  0  0  0  0  0  0  0  0  0  0
    7.8772  -15.6888   27.7655 O   0  0  0  0  0  0  0  0  0  0  0  0
    9.3642  -14.1837   28.5634 O   0  0  0  0  0  0  0  0  0  0  0  0
  1  2  1  0
  3  4  1  1
  3  2  1  0
  3  5  1  0
  5 12  1  0
  5  6  2  0
  8  7  1  0
  8 10  1  0
  9  8  2  0
 11 10  1  1
 11 13  1  0
 12 11  1  0
 13 14  2  0
 13 15  1  0
 15 16  1  0
 16 17  1  0
 18 17  1  0
 19 15  1  0
 19 18  1  0
 19 20  1  1
 21 20  1  0
 22 20  2  0
M  END
$$$$
