SNP.pdb
     RDKit          3D

 22 22  0  0  1  0  0  0  0  0999 V2000
    8.9330  -13.2001   18.3727 O   0  0  0  0  0  0  0  0  0  0  0  0
    8.0492  -13.4024   19.4147 C   0  0  0  0  0  0  0  0  0  0  0  0
    8.0317  -14.8794   19.7580 C   0  0  2  0  0  0  0  0  0  0  0  0
    7.2261  -15.5479   18.7824 N   0  0  0  0  0  0  0  0  0  0  0  0
    7.4031  -15.0817   21.1054 C   0  0  0  0  0  0  0  0  0  0  0  0
    6.1501  -15.0880   21.2395 O   0  0  0  0  0  0  0  0  0  0  0  0
    6.0326  -17.5489   25.5154 N   0  0  0  0  0  0  0  0  0  0  0  0
    7.4060  -17.3263   25.2893 C   0  0  0  0  0  0  0  0  0  0  0  0
    8.1922  -17.4150   26.2633 O   0  0  0  0  0  0  0  0  0  0  0  0
    7.8406  -17.0008   23.9158 C   0  0  0  0  0  0  0  0  0  0  0  0
    7.6324  -15.5384   23.5577 C   0  0  2  0  0  0  0  0  0  0  0  0
    8.2035  -15.2691   22.2509 N   0  0  0  0  0  0  0  0  0  0  0  0
    8.4325  -14.7673   24.5570 C   0  0  0  0  0  0  0  0  0  0  0  0
    9.7032  -14.7220   24.3578 O   0  0  0  0  0  0  0  0  0  0  0  0
    7.8910  -14.1041   25.6731 N   0  0  0  0  0  0  0  0  0  0  0  0
    6.5027  -14.0863   26.0567 C   0  0  0  0  0  0  0  0  0  0  0  0
    6.3264  -12.8558   26.9358 C   0  0  0  0  0  0  0  0  0  0  0  0
    7.6650  -12.1253   26.7594 C   0  0  0  0  0  0  0  0  0  0  0  0
    8.5969  -13.3468   26.6690 C   0  0  1  0  0  0  0  0  0  0  0  0
    8.5044  -14.0411   28.0072 C   0  0  0  0  0  0  0  0  0  0  0  0
    7.8808  -15.2569   28.1501 O   0  0  0  0  0  0  0  0  0  0  0  0
    9.0077  -13.5012   29.0222 O   0  0  0  0  0  0  0  0  0  0  0  0
  1  2  1  0
  3  4  1  6
  3  2  1  0
  3  5  1  0
  5 12  1  0
  5  6  2  0
  8  7  1  0
  8 10  1  0
  9  8  2  0
 11 10  1  1
 11 13  1  0
 12 11  1  0
 13 14  2  0
 13 15  1  0
 15 16  1  0
 16 17  1  0
 18 17  1  0
 19 15  1  0
 19 18  1  0
 19 20  1  1
 21 20  1  0
 22 20  2  0
M  END
$$$$
