SNP.pdb
     RDKit          3D

 22 22  0  0  1  0  0  0  0  0999 V2000
   10.0136  -12.2062   20.0224 O   0  0  0  0  0  0  0  0  0  0  0  0
    9.9363  -13.5839   19.9623 C   0  0  0  0  0  0  0  0  0  0  0  0
    8.4913  -13.9804   19.7293 C   0  0  2  0  0  0  0  0  0  0  0  0
    7.8419  -12.8985   19.0544 N   0  0  0  0  0  0  0  0  0  0  0  0
    7.8032  -14.1942   21.0456 C   0  0  0  0  0  0  0  0  0  0  0  0
    6.8814  -13.4235   21.4255 O   0  0  0  0  0  0  0  0  0  0  0  0
    5.6225  -17.7437   24.8939 N   0  0  0  0  0  0  0  0  0  0  0  0
    6.9606  -17.3136   24.7881 C   0  0  0  0  0  0  0  0  0  0  0  0
    7.6419  -17.2225   25.8380 O   0  0  0  0  0  0  0  0  0  0  0  0
    7.4841  -16.9944   23.4444 C   0  0  0  0  0  0  0  0  0  0  0  0
    7.5339  -15.5010   23.1656 C   0  0  2  0  0  0  0  0  0  0  0  0
    8.1751  -15.2640   21.8854 N   0  0  0  0  0  0  0  0  0  0  0  0
    8.4266  -14.9301   24.2194 C   0  0  0  0  0  0  0  0  0  0  0  0
    9.6899  -14.9621   23.9755 O   0  0  0  0  0  0  0  0  0  0  0  0
    7.9775  -14.3730   25.4304 N   0  0  0  0  0  0  0  0  0  0  0  0
    6.6299  -14.4210   25.9369 C   0  0  0  0  0  0  0  0  0  0  0  0
    6.5129  -13.2702   26.9269 C   0  0  0  0  0  0  0  0  0  0  0  0
    7.8166  -12.4945   26.6923 C   0  0  0  0  0  0  0  0  0  0  0  0
    8.7579  -13.6809   26.4183 C   0  0  1  0  0  0  0  0  0  0  0  0
    8.8002  -14.4831   27.6974 C   0  0  0  0  0  0  0  0  0  0  0  0
    9.5739  -14.1004   28.7663 O   0  0  0  0  0  0  0  0  0  0  0  0
    8.1138  -15.5290   27.7966 O   0  0  0  0  0  0  0  0  0  0  0  0
  1  2  1  0
  3  4  1  1
  3  2  1  0
  3  5  1  0
  5 12  1  0
  5  6  2  0
  8  7  1  0
  8 10  1  0
  9  8  2  0
 11 10  1  1
 11 13  1  0
 12 11  1  0
 13 14  2  0
 13 15  1  0
 15 16  1  0
 16 17  1  0
 18 17  1  0
 19 15  1  0
 19 18  1  0
 19 20  1  1
 21 20  1  0
 22 20  2  0
M  END
$$$$
