SNP.pdb
     RDKit          3D

 22 22  0  0  1  0  0  0  0  0999 V2000
    7.3388  -15.1433   18.5417 O   0  0  0  0  0  0  0  0  0  0  0  0
    6.5047  -14.6689   19.5352 C   0  0  0  0  0  0  0  0  0  0  0  0
    7.2886  -13.7128   20.4132 C   0  0  2  0  0  0  0  0  0  0  0  0
    7.5882  -12.5485   19.6371 N   0  0  0  0  0  0  0  0  0  0  0  0
    8.5836  -14.3475   20.8279 C   0  0  0  0  0  0  0  0  0  0  0  0
    9.3747  -14.8219   19.9694 O   0  0  0  0  0  0  0  0  0  0  0  0
    5.5923  -16.8699   24.4010 N   0  0  0  0  0  0  0  0  0  0  0  0
    6.9954  -16.8231   24.2747 C   0  0  0  0  0  0  0  0  0  0  0  0
    7.6936  -17.2828   25.2106 O   0  0  0  0  0  0  0  0  0  0  0  0
    7.5635  -16.2342   23.0450 C   0  0  0  0  0  0  0  0  0  0  0  0
    7.9862  -14.7848   23.2209 C   0  0  2  0  0  0  0  0  0  0  0  0
    8.9418  -14.4258   22.1894 N   0  0  0  0  0  0  0  0  0  0  0  0
    8.7087  -14.7380   24.5282 C   0  0  0  0  0  0  0  0  0  0  0  0
    9.9010  -15.2226   24.5388 O   0  0  0  0  0  0  0  0  0  0  0  0
    8.1754  -14.2075   25.7169 N   0  0  0  0  0  0  0  0  0  0  0  0
    6.7775  -14.1203   26.0535 C   0  0  0  0  0  0  0  0  0  0  0  0
    6.6678  -13.0290   27.1094 C   0  0  0  0  0  0  0  0  0  0  0  0
    8.0713  -12.4072   27.0937 C   0  0  0  0  0  0  0  0  0  0  0  0
    8.8972  -13.6813   26.8419 C   0  0  1  0  0  0  0  0  0  0  0  0
    8.6831  -14.5619   28.0503 C   0  0  0  0  0  0  0  0  0  0  0  0
    7.9227  -15.7045   27.9875 O   0  0  0  0  0  0  0  0  0  0  0  0
    9.2098  -14.2503   29.1460 O   0  0  0  0  0  0  0  0  0  0  0  0
  1  2  1  0
  3  4  1  6
  3  2  1  0
  3  5  1  0
  5 12  1  0
  5  6  2  0
  8  7  1  0
  8 10  1  0
  9  8  2  0
 11 10  1  6
 11 13  1  0
 12 11  1  0
 13 14  2  0
 13 15  1  0
 15 16  1  0
 16 17  1  0
 18 17  1  0
 19 15  1  0
 19 18  1  0
 19 20  1  1
 21 20  1  0
 22 20  2  0
M  END
$$$$
