SNP.pdb
     RDKit          3D

 22 22  0  0  1  0  0  0  0  0999 V2000
   10.1557  -13.1112   20.4036 O   0  0  0  0  0  0  0  0  0  0  0  0
    9.6828  -14.2528   19.7864 C   0  0  0  0  0  0  0  0  0  0  0  0
    8.1684  -14.1891   19.7403 C   0  0  2  0  0  0  0  0  0  0  0  0
    7.7990  -12.9483   19.1308 N   0  0  0  0  0  0  0  0  0  0  0  0
    7.6150  -14.2111   21.1348 C   0  0  0  0  0  0  0  0  0  0  0  0
    6.9364  -13.2452   21.5760 O   0  0  0  0  0  0  0  0  0  0  0  0
    7.3558  -17.8573   25.8871 N   0  0  0  0  0  0  0  0  0  0  0  0
    6.5467  -17.0927   25.0224 C   0  0  0  0  0  0  0  0  0  0  0  0
    5.4728  -16.6235   25.4710 O   0  0  0  0  0  0  0  0  0  0  0  0
    7.0113  -16.8879   23.6355 C   0  0  0  0  0  0  0  0  0  0  0  0
    7.2324  -15.4236   23.2931 C   0  0  2  0  0  0  0  0  0  0  0  0
    7.8437  -15.3153   21.9813 N   0  0  0  0  0  0  0  0  0  0  0  0
    8.2317  -14.9299   24.2885 C   0  0  0  0  0  0  0  0  0  0  0  0
    9.4709  -15.1044   23.9875 O   0  0  0  0  0  0  0  0  0  0  0  0
    7.9050  -14.3004   25.5033 N   0  0  0  0  0  0  0  0  0  0  0  0
    6.5951  -14.2374   26.0994 C   0  0  0  0  0  0  0  0  0  0  0  0
    6.6231  -13.0469   27.0480 C   0  0  0  0  0  0  0  0  0  0  0  0
    7.9563  -12.3717   26.6968 C   0  0  0  0  0  0  0  0  0  0  0  0
    8.7956  -13.6292   26.4088 C   0  0  1  0  0  0  0  0  0  0  0  0
    8.8724  -14.3864   27.7135 C   0  0  0  0  0  0  0  0  0  0  0  0
    8.2409  -15.5941   27.8876 O   0  0  0  0  0  0  0  0  0  0  0  0
    9.5283  -13.9080   28.6705 O   0  0  0  0  0  0  0  0  0  0  0  0
  1  2  1  0
  3  4  1  1
  3  2  1  0
  3  5  1  0
  5 12  1  0
  5  6  2  0
  8  7  1  0
  8 10  1  0
  9  8  2  0
 11 10  1  1
 11 13  1  0
 12 11  1  0
 13 14  2  0
 13 15  1  0
 15 16  1  0
 16 17  1  0
 18 17  1  0
 19 15  1  0
 19 18  1  0
 19 20  1  1
 21 20  1  0
 22 20  2  0
M  END
$$$$
