SNP.pdb
     RDKit          3D

 22 22  0  0  1  0  0  0  0  0999 V2000
    9.4563  -14.0909   20.3930 O   0  0  0  0  0  0  0  0  0  0  0  0
    8.4123  -14.4440   19.5603 C   0  0  0  0  0  0  0  0  0  0  0  0
    7.8719  -15.7904   20.0018 C   0  0  2  0  0  0  0  0  0  0  0  0
    6.8398  -16.1713   19.0867 N   0  0  0  0  0  0  0  0  0  0  0  0
    7.2671  -15.6726   21.3700 C   0  0  0  0  0  0  0  0  0  0  0  0
    6.1155  -15.1858   21.5278 O   0  0  0  0  0  0  0  0  0  0  0  0
    6.5472  -16.3031   26.4334 N   0  0  0  0  0  0  0  0  0  0  0  0
    6.9160  -17.5191   25.8234 C   0  0  0  0  0  0  0  0  0  0  0  0
    6.8093  -18.5766   26.4904 O   0  0  0  0  0  0  0  0  0  0  0  0
    7.4079  -17.4775   24.4314 C   0  0  0  0  0  0  0  0  0  0  0  0
    7.3958  -16.0779   23.8386 C   0  0  2  0  0  0  0  0  0  0  0  0
    7.9768  -16.1053   22.5090 N   0  0  0  0  0  0  0  0  0  0  0  0
    8.3102  -15.2726   24.7039 C   0  0  0  0  0  0  0  0  0  0  0  0
    9.5663  -15.3504   24.4342 O   0  0  0  0  0  0  0  0  0  0  0  0
    7.8883  -14.4546   25.7677 N   0  0  0  0  0  0  0  0  0  0  0  0
    6.5334  -14.2998   26.2316 C   0  0  0  0  0  0  0  0  0  0  0  0
    6.4934  -12.9704   26.9726 C   0  0  0  0  0  0  0  0  0  0  0  0
    7.8585  -12.3569   26.6312 C   0  0  0  0  0  0  0  0  0  0  0  0
    8.7060  -13.6416   26.6244 C   0  0  1  0  0  0  0  0  0  0  0  0
    8.6641  -14.1756   28.0367 C   0  0  0  0  0  0  0  0  0  0  0  0
    8.0151  -15.3455   28.3491 O   0  0  0  0  0  0  0  0  0  0  0  0
    9.2345  -13.5408   28.9569 O   0  0  0  0  0  0  0  0  0  0  0  0
  1  2  1  0
  3  4  1  6
  3  2  1  0
  3  5  1  0
  5 12  1  0
  5  6  2  0
  8  7  1  0
  8 10  1  0
  9  8  2  0
 11 10  1  1
 11 13  1  0
 12 11  1  0
 13 14  2  0
 13 15  1  0
 15 16  1  0
 16 17  1  0
 18 17  1  0
 19 15  1  0
 19 18  1  0
 19 20  1  1
 21 20  1  0
 22 20  2  0
M  END
$$$$
