SNP.pdb
     RDKit          3D

 22 22  0  0  1  0  0  0  0  0999 V2000
   14.4629  -16.2312   19.4587 O   0  0  0  0  0  0  0  0  0  0  0  0
   13.9014  -16.5404   18.2352 C   0  0  0  0  0  0  0  0  0  0  0  0
   13.4565  -15.2547   17.5653 C   0  0  2  0  0  0  0  0  0  0  0  0
   14.5612  -14.3453   17.5819 N   0  0  0  0  0  0  0  0  0  0  0  0
   12.3294  -14.6394   18.3417 C   0  0  0  0  0  0  0  0  0  0  0  0
   12.5582  -13.8568   19.3025 O   0  0  0  0  0  0  0  0  0  0  0  0
    9.4579  -13.4592   16.2425 N   0  0  0  0  0  0  0  0  0  0  0  0
    8.3863  -14.1968   16.7851 C   0  0  0  0  0  0  0  0  0  0  0  0
    7.3341  -14.3035   16.1099 O   0  0  0  0  0  0  0  0  0  0  0  0
    8.5650  -14.8027   18.1203 C   0  0  0  0  0  0  0  0  0  0  0  0
    9.8745  -14.4060   18.7821 C   0  0  2  0  0  0  0  0  0  0  0  0
   10.9889  -14.9254   18.0110 N   0  0  0  0  0  0  0  0  0  0  0  0
    9.8825  -15.1106   20.1000 C   0  0  0  0  0  0  0  0  0  0  0  0
   10.8136  -15.9817   20.2755 O   0  0  0  0  0  0  0  0  0  0  0  0
    8.9561  -14.8819   21.1335 N   0  0  0  0  0  0  0  0  0  0  0  0
    7.7554  -14.0922   21.0355 C   0  0  0  0  0  0  0  0  0  0  0  0
    7.4016  -13.6887   22.4603 C   0  0  0  0  0  0  0  0  0  0  0  0
    8.6458  -14.1216   23.2484 C   0  0  0  0  0  0  0  0  0  0  0  0
    8.9900  -15.4046   22.4711 C   0  0  1  0  0  0  0  0  0  0  0  0
    7.8289  -16.3463   22.6869 C   0  0  0  0  0  0  0  0  0  0  0  0
    7.7034  -17.0891   23.8358 O   0  0  0  0  0  0  0  0  0  0  0  0
    6.9497  -16.4606   21.7986 O   0  0  0  0  0  0  0  0  0  0  0  0
  1  2  1  0
  3  4  1  1
  3  2  1  0
  3  5  1  0
  5 12  1  0
  5  6  2  0
  8  7  1  0
  8 10  1  0
  9  8  2  0
 11 10  1  6
 11 13  1  0
 12 11  1  0
 13 14  2  0
 13 15  1  0
 15 16  1  0
 16 17  1  0
 18 17  1  0
 19 15  1  0
 19 18  1  0
 19 20  1  6
 21 20  1  0
 22 20  2  0
M  END
$$$$
