SNP.pdb
     RDKit          3D

 22 22  0  0  1  0  0  0  0  0999 V2000
    9.8665  -12.7923   19.9470 O   0  0  0  0  0  0  0  0  0  0  0  0
    9.4993  -14.1214   19.8656 C   0  0  0  0  0  0  0  0  0  0  0  0
    7.9888  -14.2154   19.9618 C   0  0  2  0  0  0  0  0  0  0  0  0
    7.4361  -13.0381   19.3650 N   0  0  0  0  0  0  0  0  0  0  0  0
    7.5715  -14.2523   21.4027 C   0  0  0  0  0  0  0  0  0  0  0  0
    7.1495  -13.2147   21.9800 O   0  0  0  0  0  0  0  0  0  0  0  0
    7.4756  -17.8800   26.1222 N   0  0  0  0  0  0  0  0  0  0  0  0
    6.5666  -17.2065   25.2813 C   0  0  0  0  0  0  0  0  0  0  0  0
    5.4842  -16.8057   25.7737 O   0  0  0  0  0  0  0  0  0  0  0  0
    6.9422  -17.0115   23.8663 C   0  0  0  0  0  0  0  0  0  0  0  0
    7.1543  -15.5507   23.5039 C   0  0  2  0  0  0  0  0  0  0  0  0
    7.6435  -15.4513   22.1412 N   0  0  0  0  0  0  0  0  0  0  0  0
    8.2491  -15.0738   24.4023 C   0  0  0  0  0  0  0  0  0  0  0  0
    9.4499  -15.3671   24.0437 O   0  0  0  0  0  0  0  0  0  0  0  0
    8.0485  -14.3409   25.5861 N   0  0  0  0  0  0  0  0  0  0  0  0
    6.7747  -13.9767   26.1515 C   0  0  0  0  0  0  0  0  0  0  0  0
    7.0437  -12.7821   27.0562 C   0  0  0  0  0  0  0  0  0  0  0  0
    8.4946  -12.4206   26.7089 C   0  0  0  0  0  0  0  0  0  0  0  0
    9.0500  -13.8384   26.4850 C   0  0  1  0  0  0  0  0  0  0  0  0
    8.9467  -14.5414   27.8179 C   0  0  0  0  0  0  0  0  0  0  0  0
    9.8013  -14.2558   28.8550 O   0  0  0  0  0  0  0  0  0  0  0  0
    8.0595  -15.4116   27.9930 O   0  0  0  0  0  0  0  0  0  0  0  0
  1  2  1  0
  3  4  1  1
  3  2  1  0
  3  5  1  0
  5 12  1  0
  5  6  2  0
  8  7  1  0
  8 10  1  0
  9  8  2  0
 11 10  1  1
 11 13  1  0
 12 11  1  0
 13 14  2  0
 13 15  1  0
 15 16  1  0
 16 17  1  0
 18 17  1  0
 19 15  1  0
 19 18  1  0
 19 20  1  1
 21 20  1  0
 22 20  2  0
M  END
$$$$
