SNP.pdb
     RDKit          3D

 22 22  0  0  1  0  0  0  0  0999 V2000
    9.2805  -12.4831   19.4568 O   0  0  0  0  0  0  0  0  0  0  0  0
    9.5167  -13.7681   19.9050 C   0  0  0  0  0  0  0  0  0  0  0  0
    8.2057  -14.5303   19.9098 C   0  0  2  0  0  0  0  0  0  0  0  0
    7.3145  -13.8778   19.0000 N   0  0  0  0  0  0  0  0  0  0  0  0
    7.5952  -14.4851   21.2798 C   0  0  0  0  0  0  0  0  0  0  0  0
    6.5679  -13.7915   21.5068 O   0  0  0  0  0  0  0  0  0  0  0  0
    6.2429  -18.1182   22.2029 N   0  0  0  0  0  0  0  0  0  0  0  0
    6.1389  -17.4325   23.4300 C   0  0  0  0  0  0  0  0  0  0  0  0
    5.0165  -17.3773   23.9883 O   0  0  0  0  0  0  0  0  0  0  0  0
    7.3601  -16.8174   23.9884 C   0  0  0  0  0  0  0  0  0  0  0  0
    7.5019  -15.3471   23.6299 C   0  0  2  0  0  0  0  0  0  0  0  0
    8.1601  -15.2192   22.3428 N   0  0  0  0  0  0  0  0  0  0  0  0
    8.4248  -14.7754   24.6569 C   0  0  0  0  0  0  0  0  0  0  0  0
    9.6804  -14.8067   24.3761 O   0  0  0  0  0  0  0  0  0  0  0  0
    8.0111  -14.2183   25.8805 N   0  0  0  0  0  0  0  0  0  0  0  0
    6.6584  -14.1643   26.3726 C   0  0  0  0  0  0  0  0  0  0  0  0
    6.6295  -13.0383   27.3969 C   0  0  0  0  0  0  0  0  0  0  0  0
    7.9983  -12.3721   27.1989 C   0  0  0  0  0  0  0  0  0  0  0  0
    8.8365  -13.6270   26.8967 C   0  0  1  0  0  0  0  0  0  0  0  0
    8.7938  -14.4682   28.1505 C   0  0  0  0  0  0  0  0  0  0  0  0
    8.0469  -15.6189   28.2250 O   0  0  0  0  0  0  0  0  0  0  0  0
    9.4551  -14.1151   29.1570 O   0  0  0  0  0  0  0  0  0  0  0  0
  1  2  1  0
  3  4  1  6
  3  2  1  0
  3  5  1  0
  5 12  1  0
  5  6  2  0
  8  7  1  0
  8 10  1  0
  9  8  2  0
 11 10  1  1
 11 13  1  0
 12 11  1  0
 13 14  2  0
 13 15  1  0
 15 16  1  0
 16 17  1  0
 18 17  1  0
 19 15  1  0
 19 18  1  0
 19 20  1  1
 21 20  1  0
 22 20  2  0
M  END
$$$$
