SNP.pdb
     RDKit          3D

 22 22  0  0  1  0  0  0  0  0999 V2000
    9.2359  -12.8737   18.7923 O   0  0  0  0  0  0  0  0  0  0  0  0
    8.4485  -13.0046   19.9196 C   0  0  0  0  0  0  0  0  0  0  0  0
    7.9901  -14.4460   20.0282 C   0  0  2  0  0  0  0  0  0  0  0  0
    6.9538  -14.6516   19.0630 N   0  0  0  0  0  0  0  0  0  0  0  0
    7.4184  -14.6973   21.3926 C   0  0  0  0  0  0  0  0  0  0  0  0
    6.2372  -14.3577   21.6709 O   0  0  0  0  0  0  0  0  0  0  0  0
    6.0433  -17.7723   25.6213 N   0  0  0  0  0  0  0  0  0  0  0  0
    7.3927  -17.4384   25.3883 C   0  0  0  0  0  0  0  0  0  0  0  0
    8.1870  -17.4553   26.3596 O   0  0  0  0  0  0  0  0  0  0  0  0
    7.7942  -17.0873   24.0109 C   0  0  0  0  0  0  0  0  0  0  0  0
    7.6664  -15.6019   23.7153 C   0  0  2  0  0  0  0  0  0  0  0  0
    8.1932  -15.3197   22.3928 N   0  0  0  0  0  0  0  0  0  0  0  0
    8.5607  -14.9227   24.7014 C   0  0  0  0  0  0  0  0  0  0  0  0
    9.8214  -14.9541   24.4443 O   0  0  0  0  0  0  0  0  0  0  0  0
    8.1157  -14.2668   25.8635 N   0  0  0  0  0  0  0  0  0  0  0  0
    6.7489  -14.1610   26.3059 C   0  0  0  0  0  0  0  0  0  0  0  0
    6.7017  -12.9574   27.2371 C   0  0  0  0  0  0  0  0  0  0  0  0
    8.0840  -12.3222   27.0317 C   0  0  0  0  0  0  0  0  0  0  0  0
    8.9159  -13.6052   26.8562 C   0  0  1  0  0  0  0  0  0  0  0  0
    8.8236  -14.3444   28.1702 C   0  0  0  0  0  0  0  0  0  0  0  0
    9.6287  -14.0268   29.2373 O   0  0  0  0  0  0  0  0  0  0  0  0
    7.9924  -15.2754   28.3009 O   0  0  0  0  0  0  0  0  0  0  0  0
  1  2  1  0
  3  4  1  6
  3  2  1  0
  3  5  1  0
  5 12  1  0
  5  6  2  0
  8  7  1  0
  8 10  1  0
  9  8  2  0
 11 10  1  1
 11 13  1  0
 12 11  1  0
 13 14  2  0
 13 15  1  0
 15 16  1  0
 16 17  1  0
 18 17  1  0
 19 15  1  0
 19 18  1  0
 19 20  1  1
 21 20  1  0
 22 20  2  0
M  END
$$$$
