SNP.pdb
     RDKit          3D

 22 22  0  0  1  0  0  0  0  0999 V2000
    9.7515  -12.6669   19.1374 O   0  0  0  0  0  0  0  0  0  0  0  0
    8.7546  -12.7180   20.0921 C   0  0  0  0  0  0  0  0  0  0  0  0
    8.0419  -14.0518   19.9803 C   0  0  2  0  0  0  0  0  0  0  0  0
    7.0336  -13.9284   18.9724 N   0  0  0  0  0  0  0  0  0  0  0  0
    7.3690  -14.3803   21.2807 C   0  0  0  0  0  0  0  0  0  0  0  0
    6.2343  -13.9078   21.5586 O   0  0  0  0  0  0  0  0  0  0  0  0
    6.4690  -16.3767   25.9401 N   0  0  0  0  0  0  0  0  0  0  0  0
    6.7974  -17.4056   25.0344 C   0  0  0  0  0  0  0  0  0  0  0  0
    6.6567  -18.5953   25.4078 O   0  0  0  0  0  0  0  0  0  0  0  0
    7.2891  -17.0225   23.6954 C   0  0  0  0  0  0  0  0  0  0  0  0
    7.4022  -15.5178   23.5123 C   0  0  2  0  0  0  0  0  0  0  0  0
    7.9944  -15.2260   22.2198 N   0  0  0  0  0  0  0  0  0  0  0  0
    8.3712  -15.0628   24.5551 C   0  0  0  0  0  0  0  0  0  0  0  0
    9.6021  -15.3909   24.3720 O   0  0  0  0  0  0  0  0  0  0  0  0
    8.0248  -14.3150   25.6950 N   0  0  0  0  0  0  0  0  0  0  0  0
    6.6883  -13.9757   26.1118 C   0  0  0  0  0  0  0  0  0  0  0  0
    6.8274  -12.7586   27.0159 C   0  0  0  0  0  0  0  0  0  0  0  0
    8.2980  -12.3640   26.8203 C   0  0  0  0  0  0  0  0  0  0  0  0
    8.9097  -13.7699   26.6867 C   0  0  1  0  0  0  0  0  0  0  0  0
    8.6798  -14.4520   28.0146 C   0  0  0  0  0  0  0  0  0  0  0  0
    7.7721  -15.4736   28.1558 O   0  0  0  0  0  0  0  0  0  0  0  0
    9.3305  -14.0830   29.0222 O   0  0  0  0  0  0  0  0  0  0  0  0
  1  2  1  0
  3  4  1  6
  3  2  1  0
  3  5  1  0
  5 12  1  0
  5  6  2  0
  8  7  1  0
  8 10  1  0
  9  8  2  0
 11 10  1  6
 11 13  1  0
 12 11  1  0
 13 14  2  0
 13 15  1  0
 15 16  1  0
 16 17  1  0
 18 17  1  0
 19 15  1  0
 19 18  1  0
 19 20  1  1
 21 20  1  0
 22 20  2  0
M  END
$$$$
