SNP.pdb
     RDKit          3D

 22 22  0  0  1  0  0  0  0  0999 V2000
    9.0927  -15.9930   13.1560 O   0  0  0  0  0  0  0  0  0  0  0  0
    9.4962  -16.6762   14.2865 C   0  0  0  0  0  0  0  0  0  0  0  0
    8.4616  -17.7370   14.6091 C   0  0  2  0  0  0  0  0  0  0  0  0
    7.5196  -17.7740   13.5326 N   0  0  0  0  0  0  0  0  0  0  0  0
    7.7271  -17.3670   15.8642 C   0  0  0  0  0  0  0  0  0  0  0  0
    6.5167  -17.0182   15.8256 O   0  0  0  0  0  0  0  0  0  0  0  0
    7.2238  -18.4433   21.5491 N   0  0  0  0  0  0  0  0  0  0  0  0
    6.5822  -18.1431   20.3305 C   0  0  0  0  0  0  0  0  0  0  0  0
    5.4113  -17.6934   20.3687 O   0  0  0  0  0  0  0  0  0  0  0  0
    7.3272  -18.3760   19.0767 C   0  0  0  0  0  0  0  0  0  0  0  0
    7.6898  -17.0892   18.3534 C   0  0  2  0  0  0  0  0  0  0  0  0
    8.3778  -17.4022   17.1145 N   0  0  0  0  0  0  0  0  0  0  0  0
    8.6723  -16.3978   19.2421 C   0  0  0  0  0  0  0  0  0  0  0  0
    9.9147  -16.6606   19.0324 O   0  0  0  0  0  0  0  0  0  0  0  0
    8.3269  -15.4985   20.2671 N   0  0  0  0  0  0  0  0  0  0  0  0
    6.9959  -15.2364   20.7514 C   0  0  0  0  0  0  0  0  0  0  0  0
    7.0537  -13.8684   21.4170 C   0  0  0  0  0  0  0  0  0  0  0  0
    8.4437  -13.3585   21.0114 C   0  0  0  0  0  0  0  0  0  0  0  0
    9.2130  -14.6907   21.0584 C   0  0  1  0  0  0  0  0  0  0  0  0
    9.1754  -15.1427   22.4991 C   0  0  0  0  0  0  0  0  0  0  0  0
    9.9936  -14.5880   23.4532 O   0  0  0  0  0  0  0  0  0  0  0  0
    8.3788  -16.0490   22.8442 O   0  0  0  0  0  0  0  0  0  0  0  0
  1  2  1  0
  3  4  1  6
  3  2  1  0
  3  5  1  0
  5 12  1  0
  5  6  2  0
  8  7  1  0
  8 10  1  0
  9  8  2  0
 11 10  1  1
 11 13  1  0
 12 11  1  0
 13 14  2  0
 13 15  1  0
 15 16  1  0
 16 17  1  0
 18 17  1  0
 19 15  1  0
 19 18  1  0
 19 20  1  1
 21 20  1  0
 22 20  2  0
M  END
$$$$
