SNP.pdb
     RDKit          3D

 22 22  0  0  1  0  0  0  0  0999 V2000
   10.5218  -13.2497   20.3459 O   0  0  0  0  0  0  0  0  0  0  0  0
   10.0407  -14.4493   19.8586 C   0  0  0  0  0  0  0  0  0  0  0  0
    8.5268  -14.3808   19.8058 C   0  0  2  0  0  0  0  0  0  0  0  0
    8.1644  -13.1602   19.1526 N   0  0  0  0  0  0  0  0  0  0  0  0
    7.9693  -14.3521   21.1986 C   0  0  0  0  0  0  0  0  0  0  0  0
    7.6161  -13.2660   21.7311 O   0  0  0  0  0  0  0  0  0  0  0  0
    6.5967  -18.6426   21.8189 N   0  0  0  0  0  0  0  0  0  0  0  0
    6.0228  -17.7064   22.7027 C   0  0  0  0  0  0  0  0  0  0  0  0
    4.7845  -17.5119   22.6427 O   0  0  0  0  0  0  0  0  0  0  0  0
    6.9145  -17.0073   23.6500 C   0  0  0  0  0  0  0  0  0  0  0  0
    7.1981  -15.5692   23.2478 C   0  0  2  0  0  0  0  0  0  0  0  0
    7.8293  -15.5426   21.9412 N   0  0  0  0  0  0  0  0  0  0  0  0
    8.2043  -15.0722   24.2347 C   0  0  0  0  0  0  0  0  0  0  0  0
    9.4411  -15.2051   23.9046 O   0  0  0  0  0  0  0  0  0  0  0  0
    7.8859  -14.4814   25.4710 N   0  0  0  0  0  0  0  0  0  0  0  0
    6.5643  -14.3361   26.0252 C   0  0  0  0  0  0  0  0  0  0  0  0
    6.6570  -13.2040   27.0390 C   0  0  0  0  0  0  0  0  0  0  0  0
    8.0553  -12.6299   26.7710 C   0  0  0  0  0  0  0  0  0  0  0  0
    8.7950  -13.9388   26.4419 C   0  0  1  0  0  0  0  0  0  0  0  0
    8.7571  -14.7673   27.7042 C   0  0  0  0  0  0  0  0  0  0  0  0
    7.9340  -15.8604   27.8280 O   0  0  0  0  0  0  0  0  0  0  0  0
    9.4936  -14.4573   28.6719 O   0  0  0  0  0  0  0  0  0  0  0  0
  1  2  1  0
  3  4  1  6
  3  2  1  0
  3  5  1  0
  5 12  1  0
  5  6  2  0
  8  7  1  0
  8 10  1  0
  9  8  2  0
 11 10  1  1
 11 13  1  0
 12 11  1  0
 13 14  2  0
 13 15  1  0
 15 16  1  0
 16 17  1  0
 18 17  1  0
 19 15  1  0
 19 18  1  0
 19 20  1  1
 21 20  1  0
 22 20  2  0
M  END
$$$$
