SNP.pdb
     RDKit          3D

 22 22  0  0  1  0  0  0  0  0999 V2000
    9.5635  -15.9519   18.6183 O   0  0  0  0  0  0  0  0  0  0  0  0
    9.2939  -15.6806   19.9455 C   0  0  0  0  0  0  0  0  0  0  0  0
    8.2991  -16.7036   20.4588 C   0  0  2  0  0  0  0  0  0  0  0  0
    7.3367  -16.9375   19.4260 N   0  0  0  0  0  0  0  0  0  0  0  0
    7.5796  -16.1577   21.6571 C   0  0  0  0  0  0  0  0  0  0  0  0
    6.5926  -15.3860   21.5221 O   0  0  0  0  0  0  0  0  0  0  0  0
    5.8747  -18.1550   23.1201 N   0  0  0  0  0  0  0  0  0  0  0  0
    6.2710  -18.3024   24.4648 C   0  0  0  0  0  0  0  0  0  0  0  0
    5.9427  -19.3509   25.0711 O   0  0  0  0  0  0  0  0  0  0  0  0
    7.0514  -17.2115   25.0831 C   0  0  0  0  0  0  0  0  0  0  0  0
    7.2854  -16.0412   24.1420 C   0  0  2  0  0  0  0  0  0  0  0  0
    7.9945  -16.4979   22.9610 N   0  0  0  0  0  0  0  0  0  0  0  0
    8.2011  -15.1173   24.8776 C   0  0  0  0  0  0  0  0  0  0  0  0
    9.4297  -15.1071   24.4943 O   0  0  0  0  0  0  0  0  0  0  0  0
    7.8079  -14.2789   25.9365 N   0  0  0  0  0  0  0  0  0  0  0  0
    6.5188  -14.2737   26.5792 C   0  0  0  0  0  0  0  0  0  0  0  0
    6.3812  -12.9051   27.2318 C   0  0  0  0  0  0  0  0  0  0  0  0
    7.5830  -12.1403   26.6595 C   0  0  0  0  0  0  0  0  0  0  0  0
    8.6027  -13.2921   26.6133 C   0  0  1  0  0  0  0  0  0  0  0  0
    8.8283  -13.7065   28.0482 C   0  0  0  0  0  0  0  0  0  0  0  0
    8.3192  -14.8791   28.5514 O   0  0  0  0  0  0  0  0  0  0  0  0
    9.4975  -12.9665   28.8095 O   0  0  0  0  0  0  0  0  0  0  0  0
  1  2  1  0
  3  4  1  6
  3  2  1  0
  3  5  1  0
  5 12  1  0
  5  6  2  0
  8  7  1  0
  8 10  1  0
  9  8  2  0
 11 10  1  1
 11 13  1  0
 12 11  1  0
 13 14  2  0
 13 15  1  0
 15 16  1  0
 16 17  1  0
 18 17  1  0
 19 15  1  0
 19 18  1  0
 19 20  1  1
 21 20  1  0
 22 20  2  0
M  END
$$$$
