SNP.pdb
     RDKit          3D

 22 22  0  0  1  0  0  0  0  0999 V2000
   10.9731  -16.4394   13.1113 O   0  0  0  0  0  0  0  0  0  0  0  0
    9.8986  -16.0556   13.8899 C   0  0  0  0  0  0  0  0  0  0  0  0
    9.3481  -17.2793   14.5963 C   0  0  2  0  0  0  0  0  0  0  0  0
    8.5506  -18.0074   13.6573 N   0  0  0  0  0  0  0  0  0  0  0  0
    8.4659  -16.8567   15.7342 C   0  0  0  0  0  0  0  0  0  0  0  0
    7.4184  -16.1879   15.5259 O   0  0  0  0  0  0  0  0  0  0  0  0
    7.0374  -20.0478   17.8017 N   0  0  0  0  0  0  0  0  0  0  0  0
    6.5955  -18.8332   18.3642 C   0  0  0  0  0  0  0  0  0  0  0  0
    5.3782  -18.5425   18.2731 O   0  0  0  0  0  0  0  0  0  0  0  0
    7.5935  -17.9715   19.0296 C   0  0  0  0  0  0  0  0  0  0  0  0
    7.9909  -16.7669   18.1921 C   0  0  2  0  0  0  0  0  0  0  0  0
    8.7922  -17.2002   17.0623 N   0  0  0  0  0  0  0  0  0  0  0  0
    8.8762  -15.9460   19.0728 C   0  0  0  0  0  0  0  0  0  0  0  0
   10.1435  -16.0818   18.8935 O   0  0  0  0  0  0  0  0  0  0  0  0
    8.4165  -15.0554   20.0598 N   0  0  0  0  0  0  0  0  0  0  0  0
    7.0445  -14.8618   20.4536 C   0  0  0  0  0  0  0  0  0  0  0  0
    6.9844  -13.4851   21.1009 C   0  0  0  0  0  0  0  0  0  0  0  0
    8.3680  -12.9038   20.7778 C   0  0  0  0  0  0  0  0  0  0  0  0
    9.2040  -14.1908   20.8941 C   0  0  1  0  0  0  0  0  0  0  0  0
    9.0975  -14.6277   22.3361 C   0  0  0  0  0  0  0  0  0  0  0  0
    9.9257  -14.1218   23.3086 O   0  0  0  0  0  0  0  0  0  0  0  0
    8.2324  -15.4753   22.6651 O   0  0  0  0  0  0  0  0  0  0  0  0
  1  2  1  0
  3  4  1  6
  3  2  1  0
  3  5  1  0
  5 12  1  0
  5  6  2  0
  8  7  1  0
  8 10  1  0
  9  8  2  0
 11 10  1  1
 11 13  1  0
 12 11  1  0
 13 14  2  0
 13 15  1  0
 15 16  1  0
 16 17  1  0
 18 17  1  0
 19 15  1  0
 19 18  1  0
 19 20  1  1
 21 20  1  0
 22 20  2  0
M  END
$$$$
