SLC.pdb
     RDKit          3D

 21 20  0  0  1  0  0  0  0  0999 V2000
   20.5202  -13.8848  -19.6530 O   0  0  0  0  0  0  0  0  0  0  0  0
   20.7049  -12.9713  -18.6492 C   0  0  0  0  0  0  0  0  0  0  0  0
   22.0872  -13.1544  -18.0521 C   0  0  2  0  0  0  0  0  0  0  0  0
   22.1592  -14.4630  -17.3739 N   0  0  0  0  0  0  0  0  0  0  0  0
   22.4006  -12.1499  -17.0089 C   0  0  0  0  0  0  0  0  0  0  0  0
   21.9387  -12.1975  -15.8351 O   0  0  0  0  0  0  0  0  0  0  0  0
   27.4211  -10.0041  -16.6242 C   0  0  0  0  0  0  0  0  0  0  0  0
   26.0573  -10.5761  -16.3041 C   0  0  1  0  0  0  0  0  0  0  0  0
   26.0500  -10.7710  -14.7773 C   0  0  0  0  0  0  0  0  0  0  0  0
   24.9768   -9.6246  -16.6630 C   0  0  0  0  0  0  0  0  0  0  0  0
   23.5754  -10.0151  -16.3565 C   0  0  2  0  0  0  0  0  0  0  0  0
   23.2507  -11.0843  -17.3167 N   0  0  0  0  0  0  0  0  0  0  0  0
   22.5501   -8.9879  -16.5204 C   0  0  0  0  0  0  0  0  0  0  0  0
   22.2574   -8.5413  -17.6587 O   0  0  0  0  0  0  0  0  0  0  0  0
   21.8312   -8.4397  -15.4341 N   0  0  0  0  0  0  0  0  0  0  0  0
   20.7680   -7.4578  -15.6278 C   0  0  1  0  0  0  0  0  0  0  0  0
   19.6837   -7.6412  -14.5663 C   0  0  0  0  0  0  0  0  0  0  0  0
   19.0170   -9.3176  -14.6835 S   0  0  0  0  0  0  0  0  0  0  0  0
   21.3186   -6.0811  -15.5510 C   0  0  0  0  0  0  0  0  0  0  0  0
   22.5289   -5.9383  -15.2773 O   0  0  0  0  0  0  0  0  0  0  0  0
   20.5234   -4.9670  -15.7747 O   0  0  0  0  0  0  0  0  0  0  0  0
  2  1  1  0
  3  2  1  0
  3  4  1  1
  5  3  1  0
  6  5  2  0
  8  9  1  1
  8  7  1  0
 10  8  1  0
 11 10  1  6
 11 13  1  0
 11 12  1  0
 12  5  1  0
 13 15  1  0
 14 13  2  0
 15 16  1  0
 16 19  1  0
 16 17  1  1
 18 17  1  0
 19 21  1  0
 20 19  2  0
M  END
$$$$
