SLC.pdb
     RDKit          3D

 21 20  0  0  1  0  0  0  0  0999 V2000
   20.0453   -9.6910  -21.7653 O   0  0  0  0  0  0  0  0  0  0  0  0
   20.2777   -9.2305  -20.4965 C   0  0  0  0  0  0  0  0  0  0  0  0
   20.4706  -10.4096  -19.5620 C   0  0  2  0  0  0  0  0  0  0  0  0
   19.2081  -11.1671  -19.4611 N   0  0  0  0  0  0  0  0  0  0  0  0
   20.7972   -9.9979  -18.1766 C   0  0  0  0  0  0  0  0  0  0  0  0
   19.9244   -9.7707  -17.2934 O   0  0  0  0  0  0  0  0  0  0  0  0
   25.1929  -12.1133  -15.7110 C   0  0  0  0  0  0  0  0  0  0  0  0
   23.7990  -11.5519  -15.8893 C   0  0  1  0  0  0  0  0  0  0  0  0
   23.1106  -11.7411  -14.5256 C   0  0  0  0  0  0  0  0  0  0  0  0
   23.8387  -10.1015  -16.2002 C   0  0  0  0  0  0  0  0  0  0  0  0
   22.5484   -9.4098  -16.4589 C   0  0  2  0  0  0  0  0  0  0  0  0
   22.1356   -9.8469  -17.8039 N   0  0  0  0  0  0  0  0  0  0  0  0
   22.5735   -7.9498  -16.4892 C   0  0  0  0  0  0  0  0  0  0  0  0
   23.0969   -7.3311  -17.4505 O   0  0  0  0  0  0  0  0  0  0  0  0
   22.0209   -7.1504  -15.4629 N   0  0  0  0  0  0  0  0  0  0  0  0
   21.9904   -5.6932  -15.5502 C   0  0  1  0  0  0  0  0  0  0  0  0
   20.6472   -5.2286  -16.1124 C   0  0  0  0  0  0  0  0  0  0  0  0
   19.3155   -5.8646  -15.0680 S   0  0  0  0  0  0  0  0  0  0  0  0
   22.2089   -5.0926  -14.2101 C   0  0  0  0  0  0  0  0  0  0  0  0
   22.3073   -5.8544  -13.2251 O   0  0  0  0  0  0  0  0  0  0  0  0
   22.3042   -3.7200  -14.0358 O   0  0  0  0  0  0  0  0  0  0  0  0
  2  1  1  0
  3  2  1  0
  3  4  1  1
  5  3  1  0
  6  5  2  0
  8  9  1  1
  8  7  1  0
 10  8  1  0
 11 10  1  6
 11 13  1  0
 11 12  1  0
 12  5  1  0
 13 15  1  0
 14 13  2  0
 15 16  1  0
 16 19  1  0
 16 17  1  1
 18 17  1  0
 19 21  1  0
 20 19  2  0
M  END
$$$$
