SLC.pdb
     RDKit          3D

 21 20  0  0  1  0  0  0  0  0999 V2000
   18.0833  -12.1069  -18.9476 O   0  0  0  0  0  0  0  0  0  0  0  0
   18.7353  -11.3533  -18.0080 C   0  0  0  0  0  0  0  0  0  0  0  0
   19.8363  -12.1828  -17.3750 C   0  0  2  0  0  0  0  0  0  0  0  0
   19.2392  -13.3309  -16.6656 N   0  0  0  0  0  0  0  0  0  0  0  0
   20.6003  -11.4365  -16.3479 C   0  0  0  0  0  0  0  0  0  0  0  0
   20.2038  -11.2836  -15.1593 O   0  0  0  0  0  0  0  0  0  0  0  0
   26.4421  -10.6191  -15.3707 C   0  0  0  0  0  0  0  0  0  0  0  0
   25.1048   -9.9642  -15.1014 C   0  0  1  0  0  0  0  0  0  0  0  0
   25.3012   -8.4816  -15.4656 C   0  0  0  0  0  0  0  0  0  0  0  0
   24.0444  -10.5274  -15.9732 C   0  0  0  0  0  0  0  0  0  0  0  0
   22.6435  -10.0895  -15.7365 C   0  0  2  0  0  0  0  0  0  0  0  0
   21.8281  -10.8628  -16.6892 N   0  0  0  0  0  0  0  0  0  0  0  0
   22.3389   -8.6820  -15.9803 C   0  0  0  0  0  0  0  0  0  0  0  0
   22.4632   -8.1819  -17.1272 O   0  0  0  0  0  0  0  0  0  0  0  0
   21.8910   -7.8059  -14.9657 N   0  0  0  0  0  0  0  0  0  0  0  0
   21.5038   -6.4272  -15.2507 C   0  0  1  0  0  0  0  0  0  0  0  0
   20.0738   -6.1740  -14.7740 C   0  0  0  0  0  0  0  0  0  0  0  0
   18.9617   -7.3441  -15.5880 S   0  0  0  0  0  0  0  0  0  0  0  0
   22.4318   -5.4826  -14.5792 C   0  0  0  0  0  0  0  0  0  0  0  0
   23.2088   -5.9288  -13.7089 O   0  0  0  0  0  0  0  0  0  0  0  0
   22.4505   -4.1328  -14.8973 O   0  0  0  0  0  0  0  0  0  0  0  0
  2  1  1  0
  3  2  1  0
  3  4  1  1
  5  3  1  0
  6  5  2  0
  8  9  1  6
  8  7  1  0
 10  8  1  0
 11 10  1  6
 11 13  1  0
 11 12  1  0
 12  5  1  0
 13 15  1  0
 14 13  2  0
 15 16  1  0
 16 19  1  0
 16 17  1  1
 18 17  1  0
 19 21  1  0
 20 19  2  0
M  END
$$$$
