SLC.pdb
     RDKit          3D

 21 20  0  0  1  0  0  0  0  0999 V2000
   20.0804  -10.8765  -21.6940 O   0  0  0  0  0  0  0  0  0  0  0  0
   20.2480  -10.4251  -20.4118 C   0  0  0  0  0  0  0  0  0  0  0  0
   21.0145  -11.4607  -19.6112 C   0  0  2  0  0  0  0  0  0  0  0  0
   20.1320  -12.6069  -19.3197 N   0  0  0  0  0  0  0  0  0  0  0  0
   21.4562  -10.9549  -18.2904 C   0  0  0  0  0  0  0  0  0  0  0  0
   20.7203  -10.9502  -17.2648 O   0  0  0  0  0  0  0  0  0  0  0  0
   25.1806  -10.4481  -14.4384 C   0  0  0  0  0  0  0  0  0  0  0  0
   25.5422   -9.7646  -15.7391 C   0  0  1  0  0  0  0  0  0  0  0  0
   27.0097  -10.1477  -16.0016 C   0  0  0  0  0  0  0  0  0  0  0  0
   24.7146  -10.2713  -16.8616 C   0  0  0  0  0  0  0  0  0  0  0  0
   23.2698   -9.9213  -16.8742 C   0  0  2  0  0  0  0  0  0  0  0  0
   22.7522  -10.4519  -18.1474 N   0  0  0  0  0  0  0  0  0  0  0  0
   22.9317   -8.5006  -16.8515 C   0  0  0  0  0  0  0  0  0  0  0  0
   23.1318   -7.7713  -17.8561 O   0  0  0  0  0  0  0  0  0  0  0  0
   22.3667   -7.8631  -15.7237 N   0  0  0  0  0  0  0  0  0  0  0  0
   22.0921   -6.4292  -15.7033 C   0  0  1  0  0  0  0  0  0  0  0  0
   20.5907   -6.1798  -15.8439 C   0  0  0  0  0  0  0  0  0  0  0  0
   20.2380   -4.4502  -15.4531 S   0  0  0  0  0  0  0  0  0  0  0  0
   22.5848   -5.8287  -14.4380 C   0  0  0  0  0  0  0  0  0  0  0  0
   22.6062   -6.5389  -13.4106 O   0  0  0  0  0  0  0  0  0  0  0  0
   23.0155   -4.5118  -14.3781 O   0  0  0  0  0  0  0  0  0  0  0  0
  2  1  1  0
  3  2  1  0
  3  4  1  1
  5  3  1  0
  6  5  2  0
  8  9  1  6
  8  7  1  0
 10  8  1  0
 11 10  1  6
 11 13  1  0
 11 12  1  0
 12  5  1  0
 13 15  1  0
 14 13  2  0
 15 16  1  0
 16 19  1  0
 16 17  1  1
 18 17  1  0
 19 21  1  0
 20 19  2  0
M  END
$$$$
