SLC.pdb
     RDKit          3D

 21 20  0  0  1  0  0  0  0  0999 V2000
   17.7941  -10.1764  -14.0131 O   0  0  0  0  0  0  0  0  0  0  0  0
   18.1236  -10.5321  -12.7321 C   0  0  0  0  0  0  0  0  0  0  0  0
   16.8553  -10.7799  -11.9379 C   0  0  2  0  0  0  0  0  0  0  0  0
   15.9443  -11.6353  -12.7228 N   0  0  0  0  0  0  0  0  0  0  0  0
   16.0954   -9.5373  -11.6654 C   0  0  0  0  0  0  0  0  0  0  0  0
   15.2671   -9.0359  -12.4752 O   0  0  0  0  0  0  0  0  0  0  0  0
   13.3796   -6.3093   -8.3812 C   0  0  0  0  0  0  0  0  0  0  0  0
   14.8456   -6.4061   -8.0191 C   0  0  1  0  0  0  0  0  0  0  0  0
   14.8720   -6.5957   -6.4918 C   0  0  0  0  0  0  0  0  0  0  0  0
   15.4794   -7.5890   -8.6521 C   0  0  0  0  0  0  0  0  0  0  0  0
   15.6292   -7.5901  -10.1312 C   0  0  2  0  0  0  0  0  0  0  0  0
   16.2886   -8.8674  -10.4544 N   0  0  0  0  0  0  0  0  0  0  0  0
   16.4585   -6.5386  -10.7142 C   0  0  0  0  0  0  0  0  0  0  0  0
   17.6765   -6.7345  -10.9570 O   0  0  0  0  0  0  0  0  0  0  0  0
   15.9582   -5.2576  -11.0402 N   0  0  0  0  0  0  0  0  0  0  0  0
   16.7405   -4.2958  -11.8115 C   0  0  1  0  0  0  0  0  0  0  0  0
   17.0662   -4.8691  -13.1905 C   0  0  0  0  0  0  0  0  0  0  0  0
   17.8450   -3.5852  -14.1974 S   0  0  0  0  0  0  0  0  0  0  0  0
   15.9898   -3.0236  -11.9609 C   0  0  0  0  0  0  0  0  0  0  0  0
   14.7583   -3.0790  -12.1626 O   0  0  0  0  0  0  0  0  0  0  0  0
   16.6233   -1.7925  -11.8814 O   0  0  0  0  0  0  0  0  0  0  0  0
  2  1  1  0
  3  2  1  0
  3  4  1  6
  5  3  1  0
  6  5  2  0
  8  9  1  1
  8  7  1  0
 10  8  1  0
 11 10  1  1
 11 13  1  0
 11 12  1  0
 12  5  1  0
 13 15  1  0
 14 13  2  0
 15 16  1  0
 16 19  1  0
 16 17  1  6
 18 17  1  0
 19 21  1  0
 20 19  2  0
M  END
$$$$
