SLC.pdb
     RDKit          3D

 21 20  0  0  1  0  0  0  0  0999 V2000
   18.2223  -11.6826  -14.2756 O   0  0  0  0  0  0  0  0  0  0  0  0
   17.8576  -12.3045  -13.1110 C   0  0  0  0  0  0  0  0  0  0  0  0
   16.3925  -12.6902  -13.1853 C   0  0  2  0  0  0  0  0  0  0  0  0
   16.1292  -13.3720  -14.4674 N   0  0  0  0  0  0  0  0  0  0  0  0
   15.4874  -11.5171  -13.1674 C   0  0  0  0  0  0  0  0  0  0  0  0
   15.0310  -10.9736  -14.2113 O   0  0  0  0  0  0  0  0  0  0  0  0
   11.3503   -8.8845  -11.0679 C   0  0  0  0  0  0  0  0  0  0  0  0
   12.5486   -8.8904  -10.1439 C   0  0  1  0  0  0  0  0  0  0  0  0
   11.9847   -9.2382   -8.7545 C   0  0  0  0  0  0  0  0  0  0  0  0
   13.5233   -9.9393  -10.5331 C   0  0  0  0  0  0  0  0  0  0  0  0
   14.2286   -9.7859  -11.8328 C   0  0  2  0  0  0  0  0  0  0  0  0
   15.1041  -10.9658  -11.9418 N   0  0  0  0  0  0  0  0  0  0  0  0
   15.0909   -8.6169  -11.9851 C   0  0  0  0  0  0  0  0  0  0  0  0
   16.2791   -8.6309  -11.5741 O   0  0  0  0  0  0  0  0  0  0  0  0
   14.6582   -7.4170  -12.5938 N   0  0  0  0  0  0  0  0  0  0  0  0
   15.5825   -6.3291  -12.9008 C   0  0  1  0  0  0  0  0  0  0  0  0
   16.6337   -6.8008  -13.9051 C   0  0  0  0  0  0  0  0  0  0  0  0
   17.6658   -5.3965  -14.3863 S   0  0  0  0  0  0  0  0  0  0  0  0
   14.8436   -5.1669  -13.4554 C   0  0  0  0  0  0  0  0  0  0  0  0
   13.9112   -5.3821  -14.2582 O   0  0  0  0  0  0  0  0  0  0  0  0
   15.1663   -3.8651  -13.1023 O   0  0  0  0  0  0  0  0  0  0  0  0
  2  1  1  0
  3  2  1  0
  3  4  1  6
  5  3  1  0
  6  5  2  0
  8  9  1  1
  8  7  1  0
 10  8  1  0
 11 10  1  1
 11 13  1  0
 11 12  1  0
 12  5  1  0
 13 15  1  0
 14 13  2  0
 15 16  1  0
 16 19  1  0
 16 17  1  6
 18 17  1  0
 19 21  1  0
 20 19  2  0
M  END
$$$$
