SLC.pdb
     RDKit          3D

 21 20  0  0  1  0  0  0  0  0999 V2000
   30.5618  -23.2233  -22.3791 O   0  0  0  0  0  0  0  0  0  0  0  0
   31.0545  -22.5713  -21.2800 C   0  0  0  0  0  0  0  0  0  0  0  0
   32.3586  -23.2189  -20.8549 C   0  0  2  0  0  0  0  0  0  0  0  0
   33.0597  -23.7375  -22.0455 N   0  0  0  0  0  0  0  0  0  0  0  0
   32.1573  -24.3916  -19.9719 C   0  0  0  0  0  0  0  0  0  0  0  0
   32.1198  -25.5814  -20.3919 O   0  0  0  0  0  0  0  0  0  0  0  0
   33.7401  -26.7680  -15.6322 C   0  0  0  0  0  0  0  0  0  0  0  0
   32.6102  -25.8226  -15.2867 C   0  0  1  0  0  0  0  0  0  0  0  0
   33.0780  -25.0800  -14.0223 C   0  0  0  0  0  0  0  0  0  0  0  0
   32.3928  -24.8268  -16.3650 C   0  0  0  0  0  0  0  0  0  0  0  0
   31.8094  -25.3046  -17.6463 C   0  0  2  0  0  0  0  0  0  0  0  0
   31.9985  -24.1954  -18.5974 N   0  0  0  0  0  0  0  0  0  0  0  0
   30.3816  -25.6126  -17.6503 C   0  0  0  0  0  0  0  0  0  0  0  0
   29.5218  -24.6963  -17.6961 O   0  0  0  0  0  0  0  0  0  0  0  0
   29.8804  -26.9333  -17.6065 N   0  0  0  0  0  0  0  0  0  0  0  0
   28.4483  -27.2174  -17.6262 C   0  0  1  0  0  0  0  0  0  0  0  0
   28.2045  -28.6568  -18.0790 C   0  0  0  0  0  0  0  0  0  0  0  0
   26.4565  -29.0606  -17.8550 S   0  0  0  0  0  0  0  0  0  0  0  0
   27.8637  -27.0092  -16.2774 C   0  0  0  0  0  0  0  0  0  0  0  0
   28.4938  -27.4291  -15.2840 O   0  0  0  0  0  0  0  0  0  0  0  0
   26.6474  -26.3657  -16.1042 O   0  0  0  0  0  0  0  0  0  0  0  0
  2  1  1  0
  3  2  1  0
  3  4  1  6
  5  3  1  0
  6  5  2  0
  8  9  1  1
  8  7  1  0
 10  8  1  0
 11 10  1  1
 11 13  1  0
 11 12  1  0
 12  5  1  0
 13 15  1  0
 14 13  2  0
 15 16  1  0
 16 19  1  0
 16 17  1  1
 18 17  1  0
 19 21  1  0
 20 19  2  0
M  END
$$$$
