SLC.pdb
     RDKit          3D

 21 20  0  0  1  0  0  0  0  0999 V2000
   16.4389  -10.9576  -14.6723 O   0  0  0  0  0  0  0  0  0  0  0  0
   17.2400   -9.8471  -14.7066 C   0  0  0  0  0  0  0  0  0  0  0  0
   17.6315   -9.5548  -16.1426 C   0  0  2  0  0  0  0  0  0  0  0  0
   18.5249  -10.6215  -16.6343 N   0  0  0  0  0  0  0  0  0  0  0  0
   18.4017   -8.2968  -16.2838 C   0  0  0  0  0  0  0  0  0  0  0  0
   19.6615   -8.2553  -16.3508 O   0  0  0  0  0  0  0  0  0  0  0  0
   18.7069   -3.4210  -18.5589 C   0  0  0  0  0  0  0  0  0  0  0  0
   17.7401   -3.4771  -17.3961 C   0  0  1  0  0  0  0  0  0  0  0  0
   16.4905   -2.7157  -17.8736 C   0  0  0  0  0  0  0  0  0  0  0  0
   17.3508   -4.8751  -17.0868 C   0  0  0  0  0  0  0  0  0  0  0  0
   18.3995   -5.7899  -16.5636 C   0  0  2  0  0  0  0  0  0  0  0  0
   17.7192   -7.0790  -16.3492 N   0  0  0  0  0  0  0  0  0  0  0  0
   19.0158   -5.4315  -15.2888 C   0  0  0  0  0  0  0  0  0  0  0  0
   18.3370   -5.3874  -14.2313 O   0  0  0  0  0  0  0  0  0  0  0  0
   20.3881   -5.1190  -15.1598 N   0  0  0  0  0  0  0  0  0  0  0  0
   20.9915   -4.8074  -13.8672 C   0  0  1  0  0  0  0  0  0  0  0  0
   21.9490   -5.9239  -13.4516 C   0  0  0  0  0  0  0  0  0  0  0  0
   23.0033   -6.3539  -14.8560 S   0  0  0  0  0  0  0  0  0  0  0  0
   21.7240   -3.5180  -13.9386 C   0  0  0  0  0  0  0  0  0  0  0  0
   21.7988   -2.9359  -15.0412 O   0  0  0  0  0  0  0  0  0  0  0  0
   22.3180   -2.9569  -12.8180 O   0  0  0  0  0  0  0  0  0  0  0  0
  2  1  1  0
  3  2  1  0
  3  4  1  1
  5  3  1  0
  6  5  2  0
  8  9  1  6
  8  7  1  0
 10  8  1  0
 11 10  1  1
 11 13  1  0
 11 12  1  0
 12  5  1  0
 13 15  1  0
 14 13  2  0
 15 16  1  0
 16 19  1  0
 16 17  1  6
 18 17  1  0
 19 21  1  0
 20 19  2  0
M  END
$$$$
