SLC.pdb
     RDKit          3D

 21 20  0  0  1  0  0  0  0  0999 V2000
   15.4566   -9.1599  -18.6234 O   0  0  0  0  0  0  0  0  0  0  0  0
   16.4612   -8.8283  -17.7534 C   0  0  0  0  0  0  0  0  0  0  0  0
   16.9424  -10.0786  -17.0422 C   0  0  2  0  0  0  0  0  0  0  0  0
   15.8068  -10.7156  -16.3476 N   0  0  0  0  0  0  0  0  0  0  0  0
   17.9415   -9.7912  -15.9865 C   0  0  0  0  0  0  0  0  0  0  0  0
   17.6599   -9.7372  -14.7571 O   0  0  0  0  0  0  0  0  0  0  0  0
   23.5123  -11.2940  -14.8860 C   0  0  0  0  0  0  0  0  0  0  0  0
   22.5031  -10.2133  -14.5646 C   0  0  1  0  0  0  0  0  0  0  0  0
   23.2772   -8.8887  -14.6890 C   0  0  0  0  0  0  0  0  0  0  0  0
   21.3923  -10.2043  -15.5483 C   0  0  0  0  0  0  0  0  0  0  0  0
   20.3144   -9.1958  -15.3716 C   0  0  2  0  0  0  0  0  0  0  0  0
   19.2729   -9.5648  -16.3460 N   0  0  0  0  0  0  0  0  0  0  0  0
   20.6590   -7.8028  -15.6437 C   0  0  0  0  0  0  0  0  0  0  0  0
   20.9243   -7.4176  -16.8108 O   0  0  0  0  0  0  0  0  0  0  0  0
   20.7141   -6.8138  -14.6354 N   0  0  0  0  0  0  0  0  0  0  0  0
   21.0855   -5.4323  -14.9275 C   0  0  1  0  0  0  0  0  0  0  0  0
   19.8688   -4.5189  -14.7807 C   0  0  0  0  0  0  0  0  0  0  0  0
   20.4090   -2.7952  -14.8559 S   0  0  0  0  0  0  0  0  0  0  0  0
   22.1637   -4.9843  -14.0104 C   0  0  0  0  0  0  0  0  0  0  0  0
   22.2105   -5.4740  -12.8623 O   0  0  0  0  0  0  0  0  0  0  0  0
   23.1062   -4.0448  -14.4010 O   0  0  0  0  0  0  0  0  0  0  0  0
  2  1  1  0
  3  2  1  0
  3  4  1  1
  5  3  1  0
  6  5  2  0
  8  9  1  6
  8  7  1  0
 10  8  1  0
 11 10  1  6
 11 13  1  0
 11 12  1  0
 12  5  1  0
 13 15  1  0
 14 13  2  0
 15 16  1  0
 16 19  1  0
 16 17  1  1
 18 17  1  0
 19 21  1  0
 20 19  2  0
M  END
$$$$
