SLC.pdb
     RDKit          3D

 21 20  0  0  1  0  0  0  0  0999 V2000
   23.4004   -8.0930  -22.6515 O   0  0  0  0  0  0  0  0  0  0  0  0
   22.4850   -8.2540  -21.6454 C   0  0  0  0  0  0  0  0  0  0  0  0
   23.0604   -9.1741  -20.5856 C   0  0  2  0  0  0  0  0  0  0  0  0
   23.0029  -10.5691  -21.0634 N   0  0  0  0  0  0  0  0  0  0  0  0
   22.2833   -9.1551  -19.3242 C   0  0  0  0  0  0  0  0  0  0  0  0
   21.1485   -9.6931  -19.1971 O   0  0  0  0  0  0  0  0  0  0  0  0
   21.1797   -9.6065  -14.2686 C   0  0  0  0  0  0  0  0  0  0  0  0
   22.5329   -8.9671  -14.4917 C   0  0  1  0  0  0  0  0  0  0  0  0
   23.5157   -9.7984  -13.6477 C   0  0  0  0  0  0  0  0  0  0  0  0
   22.9420   -9.0557  -15.9152 C   0  0  0  0  0  0  0  0  0  0  0  0
   22.0824   -8.3897  -16.9290 C   0  0  2  0  0  0  0  0  0  0  0  0
   22.8143   -8.5141  -18.2016 N   0  0  0  0  0  0  0  0  0  0  0  0
   21.8191   -6.9653  -16.7420 C   0  0  0  0  0  0  0  0  0  0  0  0
   22.6528   -6.0990  -17.1102 O   0  0  0  0  0  0  0  0  0  0  0  0
   20.6336   -6.4743  -16.1494 N   0  0  0  0  0  0  0  0  0  0  0  0
   20.2820   -5.0576  -16.1834 C   0  0  1  0  0  0  0  0  0  0  0  0
   20.1458   -4.5848  -17.6305 C   0  0  0  0  0  0  0  0  0  0  0  0
   19.5328   -2.8840  -17.6433 S   0  0  0  0  0  0  0  0  0  0  0  0
   19.0080   -4.8259  -15.4572 C   0  0  0  0  0  0  0  0  0  0  0  0
   18.1054   -5.6844  -15.5494 O   0  0  0  0  0  0  0  0  0  0  0  0
   18.8059   -3.6889  -14.6891 O   0  0  0  0  0  0  0  0  0  0  0  0
  2  1  1  0
  3  2  1  0
  3  4  1  6
  5  3  1  0
  6  5  2  0
  8  9  1  1
  8  7  1  0
 10  8  1  0
 11 10  1  1
 11 13  1  0
 11 12  1  0
 12  5  1  0
 13 15  1  0
 14 13  2  0
 15 16  1  0
 16 19  1  0
 16 17  1  6
 18 17  1  0
 19 21  1  0
 20 19  2  0
M  END
$$$$
