SLC.pdb
     RDKit          3D

 21 20  0  0  1  0  0  0  0  0999 V2000
   19.0154  -11.0427  -13.1064 O   0  0  0  0  0  0  0  0  0  0  0  0
   18.1146  -10.0120  -13.0613 C   0  0  0  0  0  0  0  0  0  0  0  0
   16.9939  -10.3664  -12.1025 C   0  0  2  0  0  0  0  0  0  0  0  0
   16.0771  -11.3234  -12.7518 N   0  0  0  0  0  0  0  0  0  0  0  0
   16.1562   -9.1990  -11.7404 C   0  0  0  0  0  0  0  0  0  0  0  0
   15.3700   -8.6290  -12.5468 O   0  0  0  0  0  0  0  0  0  0  0  0
   13.1395   -6.4592   -8.1616 C   0  0  0  0  0  0  0  0  0  0  0  0
   14.6069   -6.5624   -7.8068 C   0  0  1  0  0  0  0  0  0  0  0  0
   14.6360   -6.8995   -6.3052 C   0  0  0  0  0  0  0  0  0  0  0  0
   15.2642   -7.6654   -8.5505 C   0  0  0  0  0  0  0  0  0  0  0  0
   15.4663   -7.4947  -10.0135 C   0  0  2  0  0  0  0  0  0  0  0  0
   16.2225   -8.6839  -10.4430 N   0  0  0  0  0  0  0  0  0  0  0  0
   16.2420   -6.3346  -10.4445 C   0  0  0  0  0  0  0  0  0  0  0  0
   17.4963   -6.3850  -10.5166 O   0  0  0  0  0  0  0  0  0  0  0  0
   15.6480   -5.1037  -10.8045 N   0  0  0  0  0  0  0  0  0  0  0  0
   16.4373   -3.9815  -11.3039 C   0  0  1  0  0  0  0  0  0  0  0  0
   16.8838   -4.2515  -12.7406 C   0  0  0  0  0  0  0  0  0  0  0  0
   17.6761   -2.7679  -13.4039 S   0  0  0  0  0  0  0  0  0  0  0  0
   15.6417   -2.7291  -11.2521 C   0  0  0  0  0  0  0  0  0  0  0  0
   14.4285   -2.7819  -11.5443 O   0  0  0  0  0  0  0  0  0  0  0  0
   16.2143   -1.5190  -10.8899 O   0  0  0  0  0  0  0  0  0  0  0  0
  2  1  1  0
  3  2  1  0
  3  4  1  6
  5  3  1  0
  6  5  2  0
  8  9  1  1
  8  7  1  0
 10  8  1  0
 11 10  1  1
 11 13  1  0
 11 12  1  0
 12  5  1  0
 13 15  1  0
 14 13  2  0
 15 16  1  0
 16 19  1  0
 16 17  1  6
 18 17  1  0
 19 21  1  0
 20 19  2  0
M  END
$$$$
