IWF.pdb
     RDKit          3D

 34 36  0  0  1  0  0  0  0  0999 V2000
   13.7914   -5.4908  -16.8970 C   0  0  0  0  0  0  0  0  0  0  0  0
   14.4130   -6.2725  -15.7634 C   0  0  0  0  0  0  0  0  0  0  0  0
   14.0053   -5.7602  -14.3992 C   0  0  2  0  0  0  0  0  0  0  0  0
   14.4801   -4.3352  -14.2524 C   0  0  0  0  0  0  0  0  0  0  0  0
   14.6233   -6.6264  -13.3498 C   0  0  2  0  0  0  0  0  0  0  0  0
   14.2007   -7.9829  -13.4977 N   0  0  0  0  0  0  0  0  0  0  0  0
   14.3504   -6.1042  -11.9666 C   0  0  0  0  0  0  0  0  0  0  0  0
   13.1757   -6.1231  -11.5193 O   0  0  0  0  0  0  0  0  0  0  0  0
   15.3699   -5.5898  -11.1444 N   0  0  0  0  0  0  0  0  0  0  0  0
   15.0345   -4.9957   -9.8255 C   0  0  1  0  0  0  0  0  0  0  0  0
   15.6726   -5.8555   -8.7774 C   0  0  0  0  0  0  0  0  0  0  0  0
   15.0384   -7.1639   -8.5617 C   0  0  0  0  0  0  0  0  0  0  0  0
   15.5369   -8.4328   -8.8160 C   0  0  0  0  0  0  0  0  0  0  0  0
   14.6293   -9.3723   -8.5000 N   0  0  0  0  0  0  0  0  0  0  0  0
   13.5212   -8.7388   -8.0337 C   0  0  0  0  0  0  0  0  0  0  0  0
   12.3141   -9.2140   -7.5791 C   0  0  0  0  0  0  0  0  0  0  0  0
   11.3652   -8.3197   -7.1648 C   0  0  0  0  0  0  0  0  0  0  0  0
   11.5827   -6.9784   -7.1904 C   0  0  0  0  0  0  0  0  0  0  0  0
   12.7963   -6.5002   -7.6472 C   0  0  0  0  0  0  0  0  0  0  0  0
   13.7560   -7.3854   -8.0652 C   0  0  0  0  0  0  0  0  0  0  0  0
   15.5550   -3.6394   -9.7875 C   0  0  0  0  0  0  0  0  0  0  0  0
   16.7996   -3.4808  -10.0660 O   0  0  0  0  0  0  0  0  0  0  0  0
   14.8421   -2.4639   -9.4824 N   0  0  0  0  0  0  0  0  0  0  0  0
   15.5543   -1.1931   -9.4654 C   0  0  1  0  0  0  0  0  0  0  0  0
   14.7376   -0.2978  -10.4057 C   0  0  0  0  0  0  0  0  0  0  0  0
   15.6222    0.2006  -11.4578 C   0  0  0  0  0  0  0  0  0  0  0  0
   15.6623   -0.4242  -12.6866 C   0  0  0  0  0  0  0  0  0  0  0  0
   16.4639    0.0315  -13.7139 C   0  0  0  0  0  0  0  0  0  0  0  0
   17.2344    1.1430  -13.4768 C   0  0  0  0  0  0  0  0  0  0  0  0
   17.2160    1.7969  -12.2451 C   0  0  0  0  0  0  0  0  0  0  0  0
   16.3988    1.3110  -11.2368 C   0  0  0  0  0  0  0  0  0  0  0  0
   15.5526   -0.5741   -8.1390 C   0  0  0  0  0  0  0  0  0  0  0  0
   14.8064   -0.9617   -7.1961 O   0  0  0  0  0  0  0  0  0  0  0  0
   16.3887    0.5059   -7.8124 O   0  0  0  0  0  0  0  0  0  0  0  0
  2  1  1  0
  3  5  1  0
  3  2  1  0
  3  4  1  1
  5  6  1  1
  7  5  1  0
  8  7  2  0
  9  7  1  0
 10 21  1  0
 10  9  1  0
 10 11  1  1
 12 11  1  0
 13 12  2  0
 14 15  1  0
 14 13  1  0
 15 20  2  0
 16 17  2  0
 16 15  1  0
 17 18  1  0
 18 19  2  0
 20 19  1  0
 20 12  1  0
 21 22  2  0
 23 24  1  0
 23 21  1  0
 24 25  1  6
 25 26  1  0
 26 27  2  0
 27 28  1  0
 29 28  2  0
 30 29  1  0
 31 26  1  0
 31 30  2  0
 32 34  1  0
 32 24  1  0
 33 32  2  0
M  END
$$$$
