IWF.pdb
     RDKit          3D

 34 36  0  0  1  0  0  0  0  0999 V2000
   28.3353  -32.5234  -15.1692 C   0  0  0  0  0  0  0  0  0  0  0  0
   26.8802  -32.2333  -15.4540 C   0  0  0  0  0  0  0  0  0  0  0  0
   26.1213  -33.4465  -15.9461 C   0  0  2  0  0  0  0  0  0  0  0  0
   26.7785  -33.9536  -17.2066 C   0  0  0  0  0  0  0  0  0  0  0  0
   24.7043  -33.0567  -16.2175 C   0  0  2  0  0  0  0  0  0  0  0  0
   24.6354  -32.0952  -17.2718 N   0  0  0  0  0  0  0  0  0  0  0  0
   24.0133  -32.5716  -14.9734 C   0  0  0  0  0  0  0  0  0  0  0  0
   23.5599  -31.3998  -14.9351 O   0  0  0  0  0  0  0  0  0  0  0  0
   23.8526  -33.3874  -13.8382 N   0  0  0  0  0  0  0  0  0  0  0  0
   23.0703  -32.8987  -12.6746 C   0  0  1  0  0  0  0  0  0  0  0  0
   21.7488  -33.6043  -12.7018 C   0  0  0  0  0  0  0  0  0  0  0  0
   20.8236  -33.2548  -11.6142 C   0  0  0  0  0  0  0  0  0  0  0  0
   20.7458  -32.0869  -10.8704 C   0  0  0  0  0  0  0  0  0  0  0  0
   19.7715  -32.1744   -9.9486 N   0  0  0  0  0  0  0  0  0  0  0  0
   19.1937  -33.3983  -10.0703 C   0  0  0  0  0  0  0  0  0  0  0  0
   18.1646  -34.0005   -9.3863 C   0  0  0  0  0  0  0  0  0  0  0  0
   17.7914  -35.2694   -9.7364 C   0  0  0  0  0  0  0  0  0  0  0  0
   18.4084  -35.9487  -10.7388 C   0  0  0  0  0  0  0  0  0  0  0  0
   19.4431  -35.3436  -11.4268 C   0  0  0  0  0  0  0  0  0  0  0  0
   19.8270  -34.0723  -11.0863 C   0  0  0  0  0  0  0  0  0  0  0  0
   23.8104  -33.2062  -11.4623 C   0  0  0  0  0  0  0  0  0  0  0  0
   24.4073  -34.3433  -11.4120 O   0  0  0  0  0  0  0  0  0  0  0  0
   23.9552  -32.3887  -10.3248 N   0  0  0  0  0  0  0  0  0  0  0  0
   24.6626  -32.9152   -9.1650 C   0  0  1  0  0  0  0  0  0  0  0  0
   25.4767  -31.7201   -8.6535 C   0  0  0  0  0  0  0  0  0  0  0  0
   26.2018  -32.1316   -7.4523 C   0  0  0  0  0  0  0  0  0  0  0  0
   25.6831  -31.8671   -6.2022 C   0  0  0  0  0  0  0  0  0  0  0  0
   26.3237  -32.2624   -5.0451 C   0  0  0  0  0  0  0  0  0  0  0  0
   27.5123  -32.9381   -5.1729 C   0  0  0  0  0  0  0  0  0  0  0  0
   28.0625  -33.2207   -6.4228 C   0  0  0  0  0  0  0  0  0  0  0  0
   27.3912  -32.8083   -7.5630 C   0  0  0  0  0  0  0  0  0  0  0  0
   23.7489  -33.3281   -8.0986 C   0  0  0  0  0  0  0  0  0  0  0  0
   22.5781  -32.8698   -7.9752 O   0  0  0  0  0  0  0  0  0  0  0  0
   24.1087  -34.2739   -7.1250 O   0  0  0  0  0  0  0  0  0  0  0  0
  2  1  1  0
  3  5  1  0
  3  2  1  0
  3  4  1  6
  5  6  1  6
  7  5  1  0
  8  7  2  0
  9  7  1  0
 10 21  1  0
 10  9  1  0
 10 11  1  1
 12 11  1  0
 13 12  2  0
 14 15  1  0
 14 13  1  0
 15 20  2  0
 16 17  2  0
 16 15  1  0
 17 18  1  0
 18 19  2  0
 20 19  1  0
 20 12  1  0
 21 22  2  0
 23 24  1  0
 23 21  1  0
 24 25  1  1
 25 26  1  0
 26 27  2  0
 27 28  1  0
 29 28  2  0
 30 29  1  0
 31 26  1  0
 31 30  2  0
 32 34  1  0
 32 24  1  0
 33 32  2  0
M  END
$$$$
