IWF.pdb
     RDKit          3D

 34 36  0  0  1  0  0  0  0  0999 V2000
   28.1604  -17.7308  -17.9951 C   0  0  0  0  0  0  0  0  0  0  0  0
   28.5512  -18.6831  -16.8892 C   0  0  0  0  0  0  0  0  0  0  0  0
   27.6230  -18.6157  -15.6960 C   0  0  2  0  0  0  0  0  0  0  0  0
   27.6444  -17.2123  -15.1411 C   0  0  0  0  0  0  0  0  0  0  0  0
   28.0865  -19.5917  -14.6635 C   0  0  2  0  0  0  0  0  0  0  0  0
   28.2118  -20.9005  -15.2223 N   0  0  0  0  0  0  0  0  0  0  0  0
   27.1956  -19.5846  -13.4524 C   0  0  0  0  0  0  0  0  0  0  0  0
   26.8526  -18.4874  -12.9438 O   0  0  0  0  0  0  0  0  0  0  0  0
   26.7256  -20.7713  -12.8601 N   0  0  0  0  0  0  0  0  0  0  0  0
   25.7401  -20.7105  -11.7510 C   0  0  1  0  0  0  0  0  0  0  0  0
   24.7130  -21.7695  -12.0128 C   0  0  0  0  0  0  0  0  0  0  0  0
   23.7171  -21.4424  -13.0434 C   0  0  0  0  0  0  0  0  0  0  0  0
   23.6691  -21.8349  -14.3726 C   0  0  0  0  0  0  0  0  0  0  0  0
   22.6022  -21.2978  -14.9887 N   0  0  0  0  0  0  0  0  0  0  0  0
   21.9321  -20.5448  -14.0774 C   0  0  0  0  0  0  0  0  0  0  0  0
   20.7888  -19.7877  -14.1737 C   0  0  0  0  0  0  0  0  0  0  0  0
   20.3407  -19.1231  -13.0648 C   0  0  0  0  0  0  0  0  0  0  0  0
   20.9931  -19.1906  -11.8745 C   0  0  0  0  0  0  0  0  0  0  0  0
   22.1426  -19.9518  -11.7773 C   0  0  0  0  0  0  0  0  0  0  0  0
   22.6025  -20.6230  -12.8806 C   0  0  0  0  0  0  0  0  0  0  0  0
   26.4412  -20.9498  -10.5008 C   0  0  0  0  0  0  0  0  0  0  0  0
   27.3012  -21.9047  -10.4840 O   0  0  0  0  0  0  0  0  0  0  0  0
   26.2886  -20.2429   -9.2923 N   0  0  0  0  0  0  0  0  0  0  0  0
   27.0136  -20.6989   -8.1137 C   0  0  1  0  0  0  0  0  0  0  0  0
   27.8787  -19.4945   -7.7218 C   0  0  0  0  0  0  0  0  0  0  0  0
   28.3266  -19.6734   -6.3415 C   0  0  0  0  0  0  0  0  0  0  0  0
   27.7114  -18.9864   -5.3162 C   0  0  0  0  0  0  0  0  0  0  0  0
   28.0872  -19.1478   -3.9977 C   0  0  0  0  0  0  0  0  0  0  0  0
   29.1079  -20.0260   -3.7282 C   0  0  0  0  0  0  0  0  0  0  0  0
   29.7496  -20.7355   -4.7429 C   0  0  0  0  0  0  0  0  0  0  0  0
   29.3456  -20.5480   -6.0553 C   0  0  0  0  0  0  0  0  0  0  0  0
   26.1198  -20.9960   -6.9933 C   0  0  0  0  0  0  0  0  0  0  0  0
   24.9389  -20.5540   -6.9149 O   0  0  0  0  0  0  0  0  0  0  0  0
   26.5116  -21.8026   -5.9127 O   0  0  0  0  0  0  0  0  0  0  0  0
  2  1  1  0
  3  5  1  0
  3  2  1  0
  3  4  1  1
  5  6  1  6
  7  5  1  0
  8  7  2  0
  9  7  1  0
 10 21  1  0
 10  9  1  0
 10 11  1  6
 12 11  1  0
 13 12  2  0
 14 15  1  0
 14 13  1  0
 15 20  2  0
 16 17  2  0
 16 15  1  0
 17 18  1  0
 18 19  2  0
 20 19  1  0
 20 12  1  0
 21 22  2  0
 23 24  1  0
 23 21  1  0
 24 25  1  1
 25 26  1  0
 26 27  2  0
 27 28  1  0
 29 28  2  0
 30 29  1  0
 31 26  1  0
 31 30  2  0
 32 34  1  0
 32 24  1  0
 33 32  2  0
M  END
$$$$
