IWF.pdb
     RDKit          3D

 34 36  0  0  1  0  0  0  0  0999 V2000
   29.3062  -17.5154  -20.1235 C   0  0  0  0  0  0  0  0  0  0  0  0
   28.0460  -17.0484  -19.4332 C   0  0  0  0  0  0  0  0  0  0  0  0
   27.3805  -18.1364  -18.6189 C   0  0  2  0  0  0  0  0  0  0  0  0
   26.0125  -18.4083  -19.1955 C   0  0  0  0  0  0  0  0  0  0  0  0
   27.2672  -17.6815  -17.1999 C   0  0  2  0  0  0  0  0  0  0  0  0
   28.5178  -17.1787  -16.7266 N   0  0  0  0  0  0  0  0  0  0  0  0
   26.7289  -18.7669  -16.3096 C   0  0  0  0  0  0  0  0  0  0  0  0
   25.9568  -19.6346  -16.7904 O   0  0  0  0  0  0  0  0  0  0  0  0
   27.0597  -18.8502  -14.9444 N   0  0  0  0  0  0  0  0  0  0  0  0
   26.4255  -19.8826  -14.0861 C   0  0  1  0  0  0  0  0  0  0  0  0
   27.2522  -19.9924  -12.8414 C   0  0  0  0  0  0  0  0  0  0  0  0
   26.7000  -20.8596  -11.7907 C   0  0  0  0  0  0  0  0  0  0  0  0
   26.3547  -22.2013  -11.8525 C   0  0  0  0  0  0  0  0  0  0  0  0
   25.8590  -22.6193  -10.6753 N   0  0  0  0  0  0  0  0  0  0  0  0
   25.8698  -21.5623   -9.8214 C   0  0  0  0  0  0  0  0  0  0  0  0
   25.4778  -21.4366   -8.5099 C   0  0  0  0  0  0  0  0  0  0  0  0
   25.6080  -20.2215   -7.8945 C   0  0  0  0  0  0  0  0  0  0  0  0
   26.1126  -19.1388   -8.5425 C   0  0  0  0  0  0  0  0  0  0  0  0
   26.5070  -19.2647   -9.8611 C   0  0  0  0  0  0  0  0  0  0  0  0
   26.3821  -20.4766  -10.4897 C   0  0  0  0  0  0  0  0  0  0  0  0
   25.0684  -19.4588  -13.7853 C   0  0  0  0  0  0  0  0  0  0  0  0
   24.8795  -18.2061  -13.5690 O   0  0  0  0  0  0  0  0  0  0  0  0
   23.9215  -20.2724  -13.7082 N   0  0  0  0  0  0  0  0  0  0  0  0
   22.7371  -19.7574  -13.0340 C   0  0  1  0  0  0  0  0  0  0  0  0
   22.0931  -18.8303  -14.0724 C   0  0  0  0  0  0  0  0  0  0  0  0
   21.8770  -19.5898  -15.3030 C   0  0  0  0  0  0  0  0  0  0  0  0
   20.7790  -20.4149  -15.4272 C   0  0  0  0  0  0  0  0  0  0  0  0
   20.5255  -21.1276  -16.5819 C   0  0  0  0  0  0  0  0  0  0  0  0
   21.4106  -20.9915  -17.6228 C   0  0  0  0  0  0  0  0  0  0  0  0
   22.5300  -20.1651  -17.5281 C   0  0  0  0  0  0  0  0  0  0  0  0
   22.7525  -19.4646  -16.3531 C   0  0  0  0  0  0  0  0  0  0  0  0
   21.7762  -20.8148  -12.7159 C   0  0  0  0  0  0  0  0  0  0  0  0
   21.9899  -22.0373  -12.9526 O   0  0  0  0  0  0  0  0  0  0  0  0
   20.5344  -20.5469  -12.1176 O   0  0  0  0  0  0  0  0  0  0  0  0
  2  1  1  0
  3  5  1  0
  3  2  1  0
  3  4  1  6
  5  6  1  1
  7  5  1  0
  8  7  2  0
  9  7  1  0
 10 21  1  0
 10  9  1  0
 10 11  1  1
 12 11  1  0
 13 12  2  0
 14 15  1  0
 14 13  1  0
 15 20  2  0
 16 17  2  0
 16 15  1  0
 17 18  1  0
 18 19  2  0
 20 19  1  0
 20 12  1  0
 21 22  2  0
 23 24  1  0
 23 21  1  0
 24 25  1  6
 25 26  1  0
 26 27  2  0
 27 28  1  0
 29 28  2  0
 30 29  1  0
 31 26  1  0
 31 30  2  0
 32 34  1  0
 32 24  1  0
 33 32  2  0
M  END
$$$$
