IWF.pdb
     RDKit          3D

 34 36  0  0  1  0  0  0  0  0999 V2000
   27.8280  -18.0667  -17.6506 C   0  0  0  0  0  0  0  0  0  0  0  0
   28.1474  -19.1057  -16.6012 C   0  0  0  0  0  0  0  0  0  0  0  0
   27.4202  -18.8694  -15.2954 C   0  0  2  0  0  0  0  0  0  0  0  0
   27.8088  -17.5128  -14.7601 C   0  0  0  0  0  0  0  0  0  0  0  0
   27.8009  -19.9410  -14.3258 C   0  0  2  0  0  0  0  0  0  0  0  0
   27.5797  -21.2357  -14.8876 N   0  0  0  0  0  0  0  0  0  0  0  0
   27.0946  -19.7756  -13.0089 C   0  0  0  0  0  0  0  0  0  0  0  0
   27.0257  -18.6358  -12.4833 O   0  0  0  0  0  0  0  0  0  0  0  0
   26.5009  -20.8589  -12.3350 N   0  0  0  0  0  0  0  0  0  0  0  0
   25.7395  -20.6290  -11.0811 C   0  0  1  0  0  0  0  0  0  0  0  0
   24.4428  -21.3687  -11.2085 C   0  0  0  0  0  0  0  0  0  0  0  0
   23.4387  -20.7381  -12.0774 C   0  0  0  0  0  0  0  0  0  0  0  0
   23.3735  -20.7057  -13.4623 C   0  0  0  0  0  0  0  0  0  0  0  0
   22.3045  -20.0014  -13.8716 N   0  0  0  0  0  0  0  0  0  0  0  0
   21.6502  -19.5598  -12.7655 C   0  0  0  0  0  0  0  0  0  0  0  0
   20.5120  -18.8045  -12.6117 C   0  0  0  0  0  0  0  0  0  0  0  0
   20.0809  -18.5083  -11.3474 C   0  0  0  0  0  0  0  0  0  0  0  0
   20.7453  -18.9391  -10.2428 C   0  0  0  0  0  0  0  0  0  0  0  0
   21.8897  -19.6985  -10.3970 C   0  0  0  0  0  0  0  0  0  0  0  0
   22.3325  -20.0027  -11.6583 C   0  0  0  0  0  0  0  0  0  0  0  0
   26.5279  -21.1292   -9.9674 C   0  0  0  0  0  0  0  0  0  0  0  0
   27.0244  -22.3089  -10.0834 O   0  0  0  0  0  0  0  0  0  0  0  0
   26.8184  -20.4592   -8.7633 N   0  0  0  0  0  0  0  0  0  0  0  0
   27.3446  -21.2247   -7.6410 C   0  0  1  0  0  0  0  0  0  0  0  0
   28.7381  -20.6283   -7.4063 C   0  0  0  0  0  0  0  0  0  0  0  0
   28.7787  -20.0571   -6.0610 C   0  0  0  0  0  0  0  0  0  0  0  0
   29.0814  -20.8531   -4.9764 C   0  0  0  0  0  0  0  0  0  0  0  0
   29.1558  -20.3466   -3.6944 C   0  0  0  0  0  0  0  0  0  0  0  0
   28.9163  -19.0053   -3.5235 C   0  0  0  0  0  0  0  0  0  0  0  0
   28.6079  -18.1742   -4.6001 C   0  0  0  0  0  0  0  0  0  0  0  0
   28.5420  -18.7178   -5.8733 C   0  0  0  0  0  0  0  0  0  0  0  0
   26.5597  -21.0309   -6.4208 C   0  0  0  0  0  0  0  0  0  0  0  0
   25.7367  -20.0841   -6.2713 O   0  0  0  0  0  0  0  0  0  0  0  0
   26.6631  -21.8913   -5.3159 O   0  0  0  0  0  0  0  0  0  0  0  0
  2  1  1  0
  3  5  1  0
  3  2  1  0
  3  4  1  1
  5  6  1  6
  7  5  1  0
  8  7  2  0
  9  7  1  0
 10 21  1  0
 10  9  1  0
 10 11  1  6
 12 11  1  0
 13 12  2  0
 14 15  1  0
 14 13  1  0
 15 20  2  0
 16 17  2  0
 16 15  1  0
 17 18  1  0
 18 19  2  0
 20 19  1  0
 20 12  1  0
 21 22  2  0
 23 24  1  0
 23 21  1  0
 24 25  1  1
 25 26  1  0
 26 27  2  0
 27 28  1  0
 29 28  2  0
 30 29  1  0
 31 26  1  0
 31 30  2  0
 32 34  1  0
 32 24  1  0
 33 32  2  0
M  END
$$$$
