IWF.pdb
     RDKit          3D

 34 36  0  0  1  0  0  0  0  0999 V2000
   24.3681  -36.4790  -19.0585 C   0  0  0  0  0  0  0  0  0  0  0  0
   23.8391  -35.0695  -18.9319 C   0  0  0  0  0  0  0  0  0  0  0  0
   24.4204  -34.3242  -17.7502 C   0  0  2  0  0  0  0  0  0  0  0  0
   24.1226  -35.1004  -16.4906 C   0  0  0  0  0  0  0  0  0  0  0  0
   23.8049  -32.9641  -17.6824 C   0  0  2  0  0  0  0  0  0  0  0  0
   24.4534  -32.0679  -18.5862 N   0  0  0  0  0  0  0  0  0  0  0  0
   23.7932  -32.4288  -16.2775 C   0  0  0  0  0  0  0  0  0  0  0  0
   24.8264  -31.8815  -15.8159 O   0  0  0  0  0  0  0  0  0  0  0  0
   22.6582  -32.5174  -15.4505 N   0  0  0  0  0  0  0  0  0  0  0  0
   22.7019  -31.9827  -14.0659 C   0  0  1  0  0  0  0  0  0  0  0  0
   21.3152  -31.5319  -13.7214 C   0  0  0  0  0  0  0  0  0  0  0  0
   21.1822  -30.8189  -12.4428 C   0  0  0  0  0  0  0  0  0  0  0  0
   21.8479  -29.6872  -11.9962 C   0  0  0  0  0  0  0  0  0  0  0  0
   21.4546  -29.3642  -10.7523 N   0  0  0  0  0  0  0  0  0  0  0  0
   20.5260  -30.2757  -10.3606 C   0  0  0  0  0  0  0  0  0  0  0  0
   19.8087  -30.4142   -9.1962 C   0  0  0  0  0  0  0  0  0  0  0  0
   18.9257  -31.4533   -9.0834 C   0  0  0  0  0  0  0  0  0  0  0  0
   18.7391  -32.3494  -10.0879 C   0  0  0  0  0  0  0  0  0  0  0  0
   19.4600  -32.2105  -11.2588 C   0  0  0  0  0  0  0  0  0  0  0  0
   20.3480  -31.1737  -11.3852 C   0  0  0  0  0  0  0  0  0  0  0  0
   23.1503  -33.0427  -13.1787 C   0  0  0  0  0  0  0  0  0  0  0  0
   22.8819  -34.2507  -13.5257 O   0  0  0  0  0  0  0  0  0  0  0  0
   23.8589  -32.8966  -11.9705 N   0  0  0  0  0  0  0  0  0  0  0  0
   24.1621  -34.0850  -11.1841 C   0  0  1  0  0  0  0  0  0  0  0  0
   25.1985  -33.5992  -10.1630 C   0  0  0  0  0  0  0  0  0  0  0  0
   24.6299  -32.4735   -9.4232 C   0  0  0  0  0  0  0  0  0  0  0  0
   23.7911  -32.6980   -8.3519 C   0  0  0  0  0  0  0  0  0  0  0  0
   23.2556  -31.6631   -7.6118 C   0  0  0  0  0  0  0  0  0  0  0  0
   23.5854  -30.3809   -7.9762 C   0  0  0  0  0  0  0  0  0  0  0  0
   24.4310  -30.1213   -9.0544 C   0  0  0  0  0  0  0  0  0  0  0  0
   24.9501  -31.1855   -9.7747 C   0  0  0  0  0  0  0  0  0  0  0  0
   22.9965  -34.5739  -10.4460 C   0  0  0  0  0  0  0  0  0  0  0  0
   21.8815  -33.9798  -10.4423 O   0  0  0  0  0  0  0  0  0  0  0  0
   23.0307  -35.7509   -9.6810 O   0  0  0  0  0  0  0  0  0  0  0  0
  2  1  1  0
  3  5  1  0
  3  2  1  0
  3  4  1  1
  5  6  1  6
  7  5  1  0
  8  7  2  0
  9  7  1  0
 10 21  1  0
 10  9  1  0
 10 11  1  1
 12 11  1  0
 13 12  2  0
 14 15  1  0
 14 13  1  0
 15 20  2  0
 16 17  2  0
 16 15  1  0
 17 18  1  0
 18 19  2  0
 20 19  1  0
 20 12  1  0
 21 22  2  0
 23 24  1  0
 23 21  1  0
 24 25  1  1
 25 26  1  0
 26 27  2  0
 27 28  1  0
 29 28  2  0
 30 29  1  0
 31 26  1  0
 31 30  2  0
 32 34  1  0
 32 24  1  0
 33 32  2  0
M  END
$$$$
