IWF.pdb
     RDKit          3D

 34 36  0  0  1  0  0  0  0  0999 V2000
   28.1549  -21.7380  -20.6560 C   0  0  0  0  0  0  0  0  0  0  0  0
   27.8503  -22.4467  -19.3570 C   0  0  0  0  0  0  0  0  0  0  0  0
   27.8033  -21.5097  -18.1697 C   0  0  2  0  0  0  0  0  0  0  0  0
   29.1583  -20.8665  -18.0031 C   0  0  0  0  0  0  0  0  0  0  0  0
   27.4431  -22.2908  -16.9476 C   0  0  2  0  0  0  0  0  0  0  0  0
   26.2297  -23.0174  -17.1490 N   0  0  0  0  0  0  0  0  0  0  0  0
   27.3731  -21.4140  -15.7282 C   0  0  0  0  0  0  0  0  0  0  0  0
   28.3915  -20.7696  -15.3710 O   0  0  0  0  0  0  0  0  0  0  0  0
   26.1990  -21.2853  -14.9635 N   0  0  0  0  0  0  0  0  0  0  0  0
   26.1731  -20.3826  -13.7847 C   0  0  1  0  0  0  0  0  0  0  0  0
   25.0324  -19.4312  -13.9805 C   0  0  0  0  0  0  0  0  0  0  0  0
   25.0611  -18.6594  -15.2313 C   0  0  0  0  0  0  0  0  0  0  0  0
   24.2375  -18.7591  -16.3425 C   0  0  0  0  0  0  0  0  0  0  0  0
   24.6119  -17.8845  -17.2918 N   0  0  0  0  0  0  0  0  0  0  0  0
   25.6855  -17.1965  -16.8222 C   0  0  0  0  0  0  0  0  0  0  0  0
   26.4518  -16.1991  -17.3768 C   0  0  0  0  0  0  0  0  0  0  0  0
   27.4934  -15.6858  -16.6531 C   0  0  0  0  0  0  0  0  0  0  0  0
   27.7902  -16.1337  -15.4048 C   0  0  0  0  0  0  0  0  0  0  0  0
   27.0199  -17.1365  -14.8468 C   0  0  0  0  0  0  0  0  0  0  0  0
   25.9732  -17.6596  -15.5610 C   0  0  0  0  0  0  0  0  0  0  0  0
   25.9899  -21.1915  -12.5914 C   0  0  0  0  0  0  0  0  0  0  0  0
   25.4407  -22.3436  -12.7424 O   0  0  0  0  0  0  0  0  0  0  0  0
   26.3546  -20.8559  -11.2732 N   0  0  0  0  0  0  0  0  0  0  0  0
   25.8721  -21.6850  -10.1766 C   0  0  1  0  0  0  0  0  0  0  0  0
   27.0975  -21.8490   -9.2690 C   0  0  0  0  0  0  0  0  0  0  0  0
   27.2637  -20.6250   -8.4865 C   0  0  0  0  0  0  0  0  0  0  0  0
   26.6758  -20.5085   -7.2445 C   0  0  0  0  0  0  0  0  0  0  0  0
   26.8308  -19.3805   -6.4640 C   0  0  0  0  0  0  0  0  0  0  0  0
   27.5992  -18.3587   -6.9650 C   0  0  0  0  0  0  0  0  0  0  0  0
   28.2068  -18.4464   -8.2173 C   0  0  0  0  0  0  0  0  0  0  0  0
   28.0291  -19.5944   -8.9732 C   0  0  0  0  0  0  0  0  0  0  0  0
   24.8219  -21.0229   -9.4012 C   0  0  0  0  0  0  0  0  0  0  0  0
   24.2274  -21.5730   -8.4316 O   0  0  0  0  0  0  0  0  0  0  0  0
   24.3938  -19.7147   -9.6791 O   0  0  0  0  0  0  0  0  0  0  0  0
  2  1  1  0
  3  5  1  0
  3  2  1  0
  3  4  1  1
  5  6  1  6
  7  5  1  0
  8  7  2  0
  9  7  1  0
 10 21  1  0
 10  9  1  0
 10 11  1  6
 12 11  1  0
 13 12  2  0
 14 15  1  0
 14 13  1  0
 15 20  2  0
 16 17  2  0
 16 15  1  0
 17 18  1  0
 18 19  2  0
 20 19  1  0
 20 12  1  0
 21 22  2  0
 23 24  1  0
 23 21  1  0
 24 25  1  1
 25 26  1  0
 26 27  2  0
 27 28  1  0
 29 28  2  0
 30 29  1  0
 31 26  1  0
 31 30  2  0
 32 34  1  0
 32 24  1  0
 33 32  2  0
M  END
$$$$
