IWF.pdb
     RDKit          3D

 34 36  0  0  1  0  0  0  0  0999 V2000
   34.0767  -23.3666   -9.1216 C   0  0  0  0  0  0  0  0  0  0  0  0
   33.2598  -23.4170  -10.3915 C   0  0  0  0  0  0  0  0  0  0  0  0
   32.2260  -22.3151  -10.4731 C   0  0  2  0  0  0  0  0  0  0  0  0
   31.3328  -22.3945   -9.2591 C   0  0  0  0  0  0  0  0  0  0  0  0
   31.4248  -22.4913  -11.7223 C   0  0  2  0  0  0  0  0  0  0  0  0
   32.2734  -22.5088  -12.8713 N   0  0  0  0  0  0  0  0  0  0  0  0
   30.3451  -21.4518  -11.8414 C   0  0  0  0  0  0  0  0  0  0  0  0
   30.6629  -20.2450  -11.9927 O   0  0  0  0  0  0  0  0  0  0  0  0
   28.9780  -21.7810  -11.7897 N   0  0  0  0  0  0  0  0  0  0  0  0
   27.9539  -20.7064  -11.7552 C   0  0  1  0  0  0  0  0  0  0  0  0
   27.1775  -20.7934  -13.0336 C   0  0  0  0  0  0  0  0  0  0  0  0
   26.2663  -19.6702  -13.2970 C   0  0  0  0  0  0  0  0  0  0  0  0
   26.5176  -18.3072  -13.2490 C   0  0  0  0  0  0  0  0  0  0  0  0
   25.4056  -17.6085  -13.5345 N   0  0  0  0  0  0  0  0  0  0  0  0
   24.4067  -18.4979  -13.7745 C   0  0  0  0  0  0  0  0  0  0  0  0
   23.0838  -18.3262  -14.1063 C   0  0  0  0  0  0  0  0  0  0  0  0
   22.2992  -19.4321  -14.2894 C   0  0  0  0  0  0  0  0  0  0  0  0
   22.7906  -20.6918  -14.1526 C   0  0  0  0  0  0  0  0  0  0  0  0
   24.1206  -20.8648  -13.8191 C   0  0  0  0  0  0  0  0  0  0  0  0
   24.9179  -19.7653  -13.6329 C   0  0  0  0  0  0  0  0  0  0  0  0
   27.0992  -20.9241  -10.6002 C   0  0  0  0  0  0  0  0  0  0  0  0
   26.7792  -22.1387  -10.3280 O   0  0  0  0  0  0  0  0  0  0  0  0
   26.5797  -19.9453   -9.7310 N   0  0  0  0  0  0  0  0  0  0  0  0
   25.7675  -20.3695   -8.5983 C   0  0  1  0  0  0  0  0  0  0  0  0
   25.8763  -19.2040   -7.6072 C   0  0  0  0  0  0  0  0  0  0  0  0
   27.0096  -19.4542   -6.7179 C   0  0  0  0  0  0  0  0  0  0  0  0
   28.0467  -18.5485   -6.6414 C   0  0  0  0  0  0  0  0  0  0  0  0
   29.1211  -18.7353   -5.7949 C   0  0  0  0  0  0  0  0  0  0  0  0
   29.1310  -19.8666   -5.0168 C   0  0  0  0  0  0  0  0  0  0  0  0
   28.0972  -20.8011   -5.0713 C   0  0  0  0  0  0  0  0  0  0  0  0
   27.0345  -20.5804   -5.9331 C   0  0  0  0  0  0  0  0  0  0  0  0
   24.3569  -20.5276   -8.9556 C   0  0  0  0  0  0  0  0  0  0  0  0
   23.8741  -20.1352  -10.0552 O   0  0  0  0  0  0  0  0  0  0  0  0
   23.4270  -21.1335   -8.0954 O   0  0  0  0  0  0  0  0  0  0  0  0
  2  1  1  0
  3  5  1  0
  3  2  1  0
  3  4  1  1
  5  6  1  6
  7  5  1  0
  8  7  2  0
  9  7  1  0
 10 21  1  0
 10  9  1  0
 10 11  1  6
 12 11  1  0
 13 12  2  0
 14 15  1  0
 14 13  1  0
 15 20  2  0
 16 17  2  0
 16 15  1  0
 17 18  1  0
 18 19  2  0
 20 19  1  0
 20 12  1  0
 21 22  2  0
 23 24  1  0
 23 21  1  0
 24 25  1  1
 25 26  1  0
 26 27  2  0
 27 28  1  0
 29 28  2  0
 30 29  1  0
 31 26  1  0
 31 30  2  0
 32 34  1  0
 32 24  1  0
 33 32  2  0
M  END
$$$$
