IWF.pdb
     RDKit          3D

 34 36  0  0  1  0  0  0  0  0999 V2000
   23.0364  -29.7742  -17.2635 C   0  0  0  0  0  0  0  0  0  0  0  0
   22.4354  -28.3892  -17.3206 C   0  0  0  0  0  0  0  0  0  0  0  0
   22.1302  -27.8207  -15.9519 C   0  0  2  0  0  0  0  0  0  0  0  0
   21.2612  -28.7996  -15.2007 C   0  0  0  0  0  0  0  0  0  0  0  0
   21.4233  -26.5141  -16.1144 C   0  0  2  0  0  0  0  0  0  0  0  0
   22.2799  -25.5458  -16.7224 N   0  0  0  0  0  0  0  0  0  0  0  0
   20.8600  -26.0210  -14.8107 C   0  0  0  0  0  0  0  0  0  0  0  0
   21.6200  -25.4586  -13.9822 O   0  0  0  0  0  0  0  0  0  0  0  0
   19.5003  -26.1658  -14.4785 N   0  0  0  0  0  0  0  0  0  0  0  0
   18.9782  -25.5943  -13.2113 C   0  0  1  0  0  0  0  0  0  0  0  0
   17.8213  -24.7114  -13.5674 C   0  0  0  0  0  0  0  0  0  0  0  0
   18.1769  -23.3939  -14.1138 C   0  0  0  0  0  0  0  0  0  0  0  0
   18.5030  -22.2250  -13.4426 C   0  0  0  0  0  0  0  0  0  0  0  0
   18.7418  -21.2284  -14.3121 N   0  0  0  0  0  0  0  0  0  0  0  0
   18.5771  -21.7236  -15.5668 C   0  0  0  0  0  0  0  0  0  0  0  0
   18.6955  -21.1424  -16.8068 C   0  0  0  0  0  0  0  0  0  0  0  0
   18.4634  -21.9047  -17.9191 C   0  0  0  0  0  0  0  0  0  0  0  0
   18.1200  -23.2167  -17.8316 C   0  0  0  0  0  0  0  0  0  0  0  0
   18.0008  -23.8015  -16.5850 C   0  0  0  0  0  0  0  0  0  0  0  0
   18.2308  -23.0491  -15.4623 C   0  0  0  0  0  0  0  0  0  0  0  0
   18.5640  -26.6894  -12.3504 C   0  0  0  0  0  0  0  0  0  0  0  0
   17.8470  -27.6143  -12.8818 O   0  0  0  0  0  0  0  0  0  0  0  0
   18.8665  -26.8584  -10.9855 N   0  0  0  0  0  0  0  0  0  0  0  0
   18.3810  -28.0482  -10.2990 C   0  0  1  0  0  0  0  0  0  0  0  0
   19.2228  -28.1065   -9.0181 C   0  0  0  0  0  0  0  0  0  0  0  0
   18.8633  -26.9684   -8.1734 C   0  0  0  0  0  0  0  0  0  0  0  0
   18.0785  -27.1533   -7.0547 C   0  0  0  0  0  0  0  0  0  0  0  0
   17.7394  -26.1093   -6.2175 C   0  0  0  0  0  0  0  0  0  0  0  0
   18.2122  -24.8593   -6.5328 C   0  0  0  0  0  0  0  0  0  0  0  0
   19.0080  -24.6402   -7.6570 C   0  0  0  0  0  0  0  0  0  0  0  0
   19.3282  -25.7122   -8.4749 C   0  0  0  0  0  0  0  0  0  0  0  0
   16.9750  -27.9291   -9.9097 C   0  0  0  0  0  0  0  0  0  0  0  0
   16.2581  -28.9209   -9.5959 O   0  0  0  0  0  0  0  0  0  0  0  0
   16.3127  -26.6921   -9.8543 O   0  0  0  0  0  0  0  0  0  0  0  0
  2  1  1  0
  3  5  1  0
  3  2  1  0
  3  4  1  1
  5  6  1  1
  7  5  1  0
  8  7  2  0
  9  7  1  0
 10 21  1  0
 10  9  1  0
 10 11  1  6
 12 11  1  0
 13 12  2  0
 14 15  1  0
 14 13  1  0
 15 20  2  0
 16 17  2  0
 16 15  1  0
 17 18  1  0
 18 19  2  0
 20 19  1  0
 20 12  1  0
 21 22  2  0
 23 24  1  0
 23 21  1  0
 24 25  1  1
 25 26  1  0
 26 27  2  0
 27 28  1  0
 29 28  2  0
 30 29  1  0
 31 26  1  0
 31 30  2  0
 32 34  1  0
 32 24  1  0
 33 32  2  0
M  END
$$$$
