SEN.pdb
     RDKit          3D

 24 23  0  0  1  0  0  0  0  0999 V2000
    7.1222  -13.2659   20.4477 O   0  0  0  0  0  0  0  0  0  0  0  0
    7.8945  -12.3896   19.6578 C   0  0  0  0  0  0  0  0  0  0  0  0
    8.4627  -13.1706   18.5162 C   0  0  2  0  0  0  0  0  0  0  0  0
    7.3818  -13.7619   17.7561 N   0  0  0  0  0  0  0  0  0  0  0  0
    9.3277  -14.2720   19.0319 C   0  0  0  0  0  0  0  0  0  0  0  0
    8.8953  -15.4460   19.1328 O   0  0  0  0  0  0  0  0  0  0  0  0
   10.6781  -14.0263   19.4283 N   0  0  0  0  0  0  0  0  0  0  0  0
   11.4785  -14.9749   20.1588 C   0  0  1  0  0  0  0  0  0  0  0  0
   12.9660  -14.6540   20.0447 C   0  0  0  0  0  0  0  0  0  0  0  0
   13.3698  -14.7742   18.5927 C   0  0  0  0  0  0  0  0  0  0  0  0
   14.7980  -14.4895   18.4291 C   0  0  0  0  0  0  0  0  0  0  0  0
   15.1857  -13.3159   18.3006 O   0  0  0  0  0  0  0  0  0  0  0  0
   11.0655  -15.0844   21.5825 C   0  0  0  0  0  0  0  0  0  0  0  0
   10.2856  -14.2511   22.0615 O   0  0  0  0  0  0  0  0  0  0  0  0
   15.7473  -15.4938   18.4119 O   0  0  0  0  0  0  0  0  0  0  0  0
    8.2914  -16.3228   25.7718 N   0  0  0  0  0  0  0  0  0  0  0  0
    8.8685  -17.2470   24.8849 C   0  0  0  0  0  0  0  0  0  0  0  0
    8.8313  -18.4645   25.1792 O   0  0  0  0  0  0  0  0  0  0  0  0
    9.4992  -16.8262   23.6494 C   0  0  0  0  0  0  0  0  0  0  0  0
   10.9300  -16.4529   23.6931 C   0  0  2  0  0  0  0  0  0  0  0  0
   11.5379  -16.1310   22.4439 N   0  0  0  0  0  0  0  0  0  0  0  0
   11.6986  -17.5384   24.3480 C   0  0  0  0  0  0  0  0  0  0  0  0
   12.4132  -18.2713   23.6256 O   0  0  0  0  0  0  0  0  0  0  0  0
   11.6274  -17.7348   25.7137 O   0  0  0  0  0  0  0  0  0  0  0  0
  1  2  1  0
  2  3  1  0
  3  5  1  0
  3  4  1  1
  5  6  2  0
  7  8  1  0
  7  5  1  0
  8 13  1  0
  8  9  1  1
 10  9  1  0
 10 11  1  0
 11 12  2  0
 11 15  1  0
 13 21  1  0
 13 14  2  0
 17 16  1  0
 17 18  2  0
 19 17  1  0
 20 19  1  6
 21 20  1  0
 22 24  1  0
 22 20  1  0
 23 22  2  0
M  END
$$$$
