SEN.pdb
     RDKit          3D

 24 23  0  0  1  0  0  0  0  0999 V2000
    7.8486  -13.4329   20.9200 O   0  0  0  0  0  0  0  0  0  0  0  0
    8.4246  -12.4034   20.1475 C   0  0  0  0  0  0  0  0  0  0  0  0
    8.7583  -12.9627   18.8016 C   0  0  2  0  0  0  0  0  0  0  0  0
    7.5850  -13.6026   18.2450 N   0  0  0  0  0  0  0  0  0  0  0  0
    9.8341  -13.9893   18.9281 C   0  0  0  0  0  0  0  0  0  0  0  0
    9.5692  -15.2159   18.9029 O   0  0  0  0  0  0  0  0  0  0  0  0
   11.2027  -13.6094   19.0822 N   0  0  0  0  0  0  0  0  0  0  0  0
   12.2822  -14.5548   19.2053 C   0  0  1  0  0  0  0  0  0  0  0  0
   13.5484  -14.0471   18.5214 C   0  0  0  0  0  0  0  0  0  0  0  0
   14.6338  -15.0850   18.6962 C   0  0  0  0  0  0  0  0  0  0  0  0
   14.9538  -15.7178   17.4138 C   0  0  0  0  0  0  0  0  0  0  0  0
   15.3604  -16.8917   17.3857 O   0  0  0  0  0  0  0  0  0  0  0  0
   12.5525  -14.9223   20.6201 C   0  0  0  0  0  0  0  0  0  0  0  0
   12.8493  -14.0413   21.4374 O   0  0  0  0  0  0  0  0  0  0  0  0
   14.8184  -15.0473   16.2128 O   0  0  0  0  0  0  0  0  0  0  0  0
    9.4500  -18.1863   22.8201 N   0  0  0  0  0  0  0  0  0  0  0  0
   10.4959  -17.3576   23.2598 C   0  0  0  0  0  0  0  0  0  0  0  0
   10.2083  -16.3031   23.8728 O   0  0  0  0  0  0  0  0  0  0  0  0
   11.8858  -17.6934   23.0219 C   0  0  0  0  0  0  0  0  0  0  0  0
   12.7608  -16.6528   22.4388 C   0  0  2  0  0  0  0  0  0  0  0  0
   12.4841  -16.2763   21.0914 N   0  0  0  0  0  0  0  0  0  0  0  0
   14.1745  -17.0857   22.5473 C   0  0  0  0  0  0  0  0  0  0  0  0
   14.6563  -17.7612   21.6085 O   0  0  0  0  0  0  0  0  0  0  0  0
   14.9361  -16.7539   23.6512 O   0  0  0  0  0  0  0  0  0  0  0  0
  1  2  1  0
  2  3  1  0
  3  5  1  0
  3  4  1  1
  5  6  2  0
  7  8  1  0
  7  5  1  0
  8 13  1  0
  8  9  1  1
 10  9  1  0
 10 11  1  0
 11 12  2  0
 11 15  1  0
 13 21  1  0
 13 14  2  0
 17 16  1  0
 17 18  2  0
 19 17  1  0
 20 19  1  6
 21 20  1  0
 22 24  1  0
 22 20  1  0
 23 22  2  0
M  END
$$$$
