SEN.pdb
     RDKit          3D

 24 23  0  0  1  0  0  0  0  0999 V2000
   14.4382  -17.0401   22.1718 O   0  0  0  0  0  0  0  0  0  0  0  0
   14.2686  -18.4217   21.9466 C   0  0  0  0  0  0  0  0  0  0  0  0
   12.8718  -18.6463   21.4627 C   0  0  2  0  0  0  0  0  0  0  0  0
   12.6153  -17.7872   20.3261 N   0  0  0  0  0  0  0  0  0  0  0  0
   11.8972  -18.3002   22.5387 C   0  0  0  0  0  0  0  0  0  0  0  0
   11.2247  -17.2414   22.4916 O   0  0  0  0  0  0  0  0  0  0  0  0
   11.6972  -19.1635   23.6593 N   0  0  0  0  0  0  0  0  0  0  0  0
   10.7298  -18.9112   24.6959 C   0  0  1  0  0  0  0  0  0  0  0  0
    9.8626  -20.1388   24.9598 C   0  0  0  0  0  0  0  0  0  0  0  0
   10.7396  -21.2275   25.5355 C   0  0  0  0  0  0  0  0  0  0  0  0
    9.9381  -22.4017   25.8909 C   0  0  0  0  0  0  0  0  0  0  0  0
   10.0480  -22.9090   27.0200 O   0  0  0  0  0  0  0  0  0  0  0  0
   11.3607  -18.4257   25.9512 C   0  0  0  0  0  0  0  0  0  0  0  0
   12.5243  -18.7515   26.2195 O   0  0  0  0  0  0  0  0  0  0  0  0
    9.0488  -22.9769   25.0030 O   0  0  0  0  0  0  0  0  0  0  0  0
    9.3832  -13.9538   27.6094 N   0  0  0  0  0  0  0  0  0  0  0  0
   10.5734  -14.6953   27.6958 C   0  0  0  0  0  0  0  0  0  0  0  0
   11.5359  -14.3725   26.9610 O   0  0  0  0  0  0  0  0  0  0  0  0
   10.7100  -15.8140   28.6074 C   0  0  0  0  0  0  0  0  0  0  0  0
   11.2684  -17.0770   28.0769 C   0  0  2  0  0  0  0  0  0  0  0  0
   10.6706  -17.5809   26.8842 N   0  0  0  0  0  0  0  0  0  0  0  0
   11.2125  -18.1174   29.1316 C   0  0  0  0  0  0  0  0  0  0  0  0
   10.5699  -19.1655   28.8902 O   0  0  0  0  0  0  0  0  0  0  0  0
   11.8497  -17.9348   30.3437 O   0  0  0  0  0  0  0  0  0  0  0  0
  1  2  1  0
  2  3  1  0
  3  5  1  0
  3  4  1  6
  5  6  2  0
  7  8  1  0
  7  5  1  0
  8 13  1  0
  8  9  1  1
 10  9  1  0
 10 11  1  0
 11 12  2  0
 11 15  1  0
 13 21  1  0
 13 14  2  0
 17 16  1  0
 17 18  2  0
 19 17  1  0
 20 19  1  1
 21 20  1  0
 22 24  1  0
 22 20  1  0
 23 22  2  0
M  END
$$$$
