SEN.pdb
     RDKit          3D

 24 23  0  0  1  0  0  0  0  0999 V2000
    9.0196  -15.1607   14.4084 O   0  0  0  0  0  0  0  0  0  0  0  0
    9.3497  -15.1440   15.7792 C   0  0  0  0  0  0  0  0  0  0  0  0
    8.1503  -14.6787   16.5411 C   0  0  2  0  0  0  0  0  0  0  0  0
    7.8975  -13.2871   16.2322 N   0  0  0  0  0  0  0  0  0  0  0  0
    8.4015  -14.7929   18.0078 C   0  0  0  0  0  0  0  0  0  0  0  0
    9.2196  -14.0386   18.5886 O   0  0  0  0  0  0  0  0  0  0  0  0
    7.7185  -15.7658   18.8003 N   0  0  0  0  0  0  0  0  0  0  0  0
    7.9581  -15.9568   20.2075 C   0  0  1  0  0  0  0  0  0  0  0  0
    6.8635  -16.8045   20.8493 C   0  0  0  0  0  0  0  0  0  0  0  0
    7.0060  -18.2247   20.3506 C   0  0  0  0  0  0  0  0  0  0  0  0
    5.9873  -19.0881   20.9540 C   0  0  0  0  0  0  0  0  0  0  0  0
    6.3280  -20.1122   21.5699 O   0  0  0  0  0  0  0  0  0  0  0  0
    9.3026  -16.5296   20.4789 C   0  0  0  0  0  0  0  0  0  0  0  0
    9.8204  -17.2968   19.6570 O   0  0  0  0  0  0  0  0  0  0  0  0
    4.6382  -18.8022   20.8629 O   0  0  0  0  0  0  0  0  0  0  0  0
   14.2306  -17.0058   22.3405 N   0  0  0  0  0  0  0  0  0  0  0  0
   13.8077  -15.8311   21.6962 C   0  0  0  0  0  0  0  0  0  0  0  0
   14.6765  -15.0360   21.2677 O   0  0  0  0  0  0  0  0  0  0  0  0
   12.4025  -15.5229   21.5184 C   0  0  0  0  0  0  0  0  0  0  0  0
   11.4146  -16.5726   21.8512 C   0  0  2  0  0  0  0  0  0  0  0  0
   10.0422  -16.2289   21.6717 N   0  0  0  0  0  0  0  0  0  0  0  0
   11.6299  -17.0214   23.2476 C   0  0  0  0  0  0  0  0  0  0  0  0
   10.7346  -16.7757   24.0889 O   0  0  0  0  0  0  0  0  0  0  0  0
   12.7838  -17.6899   23.6088 O   0  0  0  0  0  0  0  0  0  0  0  0
  1  2  1  0
  2  3  1  0
  3  5  1  0
  3  4  1  1
  5  6  2  0
  7  8  1  0
  7  5  1  0
  8 13  1  0
  8  9  1  6
 10  9  1  0
 10 11  1  0
 11 12  2  0
 11 15  1  0
 13 21  1  0
 13 14  2  0
 17 16  1  0
 17 18  2  0
 19 17  1  0
 20 19  1  1
 21 20  1  0
 22 24  1  0
 22 20  1  0
 23 22  2  0
M  END
$$$$
