SEN.pdb
     RDKit          3D

 24 23  0  0  1  0  0  0  0  0999 V2000
    8.1781  -15.8889   17.6359 O   0  0  0  0  0  0  0  0  0  0  0  0
    9.4299  -16.0790   18.2566 C   0  0  0  0  0  0  0  0  0  0  0  0
   10.4732  -16.1501   17.1879 C   0  0  2  0  0  0  0  0  0  0  0  0
   10.3094  -17.3790   16.4404 N   0  0  0  0  0  0  0  0  0  0  0  0
   11.8333  -16.1553   17.8022 C   0  0  0  0  0  0  0  0  0  0  0  0
   12.3209  -17.2017   18.2947 O   0  0  0  0  0  0  0  0  0  0  0  0
   12.6264  -14.9679   17.8500 N   0  0  0  0  0  0  0  0  0  0  0  0
   13.9165  -14.8973   18.4862 C   0  0  1  0  0  0  0  0  0  0  0  0
   14.8032  -13.8412   17.8327 C   0  0  0  0  0  0  0  0  0  0  0  0
   16.1642  -13.8883   18.4895 C   0  0  0  0  0  0  0  0  0  0  0  0
   17.2155  -13.5624   17.5220 C   0  0  0  0  0  0  0  0  0  0  0  0
   18.2411  -14.2614   17.4615 O   0  0  0  0  0  0  0  0  0  0  0  0
   13.8118  -14.6714   19.9517 C   0  0  0  0  0  0  0  0  0  0  0  0
   12.8736  -14.0029   20.4045 O   0  0  0  0  0  0  0  0  0  0  0  0
   17.1084  -12.4884   16.6588 O   0  0  0  0  0  0  0  0  0  0  0  0
   11.7504  -14.7394   22.8502 N   0  0  0  0  0  0  0  0  0  0  0  0
   12.0131  -16.1071   22.6652 C   0  0  0  0  0  0  0  0  0  0  0  0
   11.0675  -16.9209   22.7834 O   0  0  0  0  0  0  0  0  0  0  0  0
   13.3410  -16.5915   22.3438 C   0  0  0  0  0  0  0  0  0  0  0  0
   14.4288  -15.5976   22.2116 C   0  0  2  0  0  0  0  0  0  0  0  0
   14.7659  -15.2021   20.8835 N   0  0  0  0  0  0  0  0  0  0  0  0
   15.6418  -16.1066   22.8953 C   0  0  0  0  0  0  0  0  0  0  0  0
   16.2995  -17.0109   22.3301 O   0  0  0  0  0  0  0  0  0  0  0  0
   16.0333  -15.5984   24.1189 O   0  0  0  0  0  0  0  0  0  0  0  0
  1  2  1  0
  2  3  1  0
  3  5  1  0
  3  4  1  1
  5  6  2  0
  7  8  1  0
  7  5  1  0
  8 13  1  0
  8  9  1  6
 10  9  1  0
 10 11  1  0
 11 12  2  0
 11 15  1  0
 13 21  1  0
 13 14  2  0
 17 16  1  0
 17 18  2  0
 19 17  1  0
 20 19  1  6
 21 20  1  0
 22 24  1  0
 22 20  1  0
 23 22  2  0
M  END
$$$$
