SEN.pdb
     RDKit          3D

 24 23  0  0  1  0  0  0  0  0999 V2000
    6.9846  -17.2580   21.5708 O   0  0  0  0  0  0  0  0  0  0  0  0
    6.3324  -18.3371   20.9395 C   0  0  0  0  0  0  0  0  0  0  0  0
    7.1897  -18.7997   19.8051 C   0  0  2  0  0  0  0  0  0  0  0  0
    6.4976  -19.8417   19.0764 N   0  0  0  0  0  0  0  0  0  0  0  0
    8.4672  -19.3661   20.3290 C   0  0  0  0  0  0  0  0  0  0  0  0
    8.5115  -20.5151   20.8324 O   0  0  0  0  0  0  0  0  0  0  0  0
    9.6834  -18.6185   20.2748 N   0  0  0  0  0  0  0  0  0  0  0  0
   10.9100  -19.0477   20.8956 C   0  0  1  0  0  0  0  0  0  0  0  0
   12.1275  -18.4488   20.1972 C   0  0  0  0  0  0  0  0  0  0  0  0
   13.3729  -19.0238   20.8329 C   0  0  0  0  0  0  0  0  0  0  0  0
   14.5755  -18.4664   20.2081 C   0  0  0  0  0  0  0  0  0  0  0  0
   15.4472  -17.9282   20.9114 O   0  0  0  0  0  0  0  0  0  0  0  0
   10.9368  -18.7579   22.3533 C   0  0  0  0  0  0  0  0  0  0  0  0
   10.7470  -17.6019   22.7531 O   0  0  0  0  0  0  0  0  0  0  0  0
   14.7813  -18.5171   18.8424 O   0  0  0  0  0  0  0  0  0  0  0  0
    8.2598  -20.3293   27.2572 N   0  0  0  0  0  0  0  0  0  0  0  0
    9.3960  -19.7449   26.6730 C   0  0  0  0  0  0  0  0  0  0  0  0
   10.2467  -19.2093   27.4211 O   0  0  0  0  0  0  0  0  0  0  0  0
    9.6026  -19.7485   25.2382 C   0  0  0  0  0  0  0  0  0  0  0  0
   10.9831  -19.5747   24.7358 C   0  0  2  0  0  0  0  0  0  0  0  0
   11.1768  -19.7751   23.3372 N   0  0  0  0  0  0  0  0  0  0  0  0
   11.8942  -20.4680   25.4907 C   0  0  0  0  0  0  0  0  0  0  0  0
   11.8621  -20.4191   26.7422 O   0  0  0  0  0  0  0  0  0  0  0  0
   12.7526  -21.3274   24.8323 O   0  0  0  0  0  0  0  0  0  0  0  0
  1  2  1  0
  2  3  1  0
  3  5  1  0
  3  4  1  1
  5  6  2  0
  7  8  1  0
  7  5  1  0
  8 13  1  0
  8  9  1  6
 10  9  1  0
 10 11  1  0
 11 12  2  0
 11 15  1  0
 13 21  1  0
 13 14  2  0
 17 16  1  0
 17 18  2  0
 19 17  1  0
 20 19  1  1
 21 20  1  0
 22 24  1  0
 22 20  1  0
 23 22  2  0
M  END
$$$$
