SEN.pdb
     RDKit          3D

 24 23  0  0  1  0  0  0  0  0999 V2000
    7.3712  -13.0538   17.9286 O   0  0  0  0  0  0  0  0  0  0  0  0
    8.0103  -13.6597   19.0299 C   0  0  0  0  0  0  0  0  0  0  0  0
    7.6877  -15.1196   19.0097 C   0  0  2  0  0  0  0  0  0  0  0  0
    6.3043  -15.3092   19.3918 N   0  0  0  0  0  0  0  0  0  0  0  0
    8.5466  -15.8455   19.9909 C   0  0  0  0  0  0  0  0  0  0  0  0
    8.0850  -16.2492   21.0861 O   0  0  0  0  0  0  0  0  0  0  0  0
    9.9243  -16.1053   19.7158 N   0  0  0  0  0  0  0  0  0  0  0  0
   10.7668  -16.9111   20.5613 C   0  0  1  0  0  0  0  0  0  0  0  0
   11.2125  -18.1862   19.8513 C   0  0  0  0  0  0  0  0  0  0  0  0
   12.0812  -18.9813   20.7994 C   0  0  0  0  0  0  0  0  0  0  0  0
   12.5827  -20.1934   20.1461 C   0  0  0  0  0  0  0  0  0  0  0  0
   12.5168  -21.2868   20.7329 O   0  0  0  0  0  0  0  0  0  0  0  0
   11.9363  -16.1541   21.0795 C   0  0  0  0  0  0  0  0  0  0  0  0
   12.9411  -16.0150   20.3700 O   0  0  0  0  0  0  0  0  0  0  0  0
   13.1360  -20.1669   18.8799 O   0  0  0  0  0  0  0  0  0  0  0  0
   11.9151  -17.6801   26.2214 N   0  0  0  0  0  0  0  0  0  0  0  0
   11.5211  -18.2665   25.0069 C   0  0  0  0  0  0  0  0  0  0  0  0
   11.3558  -19.5080   24.9662 O   0  0  0  0  0  0  0  0  0  0  0  0
   11.3042  -17.4739   23.8129 C   0  0  0  0  0  0  0  0  0  0  0  0
   12.1906  -16.3124   23.5807 C   0  0  2  0  0  0  0  0  0  0  0  0
   11.9553  -15.5658   22.3886 N   0  0  0  0  0  0  0  0  0  0  0  0
   13.6030  -16.7622   23.6077 C   0  0  0  0  0  0  0  0  0  0  0  0
   14.0766  -17.1472   24.7019 O   0  0  0  0  0  0  0  0  0  0  0  0
   14.3724  -16.7559   22.4602 O   0  0  0  0  0  0  0  0  0  0  0  0
  1  2  1  0
  2  3  1  0
  3  5  1  0
  3  4  1  1
  5  6  2  0
  7  8  1  0
  7  5  1  0
  8 13  1  0
  8  9  1  6
 10  9  1  0
 10 11  1  0
 11 12  2  0
 11 15  1  0
 13 21  1  0
 13 14  2  0
 17 16  1  0
 17 18  2  0
 19 17  1  0
 20 19  1  6
 21 20  1  0
 22 24  1  0
 22 20  1  0
 23 22  2  0
M  END
$$$$
