SEN.pdb
     RDKit          3D

 24 23  0  0  1  0  0  0  0  0999 V2000
    9.9164  -12.7747   18.9426 O   0  0  0  0  0  0  0  0  0  0  0  0
    9.0652  -12.8653   17.8219 C   0  0  0  0  0  0  0  0  0  0  0  0
    7.8272  -13.5946   18.2356 C   0  0  2  0  0  0  0  0  0  0  0  0
    6.9617  -12.6922   18.9653 N   0  0  0  0  0  0  0  0  0  0  0  0
    8.1813  -14.7313   19.1354 C   0  0  0  0  0  0  0  0  0  0  0  0
    8.0862  -14.6280   20.3827 O   0  0  0  0  0  0  0  0  0  0  0  0
    8.6407  -15.9763   18.6063 N   0  0  0  0  0  0  0  0  0  0  0  0
    9.0666  -17.0811   19.4262 C   0  0  1  0  0  0  0  0  0  0  0  0
    9.1313  -18.3778   18.6244 C   0  0  0  0  0  0  0  0  0  0  0  0
    8.2370  -19.3972   19.2929 C   0  0  0  0  0  0  0  0  0  0  0  0
    8.2447  -20.6585   18.5469 C   0  0  0  0  0  0  0  0  0  0  0  0
    8.6352  -21.7021   19.0970 O   0  0  0  0  0  0  0  0  0  0  0  0
   10.3596  -16.8125   20.1086 C   0  0  0  0  0  0  0  0  0  0  0  0
   10.9228  -15.7217   19.9497 O   0  0  0  0  0  0  0  0  0  0  0  0
    7.8270  -20.7334   17.2316 O   0  0  0  0  0  0  0  0  0  0  0  0
   12.6971  -16.1194   24.6484 N   0  0  0  0  0  0  0  0  0  0  0  0
   11.3239  -16.3346   24.4438 C   0  0  0  0  0  0  0  0  0  0  0  0
   10.5542  -16.2766   25.4310 O   0  0  0  0  0  0  0  0  0  0  0  0
   10.7846  -16.6191   23.1288 C   0  0  0  0  0  0  0  0  0  0  0  0
   11.5979  -17.4447   22.2092 C   0  0  2  0  0  0  0  0  0  0  0  0
   10.9973  -17.7769   20.9592 N   0  0  0  0  0  0  0  0  0  0  0  0
   12.0084  -18.6889   22.9029 C   0  0  0  0  0  0  0  0  0  0  0  0
   11.2241  -19.1761   23.7499 O   0  0  0  0  0  0  0  0  0  0  0  0
   13.2198  -19.2914   22.6231 O   0  0  0  0  0  0  0  0  0  0  0  0
  1  2  1  0
  2  3  1  0
  3  5  1  0
  3  4  1  1
  5  6  2  0
  7  8  1  0
  7  5  1  0
  8 13  1  0
  8  9  1  6
 10  9  1  0
 10 11  1  0
 11 12  2  0
 11 15  1  0
 13 21  1  0
 13 14  2  0
 17 16  1  0
 17 18  2  0
 19 17  1  0
 20 19  1  1
 21 20  1  0
 22 24  1  0
 22 20  1  0
 23 22  2  0
M  END
$$$$
