SEN.pdb
     RDKit          3D

 24 23  0  0  1  0  0  0  0  0999 V2000
    9.5334  -17.6810   15.6131 O   0  0  0  0  0  0  0  0  0  0  0  0
   10.1992  -17.9152   16.8339 C   0  0  0  0  0  0  0  0  0  0  0  0
   11.2824  -18.9164   16.5885 C   0  0  2  0  0  0  0  0  0  0  0  0
   10.6874  -20.1888   16.2383 N   0  0  0  0  0  0  0  0  0  0  0  0
   12.0928  -19.1053   17.8274 C   0  0  0  0  0  0  0  0  0  0  0  0
   11.7391  -19.9147   18.7192 O   0  0  0  0  0  0  0  0  0  0  0  0
   13.2993  -18.3703   18.0397 N   0  0  0  0  0  0  0  0  0  0  0  0
   14.1663  -18.5730   19.1717 C   0  0  1  0  0  0  0  0  0  0  0  0
   15.6125  -18.7879   18.7347 C   0  0  0  0  0  0  0  0  0  0  0  0
   16.0438  -17.5962   17.9103 C   0  0  0  0  0  0  0  0  0  0  0  0
   17.4297  -17.7539   17.4611 C   0  0  0  0  0  0  0  0  0  0  0  0
   18.2970  -16.9436   17.8291 O   0  0  0  0  0  0  0  0  0  0  0  0
   14.0684  -17.4696   20.1629 C   0  0  0  0  0  0  0  0  0  0  0  0
   13.9947  -16.2976   19.7717 O   0  0  0  0  0  0  0  0  0  0  0  0
   17.8163  -18.7875   16.6291 O   0  0  0  0  0  0  0  0  0  0  0  0
   10.7523  -18.2038   22.9821 N   0  0  0  0  0  0  0  0  0  0  0  0
   11.4322  -16.9745   22.9587 C   0  0  0  0  0  0  0  0  0  0  0  0
   10.8575  -15.9808   22.4561 O   0  0  0  0  0  0  0  0  0  0  0  0
   12.7702  -16.8332   23.4981 C   0  0  0  0  0  0  0  0  0  0  0  0
   13.8887  -16.6678   22.5442 C   0  0  2  0  0  0  0  0  0  0  0  0
   14.0549  -17.7043   21.5789 N   0  0  0  0  0  0  0  0  0  0  0  0
   15.1528  -16.4921   23.2987 C   0  0  0  0  0  0  0  0  0  0  0  0
   16.0731  -17.3200   23.1050 O   0  0  0  0  0  0  0  0  0  0  0  0
   15.3093  -15.4469   24.1885 O   0  0  0  0  0  0  0  0  0  0  0  0
  1  2  1  0
  2  3  1  0
  3  5  1  0
  3  4  1  1
  5  6  2  0
  7  8  1  0
  7  5  1  0
  8 13  1  0
  8  9  1  6
 10  9  1  0
 10 11  1  0
 11 12  2  0
 11 15  1  0
 13 21  1  0
 13 14  2  0
 17 16  1  0
 17 18  2  0
 19 17  1  0
 20 19  1  1
 21 20  1  0
 22 24  1  0
 22 20  1  0
 23 22  2  0
M  END
$$$$
