SEN.pdb
     RDKit          3D

 24 23  0  0  1  0  0  0  0  0999 V2000
    8.1181  -13.8560   16.1367 O   0  0  0  0  0  0  0  0  0  0  0  0
    9.0477  -14.8419   16.5269 C   0  0  0  0  0  0  0  0  0  0  0  0
    9.4127  -14.5977   17.9562 C   0  0  2  0  0  0  0  0  0  0  0  0
    9.8199  -13.2178   18.1169 N   0  0  0  0  0  0  0  0  0  0  0  0
   10.5584  -15.4709   18.3465 C   0  0  0  0  0  0  0  0  0  0  0  0
   10.4578  -16.7219   18.3313 O   0  0  0  0  0  0  0  0  0  0  0  0
   11.8090  -14.9111   18.7509 N   0  0  0  0  0  0  0  0  0  0  0  0
   12.9243  -15.7002   19.2066 C   0  0  1  0  0  0  0  0  0  0  0  0
   14.1150  -15.5813   18.2596 C   0  0  0  0  0  0  0  0  0  0  0  0
   14.3016  -14.1227   17.9086 C   0  0  0  0  0  0  0  0  0  0  0  0
   15.3807  -13.9613   16.9304 C   0  0  0  0  0  0  0  0  0  0  0  0
   16.5100  -13.6036   17.3059 O   0  0  0  0  0  0  0  0  0  0  0  0
   13.3184  -15.3689   20.6010 C   0  0  0  0  0  0  0  0  0  0  0  0
   14.5154  -15.3651   20.9164 O   0  0  0  0  0  0  0  0  0  0  0  0
   15.1875  -14.1959   15.5821 O   0  0  0  0  0  0  0  0  0  0  0  0
   10.1744  -17.5542   25.2997 N   0  0  0  0  0  0  0  0  0  0  0  0
   11.2469  -16.8111   24.7788 C   0  0  0  0  0  0  0  0  0  0  0  0
   12.2398  -16.5959   25.5124 O   0  0  0  0  0  0  0  0  0  0  0  0
   11.2292  -16.2937   23.4248 C   0  0  0  0  0  0  0  0  0  0  0  0
   12.4213  -15.5593   22.9472 C   0  0  2  0  0  0  0  0  0  0  0  0
   12.3577  -15.0471   21.6178 N   0  0  0  0  0  0  0  0  0  0  0  0
   13.6163  -16.4261   23.0829 C   0  0  0  0  0  0  0  0  0  0  0  0
   14.5896  -15.9873   23.7385 O   0  0  0  0  0  0  0  0  0  0  0  0
   13.6542  -17.6794   22.5027 O   0  0  0  0  0  0  0  0  0  0  0  0
  1  2  1  0
  2  3  1  0
  3  5  1  0
  3  4  1  6
  5  6  2  0
  7  8  1  0
  7  5  1  0
  8 13  1  0
  8  9  1  6
 10  9  1  0
 10 11  1  0
 11 12  2  0
 11 15  1  0
 13 21  1  0
 13 14  2  0
 17 16  1  0
 17 18  2  0
 19 17  1  0
 20 19  1  6
 21 20  1  0
 22 24  1  0
 22 20  1  0
 23 22  2  0
M  END
$$$$
