SEN.pdb
     RDKit          3D

 24 23  0  0  1  0  0  0  0  0999 V2000
    8.8099  -13.1247   20.0465 O   0  0  0  0  0  0  0  0  0  0  0  0
    7.4797  -13.5048   19.7735 C   0  0  0  0  0  0  0  0  0  0  0  0
    7.5123  -14.7367   18.9266 C   0  0  2  0  0  0  0  0  0  0  0  0
    6.1583  -15.1916   18.6913 N   0  0  0  0  0  0  0  0  0  0  0  0
    8.2531  -15.8224   19.6336 C   0  0  0  0  0  0  0  0  0  0  0  0
    7.6822  -16.5591   20.4743 O   0  0  0  0  0  0  0  0  0  0  0  0
    9.6383  -16.0596   19.3765 N   0  0  0  0  0  0  0  0  0  0  0  0
   10.4330  -17.0099   20.1109 C   0  0  1  0  0  0  0  0  0  0  0  0
   11.7034  -17.3798   19.3507 C   0  0  0  0  0  0  0  0  0  0  0  0
   12.4109  -18.4790   20.1103 C   0  0  0  0  0  0  0  0  0  0  0  0
   13.6417  -18.8736   19.4198 C   0  0  0  0  0  0  0  0  0  0  0  0
   13.8243  -18.5385   18.2373 O   0  0  0  0  0  0  0  0  0  0  0  0
   10.7529  -16.5376   21.4835 C   0  0  0  0  0  0  0  0  0  0  0  0
   10.7750  -15.3239   21.7256 O   0  0  0  0  0  0  0  0  0  0  0  0
   14.6250  -19.6175   20.0444 O   0  0  0  0  0  0  0  0  0  0  0  0
    8.1168  -14.7206   24.0798 N   0  0  0  0  0  0  0  0  0  0  0  0
    9.2960  -15.2941   24.5842 C   0  0  0  0  0  0  0  0  0  0  0  0
   10.1074  -14.5589   25.1936 O   0  0  0  0  0  0  0  0  0  0  0  0
    9.5904  -16.7034   24.4164 C   0  0  0  0  0  0  0  0  0  0  0  0
   10.9388  -17.0781   23.9369 C   0  0  2  0  0  0  0  0  0  0  0  0
   11.0427  -17.4400   22.5614 N   0  0  0  0  0  0  0  0  0  0  0  0
   11.4673  -18.1802   24.7760 C   0  0  0  0  0  0  0  0  0  0  0  0
   11.6287  -19.3014   24.2406 O   0  0  0  0  0  0  0  0  0  0  0  0
   11.7716  -17.9754   26.1080 O   0  0  0  0  0  0  0  0  0  0  0  0
  1  2  1  0
  2  3  1  0
  3  5  1  0
  3  4  1  1
  5  6  2  0
  7  8  1  0
  7  5  1  0
  8 13  1  0
  8  9  1  6
 10  9  1  0
 10 11  1  0
 11 12  2  0
 11 15  1  0
 13 21  1  0
 13 14  2  0
 17 16  1  0
 17 18  2  0
 19 17  1  0
 20 19  1  1
 21 20  1  0
 22 24  1  0
 22 20  1  0
 23 22  2  0
M  END
$$$$
