SEN.pdb
     RDKit          3D

 24 23  0  0  1  0  0  0  0  0999 V2000
    6.9318  -24.6448   28.8895 O   0  0  0  0  0  0  0  0  0  0  0  0
    6.7944  -25.8369   28.1490 C   0  0  0  0  0  0  0  0  0  0  0  0
    7.4757  -25.6475   26.8315 C   0  0  2  0  0  0  0  0  0  0  0  0
    7.2299  -26.8034   25.9953 N   0  0  0  0  0  0  0  0  0  0  0  0
    8.9491  -25.5217   27.0325 C   0  0  0  0  0  0  0  0  0  0  0  0
    9.6277  -26.4750   27.4866 O   0  0  0  0  0  0  0  0  0  0  0  0
    9.6369  -24.3106   26.7142 N   0  0  0  0  0  0  0  0  0  0  0  0
   11.0380  -24.0995   26.9719 C   0  0  1  0  0  0  0  0  0  0  0  0
   11.6543  -23.1443   25.9539 C   0  0  0  0  0  0  0  0  0  0  0  0
   13.1504  -23.1176   26.1697 C   0  0  0  0  0  0  0  0  0  0  0  0
   13.7879  -22.1737   25.2477 C   0  0  0  0  0  0  0  0  0  0  0  0
   14.3937  -21.1844   25.6933 O   0  0  0  0  0  0  0  0  0  0  0  0
   11.2930  -23.6341   28.3604 C   0  0  0  0  0  0  0  0  0  0  0  0
   12.4215  -23.7610   28.8531 O   0  0  0  0  0  0  0  0  0  0  0  0
   13.7407  -22.3444   23.8770 O   0  0  0  0  0  0  0  0  0  0  0  0
   10.3553  -26.1102   31.7627 N   0  0  0  0  0  0  0  0  0  0  0  0
    9.9429  -24.7679   31.7185 C   0  0  0  0  0  0  0  0  0  0  0  0
    8.7305  -24.5068   31.8983 O   0  0  0  0  0  0  0  0  0  0  0  0
   10.8805  -23.6902   31.4721 C   0  0  0  0  0  0  0  0  0  0  0  0
   10.4823  -22.6278   30.5228 C   0  0  2  0  0  0  0  0  0  0  0  0
   10.2727  -23.0333   29.1717 N   0  0  0  0  0  0  0  0  0  0  0  0
   11.4874  -21.5386   30.5584 C   0  0  0  0  0  0  0  0  0  0  0  0
   11.8778  -21.1351   31.6784 O   0  0  0  0  0  0  0  0  0  0  0  0
   11.9772  -20.9859   29.3907 O   0  0  0  0  0  0  0  0  0  0  0  0
  1  2  1  0
  2  3  1  0
  3  5  1  0
  3  4  1  6
  5  6  2  0
  7  8  1  0
  7  5  1  0
  8 13  1  0
  8  9  1  6
 10  9  1  0
 10 11  1  0
 11 12  2  0
 11 15  1  0
 13 21  1  0
 13 14  2  0
 17 16  1  0
 17 18  2  0
 19 17  1  0
 20 19  1  1
 21 20  1  0
 22 24  1  0
 22 20  1  0
 23 22  2  0
M  END
$$$$
