SEN.pdb
     RDKit          3D

 24 23  0  0  1  0  0  0  0  0999 V2000
    8.1931  -15.6771   17.9079 O   0  0  0  0  0  0  0  0  0  0  0  0
    8.1422  -14.2909   17.6544 C   0  0  0  0  0  0  0  0  0  0  0  0
    7.9051  -13.5887   18.9530 C   0  0  2  0  0  0  0  0  0  0  0  0
    7.7853  -12.1661   18.7129 N   0  0  0  0  0  0  0  0  0  0  0  0
    9.0600  -13.8113   19.8717 C   0  0  0  0  0  0  0  0  0  0  0  0
   10.1246  -13.1579   19.7488 O   0  0  0  0  0  0  0  0  0  0  0  0
    8.9921  -14.7766   20.9227 N   0  0  0  0  0  0  0  0  0  0  0  0
   10.0895  -15.0673   21.8089 C   0  0  1  0  0  0  0  0  0  0  0  0
    9.6486  -15.9539   22.9699 C   0  0  0  0  0  0  0  0  0  0  0  0
   10.7964  -16.0653   23.9477 C   0  0  0  0  0  0  0  0  0  0  0  0
   10.4439  -16.9542   25.0580 C   0  0  0  0  0  0  0  0  0  0  0  0
    9.6886  -16.5519   25.9590 O   0  0  0  0  0  0  0  0  0  0  0  0
   11.2493  -15.6630   21.0951 C   0  0  0  0  0  0  0  0  0  0  0  0
   11.0628  -16.3259   20.0665 O   0  0  0  0  0  0  0  0  0  0  0  0
   10.9277  -18.2460   25.1433 O   0  0  0  0  0  0  0  0  0  0  0  0
   15.6649  -13.4861   18.4019 N   0  0  0  0  0  0  0  0  0  0  0  0
   14.9064  -14.6366   18.6754 C   0  0  0  0  0  0  0  0  0  0  0  0
   15.2325  -15.7146   18.1259 O   0  0  0  0  0  0  0  0  0  0  0  0
   13.7666  -14.6031   19.5703 C   0  0  0  0  0  0  0  0  0  0  0  0
   13.7336  -15.5716   20.6881 C   0  0  2  0  0  0  0  0  0  0  0  0
   12.6007  -15.5023   21.5515 N   0  0  0  0  0  0  0  0  0  0  0  0
   14.9722  -15.4337   21.4912 C   0  0  0  0  0  0  0  0  0  0  0  0
   15.9681  -16.1169   21.1579 O   0  0  0  0  0  0  0  0  0  0  0  0
   15.0246  -14.5776   22.5743 O   0  0  0  0  0  0  0  0  0  0  0  0
  1  2  1  0
  2  3  1  0
  3  5  1  0
  3  4  1  6
  5  6  2  0
  7  8  1  0
  7  5  1  0
  8 13  1  0
  8  9  1  1
 10  9  1  0
 10 11  1  0
 11 12  2  0
 11 15  1  0
 13 21  1  0
 13 14  2  0
 17 16  1  0
 17 18  2  0
 19 17  1  0
 20 19  1  6
 21 20  1  0
 22 24  1  0
 22 20  1  0
 23 22  2  0
M  END
$$$$
