RRS.pdb
     RDKit          3D

 29 28  0  0  1  0  0  0  0  0999 V2000
   19.4804  -20.7034  -13.8589 N   0  0  0  0  0  0  0  0  0  0  0  0
   19.4981  -21.9090  -13.0898 C   0  0  0  0  0  0  0  0  0  0  0  0
   18.7999  -22.9197  -13.4106 N   0  0  0  0  0  0  0  0  0  0  0  0
   20.3264  -21.9834  -11.9276 N   0  0  0  0  0  0  0  0  0  0  0  0
   21.4437  -21.1216  -11.6806 C   0  0  0  0  0  0  0  0  0  0  0  0
   22.6471  -21.4843  -12.5258 C   0  0  0  0  0  0  0  0  0  0  0  0
   23.8050  -20.5614  -12.2831 C   0  0  0  0  0  0  0  0  0  0  0  0
   24.5934  -20.9027  -11.0274 C   0  0  2  0  0  0  0  0  0  0  0  0
   23.9567  -20.3121   -9.8807 N   0  0  0  0  0  0  0  0  0  0  0  0
   26.0018  -20.4225  -11.1639 C   0  0  0  0  0  0  0  0  0  0  0  0
   26.2867  -19.2236  -11.0744 O   0  0  0  0  0  0  0  0  0  0  0  0
   18.7858  -23.7590  -12.7930 N   0  0  0  0  0  0  0  0  0  0  0  0
   32.4167  -24.4744  -12.3298 C   0  0  0  0  0  0  0  0  0  0  0  0
   33.3522  -23.4128  -12.4221 N   0  0  0  0  0  0  0  0  0  0  0  0
   34.4773  -23.5400  -13.0641 N   0  0  0  0  0  0  0  0  0  0  0  0
   33.1091  -22.1587  -11.8193 C   0  0  0  0  0  0  0  0  0  0  0  0
   31.8777  -21.7960  -11.2019 C   0  0  0  0  0  0  0  0  0  0  0  0
   30.7622  -21.5688  -12.2162 C   0  0  0  0  0  0  0  0  0  0  0  0
   29.4301  -21.9807  -11.6283 C   0  0  2  0  0  0  0  0  0  0  0  0
   28.3302  -20.9991  -11.9755 N   0  0  0  0  0  0  0  0  0  0  0  0
   27.0751  -21.3441  -11.4013 C   0  0  0  0  0  0  0  0  0  0  0  0
   28.2358  -20.9320  -13.4564 O   0  0  0  0  0  0  0  0  0  0  0  0
   27.8518  -21.9987  -14.0283 O   0  0  0  0  0  0  0  0  0  0  0  0
   35.1078  -22.6876  -13.0710 C   0  0  0  0  0  0  0  0  0  0  0  0
   27.9725  -17.3808  -15.5335 C   0  0  1  0  0  0  0  0  0  0  0  0
   28.8592  -18.2884  -16.1275 N   0  0  0  0  0  0  0  0  0  0  0  0
   28.5178  -19.6697  -15.6658 C   0  0  0  0  0  0  0  0  0  0  0  0
   28.5307  -19.8106  -14.2354 O   0  0  0  0  0  0  0  0  0  0  0  0
   29.1734  -20.7190  -16.4474 O   0  0  0  0  0  0  0  0  0  0  0  0
  2  1  1  0
  3  2  2  0
  4  2  1  0
  5  4  1  0
  6  5  1  0
  7  6  1  0
  8 10  1  0
  8  7  1  0
  8  9  1  1
 10 11  2  0
 13 12  1  0
 14 13  2  0
 15 13  1  0
 16 15  1  0
 17 16  1  0
 18 17  1  0
 19 18  1  1
 19 21  1  0
 20 10  1  0
 20 19  1  0
 21 26  1  0
 21 22  2  0
 23 24  1  0
 25 24  1  6
 25 27  1  0
 26 25  1  0
 27 28  2  0
 27 29  1  0
M  END
$$$$
