RRS.pdb
     RDKit          3D

 29 28  0  0  1  0  0  0  0  0999 V2000
   27.7798  -19.7966  -19.5599 N   0  0  0  0  0  0  0  0  0  0  0  0
   26.3992  -19.5286  -19.8192 C   0  0  0  0  0  0  0  0  0  0  0  0
   25.9783  -19.2419  -20.9822 N   0  0  0  0  0  0  0  0  0  0  0  0
   25.4624  -19.5870  -18.7415 N   0  0  0  0  0  0  0  0  0  0  0  0
   25.8144  -19.8894  -17.3862 C   0  0  0  0  0  0  0  0  0  0  0  0
   25.4139  -21.2949  -16.9884 C   0  0  0  0  0  0  0  0  0  0  0  0
   24.1178  -21.3190  -16.2327 C   0  0  0  0  0  0  0  0  0  0  0  0
   24.3014  -21.4453  -14.7276 C   0  0  2  0  0  0  0  0  0  0  0  0
   25.2337  -22.5023  -14.4407 N   0  0  0  0  0  0  0  0  0  0  0  0
   22.9828  -21.7026  -14.0735 C   0  0  0  0  0  0  0  0  0  0  0  0
   22.2039  -22.5589  -14.5054 O   0  0  0  0  0  0  0  0  0  0  0  0
   24.9584  -19.1046  -21.1468 N   0  0  0  0  0  0  0  0  0  0  0  0
   19.7584  -24.0912   -7.7748 C   0  0  0  0  0  0  0  0  0  0  0  0
   18.7793  -23.0719   -7.8904 N   0  0  0  0  0  0  0  0  0  0  0  0
   17.5149  -23.3052   -7.6879 N   0  0  0  0  0  0  0  0  0  0  0  0
   19.1286  -21.7468   -8.2327 C   0  0  0  0  0  0  0  0  0  0  0  0
   20.2910  -21.3954   -8.9772 C   0  0  0  0  0  0  0  0  0  0  0  0
   19.9623  -20.5649  -10.2129 C   0  0  0  0  0  0  0  0  0  0  0  0
   21.2243  -20.2678  -10.9931 C   0  0  2  0  0  0  0  0  0  0  0  0
   21.3421  -21.1334  -12.2303 N   0  0  0  0  0  0  0  0  0  0  0  0
   22.5780  -20.9615  -12.9138 C   0  0  0  0  0  0  0  0  0  0  0  0
   20.1955  -20.8109  -13.1179 O   0  0  0  0  0  0  0  0  0  0  0  0
   20.2170  -19.6534  -13.6395 O   0  0  0  0  0  0  0  0  0  0  0  0
   16.8572  -22.4939   -7.8705 C   0  0  0  0  0  0  0  0  0  0  0  0
   16.9727  -23.4993  -13.6939 C   0  0  1  0  0  0  0  0  0  0  0  0
   17.3694  -22.6925  -14.7684 N   0  0  0  0  0  0  0  0  0  0  0  0
   17.9759  -21.4354  -14.2304 C   0  0  0  0  0  0  0  0  0  0  0  0
   19.1313  -21.6682  -13.4078 O   0  0  0  0  0  0  0  0  0  0  0  0
   16.9834  -20.4806  -13.7352 O   0  0  0  0  0  0  0  0  0  0  0  0
  2  1  1  0
  3  2  2  0
  4  2  1  0
  5  4  1  0
  6  5  1  0
  7  6  1  0
  8 10  1  0
  8  7  1  0
  8  9  1  6
 10 11  2  0
 13 12  1  0
 14 13  2  0
 15 13  1  0
 16 15  1  0
 17 16  1  0
 18 17  1  0
 19 18  1  1
 19 21  1  0
 20 10  1  0
 20 19  1  0
 21 26  1  0
 21 22  2  0
 23 24  1  0
 25 24  1  1
 25 27  1  0
 26 25  1  0
 27 28  2  0
 27 29  1  0
M  END
$$$$
