RRS.pdb
     RDKit          3D

 29 28  0  0  1  0  0  0  0  0999 V2000
   29.5597  -22.9322  -16.3977 N   0  0  0  0  0  0  0  0  0  0  0  0
   28.4884  -23.8340  -16.6877 C   0  0  0  0  0  0  0  0  0  0  0  0
   28.6563  -25.0924  -16.7035 N   0  0  0  0  0  0  0  0  0  0  0  0
   27.1889  -23.3079  -16.9652 N   0  0  0  0  0  0  0  0  0  0  0  0
   26.8201  -21.9366  -16.7771 C   0  0  0  0  0  0  0  0  0  0  0  0
   26.9769  -21.4916  -15.3378 C   0  0  0  0  0  0  0  0  0  0  0  0
   26.5096  -20.0810  -15.1300 C   0  0  0  0  0  0  0  0  0  0  0  0
   25.3444  -19.9704  -14.1578 C   0  0  2  0  0  0  0  0  0  0  0  0
   25.2719  -21.1596  -13.3519 N   0  0  0  0  0  0  0  0  0  0  0  0
   24.0716  -19.7556  -14.9105 C   0  0  0  0  0  0  0  0  0  0  0  0
   23.9284  -18.7970  -15.6766 O   0  0  0  0  0  0  0  0  0  0  0  0
   27.8539  -25.7212  -16.9195 N   0  0  0  0  0  0  0  0  0  0  0  0
   23.1867  -25.6145  -14.5217 C   0  0  0  0  0  0  0  0  0  0  0  0
   23.5376  -25.8360  -15.8777 N   0  0  0  0  0  0  0  0  0  0  0  0
   24.4753  -26.6720  -16.2187 N   0  0  0  0  0  0  0  0  0  0  0  0
   22.8846  -25.1578  -16.9307 C   0  0  0  0  0  0  0  0  0  0  0  0
   21.8530  -24.1942  -16.7400 C   0  0  0  0  0  0  0  0  0  0  0  0
   22.3733  -22.8963  -16.1323 C   0  0  0  0  0  0  0  0  0  0  0  0
   21.2505  -21.8891  -16.0123 C   0  0  2  0  0  0  0  0  0  0  0  0
   21.7372  -20.5602  -15.4727 N   0  0  0  0  0  0  0  0  0  0  0  0
   22.9697  -20.6632  -14.7696 C   0  0  0  0  0  0  0  0  0  0  0  0
   20.6708  -20.0107  -14.5968 O   0  0  0  0  0  0  0  0  0  0  0  0
   20.9197  -20.0351  -13.3518 O   0  0  0  0  0  0  0  0  0  0  0  0
   24.6748  -26.7487  -17.2572 C   0  0  0  0  0  0  0  0  0  0  0  0
   18.7679  -16.4318  -13.1792 C   0  0  1  0  0  0  0  0  0  0  0  0
   19.5893  -17.4520  -13.6766 N   0  0  0  0  0  0  0  0  0  0  0  0
   18.8180  -18.2460  -14.6827 C   0  0  0  0  0  0  0  0  0  0  0  0
   19.4535  -19.4856  -15.0370 O   0  0  0  0  0  0  0  0  0  0  0  0
   18.2836  -17.4318  -15.7750 O   0  0  0  0  0  0  0  0  0  0  0  0
  2  1  1  0
  3  2  2  0
  4  2  1  0
  5  4  1  0
  6  5  1  0
  7  6  1  0
  8 10  1  0
  8  7  1  0
  8  9  1  6
 10 11  2  0
 13 12  1  0
 14 13  2  0
 15 13  1  0
 16 15  1  0
 17 16  1  0
 18 17  1  0
 19 18  1  6
 19 21  1  0
 20 10  1  0
 20 19  1  0
 21 26  1  0
 21 22  2  0
 23 24  1  0
 25 24  1  6
 25 27  1  0
 26 25  1  0
 27 28  2  0
 27 29  1  0
M  END
$$$$
