RRS.pdb
     RDKit          3D

 29 28  0  0  1  0  0  0  0  0999 V2000
   12.6653  -29.4185   -4.5347 N   0  0  0  0  0  0  0  0  0  0  0  0
   13.4215  -30.1488   -5.5042 C   0  0  0  0  0  0  0  0  0  0  0  0
   12.8683  -30.9372   -6.3315 N   0  0  0  0  0  0  0  0  0  0  0  0
   14.8407  -29.9871   -5.5486 N   0  0  0  0  0  0  0  0  0  0  0  0
   15.5742  -29.0909   -4.7055 C   0  0  0  0  0  0  0  0  0  0  0  0
   15.5410  -27.6652   -5.2157 C   0  0  0  0  0  0  0  0  0  0  0  0
   16.3621  -26.7425   -4.3638 C   0  0  0  0  0  0  0  0  0  0  0  0
   16.3241  -25.2960   -4.8342 C   0  0  2  0  0  0  0  0  0  0  0  0
   17.5595  -24.9692   -5.4945 N   0  0  0  0  0  0  0  0  0  0  0  0
   16.0821  -24.3886   -3.6720 C   0  0  0  0  0  0  0  0  0  0  0  0
   17.0081  -24.0010   -2.9516 O   0  0  0  0  0  0  0  0  0  0  0  0
   13.4499  -31.4586   -7.0213 N   0  0  0  0  0  0  0  0  0  0  0  0
   10.2408  -18.0461   -2.3410 C   0  0  0  0  0  0  0  0  0  0  0  0
   10.8301  -18.3636   -1.0909 N   0  0  0  0  0  0  0  0  0  0  0  0
   11.1434  -17.4446   -0.2239 N   0  0  0  0  0  0  0  0  0  0  0  0
   11.1079  -19.6985   -0.7223 C   0  0  0  0  0  0  0  0  0  0  0  0
   11.3992  -20.7382   -1.6513 C   0  0  0  0  0  0  0  0  0  0  0  0
   12.7861  -21.3356   -1.4411 C   0  0  0  0  0  0  0  0  0  0  0  0
   13.0599  -22.3989   -2.4824 C   0  0  2  0  0  0  0  0  0  0  0  0
   14.4468  -22.9899   -2.3369 N   0  0  0  0  0  0  0  0  0  0  0  0
   14.7593  -23.9327   -3.3555 C   0  0  0  0  0  0  0  0  0  0  0  0
   14.5329  -23.6141   -0.9917 O   0  0  0  0  0  0  0  0  0  0  0  0
   13.9774  -24.7505   -0.8800 O   0  0  0  0  0  0  0  0  0  0  0  0
   11.6282  -17.7819    0.6567 C   0  0  0  0  0  0  0  0  0  0  0  0
   16.4487  -23.5122    3.5044 C   0  0  2  0  0  0  0  0  0  0  0  0
   16.2787  -22.8310    2.2920 N   0  0  0  0  0  0  0  0  0  0  0  0
   15.2885  -23.5761    1.4541 C   0  0  0  0  0  0  0  0  0  0  0  0
   15.1640  -23.0530    0.1211 O   0  0  0  0  0  0  0  0  0  0  0  0
   14.0504  -23.8929    2.1669 O   0  0  0  0  0  0  0  0  0  0  0  0
  2  1  1  0
  3  2  2  0
  4  2  1  0
  5  4  1  0
  6  5  1  0
  7  6  1  0
  8 10  1  0
  8  7  1  0
  8  9  1  1
 10 11  2  0
 13 12  1  0
 14 13  2  0
 15 13  1  0
 16 15  1  0
 17 16  1  0
 18 17  1  0
 19 18  1  6
 19 21  1  0
 20 10  1  0
 20 19  1  0
 21 26  1  0
 21 22  2  0
 23 24  1  0
 25 24  1  1
 25 27  1  0
 26 25  1  0
 27 28  2  0
 27 29  1  0
M  END
$$$$
