RRS.pdb
     RDKit          3D

 29 28  0  0  1  0  0  0  0  0999 V2000
   26.8631  -12.4262  -23.7489 N   0  0  0  0  0  0  0  0  0  0  0  0
   26.4661  -13.5032  -24.6020 C   0  0  0  0  0  0  0  0  0  0  0  0
   27.0752  -13.7600  -25.6859 N   0  0  0  0  0  0  0  0  0  0  0  0
   25.3540  -14.3181  -24.2257 N   0  0  0  0  0  0  0  0  0  0  0  0
   24.6394  -14.1825  -22.9916 C   0  0  0  0  0  0  0  0  0  0  0  0
   25.4492  -14.6585  -21.8035 C   0  0  0  0  0  0  0  0  0  0  0  0
   24.7153  -14.4682  -20.5086 C   0  0  0  0  0  0  0  0  0  0  0  0
   23.5331  -15.4115  -20.3429 C   0  0  2  0  0  0  0  0  0  0  0  0
   23.6322  -16.4840  -21.2964 N   0  0  0  0  0  0  0  0  0  0  0  0
   22.2533  -14.6594  -20.5147 C   0  0  0  0  0  0  0  0  0  0  0  0
   21.7278  -14.5242  -21.6246 O   0  0  0  0  0  0  0  0  0  0  0  0
   26.7282  -14.5191  -26.3099 N   0  0  0  0  0  0  0  0  0  0  0  0
   17.2298  -16.2723  -15.0994 C   0  0  0  0  0  0  0  0  0  0  0  0
   16.6015  -15.5426  -16.1404 N   0  0  0  0  0  0  0  0  0  0  0  0
   15.3062  -15.4596  -16.2386 N   0  0  0  0  0  0  0  0  0  0  0  0
   17.3529  -14.8665  -17.1270 C   0  0  0  0  0  0  0  0  0  0  0  0
   16.9510  -13.6434  -17.7366 C   0  0  0  0  0  0  0  0  0  0  0  0
   17.9937  -13.1085  -18.7119 C   0  0  0  0  0  0  0  0  0  0  0  0
   19.2977  -13.8578  -18.5449 C   0  0  2  0  0  0  0  0  0  0  0  0
   20.3797  -13.3220  -19.4593 N   0  0  0  0  0  0  0  0  0  0  0  0
   21.5881  -14.0697  -19.3888 C   0  0  0  0  0  0  0  0  0  0  0  0
   20.6135  -11.9004  -19.0976 O   0  0  0  0  0  0  0  0  0  0  0  0
   21.2754  -11.7097  -18.0309 O   0  0  0  0  0  0  0  0  0  0  0  0
   14.9376  -14.8257  -17.0045 C   0  0  0  0  0  0  0  0  0  0  0  0
   21.2792   -7.3532  -20.3065 C   0  0  2  0  0  0  0  0  0  0  0  0
   21.0032   -8.6666  -20.7084 N   0  0  0  0  0  0  0  0  0  0  0  0
   20.3650   -9.3964  -19.5692 C   0  0  0  0  0  0  0  0  0  0  0  0
   20.1691  -10.7964  -19.8291 O   0  0  0  0  0  0  0  0  0  0  0  0
   19.2497   -8.6653  -18.9666 O   0  0  0  0  0  0  0  0  0  0  0  0
  2  1  1  0
  3  2  2  0
  4  2  1  0
  5  4  1  0
  6  5  1  0
  7  6  1  0
  8 10  1  0
  8  7  1  0
  8  9  1  6
 10 11  2  0
 13 12  1  0
 14 13  2  0
 15 13  1  0
 16 15  1  0
 17 16  1  0
 18 17  1  0
 19 18  1  6
 19 21  1  0
 20 10  1  0
 20 19  1  0
 21 26  1  0
 21 22  2  0
 23 24  1  0
 25 24  1  6
 25 27  1  0
 26 25  1  0
 27 28  2  0
 27 29  1  0
M  END
$$$$
