RRS.pdb
     RDKit          3D

 29 28  0  0  1  0  0  0  0  0999 V2000
   23.6310  -21.7337  -18.9879 N   0  0  0  0  0  0  0  0  0  0  0  0
   23.7881  -22.5881  -20.1239 C   0  0  0  0  0  0  0  0  0  0  0  0
   24.7214  -22.4177  -20.9676 N   0  0  0  0  0  0  0  0  0  0  0  0
   22.8720  -23.6678  -20.3173 N   0  0  0  0  0  0  0  0  0  0  0  0
   21.7670  -23.9492  -19.4503 C   0  0  0  0  0  0  0  0  0  0  0  0
   22.2054  -24.5913  -18.1504 C   0  0  0  0  0  0  0  0  0  0  0  0
   21.0389  -25.0657  -17.3346 C   0  0  0  0  0  0  0  0  0  0  0  0
   21.4498  -25.7666  -16.0482 C   0  0  2  0  0  0  0  0  0  0  0  0
   22.1281  -26.9956  -16.3621 N   0  0  0  0  0  0  0  0  0  0  0  0
   20.2462  -26.0213  -15.2000 C   0  0  0  0  0  0  0  0  0  0  0  0
   19.4136  -26.8825  -15.5025 O   0  0  0  0  0  0  0  0  0  0  0  0
   24.8128  -23.0645  -21.7794 N   0  0  0  0  0  0  0  0  0  0  0  0
   21.6969  -28.8589  -12.5116 C   0  0  0  0  0  0  0  0  0  0  0  0
   21.2085  -29.4331  -11.3105 N   0  0  0  0  0  0  0  0  0  0  0  0
   21.5920  -30.6085  -10.9033 N   0  0  0  0  0  0  0  0  0  0  0  0
   20.2775  -28.7557  -10.4924 C   0  0  0  0  0  0  0  0  0  0  0  0
   19.4492  -27.6878  -10.9425 C   0  0  0  0  0  0  0  0  0  0  0  0
   20.2344  -26.4033  -11.1836 C   0  0  0  0  0  0  0  0  0  0  0  0
   19.3065  -25.3046  -11.6543 C   0  0  2  0  0  0  0  0  0  0  0  0
   18.9254  -25.4707  -13.1107 N   0  0  0  0  0  0  0  0  0  0  0  0
   20.0194  -25.2717  -13.9981 C   0  0  0  0  0  0  0  0  0  0  0  0
   17.8257  -24.5155  -13.4015 O   0  0  0  0  0  0  0  0  0  0  0  0
   18.1122  -23.2884  -13.2453 O   0  0  0  0  0  0  0  0  0  0  0  0
   21.1685  -30.9458   -9.9917 C   0  0  0  0  0  0  0  0  0  0  0  0
   13.6246  -25.4736  -13.8726 C   0  0  2  0  0  0  0  0  0  0  0  0
   14.3204  -24.7548  -14.8535 N   0  0  0  0  0  0  0  0  0  0  0  0
   15.4462  -24.0153  -14.2030 C   0  0  0  0  0  0  0  0  0  0  0  0
   16.5405  -24.8659  -13.8220 O   0  0  0  0  0  0  0  0  0  0  0  0
   14.9976  -23.0236  -13.2247 O   0  0  0  0  0  0  0  0  0  0  0  0
  2  1  1  0
  3  2  2  0
  4  2  1  0
  5  4  1  0
  6  5  1  0
  7  6  1  0
  8 10  1  0
  8  7  1  0
  8  9  1  6
 10 11  2  0
 13 12  1  0
 14 13  2  0
 15 13  1  0
 16 15  1  0
 17 16  1  0
 18 17  1  0
 19 18  1  1
 19 21  1  0
 20 10  1  0
 20 19  1  0
 21 26  1  0
 21 22  2  0
 23 24  1  0
 25 24  1  6
 25 27  1  0
 26 25  1  0
 27 28  2  0
 27 29  1  0
M  END
$$$$
