RRS.pdb
     RDKit          3D

 29 28  0  0  1  0  0  0  0  0999 V2000
   15.6611  -21.5687  -12.2158 N   0  0  0  0  0  0  0  0  0  0  0  0
   16.2532  -22.4686  -11.2752 C   0  0  0  0  0  0  0  0  0  0  0  0
   15.8491  -23.6652  -11.1457 N   0  0  0  0  0  0  0  0  0  0  0  0
   17.3330  -22.0128  -10.4576 N   0  0  0  0  0  0  0  0  0  0  0  0
   17.9180  -20.7086  -10.5525 C   0  0  0  0  0  0  0  0  0  0  0  0
   18.9567  -20.6233  -11.6516 C   0  0  0  0  0  0  0  0  0  0  0  0
   20.1448  -21.4964  -11.3732 C   0  0  0  0  0  0  0  0  0  0  0  0
   21.3697  -20.7178  -10.9168 C   0  0  2  0  0  0  0  0  0  0  0  0
   20.9642  -19.6374  -10.0582 N   0  0  0  0  0  0  0  0  0  0  0  0
   22.1191  -20.2057  -12.1038 C   0  0  0  0  0  0  0  0  0  0  0  0
   21.9515  -19.0570  -12.5268 O   0  0  0  0  0  0  0  0  0  0  0  0
   16.2576  -24.2746  -10.4056 N   0  0  0  0  0  0  0  0  0  0  0  0
   28.9761  -21.2395  -17.3135 C   0  0  0  0  0  0  0  0  0  0  0  0
   28.8290  -22.3357  -16.4260 N   0  0  0  0  0  0  0  0  0  0  0  0
   29.7730  -23.2155  -16.2558 N   0  0  0  0  0  0  0  0  0  0  0  0
   27.6457  -22.5286  -15.6792 C   0  0  0  0  0  0  0  0  0  0  0  0
   26.3335  -22.4314  -16.2249 C   0  0  0  0  0  0  0  0  0  0  0  0
   25.5436  -21.2666  -15.6383 C   0  0  0  0  0  0  0  0  0  0  0  0
   24.7075  -21.7391  -14.4690 C   0  0  2  0  0  0  0  0  0  0  0  0
   23.7742  -20.6572  -13.9665 N   0  0  0  0  0  0  0  0  0  0  0  0
   23.0655  -21.0352  -12.7922 C   0  0  0  0  0  0  0  0  0  0  0  0
   22.8357  -20.3230  -15.0682 O   0  0  0  0  0  0  0  0  0  0  0  0
   21.8518  -21.1137  -15.2067 O   0  0  0  0  0  0  0  0  0  0  0  0
   29.5615  -23.9983  -15.5726 C   0  0  0  0  0  0  0  0  0  0  0  0
   20.6586  -16.6543  -16.2853 C   0  0  2  0  0  0  0  0  0  0  0  0
   20.8494  -17.9863  -15.8951 N   0  0  0  0  0  0  0  0  0  0  0  0
   21.9491  -18.5781  -16.7186 C   0  0  0  0  0  0  0  0  0  0  0  0
   22.9590  -19.2325  -15.9326 O   0  0  0  0  0  0  0  0  0  0  0  0
   22.4051  -17.6960  -17.7936 O   0  0  0  0  0  0  0  0  0  0  0  0
  2  1  1  0
  3  2  2  0
  4  2  1  0
  5  4  1  0
  6  5  1  0
  7  6  1  0
  8 10  1  0
  8  7  1  0
  8  9  1  1
 10 11  2  0
 13 12  1  0
 14 13  2  0
 15 13  1  0
 16 15  1  0
 17 16  1  0
 18 17  1  0
 19 18  1  1
 19 21  1  0
 20 10  1  0
 20 19  1  0
 21 26  1  0
 21 22  2  0
 23 24  1  0
 25 24  1  1
 25 27  1  0
 26 25  1  0
 27 28  2  0
 27 29  1  0
M  END
$$$$
