RRS.pdb
     RDKit          3D

 29 28  0  0  1  0  0  0  0  0999 V2000
   27.5518  -19.7157  -20.7651 N   0  0  0  0  0  0  0  0  0  0  0  0
   28.4080  -18.5920  -20.5429 C   0  0  0  0  0  0  0  0  0  0  0  0
   28.6855  -17.7669  -21.4670 N   0  0  0  0  0  0  0  0  0  0  0  0
   28.9669  -18.3865  -19.2438 N   0  0  0  0  0  0  0  0  0  0  0  0
   28.7577  -19.2639  -18.1309 C   0  0  0  0  0  0  0  0  0  0  0  0
   27.3515  -19.1644  -17.5771 C   0  0  0  0  0  0  0  0  0  0  0  0
   27.3385  -18.6879  -16.1544 C   0  0  0  0  0  0  0  0  0  0  0  0
   27.0725  -19.7994  -15.1501 C   0  0  2  0  0  0  0  0  0  0  0  0
   26.8916  -21.0461  -15.8445 N   0  0  0  0  0  0  0  0  0  0  0  0
   25.8705  -19.4658  -14.3275 C   0  0  0  0  0  0  0  0  0  0  0  0
   25.8209  -18.4377  -13.6441 O   0  0  0  0  0  0  0  0  0  0  0  0
   29.3243  -16.9664  -21.2746 N   0  0  0  0  0  0  0  0  0  0  0  0
   19.2946  -21.6412  -17.0579 C   0  0  0  0  0  0  0  0  0  0  0  0
   18.8691  -21.8961  -15.7294 N   0  0  0  0  0  0  0  0  0  0  0  0
   18.2239  -22.9802  -15.4088 N   0  0  0  0  0  0  0  0  0  0  0  0
   19.1249  -20.9824  -14.6830 C   0  0  0  0  0  0  0  0  0  0  0  0
   19.8486  -19.7663  -14.8454 C   0  0  0  0  0  0  0  0  0  0  0  0
   21.0302  -19.6593  -13.8878 C   0  0  0  0  0  0  0  0  0  0  0  0
   22.3050  -20.0871  -14.5818 C   0  0  2  0  0  0  0  0  0  0  0  0
   23.4990  -20.0414  -13.6510 N   0  0  0  0  0  0  0  0  0  0  0  0
   24.7273  -20.3321  -14.3075 C   0  0  0  0  0  0  0  0  0  0  0  0
   23.2474  -21.0019  -12.5463 O   0  0  0  0  0  0  0  0  0  0  0  0
   22.5155  -21.9963  -12.8428 O   0  0  0  0  0  0  0  0  0  0  0  0
   17.9200  -23.0583  -14.3960 C   0  0  0  0  0  0  0  0  0  0  0  0
   23.0145  -20.5774   -7.6838 C   0  0  2  0  0  0  0  0  0  0  0  0
   23.6936  -20.2816   -8.8730 N   0  0  0  0  0  0  0  0  0  0  0  0
   23.0602  -21.0440   -9.9934 C   0  0  0  0  0  0  0  0  0  0  0  0
   23.7466  -20.8882  -11.2466 O   0  0  0  0  0  0  0  0  0  0  0  0
   21.6007  -20.9382  -10.0121 O   0  0  0  0  0  0  0  0  0  0  0  0
  2  1  1  0
  3  2  2  0
  4  2  1  0
  5  4  1  0
  6  5  1  0
  7  6  1  0
  8 10  1  0
  8  7  1  0
  8  9  1  6
 10 11  2  0
 13 12  1  0
 14 13  2  0
 15 13  1  0
 16 15  1  0
 17 16  1  0
 18 17  1  0
 19 18  1  6
 19 21  1  0
 20 10  1  0
 20 19  1  0
 21 26  1  0
 21 22  2  0
 23 24  1  0
 25 24  1  6
 25 27  1  0
 26 25  1  0
 27 28  2  0
 27 29  1  0
M  END
$$$$
