RRS.pdb
     RDKit          3D

 29 28  0  0  1  0  0  0  0  0999 V2000
   20.8358   -9.0952    8.5579 N   0  0  0  0  0  0  0  0  0  0  0  0
   21.9842   -9.7329    7.9925 C   0  0  0  0  0  0  0  0  0  0  0  0
   23.0969   -9.7747    8.6026 N   0  0  0  0  0  0  0  0  0  0  0  0
   21.8799  -10.3447    6.7053 N   0  0  0  0  0  0  0  0  0  0  0  0
   20.6479  -10.5173    5.9949 C   0  0  0  0  0  0  0  0  0  0  0  0
   19.7088  -11.4755    6.6977 C   0  0  0  0  0  0  0  0  0  0  0  0
   19.3783  -12.6665    5.8469 C   0  0  0  0  0  0  0  0  0  0  0  0
   17.8883  -12.9682    5.7869 C   0  0  2  0  0  0  0  0  0  0  0  0
   17.1879  -12.1375    6.7296 N   0  0  0  0  0  0  0  0  0  0  0  0
   17.6499  -14.4160    6.0692 C   0  0  0  0  0  0  0  0  0  0  0  0
   17.2511  -14.8015    7.1731 O   0  0  0  0  0  0  0  0  0  0  0  0
   23.9321  -10.1845    8.1331 N   0  0  0  0  0  0  0  0  0  0  0  0
   14.6527  -21.1177    4.2442 C   0  0  0  0  0  0  0  0  0  0  0  0
   15.2305  -21.1835    2.9508 N   0  0  0  0  0  0  0  0  0  0  0  0
   15.4783  -22.3188    2.3641 N   0  0  0  0  0  0  0  0  0  0  0  0
   15.5677  -20.0157    2.2314 C   0  0  0  0  0  0  0  0  0  0  0  0
   16.7296  -19.2312    2.4838 C   0  0  0  0  0  0  0  0  0  0  0  0
   16.6389  -18.4616    3.7968 C   0  0  0  0  0  0  0  0  0  0  0  0
   17.8784  -17.6161    3.9932 C   0  0  2  0  0  0  0  0  0  0  0  0
   17.8200  -16.8155    5.2775 N   0  0  0  0  0  0  0  0  0  0  0  0
   17.8746  -15.4105    5.0601 C   0  0  0  0  0  0  0  0  0  0  0  0
   18.9434  -17.2630    6.1401 O   0  0  0  0  0  0  0  0  0  0  0  0
   20.0982  -16.8814    5.7751 O   0  0  0  0  0  0  0  0  0  0  0  0
   16.0211  -22.2637    1.4550 C   0  0  0  0  0  0  0  0  0  0  0  0
   19.5387  -16.7568    9.6393 C   0  0  1  0  0  0  0  0  0  0  0  0
   19.6726  -18.1502    9.5825 N   0  0  0  0  0  0  0  0  0  0  0  0
   19.8439  -18.5613    8.1545 C   0  0  0  0  0  0  0  0  0  0  0  0
   18.8178  -18.0487    7.2883 O   0  0  0  0  0  0  0  0  0  0  0  0
   20.2097  -19.9696    7.9982 O   0  0  0  0  0  0  0  0  0  0  0  0
  2  1  1  0
  3  2  2  0
  4  2  1  0
  5  4  1  0
  6  5  1  0
  7  6  1  0
  8 10  1  0
  8  7  1  0
  8  9  1  1
 10 11  2  0
 13 12  1  0
 14 13  2  0
 15 13  1  0
 16 15  1  0
 17 16  1  0
 18 17  1  0
 19 18  1  6
 19 21  1  0
 20 10  1  0
 20 19  1  0
 21 26  1  0
 21 22  2  0
 23 24  1  0
 25 24  1  1
 25 27  1  0
 26 25  1  0
 27 28  2  0
 27 29  1  0
M  END
$$$$
