RRS.pdb
     RDKit          3D

 29 28  0  0  1  0  0  0  0  0999 V2000
   28.6392  -29.8023  -17.3763 N   0  0  0  0  0  0  0  0  0  0  0  0
   28.0410  -28.8642  -18.2748 C   0  0  0  0  0  0  0  0  0  0  0  0
   27.7548  -29.1716  -19.4729 N   0  0  0  0  0  0  0  0  0  0  0  0
   27.7526  -27.5426  -17.8139 N   0  0  0  0  0  0  0  0  0  0  0  0
   27.2116  -26.5039  -18.6388 C   0  0  0  0  0  0  0  0  0  0  0  0
   28.1850  -25.3602  -18.8349 C   0  0  0  0  0  0  0  0  0  0  0  0
   28.8494  -24.9592  -17.5507 C   0  0  0  0  0  0  0  0  0  0  0  0
   28.6135  -23.5024  -17.1806 C   0  0  2  0  0  0  0  0  0  0  0  0
   29.8761  -22.8447  -16.9748 N   0  0  0  0  0  0  0  0  0  0  0  0
   27.7612  -23.4195  -15.9561 C   0  0  0  0  0  0  0  0  0  0  0  0
   28.0862  -23.9798  -14.9040 O   0  0  0  0  0  0  0  0  0  0  0  0
   27.3098  -28.4667  -20.0983 N   0  0  0  0  0  0  0  0  0  0  0  0
   20.9658  -20.3308  -13.5141 C   0  0  0  0  0  0  0  0  0  0  0  0
   21.4373  -20.0019  -12.2178 N   0  0  0  0  0  0  0  0  0  0  0  0
   20.6317  -19.8772  -11.2030 N   0  0  0  0  0  0  0  0  0  0  0  0
   22.8104  -19.7922  -11.9617 C   0  0  0  0  0  0  0  0  0  0  0  0
   23.8247  -19.8431  -12.9605 C   0  0  0  0  0  0  0  0  0  0  0  0
   24.1924  -21.2719  -13.3451 C   0  0  0  0  0  0  0  0  0  0  0  0
   25.2600  -21.2657  -14.4175 C   0  0  1  0  0  0  0  0  0  0  0  0
   25.5880  -22.6641  -14.8979 N   0  0  0  0  0  0  0  0  0  0  0  0
   26.5323  -22.6794  -15.9620 C   0  0  0  0  0  0  0  0  0  0  0  0
   24.3154  -23.3106  -15.3086 O   0  0  0  0  0  0  0  0  0  0  0  0
   23.6899  -22.7355  -16.2522 O   0  0  0  0  0  0  0  0  0  0  0  0
   21.0793  -19.5863  -10.2869 C   0  0  0  0  0  0  0  0  0  0  0  0
   22.2343  -26.0952  -12.9177 C   0  0  1  0  0  0  0  0  0  0  0  0
   22.3546  -26.4092  -14.2777 N   0  0  0  0  0  0  0  0  0  0  0  0
   22.5460  -25.1429  -15.0507 C   0  0  0  0  0  0  0  0  0  0  0  0
   23.7793  -24.4710  -14.7451 O   0  0  0  0  0  0  0  0  0  0  0  0
   21.3369  -24.3217  -15.1236 O   0  0  0  0  0  0  0  0  0  0  0  0
  2  1  1  0
  3  2  2  0
  4  2  1  0
  5  4  1  0
  6  5  1  0
  7  6  1  0
  8 10  1  0
  8  7  1  0
  8  9  1  1
 10 11  2  0
 13 12  1  0
 14 13  2  0
 15 13  1  0
 16 15  1  0
 17 16  1  0
 18 17  1  0
 19 18  1  1
 19 21  1  0
 20 10  1  0
 20 19  1  0
 21 26  1  0
 21 22  2  0
 23 24  1  0
 25 24  1  1
 25 27  1  0
 26 25  1  0
 27 28  2  0
 27 29  1  0
M  END
$$$$
