RRS.pdb
     RDKit          3D

 29 28  0  0  1  0  0  0  0  0999 V2000
   20.5926  -19.5526  -13.8192 N   0  0  0  0  0  0  0  0  0  0  0  0
   20.5390  -20.9352  -13.4577 C   0  0  0  0  0  0  0  0  0  0  0  0
   19.6250  -21.3975  -12.7075 N   0  0  0  0  0  0  0  0  0  0  0  0
   21.5394  -21.8260  -13.9555 N   0  0  0  0  0  0  0  0  0  0  0  0
   22.8209  -21.4062  -14.4387 C   0  0  0  0  0  0  0  0  0  0  0  0
   23.6023  -20.6321  -13.3973 C   0  0  0  0  0  0  0  0  0  0  0  0
   25.0764  -20.6408  -13.6772 C   0  0  0  0  0  0  0  0  0  0  0  0
   25.5840  -21.9814  -14.1871 C   0  0  2  0  0  0  0  0  0  0  0  0
   25.8442  -22.8554  -13.0747 N   0  0  0  0  0  0  0  0  0  0  0  0
   26.8155  -21.7805  -15.0092 C   0  0  0  0  0  0  0  0  0  0  0  0
   27.1173  -20.6702  -15.4593 O   0  0  0  0  0  0  0  0  0  0  0  0
   19.6228  -22.4082  -12.4534 N   0  0  0  0  0  0  0  0  0  0  0  0
   32.2652  -25.1490  -14.1840 C   0  0  0  0  0  0  0  0  0  0  0  0
   33.2645  -25.2537  -15.1847 N   0  0  0  0  0  0  0  0  0  0  0  0
   34.5234  -25.4002  -14.8882 N   0  0  0  0  0  0  0  0  0  0  0  0
   32.9425  -25.2039  -16.5591 C   0  0  0  0  0  0  0  0  0  0  0  0
   31.6171  -25.3014  -17.0717 C   0  0  0  0  0  0  0  0  0  0  0  0
   30.8766  -23.9693  -17.0292 C   0  0  0  0  0  0  0  0  0  0  0  0
   29.6092  -24.1022  -16.2132 C   0  0  2  0  0  0  0  0  0  0  0  0
   28.8737  -22.7839  -16.0908 N   0  0  0  0  0  0  0  0  0  0  0  0
   27.6940  -22.8763  -15.3010 C   0  0  0  0  0  0  0  0  0  0  0  0
   28.5575  -22.3141  -17.4640 O   0  0  0  0  0  0  0  0  0  0  0  0
   27.8816  -23.1202  -18.1752 O   0  0  0  0  0  0  0  0  0  0  0  0
   35.1780  -25.5628  -15.7063 C   0  0  0  0  0  0  0  0  0  0  0  0
   28.1015  -18.5968  -18.1017 C   0  0  1  0  0  0  0  0  0  0  0  0
   28.6130  -19.0465  -19.3260 N   0  0  0  0  0  0  0  0  0  0  0  0
   28.6647  -20.5414  -19.3080 C   0  0  0  0  0  0  0  0  0  0  0  0
   28.9408  -21.0852  -18.0065 O   0  0  0  0  0  0  0  0  0  0  0  0
   29.3996  -21.1080  -20.4396 O   0  0  0  0  0  0  0  0  0  0  0  0
  2  1  1  0
  3  2  2  0
  4  2  1  0
  5  4  1  0
  6  5  1  0
  7  6  1  0
  8 10  1  0
  8  7  1  0
  8  9  1  1
 10 11  2  0
 13 12  1  0
 14 13  2  0
 15 13  1  0
 16 15  1  0
 17 16  1  0
 18 17  1  0
 19 18  1  1
 19 21  1  0
 20 10  1  0
 20 19  1  0
 21 26  1  0
 21 22  2  0
 23 24  1  0
 25 24  1  6
 25 27  1  0
 26 25  1  0
 27 28  2  0
 27 29  1  0
M  END
$$$$
