RRS.pdb
     RDKit          3D

 29 28  0  0  1  0  0  0  0  0999 V2000
   27.6348  -27.0635  -18.4029 N   0  0  0  0  0  0  0  0  0  0  0  0
   27.7653  -27.6676  -17.1133 C   0  0  0  0  0  0  0  0  0  0  0  0
   28.6352  -28.5614  -16.8761 N   0  0  0  0  0  0  0  0  0  0  0  0
   26.8954  -27.2541  -16.0575 N   0  0  0  0  0  0  0  0  0  0  0  0
   25.7795  -26.3734  -16.2341 C   0  0  0  0  0  0  0  0  0  0  0  0
   26.0995  -24.9510  -15.8233 C   0  0  0  0  0  0  0  0  0  0  0  0
   24.9686  -24.3139  -15.0707 C   0  0  0  0  0  0  0  0  0  0  0  0
   23.6086  -24.9014  -15.4175 C   0  0  2  0  0  0  0  0  0  0  0  0
   23.3536  -24.7346  -16.8233 N   0  0  0  0  0  0  0  0  0  0  0  0
   22.5457  -24.2432  -14.5991 C   0  0  0  0  0  0  0  0  0  0  0  0
   22.5757  -24.2645  -13.3641 O   0  0  0  0  0  0  0  0  0  0  0  0
   28.6903  -28.9952  -15.9302 N   0  0  0  0  0  0  0  0  0  0  0  0
   14.9696  -21.9549  -14.9880 C   0  0  0  0  0  0  0  0  0  0  0  0
   15.1954  -20.5943  -14.6587 N   0  0  0  0  0  0  0  0  0  0  0  0
   14.2800  -19.8613  -14.0938 N   0  0  0  0  0  0  0  0  0  0  0  0
   16.4300  -19.9634  -14.9283 C   0  0  0  0  0  0  0  0  0  0  0  0
   17.5178  -20.5932  -15.5986 C   0  0  0  0  0  0  0  0  0  0  0  0
   18.3642  -21.4468  -14.6607 C   0  0  0  0  0  0  0  0  0  0  0  0
   19.4734  -22.1276  -15.4326 C   0  0  2  0  0  0  0  0  0  0  0  0
   20.3702  -22.9488  -14.5296 N   0  0  0  0  0  0  0  0  0  0  0  0
   21.4515  -23.5583  -15.2249 C   0  0  0  0  0  0  0  0  0  0  0  0
   19.5245  -23.9716  -13.8625 O   0  0  0  0  0  0  0  0  0  0  0  0
   19.0884  -24.8961  -14.6160 O   0  0  0  0  0  0  0  0  0  0  0  0
   14.5557  -18.8617  -13.8723 C   0  0  0  0  0  0  0  0  0  0  0  0
   18.1464  -26.4462  -10.0238 C   0  0  2  0  0  0  0  0  0  0  0  0
   18.9858  -25.4624  -10.5629 N   0  0  0  0  0  0  0  0  0  0  0  0
   18.3419  -24.8970  -11.7890 C   0  0  0  0  0  0  0  0  0  0  0  0
   19.1889  -23.9840  -12.5066 O   0  0  0  0  0  0  0  0  0  0  0  0
   16.9509  -24.4940  -11.5780 O   0  0  0  0  0  0  0  0  0  0  0  0
  2  1  1  0
  3  2  2  0
  4  2  1  0
  5  4  1  0
  6  5  1  0
  7  6  1  0
  8 10  1  0
  8  7  1  0
  8  9  1  6
 10 11  2  0
 13 12  1  0
 14 13  2  0
 15 13  1  0
 16 15  1  0
 17 16  1  0
 18 17  1  0
 19 18  1  1
 19 21  1  0
 20 10  1  0
 20 19  1  0
 21 26  1  0
 21 22  2  0
 23 24  1  0
 25 24  1  1
 25 27  1  0
 26 25  1  0
 27 28  2  0
 27 29  1  0
M  END
$$$$
