YDS.pdb
     RDKit          3D

 27 27  0  0  1  0  0  0  0  0999 V2000
    7.6043  -12.4440   28.0914 O   0  0  0  0  0  0  0  0  0  0  0  0
    7.4640  -12.8878   26.7764 C   0  0  0  0  0  0  0  0  0  0  0  0
    6.2461  -13.3304   26.3035 C   0  0  0  0  0  0  0  0  0  0  0  0
    6.0852  -13.7738   25.0065 C   0  0  0  0  0  0  0  0  0  0  0  0
    7.1444  -13.7945   24.1171 C   0  0  0  0  0  0  0  0  0  0  0  0
    6.9354  -14.2778   22.7304 C   0  0  0  0  0  0  0  0  0  0  0  0
    6.9346  -15.8172   22.6869 C   0  0  2  0  0  0  0  0  0  0  0  0
    6.3767  -16.3027   23.9510 N   0  0  0  0  0  0  0  0  0  0  0  0
    8.3709  -16.2003   22.6287 C   0  0  0  0  0  0  0  0  0  0  0  0
    9.0099  -15.9466   21.5806 O   0  0  0  0  0  0  0  0  0  0  0  0
    8.3604  -13.3521   24.5908 C   0  0  0  0  0  0  0  0  0  0  0  0
    8.5252  -12.9061   25.8930 C   0  0  0  0  0  0  0  0  0  0  0  0
    8.9526  -16.8257   23.7421 N   0  0  0  0  0  0  0  0  0  0  0  0
   10.3592  -17.2393   23.6713 C   0  0  1  0  0  0  0  0  0  0  0  0
   11.1872  -16.0914   23.1570 C   0  0  0  0  0  0  0  0  0  0  0  0
   12.6073  -16.4260   23.0134 C   0  0  0  0  0  0  0  0  0  0  0  0
   12.9664  -17.4715   22.3676 O   0  0  0  0  0  0  0  0  0  0  0  0
   10.7235  -17.7040   25.0230 C   0  0  0  0  0  0  0  0  0  0  0  0
   10.9014  -16.8355   25.9590 O   0  0  0  0  0  0  0  0  0  0  0  0
   13.5931  -15.6337   23.5615 O   0  0  0  0  0  0  0  0  0  0  0  0
   11.0867  -21.6265   25.8244 O   0  0  0  0  0  0  0  0  0  0  0  0
   10.6502  -20.8532   26.9137 C   0  0  0  0  0  0  0  0  0  0  0  0
   11.2052  -19.4586   26.7051 C   0  0  2  0  0  0  0  0  0  0  0  0
   10.8814  -19.0800   25.3228 N   0  0  0  0  0  0  0  0  0  0  0  0
   12.6577  -19.5228   26.9546 C   0  0  0  0  0  0  0  0  0  0  0  0
   13.1700  -19.8081   28.2004 O   0  0  0  0  0  0  0  0  0  0  0  0
   13.4819  -19.3179   26.0307 O   0  0  0  0  0  0  0  0  0  0  0  0
  2  3  2  0
  2  1  1  0
  4  3  1  0
  5  4  2  0
  6  5  1  0
  7  6  1  0
  7  8  1  1
  9  7  1  0
  9 10  2  0
 11  5  1  0
 11 12  2  0
 12  2  1  0
 13  9  1  0
 14 13  1  0
 14 15  1  1
 16 15  1  0
 16 17  2  0
 18 14  1  0
 19 18  2  0
 20 16  1  0
 22 21  1  0
 23 22  1  6
 23 24  1  0
 24 18  1  0
 25 23  1  0
 26 25  1  0
 27 25  2  0
M  END
$$$$
