YDS.pdb
     RDKit          3D

 27 27  0  0  1  0  0  0  0  0999 V2000
    7.4611  -11.8547   18.3677 O   0  0  0  0  0  0  0  0  0  0  0  0
    7.9590  -12.7472   19.3171 C   0  0  0  0  0  0  0  0  0  0  0  0
    9.3134  -12.9854   19.4246 C   0  0  0  0  0  0  0  0  0  0  0  0
    9.8273  -13.8642   20.3565 C   0  0  0  0  0  0  0  0  0  0  0  0
    9.0023  -14.5500   21.2297 C   0  0  0  0  0  0  0  0  0  0  0  0
    9.5890  -15.4873   22.2183 C   0  0  0  0  0  0  0  0  0  0  0  0
   10.1401  -16.7419   21.5156 C   0  0  2  0  0  0  0  0  0  0  0  0
    9.0061  -17.4735   20.9466 N   0  0  0  0  0  0  0  0  0  0  0  0
   10.7310  -17.5640   22.6055 C   0  0  0  0  0  0  0  0  0  0  0  0
    9.9746  -18.3325   23.2448 O   0  0  0  0  0  0  0  0  0  0  0  0
    7.6495  -14.3112   21.1210 C   0  0  0  0  0  0  0  0  0  0  0  0
    7.1303  -13.4290   20.1862 C   0  0  0  0  0  0  0  0  0  0  0  0
   12.1036  -17.4502   22.8742 N   0  0  0  0  0  0  0  0  0  0  0  0
   12.7194  -18.3739   23.8345 C   0  0  1  0  0  0  0  0  0  0  0  0
   14.2134  -18.3605   23.6456 C   0  0  0  0  0  0  0  0  0  0  0  0
   14.8943  -19.4363   24.3723 C   0  0  0  0  0  0  0  0  0  0  0  0
   16.0351  -19.2322   24.9163 O   0  0  0  0  0  0  0  0  0  0  0  0
   12.2641  -17.9473   25.1711 C   0  0  0  0  0  0  0  0  0  0  0  0
   12.4304  -16.7201   25.5291 O   0  0  0  0  0  0  0  0  0  0  0  0
   14.3344  -20.6899   24.4945 O   0  0  0  0  0  0  0  0  0  0  0  0
    9.7457  -19.4787   28.7211 O   0  0  0  0  0  0  0  0  0  0  0  0
    9.8910  -18.5535   27.6732 C   0  0  0  0  0  0  0  0  0  0  0  0
   11.3799  -18.3900   27.4431 C   0  0  2  0  0  0  0  0  0  0  0  0
   11.6461  -18.8489   26.0729 N   0  0  0  0  0  0  0  0  0  0  0  0
   12.0728  -19.2011   28.4620 C   0  0  0  0  0  0  0  0  0  0  0  0
   12.8798  -20.2632   28.1211 O   0  0  0  0  0  0  0  0  0  0  0  0
   11.9485  -18.9468   29.6847 O   0  0  0  0  0  0  0  0  0  0  0  0
  2  3  2  0
  2  1  1  0
  4  3  1  0
  5  4  2  0
  6  5  1  0
  7  6  1  0
  7  8  1  1
  9  7  1  0
  9 10  2  0
 11  5  1  0
 11 12  2  0
 12  2  1  0
 13  9  1  0
 14 13  1  0
 14 15  1  1
 16 15  1  0
 16 17  2  0
 18 14  1  0
 19 18  2  0
 20 16  1  0
 22 21  1  0
 23 22  1  1
 23 24  1  0
 24 18  1  0
 25 23  1  0
 26 25  1  0
 27 25  2  0
M  END
$$$$
