YDS.pdb
     RDKit          3D

 27 27  0  0  1  0  0  0  0  0999 V2000
    7.1373  -11.8644   17.1661 O   0  0  0  0  0  0  0  0  0  0  0  0
    7.6307  -12.7301   18.1423 C   0  0  0  0  0  0  0  0  0  0  0  0
    7.4282  -14.0914   18.0505 C   0  0  0  0  0  0  0  0  0  0  0  0
    7.9074  -14.9657   19.0050 C   0  0  0  0  0  0  0  0  0  0  0  0
    8.6164  -14.5132   20.1032 C   0  0  0  0  0  0  0  0  0  0  0  0
    9.1163  -15.4812   21.1097 C   0  0  0  0  0  0  0  0  0  0  0  0
   10.6493  -15.3959   21.2297 C   0  0  2  0  0  0  0  0  0  0  0  0
   11.2169  -15.5987   19.8950 N   0  0  0  0  0  0  0  0  0  0  0  0
   11.0323  -16.5517   22.0843 C   0  0  0  0  0  0  0  0  0  0  0  0
   10.3579  -16.7742   23.1173 O   0  0  0  0  0  0  0  0  0  0  0  0
    8.8178  -13.1530   20.1936 C   0  0  0  0  0  0  0  0  0  0  0  0
    8.3378  -12.2725   19.2365 C   0  0  0  0  0  0  0  0  0  0  0  0
   12.1256  -17.3448   21.7038 N   0  0  0  0  0  0  0  0  0  0  0  0
   12.3755  -18.6020   22.4192 C   0  0  1  0  0  0  0  0  0  0  0  0
   13.5211  -19.3258   21.7621 C   0  0  0  0  0  0  0  0  0  0  0  0
   13.1700  -19.8919   20.4562 C   0  0  0  0  0  0  0  0  0  0  0  0
   14.0773  -20.1218   19.5826 O   0  0  0  0  0  0  0  0  0  0  0  0
   12.6055  -18.2380   23.8300 C   0  0  0  0  0  0  0  0  0  0  0  0
   13.3966  -17.2580   24.1048 O   0  0  0  0  0  0  0  0  0  0  0  0
   11.8655  -20.1940   20.1291 O   0  0  0  0  0  0  0  0  0  0  0  0
   10.1659  -19.0217   26.5939 O   0  0  0  0  0  0  0  0  0  0  0  0
   11.2580  -18.2829   27.0804 C   0  0  0  0  0  0  0  0  0  0  0  0
   12.4624  -18.6993   26.2604 C   0  0  2  0  0  0  0  0  0  0  0  0
   11.9787  -18.9347   24.8930 N   0  0  0  0  0  0  0  0  0  0  0  0
   13.0203  -19.9132   26.8859 C   0  0  0  0  0  0  0  0  0  0  0  0
   13.5052  -19.9104   28.1745 O   0  0  0  0  0  0  0  0  0  0  0  0
   13.0715  -20.9987   26.2582 O   0  0  0  0  0  0  0  0  0  0  0  0
  2  3  2  0
  2  1  1  0
  4  3  1  0
  5  4  2  0
  6  5  1  0
  7  6  1  0
  7  8  1  6
  9  7  1  0
  9 10  2  0
 11  5  1  0
 11 12  2  0
 12  2  1  0
 13  9  1  0
 14 13  1  0
 14 15  1  6
 16 15  1  0
 16 17  2  0
 18 14  1  0
 19 18  2  0
 20 16  1  0
 22 21  1  0
 23 22  1  1
 23 24  1  0
 24 18  1  0
 25 23  1  0
 26 25  1  0
 27 25  2  0
M  END
$$$$
