YDS.pdb
     RDKit          3D

 27 27  0  0  1  0  0  0  0  0999 V2000
    5.9302  -10.3713   26.0744 O   0  0  0  0  0  0  0  0  0  0  0  0
    6.4183  -11.6289   25.7193 C   0  0  0  0  0  0  0  0  0  0  0  0
    7.0624  -11.8254   24.5154 C   0  0  0  0  0  0  0  0  0  0  0  0
    7.5529  -13.0610   24.1442 C   0  0  0  0  0  0  0  0  0  0  0  0
    7.4196  -14.1644   24.9677 C   0  0  0  0  0  0  0  0  0  0  0  0
    7.9585  -15.4773   24.5366 C   0  0  0  0  0  0  0  0  0  0  0  0
    9.4913  -15.5088   24.6822 C   0  0  2  0  0  0  0  0  0  0  0  0
   10.0715  -14.9740   23.4484 N   0  0  0  0  0  0  0  0  0  0  0  0
    9.8382  -16.9522   24.7779 C   0  0  0  0  0  0  0  0  0  0  0  0
    9.1310  -17.6845   25.5092 O   0  0  0  0  0  0  0  0  0  0  0  0
    6.7759  -13.9666   26.1699 C   0  0  0  0  0  0  0  0  0  0  0  0
    6.2824  -12.7269   26.5456 C   0  0  0  0  0  0  0  0  0  0  0  0
   10.9357  -17.4367   24.0498 N   0  0  0  0  0  0  0  0  0  0  0  0
   11.3370  -18.8387   24.2167 C   0  0  1  0  0  0  0  0  0  0  0  0
   12.4259  -19.1627   23.2282 C   0  0  0  0  0  0  0  0  0  0  0  0
   11.9116  -19.6656   21.9507 C   0  0  0  0  0  0  0  0  0  0  0  0
   10.7799  -20.2614   21.8953 O   0  0  0  0  0  0  0  0  0  0  0  0
   11.7240  -18.9940   25.6315 C   0  0  0  0  0  0  0  0  0  0  0  0
   12.3551  -18.0355   26.2188 O   0  0  0  0  0  0  0  0  0  0  0  0
   12.6208  -19.5136   20.7786 O   0  0  0  0  0  0  0  0  0  0  0  0
    9.7025  -19.8150   28.7985 O   0  0  0  0  0  0  0  0  0  0  0  0
   10.9164  -19.1793   28.4862 C   0  0  0  0  0  0  0  0  0  0  0  0
   11.7792  -20.2117   27.7889 C   0  0  2  0  0  0  0  0  0  0  0  0
   11.4192  -20.1676   26.3651 N   0  0  0  0  0  0  0  0  0  0  0  0
   11.4899  -21.5175   28.4112 C   0  0  0  0  0  0  0  0  0  0  0  0
   11.7240  -21.7546   29.7471 O   0  0  0  0  0  0  0  0  0  0  0  0
   11.0160  -22.4640   27.7370 O   0  0  0  0  0  0  0  0  0  0  0  0
  2  3  2  0
  2  1  1  0
  4  3  1  0
  5  4  2  0
  6  5  1  0
  7  6  1  0
  7  8  1  6
  9  7  1  0
  9 10  2  0
 11  5  1  0
 11 12  2  0
 12  2  1  0
 13  9  1  0
 14 13  1  0
 14 15  1  6
 16 15  1  0
 16 17  2  0
 18 14  1  0
 19 18  2  0
 20 16  1  0
 22 21  1  0
 23 22  1  1
 23 24  1  0
 24 18  1  0
 25 23  1  0
 26 25  1  0
 27 25  2  0
M  END
$$$$
