YDS.pdb
     RDKit          3D

 27 27  0  0  1  0  0  0  0  0999 V2000
    9.2500  -11.8147   19.6884 O   0  0  0  0  0  0  0  0  0  0  0  0
    8.4405  -12.9158   19.9680 C   0  0  0  0  0  0  0  0  0  0  0  0
    8.1656  -13.2815   21.2694 C   0  0  0  0  0  0  0  0  0  0  0  0
    7.3675  -14.3671   21.5684 C   0  0  0  0  0  0  0  0  0  0  0  0
    6.8043  -15.1420   20.5706 C   0  0  0  0  0  0  0  0  0  0  0  0
    5.9519  -16.3019   20.9284 C   0  0  0  0  0  0  0  0  0  0  0  0
    6.3905  -17.5574   20.1520 C   0  0  2  0  0  0  0  0  0  0  0  0
    5.4773  -18.6466   20.5050 N   0  0  0  0  0  0  0  0  0  0  0  0
    7.7409  -17.8850   20.6834 C   0  0  0  0  0  0  0  0  0  0  0  0
    7.8189  -18.4204   21.8142 O   0  0  0  0  0  0  0  0  0  0  0  0
    7.0798  -14.7755   19.2711 C   0  0  0  0  0  0  0  0  0  0  0  0
    7.8809  -13.6857   18.9676 C   0  0  0  0  0  0  0  0  0  0  0  0
    8.8685  -17.5858   19.9036 N   0  0  0  0  0  0  0  0  0  0  0  0
   10.2002  -17.9265   20.4186 C   0  0  1  0  0  0  0  0  0  0  0  0
   11.1731  -17.9903   19.2709 C   0  0  0  0  0  0  0  0  0  0  0  0
   12.5047  -18.4549   19.6713 C   0  0  0  0  0  0  0  0  0  0  0  0
   12.6512  -19.1915   20.7081 O   0  0  0  0  0  0  0  0  0  0  0  0
   10.5209  -16.9136   21.4418 C   0  0  0  0  0  0  0  0  0  0  0  0
   10.8642  -15.7290   21.0669 O   0  0  0  0  0  0  0  0  0  0  0  0
   13.6313  -18.1193   18.9516 O   0  0  0  0  0  0  0  0  0  0  0  0
    9.0155  -16.6697   24.9215 O   0  0  0  0  0  0  0  0  0  0  0  0
    9.8225  -15.6040   24.4877 C   0  0  0  0  0  0  0  0  0  0  0  0
   11.0065  -16.2211   23.7710 C   0  0  2  0  0  0  0  0  0  0  0  0
   10.4598  -17.2057   22.8272 N   0  0  0  0  0  0  0  0  0  0  0  0
   11.8707  -16.8329   24.7981 C   0  0  0  0  0  0  0  0  0  0  0  0
   12.4275  -16.0917   25.8160 O   0  0  0  0  0  0  0  0  0  0  0  0
   12.1288  -18.0609   24.7777 O   0  0  0  0  0  0  0  0  0  0  0  0
  2  3  2  0
  2  1  1  0
  4  3  1  0
  5  4  2  0
  6  5  1  0
  7  6  1  0
  7  8  1  1
  9  7  1  0
  9 10  2  0
 11  5  1  0
 11 12  2  0
 12  2  1  0
 13  9  1  0
 14 13  1  0
 14 15  1  6
 16 15  1  0
 16 17  2  0
 18 14  1  0
 19 18  2  0
 20 16  1  0
 22 21  1  0
 23 22  1  1
 23 24  1  0
 24 18  1  0
 25 23  1  0
 26 25  1  0
 27 25  2  0
M  END
$$$$
