YDS.pdb
     RDKit          3D

 27 27  0  0  1  0  0  0  0  0999 V2000
    5.7996  -10.3485   27.4367 O   0  0  0  0  0  0  0  0  0  0  0  0
    6.2419  -11.3839   26.6133 C   0  0  0  0  0  0  0  0  0  0  0  0
    5.7027  -11.5707   25.3574 C   0  0  0  0  0  0  0  0  0  0  0  0
    6.1254  -12.5886   24.5266 C   0  0  0  0  0  0  0  0  0  0  0  0
    7.1146  -13.4725   24.9185 C   0  0  0  0  0  0  0  0  0  0  0  0
    7.5441  -14.5551   23.9999 C   0  0  0  0  0  0  0  0  0  0  0  0
    8.5941  -15.4558   24.6765 C   0  0  2  0  0  0  0  0  0  0  0  0
    9.6726  -14.5967   25.1702 N   0  0  0  0  0  0  0  0  0  0  0  0
    9.1338  -16.3056   23.5812 C   0  0  0  0  0  0  0  0  0  0  0  0
    8.3429  -17.0692   22.9790 O   0  0  0  0  0  0  0  0  0  0  0  0
    7.6522  -13.2847   26.1732 C   0  0  0  0  0  0  0  0  0  0  0  0
    7.2299  -12.2633   27.0099 C   0  0  0  0  0  0  0  0  0  0  0  0
   10.4982  -16.2200   23.2647 N   0  0  0  0  0  0  0  0  0  0  0  0
   11.1693  -17.3909   22.6873 C   0  0  1  0  0  0  0  0  0  0  0  0
   12.1211  -16.9358   21.6127 C   0  0  0  0  0  0  0  0  0  0  0  0
   12.3698  -17.9601   20.5937 C   0  0  0  0  0  0  0  0  0  0  0  0
   13.1287  -17.7105   19.5933 O   0  0  0  0  0  0  0  0  0  0  0  0
   11.8056  -18.1012   23.8127 C   0  0  0  0  0  0  0  0  0  0  0  0
   12.7495  -17.5189   24.4697 O   0  0  0  0  0  0  0  0  0  0  0  0
   11.8026  -19.2135   20.6787 O   0  0  0  0  0  0  0  0  0  0  0  0
   10.2283  -19.4795   26.5891 O   0  0  0  0  0  0  0  0  0  0  0  0
   11.6290  -19.3651   26.5766 C   0  0  0  0  0  0  0  0  0  0  0  0
   12.1083  -20.0502   25.3128 C   0  0  2  0  0  0  0  0  0  0  0  0
   11.4064  -19.4065   24.1939 N   0  0  0  0  0  0  0  0  0  0  0  0
   11.7849  -21.4837   25.4413 C   0  0  0  0  0  0  0  0  0  0  0  0
   12.3866  -22.2833   26.3869 O   0  0  0  0  0  0  0  0  0  0  0  0
   10.9423  -22.0264   24.6860 O   0  0  0  0  0  0  0  0  0  0  0  0
  2  3  2  0
  2  1  1  0
  4  3  1  0
  5  4  2  0
  6  5  1  0
  7  6  1  0
  7  8  1  6
  9  7  1  0
  9 10  2  0
 11  5  1  0
 11 12  2  0
 12  2  1  0
 13  9  1  0
 14 13  1  0
 14 15  1  6
 16 15  1  0
 16 17  2  0
 18 14  1  0
 19 18  2  0
 20 16  1  0
 22 21  1  0
 23 22  1  1
 23 24  1  0
 24 18  1  0
 25 23  1  0
 26 25  1  0
 27 25  2  0
M  END
$$$$
