YDS.pdb
     RDKit          3D

 27 27  0  0  1  0  0  0  0  0999 V2000
    8.2644  -11.4845   18.2578 O   0  0  0  0  0  0  0  0  0  0  0  0
    8.1167  -12.4858   19.2177 C   0  0  0  0  0  0  0  0  0  0  0  0
    9.1811  -12.8783   20.0024 C   0  0  0  0  0  0  0  0  0  0  0  0
    9.0570  -13.8667   20.9577 C   0  0  0  0  0  0  0  0  0  0  0  0
    7.8525  -14.5122   21.1723 C   0  0  0  0  0  0  0  0  0  0  0  0
    7.7555  -15.5702   22.2073 C   0  0  0  0  0  0  0  0  0  0  0  0
    8.2519  -16.9185   21.6529 C   0  0  2  0  0  0  0  0  0  0  0  0
    7.0780  -17.7132   21.2851 N   0  0  0  0  0  0  0  0  0  0  0  0
    8.9271  -17.5806   22.8013 C   0  0  0  0  0  0  0  0  0  0  0  0
    8.2768  -18.4202   23.4672 O   0  0  0  0  0  0  0  0  0  0  0  0
    6.7902  -14.1190   20.3877 C   0  0  0  0  0  0  0  0  0  0  0  0
    6.9116  -13.1265   19.4275 C   0  0  0  0  0  0  0  0  0  0  0  0
   10.2576  -17.2436   23.0930 N   0  0  0  0  0  0  0  0  0  0  0  0
   10.9619  -17.9782   24.1509 C   0  0  1  0  0  0  0  0  0  0  0  0
   12.4349  -17.6765   24.0664 C   0  0  0  0  0  0  0  0  0  0  0  0
   13.0485  -18.1518   22.8227 C   0  0  0  0  0  0  0  0  0  0  0  0
   13.8127  -17.3840   22.1405 O   0  0  0  0  0  0  0  0  0  0  0  0
   10.3253  -17.5864   25.4225 C   0  0  0  0  0  0  0  0  0  0  0  0
   10.4659  -16.3780   25.8491 O   0  0  0  0  0  0  0  0  0  0  0  0
   12.8272  -19.4283   22.3521 O   0  0  0  0  0  0  0  0  0  0  0  0
    7.0745  -17.9442   26.3773 O   0  0  0  0  0  0  0  0  0  0  0  0
    7.6272  -18.3797   27.5939 C   0  0  0  0  0  0  0  0  0  0  0  0
    9.1123  -18.0863   27.5246 C   0  0  2  0  0  0  0  0  0  0  0  0
    9.5606  -18.5013   26.1883 N   0  0  0  0  0  0  0  0  0  0  0  0
    9.7611  -18.8495   28.6075 C   0  0  0  0  0  0  0  0  0  0  0  0
    9.4550  -18.6354   29.9327 O   0  0  0  0  0  0  0  0  0  0  0  0
   10.6211  -19.7276   28.3539 O   0  0  0  0  0  0  0  0  0  0  0  0
  2  3  2  0
  2  1  1  0
  4  3  1  0
  5  4  2  0
  6  5  1  0
  7  6  1  0
  7  8  1  1
  9  7  1  0
  9 10  2  0
 11  5  1  0
 11 12  2  0
 12  2  1  0
 13  9  1  0
 14 13  1  0
 14 15  1  1
 16 15  1  0
 16 17  2  0
 18 14  1  0
 19 18  2  0
 20 16  1  0
 22 21  1  0
 23 22  1  6
 23 24  1  0
 24 18  1  0
 25 23  1  0
 26 25  1  0
 27 25  2  0
M  END
$$$$
