YDS.pdb
     RDKit          3D

 27 27  0  0  1  0  0  0  0  0999 V2000
    5.2409  -10.6863   28.2379 O   0  0  0  0  0  0  0  0  0  0  0  0
    5.9154  -11.5511   27.3760 C   0  0  0  0  0  0  0  0  0  0  0  0
    7.0264  -12.2505   27.7997 C   0  0  0  0  0  0  0  0  0  0  0  0
    7.7086  -13.1110   26.9637 C   0  0  0  0  0  0  0  0  0  0  0  0
    7.3067  -13.3119   25.6554 C   0  0  0  0  0  0  0  0  0  0  0  0
    8.0639  -14.2439   24.7848 C   0  0  0  0  0  0  0  0  0  0  0  0
    7.1856  -15.4422   24.3795 C   0  0  2  0  0  0  0  0  0  0  0  0
    6.9846  -16.2748   25.5675 N   0  0  0  0  0  0  0  0  0  0  0  0
    8.0065  -16.2069   23.4026 C   0  0  0  0  0  0  0  0  0  0  0  0
    8.5502  -17.2685   23.7881 O   0  0  0  0  0  0  0  0  0  0  0  0
    6.1968  -12.6126   25.2336 C   0  0  0  0  0  0  0  0  0  0  0  0
    5.5094  -11.7477   26.0709 C   0  0  0  0  0  0  0  0  0  0  0  0
    8.1393  -15.7151   22.0951 N   0  0  0  0  0  0  0  0  0  0  0  0
    8.8547  -16.5234   21.1003 C   0  0  1  0  0  0  0  0  0  0  0  0
    8.4321  -16.0965   19.7194 C   0  0  0  0  0  0  0  0  0  0  0  0
    8.7064  -17.1092   18.6955 C   0  0  0  0  0  0  0  0  0  0  0  0
    9.8545  -17.6719   18.6293 O   0  0  0  0  0  0  0  0  0  0  0  0
   10.2922  -16.3539   21.3841 C   0  0  0  0  0  0  0  0  0  0  0  0
   10.7193  -15.2119   21.8028 O   0  0  0  0  0  0  0  0  0  0  0  0
    7.7471  -17.4870   17.7807 O   0  0  0  0  0  0  0  0  0  0  0  0
   12.4357  -18.3203   23.7653 O   0  0  0  0  0  0  0  0  0  0  0  0
   12.4941  -17.0346   23.2007 C   0  0  0  0  0  0  0  0  0  0  0  0
   12.5906  -17.2243   21.7004 C   0  0  2  0  0  0  0  0  0  0  0  0
   11.2179  -17.4130   21.2116 N   0  0  0  0  0  0  0  0  0  0  0  0
   13.4489  -18.3999   21.4612 C   0  0  0  0  0  0  0  0  0  0  0  0
   14.7881  -18.4001   21.7810 O   0  0  0  0  0  0  0  0  0  0  0  0
   12.9820  -19.4486   20.9540 O   0  0  0  0  0  0  0  0  0  0  0  0
  2  3  2  0
  2  1  1  0
  4  3  1  0
  5  4  2  0
  6  5  1  0
  7  6  1  0
  7  8  1  1
  9  7  1  0
  9 10  2  0
 11  5  1  0
 11 12  2  0
 12  2  1  0
 13  9  1  0
 14 13  1  0
 14 15  1  6
 16 15  1  0
 16 17  2  0
 18 14  1  0
 19 18  2  0
 20 16  1  0
 22 21  1  0
 23 22  1  1
 23 24  1  0
 24 18  1  0
 25 23  1  0
 26 25  1  0
 27 25  2  0
M  END
$$$$
