YDS.pdb
     RDKit          3D

 27 27  0  0  1  0  0  0  0  0999 V2000
    6.3820  -10.9189   28.0397 O   0  0  0  0  0  0  0  0  0  0  0  0
    6.6202  -11.9934   27.1827 C   0  0  0  0  0  0  0  0  0  0  0  0
    7.6884  -11.9810   26.3100 C   0  0  0  0  0  0  0  0  0  0  0  0
    7.9422  -13.0331   25.4535 C   0  0  0  0  0  0  0  0  0  0  0  0
    7.1319  -14.1540   25.4316 C   0  0  0  0  0  0  0  0  0  0  0  0
    7.4343  -15.2660   24.4978 C   0  0  0  0  0  0  0  0  0  0  0  0
    7.8064  -16.5418   25.2759 C   0  0  2  0  0  0  0  0  0  0  0  0
    9.0326  -16.2683   26.0285 N   0  0  0  0  0  0  0  0  0  0  0  0
    8.1125  -17.5541   24.2297 C   0  0  0  0  0  0  0  0  0  0  0  0
    9.3132  -17.8492   24.0239 O   0  0  0  0  0  0  0  0  0  0  0  0
    6.0653  -14.1649   26.3039 C   0  0  0  0  0  0  0  0  0  0  0  0
    5.8077  -13.1098   27.1653 C   0  0  0  0  0  0  0  0  0  0  0  0
    7.0528  -18.1375   23.5184 N   0  0  0  0  0  0  0  0  0  0  0  0
    7.3503  -19.1714   22.5198 C   0  0  1  0  0  0  0  0  0  0  0  0
    6.0832  -19.9114   22.1812 C   0  0  0  0  0  0  0  0  0  0  0  0
    5.6515  -20.8270   23.2417 C   0  0  0  0  0  0  0  0  0  0  0  0
    6.4999  -21.3043   24.0732 O   0  0  0  0  0  0  0  0  0  0  0  0
    7.9815  -18.4786   21.3808 C   0  0  0  0  0  0  0  0  0  0  0  0
    8.7677  -19.1391   20.6014 O   0  0  0  0  0  0  0  0  0  0  0  0
    4.3315  -21.1993   23.3788 O   0  0  0  0  0  0  0  0  0  0  0  0
    7.6067  -14.4495   20.7443 O   0  0  0  0  0  0  0  0  0  0  0  0
    7.5667  -15.2641   19.5997 C   0  0  0  0  0  0  0  0  0  0  0  0
    8.3659  -16.5095   19.9263 C   0  0  2  0  0  0  0  0  0  0  0  0
    7.7460  -17.1062   21.1174 N   0  0  0  0  0  0  0  0  0  0  0  0
    9.7602  -16.0876   20.1584 C   0  0  0  0  0  0  0  0  0  0  0  0
   10.3689  -16.2305   21.3851 O   0  0  0  0  0  0  0  0  0  0  0  0
   10.4439  -15.5802   19.2366 O   0  0  0  0  0  0  0  0  0  0  0  0
  2  3  2  0
  2  1  1  0
  4  3  1  0
  5  4  2  0
  6  5  1  0
  7  6  1  0
  7  8  1  1
  9  7  1  0
  9 10  2  0
 11  5  1  0
 11 12  2  0
 12  2  1  0
 13  9  1  0
 14 13  1  0
 14 15  1  6
 16 15  1  0
 16 17  2  0
 18 14  1  0
 19 18  2  0
 20 16  1  0
 22 21  1  0
 23 22  1  1
 23 24  1  0
 24 18  1  0
 25 23  1  0
 26 25  1  0
 27 25  2  0
M  END
$$$$
