YDS.pdb
     RDKit          3D

 27 27  0  0  1  0  0  0  0  0999 V2000
    5.7469  -10.3780   26.5814 O   0  0  0  0  0  0  0  0  0  0  0  0
    6.3806  -11.5845   26.2838 C   0  0  0  0  0  0  0  0  0  0  0  0
    7.0920  -11.7416   25.1124 C   0  0  0  0  0  0  0  0  0  0  0  0
    7.7264  -12.9264   24.7981 C   0  0  0  0  0  0  0  0  0  0  0  0
    7.6768  -14.0162   25.6486 C   0  0  0  0  0  0  0  0  0  0  0  0
    8.3701  -15.2742   25.2786 C   0  0  0  0  0  0  0  0  0  0  0  0
    7.6747  -15.9441   24.0789 C   0  0  2  0  0  0  0  0  0  0  0  0
    6.3693  -16.4311   24.5301 N   0  0  0  0  0  0  0  0  0  0  0  0
    8.5262  -17.1183   23.7483 C   0  0  0  0  0  0  0  0  0  0  0  0
    8.2392  -18.2231   24.2663 O   0  0  0  0  0  0  0  0  0  0  0  0
    6.9658  -13.8578   26.8183 C   0  0  0  0  0  0  0  0  0  0  0  0
    6.3277  -12.6691   27.1369 C   0  0  0  0  0  0  0  0  0  0  0  0
    9.6103  -16.9464   22.8740 N   0  0  0  0  0  0  0  0  0  0  0  0
   10.4963  -18.0859   22.6069 C   0  0  1  0  0  0  0  0  0  0  0  0
   11.2731  -17.8231   21.3438 C   0  0  0  0  0  0  0  0  0  0  0  0
   12.1111  -16.6228   21.4236 C   0  0  0  0  0  0  0  0  0  0  0  0
   13.2569  -16.6670   21.9929 O   0  0  0  0  0  0  0  0  0  0  0  0
   11.3252  -18.2589   23.8146 C   0  0  0  0  0  0  0  0  0  0  0  0
   11.7924  -17.2156   24.4106 O   0  0  0  0  0  0  0  0  0  0  0  0
   11.6986  -15.4197   20.8924 O   0  0  0  0  0  0  0  0  0  0  0  0
   10.9314  -21.3074   26.0696 O   0  0  0  0  0  0  0  0  0  0  0  0
   11.6152  -20.2181   26.6361 C   0  0  0  0  0  0  0  0  0  0  0  0
   12.4714  -19.6243   25.5358 C   0  0  2  0  0  0  0  0  0  0  0  0
   11.6211  -19.5413   24.3403 N   0  0  0  0  0  0  0  0  0  0  0  0
   13.6304  -20.5180   25.3514 C   0  0  0  0  0  0  0  0  0  0  0  0
   14.5314  -20.7592   26.3642 O   0  0  0  0  0  0  0  0  0  0  0  0
   13.8350  -21.0935   24.2551 O   0  0  0  0  0  0  0  0  0  0  0  0
  2  3  2  0
  2  1  1  0
  4  3  1  0
  5  4  2  0
  6  5  1  0
  7  6  1  0
  7  8  1  1
  9  7  1  0
  9 10  2  0
 11  5  1  0
 11 12  2  0
 12  2  1  0
 13  9  1  0
 14 13  1  0
 14 15  1  6
 16 15  1  0
 16 17  2  0
 18 14  1  0
 19 18  2  0
 20 16  1  0
 22 21  1  0
 23 22  1  1
 23 24  1  0
 24 18  1  0
 25 23  1  0
 26 25  1  0
 27 25  2  0
M  END
$$$$
