PPY.pdb
     RDKit          3D

 27 29  0  0  1  0  0  0  0  0999 V2000
    6.8106  -19.3664   21.7781 N   0  0  0  0  0  0  0  0  0  0  0  0
    5.4440  -19.8765   22.0751 C   0  0  0  0  0  0  0  0  0  0  0  0
    4.9015  -18.7144   22.8915 C   0  0  0  0  0  0  0  0  0  0  0  0
    5.4211  -17.5042   22.1649 C   0  0  0  0  0  0  0  0  0  0  0  0
    6.5277  -18.0193   21.3138 C   0  0  1  0  0  0  0  0  0  0  0  0
    7.7018  -17.1368   21.3313 C   0  0  0  0  0  0  0  0  0  0  0  0
    8.8641  -17.7063   21.2113 O   0  0  0  0  0  0  0  0  0  0  0  0
    7.7260  -15.7308   21.4665 N   0  0  0  0  0  0  0  0  0  0  0  0
    6.6287  -14.8727   21.8067 C   0  0  0  0  0  0  0  0  0  0  0  0
    7.2901  -13.5517   22.2389 C   0  0  0  0  0  0  0  0  0  0  0  0
    8.4690  -13.4917   21.2759 C   0  0  0  0  0  0  0  0  0  0  0  0
    8.9106  -14.9292   21.2885 C   0  0  1  0  0  0  0  0  0  0  0  0
    9.8168  -15.0532   22.4904 C   0  0  0  0  0  0  0  0  0  0  0  0
   11.0318  -14.7316   22.4024 O   0  0  0  0  0  0  0  0  0  0  0  0
    4.9001  -12.8247   26.6311 O   0  0  0  0  0  0  0  0  0  0  0  0
    6.2371  -13.1873   26.4148 C   0  0  0  0  0  0  0  0  0  0  0  0
    6.5005  -14.5180   26.2106 C   0  0  0  0  0  0  0  0  0  0  0  0
    7.8056  -14.9064   25.9957 C   0  0  0  0  0  0  0  0  0  0  0  0
    8.8399  -14.0055   25.9803 C   0  0  0  0  0  0  0  0  0  0  0  0
   10.2437  -14.4190   25.7484 C   0  0  0  0  0  0  0  0  0  0  0  0
   10.2329  -15.6743   24.8966 C   0  0  2  0  0  0  0  0  0  0  0  0
    9.3623  -15.5247   23.7467 N   0  0  0  0  0  0  0  0  0  0  0  0
    9.7761  -16.8602   25.6544 C   0  0  0  0  0  0  0  0  0  0  0  0
    8.6621  -17.6173   25.2668 O   0  0  0  0  0  0  0  0  0  0  0  0
    8.5387  -12.6646   26.1906 C   0  0  0  0  0  0  0  0  0  0  0  0
    7.2518  -12.2694   26.4042 C   0  0  0  0  0  0  0  0  0  0  0  0
   10.3679  -17.2514   26.6925 O   0  0  0  0  0  0  0  0  0  0  0  0
  1  2  1  0
  2  3  1  0
  4  3  1  0
  5  4  1  0
  5  1  1  0
  6  7  2  0
  5  6  1  1
  8  6  1  0
  9  8  1  0
 10  9  1  0
 11 10  1  0
 11 12  1  0
 12  8  1  0
 12 13  1  1
 14 13  2  0
 16 15  1  0
 17 16  2  0
 18 17  1  0
 19 25  1  0
 19 18  2  0
 20 19  1  0
 21 20  1  1
 21 22  1  0
 22 13  1  0
 23 21  1  0
 24 23  1  0
 25 26  2  0
 26 16  1  0
 27 23  2  0
M  END
$$$$
