PPY.pdb
     RDKit          3D

 27 29  0  0  1  0  0  0  0  0999 V2000
    7.3193  -13.8716   18.9434 N   0  0  0  0  0  0  0  0  0  0  0  0
    8.0080  -13.0371   17.9209 C   0  0  0  0  0  0  0  0  0  0  0  0
    9.1805  -12.5279   18.7436 C   0  0  0  0  0  0  0  0  0  0  0  0
    9.5915  -13.7306   19.5482 C   0  0  0  0  0  0  0  0  0  0  0  0
    8.4225  -14.6490   19.4808 C   0  0  1  0  0  0  0  0  0  0  0  0
    8.1235  -15.2672   20.7792 C   0  0  0  0  0  0  0  0  0  0  0  0
    7.5708  -14.5064   21.6765 O   0  0  0  0  0  0  0  0  0  0  0  0
    8.3668  -16.5999   21.1800 N   0  0  0  0  0  0  0  0  0  0  0  0
    8.8838  -17.6677   20.3747 C   0  0  0  0  0  0  0  0  0  0  0  0
    9.3501  -18.7269   21.3895 C   0  0  0  0  0  0  0  0  0  0  0  0
    8.2802  -18.5859   22.4646 C   0  0  0  0  0  0  0  0  0  0  0  0
    8.1336  -17.0900   22.5153 C   0  0  1  0  0  0  0  0  0  0  0  0
    9.2236  -16.6180   23.4482 C   0  0  0  0  0  0  0  0  0  0  0  0
   10.4323  -16.7003   23.1018 O   0  0  0  0  0  0  0  0  0  0  0  0
    4.8007  -12.2040   26.5483 O   0  0  0  0  0  0  0  0  0  0  0  0
    6.1068  -12.6832   26.3738 C   0  0  0  0  0  0  0  0  0  0  0  0
    6.6016  -12.7028   25.0944 C   0  0  0  0  0  0  0  0  0  0  0  0
    7.8826  -13.1690   24.8900 C   0  0  0  0  0  0  0  0  0  0  0  0
    8.6700  -13.6102   25.9229 C   0  0  0  0  0  0  0  0  0  0  0  0
   10.0479  -14.1108   25.7072 C   0  0  0  0  0  0  0  0  0  0  0  0
    9.9951  -15.6250   25.6316 C   0  0  2  0  0  0  0  0  0  0  0  0
    8.9535  -16.0725   24.7275 N   0  0  0  0  0  0  0  0  0  0  0  0
    9.7393  -16.2420   26.9519 C   0  0  0  0  0  0  0  0  0  0  0  0
    8.6094  -17.0312   27.2072 O   0  0  0  0  0  0  0  0  0  0  0  0
    8.1384  -13.5771   27.2071 C   0  0  0  0  0  0  0  0  0  0  0  0
    6.8728  -13.1182   27.4208 C   0  0  0  0  0  0  0  0  0  0  0  0
   10.5278  -16.0881   27.9190 O   0  0  0  0  0  0  0  0  0  0  0  0
  1  2  1  0
  2  3  1  0
  4  3  1  0
  5  4  1  0
  5  1  1  0
  6  7  2  0
  5  6  1  1
  8  6  1  0
  9  8  1  0
 10  9  1  0
 11 10  1  0
 11 12  1  0
 12  8  1  0
 12 13  1  1
 14 13  2  0
 16 15  1  0
 17 16  2  0
 18 17  1  0
 19 25  1  0
 19 18  2  0
 20 19  1  0
 21 20  1  1
 21 22  1  0
 22 13  1  0
 23 21  1  0
 24 23  1  0
 25 26  2  0
 26 16  1  0
 27 23  2  0
M  END
$$$$
