PPY.pdb
     RDKit          3D

 27 29  0  0  1  0  0  0  0  0999 V2000
    7.3135  -18.6968   19.9562 N   0  0  0  0  0  0  0  0  0  0  0  0
    6.1812  -19.6302   20.2066 C   0  0  0  0  0  0  0  0  0  0  0  0
    6.0644  -19.5024   21.7169 C   0  0  0  0  0  0  0  0  0  0  0  0
    6.2690  -18.0322   21.9602 C   0  0  0  0  0  0  0  0  0  0  0  0
    6.9031  -17.5264   20.7125 C   0  0  1  0  0  0  0  0  0  0  0  0
    8.0032  -16.5920   20.9853 C   0  0  0  0  0  0  0  0  0  0  0  0
    9.1924  -17.1045   21.0981 O   0  0  0  0  0  0  0  0  0  0  0  0
    7.9288  -15.1903   21.1449 N   0  0  0  0  0  0  0  0  0  0  0  0
    6.7575  -14.3679   21.0580 C   0  0  0  0  0  0  0  0  0  0  0  0
    7.1625  -13.0451   21.7329 C   0  0  0  0  0  0  0  0  0  0  0  0
    8.6159  -12.9301   21.2913 C   0  0  0  0  0  0  0  0  0  0  0  0
    9.0658  -14.3568   21.4448 C   0  0  1  0  0  0  0  0  0  0  0  0
    9.4519  -14.4946   22.8985 C   0  0  0  0  0  0  0  0  0  0  0  0
   10.0124  -13.5383   23.4976 O   0  0  0  0  0  0  0  0  0  0  0  0
    4.9110  -12.6428   26.1684 O   0  0  0  0  0  0  0  0  0  0  0  0
    6.2010  -13.1875   26.0975 C   0  0  0  0  0  0  0  0  0  0  0  0
    6.3133  -14.4752   25.6379 C   0  0  0  0  0  0  0  0  0  0  0  0
    7.5685  -15.0393   25.5572 C   0  0  0  0  0  0  0  0  0  0  0  0
    8.6994  -14.3535   25.9208 C   0  0  0  0  0  0  0  0  0  0  0  0
   10.0502  -14.9561   25.8342 C   0  0  0  0  0  0  0  0  0  0  0  0
   10.0110  -16.0588   24.7931 C   0  0  2  0  0  0  0  0  0  0  0  0
    9.2117  -15.6738   23.6461 N   0  0  0  0  0  0  0  0  0  0  0  0
    9.4470  -17.3162   25.3318 C   0  0  0  0  0  0  0  0  0  0  0  0
    8.3054  -17.9219   24.7890 O   0  0  0  0  0  0  0  0  0  0  0  0
    8.5506  -13.0505   26.3824 C   0  0  0  0  0  0  0  0  0  0  0  0
    7.3143  -12.4828   26.4664 C   0  0  0  0  0  0  0  0  0  0  0  0
    9.9665  -17.9092   26.3112 O   0  0  0  0  0  0  0  0  0  0  0  0
  1  2  1  0
  2  3  1  0
  4  3  1  0
  5  4  1  0
  5  1  1  0
  6  7  2  0
  5  6  1  1
  8  6  1  0
  9  8  1  0
 10  9  1  0
 11 10  1  0
 11 12  1  0
 12  8  1  0
 12 13  1  1
 14 13  2  0
 16 15  1  0
 17 16  2  0
 18 17  1  0
 19 25  1  0
 19 18  2  0
 20 19  1  0
 21 20  1  1
 21 22  1  0
 22 13  1  0
 23 21  1  0
 24 23  1  0
 25 26  2  0
 26 16  1  0
 27 23  2  0
M  END
$$$$
