PPY.pdb
     RDKit          3D

 27 29  0  0  1  0  0  0  0  0999 V2000
    7.1657  -18.6367   19.8065 N   0  0  0  0  0  0  0  0  0  0  0  0
    5.9876  -19.5279   19.9913 C   0  0  0  0  0  0  0  0  0  0  0  0
    5.8921  -19.5259   21.5085 C   0  0  0  0  0  0  0  0  0  0  0  0
    6.1771  -18.0951   21.8748 C   0  0  0  0  0  0  0  0  0  0  0  0
    6.8254  -17.5166   20.6667 C   0  0  1  0  0  0  0  0  0  0  0  0
    7.9762  -16.6682   21.0036 C   0  0  0  0  0  0  0  0  0  0  0  0
    9.1482  -17.2291   20.9656 O   0  0  0  0  0  0  0  0  0  0  0  0
    7.9679  -15.3040   21.3706 N   0  0  0  0  0  0  0  0  0  0  0  0
    6.8227  -14.4861   21.6450 C   0  0  0  0  0  0  0  0  0  0  0  0
    7.3878  -13.2697   22.4003 C   0  0  0  0  0  0  0  0  0  0  0  0
    8.7211  -13.0827   21.6876 C   0  0  0  0  0  0  0  0  0  0  0  0
    9.1609  -14.5135   21.5423 C   0  0  1  0  0  0  0  0  0  0  0  0
    9.8353  -14.8538   22.8502 C   0  0  0  0  0  0  0  0  0  0  0  0
   11.0184  -14.4792   23.0681 O   0  0  0  0  0  0  0  0  0  0  0  0
    4.7616  -12.5799   26.3272 O   0  0  0  0  0  0  0  0  0  0  0  0
    6.0217  -13.1924   26.2734 C   0  0  0  0  0  0  0  0  0  0  0  0
    7.1201  -12.3751   26.3600 C   0  0  0  0  0  0  0  0  0  0  0  0
    8.3733  -12.9471   26.3096 C   0  0  0  0  0  0  0  0  0  0  0  0
    8.5505  -14.3008   26.1764 C   0  0  0  0  0  0  0  0  0  0  0  0
    9.8958  -14.9195   26.1231 C   0  0  0  0  0  0  0  0  0  0  0  0
    9.8688  -16.0226   25.0821 C   0  0  2  0  0  0  0  0  0  0  0  0
    9.1921  -15.5922   23.8740 N   0  0  0  0  0  0  0  0  0  0  0  0
    9.1818  -17.2377   25.5730 C   0  0  0  0  0  0  0  0  0  0  0  0
    8.0743  -17.7925   24.9170 O   0  0  0  0  0  0  0  0  0  0  0  0
    7.4166  -15.1007   26.0913 C   0  0  0  0  0  0  0  0  0  0  0  0
    6.1726  -14.5458   26.1400 C   0  0  0  0  0  0  0  0  0  0  0  0
    9.5588  -17.8382   26.6112 O   0  0  0  0  0  0  0  0  0  0  0  0
  1  2  1  0
  2  3  1  0
  4  3  1  0
  5  4  1  0
  5  1  1  0
  6  7  2  0
  5  6  1  1
  8  6  1  0
  9  8  1  0
 10  9  1  0
 11 10  1  0
 11 12  1  0
 12  8  1  0
 12 13  1  1
 14 13  2  0
 16 15  1  0
 17 16  2  0
 18 17  1  0
 19 25  1  0
 19 18  2  0
 20 19  1  0
 21 20  1  1
 21 22  1  0
 22 13  1  0
 23 21  1  0
 24 23  1  0
 25 26  2  0
 26 16  1  0
 27 23  2  0
M  END
$$$$
