PPY.pdb
     RDKit          3D

 27 29  0  0  1  0  0  0  0  0999 V2000
    8.0394  -14.9135   18.6945 N   0  0  0  0  0  0  0  0  0  0  0  0
    8.1965  -13.7628   17.7632 C   0  0  0  0  0  0  0  0  0  0  0  0
    7.8042  -12.6214   18.6874 C   0  0  0  0  0  0  0  0  0  0  0  0
    8.4491  -12.9926   19.9946 C   0  0  0  0  0  0  0  0  0  0  0  0
    8.7559  -14.4432   19.8673 C   0  0  1  0  0  0  0  0  0  0  0  0
    8.4311  -15.1911   21.0891 C   0  0  0  0  0  0  0  0  0  0  0  0
    7.6205  -14.6182   21.9283 O   0  0  0  0  0  0  0  0  0  0  0  0
    8.8972  -16.4687   21.4715 N   0  0  0  0  0  0  0  0  0  0  0  0
    9.6983  -17.3688   20.6943 C   0  0  0  0  0  0  0  0  0  0  0  0
   10.2641  -18.3674   21.7200 C   0  0  0  0  0  0  0  0  0  0  0  0
    9.0845  -18.4982   22.6750 C   0  0  0  0  0  0  0  0  0  0  0  0
    8.6340  -17.0657   22.7568 C   0  0  1  0  0  0  0  0  0  0  0  0
    9.5057  -16.4379   23.8184 C   0  0  0  0  0  0  0  0  0  0  0  0
   10.6185  -15.9355   23.5075 O   0  0  0  0  0  0  0  0  0  0  0  0
    4.6276  -12.8019   26.7631 O   0  0  0  0  0  0  0  0  0  0  0  0
    5.9749  -13.1828   26.6895 C   0  0  0  0  0  0  0  0  0  0  0  0
    6.2408  -14.4819   26.3379 C   0  0  0  0  0  0  0  0  0  0  0  0
    7.5558  -14.8873   26.2574 C   0  0  0  0  0  0  0  0  0  0  0  0
    8.5977  -14.0338   26.5173 C   0  0  0  0  0  0  0  0  0  0  0  0
   10.0125  -14.4656   26.4306 C   0  0  0  0  0  0  0  0  0  0  0  0
   10.0374  -15.9699   26.2365 C   0  0  2  0  0  0  0  0  0  0  0  0
    9.1297  -16.3815   25.1832 N   0  0  0  0  0  0  0  0  0  0  0  0
    9.6574  -16.6986   27.4669 C   0  0  0  0  0  0  0  0  0  0  0  0
   10.4067  -16.6208   28.6489 O   0  0  0  0  0  0  0  0  0  0  0  0
    8.2938  -12.7241   26.8710 C   0  0  0  0  0  0  0  0  0  0  0  0
    6.9971  -12.3124   26.9537 C   0  0  0  0  0  0  0  0  0  0  0  0
    8.6362  -17.4304   27.5148 O   0  0  0  0  0  0  0  0  0  0  0  0
  1  2  1  0
  2  3  1  0
  4  3  1  0
  5  4  1  0
  5  1  1  0
  6  7  2  0
  5  6  1  1
  8  6  1  0
  9  8  1  0
 10  9  1  0
 11 10  1  0
 11 12  1  0
 12  8  1  0
 12 13  1  1
 14 13  2  0
 16 15  1  0
 17 16  2  0
 18 17  1  0
 19 25  1  0
 19 18  2  0
 20 19  1  0
 21 20  1  1
 21 22  1  0
 22 13  1  0
 23 21  1  0
 24 23  1  0
 25 26  2  0
 26 16  1  0
 27 23  2  0
M  END
$$$$
