PPY.pdb
     RDKit          3D

 27 29  0  0  1  0  0  0  0  0999 V2000
    8.7077  -15.1835   18.4935 N   0  0  0  0  0  0  0  0  0  0  0  0
    8.8343  -14.3794   17.2471 C   0  0  0  0  0  0  0  0  0  0  0  0
    7.8393  -13.2701   17.5479 C   0  0  0  0  0  0  0  0  0  0  0  0
    8.0777  -12.9717   19.0028 C   0  0  0  0  0  0  0  0  0  0  0  0
    8.8135  -14.1584   19.5173 C   0  0  1  0  0  0  0  0  0  0  0  0
    8.3219  -14.5927   20.8316 C   0  0  0  0  0  0  0  0  0  0  0  0
    8.5783  -13.8129   21.8395 O   0  0  0  0  0  0  0  0  0  0  0  0
    7.5995  -15.7667   21.1409 N   0  0  0  0  0  0  0  0  0  0  0  0
    7.2075  -16.8081   20.2367 C   0  0  0  0  0  0  0  0  0  0  0  0
    6.8601  -18.0001   21.1464 C   0  0  0  0  0  0  0  0  0  0  0  0
    6.2253  -17.2826   22.3308 C   0  0  0  0  0  0  0  0  0  0  0  0
    7.1488  -16.1036   22.4679 C   0  0  1  0  0  0  0  0  0  0  0  0
    8.3024  -16.6013   23.3062 C   0  0  0  0  0  0  0  0  0  0  0  0
    9.3711  -16.9750   22.7533 O   0  0  0  0  0  0  0  0  0  0  0  0
    5.3261  -12.1669   28.0412 O   0  0  0  0  0  0  0  0  0  0  0  0
    6.4126  -12.8243   27.4471 C   0  0  0  0  0  0  0  0  0  0  0  0
    6.2962  -13.1548   26.1207 C   0  0  0  0  0  0  0  0  0  0  0  0
    7.3474  -13.8025   25.5079 C   0  0  0  0  0  0  0  0  0  0  0  0
    8.4977  -14.1230   26.1828 C   0  0  0  0  0  0  0  0  0  0  0  0
    9.6302  -14.8180   25.5271 C   0  0  0  0  0  0  0  0  0  0  0  0
    9.3611  -16.3103   25.5740 C   0  0  2  0  0  0  0  0  0  0  0  0
    8.2467  -16.6729   24.7200 N   0  0  0  0  0  0  0  0  0  0  0  0
    9.0494  -16.7793   26.9423 C   0  0  0  0  0  0  0  0  0  0  0  0
    7.8082  -17.3346   27.2826 O   0  0  0  0  0  0  0  0  0  0  0  0
    8.5834  -13.7741   27.5259 C   0  0  0  0  0  0  0  0  0  0  0  0
    7.5501  -13.1335   28.1419 C   0  0  0  0  0  0  0  0  0  0  0  0
    9.8878  -16.7024   27.8761 O   0  0  0  0  0  0  0  0  0  0  0  0
  1  2  1  0
  2  3  1  0
  4  3  1  0
  5  4  1  0
  5  1  1  0
  6  7  2  0
  5  6  1  1
  8  6  1  0
  9  8  1  0
 10  9  1  0
 11 10  1  0
 11 12  1  0
 12  8  1  0
 12 13  1  1
 14 13  2  0
 16 15  1  0
 17 16  2  0
 18 17  1  0
 19 25  1  0
 19 18  2  0
 20 19  1  0
 21 20  1  1
 21 22  1  0
 22 13  1  0
 23 21  1  0
 24 23  1  0
 25 26  2  0
 26 16  1  0
 27 23  2  0
M  END
$$$$
