PPY.pdb
     RDKit          3D

 27 29  0  0  1  0  0  0  0  0999 V2000
    7.5944  -13.4630   18.3349 N   0  0  0  0  0  0  0  0  0  0  0  0
    8.5282  -13.1157   17.2287 C   0  0  0  0  0  0  0  0  0  0  0  0
    9.8527  -13.1844   17.9717 C   0  0  0  0  0  0  0  0  0  0  0  0
    9.6957  -14.3915   18.8553 C   0  0  0  0  0  0  0  0  0  0  0  0
    8.2295  -14.6424   18.8970 C   0  0  1  0  0  0  0  0  0  0  0  0
    7.7582  -14.9712   20.2489 C   0  0  0  0  0  0  0  0  0  0  0  0
    7.7247  -13.9981   21.1100 O   0  0  0  0  0  0  0  0  0  0  0  0
    7.3347  -16.2277   20.7361 N   0  0  0  0  0  0  0  0  0  0  0  0
    7.2954  -17.4685   20.0186 C   0  0  0  0  0  0  0  0  0  0  0  0
    7.1886  -18.5453   21.1132 C   0  0  0  0  0  0  0  0  0  0  0  0
    6.2977  -17.8382   22.1265 C   0  0  0  0  0  0  0  0  0  0  0  0
    6.8771  -16.4511   22.0846 C   0  0  1  0  0  0  0  0  0  0  0  0
    8.0466  -16.4829   23.0398 C   0  0  0  0  0  0  0  0  0  0  0  0
    9.1373  -17.0060   22.6873 O   0  0  0  0  0  0  0  0  0  0  0  0
    5.0521  -11.5563   27.2887 O   0  0  0  0  0  0  0  0  0  0  0  0
    6.1568  -12.2726   26.8067 C   0  0  0  0  0  0  0  0  0  0  0  0
    7.1358  -12.5981   27.7109 C   0  0  0  0  0  0  0  0  0  0  0  0
    8.2351  -13.3018   27.2675 C   0  0  0  0  0  0  0  0  0  0  0  0
    8.3757  -13.6824   25.9572 C   0  0  0  0  0  0  0  0  0  0  0  0
    9.5553  -14.4399   25.4773 C   0  0  0  0  0  0  0  0  0  0  0  0
    9.1289  -15.8750   25.2325 C   0  0  2  0  0  0  0  0  0  0  0  0
    7.9821  -15.9415   24.3475 N   0  0  0  0  0  0  0  0  0  0  0  0
    8.7692  -16.5729   26.4867 C   0  0  0  0  0  0  0  0  0  0  0  0
    9.7142  -16.8757   27.4766 O   0  0  0  0  0  0  0  0  0  0  0  0
    7.3656  -13.3366   25.0667 C   0  0  0  0  0  0  0  0  0  0  0  0
    6.2742  -12.6409   25.4941 C   0  0  0  0  0  0  0  0  0  0  0  0
    7.5894  -16.9330   26.7296 O   0  0  0  0  0  0  0  0  0  0  0  0
  1  2  1  0
  2  3  1  0
  4  3  1  0
  5  4  1  0
  5  1  1  0
  6  7  2  0
  5  6  1  1
  8  6  1  0
  9  8  1  0
 10  9  1  0
 11 10  1  0
 11 12  1  0
 12  8  1  0
 12 13  1  1
 14 13  2  0
 16 15  1  0
 17 16  2  0
 18 17  1  0
 19 25  1  0
 19 18  2  0
 20 19  1  0
 21 20  1  1
 21 22  1  0
 22 13  1  0
 23 21  1  0
 24 23  1  0
 25 26  2  0
 26 16  1  0
 27 23  2  0
M  END
$$$$
