PPY.pdb
     RDKit          3D

 27 29  0  0  1  0  0  0  0  0999 V2000
    8.5269  -15.1467   18.2015 N   0  0  0  0  0  0  0  0  0  0  0  0
    8.5849  -14.2699   16.9998 C   0  0  0  0  0  0  0  0  0  0  0  0
    7.5663  -13.2133   17.3962 C   0  0  0  0  0  0  0  0  0  0  0  0
    7.8453  -12.9895   18.8573 C   0  0  0  0  0  0  0  0  0  0  0  0
    8.6356  -14.1780   19.2785 C   0  0  1  0  0  0  0  0  0  0  0  0
    8.2036  -14.7018   20.5810 C   0  0  0  0  0  0  0  0  0  0  0  0
    8.3304  -13.9080   21.6025 O   0  0  0  0  0  0  0  0  0  0  0  0
    7.6640  -15.9760   20.8658 N   0  0  0  0  0  0  0  0  0  0  0  0
    7.5883  -17.1034   19.9832 C   0  0  0  0  0  0  0  0  0  0  0  0
    7.3359  -18.3052   20.9113 C   0  0  0  0  0  0  0  0  0  0  0  0
    6.4296  -17.6733   21.9600 C   0  0  0  0  0  0  0  0  0  0  0  0
    7.1035  -16.3414   22.1425 C   0  0  1  0  0  0  0  0  0  0  0  0
    8.2019  -16.5894   23.1491 C   0  0  0  0  0  0  0  0  0  0  0  0
    9.2447  -17.2086   22.8077 O   0  0  0  0  0  0  0  0  0  0  0  0
    5.2495  -11.5007   27.1331 O   0  0  0  0  0  0  0  0  0  0  0  0
    6.3414  -12.2492   26.6712 C   0  0  0  0  0  0  0  0  0  0  0  0
    7.3068  -12.5806   27.5878 C   0  0  0  0  0  0  0  0  0  0  0  0
    8.3934  -13.3156   27.1645 C   0  0  0  0  0  0  0  0  0  0  0  0
    8.5344  -13.7217   25.8619 C   0  0  0  0  0  0  0  0  0  0  0  0
    9.7003  -14.5129   25.4034 C   0  0  0  0  0  0  0  0  0  0  0  0
    9.2866  -15.9710   25.3376 C   0  0  2  0  0  0  0  0  0  0  0  0
    8.1211  -16.1516   24.4941 N   0  0  0  0  0  0  0  0  0  0  0  0
    8.9644  -16.5213   26.6727 C   0  0  0  0  0  0  0  0  0  0  0  0
    7.6830  -16.9798   27.0080 O   0  0  0  0  0  0  0  0  0  0  0  0
    7.5383  -13.3691   24.9584 C   0  0  0  0  0  0  0  0  0  0  0  0
    6.4596  -12.6424   25.3660 C   0  0  0  0  0  0  0  0  0  0  0  0
    9.8296  -16.6057   27.5810 O   0  0  0  0  0  0  0  0  0  0  0  0
  1  2  1  0
  2  3  1  0
  4  3  1  0
  5  4  1  0
  5  1  1  0
  6  7  2  0
  5  6  1  1
  8  6  1  0
  9  8  1  0
 10  9  1  0
 11 10  1  0
 11 12  1  0
 12  8  1  0
 12 13  1  1
 14 13  2  0
 16 15  1  0
 17 16  2  0
 18 17  1  0
 19 25  1  0
 19 18  2  0
 20 19  1  0
 21 20  1  1
 21 22  1  0
 22 13  1  0
 23 21  1  0
 24 23  1  0
 25 26  2  0
 26 16  1  0
 27 23  2  0
M  END
$$$$
