PPY.pdb
     RDKit          3D

 27 29  0  0  1  0  0  0  0  0999 V2000
    9.0235  -13.7864   20.4670 N   0  0  0  0  0  0  0  0  0  0  0  0
    8.3894  -13.4993   19.1511 C   0  0  0  0  0  0  0  0  0  0  0  0
    7.0222  -14.1247   19.3763 C   0  0  0  0  0  0  0  0  0  0  0  0
    6.6910  -13.7405   20.7924 C   0  0  0  0  0  0  0  0  0  0  0  0
    7.9942  -13.3453   21.3923 C   0  0  1  0  0  0  0  0  0  0  0  0
    8.1655  -13.8744   22.7519 C   0  0  0  0  0  0  0  0  0  0  0  0
    9.0918  -14.7709   22.9189 O   0  0  0  0  0  0  0  0  0  0  0  0
    7.4391  -13.5286   23.9132 N   0  0  0  0  0  0  0  0  0  0  0  0
    6.3216  -12.6349   24.0038 C   0  0  0  0  0  0  0  0  0  0  0  0
    5.6698  -12.9663   25.3583 C   0  0  0  0  0  0  0  0  0  0  0  0
    6.9006  -13.2691   26.2033 C   0  0  0  0  0  0  0  0  0  0  0  0
    7.7222  -14.0598   25.2229 C   0  0  1  0  0  0  0  0  0  0  0  0
    7.2162  -15.4782   25.3374 C   0  0  0  0  0  0  0  0  0  0  0  0
    6.3271  -15.8982   24.5496 O   0  0  0  0  0  0  0  0  0  0  0  0
   10.8371  -14.7284   31.2737 O   0  0  0  0  0  0  0  0  0  0  0  0
   10.6625  -15.2303   29.9762 C   0  0  0  0  0  0  0  0  0  0  0  0
   10.2297  -16.5268   29.8586 C   0  0  0  0  0  0  0  0  0  0  0  0
   10.0491  -17.0496   28.5960 C   0  0  0  0  0  0  0  0  0  0  0  0
   10.2881  -16.3145   27.4628 C   0  0  0  0  0  0  0  0  0  0  0  0
   10.0938  -16.8726   26.1040 C   0  0  0  0  0  0  0  0  0  0  0  0
    8.6799  -17.4148   26.0126 C   0  0  2  0  0  0  0  0  0  0  0  0
    7.7003  -16.3878   26.3098 N   0  0  0  0  0  0  0  0  0  0  0  0
    8.4505  -18.5382   26.9478 C   0  0  0  0  0  0  0  0  0  0  0  0
    9.1218  -19.7632   26.8310 O   0  0  0  0  0  0  0  0  0  0  0  0
   10.7258  -15.0039   27.6171 C   0  0  0  0  0  0  0  0  0  0  0  0
   10.9079  -14.4768   28.8608 C   0  0  0  0  0  0  0  0  0  0  0  0
    7.6356  -18.4508   27.9012 O   0  0  0  0  0  0  0  0  0  0  0  0
  1  2  1  0
  2  3  1  0
  4  3  1  0
  5  4  1  0
  5  1  1  0
  6  7  2  0
  5  6  1  1
  8  6  1  0
  9  8  1  0
 10  9  1  0
 11 10  1  0
 11 12  1  0
 12  8  1  0
 12 13  1  6
 14 13  2  0
 16 15  1  0
 17 16  2  0
 18 17  1  0
 19 25  1  0
 19 18  2  0
 20 19  1  0
 21 20  1  1
 21 22  1  0
 22 13  1  0
 23 21  1  0
 24 23  1  0
 25 26  2  0
 26 16  1  0
 27 23  2  0
M  END
$$$$
