PPY.pdb
     RDKit          3D

 27 29  0  0  1  0  0  0  0  0999 V2000
    9.2151  -15.5304   15.2660 N   0  0  0  0  0  0  0  0  0  0  0  0
    8.2744  -16.2929   14.4001 C   0  0  0  0  0  0  0  0  0  0  0  0
    7.6333  -17.1968   15.4407 C   0  0  0  0  0  0  0  0  0  0  0  0
    7.4473  -16.2889   16.6255 C   0  0  0  0  0  0  0  0  0  0  0  0
    8.3500  -15.1351   16.3640 C   0  0  1  0  0  0  0  0  0  0  0  0
    9.0848  -14.7184   17.5657 C   0  0  0  0  0  0  0  0  0  0  0  0
   10.3510  -15.0090   17.6078 O   0  0  0  0  0  0  0  0  0  0  0  0
    8.5808  -14.0360   18.6953 N   0  0  0  0  0  0  0  0  0  0  0  0
    7.2337  -13.5960   18.9138 C   0  0  0  0  0  0  0  0  0  0  0  0
    7.1543  -13.3301   20.4279 C   0  0  0  0  0  0  0  0  0  0  0  0
    8.5456  -12.7703   20.6950 C   0  0  0  0  0  0  0  0  0  0  0  0
    9.3808  -13.6846   19.8417 C   0  0  1  0  0  0  0  0  0  0  0  0
    9.6361  -14.9011   20.6995 C   0  0  0  0  0  0  0  0  0  0  0  0
    8.7339  -15.7670   20.8540 O   0  0  0  0  0  0  0  0  0  0  0  0
   16.3245  -13.9350   19.4161 O   0  0  0  0  0  0  0  0  0  0  0  0
   15.3019  -14.7529   19.9172 C   0  0  0  0  0  0  0  0  0  0  0  0
   14.2793  -15.0736   19.0608 C   0  0  0  0  0  0  0  0  0  0  0  0
   13.2584  -15.8757   19.5240 C   0  0  0  0  0  0  0  0  0  0  0  0
   13.2374  -16.3583   20.8078 C   0  0  0  0  0  0  0  0  0  0  0  0
   12.1425  -17.2218   21.3089 C   0  0  0  0  0  0  0  0  0  0  0  0
   11.1673  -16.3511   22.0785 C   0  0  2  0  0  0  0  0  0  0  0  0
   10.8695  -15.1282   21.3586 N   0  0  0  0  0  0  0  0  0  0  0  0
   11.6875  -15.9725   23.4110 C   0  0  0  0  0  0  0  0  0  0  0  0
   12.1276  -16.9214   24.3441 O   0  0  0  0  0  0  0  0  0  0  0  0
   14.2888  -16.0145   21.6500 C   0  0  0  0  0  0  0  0  0  0  0  0
   15.3034  -15.2219   21.2026 C   0  0  0  0  0  0  0  0  0  0  0  0
   11.7611  -14.7719   23.7768 O   0  0  0  0  0  0  0  0  0  0  0  0
  1  2  1  0
  2  3  1  0
  4  3  1  0
  5  4  1  0
  5  1  1  0
  6  7  2  0
  5  6  1  1
  8  6  1  0
  9  8  1  0
 10  9  1  0
 11 10  1  0
 11 12  1  0
 12  8  1  0
 12 13  1  1
 14 13  2  0
 16 15  1  0
 17 16  2  0
 18 17  1  0
 19 25  1  0
 19 18  2  0
 20 19  1  0
 21 20  1  6
 21 22  1  0
 22 13  1  0
 23 21  1  0
 24 23  1  0
 25 26  2  0
 26 16  1  0
 27 23  2  0
M  END
$$$$
