PPY.pdb
     RDKit          3D

 27 29  0  0  1  0  0  0  0  0999 V2000
    8.4979  -15.1656   18.2051 N   0  0  0  0  0  0  0  0  0  0  0  0
    8.6568  -14.3484   16.9709 C   0  0  0  0  0  0  0  0  0  0  0  0
    7.6788  -13.2242   17.2725 C   0  0  0  0  0  0  0  0  0  0  0  0
    7.9028  -12.9487   18.7341 C   0  0  0  0  0  0  0  0  0  0  0  0
    8.6089  -14.1556   19.2433 C   0  0  1  0  0  0  0  0  0  0  0  0
    8.0911  -14.5969   20.5452 C   0  0  0  0  0  0  0  0  0  0  0  0
    8.2778  -13.7958   21.5516 O   0  0  0  0  0  0  0  0  0  0  0  0
    7.4102  -15.7982   20.8438 N   0  0  0  0  0  0  0  0  0  0  0  0
    7.1867  -16.9102   19.9667 C   0  0  0  0  0  0  0  0  0  0  0  0
    6.8108  -18.0724   20.9034 C   0  0  0  0  0  0  0  0  0  0  0  0
    6.0039  -17.3365   21.9653 C   0  0  0  0  0  0  0  0  0  0  0  0
    6.8332  -16.0930   22.1313 C   0  0  1  0  0  0  0  0  0  0  0  0
    7.9122  -16.4672   23.1196 C   0  0  0  0  0  0  0  0  0  0  0  0
    8.9102  -17.1377   22.7428 O   0  0  0  0  0  0  0  0  0  0  0  0
    5.1850  -11.7952   27.7382 O   0  0  0  0  0  0  0  0  0  0  0  0
    6.2554  -12.5345   27.2152 C   0  0  0  0  0  0  0  0  0  0  0  0
    6.9750  -13.3034   28.0944 C   0  0  0  0  0  0  0  0  0  0  0  0
    8.0341  -14.0414   27.6108 C   0  0  0  0  0  0  0  0  0  0  0  0
    8.3852  -14.0282   26.2849 C   0  0  0  0  0  0  0  0  0  0  0  0
    9.5220  -14.8212   25.7612 C   0  0  0  0  0  0  0  0  0  0  0  0
    9.0037  -16.1934   25.3740 C   0  0  2  0  0  0  0  0  0  0  0  0
    7.8618  -16.0951   24.4858 N   0  0  0  0  0  0  0  0  0  0  0  0
    8.5894  -16.9872   26.5519 C   0  0  0  0  0  0  0  0  0  0  0  0
    9.4931  -17.3841   27.5472 O   0  0  0  0  0  0  0  0  0  0  0  0
    7.6354  -13.2385   25.4206 C   0  0  0  0  0  0  0  0  0  0  0  0
    6.5862  -12.5046   25.8878 C   0  0  0  0  0  0  0  0  0  0  0  0
    7.3973  -17.3492   26.7209 O   0  0  0  0  0  0  0  0  0  0  0  0
  1  2  1  0
  2  3  1  0
  4  3  1  0
  5  4  1  0
  5  1  1  0
  6  7  2  0
  5  6  1  1
  8  6  1  0
  9  8  1  0
 10  9  1  0
 11 10  1  0
 11 12  1  0
 12  8  1  0
 12 13  1  1
 14 13  2  0
 16 15  1  0
 17 16  2  0
 18 17  1  0
 19 25  1  0
 19 18  2  0
 20 19  1  0
 21 20  1  1
 21 22  1  0
 22 13  1  0
 23 21  1  0
 24 23  1  0
 25 26  2  0
 26 16  1  0
 27 23  2  0
M  END
$$$$
